
     RDKit          3D

 21 21  0  0  0  0  0  0  0  0999 V2000
   -1.3695    1.3367   -1.0719 C   0  0  0  0  0  0  0  0  0  0  0  0
   -1.4091   -0.0981   -0.5428 C   0  0  0  0  0  0  0  0  0  0  0  0
   -0.1819   -0.3999    0.3191 C   0  0  0  0  0  0  0  0  0  0  0  0
   -1.5636   -1.1028   -1.6652 C   0  0  0  0  0  0  0  0  0  0  0  0
   -0.5920   -1.2314   -2.6553 C   0  0  0  0  0  0  0  0  0  0  0  0
   -0.7353   -2.1509   -3.6809 C   0  0  0  0  0  0  0  0  0  0  0  0
   -1.8582   -2.9642   -3.7377 C   0  0  0  0  0  0  0  0  0  0  0  0
   -2.8325   -2.8475   -2.7602 C   0  0  0  0  0  0  0  0  0  0  0  0
   -2.6828   -1.9241   -1.7351 C   0  0  0  0  0  0  0  0  0  0  0  0
   -0.4920    1.4974   -1.7025 H   0  0  0  0  0  0  0  0  0  0  0  0
   -2.2553    1.5607   -1.6679 H   0  0  0  0  0  0  0  0  0  0  0  0
   -1.3211    2.0496   -0.2461 H   0  0  0  0  0  0  0  0  0  0  0  0
   -2.2930   -0.1918    0.0948 H   0  0  0  0  0  0  0  0  0  0  0  0
   -0.1215    0.2955    1.1588 H   0  0  0  0  0  0  0  0  0  0  0  0
   -0.2200   -1.4155    0.7159 H   0  0  0  0  0  0  0  0  0  0  0  0
    0.7383   -0.3016   -0.2615 H   0  0  0  0  0  0  0  0  0  0  0  0
    0.2915   -0.6040   -2.6263 H   0  0  0  0  0  0  0  0  0  0  0  0
    0.0326   -2.2338   -4.4401 H   0  0  0  0  0  0  0  0  0  0  0  0
   -1.9712   -3.6833   -4.5391 H   0  0  0  0  0  0  0  0  0  0  0  0
   -3.7135   -3.4765   -2.7932 H   0  0  0  0  0  0  0  0  0  0  0  0
   -3.4509   -1.8400   -0.9743 H   0  0  0  0  0  0  0  0  0  0  0  0
  1  2  1  0
  1 10  1  0
  1 11  1  0
  1 12  1  0
  2  3  1  0
  2  4  1  0
  2 13  1  0
  3 14  1  0
  3 15  1  0
  3 16  1  0
  4  5  2  0
  4  9  1  0
  5  6  1  0
  5 17  1  0
  6  7  2  0
  6 18  1  0
  7  8  1  0
  7 19  1  0
  8  9  2  0
  8 20  1  0
  9 21  1  0
M  END
>  <reaction>  (1) 
rxn_1525

>  <mol_properties>  (1) 
{"1": {"label": "donator", "atom_type": "Cs"}, "12": {"label": "d_hydrogen", "atom_type": "H0"}}

>  <type>  (1) 
r1h

$$$$

     RDKit          3D

 13 12  0  0  0  0  0  0  0  0999 V2000
   -1.3649   -0.5967   -0.3477 C   0  0  0  0  0  0  0  0  0  0  0  0
   -0.1601   -0.2776    0.4669 C   0  0  0  0  0  3  0  0  0  0  0  0
    1.1241   -0.9571    0.1414 C   0  0  0  0  0  0  0  0  0  0  0  0
   -0.1188    1.0130    1.2082 C   0  0  0  0  0  0  0  0  0  0  0  0
   -1.4265   -1.6632   -0.5770 H   0  0  0  0  0  0  0  0  0  0  0  0
   -2.2859   -0.3004    0.1602 H   0  0  0  0  0  0  0  0  0  0  0  0
   -1.3532   -0.0668   -1.3139 H   0  0  0  0  0  0  0  0  0  0  0  0
    1.6174   -0.4963   -0.7297 H   0  0  0  0  0  0  0  0  0  0  0  0
    0.9723   -2.0104   -0.1064 H   0  0  0  0  0  0  0  0  0  0  0  0
    1.8338   -0.8977    0.9701 H   0  0  0  0  0  0  0  0  0  0  0  0
   -1.0851    1.2507    1.6593 H   0  0  0  0  0  0  0  0  0  0  0  0
    0.6358    1.0009    1.9983 H   0  0  0  0  0  0  0  0  0  0  0  0
    0.1343    1.8546    0.5434 H   0  0  0  0  0  0  0  0  0  0  0  0
  1  2  1  0
  1  5  1  0
  1  6  1  0
  1  7  1  0
  2  3  1  0
  2  4  1  0
  3  8  1  0
  3  9  1  0
  3 10  1  0
  4 11  1  0
  4 12  1  0
  4 13  1  0
M  RAD  1   2   2
M  END
>  <reaction>  (2) 
rxn_1525

>  <mol_properties>  (2) 
{"1": {"label": "acceptor", "atom_type": "Cs"}}

>  <type>  (2) 
r2

$$$$

     RDKit          3D

 14 13  0  0  0  0  0  0  0  0999 V2000
   -0.7647   -1.2352   -0.0349 C   0  0  0  0  0  0  0  0  0  0  0  0
    0.0570   -0.0126    0.3624 C   0  0  0  0  0  0  0  0  0  0  0  0
    1.4161   -0.0194   -0.3307 C   0  0  0  0  0  0  0  0  0  0  0  0
   -0.7022    1.2765    0.0630 C   0  0  0  0  0  0  0  0  0  0  0  0
   -0.2387   -2.1619    0.2040 H   0  0  0  0  0  0  0  0  0  0  0  0
   -0.9624   -1.2316   -1.1108 H   0  0  0  0  0  0  0  0  0  0  0  0
   -1.7274   -1.2511    0.4805 H   0  0  0  0  0  0  0  0  0  0  0  0
    0.2295   -0.0590    1.4432 H   0  0  0  0  0  0  0  0  0  0  0  0
    1.2933    0.0260   -1.4168 H   0  0  0  0  0  0  0  0  0  0  0  0
    2.0206    0.8381   -0.0278 H   0  0  0  0  0  0  0  0  0  0  0  0
    1.9767   -0.9268   -0.0966 H   0  0  0  0  0  0  0  0  0  0  0  0
   -1.6638    1.3002    0.5801 H   0  0  0  0  0  0  0  0  0  0  0  0
   -0.8979    1.3663   -1.0096 H   0  0  0  0  0  0  0  0  0  0  0  0
   -0.1312    2.1545    0.3720 H   0  0  0  0  0  0  0  0  0  0  0  0
  1  2  1  0
  1  5  1  0
  1  6  1  0
  1  7  1  0
  2  3  1  0
  2  4  1  0
  2  8  1  0
  3  9  1  0
  3 10  1  0
  3 11  1  0
  4 12  1  0
  4 13  1  0
  4 14  1  0
M  END
>  <reaction>  (3) 
rxn_1525

>  <mol_properties>  (3) 
{"0": {"label": "a_hydrogen", "atom_type": "H0"}, "2": {"label": "acceptor", "atom_type": "Cs"}}

>  <type>  (3) 
r2h

$$$$

     RDKit          3D

 34 33  0  0  0  0  0  0  0  0999 V2000
   -0.3210    1.5438   -1.8964 C   0  0  0  0  0  0  0  0  0  0  0  0
   -0.0885    1.2096   -0.4387 C   0  0  0  0  0  0  0  0  0  0  0  0
   -0.1571    2.4359    0.4508 C   0  0  0  0  0  0  0  0  0  0  0  0
    1.0106    0.2509   -0.1476 C   0  0  0  0  0  0  0  0  0  0  0  0
    1.7086   -0.4094   -1.1626 C   0  0  0  0  0  0  0  0  0  0  0  0
    2.6817   -1.3538   -0.8745 C   0  0  0  0  0  0  0  0  0  0  0  0
    2.9857   -1.6723    0.4388 C   0  0  0  0  0  0  0  0  0  0  0  0
    2.3052   -1.0278    1.4622 C   0  0  0  0  0  0  0  0  0  0  0  0
    1.3373   -0.0831    1.1728 C   0  0  0  0  0  0  0  0  0  0  0  0
    0.5392    2.0602   -2.3363 H   0  0  0  0  0  0  0  0  0  0  0  0
   -0.5171    0.6520   -2.4946 H   0  0  0  0  0  0  0  0  0  0  0  0
   -1.1859    2.2016   -1.9953 H   0  0  0  0  0  0  0  0  0  0  0  0
   -1.1587    0.5401   -0.1161 H   0  0  0  0  0  0  0  0  0  0  0  0
   -1.0832    2.9846    0.2663 H   0  0  0  0  0  0  0  0  0  0  0  0
   -0.1298    2.1889    1.5115 H   0  0  0  0  0  0  0  0  0  0  0  0
    0.6785    3.1139    0.2473 H   0  0  0  0  0  0  0  0  0  0  0  0
    1.4979   -0.1823   -2.1988 H   0  0  0  0  0  0  0  0  0  0  0  0
    3.2063   -1.8429   -1.6862 H   0  0  0  0  0  0  0  0  0  0  0  0
    3.7441   -2.4111    0.6638 H   0  0  0  0  0  0  0  0  0  0  0  0
    2.5295   -1.2638    2.4952 H   0  0  0  0  0  0  0  0  0  0  0  0
    0.8173    0.3957    1.9923 H   0  0  0  0  0  0  0  0  0  0  0  0
   -3.4194    0.5423   -0.5005 C   0  0  0  0  0  0  0  0  0  0  0  0
   -2.3029   -0.1973    0.1885 C   0  0  0  0  0  3  0  0  0  0  0  0
   -2.3629   -0.1646    1.6930 C   0  0  0  0  0  0  0  0  0  0  0  0
   -1.9757   -1.5455   -0.3968 C   0  0  0  0  0  0  0  0  0  0  0  0
   -3.5076    1.5663   -0.1297 H   0  0  0  0  0  0  0  0  0  0  0  0
   -3.2638    0.5831   -1.5806 H   0  0  0  0  0  0  0  0  0  0  0  0
   -4.3839    0.0476   -0.3262 H   0  0  0  0  0  0  0  0  0  0  0  0
   -3.2333   -0.7232    2.0618 H   0  0  0  0  0  0  0  0  0  0  0  0
   -2.4496    0.8580    2.0675 H   0  0  0  0  0  0  0  0  0  0  0  0
   -1.4731   -0.6184    2.1338 H   0  0  0  0  0  0  0  0  0  0  0  0
   -1.8334   -1.4854   -1.4782 H   0  0  0  0  0  0  0  0  0  0  0  0
   -1.0626   -1.9547    0.0407 H   0  0  0  0  0  0  0  0  0  0  0  0
   -2.7860   -2.2623   -0.2104 H   0  0  0  0  0  0  0  0  0  0  0  0
  1  2  1  0
  1 10  1  0
  1 11  1  0
  1 12  1  0
  2  3  1  0
  2  4  1  0
  2 13  1  0
  3 14  1  0
  3 15  1  0
  3 16  1  0
  4  5  2  0
  4  9  1  0
  5  6  1  0
  5 17  1  0
  6  7  2  0
  6 18  1  0
  7  8  1  0
  7 19  1  0
  8  9  2  0
  8 20  1  0
  9 21  1  0
 22 23  1  0
 22 26  1  0
 22 27  1  0
 22 28  1  0
 23 24  1  0
 23 25  1  0
 24 29  1  0
 24 30  1  0
 24 31  1  0
 25 32  1  0
 25 33  1  0
 25 34  1  0
M  RAD  1  23   2
M  END
>  <reaction>  (4) 
rxn_1525

>  <mol_properties>  (4) 
{"1": {"label": "*1", "atom_type": "Cs"}, "3": {"label": "*0", "atom_type": "Cd"}, "12": {"label": "*2", "atom_type": "H0"}, "21": {"label": "*4", "atom_type": "Cs"}, "22": {"label": "*3", "atom_type": "Cs"}}

>  <type>  (4) 
ts

$$$$

     RDKit          3D

 34 33  0  0  0  0  0  0  0  0999 V2000
   -0.1708    0.9481   -2.2707 C   0  0  0  0  0  0  0  0  0  0  0  0
   -0.1708    0.9481   -0.7410 C   0  0  0  0  0  0  0  0  0  0  0  0
   -0.1708    2.3757   -0.1915 C   0  0  0  0  0  0  0  0  0  0  0  0
    0.9785    0.1352   -0.1829 C   0  0  0  0  0  0  0  0  0  0  0  0
    2.3015    0.4949   -0.4299 C   0  0  0  0  0  0  0  0  0  0  0  0
    3.3512   -0.2498    0.0815 C   0  0  0  0  0  0  0  0  0  0  0  0
    3.0981   -1.3746    0.8538 C   0  0  0  0  0  0  0  0  0  0  0  0
    1.7877   -1.7444    1.1077 C   0  0  0  0  0  0  0  0  0  0  0  0
    0.7404   -0.9937    0.5923 C   0  0  0  0  0  0  0  0  0  0  0  0
    0.7234    1.4383   -2.6623 H   0  0  0  0  0  0  0  0  0  0  0  0
   -0.1939   -0.0693   -2.6641 H   0  0  0  0  0  0  0  0  0  0  0  0
   -1.0404    1.4853   -2.6550 H   0  0  0  0  0  0  0  0  0  0  0  0
   -1.2797    0.3689   -0.3433 H   0  0  0  0  0  0  0  0  0  0  0  0
   -1.0404    2.9273   -0.5549 H   0  0  0  0  0  0  0  0  0  0  0  0
   -0.1939    2.3773    0.8992 H   0  0  0  0  0  0  0  0  0  0  0  0
    0.7234    2.9173   -0.5084 H   0  0  0  0  0  0  0  0  0  0  0  0
    2.5173    1.3707   -1.0312 H   0  0  0  0  0  0  0  0  0  0  0  0
    4.3720    0.0483   -0.1232 H   0  0  0  0  0  0  0  0  0  0  0  0
    3.9179   -1.9575    1.2540 H   0  0  0  0  0  0  0  0  0  0  0  0
    1.5769   -2.6201    1.7090 H   0  0  0  0  0  0  0  0  0  0  0  0
   -0.2822   -1.2910    0.7964 H   0  0  0  0  0  0  0  0  0  0  0  0
   -2.0100   -1.4308    0.8888 C   0  0  0  0  0  0  0  0  0  0  0  0
   -2.3902   -0.2110    0.0549 C   0  0  0  0  0  3  0  0  0  0  0  0
   -3.7908   -0.3647   -0.5304 C   0  0  0  0  0  0  0  0  0  0  0  0
   -2.2797    1.0690    0.8777 C   0  0  0  0  0  0  0  0  0  0  0  0
   -2.0588   -2.3473    0.2971 H   0  0  0  0  0  0  0  0  0  0  0  0
   -0.9971   -1.3397    1.2867 H   0  0  0  0  0  0  0  0  0  0  0  0
   -2.6924   -1.5441    1.7363 H   0  0  0  0  0  0  0  0  0  0  0  0
   -4.5342   -0.4413    0.2684 H   0  0  0  0  0  0  0  0  0  0  0  0
   -3.8679   -1.2644   -1.1446 H   0  0  0  0  0  0  0  0  0  0  0  0
   -4.0574    0.4923   -1.1525 H   0  0  0  0  0  0  0  0  0  0  0  0
   -1.2710    1.1997    1.2752 H   0  0  0  0  0  0  0  0  0  0  0  0
   -2.5225    1.9487    0.2780 H   0  0  0  0  0  0  0  0  0  0  0  0
   -2.9712    1.0415    1.7249 H   0  0  0  0  0  0  0  0  0  0  0  0
  1  2  1  0
  1 10  1  0
  1 11  1  0
  1 12  1  0
  2  3  1  0
  2  4  1  0
  2 13  1  0
  3 14  1  0
  3 15  1  0
  3 16  1  0
  4  5  2  0
  4  9  1  0
  5  6  1  0
  5 17  1  0
  6  7  2  0
  6 18  1  0
  7  8  1  0
  7 19  1  0
  8  9  2  0
  8 20  1  0
  9 21  1  0
 22 23  1  0
 22 26  1  0
 22 27  1  0
 22 28  1  0
 23 24  1  0
 23 25  1  0
 24 29  1  0
 24 30  1  0
 24 31  1  0
 25 32  1  0
 25 33  1  0
 25 34  1  0
M  RAD  1  23   2
M  END
>  <reaction>  (5) 
rxn_1525

>  <mol_properties>  (5) 
{"1": {"label": "*1", "atom_type": "Cs"}, "3": {"label": "*0", "atom_type": "Cd"}, "12": {"label": "*2", "atom_type": "H0"}, "21": {"label": "*4", "atom_type": "Cs"}, "22": {"label": "*3", "atom_type": "Cs"}}

>  <type>  (5) 
unop_1

>  <geom_source>  (5) 
Heuristics

$$$$

     RDKit          3D

 34 33  0  0  0  0  0  0  0  0999 V2000
   -0.1707    1.0199   -2.2277 C   0  0  0  0  0  0  0  0  0  0  0  0
   -0.1707    1.0199   -0.6980 C   0  0  0  0  0  0  0  0  0  0  0  0
   -0.1707    2.4475   -0.1485 C   0  0  0  0  0  0  0  0  0  0  0  0
    0.9786    0.2071   -0.1398 C   0  0  0  0  0  0  0  0  0  0  0  0
    2.3017    0.5668   -0.3869 C   0  0  0  0  0  0  0  0  0  0  0  0
    3.3513   -0.1779    0.1245 C   0  0  0  0  0  0  0  0  0  0  0  0
    3.0982   -1.3027    0.8968 C   0  0  0  0  0  0  0  0  0  0  0  0
    1.7878   -1.6725    1.1507 C   0  0  0  0  0  0  0  0  0  0  0  0
    0.7406   -0.9219    0.6353 C   0  0  0  0  0  0  0  0  0  0  0  0
    0.7236    1.5102   -2.6193 H   0  0  0  0  0  0  0  0  0  0  0  0
   -0.1938    0.0026   -2.6210 H   0  0  0  0  0  0  0  0  0  0  0  0
   -1.0402    1.5572   -2.6120 H   0  0  0  0  0  0  0  0  0  0  0  0
   -1.2796    0.4408   -0.3003 H   0  0  0  0  0  0  0  0  0  0  0  0
   -1.0402    2.9992   -0.5118 H   0  0  0  0  0  0  0  0  0  0  0  0
   -0.1938    2.4492    0.9422 H   0  0  0  0  0  0  0  0  0  0  0  0
    0.7236    2.9891   -0.4653 H   0  0  0  0  0  0  0  0  0  0  0  0
    2.5175    1.4426   -0.9882 H   0  0  0  0  0  0  0  0  0  0  0  0
    4.3722    0.1202   -0.0802 H   0  0  0  0  0  0  0  0  0  0  0  0
    3.9181   -1.8856    1.2970 H   0  0  0  0  0  0  0  0  0  0  0  0
    1.5771   -2.5482    1.7520 H   0  0  0  0  0  0  0  0  0  0  0  0
   -0.2820   -1.2192    0.8394 H   0  0  0  0  0  0  0  0  0  0  0  0
   -2.7883   -1.1660   -0.9579 C   0  0  0  0  0  0  0  0  0  0  0  0
   -2.3900   -0.1392    0.0979 C   0  0  0  0  0  3  0  0  0  0  0  0
   -3.6017    0.6615    0.5653 C   0  0  0  0  0  0  0  0  0  0  0  0
   -1.6915   -0.8106    1.2765 C   0  0  0  0  0  0  0  0  0  0  0  0
   -3.2626   -0.6881   -1.8176 H   0  0  0  0  0  0  0  0  0  0  0  0
   -1.9204   -1.7226   -1.3177 H   0  0  0  0  0  0  0  0  0  0  0  0
   -3.4986   -1.8872   -0.5432 H   0  0  0  0  0  0  0  0  0  0  0  0
   -4.3399    0.0030    1.0324 H   0  0  0  0  0  0  0  0  0  0  0  0
   -4.0891    1.1684   -0.2702 H   0  0  0  0  0  0  0  0  0  0  0  0
   -3.3183    1.4181    1.2999 H   0  0  0  0  0  0  0  0  0  0  0  0
   -0.8062   -1.3614    0.9520 H   0  0  0  0  0  0  0  0  0  0  0  0
   -1.3780   -0.0773    2.0224 H   0  0  0  0  0  0  0  0  0  0  0  0
   -2.3641   -1.5197    1.7679 H   0  0  0  0  0  0  0  0  0  0  0  0
  1  2  1  0
  1 10  1  0
  1 11  1  0
  1 12  1  0
  2  3  1  0
  2  4  1  0
  2 13  1  0
  3 14  1  0
  3 15  1  0
  3 16  1  0
  4  5  2  0
  4  9  1  0
  5  6  1  0
  5 17  1  0
  6  7  2  0
  6 18  1  0
  7  8  1  0
  7 19  1  0
  8  9  2  0
  8 20  1  0
  9 21  1  0
 22 23  1  0
 22 26  1  0
 22 27  1  0
 22 28  1  0
 23 24  1  0
 23 25  1  0
 24 29  1  0
 24 30  1  0
 24 31  1  0
 25 32  1  0
 25 33  1  0
 25 34  1  0
M  RAD  1  23   2
M  END
>  <reaction>  (6) 
rxn_1525

>  <mol_properties>  (6) 
{"1": {"label": "*1", "atom_type": "Cs"}, "3": {"label": "*0", "atom_type": "Cd"}, "12": {"label": "*2", "atom_type": "H0"}, "21": {"label": "*4", "atom_type": "Cs"}, "22": {"label": "*3", "atom_type": "Cs"}}

>  <type>  (6) 
unop_2

>  <geom_source>  (6) 
Heuristics

$$$$

     RDKit          3D

 34 33  0  0  0  0  0  0  0  0999 V2000
   -0.1436    0.9456   -2.2385 C   0  0  0  0  0  0  0  0  0  0  0  0
   -0.1436    0.9456   -0.7088 C   0  0  0  0  0  0  0  0  0  0  0  0
   -0.1436    2.3732   -0.1593 C   0  0  0  0  0  0  0  0  0  0  0  0
    1.0057    0.1328   -0.1507 C   0  0  0  0  0  0  0  0  0  0  0  0
    2.3287    0.4925   -0.3977 C   0  0  0  0  0  0  0  0  0  0  0  0
    3.3784   -0.2522    0.1137 C   0  0  0  0  0  0  0  0  0  0  0  0
    3.1253   -1.3770    0.8860 C   0  0  0  0  0  0  0  0  0  0  0  0
    1.8149   -1.7468    1.1399 C   0  0  0  0  0  0  0  0  0  0  0  0
    0.7677   -0.9962    0.6245 C   0  0  0  0  0  0  0  0  0  0  0  0
    0.7506    1.4359   -2.6301 H   0  0  0  0  0  0  0  0  0  0  0  0
   -0.1667   -0.0717   -2.6318 H   0  0  0  0  0  0  0  0  0  0  0  0
   -1.0132    1.4829   -2.6228 H   0  0  0  0  0  0  0  0  0  0  0  0
   -1.2525    0.3665   -0.3111 H   0  0  0  0  0  0  0  0  0  0  0  0
   -1.0132    2.9249   -0.5226 H   0  0  0  0  0  0  0  0  0  0  0  0
   -0.1667    2.3749    0.9314 H   0  0  0  0  0  0  0  0  0  0  0  0
    0.7506    2.9148   -0.4761 H   0  0  0  0  0  0  0  0  0  0  0  0
    2.5445    1.3683   -0.9990 H   0  0  0  0  0  0  0  0  0  0  0  0
    4.3992    0.0459   -0.0910 H   0  0  0  0  0  0  0  0  0  0  0  0
    3.9452   -1.9599    1.2862 H   0  0  0  0  0  0  0  0  0  0  0  0
    1.6042   -2.6225    1.7412 H   0  0  0  0  0  0  0  0  0  0  0  0
   -0.2550   -1.2935    0.8286 H   0  0  0  0  0  0  0  0  0  0  0  0
   -2.0861   -0.8877    1.4274 C   0  0  0  0  0  0  0  0  0  0  0  0
   -2.3630   -0.2135    0.0871 C   0  0  0  0  0  3  0  0  0  0  0  0
   -3.3487   -1.0311   -0.7421 C   0  0  0  0  0  0  0  0  0  0  0  0
   -2.8685    1.2121    0.2871 C   0  0  0  0  0  0  0  0  0  0  0  0
   -1.6961   -1.8985    1.2904 H   0  0  0  0  0  0  0  0  0  0  0  0
   -1.3588   -0.3221    2.0137 H   0  0  0  0  0  0  0  0  0  0  0  0
   -3.0047   -0.9616    2.0169 H   0  0  0  0  0  0  0  0  0  0  0  0
   -4.3107   -1.1097   -0.2272 H   0  0  0  0  0  0  0  0  0  0  0  0
   -2.9788   -2.0441   -0.9135 H   0  0  0  0  0  0  0  0  0  0  0  0
   -3.5286   -0.5685   -1.7149 H   0  0  0  0  0  0  0  0  0  0  0  0
   -2.1534    1.8109    0.8551 H   0  0  0  0  0  0  0  0  0  0  0  0
   -3.0409    1.7101   -0.6694 H   0  0  0  0  0  0  0  0  0  0  0  0
   -3.8139    1.2104    0.8375 H   0  0  0  0  0  0  0  0  0  0  0  0
  1  2  1  0
  1 10  1  0
  1 11  1  0
  1 12  1  0
  2  3  1  0
  2  4  1  0
  2 13  1  0
  3 14  1  0
  3 15  1  0
  3 16  1  0
  4  5  2  0
  4  9  1  0
  5  6  1  0
  5 17  1  0
  6  7  2  0
  6 18  1  0
  7  8  1  0
  7 19  1  0
  8  9  2  0
  8 20  1  0
  9 21  1  0
 22 23  1  0
 22 26  1  0
 22 27  1  0
 22 28  1  0
 23 24  1  0
 23 25  1  0
 24 29  1  0
 24 30  1  0
 24 31  1  0
 25 32  1  0
 25 33  1  0
 25 34  1  0
M  RAD  1  23   2
M  END
>  <reaction>  (7) 
rxn_1525

>  <mol_properties>  (7) 
{"1": {"label": "*1", "atom_type": "Cs"}, "3": {"label": "*0", "atom_type": "Cd"}, "12": {"label": "*2", "atom_type": "H0"}, "21": {"label": "*4", "atom_type": "Cs"}, "22": {"label": "*3", "atom_type": "Cs"}}

>  <type>  (7) 
unop_3

>  <geom_source>  (7) 
Heuristics

$$$$

     RDKit          3D

 34 33  0  0  0  0  0  0  0  0999 V2000
   -0.1398    0.9607   -2.2277 C   0  0  0  0  0  0  0  0  0  0  0  0
   -0.1398    0.9607   -0.6980 C   0  0  0  0  0  0  0  0  0  0  0  0
   -0.1398    2.3883   -0.1485 C   0  0  0  0  0  0  0  0  0  0  0  0
    1.0095    0.1479   -0.1398 C   0  0  0  0  0  0  0  0  0  0  0  0
    2.3326    0.5076   -0.3869 C   0  0  0  0  0  0  0  0  0  0  0  0
    3.3822   -0.2371    0.1245 C   0  0  0  0  0  0  0  0  0  0  0  0
    3.1291   -1.3619    0.8968 C   0  0  0  0  0  0  0  0  0  0  0  0
    1.8188   -1.7317    1.1507 C   0  0  0  0  0  0  0  0  0  0  0  0
    0.7715   -0.9811    0.6353 C   0  0  0  0  0  0  0  0  0  0  0  0
    0.7545    1.4510   -2.6193 H   0  0  0  0  0  0  0  0  0  0  0  0
   -0.1628   -0.0566   -2.6210 H   0  0  0  0  0  0  0  0  0  0  0  0
   -1.0093    1.4980   -2.6120 H   0  0  0  0  0  0  0  0  0  0  0  0
   -1.2487    0.3816   -0.3003 H   0  0  0  0  0  0  0  0  0  0  0  0
   -1.0093    2.9400   -0.5118 H   0  0  0  0  0  0  0  0  0  0  0  0
   -0.1628    2.3900    0.9422 H   0  0  0  0  0  0  0  0  0  0  0  0
    0.7545    2.9299   -0.4653 H   0  0  0  0  0  0  0  0  0  0  0  0
    2.5484    1.3834   -0.9882 H   0  0  0  0  0  0  0  0  0  0  0  0
    4.4031    0.0610   -0.0802 H   0  0  0  0  0  0  0  0  0  0  0  0
    3.9490   -1.9448    1.2970 H   0  0  0  0  0  0  0  0  0  0  0  0
    1.6080   -2.6074    1.7520 H   0  0  0  0  0  0  0  0  0  0  0  0
   -0.2511   -1.2784    0.8394 H   0  0  0  0  0  0  0  0  0  0  0  0
   -3.4294    0.0615   -0.9579 C   0  0  0  0  0  0  0  0  0  0  0  0
   -2.3591   -0.1984    0.0979 C   0  0  0  0  0  3  0  0  0  0  0  0
   -2.5111    0.7585    1.2765 C   0  0  0  0  0  0  0  0  0  0  0  0
   -2.3944   -1.6503    0.5653 C   0  0  0  0  0  0  0  0  0  0  0  0
   -3.3902    1.0917   -1.3179 H   0  0  0  0  0  0  0  0  0  0  0  0
   -3.3083   -0.6010   -1.8175 H   0  0  0  0  0  0  0  0  0  0  0  0
   -4.4271   -0.1092   -0.5431 H   0  0  0  0  0  0  0  0  0  0  0  0
   -3.4773    0.6116    1.7680 H   0  0  0  0  0  0  0  0  0  0  0  0
   -2.4574    1.7998    0.9520 H   0  0  0  0  0  0  0  0  0  0  0  0
   -1.7300    0.5969    2.0224 H   0  0  0  0  0  0  0  0  0  0  0  0
   -2.2567   -2.3399   -0.2702 H   0  0  0  0  0  0  0  0  0  0  0  0
   -1.6115   -1.8500    1.3000 H   0  0  0  0  0  0  0  0  0  0  0  0
   -3.3566   -1.8799    1.0323 H   0  0  0  0  0  0  0  0  0  0  0  0
  1  2  1  0
  1 10  1  0
  1 11  1  0
  1 12  1  0
  2  3  1  0
  2  4  1  0
  2 13  1  0
  3 14  1  0
  3 15  1  0
  3 16  1  0
  4  5  2  0
  4  9  1  0
  5  6  1  0
  5 17  1  0
  6  7  2  0
  6 18  1  0
  7  8  1  0
  7 19  1  0
  8  9  2  0
  8 20  1  0
  9 21  1  0
 22 23  1  0
 22 26  1  0
 22 27  1  0
 22 28  1  0
 23 24  1  0
 23 25  1  0
 24 29  1  0
 24 30  1  0
 24 31  1  0
 25 32  1  0
 25 33  1  0
 25 34  1  0
M  RAD  1  23   2
M  END
>  <reaction>  (8) 
rxn_1525

>  <mol_properties>  (8) 
{"1": {"label": "*1", "atom_type": "Cs"}, "3": {"label": "*0", "atom_type": "Cd"}, "12": {"label": "*2", "atom_type": "H0"}, "21": {"label": "*4", "atom_type": "Cs"}, "22": {"label": "*3", "atom_type": "Cs"}}

>  <type>  (8) 
unop_4

>  <geom_source>  (8) 
Heuristics

$$$$

     RDKit          3D

 34 33  0  0  0  0  0  0  0  0999 V2000
   -0.1458    0.9953   -2.2131 C   0  0  0  0  0  0  0  0  0  0  0  0
   -0.1458    0.9953   -0.6834 C   0  0  0  0  0  0  0  0  0  0  0  0
   -0.1458    2.4229   -0.1339 C   0  0  0  0  0  0  0  0  0  0  0  0
    1.0035    0.1824   -0.1252 C   0  0  0  0  0  0  0  0  0  0  0  0
    2.3266    0.5421   -0.3722 C   0  0  0  0  0  0  0  0  0  0  0  0
    3.3762   -0.2026    0.1391 C   0  0  0  0  0  0  0  0  0  0  0  0
    3.1231   -1.3274    0.9114 C   0  0  0  0  0  0  0  0  0  0  0  0
    1.8127   -1.6972    1.1653 C   0  0  0  0  0  0  0  0  0  0  0  0
    0.7655   -0.9465    0.6499 C   0  0  0  0  0  0  0  0  0  0  0  0
    0.7485    1.4855   -2.6047 H   0  0  0  0  0  0  0  0  0  0  0  0
   -0.1689   -0.0221   -2.6064 H   0  0  0  0  0  0  0  0  0  0  0  0
   -1.0153    1.5325   -2.5974 H   0  0  0  0  0  0  0  0  0  0  0  0
   -1.2547    0.4161   -0.2857 H   0  0  0  0  0  0  0  0  0  0  0  0
   -1.0153    2.9745   -0.4972 H   0  0  0  0  0  0  0  0  0  0  0  0
   -0.1689    2.4245    0.9568 H   0  0  0  0  0  0  0  0  0  0  0  0
    0.7485    2.9645   -0.4507 H   0  0  0  0  0  0  0  0  0  0  0  0
    2.5424    1.4179   -0.9735 H   0  0  0  0  0  0  0  0  0  0  0  0
    4.3971    0.0955   -0.0656 H   0  0  0  0  0  0  0  0  0  0  0  0
    3.9430   -1.9103    1.3116 H   0  0  0  0  0  0  0  0  0  0  0  0
    1.6020   -2.5729    1.7666 H   0  0  0  0  0  0  0  0  0  0  0  0
   -0.2571   -1.2438    0.8540 H   0  0  0  0  0  0  0  0  0  0  0  0
   -2.3721   -0.1675    1.6382 C   0  0  0  0  0  0  0  0  0  0  0  0
   -2.3651   -0.1638    0.1125 C   0  0  0  0  0  3  0  0  0  0  0  0
   -2.3748   -1.5871   -0.4370 C   0  0  0  0  0  0  0  0  0  0  0  0
   -3.5387    0.6415   -0.4370 C   0  0  0  0  0  0  0  0  0  0  0  0
   -1.5177   -0.7179    2.0378 H   0  0  0  0  0  0  0  0  0  0  0  0
   -2.3359    0.8482    2.0378 H   0  0  0  0  0  0  0  0  0  0  0  0
   -3.2818   -0.6427    2.0167 H   0  0  0  0  0  0  0  0  0  0  0  0
   -3.2846   -2.1110   -0.1297 H   0  0  0  0  0  0  0  0  0  0  0  0
   -1.5206   -2.1601   -0.0702 H   0  0  0  0  0  0  0  0  0  0  0  0
   -2.3403   -1.5916   -1.5285 H   0  0  0  0  0  0  0  0  0  0  0  0
   -3.5208    1.6700   -0.0703 H   0  0  0  0  0  0  0  0  0  0  0  0
   -3.5228    0.6722   -1.5284 H   0  0  0  0  0  0  0  0  0  0  0  0
   -4.4885    0.1942   -0.1296 H   0  0  0  0  0  0  0  0  0  0  0  0
  1  2  1  0
  1 10  1  0
  1 11  1  0
  1 12  1  0
  2  3  1  0
  2  4  1  0
  2 13  1  0
  3 14  1  0
  3 15  1  0
  3 16  1  0
  4  5  2  0
  4  9  1  0
  5  6  1  0
  5 17  1  0
  6  7  2  0
  6 18  1  0
  7  8  1  0
  7 19  1  0
  8  9  2  0
  8 20  1  0
  9 21  1  0
 22 23  1  0
 22 26  1  0
 22 27  1  0
 22 28  1  0
 23 24  1  0
 23 25  1  0
 24 29  1  0
 24 30  1  0
 24 31  1  0
 25 32  1  0
 25 33  1  0
 25 34  1  0
M  RAD  1  23   2
M  END
>  <reaction>  (9) 
rxn_1525

>  <mol_properties>  (9) 
{"1": {"label": "*1", "atom_type": "Cs"}, "3": {"label": "*0", "atom_type": "Cd"}, "12": {"label": "*2", "atom_type": "H0"}, "21": {"label": "*4", "atom_type": "Cs"}, "22": {"label": "*3", "atom_type": "Cs"}}

>  <type>  (9) 
unop_5

>  <geom_source>  (9) 
Heuristics

$$$$

     RDKit          3D

 34 33  0  0  0  0  0  0  0  0999 V2000
   -0.1573    0.9485   -2.2572 C   0  0  0  0  0  0  0  0  0  0  0  0
   -0.1573    0.9485   -0.7275 C   0  0  0  0  0  0  0  0  0  0  0  0
   -0.1573    2.3761   -0.1780 C   0  0  0  0  0  0  0  0  0  0  0  0
    0.9920    0.1356   -0.1694 C   0  0  0  0  0  0  0  0  0  0  0  0
    2.3151    0.4953   -0.4164 C   0  0  0  0  0  0  0  0  0  0  0  0
    3.3648   -0.2494    0.0950 C   0  0  0  0  0  0  0  0  0  0  0  0
    3.1117   -1.3742    0.8673 C   0  0  0  0  0  0  0  0  0  0  0  0
    1.8013   -1.7440    1.1212 C   0  0  0  0  0  0  0  0  0  0  0  0
    0.7540   -0.9933    0.6058 C   0  0  0  0  0  0  0  0  0  0  0  0
    0.7370    1.4387   -2.6488 H   0  0  0  0  0  0  0  0  0  0  0  0
   -0.1803   -0.0689   -2.6506 H   0  0  0  0  0  0  0  0  0  0  0  0
   -1.0268    1.4857   -2.6415 H   0  0  0  0  0  0  0  0  0  0  0  0
   -1.2661    0.3693   -0.3299 H   0  0  0  0  0  0  0  0  0  0  0  0
   -1.0268    2.9277   -0.5414 H   0  0  0  0  0  0  0  0  0  0  0  0
   -0.1803    2.3777    0.9127 H   0  0  0  0  0  0  0  0  0  0  0  0
    0.7370    2.9177   -0.4949 H   0  0  0  0  0  0  0  0  0  0  0  0
    2.5309    1.3711   -1.0177 H   0  0  0  0  0  0  0  0  0  0  0  0
    4.3856    0.0487   -0.1097 H   0  0  0  0  0  0  0  0  0  0  0  0
    3.9315   -1.9571    1.2675 H   0  0  0  0  0  0  0  0  0  0  0  0
    1.5905   -2.6197    1.7225 H   0  0  0  0  0  0  0  0  0  0  0  0
   -0.2686   -1.2906    0.8099 H   0  0  0  0  0  0  0  0  0  0  0  0
   -3.5502    0.5947   -0.4811 C   0  0  0  0  0  0  0  0  0  0  0  0
   -2.3766   -0.2106    0.0684 C   0  0  0  0  0  3  0  0  0  0  0  0
   -1.8980    0.3606    1.3997 C   0  0  0  0  0  0  0  0  0  0  0  0
   -2.7435   -1.6851    0.2071 C   0  0  0  0  0  0  0  0  0  0  0  0
   -3.2844    1.6460   -0.6104 H   0  0  0  0  0  0  0  0  0  0  0  0
   -3.8787    0.2084   -1.4482 H   0  0  0  0  0  0  0  0  0  0  0  0
   -4.4020    0.5477    0.2037 H   0  0  0  0  0  0  0  0  0  0  0  0
   -2.6931    0.3054    2.1490 H   0  0  0  0  0  0  0  0  0  0  0  0
   -1.6062    1.4082    1.3003 H   0  0  0  0  0  0  0  0  0  0  0  0
   -1.0392   -0.1939    1.7839 H   0  0  0  0  0  0  0  0  0  0  0  0
   -3.0590   -2.1074   -0.7492 H   0  0  0  0  0  0  0  0  0  0  0  0
   -1.8982   -2.2719    0.5726 H   0  0  0  0  0  0  0  0  0  0  0  0
   -3.5677   -1.8104    0.9154 H   0  0  0  0  0  0  0  0  0  0  0  0
  1  2  1  0
  1 10  1  0
  1 11  1  0
  1 12  1  0
  2  3  1  0
  2  4  1  0
  2 13  1  0
  3 14  1  0
  3 15  1  0
  3 16  1  0
  4  5  2  0
  4  9  1  0
  5  6  1  0
  5 17  1  0
  6  7  2  0
  6 18  1  0
  7  8  1  0
  7 19  1  0
  8  9  2  0
  8 20  1  0
  9 21  1  0
 22 23  1  0
 22 26  1  0
 22 27  1  0
 22 28  1  0
 23 24  1  0
 23 25  1  0
 24 29  1  0
 24 30  1  0
 24 31  1  0
 25 32  1  0
 25 33  1  0
 25 34  1  0
M  RAD  1  23   2
M  END
>  <reaction>  (10) 
rxn_1525

>  <mol_properties>  (10) 
{"1": {"label": "*1", "atom_type": "Cs"}, "3": {"label": "*0", "atom_type": "Cd"}, "12": {"label": "*2", "atom_type": "H0"}, "21": {"label": "*4", "atom_type": "Cs"}, "22": {"label": "*3", "atom_type": "Cs"}}

>  <type>  (10) 
unop_6

>  <geom_source>  (10) 
Heuristics

$$$$

     RDKit          3D

 34 33  0  0  0  0  0  0  0  0999 V2000
   -0.1832    0.9666   -2.2768 C   0  0  0  0  0  0  0  0  0  0  0  0
   -0.1832    0.9666   -0.7471 C   0  0  0  0  0  0  0  0  0  0  0  0
   -0.1832    2.3942   -0.1976 C   0  0  0  0  0  0  0  0  0  0  0  0
    0.9661    0.1538   -0.1890 C   0  0  0  0  0  0  0  0  0  0  0  0
    2.2891    0.5135   -0.4360 C   0  0  0  0  0  0  0  0  0  0  0  0
    3.3388   -0.2313    0.0754 C   0  0  0  0  0  0  0  0  0  0  0  0
    3.0857   -1.3561    0.8477 C   0  0  0  0  0  0  0  0  0  0  0  0
    1.7753   -1.7258    1.1016 C   0  0  0  0  0  0  0  0  0  0  0  0
    0.7281   -0.9752    0.5862 C   0  0  0  0  0  0  0  0  0  0  0  0
    0.7110    1.4568   -2.6684 H   0  0  0  0  0  0  0  0  0  0  0  0
   -0.2063   -0.0507   -2.6702 H   0  0  0  0  0  0  0  0  0  0  0  0
   -1.0528    1.5038   -2.6611 H   0  0  0  0  0  0  0  0  0  0  0  0
   -1.2921    0.3875   -0.3494 H   0  0  0  0  0  0  0  0  0  0  0  0
   -1.0528    2.9458   -0.5610 H   0  0  0  0  0  0  0  0  0  0  0  0
   -0.2063    2.3959    0.8931 H   0  0  0  0  0  0  0  0  0  0  0  0
    0.7110    2.9358   -0.5145 H   0  0  0  0  0  0  0  0  0  0  0  0
    2.5049    1.3892   -1.0373 H   0  0  0  0  0  0  0  0  0  0  0  0
    4.3596    0.0669   -0.1293 H   0  0  0  0  0  0  0  0  0  0  0  0
    3.9055   -1.9389    1.2479 H   0  0  0  0  0  0  0  0  0  0  0  0
    1.5645   -2.6015    1.7029 H   0  0  0  0  0  0  0  0  0  0  0  0
   -0.2946   -1.2725    0.7903 H   0  0  0  0  0  0  0  0  0  0  0  0
   -3.4713    0.8870    0.1910 C   0  0  0  0  0  0  0  0  0  0  0  0
   -2.4026   -0.1925    0.0488 C   0  0  0  0  0  3  0  0  0  0  0  0
   -1.4711   -0.2013    1.2571 C   0  0  0  0  0  0  0  0  0  0  0  0
   -3.0366   -1.5641   -0.1619 C   0  0  0  0  0  0  0  0  0  0  0  0
   -3.0234    1.8755    0.3128 H   0  0  0  0  0  0  0  0  0  0  0  0
   -4.1236    0.9177   -0.6842 H   0  0  0  0  0  0  0  0  0  0  0  0
   -4.0973    0.6942    1.0671 H   0  0  0  0  0  0  0  0  0  0  0  0
   -2.0285   -0.4316    2.1697 H   0  0  0  0  0  0  0  0  0  0  0  0
   -0.9916    0.7699    1.3958 H   0  0  0  0  0  0  0  0  0  0  0  0
   -0.6861   -0.9525    1.1478 H   0  0  0  0  0  0  0  0  0  0  0  0
   -3.6819   -1.5722   -1.0428 H   0  0  0  0  0  0  0  0  0  0  0  0
   -2.2764   -2.3370   -0.2935 H   0  0  0  0  0  0  0  0  0  0  0  0
   -3.6479   -1.8411    0.7020 H   0  0  0  0  0  0  0  0  0  0  0  0
  1  2  1  0
  1 10  1  0
  1 11  1  0
  1 12  1  0
  2  3  1  0
  2  4  1  0
  2 13  1  0
  3 14  1  0
  3 15  1  0
  3 16  1  0
  4  5  2  0
  4  9  1  0
  5  6  1  0
  5 17  1  0
  6  7  2  0
  6 18  1  0
  7  8  1  0
  7 19  1  0
  8  9  2  0
  8 20  1  0
  9 21  1  0
 22 23  1  0
 22 26  1  0
 22 27  1  0
 22 28  1  0
 23 24  1  0
 23 25  1  0
 24 29  1  0
 24 30  1  0
 24 31  1  0
 25 32  1  0
 25 33  1  0
 25 34  1  0
M  RAD  1  23   2
M  END
>  <reaction>  (11) 
rxn_1525

>  <mol_properties>  (11) 
{"1": {"label": "*1", "atom_type": "Cs"}, "3": {"label": "*0", "atom_type": "Cd"}, "12": {"label": "*2", "atom_type": "H0"}, "21": {"label": "*4", "atom_type": "Cs"}, "22": {"label": "*3", "atom_type": "Cs"}}

>  <type>  (11) 
unop_7

>  <geom_source>  (11) 
Heuristics

$$$$

     RDKit          3D

 34 33  0  0  0  0  0  0  0  0999 V2000
   -0.1907    0.9809   -2.2768 C   0  0  0  0  0  0  0  0  0  0  0  0
   -0.1907    0.9809   -0.7471 C   0  0  0  0  0  0  0  0  0  0  0  0
   -0.1907    2.4085   -0.1976 C   0  0  0  0  0  0  0  0  0  0  0  0
    0.9586    0.1681   -0.1890 C   0  0  0  0  0  0  0  0  0  0  0  0
    2.2817    0.5278   -0.4360 C   0  0  0  0  0  0  0  0  0  0  0  0
    3.3313   -0.2170    0.0754 C   0  0  0  0  0  0  0  0  0  0  0  0
    3.0782   -1.3418    0.8477 C   0  0  0  0  0  0  0  0  0  0  0  0
    1.7678   -1.7115    1.1016 C   0  0  0  0  0  0  0  0  0  0  0  0
    0.7206   -0.9609    0.5862 C   0  0  0  0  0  0  0  0  0  0  0  0
    0.7036    1.4712   -2.6684 H   0  0  0  0  0  0  0  0  0  0  0  0
   -0.2138   -0.0364   -2.6702 H   0  0  0  0  0  0  0  0  0  0  0  0
   -1.0603    1.5182   -2.6611 H   0  0  0  0  0  0  0  0  0  0  0  0
   -1.2996    0.4018   -0.3495 H   0  0  0  0  0  0  0  0  0  0  0  0
   -1.0603    2.9601   -0.5610 H   0  0  0  0  0  0  0  0  0  0  0  0
   -0.2138    2.4102    0.8931 H   0  0  0  0  0  0  0  0  0  0  0  0
    0.7036    2.9501   -0.5145 H   0  0  0  0  0  0  0  0  0  0  0  0
    2.4975    1.4035   -1.0373 H   0  0  0  0  0  0  0  0  0  0  0  0
    4.3522    0.0812   -0.1293 H   0  0  0  0  0  0  0  0  0  0  0  0
    3.8981   -1.9246    1.2479 H   0  0  0  0  0  0  0  0  0  0  0  0
    1.5571   -2.5872    1.7029 H   0  0  0  0  0  0  0  0  0  0  0  0
   -0.3020   -1.2582    0.7903 H   0  0  0  0  0  0  0  0  0  0  0  0
   -2.1347   -1.6721    0.1910 C   0  0  0  0  0  0  0  0  0  0  0  0
   -2.4100   -0.1782    0.0488 C   0  0  0  0  0  3  0  0  0  0  0  0
   -3.8980    0.0852   -0.1619 C   0  0  0  0  0  0  0  0  0  0  0  0
   -1.8850    0.5913    1.2571 C   0  0  0  0  0  0  0  0  0  0  0  0
   -2.4821   -2.2250   -0.6843 H   0  0  0  0  0  0  0  0  0  0  0  0
   -1.0676   -1.8693    0.3130 H   0  0  0  0  0  0  0  0  0  0  0  0
   -2.6509   -2.0757    1.0670 H   0  0  0  0  0  0  0  0  0  0  0  0
   -4.4746   -0.2581    0.7021 H   0  0  0  0  0  0  0  0  0  0  0  0
   -4.2734   -0.4399   -1.0427 H   0  0  0  0  0  0  0  0  0  0  0  0
   -4.0979    1.1507   -0.2936 H   0  0  0  0  0  0  0  0  0  0  0  0
   -0.8139    0.4300    1.3958 H   0  0  0  0  0  0  0  0  0  0  0  0
   -2.0531    1.6648    1.1479 H   0  0  0  0  0  0  0  0  0  0  0  0
   -2.3924    0.2653    2.1698 H   0  0  0  0  0  0  0  0  0  0  0  0
  1  2  1  0
  1 10  1  0
  1 11  1  0
  1 12  1  0
  2  3  1  0
  2  4  1  0
  2 13  1  0
  3 14  1  0
  3 15  1  0
  3 16  1  0
  4  5  2  0
  4  9  1  0
  5  6  1  0
  5 17  1  0
  6  7  2  0
  6 18  1  0
  7  8  1  0
  7 19  1  0
  8  9  2  0
  8 20  1  0
  9 21  1  0
 22 23  1  0
 22 26  1  0
 22 27  1  0
 22 28  1  0
 23 24  1  0
 23 25  1  0
 24 29  1  0
 24 30  1  0
 24 31  1  0
 25 32  1  0
 25 33  1  0
 25 34  1  0
M  RAD  1  23   2
M  END
>  <reaction>  (12) 
rxn_1525

>  <mol_properties>  (12) 
{"1": {"label": "*1", "atom_type": "Cs"}, "3": {"label": "*0", "atom_type": "Cd"}, "12": {"label": "*2", "atom_type": "H0"}, "21": {"label": "*4", "atom_type": "Cs"}, "22": {"label": "*3", "atom_type": "Cs"}}

>  <type>  (12) 
unop_8

>  <geom_source>  (12) 
Heuristics

$$$$

     RDKit          3D

 34 33  0  0  0  0  0  0  0  0999 V2000
   -0.1908    1.0126   -2.2572 C   0  0  0  0  0  0  0  0  0  0  0  0
   -0.1908    1.0126   -0.7275 C   0  0  0  0  0  0  0  0  0  0  0  0
   -0.1908    2.4402   -0.1780 C   0  0  0  0  0  0  0  0  0  0  0  0
    0.9585    0.1997   -0.1694 C   0  0  0  0  0  0  0  0  0  0  0  0
    2.2816    0.5595   -0.4164 C   0  0  0  0  0  0  0  0  0  0  0  0
    3.3313   -0.1853    0.0950 C   0  0  0  0  0  0  0  0  0  0  0  0
    3.0782   -1.3101    0.8673 C   0  0  0  0  0  0  0  0  0  0  0  0
    1.7678   -1.6798    1.1212 C   0  0  0  0  0  0  0  0  0  0  0  0
    0.7205   -0.9292    0.6058 C   0  0  0  0  0  0  0  0  0  0  0  0
    0.7035    1.5028   -2.6488 H   0  0  0  0  0  0  0  0  0  0  0  0
   -0.2138   -0.0047   -2.6506 H   0  0  0  0  0  0  0  0  0  0  0  0
   -1.0603    1.5498   -2.6415 H   0  0  0  0  0  0  0  0  0  0  0  0
   -1.2997    0.4335   -0.3299 H   0  0  0  0  0  0  0  0  0  0  0  0
   -1.0603    2.9918   -0.5414 H   0  0  0  0  0  0  0  0  0  0  0  0
   -0.2138    2.4419    0.9127 H   0  0  0  0  0  0  0  0  0  0  0  0
    0.7035    2.9818   -0.4949 H   0  0  0  0  0  0  0  0  0  0  0  0
    2.4974    1.4352   -1.0177 H   0  0  0  0  0  0  0  0  0  0  0  0
    4.3521    0.1129   -0.1097 H   0  0  0  0  0  0  0  0  0  0  0  0
    3.8980   -1.8929    1.2675 H   0  0  0  0  0  0  0  0  0  0  0  0
    1.5570   -2.5555    1.7225 H   0  0  0  0  0  0  0  0  0  0  0  0
   -0.3021   -1.2265    0.8099 H   0  0  0  0  0  0  0  0  0  0  0  0
   -2.4197   -1.5698   -0.4811 C   0  0  0  0  0  0  0  0  0  0  0  0
   -2.4101   -0.1465    0.0684 C   0  0  0  0  0  3  0  0  0  0  0  0
   -3.8298    0.3948    0.2072 C   0  0  0  0  0  0  0  0  0  0  0  0
   -1.6678   -0.0801    1.3997 C   0  0  0  0  0  0  0  0  0  0  0  0
   -2.9242   -1.6186   -1.4484 H   0  0  0  0  0  0  0  0  0  0  0  0
   -1.4051   -1.9524   -0.6102 H   0  0  0  0  0  0  0  0  0  0  0  0
   -2.9452   -2.2420    0.2036 H   0  0  0  0  0  0  0  0  0  0  0  0
   -4.4035   -0.2099    0.9156 H   0  0  0  0  0  0  0  0  0  0  0  0
   -4.3568    0.3771   -0.7491 H   0  0  0  0  0  0  0  0  0  0  0  0
   -3.8283    1.4239    0.5725 H   0  0  0  0  0  0  0  0  0  0  0  0
   -0.6413   -0.4390    1.3002 H   0  0  0  0  0  0  0  0  0  0  0  0
   -1.6323    0.9414    1.7840 H   0  0  0  0  0  0  0  0  0  0  0  0
   -2.1673   -0.7013    2.1490 H   0  0  0  0  0  0  0  0  0  0  0  0
  1  2  1  0
  1 10  1  0
  1 11  1  0
  1 12  1  0
  2  3  1  0
  2  4  1  0
  2 13  1  0
  3 14  1  0
  3 15  1  0
  3 16  1  0
  4  5  2  0
  4  9  1  0
  5  6  1  0
  5 17  1  0
  6  7  2  0
  6 18  1  0
  7  8  1  0
  7 19  1  0
  8  9  2  0
  8 20  1  0
  9 21  1  0
 22 23  1  0
 22 26  1  0
 22 27  1  0
 22 28  1  0
 23 24  1  0
 23 25  1  0
 24 29  1  0
 24 30  1  0
 24 31  1  0
 25 32  1  0
 25 33  1  0
 25 34  1  0
M  RAD  1  23   2
M  END
>  <reaction>  (13) 
rxn_1525

>  <mol_properties>  (13) 
{"1": {"label": "*1", "atom_type": "Cs"}, "3": {"label": "*0", "atom_type": "Cd"}, "12": {"label": "*2", "atom_type": "H0"}, "21": {"label": "*4", "atom_type": "Cs"}, "22": {"label": "*3", "atom_type": "Cs"}}

>  <type>  (13) 
unop_9

>  <geom_source>  (13) 
Heuristics

$$$$

     RDKit          3D

 34 33  0  0  0  0  0  0  0  0999 V2000
   -0.1989    1.0017   -2.2707 C   0  0  0  0  0  0  0  0  0  0  0  0
   -0.1989    1.0017   -0.7410 C   0  0  0  0  0  0  0  0  0  0  0  0
   -0.1989    2.4293   -0.1915 C   0  0  0  0  0  0  0  0  0  0  0  0
    0.9505    0.1888   -0.1829 C   0  0  0  0  0  0  0  0  0  0  0  0
    2.2735    0.5486   -0.4299 C   0  0  0  0  0  0  0  0  0  0  0  0
    3.3232   -0.1962    0.0815 C   0  0  0  0  0  0  0  0  0  0  0  0
    3.0701   -1.3210    0.8538 C   0  0  0  0  0  0  0  0  0  0  0  0
    1.7597   -1.6907    1.1077 C   0  0  0  0  0  0  0  0  0  0  0  0
    0.7124   -0.9401    0.5923 C   0  0  0  0  0  0  0  0  0  0  0  0
    0.6954    1.4919   -2.6623 H   0  0  0  0  0  0  0  0  0  0  0  0
   -0.2219   -0.0156   -2.6640 H   0  0  0  0  0  0  0  0  0  0  0  0
   -1.0684    1.5389   -2.6550 H   0  0  0  0  0  0  0  0  0  0  0  0
   -1.3077    0.4225   -0.3433 H   0  0  0  0  0  0  0  0  0  0  0  0
   -1.0684    2.9809   -0.5549 H   0  0  0  0  0  0  0  0  0  0  0  0
   -0.2219    2.4310    0.8992 H   0  0  0  0  0  0  0  0  0  0  0  0
    0.6954    2.9709   -0.5084 H   0  0  0  0  0  0  0  0  0  0  0  0
    2.4893    1.4243   -1.0312 H   0  0  0  0  0  0  0  0  0  0  0  0
    4.3440    0.1020   -0.1232 H   0  0  0  0  0  0  0  0  0  0  0  0
    3.8899   -1.9038    1.2540 H   0  0  0  0  0  0  0  0  0  0  0  0
    1.5489   -2.5665    1.7090 H   0  0  0  0  0  0  0  0  0  0  0  0
   -0.3102   -1.2374    0.7964 H   0  0  0  0  0  0  0  0  0  0  0  0
   -3.2020    0.8515    0.8888 C   0  0  0  0  0  0  0  0  0  0  0  0
   -2.4182   -0.1574    0.0549 C   0  0  0  0  0  3  0  0  0  0  0  0
   -1.3045   -0.7982    0.8777 C   0  0  0  0  0  0  0  0  0  0  0  0
   -3.3446   -1.2190   -0.5304 C   0  0  0  0  0  0  0  0  0  0  0  0
   -2.5485    1.6309    1.2865 H   0  0  0  0  0  0  0  0  0  0  0  0
   -3.9822    1.3349    0.2971 H   0  0  0  0  0  0  0  0  0  0  0  0
   -3.6847    0.3562    1.7364 H   0  0  0  0  0  0  0  0  0  0  0  0
   -1.7222   -1.3501    1.7248 H   0  0  0  0  0  0  0  0  0  0  0  0
   -0.6210   -0.0450    1.2753 H   0  0  0  0  0  0  0  0  0  0  0  0
   -0.7212   -1.5000    0.2779 H   0  0  0  0  0  0  0  0  0  0  0  0
   -4.1269   -0.7683   -1.1447 H   0  0  0  0  0  0  0  0  0  0  0  0
   -2.7936   -1.9276   -1.1524 H   0  0  0  0  0  0  0  0  0  0  0  0
   -3.8324   -1.7853    0.2684 H   0  0  0  0  0  0  0  0  0  0  0  0
  1  2  1  0
  1 10  1  0
  1 11  1  0
  1 12  1  0
  2  3  1  0
  2  4  1  0
  2 13  1  0
  3 14  1  0
  3 15  1  0
  3 16  1  0
  4  5  2  0
  4  9  1  0
  5  6  1  0
  5 17  1  0
  6  7  2  0
  6 18  1  0
  7  8  1  0
  7 19  1  0
  8  9  2  0
  8 20  1  0
  9 21  1  0
 22 23  1  0
 22 26  1  0
 22 27  1  0
 22 28  1  0
 23 24  1  0
 23 25  1  0
 24 29  1  0
 24 30  1  0
 24 31  1  0
 25 32  1  0
 25 33  1  0
 25 34  1  0
M  RAD  1  23   2
M  END
>  <reaction>  (14) 
rxn_1525

>  <mol_properties>  (14) 
{"1": {"label": "*1", "atom_type": "Cs"}, "3": {"label": "*0", "atom_type": "Cd"}, "12": {"label": "*2", "atom_type": "H0"}, "21": {"label": "*4", "atom_type": "Cs"}, "22": {"label": "*3", "atom_type": "Cs"}}

>  <type>  (14) 
unop_10

>  <geom_source>  (14) 
Heuristics

$$$$

     RDKit          3D

 34 33  0  0  0  0  0  0  0  0999 V2000
   -0.1458    0.9953   -2.2131 C   0  0  0  0  0  0  0  0  0  0  0  0
   -0.1458    0.9953   -0.6834 C   0  0  0  0  0  0  0  0  0  0  0  0
   -0.1458    2.4229   -0.1339 C   0  0  0  0  0  0  0  0  0  0  0  0
    1.0035    0.1824   -0.1252 C   0  0  0  0  0  0  0  0  0  0  0  0
    2.3266    0.5421   -0.3722 C   0  0  0  0  0  0  0  0  0  0  0  0
    3.3762   -0.2026    0.1391 C   0  0  0  0  0  0  0  0  0  0  0  0
    3.1231   -1.3274    0.9114 C   0  0  0  0  0  0  0  0  0  0  0  0
    1.8127   -1.6972    1.1653 C   0  0  0  0  0  0  0  0  0  0  0  0
    0.7655   -0.9465    0.6499 C   0  0  0  0  0  0  0  0  0  0  0  0
    0.7485    1.4855   -2.6047 H   0  0  0  0  0  0  0  0  0  0  0  0
   -0.1689   -0.0221   -2.6064 H   0  0  0  0  0  0  0  0  0  0  0  0
   -1.0153    1.5325   -2.5974 H   0  0  0  0  0  0  0  0  0  0  0  0
   -1.2547    0.4161   -0.2857 H   0  0  0  0  0  0  0  0  0  0  0  0
   -1.0153    2.9745   -0.4972 H   0  0  0  0  0  0  0  0  0  0  0  0
   -0.1689    2.4246    0.9568 H   0  0  0  0  0  0  0  0  0  0  0  0
    0.7485    2.9645   -0.4507 H   0  0  0  0  0  0  0  0  0  0  0  0
    2.5424    1.4179   -0.9736 H   0  0  0  0  0  0  0  0  0  0  0  0
    4.3971    0.0955   -0.0656 H   0  0  0  0  0  0  0  0  0  0  0  0
    3.9430   -1.9103    1.3116 H   0  0  0  0  0  0  0  0  0  0  0  0
    1.6020   -2.5729    1.7666 H   0  0  0  0  0  0  0  0  0  0  0  0
   -0.2571   -1.2438    0.8540 H   0  0  0  0  0  0  0  0  0  0  0  0
   -3.1516   -0.5746   -1.1287 C   0  0  0  0  0  0  0  0  0  0  0  0
   -2.3651   -0.1638    0.1125 C   0  0  0  0  0  3  0  0  0  0  0  0
   -3.1489    0.8451    0.9465 C   0  0  0  0  0  0  0  0  0  0  0  0
   -1.9849   -1.3836    0.9465 C   0  0  0  0  0  0  0  0  0  0  0  0
   -3.4015    0.2915   -1.7451 H   0  0  0  0  0  0  0  0  0  0  0  0
   -2.5836   -1.2747   -1.7449 H   0  0  0  0  0  0  0  0  0  0  0  0
   -4.0882   -1.0636   -0.8451 H   0  0  0  0  0  0  0  0  0  0  0  0
   -4.0853    0.4047    1.3013 H   0  0  0  0  0  0  0  0  0  0  0  0
   -3.3989    1.7337    0.3630 H   0  0  0  0  0  0  0  0  0  0  0  0
   -2.5789    1.1652    1.8212 H   0  0  0  0  0  0  0  0  0  0  0  0
   -1.3984   -2.0963    0.3630 H   0  0  0  0  0  0  0  0  0  0  0  0
   -1.3967   -1.0987    1.8213 H   0  0  0  0  0  0  0  0  0  0  0  0
   -2.8814   -1.9005    1.3012 H   0  0  0  0  0  0  0  0  0  0  0  0
  1  2  1  0
  1 10  1  0
  1 11  1  0
  1 12  1  0
  2  3  1  0
  2  4  1  0
  2 13  1  0
  3 14  1  0
  3 15  1  0
  3 16  1  0
  4  5  2  0
  4  9  1  0
  5  6  1  0
  5 17  1  0
  6  7  2  0
  6 18  1  0
  7  8  1  0
  7 19  1  0
  8  9  2  0
  8 20  1  0
  9 21  1  0
 22 23  1  0
 22 26  1  0
 22 27  1  0
 22 28  1  0
 23 24  1  0
 23 25  1  0
 24 29  1  0
 24 30  1  0
 24 31  1  0
 25 32  1  0
 25 33  1  0
 25 34  1  0
M  RAD  1  23   2
M  END
>  <reaction>  (15) 
rxn_1525

>  <mol_properties>  (15) 
{"1": {"label": "*1", "atom_type": "Cs"}, "3": {"label": "*0", "atom_type": "Cd"}, "12": {"label": "*2", "atom_type": "H0"}, "21": {"label": "*4", "atom_type": "Cs"}, "22": {"label": "*3", "atom_type": "Cs"}}

>  <type>  (15) 
unop_11

>  <geom_source>  (15) 
Heuristics

$$$$

     RDKit          3D

 34 32  0  0  0  0  0  0  0  0999 V2000
   -1.6374    0.4224    0.0655 C   0  0  0  0  0  0  0  0  0  0  0  0
   -0.9406    1.5848   -0.6478 C   0  0  0  0  0  0  0  0  0  0  0  0
   -2.9000    0.0015   -0.6921 C   0  0  0  0  0  0  0  0  0  0  0  0
   -1.9742    0.7987    1.5114 C   0  0  0  0  0  0  0  0  0  0  0  0
    0.9074   -2.3409    1.4849 C   0  0  0  0  0  0  0  0  0  0  0  0
   -0.6128   -1.8933   -0.5019 C   0  0  0  0  0  3  0  0  0  0  0  0
    0.2401   -1.2792    0.6092 C   0  0  0  0  0  3  0  0  0  0  0  0
    1.2272   -0.2722    0.0808 C   0  0  0  0  0  0  0  0  0  0  0  0
    1.1074    1.0681    0.4743 C   0  0  0  0  0  0  0  0  0  0  0  0
    2.2626   -0.6452   -0.7955 C   0  0  0  0  0  3  0  0  0  0  0  0
    2.0099    2.0252   -0.0006 C   0  0  0  0  0  0  0  0  0  0  0  0
    3.0367    1.6489   -0.8710 C   0  0  0  0  0  0  0  0  0  0  0  0
    3.1629    0.3148   -1.2680 C   0  0  0  0  0  0  0  0  0  0  0  0
   -0.8042   -0.6094    0.0888 H   0  0  0  0  0  0  0  0  0  0  0  0
   -0.0074    1.8565   -0.1103 H   0  0  0  0  0  0  0  0  0  0  0  0
   -0.6680    1.2876   -1.6827 H   0  0  0  0  0  0  0  0  0  0  0  0
   -1.6045    2.4751   -0.6909 H   0  0  0  0  0  0  0  0  0  0  0  0
   -3.6298    0.8385   -0.7368 H   0  0  0  0  0  0  0  0  0  0  0  0
   -2.6384   -0.3044   -1.7273 H   0  0  0  0  0  0  0  0  0  0  0  0
   -3.3759   -0.8654   -0.1865 H   0  0  0  0  0  0  0  0  0  0  0  0
   -2.4449   -0.0637    2.0292 H   0  0  0  0  0  0  0  0  0  0  0  0
   -2.6729    1.6626    1.5409 H   0  0  0  0  0  0  0  0  0  0  0  0
   -1.0467    1.0661    2.0609 H   0  0  0  0  0  0  0  0  0  0  0  0
    1.4884   -1.8515    2.2950 H   0  0  0  0  0  0  0  0  0  0  0  0
    0.1317   -2.9827    1.9527 H   0  0  0  0  0  0  0  0  0  0  0  0
    1.5883   -2.9796    0.8831 H   0  0  0  0  0  0  0  0  0  0  0  0
    0.0091   -2.5147   -1.1808 H   0  0  0  0  0  0  0  0  0  0  0  0
   -1.4062   -2.5300   -0.0572 H   0  0  0  0  0  0  0  0  0  0  0  0
   -1.1021   -1.0889   -1.0907 H   0  0  0  0  0  0  0  0  0  0  0  0
    0.3156    1.3710    1.1484 H   0  0  0  0  0  0  0  0  0  0  0  0
    1.9131    3.0586    0.3063 H   0  0  0  0  0  0  0  0  0  0  0  0
    3.7343    2.3908   -1.2376 H   0  0  0  0  0  0  0  0  0  0  0  0
    3.9584    0.0244   -1.9421 H   0  0  0  0  0  0  0  0  0  0  0  0
    2.3728   -1.6747   -1.1116 H   0  0  0  0  0  0  0  0  0  0  0  0
  1  2  1  0
  1  3  1  0
  1  4  1  0
  1 14  1  0
  2 15  1  0
  2 16  1  0
  2 17  1  0
  3 18  1  0
  3 19  1  0
  3 20  1  0
  4 21  1  0
  4 22  1  0
  4 23  1  0
  5  7  1  0
  5 24  1  0
  5 25  1  0
  5 26  1  0
  6 27  1  0
  6 28  1  0
  6 29  1  0
  7  8  2  3
  8  9  1  0
  8 10  1  0
  9 11  2  0
  9 30  1  0
 10 13  1  0
 10 34  1  0
 11 12  1  0
 11 31  1  0
 12 13  2  0
 12 32  1  0
 13 33  1  0
M  CHG  2   7   1  10  -1
M  RAD  1   6   2
M  END
>  <reaction>  (16) 
rxn_1525

>  <mol_properties>  (16) 
{"1": {"label": "*1", "atom_type": "Cs"}, "3": {"label": "*0", "atom_type": "Cd"}, "12": {"label": "*2", "atom_type": "H0"}, "21": {"label": "*4", "atom_type": "Cs"}, "22": {"label": "*3", "atom_type": "Cs"}}

>  <type>  (16) 
unop_12

>  <geom_source>  (16) 
AutoTST

$$$$

     RDKit          3D

 34 33  0  0  0  0  0  0  0  0999 V2000
   -0.1707    1.0199   -2.2277 C   0  0  0  0  0  0  0  0  0  0  0  0
   -0.1707    1.0199   -0.6980 C   0  0  0  0  0  0  0  0  0  0  0  0
   -0.1707    2.4475   -0.1485 C   0  0  0  0  0  0  0  0  0  0  0  0
    0.9786    0.2071   -0.1399 C   0  0  0  0  0  0  0  0  0  0  0  0
    2.3017    0.5668   -0.3869 C   0  0  0  0  0  0  0  0  0  0  0  0
    3.3513   -0.1779    0.1245 C   0  0  0  0  0  0  0  0  0  0  0  0
    3.0982   -1.3027    0.8968 C   0  0  0  0  0  0  0  0  0  0  0  0
    1.7878   -1.6725    1.1507 C   0  0  0  0  0  0  0  0  0  0  0  0
    0.7406   -0.9219    0.6353 C   0  0  0  0  0  0  0  0  0  0  0  0
    0.7236    1.5102   -2.6193 H   0  0  0  0  0  0  0  0  0  0  0  0
   -0.1938    0.0026   -2.6210 H   0  0  0  0  0  0  0  0  0  0  0  0
   -1.0402    1.5572   -2.6120 H   0  0  0  0  0  0  0  0  0  0  0  0
   -1.2796    0.4408   -0.3003 H   0  0  0  0  0  0  0  0  0  0  0  0
   -1.0402    2.9992   -0.5118 H   0  0  0  0  0  0  0  0  0  0  0  0
   -0.1938    2.4492    0.9422 H   0  0  0  0  0  0  0  0  0  0  0  0
    0.7236    2.9891   -0.4653 H   0  0  0  0  0  0  0  0  0  0  0  0
    2.5175    1.4426   -0.9882 H   0  0  0  0  0  0  0  0  0  0  0  0
    4.3722    0.1202   -0.0802 H   0  0  0  0  0  0  0  0  0  0  0  0
    3.9181   -1.8856    1.2970 H   0  0  0  0  0  0  0  0  0  0  0  0
    1.5771   -2.5482    1.7520 H   0  0  0  0  0  0  0  0  0  0  0  0
   -0.2820   -1.2192    0.8394 H   0  0  0  0  0  0  0  0  0  0  0  0
   -2.7883   -1.1660   -0.9579 C   0  0  0  0  0  0  0  0  0  0  0  0
   -2.3900   -0.1392    0.0979 C   0  0  0  0  0  3  0  0  0  0  0  0
   -3.6017    0.6615    0.5653 C   0  0  0  0  0  0  0  0  0  0  0  0
   -1.6915   -0.8106    1.2765 C   0  0  0  0  0  0  0  0  0  0  0  0
   -3.2626   -0.6881   -1.8176 H   0  0  0  0  0  0  0  0  0  0  0  0
   -1.9204   -1.7226   -1.3177 H   0  0  0  0  0  0  0  0  0  0  0  0
   -3.4986   -1.8872   -0.5432 H   0  0  0  0  0  0  0  0  0  0  0  0
   -4.3399    0.0030    1.0324 H   0  0  0  0  0  0  0  0  0  0  0  0
   -4.0891    1.1684   -0.2702 H   0  0  0  0  0  0  0  0  0  0  0  0
   -3.3183    1.4182    1.2999 H   0  0  0  0  0  0  0  0  0  0  0  0
   -0.8062   -1.3614    0.9520 H   0  0  0  0  0  0  0  0  0  0  0  0
   -1.3780   -0.0773    2.0224 H   0  0  0  0  0  0  0  0  0  0  0  0
   -2.3641   -1.5197    1.7679 H   0  0  0  0  0  0  0  0  0  0  0  0
  1  2  1  0
  1 10  1  0
  1 11  1  0
  1 12  1  0
  2  3  1  0
  2  4  1  0
  2 13  1  0
  3 14  1  0
  3 15  1  0
  3 16  1  0
  4  5  2  0
  4  9  1  0
  5  6  1  0
  5 17  1  0
  6  7  2  0
  6 18  1  0
  7  8  1  0
  7 19  1  0
  8  9  2  0
  8 20  1  0
  9 21  1  0
 22 23  1  0
 22 26  1  0
 22 27  1  0
 22 28  1  0
 23 24  1  0
 23 25  1  0
 24 29  1  0
 24 30  1  0
 24 31  1  0
 25 32  1  0
 25 33  1  0
 25 34  1  0
M  RAD  1  23   2
M  END
>  <reaction>  (17) 
rxn_1525

>  <mol_properties>  (17) 
{"1": {"label": "*1", "atom_type": "Cs"}, "3": {"label": "*0", "atom_type": "Cd"}, "12": {"label": "*2", "atom_type": "H0"}, "21": {"label": "*4", "atom_type": "Cs"}, "22": {"label": "*3", "atom_type": "Cs"}}

>  <type>  (17) 
unop_13

>  <geom_source>  (17) 
gaussian_log

$$$$
