
     RDKit          3D

  5  4  0  0  0  0  0  0  0  0999 V2000
    0.0000    0.0000    0.0000 C   0  0  0  0  0  0  0  0  0  0  0  0
   -0.6486   -0.7720   -0.4113 H   0  0  0  0  0  0  0  0  0  0  0  0
   -0.3482    0.9787   -0.3267 H   0  0  0  0  0  0  0  0  0  0  0  0
   -0.0223   -0.0487    1.0876 H   0  0  0  0  0  0  0  0  0  0  0  0
    1.0191   -0.1580   -0.3496 H   0  0  0  0  0  0  0  0  0  0  0  0
  1  2  1  0
  1  3  1  0
  1  4  1  0
  1  5  1  0
M  END
>  <reaction>  (1) 
rxn_842

>  <mol_properties>  (1) 
{"0": {"label": "donator", "atom_type": "Cs"}, "1": {"label": "d_hydrogen", "atom_type": "H0"}}

>  <type>  (1) 
r1h

$$$$

     RDKit          3D

  5  4  0  0  0  0  0  0  0  0999 V2000
    0.0397    0.7134    0.0000 C   0  0  0  0  0  3  0  0  0  0  0  0
    0.0458   -0.5870    0.0000 C   0  0  0  0  0  0  0  0  0  0  0  0
   -0.6871    1.5118    0.0000 H   0  0  0  0  0  0  0  0  0  0  0  0
   -0.8806   -1.1637    0.0000 H   0  0  0  0  0  0  0  0  0  0  0  0
    0.9690   -1.1600    0.0000 H   0  0  0  0  0  0  0  0  0  0  0  0
  1  2  2  3
  1  3  1  0
  2  4  1  0
  2  5  1  0
M  RAD  1   1   2
M  END
>  <reaction>  (2) 
rxn_842

>  <mol_properties>  (2) 
{"0": {"label": "acceptor", "atom_type": "Cd"}}

>  <type>  (2) 
r2

$$$$

     RDKit          3D

  6  5  0  0  0  0  0  0  0  0999 V2000
    0.6594    0.0438   -0.0050 C   0  0  0  0  0  0  0  0  0  0  0  0
   -0.6594   -0.0438    0.0050 C   0  0  0  0  0  0  0  0  0  0  0  0
    1.1706    0.8681   -0.4881 H   0  0  0  0  0  0  0  0  0  0  0  0
    1.2824   -0.7051    0.4696 H   0  0  0  0  0  0  0  0  0  0  0  0
   -1.2824    0.7051   -0.4696 H   0  0  0  0  0  0  0  0  0  0  0  0
   -1.1706   -0.8681    0.4881 H   0  0  0  0  0  0  0  0  0  0  0  0
  1  2  2  3
  1  3  1  0
  1  4  1  0
  2  5  1  0
  2  6  1  0
M  END
>  <reaction>  (3) 
rxn_842

>  <mol_properties>  (3) 
{"0": {"label": "acceptor", "atom_type": "Cd"}, "5": {"label": "a_hydrogen", "atom_type": "H0"}}

>  <type>  (3) 
r2h

$$$$

     RDKit          3D

 10  8  0  0  0  0  0  0  0  0999 V2000
    0.0000    0.5768    0.6490 C   0  0  0  0  0  3  0  0  0  0  0  0
    0.0000    1.5310   -0.2526 C   0  0  0  0  0  0  0  0  0  0  0  0
   -0.0000    0.6855    1.7275 H   0  0  0  0  0  0  0  0  0  0  0  0
    0.0000    2.5830    0.0219 H   0  0  0  0  0  0  0  0  0  0  0  0
    0.0000    1.3076   -1.3151 H   0  0  0  0  0  0  0  0  0  0  0  0
    0.0000   -1.9099   -0.3124 C   0  0  0  0  0  0  0  0  0  0  0  0
    0.0000   -0.7069    0.2003 H   0  0  0  0  0  0  0  0  0  0  0  0
    0.9073   -2.3830    0.0527 H   0  0  0  0  0  0  0  0  0  0  0  0
   -0.9073   -2.3830    0.0527 H   0  0  0  0  0  0  0  0  0  0  0  0
    0.0000   -1.7617   -1.3889 H   0  0  0  0  0  0  0  0  0  0  0  0
  1  2  2  3
  1  3  1  0
  2  4  1  0
  2  5  1  0
  6  7  1  0
  6  8  1  0
  6  9  1  0
  6 10  1  0
M  RAD  1   1   2
M  END
>  <reaction>  (4) 
rxn_842

>  <mol_properties>  (4) 
{"0": {"label": "*3", "atom_type": "Cd"}, "1": {"label": "*4", "atom_type": "Cd"}, "5": {"label": "*1", "atom_type": "Cs"}, "6": {"label": "*2", "atom_type": "H0"}, "7": {"label": "*0", "atom_type": "H0"}}

>  <type>  (4) 
ts

$$$$

     RDKit          3D

 10  8  0  0  0  0  0  0  0  0999 V2000
    0.3125    0.7450    0.0531 C   0  0  0  0  0  0  0  0  0  0  0  0
   -0.6621    1.2111    0.8147 C   0  0  0  0  0  0  0  0  0  0  0  0
    1.3544    0.9274    0.2884 H   0  0  0  0  0  0  0  0  0  0  0  0
   -0.4583    1.7944    1.7049 H   0  0  0  0  0  0  0  0  0  0  0  0
   -1.7040    1.0287    0.5794 H   0  0  0  0  0  0  0  0  0  0  0  0
    0.3125   -1.7129   -0.8159 C   0  0  0  0  0  3  0  0  0  0  0  0
    0.3125   -0.4809   -0.3803 H   0  0  0  0  0  0  0  0  0  0  0  0
    1.2016   -2.2263   -0.4529 H   0  0  0  0  0  0  0  0  0  0  0  0
   -0.5766   -2.2263   -0.4529 H   0  0  0  0  0  0  0  0  0  0  0  0
    0.3125   -1.7129   -1.9048 H   0  0  0  0  0  0  0  0  0  0  0  0
  1  2  2  3
  1  3  1  0
  1  7  1  0
  2  4  1  0
  2  5  1  0
  6  8  1  0
  6  9  1  0
  6 10  1  0
M  RAD  1   6   2
M  END
>  <reaction>  (5) 
rxn_842

>  <mol_properties>  (5) 
{"0": {"label": "*3", "atom_type": "Cd"}, "1": {"label": "*4", "atom_type": "Cd"}, "5": {"label": "*1", "atom_type": "Cs"}, "6": {"label": "*2", "atom_type": "H0"}, "7": {"label": "*0", "atom_type": "H0"}}

>  <type>  (5) 
unop_1

>  <geom_source>  (5) 
Heuristics

$$$$

     RDKit          3D

 10  8  0  0  0  0  0  0  0  0999 V2000
    0.1891    0.5697    0.5349 C   0  0  0  0  0  0  0  0  0  0  0  0
   -0.3735    1.5482   -0.1528 C   0  0  0  0  0  0  0  0  0  0  0  0
    0.4179    0.6743    1.5890 H   0  0  0  0  0  0  0  0  0  0  0  0
   -0.6287    2.4943    0.3098 H   0  0  0  0  0  0  0  0  0  0  0  0
   -0.6022    1.4437   -1.2068 H   0  0  0  0  0  0  0  0  0  0  0  0
    0.1891   -1.8882   -0.3341 C   0  0  0  0  0  3  0  0  0  0  0  0
    0.1891   -0.6562    0.1015 H   0  0  0  0  0  0  0  0  0  0  0  0
    1.0782   -2.4016    0.0289 H   0  0  0  0  0  0  0  0  0  0  0  0
   -0.7000   -2.4016    0.0289 H   0  0  0  0  0  0  0  0  0  0  0  0
    0.1891   -1.8882   -1.4230 H   0  0  0  0  0  0  0  0  0  0  0  0
  1  2  2  3
  1  3  1  0
  1  7  1  0
  2  4  1  0
  2  5  1  0
  6  8  1  0
  6  9  1  0
  6 10  1  0
M  RAD  1   6   2
M  END
>  <reaction>  (6) 
rxn_842

>  <mol_properties>  (6) 
{"0": {"label": "*3", "atom_type": "Cd"}, "1": {"label": "*4", "atom_type": "Cd"}, "5": {"label": "*1", "atom_type": "Cs"}, "6": {"label": "*2", "atom_type": "H0"}, "7": {"label": "*0", "atom_type": "H0"}}

>  <type>  (6) 
unop_2

>  <geom_source>  (6) 
Heuristics

$$$$

     RDKit          3D

 10  8  0  0  0  0  0  0  0  0999 V2000
    0.1730    0.7859   -0.0677 C   0  0  0  0  0  0  0  0  0  0  0  0
   -0.3897    1.1147    1.0822 C   0  0  0  0  0  0  0  0  0  0  0  0
    1.0928    1.2499   -0.4036 H   0  0  0  0  0  0  0  0  0  0  0  0
    0.0462    1.8614    1.7353 H   0  0  0  0  0  0  0  0  0  0  0  0
   -1.3096    0.6507    1.4180 H   0  0  0  0  0  0  0  0  0  0  0  0
    0.1730   -1.6721   -0.9368 C   0  0  0  0  0  3  0  0  0  0  0  0
    0.1730   -0.4401   -0.5012 H   0  0  0  0  0  0  0  0  0  0  0  0
    1.0621   -2.1854   -0.5738 H   0  0  0  0  0  0  0  0  0  0  0  0
   -0.7162   -2.1854   -0.5738 H   0  0  0  0  0  0  0  0  0  0  0  0
    0.1730   -1.6721   -2.0257 H   0  0  0  0  0  0  0  0  0  0  0  0
  1  2  2  3
  1  3  1  0
  1  7  1  0
  2  4  1  0
  2  5  1  0
  6  8  1  0
  6  9  1  0
  6 10  1  0
M  RAD  1   6   2
M  END
>  <reaction>  (7) 
rxn_842

>  <mol_properties>  (7) 
{"0": {"label": "*3", "atom_type": "Cd"}, "1": {"label": "*4", "atom_type": "Cd"}, "5": {"label": "*1", "atom_type": "Cs"}, "6": {"label": "*2", "atom_type": "H0"}, "7": {"label": "*0", "atom_type": "H0"}}

>  <type>  (7) 
unop_3

>  <geom_source>  (7) 
Heuristics

$$$$

     RDKit          3D

 10  8  0  0  0  0  0  0  0  0999 V2000
   -0.3245    0.6184    0.4032 C   0  0  0  0  0  0  0  0  0  0  0  0
    0.6500    1.4596    0.1039 C   0  0  0  0  0  0  0  0  0  0  0  0
   -0.8513    0.6720    1.3487 H   0  0  0  0  0  0  0  0  0  0  0  0
    0.9615    2.2367    0.7918 H   0  0  0  0  0  0  0  0  0  0  0  0
    1.1767    1.4059   -0.8416 H   0  0  0  0  0  0  0  0  0  0  0  0
   -0.3245   -1.8396   -0.4658 C   0  0  0  0  0  3  0  0  0  0  0  0
   -0.3245   -0.6076   -0.0302 H   0  0  0  0  0  0  0  0  0  0  0  0
    0.5646   -2.3529   -0.1028 H   0  0  0  0  0  0  0  0  0  0  0  0
   -1.2136   -2.3529   -0.1028 H   0  0  0  0  0  0  0  0  0  0  0  0
   -0.3245   -1.8396   -1.5547 H   0  0  0  0  0  0  0  0  0  0  0  0
  1  2  2  3
  1  3  1  0
  1  7  1  0
  2  4  1  0
  2  5  1  0
  6  8  1  0
  6  9  1  0
  6 10  1  0
M  RAD  1   6   2
M  END
>  <reaction>  (8) 
rxn_842

>  <mol_properties>  (8) 
{"0": {"label": "*3", "atom_type": "Cd"}, "1": {"label": "*4", "atom_type": "Cd"}, "5": {"label": "*1", "atom_type": "Cs"}, "6": {"label": "*2", "atom_type": "H0"}, "7": {"label": "*0", "atom_type": "H0"}}

>  <type>  (8) 
unop_4

>  <geom_source>  (8) 
Heuristics

$$$$

     RDKit          3D

 10  8  0  0  0  0  0  0  0  0999 V2000
    0.0000    0.7958   -0.1072 C   0  0  0  0  0  0  0  0  0  0  0  0
    0.0000    1.0744    1.1849 C   0  0  0  0  0  0  0  0  0  0  0  0
    0.0000    1.5779   -0.8572 H   0  0  0  0  0  0  0  0  0  0  0  0
    0.0000    2.0960    1.5461 H   0  0  0  0  0  0  0  0  0  0  0  0
   -0.0000    0.2923    1.9349 H   0  0  0  0  0  0  0  0  0  0  0  0
    0.0000   -1.6621   -0.9762 C   0  0  0  0  0  3  0  0  0  0  0  0
    0.0000   -0.4302   -0.5406 H   0  0  0  0  0  0  0  0  0  0  0  0
    0.8891   -2.1755   -0.6132 H   0  0  0  0  0  0  0  0  0  0  0  0
   -0.8891   -2.1755   -0.6132 H   0  0  0  0  0  0  0  0  0  0  0  0
    0.0000   -1.6621   -2.0651 H   0  0  0  0  0  0  0  0  0  0  0  0
  1  2  2  3
  1  3  1  0
  1  7  1  0
  2  4  1  0
  2  5  1  0
  6  8  1  0
  6  9  1  0
  6 10  1  0
M  RAD  1   6   2
M  END
>  <reaction>  (9) 
rxn_842

>  <mol_properties>  (9) 
{"0": {"label": "*3", "atom_type": "Cd"}, "1": {"label": "*4", "atom_type": "Cd"}, "5": {"label": "*1", "atom_type": "Cs"}, "6": {"label": "*2", "atom_type": "H0"}, "7": {"label": "*0", "atom_type": "H0"}}

>  <type>  (9) 
unop_5

>  <geom_source>  (9) 
Heuristics

$$$$

     RDKit          3D

 10  8  0  0  0  0  0  0  0  0999 V2000
   -0.3692    0.6830    0.2261 C   0  0  0  0  0  0  0  0  0  0  0  0
    0.7561    1.3366    0.4572 C   0  0  0  0  0  0  0  0  0  0  0  0
   -1.2123    0.7454    0.9041 H   0  0  0  0  0  0  0  0  0  0  0  0
    0.8809    1.9612    1.3339 H   0  0  0  0  0  0  0  0  0  0  0  0
    1.5991    1.2743   -0.2207 H   0  0  0  0  0  0  0  0  0  0  0  0
   -0.3692   -1.7750   -0.6429 C   0  0  0  0  0  3  0  0  0  0  0  0
   -0.3692   -0.5430   -0.2073 H   0  0  0  0  0  0  0  0  0  0  0  0
    0.5199   -2.2883   -0.2799 H   0  0  0  0  0  0  0  0  0  0  0  0
   -1.2584   -2.2883   -0.2799 H   0  0  0  0  0  0  0  0  0  0  0  0
   -0.3692   -1.7750   -1.7318 H   0  0  0  0  0  0  0  0  0  0  0  0
  1  2  2  3
  1  3  1  0
  1  7  1  0
  2  4  1  0
  2  5  1  0
  6  8  1  0
  6  9  1  0
  6 10  1  0
M  RAD  1   6   2
M  END
>  <reaction>  (10) 
rxn_842

>  <mol_properties>  (10) 
{"0": {"label": "*3", "atom_type": "Cd"}, "1": {"label": "*4", "atom_type": "Cd"}, "5": {"label": "*1", "atom_type": "Cs"}, "6": {"label": "*2", "atom_type": "H0"}, "7": {"label": "*0", "atom_type": "H0"}}

>  <type>  (10) 
unop_6

>  <geom_source>  (10) 
Heuristics

$$$$

     RDKit          3D

 10  8  0  0  0  0  0  0  0  0999 V2000
   -0.3125    0.7450    0.0531 C   0  0  0  0  0  0  0  0  0  0  0  0
    0.6621    1.2111    0.8147 C   0  0  0  0  0  0  0  0  0  0  0  0
   -1.3544    0.9274    0.2884 H   0  0  0  0  0  0  0  0  0  0  0  0
    0.4583    1.7944    1.7049 H   0  0  0  0  0  0  0  0  0  0  0  0
    1.7040    1.0287    0.5795 H   0  0  0  0  0  0  0  0  0  0  0  0
   -0.3125   -1.7129   -0.8159 C   0  0  0  0  0  3  0  0  0  0  0  0
   -0.3125   -0.4809   -0.3803 H   0  0  0  0  0  0  0  0  0  0  0  0
    0.5766   -2.2263   -0.4529 H   0  0  0  0  0  0  0  0  0  0  0  0
   -1.2016   -2.2263   -0.4529 H   0  0  0  0  0  0  0  0  0  0  0  0
   -0.3125   -1.7129   -1.9048 H   0  0  0  0  0  0  0  0  0  0  0  0
  1  2  2  3
  1  3  1  0
  1  7  1  0
  2  4  1  0
  2  5  1  0
  6  8  1  0
  6  9  1  0
  6 10  1  0
M  RAD  1   6   2
M  END
>  <reaction>  (11) 
rxn_842

>  <mol_properties>  (11) 
{"0": {"label": "*3", "atom_type": "Cd"}, "1": {"label": "*4", "atom_type": "Cd"}, "5": {"label": "*1", "atom_type": "Cs"}, "6": {"label": "*2", "atom_type": "H0"}, "7": {"label": "*0", "atom_type": "H0"}}

>  <type>  (11) 
unop_7

>  <geom_source>  (11) 
Heuristics

$$$$

     RDKit          3D

 10  8  0  0  0  0  0  0  0  0999 V2000
    0.3692    0.6830    0.2261 C   0  0  0  0  0  0  0  0  0  0  0  0
   -0.7561    1.3366    0.4572 C   0  0  0  0  0  0  0  0  0  0  0  0
    1.2123    0.7453    0.9041 H   0  0  0  0  0  0  0  0  0  0  0  0
   -0.8809    1.9612    1.3339 H   0  0  0  0  0  0  0  0  0  0  0  0
   -1.5991    1.2743   -0.2207 H   0  0  0  0  0  0  0  0  0  0  0  0
    0.3692   -1.7750   -0.6429 C   0  0  0  0  0  3  0  0  0  0  0  0
    0.3692   -0.5430   -0.2073 H   0  0  0  0  0  0  0  0  0  0  0  0
    1.2584   -2.2883   -0.2799 H   0  0  0  0  0  0  0  0  0  0  0  0
   -0.5199   -2.2883   -0.2799 H   0  0  0  0  0  0  0  0  0  0  0  0
    0.3692   -1.7750   -1.7318 H   0  0  0  0  0  0  0  0  0  0  0  0
  1  2  2  3
  1  3  1  0
  1  7  1  0
  2  4  1  0
  2  5  1  0
  6  8  1  0
  6  9  1  0
  6 10  1  0
M  RAD  1   6   2
M  END
>  <reaction>  (12) 
rxn_842

>  <mol_properties>  (12) 
{"0": {"label": "*3", "atom_type": "Cd"}, "1": {"label": "*4", "atom_type": "Cd"}, "5": {"label": "*1", "atom_type": "Cs"}, "6": {"label": "*2", "atom_type": "H0"}, "7": {"label": "*0", "atom_type": "H0"}}

>  <type>  (12) 
unop_8

>  <geom_source>  (12) 
Heuristics

$$$$

     RDKit          3D

 10  8  0  0  0  0  0  0  0  0999 V2000
   -0.1891    0.5697    0.5349 C   0  0  0  0  0  0  0  0  0  0  0  0
    0.3735    1.5482   -0.1528 C   0  0  0  0  0  0  0  0  0  0  0  0
   -0.4179    0.6743    1.5890 H   0  0  0  0  0  0  0  0  0  0  0  0
    0.6287    2.4943    0.3098 H   0  0  0  0  0  0  0  0  0  0  0  0
    0.6022    1.4437   -1.2068 H   0  0  0  0  0  0  0  0  0  0  0  0
   -0.1891   -1.8882   -0.3341 C   0  0  0  0  0  3  0  0  0  0  0  0
   -0.1891   -0.6562    0.1015 H   0  0  0  0  0  0  0  0  0  0  0  0
    0.7000   -2.4016    0.0289 H   0  0  0  0  0  0  0  0  0  0  0  0
   -1.0782   -2.4016    0.0289 H   0  0  0  0  0  0  0  0  0  0  0  0
   -0.1891   -1.8882   -1.4230 H   0  0  0  0  0  0  0  0  0  0  0  0
  1  2  2  3
  1  3  1  0
  1  7  1  0
  2  4  1  0
  2  5  1  0
  6  8  1  0
  6  9  1  0
  6 10  1  0
M  RAD  1   6   2
M  END
>  <reaction>  (13) 
rxn_842

>  <mol_properties>  (13) 
{"0": {"label": "*3", "atom_type": "Cd"}, "1": {"label": "*4", "atom_type": "Cd"}, "5": {"label": "*1", "atom_type": "Cs"}, "6": {"label": "*2", "atom_type": "H0"}, "7": {"label": "*0", "atom_type": "H0"}}

>  <type>  (13) 
unop_9

>  <geom_source>  (13) 
Heuristics

$$$$

     RDKit          3D

 10  8  0  0  0  0  0  0  0  0999 V2000
    0.3245    0.6184    0.4032 C   0  0  0  0  0  0  0  0  0  0  0  0
   -0.6500    1.4596    0.1039 C   0  0  0  0  0  0  0  0  0  0  0  0
    0.8513    0.6720    1.3487 H   0  0  0  0  0  0  0  0  0  0  0  0
   -0.9615    2.2367    0.7918 H   0  0  0  0  0  0  0  0  0  0  0  0
   -1.1767    1.4059   -0.8416 H   0  0  0  0  0  0  0  0  0  0  0  0
    0.3245   -1.8396   -0.4658 C   0  0  0  0  0  3  0  0  0  0  0  0
    0.3245   -0.6076   -0.0302 H   0  0  0  0  0  0  0  0  0  0  0  0
    1.2136   -2.3529   -0.1028 H   0  0  0  0  0  0  0  0  0  0  0  0
   -0.5646   -2.3529   -0.1028 H   0  0  0  0  0  0  0  0  0  0  0  0
    0.3245   -1.8396   -1.5547 H   0  0  0  0  0  0  0  0  0  0  0  0
  1  2  2  3
  1  3  1  0
  1  7  1  0
  2  4  1  0
  2  5  1  0
  6  8  1  0
  6  9  1  0
  6 10  1  0
M  RAD  1   6   2
M  END
>  <reaction>  (14) 
rxn_842

>  <mol_properties>  (14) 
{"0": {"label": "*3", "atom_type": "Cd"}, "1": {"label": "*4", "atom_type": "Cd"}, "5": {"label": "*1", "atom_type": "Cs"}, "6": {"label": "*2", "atom_type": "H0"}, "7": {"label": "*0", "atom_type": "H0"}}

>  <type>  (14) 
unop_10

>  <geom_source>  (14) 
Heuristics

$$$$

     RDKit          3D

 10  8  0  0  0  0  0  0  0  0999 V2000
   -0.1730    0.7859   -0.0677 C   0  0  0  0  0  0  0  0  0  0  0  0
    0.3897    1.1147    1.0822 C   0  0  0  0  0  0  0  0  0  0  0  0
   -1.0928    1.2499   -0.4036 H   0  0  0  0  0  0  0  0  0  0  0  0
   -0.0462    1.8614    1.7353 H   0  0  0  0  0  0  0  0  0  0  0  0
    1.3096    0.6507    1.4180 H   0  0  0  0  0  0  0  0  0  0  0  0
   -0.1730   -1.6721   -0.9368 C   0  0  0  0  0  3  0  0  0  0  0  0
   -0.1730   -0.4401   -0.5012 H   0  0  0  0  0  0  0  0  0  0  0  0
    0.7162   -2.1854   -0.5738 H   0  0  0  0  0  0  0  0  0  0  0  0
   -1.0621   -2.1854   -0.5738 H   0  0  0  0  0  0  0  0  0  0  0  0
   -0.1730   -1.6721   -2.0257 H   0  0  0  0  0  0  0  0  0  0  0  0
  1  2  2  3
  1  3  1  0
  1  7  1  0
  2  4  1  0
  2  5  1  0
  6  8  1  0
  6  9  1  0
  6 10  1  0
M  RAD  1   6   2
M  END
>  <reaction>  (15) 
rxn_842

>  <mol_properties>  (15) 
{"0": {"label": "*3", "atom_type": "Cd"}, "1": {"label": "*4", "atom_type": "Cd"}, "5": {"label": "*1", "atom_type": "Cs"}, "6": {"label": "*2", "atom_type": "H0"}, "7": {"label": "*0", "atom_type": "H0"}}

>  <type>  (15) 
unop_11

>  <geom_source>  (15) 
Heuristics

$$$$

     RDKit          3D

 10  8  0  0  0  0  0  0  0  0999 V2000
    0.0000    0.5516    0.5836 C   0  0  0  0  0  0  0  0  0  0  0  0
    0.0000    1.5803   -0.2463 C   0  0  0  0  0  0  0  0  0  0  0  0
   -0.0000    0.6885    1.6585 H   0  0  0  0  0  0  0  0  0  0  0  0
   -0.0000    2.6020    0.1149 H   0  0  0  0  0  0  0  0  0  0  0  0
    0.0000    1.4435   -1.3212 H   0  0  0  0  0  0  0  0  0  0  0  0
    0.0000   -1.9064   -0.2855 C   0  0  0  0  0  3  0  0  0  0  0  0
    0.0000   -0.6744    0.1501 H   0  0  0  0  0  0  0  0  0  0  0  0
    0.8891   -2.4197    0.0775 H   0  0  0  0  0  0  0  0  0  0  0  0
   -0.8891   -2.4197    0.0775 H   0  0  0  0  0  0  0  0  0  0  0  0
    0.0000   -1.9064   -1.3744 H   0  0  0  0  0  0  0  0  0  0  0  0
  1  2  2  3
  1  3  1  0
  1  7  1  0
  2  4  1  0
  2  5  1  0
  6  8  1  0
  6  9  1  0
  6 10  1  0
M  RAD  1   6   2
M  END
>  <reaction>  (16) 
rxn_842

>  <mol_properties>  (16) 
{"0": {"label": "*3", "atom_type": "Cd"}, "1": {"label": "*4", "atom_type": "Cd"}, "5": {"label": "*1", "atom_type": "Cs"}, "6": {"label": "*2", "atom_type": "H0"}, "7": {"label": "*0", "atom_type": "H0"}}

>  <type>  (16) 
unop_12

>  <geom_source>  (16) 
Heuristics

$$$$

     RDKit          3D

 10  8  0  0  0  0  0  0  0  0999 V2000
   -1.6807    0.4752   -0.4454 C   0  0  0  0  0  0  0  0  0  0  0  0
   -0.8532   -0.5413   -0.2173 C   0  0  0  0  0  0  0  0  0  0  0  0
    1.5787    0.0140    0.4466 C   0  0  0  0  0  3  0  0  0  0  0  0
   -1.4464    1.4628   -0.0628 H   0  0  0  0  0  0  0  0  0  0  0  0
   -2.5922    0.3223   -1.0140 H   0  0  0  0  0  0  0  0  0  0  0  0
   -1.0837   -1.5309   -0.5981 H   0  0  0  0  0  0  0  0  0  0  0  0
    0.2403   -0.3524    0.4662 H   0  0  0  0  0  0  0  0  0  0  0  0
    2.0415   -0.9881    0.5578 H   0  0  0  0  0  0  0  0  0  0  0  0
    1.8218    0.6341    1.3339 H   0  0  0  0  0  0  0  0  0  0  0  0
    1.9738    0.5045   -0.4667 H   0  0  0  0  0  0  0  0  0  0  0  0
  1  2  2  3
  1  4  1  0
  1  5  1  0
  2  6  1  0
  2  7  1  0
  3  8  1  0
  3  9  1  0
  3 10  1  0
M  RAD  1   3   2
M  END
>  <reaction>  (17) 
rxn_842

>  <mol_properties>  (17) 
{"0": {"label": "*3", "atom_type": "Cd"}, "1": {"label": "*4", "atom_type": "Cd"}, "5": {"label": "*1", "atom_type": "Cs"}, "6": {"label": "*2", "atom_type": "H0"}, "7": {"label": "*0", "atom_type": "H0"}}

>  <type>  (17) 
unop_13

>  <geom_source>  (17) 
AutoTST

$$$$
