
     RDKit          3D

 25 26  0  0  0  0  0  0  0  0999 V2000
    2.0298   -1.1515    0.0571 C   0  0  0  0  0  0  0  0  0  0  0  0
    2.2278    0.2445    0.6528 C   0  0  0  0  0  0  0  0  0  0  0  0
    1.2292    1.2625    0.0947 C   0  0  0  0  0  0  0  0  0  0  0  0
   -0.1869    0.7454    0.2762 C   0  0  0  0  0  0  0  0  0  0  0  0
   -1.3415    1.5501   -0.3122 C   0  0  0  0  0  0  0  0  0  0  0  0
   -2.5060    0.5338   -0.4178 C   0  0  0  0  0  0  0  0  0  0  0  0
   -1.8709   -0.8658   -0.2234 C   0  0  0  0  0  0  0  0  0  0  0  0
   -0.3715   -0.6265   -0.3693 C   0  0  0  0  0  0  0  0  0  0  0  0
    0.5898   -1.6500    0.2086 C   0  0  0  0  0  0  0  0  0  0  0  0
    2.2820   -1.1226   -1.0088 H   0  0  0  0  0  0  0  0  0  0  0  0
    2.7243   -1.8549    0.5221 H   0  0  0  0  0  0  0  0  0  0  0  0
    2.1030    0.1885    1.7400 H   0  0  0  0  0  0  0  0  0  0  0  0
    3.2514    0.5819    0.4743 H   0  0  0  0  0  0  0  0  0  0  0  0
    1.3611    2.2304    0.5855 H   0  0  0  0  0  0  0  0  0  0  0  0
    1.4198    1.4194   -0.9737 H   0  0  0  0  0  0  0  0  0  0  0  0
   -0.3675    0.6209    1.3539 H   0  0  0  0  0  0  0  0  0  0  0  0
   -1.5992    2.4249    0.2862 H   0  0  0  0  0  0  0  0  0  0  0  0
   -1.0595    1.9116   -1.3055 H   0  0  0  0  0  0  0  0  0  0  0  0
   -3.2666    0.7244    0.3399 H   0  0  0  0  0  0  0  0  0  0  0  0
   -3.0030    0.6112   -1.3853 H   0  0  0  0  0  0  0  0  0  0  0  0
   -2.2549   -1.6039   -0.9288 H   0  0  0  0  0  0  0  0  0  0  0  0
   -2.0796   -1.2429    0.7821 H   0  0  0  0  0  0  0  0  0  0  0  0
   -0.1432   -0.5121   -1.4391 H   0  0  0  0  0  0  0  0  0  0  0  0
    0.4720   -2.6209   -0.2799 H   0  0  0  0  0  0  0  0  0  0  0  0
    0.3601   -1.7986    1.2704 H   0  0  0  0  0  0  0  0  0  0  0  0
  1  2  1  0
  1  9  1  0
  1 10  1  0
  1 11  1  0
  2  3  1  0
  2 12  1  0
  2 13  1  0
  3  4  1  0
  3 14  1  0
  3 15  1  0
  4  5  1  0
  4  8  1  0
  4 16  1  0
  5  6  1  0
  5 17  1  0
  5 18  1  0
  6  7  1  0
  6 19  1  0
  6 20  1  0
  7  8  1  0
  7 21  1  0
  7 22  1  0
  8  9  1  0
  8 23  1  0
  9 24  1  0
  9 25  1  0
M  END
>  <reaction>  (1) 
rxn_600

>  <mol_properties>  (1) 
{"5": {"label": "donator", "atom_type": "Cs"}, "18": {"label": "d_hydrogen", "atom_type": "H0"}}

>  <type>  (1) 
r1h

$$$$

     RDKit          3D

  7  6  0  0  0  0  0  0  0  0999 V2000
   -0.6201    0.0189   -0.0017 C   0  0  0  0  0  0  0  0  0  0  0  0
    0.8589   -0.0553    0.0500 C   0  0  0  0  0  3  0  0  0  0  0  0
   -1.0738   -0.9730   -0.0559 H   0  0  0  0  0  0  0  0  0  0  0  0
   -0.9680    0.5706   -0.8872 H   0  0  0  0  0  0  0  0  0  0  0  0
   -1.0303    0.5369    0.8678 H   0  0  0  0  0  0  0  0  0  0  0  0
    1.3939   -0.8386   -0.4695 H   0  0  0  0  0  0  0  0  0  0  0  0
    1.4394    0.7404    0.4965 H   0  0  0  0  0  0  0  0  0  0  0  0
  1  2  1  0
  1  3  1  0
  1  4  1  0
  1  5  1  0
  2  6  1  0
  2  7  1  0
M  RAD  1   2   2
M  END
>  <reaction>  (2) 
rxn_600

>  <mol_properties>  (2) 
{"1": {"label": "acceptor", "atom_type": "Cs"}}

>  <type>  (2) 
r2

$$$$

     RDKit          3D

  8  7  0  0  0  0  0  0  0  0999 V2000
    0.7610    0.0250    0.0051 C   0  0  0  0  0  0  0  0  0  0  0  0
   -0.7610   -0.0250   -0.0051 C   0  0  0  0  0  0  0  0  0  0  0  0
    1.1904   -0.9237   -0.3217 H   0  0  0  0  0  0  0  0  0  0  0  0
    1.1359    0.8041   -0.6609 H   0  0  0  0  0  0  0  0  0  0  0  0
    1.1435    0.2336    1.0058 H   0  0  0  0  0  0  0  0  0  0  0  0
   -1.1435   -0.2336   -1.0058 H   0  0  0  0  0  0  0  0  0  0  0  0
   -1.1904    0.9237    0.3216 H   0  0  0  0  0  0  0  0  0  0  0  0
   -1.1359   -0.8041    0.6609 H   0  0  0  0  0  0  0  0  0  0  0  0
  1  2  1  0
  1  3  1  0
  1  4  1  0
  1  5  1  0
  2  6  1  0
  2  7  1  0
  2  8  1  0
M  END
>  <reaction>  (3) 
rxn_600

>  <mol_properties>  (3) 
{"1": {"label": "acceptor", "atom_type": "Cs"}, "7": {"label": "a_hydrogen", "atom_type": "H0"}}

>  <type>  (3) 
r2h

$$$$

     RDKit          3D

 32 32  0  0  0  0  0  0  0  0999 V2000
   -0.8777    2.8979    1.5092 C   0  0  0  0  0  0  0  0  0  0  0  0
    0.2748    3.5101    0.7603 C   0  0  0  0  0  3  0  0  0  0  0  0
   -1.4643    3.6538    2.0420 H   0  0  0  0  0  0  0  0  0  0  0  0
   -0.5302    2.1750    2.2503 H   0  0  0  0  0  0  0  0  0  0  0  0
   -1.5589    2.3770    0.8325 H   0  0  0  0  0  0  0  0  0  0  0  0
    1.0507    3.9474    1.3858 H   0  0  0  0  0  0  0  0  0  0  0  0
   -0.0065    4.1726   -0.0563 H   0  0  0  0  0  0  0  0  0  0  0  0
   -1.2235   -2.5766   -0.8033 C   0  0  0  0  0  0  0  0  0  0  0  0
   -0.9633   -2.5719    0.7053 C   0  0  0  0  0  0  0  0  0  0  0  0
    0.3505   -1.8738    1.0692 C   0  0  0  0  0  0  0  0  0  0  0  0
    0.3702   -0.4808    0.4667 C   0  0  0  0  0  0  0  0  0  0  0  0
    1.6243    0.3753    0.6139 C   0  0  0  0  0  0  0  0  0  0  0  0
    1.4541    1.4386   -0.4675 C   0  0  0  0  0  0  0  0  0  0  0  0
    0.4244    0.9228   -1.4760 C   0  0  0  0  0  0  0  0  0  0  0  0
    0.1703   -0.5240   -1.0480 C   0  0  0  0  0  0  0  0  0  0  0  0
   -1.1526   -1.1736   -1.4133 C   0  0  0  0  0  0  0  0  0  0  0  0
   -0.4742   -3.2098   -1.2915 H   0  0  0  0  0  0  0  0  0  0  0  0
   -2.1956   -3.0301   -1.0098 H   0  0  0  0  0  0  0  0  0  0  0  0
   -1.7873   -2.0522    1.2068 H   0  0  0  0  0  0  0  0  0  0  0  0
   -0.9652   -3.5964    1.0844 H   0  0  0  0  0  0  0  0  0  0  0  0
    0.4698   -1.8351    2.1552 H   0  0  0  0  0  0  0  0  0  0  0  0
    1.1971   -2.4492    0.6762 H   0  0  0  0  0  0  0  0  0  0  0  0
   -0.4738    0.0828    0.8878 H   0  0  0  0  0  0  0  0  0  0  0  0
    1.7385    0.8043    1.6130 H   0  0  0  0  0  0  0  0  0  0  0  0
    2.5149   -0.2356    0.4244 H   0  0  0  0  0  0  0  0  0  0  0  0
    0.9260    2.4864    0.1157 H   0  0  0  0  0  0  0  0  0  0  0  0
    2.3764    1.8357   -0.8866 H   0  0  0  0  0  0  0  0  0  0  0  0
    0.7652    1.0043   -2.5093 H   0  0  0  0  0  0  0  0  0  0  0  0
   -0.5068    1.4985   -1.4046 H   0  0  0  0  0  0  0  0  0  0  0  0
    0.9780   -1.1459   -1.4594 H   0  0  0  0  0  0  0  0  0  0  0  0
   -1.2806   -1.2258   -2.4977 H   0  0  0  0  0  0  0  0  0  0  0  0
   -1.9735   -0.5586   -1.0253 H   0  0  0  0  0  0  0  0  0  0  0  0
  1  2  1  0
  1  3  1  0
  1  4  1  0
  1  5  1  0
  2  6  1  0
  2  7  1  0
  8  9  1  0
  8 16  1  0
  8 17  1  0
  8 18  1  0
  9 10  1  0
  9 19  1  0
  9 20  1  0
 10 11  1  0
 10 21  1  0
 10 22  1  0
 11 12  1  0
 11 15  1  0
 11 23  1  0
 12 13  1  0
 12 24  1  0
 12 25  1  0
 13 14  1  0
 13 26  1  0
 13 27  1  0
 14 15  1  0
 14 28  1  0
 14 29  1  0
 15 16  1  0
 15 30  1  0
 16 31  1  0
 16 32  1  0
M  RAD  1   2   2
M  END
>  <reaction>  (4) 
rxn_600

>  <mol_properties>  (4) 
{"0": {"label": "*4", "atom_type": "Cs"}, "1": {"label": "*3", "atom_type": "Cs"}, "11": {"label": "*0", "atom_type": "Cs"}, "12": {"label": "*1", "atom_type": "Cs"}, "25": {"label": "*2", "atom_type": "H0"}}

>  <type>  (4) 
ts

$$$$

     RDKit          3D

 32 32  0  0  0  0  0  0  0  0999 V2000
    1.0506    4.7100    0.5882 C   0  0  0  0  0  0  0  0  0  0  0  0
    0.0498    3.5719    0.7366 C   0  0  0  0  0  3  0  0  0  0  0  0
    0.5583    5.6311    0.2712 H   0  0  0  0  0  0  0  0  0  0  0  0
    1.8143    4.4713   -0.1541 H   0  0  0  0  0  0  0  0  0  0  0  0
    1.5595    4.9152    1.5316 H   0  0  0  0  0  0  0  0  0  0  0  0
   -0.4591    3.3667   -0.2068 H   0  0  0  0  0  0  0  0  0  0  0  0
   -0.7139    3.8106    1.4789 H   0  0  0  0  0  0  0  0  0  0  0  0
   -1.1343   -2.9654   -0.9177 C   0  0  0  0  0  0  0  0  0  0  0  0
   -1.1343   -2.9654    0.6129 C   0  0  0  0  0  0  0  0  0  0  0  0
    0.0088   -2.1290    1.1949 C   0  0  0  0  0  0  0  0  0  0  0  0
   -0.0308   -0.7280    0.6108 C   0  0  0  0  0  0  0  0  0  0  0  0
    1.0882    0.2457    0.9662 C   0  0  0  0  0  0  0  0  0  0  0  0
    1.0383    1.3163   -0.1524 C   0  0  0  0  0  0  0  0  0  0  0  0
    0.1448    0.7245   -1.2710 C   0  0  0  0  0  0  0  0  0  0  0  0
    0.0197   -0.7537   -0.9156 C   0  0  0  0  0  0  0  0  0  0  0  0
   -1.1343   -1.5490   -1.4997 C   0  0  0  0  0  0  0  0  0  0  0  0
   -0.2419   -3.4922   -1.2736 H   0  0  0  0  0  0  0  0  0  0  0  0
   -1.9952   -3.5265   -1.2884 H   0  0  0  0  0  0  0  0  0  0  0  0
   -2.0865   -2.5563    0.9688 H   0  0  0  0  0  0  0  0  0  0  0  0
   -1.0788   -3.9915    0.9836 H   0  0  0  0  0  0  0  0  0  0  0  0
   -0.0585   -2.1031    2.2857 H   0  0  0  0  0  0  0  0  0  0  0  0
    0.9703   -2.5942    0.9468 H   0  0  0  0  0  0  0  0  0  0  0  0
   -0.9896   -0.2692    0.8933 H   0  0  0  0  0  0  0  0  0  0  0  0
    0.9794    0.6737    1.9636 H   0  0  0  0  0  0  0  0  0  0  0  0
    2.0459   -0.2828    0.9458 H   0  0  0  0  0  0  0  0  0  0  0  0
    0.5443    2.4436    0.2919 H   0  0  0  0  0  0  0  0  0  0  0  0
    2.0395    1.5388   -0.5227 H   0  0  0  0  0  0  0  0  0  0  0  0
    0.5544    0.8893   -2.2684 H   0  0  0  0  0  0  0  0  0  0  0  0
   -0.8472    1.1852   -1.2506 H   0  0  0  0  0  0  0  0  0  0  0  0
    0.9562   -1.2565   -1.1981 H   0  0  0  0  0  0  0  0  0  0  0  0
   -1.0737   -1.5879   -2.5905 H   0  0  0  0  0  0  0  0  0  0  0  0
   -2.0775   -1.0477   -1.2516 H   0  0  0  0  0  0  0  0  0  0  0  0
  1  2  1  0
  1  3  1  0
  1  4  1  0
  1  5  1  0
  2  6  1  0
  2  7  1  0
  8  9  1  0
  8 16  1  0
  8 17  1  0
  8 18  1  0
  9 10  1  0
  9 19  1  0
  9 20  1  0
 10 11  1  0
 10 21  1  0
 10 22  1  0
 11 12  1  0
 11 15  1  0
 11 23  1  0
 12 13  1  0
 12 24  1  0
 12 25  1  0
 13 14  1  0
 13 26  1  0
 13 27  1  0
 14 15  1  0
 14 28  1  0
 14 29  1  0
 15 16  1  0
 15 30  1  0
 16 31  1  0
 16 32  1  0
M  RAD  1   2   2
M  END
>  <reaction>  (5) 
rxn_600

>  <mol_properties>  (5) 
{"0": {"label": "*4", "atom_type": "Cs"}, "1": {"label": "*3", "atom_type": "Cs"}, "11": {"label": "*0", "atom_type": "Cs"}, "12": {"label": "*1", "atom_type": "Cs"}, "25": {"label": "*2", "atom_type": "H0"}}

>  <type>  (5) 
unop_1

>  <geom_source>  (5) 
Heuristics

$$$$

     RDKit          3D

 32 32  0  0  0  0  0  0  0  0999 V2000
    0.4214    3.8559    2.0523 C   0  0  0  0  0  0  0  0  0  0  0  0
    0.1155    3.6639    0.5729 C   0  0  0  0  0  3  0  0  0  0  0  0
    0.3020    4.8994    2.3490 H   0  0  0  0  0  0  0  0  0  0  0  0
    1.4459    3.5611    2.2862 H   0  0  0  0  0  0  0  0  0  0  0  0
   -0.2452    3.2570    2.6753 H   0  0  0  0  0  0  0  0  0  0  0  0
    0.7821    4.2628   -0.0501 H   0  0  0  0  0  0  0  0  0  0  0  0
   -0.9089    3.9587    0.3390 H   0  0  0  0  0  0  0  0  0  0  0  0
   -1.0686   -2.8734   -1.0814 C   0  0  0  0  0  0  0  0  0  0  0  0
   -1.0686   -2.8734    0.4492 C   0  0  0  0  0  0  0  0  0  0  0  0
    0.0745   -2.0370    1.0312 C   0  0  0  0  0  0  0  0  0  0  0  0
    0.0349   -0.6360    0.4471 C   0  0  0  0  0  0  0  0  0  0  0  0
    1.1539    0.3377    0.8025 C   0  0  0  0  0  0  0  0  0  0  0  0
    1.1040    1.4083   -0.3161 C   0  0  0  0  0  0  0  0  0  0  0  0
    0.2105    0.8165   -1.4347 C   0  0  0  0  0  0  0  0  0  0  0  0
    0.0854   -0.6617   -1.0793 C   0  0  0  0  0  0  0  0  0  0  0  0
   -1.0686   -1.4570   -1.6634 C   0  0  0  0  0  0  0  0  0  0  0  0
   -0.1762   -3.4002   -1.4373 H   0  0  0  0  0  0  0  0  0  0  0  0
   -1.9295   -3.4345   -1.4521 H   0  0  0  0  0  0  0  0  0  0  0  0
   -2.0208   -2.4643    0.8051 H   0  0  0  0  0  0  0  0  0  0  0  0
   -1.0131   -3.8995    0.8199 H   0  0  0  0  0  0  0  0  0  0  0  0
    0.0072   -2.0111    2.1220 H   0  0  0  0  0  0  0  0  0  0  0  0
    1.0360   -2.5022    0.7831 H   0  0  0  0  0  0  0  0  0  0  0  0
   -0.9239   -0.1772    0.7296 H   0  0  0  0  0  0  0  0  0  0  0  0
    1.0451    0.7657    1.7999 H   0  0  0  0  0  0  0  0  0  0  0  0
    2.1116   -0.1908    0.7821 H   0  0  0  0  0  0  0  0  0  0  0  0
    0.6100    2.5355    0.1282 H   0  0  0  0  0  0  0  0  0  0  0  0
    2.1052    1.6308   -0.6864 H   0  0  0  0  0  0  0  0  0  0  0  0
    0.6201    0.9813   -2.4321 H   0  0  0  0  0  0  0  0  0  0  0  0
   -0.7815    1.2772   -1.4143 H   0  0  0  0  0  0  0  0  0  0  0  0
    1.0219   -1.1645   -1.3618 H   0  0  0  0  0  0  0  0  0  0  0  0
   -1.0080   -1.4959   -2.7542 H   0  0  0  0  0  0  0  0  0  0  0  0
   -2.0118   -0.9557   -1.4153 H   0  0  0  0  0  0  0  0  0  0  0  0
  1  2  1  0
  1  3  1  0
  1  4  1  0
  1  5  1  0
  2  6  1  0
  2  7  1  0
  8  9  1  0
  8 16  1  0
  8 17  1  0
  8 18  1  0
  9 10  1  0
  9 19  1  0
  9 20  1  0
 10 11  1  0
 10 21  1  0
 10 22  1  0
 11 12  1  0
 11 15  1  0
 11 23  1  0
 12 13  1  0
 12 24  1  0
 12 25  1  0
 13 14  1  0
 13 26  1  0
 13 27  1  0
 14 15  1  0
 14 28  1  0
 14 29  1  0
 15 16  1  0
 15 30  1  0
 16 31  1  0
 16 32  1  0
M  RAD  1   2   2
M  END
>  <reaction>  (6) 
rxn_600

>  <mol_properties>  (6) 
{"0": {"label": "*4", "atom_type": "Cs"}, "1": {"label": "*3", "atom_type": "Cs"}, "11": {"label": "*0", "atom_type": "Cs"}, "12": {"label": "*1", "atom_type": "Cs"}, "25": {"label": "*2", "atom_type": "H0"}}

>  <type>  (6) 
unop_2

>  <geom_source>  (6) 
Heuristics

$$$$

     RDKit          3D

 32 32  0  0  0  0  0  0  0  0999 V2000
    0.6739    4.7585    0.0443 C   0  0  0  0  0  0  0  0  0  0  0  0
    0.0924    3.5672    0.7937 C   0  0  0  0  0  3  0  0  0  0  0  0
   -0.0316    5.5908    0.0155 H   0  0  0  0  0  0  0  0  0  0  0  0
    0.9183    4.4967   -0.9866 H   0  0  0  0  0  0  0  0  0  0  0  0
    1.5885    5.1171    0.5198 H   0  0  0  0  0  0  0  0  0  0  0  0
   -0.8223    3.2086    0.3182 H   0  0  0  0  0  0  0  0  0  0  0  0
   -0.1520    3.8290    1.8247 H   0  0  0  0  0  0  0  0  0  0  0  0
   -1.0918   -2.9700   -0.8607 C   0  0  0  0  0  0  0  0  0  0  0  0
   -1.0918   -2.9700    0.6699 C   0  0  0  0  0  0  0  0  0  0  0  0
    0.0513   -2.1336    1.2519 C   0  0  0  0  0  0  0  0  0  0  0  0
    0.0117   -0.7327    0.6678 C   0  0  0  0  0  0  0  0  0  0  0  0
    1.1308    0.2411    1.0233 C   0  0  0  0  0  0  0  0  0  0  0  0
    1.0808    1.3117   -0.0954 C   0  0  0  0  0  0  0  0  0  0  0  0
    0.1873    0.7198   -1.2140 C   0  0  0  0  0  0  0  0  0  0  0  0
    0.0622   -0.7583   -0.8585 C   0  0  0  0  0  0  0  0  0  0  0  0
   -1.0918   -1.5536   -1.4426 C   0  0  0  0  0  0  0  0  0  0  0  0
   -0.1994   -3.4969   -1.2166 H   0  0  0  0  0  0  0  0  0  0  0  0
   -1.9527   -3.5311   -1.2314 H   0  0  0  0  0  0  0  0  0  0  0  0
   -2.0439   -2.5609    1.0259 H   0  0  0  0  0  0  0  0  0  0  0  0
   -1.0363   -3.9961    1.0407 H   0  0  0  0  0  0  0  0  0  0  0  0
   -0.0159   -2.1077    2.3428 H   0  0  0  0  0  0  0  0  0  0  0  0
    1.0128   -2.5988    1.0039 H   0  0  0  0  0  0  0  0  0  0  0  0
   -0.9471   -0.2738    0.9504 H   0  0  0  0  0  0  0  0  0  0  0  0
    1.0219    0.6691    2.0207 H   0  0  0  0  0  0  0  0  0  0  0  0
    2.0884   -0.2874    1.0028 H   0  0  0  0  0  0  0  0  0  0  0  0
    0.5868    2.4389    0.3490 H   0  0  0  0  0  0  0  0  0  0  0  0
    2.0820    1.5341   -0.4656 H   0  0  0  0  0  0  0  0  0  0  0  0
    0.5969    0.8847   -2.2114 H   0  0  0  0  0  0  0  0  0  0  0  0
   -0.8047    1.1806   -1.1936 H   0  0  0  0  0  0  0  0  0  0  0  0
    0.9987   -1.2611   -1.1411 H   0  0  0  0  0  0  0  0  0  0  0  0
   -1.0312   -1.5926   -2.5335 H   0  0  0  0  0  0  0  0  0  0  0  0
   -2.0350   -1.0523   -1.1946 H   0  0  0  0  0  0  0  0  0  0  0  0
  1  2  1  0
  1  3  1  0
  1  4  1  0
  1  5  1  0
  2  6  1  0
  2  7  1  0
  8  9  1  0
  8 16  1  0
  8 17  1  0
  8 18  1  0
  9 10  1  0
  9 19  1  0
  9 20  1  0
 10 11  1  0
 10 21  1  0
 10 22  1  0
 11 12  1  0
 11 15  1  0
 11 23  1  0
 12 13  1  0
 12 24  1  0
 12 25  1  0
 13 14  1  0
 13 26  1  0
 13 27  1  0
 14 15  1  0
 14 28  1  0
 14 29  1  0
 15 16  1  0
 15 30  1  0
 16 31  1  0
 16 32  1  0
M  RAD  1   2   2
M  END
>  <reaction>  (7) 
rxn_600

>  <mol_properties>  (7) 
{"0": {"label": "*4", "atom_type": "Cs"}, "1": {"label": "*3", "atom_type": "Cs"}, "11": {"label": "*0", "atom_type": "Cs"}, "12": {"label": "*1", "atom_type": "Cs"}, "25": {"label": "*2", "atom_type": "H0"}}

>  <type>  (7) 
unop_3

>  <geom_source>  (7) 
Heuristics

$$$$

     RDKit          3D

 32 32  0  0  0  0  0  0  0  0999 V2000
   -1.1300    3.5154    1.1932 C   0  0  0  0  0  0  0  0  0  0  0  0
    0.2878    3.7019    0.6696 C   0  0  0  0  0  3  0  0  0  0  0  0
   -1.7293    4.4150    1.0422 H   0  0  0  0  0  0  0  0  0  0  0  0
   -1.1313    3.2930    2.2617 H   0  0  0  0  0  0  0  0  0  0  0  0
   -1.6350    2.6927    0.6839 H   0  0  0  0  0  0  0  0  0  0  0  0
    0.7927    4.5247    1.1789 H   0  0  0  0  0  0  0  0  0  0  0  0
    0.2891    3.9243   -0.3989 H   0  0  0  0  0  0  0  0  0  0  0  0
   -0.8964   -2.8353   -0.9847 C   0  0  0  0  0  0  0  0  0  0  0  0
   -0.8964   -2.8353    0.5459 C   0  0  0  0  0  0  0  0  0  0  0  0
    0.2467   -1.9989    1.1279 C   0  0  0  0  0  0  0  0  0  0  0  0
    0.2071   -0.5980    0.5438 C   0  0  0  0  0  0  0  0  0  0  0  0
    1.3262    0.3758    0.8992 C   0  0  0  0  0  0  0  0  0  0  0  0
    1.2762    1.4464   -0.2194 C   0  0  0  0  0  0  0  0  0  0  0  0
    0.3827    0.8545   -1.3380 C   0  0  0  0  0  0  0  0  0  0  0  0
    0.2576   -0.6236   -0.9826 C   0  0  0  0  0  0  0  0  0  0  0  0
   -0.8964   -1.4189   -1.5667 C   0  0  0  0  0  0  0  0  0  0  0  0
   -0.0040   -3.3621   -1.3406 H   0  0  0  0  0  0  0  0  0  0  0  0
   -1.7573   -3.3964   -1.3554 H   0  0  0  0  0  0  0  0  0  0  0  0
   -1.8485   -2.4262    0.9018 H   0  0  0  0  0  0  0  0  0  0  0  0
   -0.8409   -3.8614    0.9166 H   0  0  0  0  0  0  0  0  0  0  0  0
    0.1795   -1.9730    2.2187 H   0  0  0  0  0  0  0  0  0  0  0  0
    1.2082   -2.4641    0.8798 H   0  0  0  0  0  0  0  0  0  0  0  0
   -0.7517   -0.1391    0.8263 H   0  0  0  0  0  0  0  0  0  0  0  0
    1.2173    0.8038    1.8966 H   0  0  0  0  0  0  0  0  0  0  0  0
    2.2838   -0.1527    0.8788 H   0  0  0  0  0  0  0  0  0  0  0  0
    0.7822    2.5736    0.2249 H   0  0  0  0  0  0  0  0  0  0  0  0
    2.2774    1.6689   -0.5897 H   0  0  0  0  0  0  0  0  0  0  0  0
    0.7923    1.0194   -2.3355 H   0  0  0  0  0  0  0  0  0  0  0  0
   -0.6093    1.3153   -1.3176 H   0  0  0  0  0  0  0  0  0  0  0  0
    1.1941   -1.1264   -1.2651 H   0  0  0  0  0  0  0  0  0  0  0  0
   -0.8358   -1.4579   -2.6575 H   0  0  0  0  0  0  0  0  0  0  0  0
   -1.8396   -0.9176   -1.3186 H   0  0  0  0  0  0  0  0  0  0  0  0
  1  2  1  0
  1  3  1  0
  1  4  1  0
  1  5  1  0
  2  6  1  0
  2  7  1  0
  8  9  1  0
  8 16  1  0
  8 17  1  0
  8 18  1  0
  9 10  1  0
  9 19  1  0
  9 20  1  0
 10 11  1  0
 10 21  1  0
 10 22  1  0
 11 12  1  0
 11 15  1  0
 11 23  1  0
 12 13  1  0
 12 24  1  0
 12 25  1  0
 13 14  1  0
 13 26  1  0
 13 27  1  0
 14 15  1  0
 14 28  1  0
 14 29  1  0
 15 16  1  0
 15 30  1  0
 16 31  1  0
 16 32  1  0
M  RAD  1   2   2
M  END
>  <reaction>  (8) 
rxn_600

>  <mol_properties>  (8) 
{"0": {"label": "*4", "atom_type": "Cs"}, "1": {"label": "*3", "atom_type": "Cs"}, "11": {"label": "*0", "atom_type": "Cs"}, "12": {"label": "*1", "atom_type": "Cs"}, "25": {"label": "*2", "atom_type": "H0"}}

>  <type>  (8) 
unop_4

>  <geom_source>  (8) 
Heuristics

$$$$

     RDKit          3D

 32 32  0  0  0  0  0  0  0  0999 V2000
    0.1030    4.6328   -0.2738 C   0  0  0  0  0  0  0  0  0  0  0  0
    0.1523    3.5801    0.8254 C   0  0  0  0  0  3  0  0  0  0  0  0
   -0.3091    5.5731    0.0968 H   0  0  0  0  0  0  0  0  0  0  0  0
   -0.5199    4.3052   -1.1080 H   0  0  0  0  0  0  0  0  0  0  0  0
    1.0994    4.8412   -0.6674 H   0  0  0  0  0  0  0  0  0  0  0  0
   -0.8441    3.3718    1.2190 H   0  0  0  0  0  0  0  0  0  0  0  0
    0.7752    3.9077    1.6596 H   0  0  0  0  0  0  0  0  0  0  0  0
   -1.0319   -2.9572   -0.8290 C   0  0  0  0  0  0  0  0  0  0  0  0
   -1.0319   -2.9572    0.7016 C   0  0  0  0  0  0  0  0  0  0  0  0
    0.1113   -2.1208    1.2836 C   0  0  0  0  0  0  0  0  0  0  0  0
    0.0716   -0.7198    0.6995 C   0  0  0  0  0  0  0  0  0  0  0  0
    1.1907    0.2540    1.0550 C   0  0  0  0  0  0  0  0  0  0  0  0
    1.1407    1.3246   -0.0637 C   0  0  0  0  0  0  0  0  0  0  0  0
    0.2473    0.7327   -1.1823 C   0  0  0  0  0  0  0  0  0  0  0  0
    0.1222   -0.7454   -0.8269 C   0  0  0  0  0  0  0  0  0  0  0  0
   -1.0319   -1.5407   -1.4110 C   0  0  0  0  0  0  0  0  0  0  0  0
   -0.1394   -3.4840   -1.1849 H   0  0  0  0  0  0  0  0  0  0  0  0
   -1.8927   -3.5183   -1.1997 H   0  0  0  0  0  0  0  0  0  0  0  0
   -1.9840   -2.5480    1.0576 H   0  0  0  0  0  0  0  0  0  0  0  0
   -0.9763   -3.9833    1.0723 H   0  0  0  0  0  0  0  0  0  0  0  0
    0.0440   -2.0948    2.3745 H   0  0  0  0  0  0  0  0  0  0  0  0
    1.0728   -2.5859    1.0356 H   0  0  0  0  0  0  0  0  0  0  0  0
   -0.8871   -0.2609    0.9820 H   0  0  0  0  0  0  0  0  0  0  0  0
    1.0819    0.6819    2.0524 H   0  0  0  0  0  0  0  0  0  0  0  0
    2.1483   -0.2746    1.0345 H   0  0  0  0  0  0  0  0  0  0  0  0
    0.6468    2.4518    0.3806 H   0  0  0  0  0  0  0  0  0  0  0  0
    2.1419    1.5470   -0.4339 H   0  0  0  0  0  0  0  0  0  0  0  0
    0.6569    0.8976   -2.1797 H   0  0  0  0  0  0  0  0  0  0  0  0
   -0.7448    1.1935   -1.1619 H   0  0  0  0  0  0  0  0  0  0  0  0
    1.0586   -1.2483   -1.1094 H   0  0  0  0  0  0  0  0  0  0  0  0
   -0.9712   -1.5797   -2.5018 H   0  0  0  0  0  0  0  0  0  0  0  0
   -1.9750   -1.0394   -1.1629 H   0  0  0  0  0  0  0  0  0  0  0  0
  1  2  1  0
  1  3  1  0
  1  4  1  0
  1  5  1  0
  2  6  1  0
  2  7  1  0
  8  9  1  0
  8 16  1  0
  8 17  1  0
  8 18  1  0
  9 10  1  0
  9 19  1  0
  9 20  1  0
 10 11  1  0
 10 21  1  0
 10 22  1  0
 11 12  1  0
 11 15  1  0
 11 23  1  0
 12 13  1  0
 12 24  1  0
 12 25  1  0
 13 14  1  0
 13 26  1  0
 13 27  1  0
 14 15  1  0
 14 28  1  0
 14 29  1  0
 15 16  1  0
 15 30  1  0
 16 31  1  0
 16 32  1  0
M  RAD  1   2   2
M  END
>  <reaction>  (9) 
rxn_600

>  <mol_properties>  (9) 
{"0": {"label": "*4", "atom_type": "Cs"}, "1": {"label": "*3", "atom_type": "Cs"}, "11": {"label": "*0", "atom_type": "Cs"}, "12": {"label": "*1", "atom_type": "Cs"}, "25": {"label": "*2", "atom_type": "H0"}}

>  <type>  (9) 
unop_5

>  <geom_source>  (9) 
Heuristics

$$$$

     RDKit          3D

 32 32  0  0  0  0  0  0  0  0999 V2000
   -1.2176    3.7228    0.5711 C   0  0  0  0  0  0  0  0  0  0  0  0
    0.2954    3.6787    0.7384 C   0  0  0  0  0  3  0  0  0  0  0  0
   -1.5531    4.7147    0.2634 H   0  0  0  0  0  0  0  0  0  0  0  0
   -1.7264    3.4768    1.5047 H   0  0  0  0  0  0  0  0  0  0  0  0
   -1.5530    3.0112   -0.1855 H   0  0  0  0  0  0  0  0  0  0  0  0
    0.6308    4.3903    1.4950 H   0  0  0  0  0  0  0  0  0  0  0  0
    0.8042    3.9247   -0.1952 H   0  0  0  0  0  0  0  0  0  0  0  0
   -0.8888   -2.8586   -0.9159 C   0  0  0  0  0  0  0  0  0  0  0  0
   -0.8888   -2.8586    0.6147 C   0  0  0  0  0  0  0  0  0  0  0  0
    0.2543   -2.0222    1.1967 C   0  0  0  0  0  0  0  0  0  0  0  0
    0.2147   -0.6212    0.6126 C   0  0  0  0  0  0  0  0  0  0  0  0
    1.3338    0.3526    0.9680 C   0  0  0  0  0  0  0  0  0  0  0  0
    1.2838    1.4231   -0.1506 C   0  0  0  0  0  0  0  0  0  0  0  0
    0.3903    0.8313   -1.2692 C   0  0  0  0  0  0  0  0  0  0  0  0
    0.2652   -0.6468   -0.9138 C   0  0  0  0  0  0  0  0  0  0  0  0
   -0.8888   -1.4421   -1.4979 C   0  0  0  0  0  0  0  0  0  0  0  0
    0.0036   -3.3854   -1.2718 H   0  0  0  0  0  0  0  0  0  0  0  0
   -1.7497   -3.4197   -1.2866 H   0  0  0  0  0  0  0  0  0  0  0  0
   -1.8409   -2.4494    0.9706 H   0  0  0  0  0  0  0  0  0  0  0  0
   -0.8333   -3.8847    0.9854 H   0  0  0  0  0  0  0  0  0  0  0  0
    0.1871   -1.9962    2.2875 H   0  0  0  0  0  0  0  0  0  0  0  0
    1.2158   -2.4873    0.9486 H   0  0  0  0  0  0  0  0  0  0  0  0
   -0.7441   -0.1624    0.8951 H   0  0  0  0  0  0  0  0  0  0  0  0
    1.2249    0.7805    1.9654 H   0  0  0  0  0  0  0  0  0  0  0  0
    2.2914   -0.1760    0.9476 H   0  0  0  0  0  0  0  0  0  0  0  0
    0.7898    2.5504    0.2937 H   0  0  0  0  0  0  0  0  0  0  0  0
    2.2850    1.6456   -0.5209 H   0  0  0  0  0  0  0  0  0  0  0  0
    0.7999    0.9962   -2.2666 H   0  0  0  0  0  0  0  0  0  0  0  0
   -0.6017    1.2920   -1.2488 H   0  0  0  0  0  0  0  0  0  0  0  0
    1.2017   -1.1497   -1.1963 H   0  0  0  0  0  0  0  0  0  0  0  0
   -0.8282   -1.4811   -2.5887 H   0  0  0  0  0  0  0  0  0  0  0  0
   -1.8320   -0.9408   -1.2498 H   0  0  0  0  0  0  0  0  0  0  0  0
  1  2  1  0
  1  3  1  0
  1  4  1  0
  1  5  1  0
  2  6  1  0
  2  7  1  0
  8  9  1  0
  8 16  1  0
  8 17  1  0
  8 18  1  0
  9 10  1  0
  9 19  1  0
  9 20  1  0
 10 11  1  0
 10 21  1  0
 10 22  1  0
 11 12  1  0
 11 15  1  0
 11 23  1  0
 12 13  1  0
 12 24  1  0
 12 25  1  0
 13 14  1  0
 13 26  1  0
 13 27  1  0
 14 15  1  0
 14 28  1  0
 14 29  1  0
 15 16  1  0
 15 30  1  0
 16 31  1  0
 16 32  1  0
M  RAD  1   2   2
M  END
>  <reaction>  (10) 
rxn_600

>  <mol_properties>  (10) 
{"0": {"label": "*4", "atom_type": "Cs"}, "1": {"label": "*3", "atom_type": "Cs"}, "11": {"label": "*0", "atom_type": "Cs"}, "12": {"label": "*1", "atom_type": "Cs"}, "25": {"label": "*2", "atom_type": "H0"}}

>  <type>  (10) 
unop_6

>  <geom_source>  (10) 
Heuristics

$$$$

     RDKit          3D

 32 32  0  0  0  0  0  0  0  0999 V2000
   -0.9902    4.0346    0.0329 C   0  0  0  0  0  0  0  0  0  0  0  0
    0.2684    3.6442    0.7961 C   0  0  0  0  0  3  0  0  0  0  0  0
   -1.0200    5.1087   -0.1582 H   0  0  0  0  0  0  0  0  0  0  0  0
   -1.8898    3.7736    0.5931 H   0  0  0  0  0  0  0  0  0  0  0  0
   -1.0422    3.5258   -0.9313 H   0  0  0  0  0  0  0  0  0  0  0  0
    0.3204    4.1529    1.7603 H   0  0  0  0  0  0  0  0  0  0  0  0
    1.1680    3.9052    0.2359 H   0  0  0  0  0  0  0  0  0  0  0  0
   -0.9158   -2.8931   -0.8582 C   0  0  0  0  0  0  0  0  0  0  0  0
   -0.9158   -2.8931    0.6724 C   0  0  0  0  0  0  0  0  0  0  0  0
    0.2274   -2.0567    1.2544 C   0  0  0  0  0  0  0  0  0  0  0  0
    0.1877   -0.6557    0.6703 C   0  0  0  0  0  0  0  0  0  0  0  0
    1.3068    0.3181    1.0257 C   0  0  0  0  0  0  0  0  0  0  0  0
    1.2568    1.3886   -0.0929 C   0  0  0  0  0  0  0  0  0  0  0  0
    0.3634    0.7968   -1.2116 C   0  0  0  0  0  0  0  0  0  0  0  0
    0.2383   -0.6813   -0.8561 C   0  0  0  0  0  0  0  0  0  0  0  0
   -0.9158   -1.4766   -1.4402 C   0  0  0  0  0  0  0  0  0  0  0  0
   -0.0233   -3.4199   -1.2142 H   0  0  0  0  0  0  0  0  0  0  0  0
   -1.7766   -3.4542   -1.2289 H   0  0  0  0  0  0  0  0  0  0  0  0
   -1.8679   -2.4839    1.0283 H   0  0  0  0  0  0  0  0  0  0  0  0
   -0.8602   -3.9192    1.0431 H   0  0  0  0  0  0  0  0  0  0  0  0
    0.1601   -2.0307    2.3452 H   0  0  0  0  0  0  0  0  0  0  0  0
    1.1889   -2.5218    1.0063 H   0  0  0  0  0  0  0  0  0  0  0  0
   -0.7710   -0.1969    0.9528 H   0  0  0  0  0  0  0  0  0  0  0  0
    1.1980    0.7460    2.0231 H   0  0  0  0  0  0  0  0  0  0  0  0
    2.2644   -0.2105    1.0053 H   0  0  0  0  0  0  0  0  0  0  0  0
    0.7629    2.5159    0.3514 H   0  0  0  0  0  0  0  0  0  0  0  0
    2.2580    1.6111   -0.4632 H   0  0  0  0  0  0  0  0  0  0  0  0
    0.7730    0.9617   -2.2090 H   0  0  0  0  0  0  0  0  0  0  0  0
   -0.6287    1.2575   -1.1911 H   0  0  0  0  0  0  0  0  0  0  0  0
    1.1747   -1.1842   -1.1386 H   0  0  0  0  0  0  0  0  0  0  0  0
   -0.8551   -1.5156   -2.5311 H   0  0  0  0  0  0  0  0  0  0  0  0
   -1.8589   -0.9753   -1.1922 H   0  0  0  0  0  0  0  0  0  0  0  0
  1  2  1  0
  1  3  1  0
  1  4  1  0
  1  5  1  0
  2  6  1  0
  2  7  1  0
  8  9  1  0
  8 16  1  0
  8 17  1  0
  8 18  1  0
  9 10  1  0
  9 19  1  0
  9 20  1  0
 10 11  1  0
 10 21  1  0
 10 22  1  0
 11 12  1  0
 11 15  1  0
 11 23  1  0
 12 13  1  0
 12 24  1  0
 12 25  1  0
 13 14  1  0
 13 26  1  0
 13 27  1  0
 14 15  1  0
 14 28  1  0
 14 29  1  0
 15 16  1  0
 15 30  1  0
 16 31  1  0
 16 32  1  0
M  RAD  1   2   2
M  END
>  <reaction>  (11) 
rxn_600

>  <mol_properties>  (11) 
{"0": {"label": "*4", "atom_type": "Cs"}, "1": {"label": "*3", "atom_type": "Cs"}, "11": {"label": "*0", "atom_type": "Cs"}, "12": {"label": "*1", "atom_type": "Cs"}, "25": {"label": "*2", "atom_type": "H0"}}

>  <type>  (11) 
unop_7

>  <geom_source>  (11) 
Heuristics

$$$$

     RDKit          3D

 32 32  0  0  0  0  0  0  0  0999 V2000
    1.1344    4.5012    1.2110 C   0  0  0  0  0  0  0  0  0  0  0  0
    0.0385    3.5937    0.6685 C   0  0  0  0  0  3  0  0  0  0  0  0
    0.9525    5.5440    0.9451 H   0  0  0  0  0  0  0  0  0  0  0  0
    2.1116    4.2241    0.8116 H   0  0  0  0  0  0  0  0  0  0  0  0
    1.1937    4.4433    2.2993 H   0  0  0  0  0  0  0  0  0  0  0  0
   -0.0209    3.6516   -0.4197 H   0  0  0  0  0  0  0  0  0  0  0  0
   -0.9387    3.8708    1.0679 H   0  0  0  0  0  0  0  0  0  0  0  0
   -1.1457   -2.9436   -0.9858 C   0  0  0  0  0  0  0  0  0  0  0  0
   -1.1457   -2.9436    0.5448 C   0  0  0  0  0  0  0  0  0  0  0  0
   -0.0026   -2.1072    1.1268 C   0  0  0  0  0  0  0  0  0  0  0  0
   -0.0422   -0.7062    0.5427 C   0  0  0  0  0  0  0  0  0  0  0  0
    1.0769    0.2676    0.8981 C   0  0  0  0  0  0  0  0  0  0  0  0
    1.0269    1.3381   -0.2205 C   0  0  0  0  0  0  0  0  0  0  0  0
    0.1334    0.7463   -1.3391 C   0  0  0  0  0  0  0  0  0  0  0  0
    0.0083   -0.7319   -0.9837 C   0  0  0  0  0  0  0  0  0  0  0  0
   -1.1457   -1.5272   -1.5678 C   0  0  0  0  0  0  0  0  0  0  0  0
   -0.2533   -3.4704   -1.3417 H   0  0  0  0  0  0  0  0  0  0  0  0
   -2.0066   -3.5047   -1.3565 H   0  0  0  0  0  0  0  0  0  0  0  0
   -2.0978   -2.5344    0.9007 H   0  0  0  0  0  0  0  0  0  0  0  0
   -1.0902   -3.9697    0.9155 H   0  0  0  0  0  0  0  0  0  0  0  0
   -0.0698   -2.0813    2.2176 H   0  0  0  0  0  0  0  0  0  0  0  0
    0.9589   -2.5723    0.8787 H   0  0  0  0  0  0  0  0  0  0  0  0
   -1.0010   -0.2474    0.8252 H   0  0  0  0  0  0  0  0  0  0  0  0
    0.9680    0.6955    1.8955 H   0  0  0  0  0  0  0  0  0  0  0  0
    2.0345   -0.2610    0.8777 H   0  0  0  0  0  0  0  0  0  0  0  0
    0.5329    2.4654    0.2238 H   0  0  0  0  0  0  0  0  0  0  0  0
    2.0281    1.5606   -0.5908 H   0  0  0  0  0  0  0  0  0  0  0  0
    0.5430    0.9111   -2.3365 H   0  0  0  0  0  0  0  0  0  0  0  0
   -0.8586    1.2070   -1.3187 H   0  0  0  0  0  0  0  0  0  0  0  0
    0.9448   -1.2347   -1.2662 H   0  0  0  0  0  0  0  0  0  0  0  0
   -1.0851   -1.5661   -2.6586 H   0  0  0  0  0  0  0  0  0  0  0  0
   -2.0889   -1.0258   -1.3197 H   0  0  0  0  0  0  0  0  0  0  0  0
  1  2  1  0
  1  3  1  0
  1  4  1  0
  1  5  1  0
  2  6  1  0
  2  7  1  0
  8  9  1  0
  8 16  1  0
  8 17  1  0
  8 18  1  0
  9 10  1  0
  9 19  1  0
  9 20  1  0
 10 11  1  0
 10 21  1  0
 10 22  1  0
 11 12  1  0
 11 15  1  0
 11 23  1  0
 12 13  1  0
 12 24  1  0
 12 25  1  0
 13 14  1  0
 13 26  1  0
 13 27  1  0
 14 15  1  0
 14 28  1  0
 14 29  1  0
 15 16  1  0
 15 30  1  0
 16 31  1  0
 16 32  1  0
M  RAD  1   2   2
M  END
>  <reaction>  (12) 
rxn_600

>  <mol_properties>  (12) 
{"0": {"label": "*4", "atom_type": "Cs"}, "1": {"label": "*3", "atom_type": "Cs"}, "11": {"label": "*0", "atom_type": "Cs"}, "12": {"label": "*1", "atom_type": "Cs"}, "25": {"label": "*2", "atom_type": "H0"}}

>  <type>  (12) 
unop_8

>  <geom_source>  (12) 
Heuristics

$$$$

     RDKit          3D

 32 32  0  0  0  0  0  0  0  0999 V2000
   -0.7517    3.4676    1.7331 C   0  0  0  0  0  0  0  0  0  0  0  0
    0.2469    3.7073    0.6087 C   0  0  0  0  0  3  0  0  0  0  0  0
   -1.3893    4.3396    1.8888 H   0  0  0  0  0  0  0  0  0  0  0  0
   -0.2433    3.2576    2.6758 H   0  0  0  0  0  0  0  0  0  0  0  0
   -1.4010    2.6188    1.5116 H   0  0  0  0  0  0  0  0  0  0  0  0
    0.8962    4.5562    0.8302 H   0  0  0  0  0  0  0  0  0  0  0  0
   -0.2614    3.9174   -0.3340 H   0  0  0  0  0  0  0  0  0  0  0  0
   -0.9373   -2.8299   -1.0457 C   0  0  0  0  0  0  0  0  0  0  0  0
   -0.9373   -2.8299    0.4849 C   0  0  0  0  0  0  0  0  0  0  0  0
    0.2058   -1.9935    1.0669 C   0  0  0  0  0  0  0  0  0  0  0  0
    0.1662   -0.5926    0.4828 C   0  0  0  0  0  0  0  0  0  0  0  0
    1.2853    0.3812    0.8383 C   0  0  0  0  0  0  0  0  0  0  0  0
    1.2353    1.4518   -0.2804 C   0  0  0  0  0  0  0  0  0  0  0  0
    0.3418    0.8599   -1.3990 C   0  0  0  0  0  0  0  0  0  0  0  0
    0.2168   -0.6182   -1.0435 C   0  0  0  0  0  0  0  0  0  0  0  0
   -0.9373   -1.4135   -1.6277 C   0  0  0  0  0  0  0  0  0  0  0  0
   -0.0448   -3.3568   -1.4016 H   0  0  0  0  0  0  0  0  0  0  0  0
   -1.7981   -3.3910   -1.4164 H   0  0  0  0  0  0  0  0  0  0  0  0
   -1.8894   -2.4208    0.8409 H   0  0  0  0  0  0  0  0  0  0  0  0
   -0.8817   -3.8560    0.8557 H   0  0  0  0  0  0  0  0  0  0  0  0
    0.1386   -1.9676    2.1578 H   0  0  0  0  0  0  0  0  0  0  0  0
    1.1674   -2.4587    0.8189 H   0  0  0  0  0  0  0  0  0  0  0  0
   -0.7925   -0.1337    0.7654 H   0  0  0  0  0  0  0  0  0  0  0  0
    1.1765    0.8092    1.8357 H   0  0  0  0  0  0  0  0  0  0  0  0
    2.2429   -0.1473    0.8178 H   0  0  0  0  0  0  0  0  0  0  0  0
    0.7413    2.5790    0.1640 H   0  0  0  0  0  0  0  0  0  0  0  0
    2.2365    1.6742   -0.6506 H   0  0  0  0  0  0  0  0  0  0  0  0
    0.7515    1.0248   -2.3964 H   0  0  0  0  0  0  0  0  0  0  0  0
   -0.6502    1.3207   -1.3786 H   0  0  0  0  0  0  0  0  0  0  0  0
    1.1532   -1.1210   -1.3261 H   0  0  0  0  0  0  0  0  0  0  0  0
   -0.8766   -1.4525   -2.7185 H   0  0  0  0  0  0  0  0  0  0  0  0
   -1.8804   -0.9122   -1.3796 H   0  0  0  0  0  0  0  0  0  0  0  0
  1  2  1  0
  1  3  1  0
  1  4  1  0
  1  5  1  0
  2  6  1  0
  2  7  1  0
  8  9  1  0
  8 16  1  0
  8 17  1  0
  8 18  1  0
  9 10  1  0
  9 19  1  0
  9 20  1  0
 10 11  1  0
 10 21  1  0
 10 22  1  0
 11 12  1  0
 11 15  1  0
 11 23  1  0
 12 13  1  0
 12 24  1  0
 12 25  1  0
 13 14  1  0
 13 26  1  0
 13 27  1  0
 14 15  1  0
 14 28  1  0
 14 29  1  0
 15 16  1  0
 15 30  1  0
 16 31  1  0
 16 32  1  0
M  RAD  1   2   2
M  END
>  <reaction>  (13) 
rxn_600

>  <mol_properties>  (13) 
{"0": {"label": "*4", "atom_type": "Cs"}, "1": {"label": "*3", "atom_type": "Cs"}, "11": {"label": "*0", "atom_type": "Cs"}, "12": {"label": "*1", "atom_type": "Cs"}, "25": {"label": "*2", "atom_type": "H0"}}

>  <type>  (13) 
unop_9

>  <geom_source>  (13) 
Heuristics

$$$$

     RDKit          3D

 32 32  0  0  0  0  0  0  0  0999 V2000
    0.9039    4.1886    1.7466 C   0  0  0  0  0  0  0  0  0  0  0  0
    0.0623    3.6273    0.6083 C   0  0  0  0  0  3  0  0  0  0  0  0
    0.8836    5.2798    1.7531 H   0  0  0  0  0  0  0  0  0  0  0  0
    1.9465    3.8781    1.6584 H   0  0  0  0  0  0  0  0  0  0  0  0
    0.5379    3.8455    2.7159 H   0  0  0  0  0  0  0  0  0  0  0  0
    0.4284    3.9704   -0.3610 H   0  0  0  0  0  0  0  0  0  0  0  0
   -0.9803    3.9378    0.6965 H   0  0  0  0  0  0  0  0  0  0  0  0
   -1.1218   -2.9099   -1.0460 C   0  0  0  0  0  0  0  0  0  0  0  0
   -1.1218   -2.9099    0.4846 C   0  0  0  0  0  0  0  0  0  0  0  0
    0.0213   -2.0735    1.0666 C   0  0  0  0  0  0  0  0  0  0  0  0
   -0.0183   -0.6726    0.4824 C   0  0  0  0  0  0  0  0  0  0  0  0
    1.1007    0.3012    0.8379 C   0  0  0  0  0  0  0  0  0  0  0  0
    1.0508    1.3718   -0.2807 C   0  0  0  0  0  0  0  0  0  0  0  0
    0.1573    0.7799   -1.3994 C   0  0  0  0  0  0  0  0  0  0  0  0
    0.0322   -0.6982   -1.0439 C   0  0  0  0  0  0  0  0  0  0  0  0
   -1.1218   -1.4935   -1.6280 C   0  0  0  0  0  0  0  0  0  0  0  0
   -0.2294   -3.4368   -1.4020 H   0  0  0  0  0  0  0  0  0  0  0  0
   -1.9827   -3.4710   -1.4168 H   0  0  0  0  0  0  0  0  0  0  0  0
   -2.0740   -2.5008    0.8405 H   0  0  0  0  0  0  0  0  0  0  0  0
   -1.0663   -3.9360    0.8553 H   0  0  0  0  0  0  0  0  0  0  0  0
   -0.0460   -2.0476    2.1574 H   0  0  0  0  0  0  0  0  0  0  0  0
    0.9828   -2.5387    0.8185 H   0  0  0  0  0  0  0  0  0  0  0  0
   -0.9771   -0.2137    0.7650 H   0  0  0  0  0  0  0  0  0  0  0  0
    0.9919    0.7292    1.8353 H   0  0  0  0  0  0  0  0  0  0  0  0
    2.0584   -0.2273    0.8175 H   0  0  0  0  0  0  0  0  0  0  0  0
    0.5568    2.4990    0.1636 H   0  0  0  0  0  0  0  0  0  0  0  0
    2.0520    1.5942   -0.6510 H   0  0  0  0  0  0  0  0  0  0  0  0
    0.5669    0.9448   -2.3968 H   0  0  0  0  0  0  0  0  0  0  0  0
   -0.8347    1.2407   -1.3789 H   0  0  0  0  0  0  0  0  0  0  0  0
    0.9687   -1.2010   -1.3265 H   0  0  0  0  0  0  0  0  0  0  0  0
   -1.0612   -1.5325   -2.7189 H   0  0  0  0  0  0  0  0  0  0  0  0
   -2.0650   -0.9922   -1.3800 H   0  0  0  0  0  0  0  0  0  0  0  0
  1  2  1  0
  1  3  1  0
  1  4  1  0
  1  5  1  0
  2  6  1  0
  2  7  1  0
  8  9  1  0
  8 16  1  0
  8 17  1  0
  8 18  1  0
  9 10  1  0
  9 19  1  0
  9 20  1  0
 10 11  1  0
 10 21  1  0
 10 22  1  0
 11 12  1  0
 11 15  1  0
 11 23  1  0
 12 13  1  0
 12 24  1  0
 12 25  1  0
 13 14  1  0
 13 26  1  0
 13 27  1  0
 14 15  1  0
 14 28  1  0
 14 29  1  0
 15 16  1  0
 15 30  1  0
 16 31  1  0
 16 32  1  0
M  RAD  1   2   2
M  END
>  <reaction>  (14) 
rxn_600

>  <mol_properties>  (14) 
{"0": {"label": "*4", "atom_type": "Cs"}, "1": {"label": "*3", "atom_type": "Cs"}, "11": {"label": "*0", "atom_type": "Cs"}, "12": {"label": "*1", "atom_type": "Cs"}, "25": {"label": "*2", "atom_type": "H0"}}

>  <type>  (14) 
unop_10

>  <geom_source>  (14) 
Heuristics

$$$$

     RDKit          3D

 32 32  0  0  0  0  0  0  0  0999 V2000
   -0.5074    4.3675   -0.2771 C   0  0  0  0  0  0  0  0  0  0  0  0
    0.2154    3.6080    0.8272 C   0  0  0  0  0  3  0  0  0  0  0  0
   -0.4730    5.4447   -0.1046 H   0  0  0  0  0  0  0  0  0  0  0  0
   -1.5575    4.0758   -0.3362 H   0  0  0  0  0  0  0  0  0  0  0  0
   -0.0556    4.1744   -1.2516 H   0  0  0  0  0  0  0  0  0  0  0  0
   -0.2364    3.8011    1.8017 H   0  0  0  0  0  0  0  0  0  0  0  0
    1.2655    3.8997    0.8863 H   0  0  0  0  0  0  0  0  0  0  0  0
   -0.9687   -2.9293   -0.8272 C   0  0  0  0  0  0  0  0  0  0  0  0
   -0.9687   -2.9293    0.7034 C   0  0  0  0  0  0  0  0  0  0  0  0
    0.1744   -2.0929    1.2854 C   0  0  0  0  0  0  0  0  0  0  0  0
    0.1348   -0.6919    0.7013 C   0  0  0  0  0  0  0  0  0  0  0  0
    1.2538    0.2818    1.0568 C   0  0  0  0  0  0  0  0  0  0  0  0
    1.2039    1.3524   -0.0619 C   0  0  0  0  0  0  0  0  0  0  0  0
    0.3104    0.7606   -1.1805 C   0  0  0  0  0  0  0  0  0  0  0  0
    0.1853   -0.7176   -0.8250 C   0  0  0  0  0  0  0  0  0  0  0  0
   -0.9687   -1.5129   -1.4092 C   0  0  0  0  0  0  0  0  0  0  0  0
   -0.0763   -3.4561   -1.1831 H   0  0  0  0  0  0  0  0  0  0  0  0
   -1.8296   -3.4904   -1.1979 H   0  0  0  0  0  0  0  0  0  0  0  0
   -1.9209   -2.5202    1.0594 H   0  0  0  0  0  0  0  0  0  0  0  0
   -0.9132   -3.9554    1.0742 H   0  0  0  0  0  0  0  0  0  0  0  0
    0.1071   -2.0670    2.3763 H   0  0  0  0  0  0  0  0  0  0  0  0
    1.1359   -2.5580    1.0374 H   0  0  0  0  0  0  0  0  0  0  0  0
   -0.8240   -0.2331    0.9838 H   0  0  0  0  0  0  0  0  0  0  0  0
    1.1450    0.7098    2.0542 H   0  0  0  0  0  0  0  0  0  0  0  0
    2.2115   -0.2467    1.0363 H   0  0  0  0  0  0  0  0  0  0  0  0
    0.7099    2.4797    0.3825 H   0  0  0  0  0  0  0  0  0  0  0  0
    2.2051    1.5749   -0.4321 H   0  0  0  0  0  0  0  0  0  0  0  0
    0.7200    0.9254   -2.1779 H   0  0  0  0  0  0  0  0  0  0  0  0
   -0.6816    1.2213   -1.1601 H   0  0  0  0  0  0  0  0  0  0  0  0
    1.1218   -1.2204   -1.1076 H   0  0  0  0  0  0  0  0  0  0  0  0
   -0.9081   -1.5518   -2.5000 H   0  0  0  0  0  0  0  0  0  0  0  0
   -1.9119   -1.0115   -1.1611 H   0  0  0  0  0  0  0  0  0  0  0  0
  1  2  1  0
  1  3  1  0
  1  4  1  0
  1  5  1  0
  2  6  1  0
  2  7  1  0
  8  9  1  0
  8 16  1  0
  8 17  1  0
  8 18  1  0
  9 10  1  0
  9 19  1  0
  9 20  1  0
 10 11  1  0
 10 21  1  0
 10 22  1  0
 11 12  1  0
 11 15  1  0
 11 23  1  0
 12 13  1  0
 12 24  1  0
 12 25  1  0
 13 14  1  0
 13 26  1  0
 13 27  1  0
 14 15  1  0
 14 28  1  0
 14 29  1  0
 15 16  1  0
 15 30  1  0
 16 31  1  0
 16 32  1  0
M  RAD  1   2   2
M  END
>  <reaction>  (15) 
rxn_600

>  <mol_properties>  (15) 
{"0": {"label": "*4", "atom_type": "Cs"}, "1": {"label": "*3", "atom_type": "Cs"}, "11": {"label": "*0", "atom_type": "Cs"}, "12": {"label": "*1", "atom_type": "Cs"}, "25": {"label": "*2", "atom_type": "H0"}}

>  <type>  (15) 
unop_11

>  <geom_source>  (15) 
Heuristics

$$$$

     RDKit          3D

 32 32  0  0  0  0  0  0  0  0999 V2000
   -0.1841    3.5922    2.0472 C   0  0  0  0  0  0  0  0  0  0  0  0
    0.1835    3.6933    0.5730 C   0  0  0  0  0  3  0  0  0  0  0  0
   -0.5962    4.5324    2.4178 H   0  0  0  0  0  0  0  0  0  0  0  0
    0.6882    3.3506    2.6571 H   0  0  0  0  0  0  0  0  0  0  0  0
   -0.9311    2.8146    2.2165 H   0  0  0  0  0  0  0  0  0  0  0  0
    0.9305    4.4708    0.4037 H   0  0  0  0  0  0  0  0  0  0  0  0
   -0.6888    3.9349   -0.0369 H   0  0  0  0  0  0  0  0  0  0  0  0
   -1.0006   -2.8440   -1.0814 C   0  0  0  0  0  0  0  0  0  0  0  0
   -1.0006   -2.8440    0.4492 C   0  0  0  0  0  0  0  0  0  0  0  0
    0.1425   -2.0076    1.0312 C   0  0  0  0  0  0  0  0  0  0  0  0
    0.1029   -0.6066    0.4471 C   0  0  0  0  0  0  0  0  0  0  0  0
    1.2219    0.3672    0.8025 C   0  0  0  0  0  0  0  0  0  0  0  0
    1.1720    1.4377   -0.3161 C   0  0  0  0  0  0  0  0  0  0  0  0
    0.2785    0.8459   -1.4347 C   0  0  0  0  0  0  0  0  0  0  0  0
    0.1534   -0.6322   -1.0793 C   0  0  0  0  0  0  0  0  0  0  0  0
   -1.0006   -1.4276   -1.6634 C   0  0  0  0  0  0  0  0  0  0  0  0
   -0.1082   -3.3708   -1.4373 H   0  0  0  0  0  0  0  0  0  0  0  0
   -1.8615   -3.4051   -1.4521 H   0  0  0  0  0  0  0  0  0  0  0  0
   -1.9528   -2.4348    0.8051 H   0  0  0  0  0  0  0  0  0  0  0  0
   -0.9451   -3.8701    0.8199 H   0  0  0  0  0  0  0  0  0  0  0  0
    0.0752   -1.9816    2.1220 H   0  0  0  0  0  0  0  0  0  0  0  0
    1.1040   -2.4727    0.7832 H   0  0  0  0  0  0  0  0  0  0  0  0
   -0.8559   -0.1478    0.7296 H   0  0  0  0  0  0  0  0  0  0  0  0
    1.1131    0.7951    1.8000 H   0  0  0  0  0  0  0  0  0  0  0  0
    2.1796   -0.1614    0.7821 H   0  0  0  0  0  0  0  0  0  0  0  0
    0.6780    2.5650    0.1282 H   0  0  0  0  0  0  0  0  0  0  0  0
    2.1732    1.6602   -0.6864 H   0  0  0  0  0  0  0  0  0  0  0  0
    0.6881    1.0108   -2.4321 H   0  0  0  0  0  0  0  0  0  0  0  0
   -0.7136    1.3066   -1.4143 H   0  0  0  0  0  0  0  0  0  0  0  0
    1.0899   -1.1351   -1.3618 H   0  0  0  0  0  0  0  0  0  0  0  0
   -0.9400   -1.4665   -2.7542 H   0  0  0  0  0  0  0  0  0  0  0  0
   -1.9438   -0.9262   -1.4153 H   0  0  0  0  0  0  0  0  0  0  0  0
  1  2  1  0
  1  3  1  0
  1  4  1  0
  1  5  1  0
  2  6  1  0
  2  7  1  0
  8  9  1  0
  8 16  1  0
  8 17  1  0
  8 18  1  0
  9 10  1  0
  9 19  1  0
  9 20  1  0
 10 11  1  0
 10 21  1  0
 10 22  1  0
 11 12  1  0
 11 15  1  0
 11 23  1  0
 12 13  1  0
 12 24  1  0
 12 25  1  0
 13 14  1  0
 13 26  1  0
 13 27  1  0
 14 15  1  0
 14 28  1  0
 14 29  1  0
 15 16  1  0
 15 30  1  0
 16 31  1  0
 16 32  1  0
M  RAD  1   2   2
M  END
>  <reaction>  (16) 
rxn_600

>  <mol_properties>  (16) 
{"0": {"label": "*4", "atom_type": "Cs"}, "1": {"label": "*3", "atom_type": "Cs"}, "11": {"label": "*0", "atom_type": "Cs"}, "12": {"label": "*1", "atom_type": "Cs"}, "25": {"label": "*2", "atom_type": "H0"}}

>  <type>  (16) 
unop_12

>  <geom_source>  (16) 
Heuristics

$$$$

     RDKit          3D

 32 32  0  0  0  0  0  0  0  0999 V2000
   -0.8012    0.3329   -0.7244 C   0  0  0  0  0  0  0  0  0  0  0  0
   -1.1584   -0.1827    0.6556 C   0  0  0  0  0  0  0  0  0  0  0  0
   -2.0705    0.5159   -1.5801 C   0  0  0  0  0  0  0  0  0  0  0  0
   -1.9090    0.8969    1.4605 C   0  0  0  0  0  0  0  0  0  0  0  0
   -3.2736    1.0044   -0.7300 C   0  0  0  0  0  0  0  0  0  0  0  0
   -2.8430    1.7449    0.5564 C   0  0  0  0  0  0  0  0  0  0  0  0
    0.2214   -0.6701   -1.2368 C   0  0  0  0  0  0  0  0  0  0  0  0
    0.1709   -0.6516    1.2290 C   0  0  0  0  0  0  0  0  0  0  0  0
    4.6389   -1.0807   -0.1925 C   0  0  0  0  0  0  0  0  0  0  0  0
    3.4313   -0.4397    0.4677 C   0  0  0  0  0  0  0  0  0  0  0  0
    0.9742   -1.1311    0.0158 C   0  0  0  0  0  3  0  0  0  0  0  0
   -0.2933    1.3220   -0.6253 H   0  0  0  0  0  0  0  0  0  0  0  0
   -1.8213   -1.0748    0.5523 H   0  0  0  0  0  0  0  0  0  0  0  0
   -2.3504   -0.4401   -2.0739 H   0  0  0  0  0  0  0  0  0  0  0  0
   -1.8561    1.2559   -2.3814 H   0  0  0  0  0  0  0  0  0  0  0  0
   -3.8937    0.1282   -0.4386 H   0  0  0  0  0  0  0  0  0  0  0  0
   -3.9145    1.6727   -1.3445 H   0  0  0  0  0  0  0  0  0  0  0  0
   -2.3160    2.6793    0.2628 H   0  0  0  0  0  0  0  0  0  0  0  0
   -3.7460    2.0420    1.1321 H   0  0  0  0  0  0  0  0  0  0  0  0
   -1.1901    1.5782    1.9656 H   0  0  0  0  0  0  0  0  0  0  0  0
   -2.5095    0.3979    2.2519 H   0  0  0  0  0  0  0  0  0  0  0  0
    0.9190   -0.1989   -1.9611 H   0  0  0  0  0  0  0  0  0  0  0  0
   -0.2810   -1.5410   -1.7132 H   0  0  0  0  0  0  0  0  0  0  0  0
    0.0244   -1.4668    1.9703 H   0  0  0  0  0  0  0  0  0  0  0  0
    0.7193    0.1898    1.7046 H   0  0  0  0  0  0  0  0  0  0  0  0
    5.5707   -0.6143    0.1910 H   0  0  0  0  0  0  0  0  0  0  0  0
    4.6553   -2.1678    0.0320 H   0  0  0  0  0  0  0  0  0  0  0  0
    4.5844   -0.9375   -1.2920 H   0  0  0  0  0  0  0  0  0  0  0  0
    3.4822   -0.5836    1.5676 H   0  0  0  0  0  0  0  0  0  0  0  0
    3.4113    0.6474    0.2428 H   0  0  0  0  0  0  0  0  0  0  0  0
    2.3437   -0.9895    0.0151 H   0  0  0  0  0  0  0  0  0  0  0  0
    1.0808   -2.2379    0.0205 H   0  0  0  0  0  0  0  0  0  0  0  0
  1  3  1  0
  1  7  1  0
  1  2  1  0
  1 12  1  0
  2  4  1  0
  2  8  1  0
  2 13  1  0
  3  5  1  0
  3 14  1  0
  3 15  1  0
  4  6  1  0
  4 20  1  0
  4 21  1  0
  5  6  1  0
  5 16  1  0
  5 17  1  0
  6 18  1  0
  6 19  1  0
  7 11  1  0
  7 22  1  0
  7 23  1  0
  8 11  1  0
  8 24  1  0
  8 25  1  0
  9 10  1  0
  9 26  1  0
  9 27  1  0
  9 28  1  0
 10 29  1  0
 10 30  1  0
 10 31  1  0
 11 32  1  0
M  RAD  1  11   2
M  END
>  <reaction>  (17) 
rxn_600

>  <mol_properties>  (17) 
{"0": {"label": "*4", "atom_type": "Cs"}, "1": {"label": "*3", "atom_type": "Cs"}, "11": {"label": "*0", "atom_type": "Cs"}, "12": {"label": "*1", "atom_type": "Cs"}, "25": {"label": "*2", "atom_type": "H0"}}

>  <type>  (17) 
unop_13

>  <geom_source>  (17) 
AutoTST

$$$$
