
     RDKit          3D

  9  8  0  0  0  0  0  0  0  0999 V2000
   -2.1022   -0.6873    0.3932 C   0  0  0  0  0  0  0  0  0  0  0  0
   -1.2072   -0.1086   -0.1482 C   0  0  0  0  0  0  0  0  0  0  0  0
   -0.1242    0.6105   -0.8193 C   0  0  0  0  0  0  0  0  0  0  0  0
    1.2067    0.1106   -0.4741 C   0  0  0  0  0  0  0  0  0  0  0  0
    2.3005   -0.2875   -0.2012 C   0  0  0  0  0  0  0  0  0  0  0  0
   -2.8942   -1.2059    0.8778 H   0  0  0  0  0  0  0  0  0  0  0  0
   -0.1862    1.6723   -0.5649 H   0  0  0  0  0  0  0  0  0  0  0  0
   -0.2641    0.5418   -1.9017 H   0  0  0  0  0  0  0  0  0  0  0  0
    3.2709   -0.6459    0.0455 H   0  0  0  0  0  0  0  0  0  0  0  0
  1  2  3  0
  1  6  1  0
  2  3  1  0
  3  4  1  0
  3  7  1  0
  3  8  1  0
  4  5  3  0
  5  9  1  0
M  END
>  <reaction>  (1) 
rxn_1349

>  <mol_properties>  (1) 
{"2": {"label": "donator", "atom_type": "Cs"}, "6": {"label": "d_hydrogen", "atom_type": "H0"}}

>  <type>  (1) 
r1h

$$$$

     RDKit          3D

 13 12  0  0  0  0  0  0  0  0999 V2000
   -1.3649   -0.5967   -0.3477 C   0  0  0  0  0  0  0  0  0  0  0  0
   -0.1601   -0.2776    0.4669 C   0  0  0  0  0  3  0  0  0  0  0  0
    1.1241   -0.9571    0.1414 C   0  0  0  0  0  0  0  0  0  0  0  0
   -0.1188    1.0130    1.2081 C   0  0  0  0  0  0  0  0  0  0  0  0
   -1.4266   -1.6632   -0.5770 H   0  0  0  0  0  0  0  0  0  0  0  0
   -2.2858   -0.3004    0.1602 H   0  0  0  0  0  0  0  0  0  0  0  0
   -1.3532   -0.0668   -1.3138 H   0  0  0  0  0  0  0  0  0  0  0  0
    1.6174   -0.4963   -0.7297 H   0  0  0  0  0  0  0  0  0  0  0  0
    0.9723   -2.0104   -0.1064 H   0  0  0  0  0  0  0  0  0  0  0  0
    1.8338   -0.8977    0.9701 H   0  0  0  0  0  0  0  0  0  0  0  0
   -1.0852    1.2507    1.6593 H   0  0  0  0  0  0  0  0  0  0  0  0
    0.6358    1.0009    1.9983 H   0  0  0  0  0  0  0  0  0  0  0  0
    0.1343    1.8546    0.5434 H   0  0  0  0  0  0  0  0  0  0  0  0
  1  2  1  0
  1  5  1  0
  1  6  1  0
  1  7  1  0
  2  3  1  0
  2  4  1  0
  3  8  1  0
  3  9  1  0
  3 10  1  0
  4 11  1  0
  4 12  1  0
  4 13  1  0
M  RAD  1   2   2
M  END
>  <reaction>  (2) 
rxn_1349

>  <mol_properties>  (2) 
{"1": {"label": "acceptor", "atom_type": "Cs"}}

>  <type>  (2) 
r2

$$$$

     RDKit          3D

 14 13  0  0  0  0  0  0  0  0999 V2000
   -0.7648   -1.2351   -0.0349 C   0  0  0  0  0  0  0  0  0  0  0  0
    0.0570   -0.0126    0.3624 C   0  0  0  0  0  0  0  0  0  0  0  0
    1.4162   -0.0194   -0.3307 C   0  0  0  0  0  0  0  0  0  0  0  0
   -0.7022    1.2765    0.0629 C   0  0  0  0  0  0  0  0  0  0  0  0
   -0.2387   -2.1618    0.2038 H   0  0  0  0  0  0  0  0  0  0  0  0
   -0.9626   -1.2314   -1.1108 H   0  0  0  0  0  0  0  0  0  0  0  0
   -1.7273   -1.2512    0.4807 H   0  0  0  0  0  0  0  0  0  0  0  0
    0.2295   -0.0590    1.4432 H   0  0  0  0  0  0  0  0  0  0  0  0
    1.2933    0.0259   -1.4168 H   0  0  0  0  0  0  0  0  0  0  0  0
    2.0206    0.8382   -0.0278 H   0  0  0  0  0  0  0  0  0  0  0  0
    1.9767   -0.9268   -0.0965 H   0  0  0  0  0  0  0  0  0  0  0  0
   -1.6638    1.3002    0.5800 H   0  0  0  0  0  0  0  0  0  0  0  0
   -0.8978    1.3663   -1.0096 H   0  0  0  0  0  0  0  0  0  0  0  0
   -0.1313    2.1545    0.3720 H   0  0  0  0  0  0  0  0  0  0  0  0
  1  2  1  0
  1  5  1  0
  1  6  1  0
  1  7  1  0
  2  3  1  0
  2  4  1  0
  2  8  1  0
  3  9  1  0
  3 10  1  0
  3 11  1  0
  4 12  1  0
  4 13  1  0
  4 14  1  0
M  END
>  <reaction>  (3) 
rxn_1349

>  <mol_properties>  (3) 
{"0": {"label": "a_hydrogen", "atom_type": "H0"}, "2": {"label": "acceptor", "atom_type": "Cs"}}

>  <type>  (3) 
r2h

$$$$

     RDKit          3D

 22 20  0  0  0  0  0  0  0  0999 V2000
   -1.1839    0.0072   -2.7034 C   0  0  0  0  0  0  0  0  0  0  0  0
   -0.8789   -0.5071   -1.6630 C   0  0  0  0  0  0  0  0  0  0  0  0
   -0.4532   -1.0685   -0.4110 C   0  0  0  0  0  0  0  0  0  0  0  0
   -1.4525   -1.2111    0.6112 C   0  0  0  0  0  0  0  0  0  0  0  0
   -2.2460   -1.2962    1.5073 C   0  0  0  0  0  0  0  0  0  0  0  0
   -1.4735    0.4441   -3.6284 H   0  0  0  0  0  0  0  0  0  0  0  0
    0.4065   -0.2156    0.0699 H   0  0  0  0  0  0  0  0  0  0  0  0
    0.1581   -1.9626   -0.5335 H   0  0  0  0  0  0  0  0  0  0  0  0
   -2.9652   -1.3864    2.2853 H   0  0  0  0  0  0  0  0  0  0  0  0
    2.3056    0.9004   -0.4785 C   0  0  0  0  0  0  0  0  0  0  0  0
    1.2535    0.7680    0.5880 C   0  0  0  0  0  3  0  0  0  0  0  0
    1.7083    0.1674    1.8896 C   0  0  0  0  0  0  0  0  0  0  0  0
    0.3063    1.9295    0.7086 C   0  0  0  0  0  0  0  0  0  0  0  0
    2.8716   -0.0254   -0.6000 H   0  0  0  0  0  0  0  0  0  0  0  0
    1.8606    1.1613   -1.4407 H   0  0  0  0  0  0  0  0  0  0  0  0
    3.0204    1.6912   -0.2182 H   0  0  0  0  0  0  0  0  0  0  0  0
    2.3514    0.8702    2.4342 H   0  0  0  0  0  0  0  0  0  0  0  0
    2.2839   -0.7465    1.7297 H   0  0  0  0  0  0  0  0  0  0  0  0
    0.8583   -0.0686    2.5329 H   0  0  0  0  0  0  0  0  0  0  0  0
   -0.1078    2.2033   -0.2637 H   0  0  0  0  0  0  0  0  0  0  0  0
   -0.5223    1.6947    1.3795 H   0  0  0  0  0  0  0  0  0  0  0  0
    0.8241    2.8089    1.1114 H   0  0  0  0  0  0  0  0  0  0  0  0
  1  2  3  0
  1  6  1  0
  2  3  1  0
  3  4  1  0
  3  7  1  0
  3  8  1  0
  4  5  3  0
  5  9  1  0
 10 11  1  0
 10 14  1  0
 10 15  1  0
 10 16  1  0
 11 12  1  0
 11 13  1  0
 12 17  1  0
 12 18  1  0
 12 19  1  0
 13 20  1  0
 13 21  1  0
 13 22  1  0
M  RAD  1  11   2
M  END
>  <reaction>  (4) 
rxn_1349

>  <mol_properties>  (4) 
{"1": {"label": "*0", "atom_type": "Ct"}, "2": {"label": "*1", "atom_type": "Cs"}, "6": {"label": "*2", "atom_type": "H0"}, "9": {"label": "*4", "atom_type": "Cs"}, "10": {"label": "*3", "atom_type": "Cs"}}

>  <type>  (4) 
ts

$$$$

     RDKit          3D

 22 20  0  0  0  0  0  0  0  0999 V2000
   -0.5312   -0.9726   -2.9499 C   0  0  0  0  0  0  0  0  0  0  0  0
   -0.5312   -0.9726   -1.7544 C   0  0  0  0  0  0  0  0  0  0  0  0
   -0.5312   -0.9726   -0.2914 C   0  0  0  0  0  0  0  0  0  0  0  0
   -1.8452   -0.6970    0.2898 C   0  0  0  0  0  0  0  0  0  0  0  0
   -2.9190   -0.4718    0.7647 C   0  0  0  0  0  0  0  0  0  0  0  0
   -0.5312   -0.9726   -4.0134 H   0  0  0  0  0  0  0  0  0  0  0  0
    0.3270   -0.0782    0.1397 H   0  0  0  0  0  0  0  0  0  0  0  0
   -0.1758   -1.9425    0.0678 H   0  0  0  0  0  0  0  0  0  0  0  0
   -3.8741   -0.2715    1.1871 H   0  0  0  0  0  0  0  0  0  0  0  0
    0.4214    1.8361    1.4112 C   0  0  0  0  0  0  0  0  0  0  0  0
    1.1866    0.8177    0.5714 C   0  0  0  0  0  3  0  0  0  0  0  0
    2.4754    1.4213    0.0217 C   0  0  0  0  0  0  0  0  0  0  0  0
    1.4751   -0.4465    1.3754 C   0  0  0  0  0  0  0  0  0  0  0  0
    0.1864    2.7317    0.8324 H   0  0  0  0  0  0  0  0  0  0  0  0
   -0.5167    1.4192    1.7834 H   0  0  0  0  0  0  0  0  0  0  0  0
    1.0160    2.1444    2.2762 H   0  0  0  0  0  0  0  0  0  0  0  0
    3.1405    1.7155    0.8389 H   0  0  0  0  0  0  0  0  0  0  0  0
    2.2728    2.3102   -0.5793 H   0  0  0  0  0  0  0  0  0  0  0  0
    3.0132    0.7062   -0.6044 H   0  0  0  0  0  0  0  0  0  0  0  0
    0.5537   -0.8995    1.7471 H   0  0  0  0  0  0  0  0  0  0  0  0
    1.9971   -1.1911    0.7707 H   0  0  0  0  0  0  0  0  0  0  0  0
    2.1059   -0.2164    2.2391 H   0  0  0  0  0  0  0  0  0  0  0  0
  1  2  3  0
  1  6  1  0
  2  3  1  0
  3  4  1  0
  3  7  1  0
  3  8  1  0
  4  5  3  0
  5  9  1  0
 10 11  1  0
 10 14  1  0
 10 15  1  0
 10 16  1  0
 11 12  1  0
 11 13  1  0
 12 17  1  0
 12 18  1  0
 12 19  1  0
 13 20  1  0
 13 21  1  0
 13 22  1  0
M  RAD  1  11   2
M  END
>  <reaction>  (5) 
rxn_1349

>  <mol_properties>  (5) 
{"1": {"label": "*0", "atom_type": "Ct"}, "2": {"label": "*1", "atom_type": "Cs"}, "6": {"label": "*2", "atom_type": "H0"}, "9": {"label": "*4", "atom_type": "Cs"}, "10": {"label": "*3", "atom_type": "Cs"}}

>  <type>  (5) 
unop_1

>  <geom_source>  (5) 
Heuristics

$$$$

     RDKit          3D

 22 20  0  0  0  0  0  0  0  0999 V2000
   -0.4990   -1.0736   -2.8883 C   0  0  0  0  0  0  0  0  0  0  0  0
   -0.4990   -1.0736   -1.6928 C   0  0  0  0  0  0  0  0  0  0  0  0
   -0.4990   -1.0736   -0.2298 C   0  0  0  0  0  0  0  0  0  0  0  0
   -1.8130   -0.7980    0.3514 C   0  0  0  0  0  0  0  0  0  0  0  0
   -2.8868   -0.5727    0.8263 C   0  0  0  0  0  0  0  0  0  0  0  0
   -0.4990   -1.0736   -3.9518 H   0  0  0  0  0  0  0  0  0  0  0  0
    0.3592   -0.1792    0.2013 H   0  0  0  0  0  0  0  0  0  0  0  0
   -0.1436   -2.0434    0.1294 H   0  0  0  0  0  0  0  0  0  0  0  0
   -3.8419   -0.3724    1.2487 H   0  0  0  0  0  0  0  0  0  0  0  0
    1.2880    1.8373   -0.4001 C   0  0  0  0  0  0  0  0  0  0  0  0
    1.2188    0.7168    0.6330 C   0  0  0  0  0  3  0  0  0  0  0  0
    2.6137    0.3353    1.1192 C   0  0  0  0  0  0  0  0  0  0  0  0
    0.3206    1.1074    1.8029 C   0  0  0  0  0  0  0  0  0  0  0  0
    1.9062    1.5524   -1.2540 H   0  0  0  0  0  0  0  0  0  0  0  0
    0.2947    2.0948   -0.7738 H   0  0  0  0  0  0  0  0  0  0  0  0
    1.7228    2.7392    0.0405 H   0  0  0  0  0  0  0  0  0  0  0  0
    3.0943    1.1857    1.6119 H   0  0  0  0  0  0  0  0  0  0  0  0
    3.2528    0.0266    0.2893 H   0  0  0  0  0  0  0  0  0  0  0  0
    2.5730   -0.4862    1.8374 H   0  0  0  0  0  0  0  0  0  0  0  0
   -0.6880    1.3534    1.4641 H   0  0  0  0  0  0  0  0  0  0  0  0
    0.2436    0.2980    2.5319 H   0  0  0  0  0  0  0  0  0  0  0  0
    0.7224    1.9843    2.3190 H   0  0  0  0  0  0  0  0  0  0  0  0
  1  2  3  0
  1  6  1  0
  2  3  1  0
  3  4  1  0
  3  7  1  0
  3  8  1  0
  4  5  3  0
  5  9  1  0
 10 11  1  0
 10 14  1  0
 10 15  1  0
 10 16  1  0
 11 12  1  0
 11 13  1  0
 12 17  1  0
 12 18  1  0
 12 19  1  0
 13 20  1  0
 13 21  1  0
 13 22  1  0
M  RAD  1  11   2
M  END
>  <reaction>  (6) 
rxn_1349

>  <mol_properties>  (6) 
{"1": {"label": "*0", "atom_type": "Ct"}, "2": {"label": "*1", "atom_type": "Cs"}, "6": {"label": "*2", "atom_type": "H0"}, "9": {"label": "*4", "atom_type": "Cs"}, "10": {"label": "*3", "atom_type": "Cs"}}

>  <type>  (6) 
unop_2

>  <geom_source>  (6) 
Heuristics

$$$$

     RDKit          3D

 22 20  0  0  0  0  0  0  0  0999 V2000
   -0.5709   -0.9829   -2.9037 C   0  0  0  0  0  0  0  0  0  0  0  0
   -0.5709   -0.9829   -1.7082 C   0  0  0  0  0  0  0  0  0  0  0  0
   -0.5709   -0.9829   -0.2452 C   0  0  0  0  0  0  0  0  0  0  0  0
   -1.8849   -0.7073    0.3360 C   0  0  0  0  0  0  0  0  0  0  0  0
   -2.9587   -0.4821    0.8109 C   0  0  0  0  0  0  0  0  0  0  0  0
   -0.5709   -0.9829   -3.9672 H   0  0  0  0  0  0  0  0  0  0  0  0
    0.2872   -0.0885    0.1859 H   0  0  0  0  0  0  0  0  0  0  0  0
   -0.2155   -1.9527    0.1140 H   0  0  0  0  0  0  0  0  0  0  0  0
   -3.9139   -0.2817    1.2333 H   0  0  0  0  0  0  0  0  0  0  0  0
    0.6443    1.3321    1.9593 C   0  0  0  0  0  0  0  0  0  0  0  0
    1.1468    0.8074    0.6176 C   0  0  0  0  0  3  0  0  0  0  0  0
    1.8353    1.9126   -0.1776 C   0  0  0  0  0  0  0  0  0  0  0  0
    2.0771   -0.3861    0.8119 C   0  0  0  0  0  0  0  0  0  0  0  0
   -0.0451    2.1683    1.8256 H   0  0  0  0  0  0  0  0  0  0  0  0
    0.1246    0.5529    2.5208 H   0  0  0  0  0  0  0  0  0  0  0  0
    1.4801    1.6833    2.5714 H   0  0  0  0  0  0  0  0  0  0  0  0
    2.7120    2.2840    0.3611 H   0  0  0  0  0  0  0  0  0  0  0  0
    1.1646    2.7579   -0.3452 H   0  0  0  0  0  0  0  0  0  0  0  0
    2.1715    1.5505   -1.1514 H   0  0  0  0  0  0  0  0  0  0  0  0
    1.5802   -1.1925    1.3553 H   0  0  0  0  0  0  0  0  0  0  0  0
    2.4172   -0.7846   -0.1463 H   0  0  0  0  0  0  0  0  0  0  0  0
    2.9621   -0.0937    1.3846 H   0  0  0  0  0  0  0  0  0  0  0  0
  1  2  3  0
  1  6  1  0
  2  3  1  0
  3  4  1  0
  3  7  1  0
  3  8  1  0
  4  5  3  0
  5  9  1  0
 10 11  1  0
 10 14  1  0
 10 15  1  0
 10 16  1  0
 11 12  1  0
 11 13  1  0
 12 17  1  0
 12 18  1  0
 12 19  1  0
 13 20  1  0
 13 21  1  0
 13 22  1  0
M  RAD  1  11   2
M  END
>  <reaction>  (7) 
rxn_1349

>  <mol_properties>  (7) 
{"1": {"label": "*0", "atom_type": "Ct"}, "2": {"label": "*1", "atom_type": "Cs"}, "6": {"label": "*2", "atom_type": "H0"}, "9": {"label": "*4", "atom_type": "Cs"}, "10": {"label": "*3", "atom_type": "Cs"}}

>  <type>  (7) 
unop_3

>  <geom_source>  (7) 
Heuristics

$$$$

     RDKit          3D

 22 20  0  0  0  0  0  0  0  0999 V2000
   -0.5502   -0.9799   -2.9306 C   0  0  0  0  0  0  0  0  0  0  0  0
   -0.5502   -0.9799   -1.7351 C   0  0  0  0  0  0  0  0  0  0  0  0
   -0.5502   -0.9799   -0.2721 C   0  0  0  0  0  0  0  0  0  0  0  0
   -1.8642   -0.7043    0.3090 C   0  0  0  0  0  0  0  0  0  0  0  0
   -2.9380   -0.4791    0.7839 C   0  0  0  0  0  0  0  0  0  0  0  0
   -0.5502   -0.9799   -3.9941 H   0  0  0  0  0  0  0  0  0  0  0  0
    0.3079   -0.0855    0.1589 H   0  0  0  0  0  0  0  0  0  0  0  0
   -0.1948   -1.9498    0.0871 H   0  0  0  0  0  0  0  0  0  0  0  0
   -3.8932   -0.2787    1.2064 H   0  0  0  0  0  0  0  0  0  0  0  0
    2.5468    0.4322    0.0594 C   0  0  0  0  0  0  0  0  0  0  0  0
    1.1675    0.8104    0.5907 C   0  0  0  0  0  3  0  0  0  0  0  0
    0.8716    0.0907    1.9030 C   0  0  0  0  0  0  0  0  0  0  0  0
    1.0420    2.3219    0.7565 C   0  0  0  0  0  0  0  0  0  0  0  0
    2.6331   -0.6463   -0.0891 H   0  0  0  0  0  0  0  0  0  0  0  0
    2.7526    0.9215   -0.8949 H   0  0  0  0  0  0  0  0  0  0  0  0
    3.3262    0.7353    0.7647 H   0  0  0  0  0  0  0  0  0  0  0  0
    1.5935    0.3819    2.6717 H   0  0  0  0  0  0  0  0  0  0  0  0
    0.9313   -0.9932    1.7836 H   0  0  0  0  0  0  0  0  0  0  0  0
   -0.1262    0.3349    2.2735 H   0  0  0  0  0  0  0  0  0  0  0  0
    1.2240    2.8412   -0.1867 H   0  0  0  0  0  0  0  0  0  0  0  0
    0.0468    2.6013    1.1088 H   0  0  0  0  0  0  0  0  0  0  0  0
    1.7696    2.6897    1.4858 H   0  0  0  0  0  0  0  0  0  0  0  0
  1  2  3  0
  1  6  1  0
  2  3  1  0
  3  4  1  0
  3  7  1  0
  3  8  1  0
  4  5  3  0
  5  9  1  0
 10 11  1  0
 10 14  1  0
 10 15  1  0
 10 16  1  0
 11 12  1  0
 11 13  1  0
 12 17  1  0
 12 18  1  0
 12 19  1  0
 13 20  1  0
 13 21  1  0
 13 22  1  0
M  RAD  1  11   2
M  END
>  <reaction>  (8) 
rxn_1349

>  <mol_properties>  (8) 
{"1": {"label": "*0", "atom_type": "Ct"}, "2": {"label": "*1", "atom_type": "Cs"}, "6": {"label": "*2", "atom_type": "H0"}, "9": {"label": "*4", "atom_type": "Cs"}, "10": {"label": "*3", "atom_type": "Cs"}}

>  <type>  (8) 
unop_4

>  <geom_source>  (8) 
Heuristics

$$$$

     RDKit          3D

 22 20  0  0  0  0  0  0  0  0999 V2000
   -0.5454   -1.0514   -2.8673 C   0  0  0  0  0  0  0  0  0  0  0  0
   -0.5454   -1.0514   -1.6718 C   0  0  0  0  0  0  0  0  0  0  0  0
   -0.5454   -1.0514   -0.2088 C   0  0  0  0  0  0  0  0  0  0  0  0
   -1.8594   -0.7758    0.3723 C   0  0  0  0  0  0  0  0  0  0  0  0
   -2.9332   -0.5506    0.8472 C   0  0  0  0  0  0  0  0  0  0  0  0
   -0.5454   -1.0514   -3.9308 H   0  0  0  0  0  0  0  0  0  0  0  0
    0.3127   -0.1570    0.2222 H   0  0  0  0  0  0  0  0  0  0  0  0
   -0.1901   -2.0212    0.1503 H   0  0  0  0  0  0  0  0  0  0  0  0
   -3.8884   -0.3502    1.2697 H   0  0  0  0  0  0  0  0  0  0  0  0
    1.1493    0.7150    2.1793 C   0  0  0  0  0  0  0  0  0  0  0  0
    1.1723    0.7389    0.6540 C   0  0  0  0  0  3  0  0  0  0  0  0
    0.7373    2.1014    0.1226 C   0  0  0  0  0  0  0  0  0  0  0  0
    2.5516    0.3606    0.1227 C   0  0  0  0  0  0  0  0  0  0  0  0
    0.1568    0.9566    2.5653 H   0  0  0  0  0  0  0  0  0  0  0  0
    1.4315   -0.2668    2.5653 H   0  0  0  0  0  0  0  0  0  0  0  0
    1.8527    1.4478    2.5853 H   0  0  0  0  0  0  0  0  0  0  0  0
    1.4264    2.8820    0.4581 H   0  0  0  0  0  0  0  0  0  0  0  0
   -0.2618    2.3648    0.4760 H   0  0  0  0  0  0  0  0  0  0  0  0
    0.7237    2.1158   -0.9692 H   0  0  0  0  0  0  0  0  0  0  0  0
    2.8561   -0.6267    0.4761 H   0  0  0  0  0  0  0  0  0  0  0  0
    2.5667    0.3475   -0.9692 H   0  0  0  0  0  0  0  0  0  0  0  0
    3.3030    1.0815    0.4581 H   0  0  0  0  0  0  0  0  0  0  0  0
  1  2  3  0
  1  6  1  0
  2  3  1  0
  3  4  1  0
  3  7  1  0
  3  8  1  0
  4  5  3  0
  5  9  1  0
 10 11  1  0
 10 14  1  0
 10 15  1  0
 10 16  1  0
 11 12  1  0
 11 13  1  0
 12 17  1  0
 12 18  1  0
 12 19  1  0
 13 20  1  0
 13 21  1  0
 13 22  1  0
M  RAD  1  11   2
M  END
>  <reaction>  (9) 
rxn_1349

>  <mol_properties>  (9) 
{"1": {"label": "*0", "atom_type": "Ct"}, "2": {"label": "*1", "atom_type": "Cs"}, "6": {"label": "*2", "atom_type": "H0"}, "9": {"label": "*4", "atom_type": "Cs"}, "10": {"label": "*3", "atom_type": "Cs"}}

>  <type>  (9) 
unop_5

>  <geom_source>  (9) 
Heuristics

$$$$

     RDKit          3D

 22 20  0  0  0  0  0  0  0  0999 V2000
   -0.5052   -0.9924   -2.9587 C   0  0  0  0  0  0  0  0  0  0  0  0
   -0.5052   -0.9924   -1.7632 C   0  0  0  0  0  0  0  0  0  0  0  0
   -0.5052   -0.9924   -0.3002 C   0  0  0  0  0  0  0  0  0  0  0  0
   -1.8192   -0.7168    0.2809 C   0  0  0  0  0  0  0  0  0  0  0  0
   -2.8930   -0.4916    0.7558 C   0  0  0  0  0  0  0  0  0  0  0  0
   -0.5052   -0.9924   -4.0222 H   0  0  0  0  0  0  0  0  0  0  0  0
    0.3530   -0.0980    0.1308 H   0  0  0  0  0  0  0  0  0  0  0  0
   -0.1498   -1.9622    0.0590 H   0  0  0  0  0  0  0  0  0  0  0  0
   -3.8482   -0.2912    1.1783 H   0  0  0  0  0  0  0  0  0  0  0  0
    2.5671    0.1130    0.7168 C   0  0  0  0  0  0  0  0  0  0  0  0
    1.2125    0.7979    0.5626 C   0  0  0  0  0  3  0  0  0  0  0  0
    0.3046    0.4858    1.7484 C   0  0  0  0  0  0  0  0  0  0  0  0
    1.3794    2.3040    0.3842 C   0  0  0  0  0  0  0  0  0  0  0  0
    2.4561   -0.9688    0.8158 H   0  0  0  0  0  0  0  0  0  0  0  0
    3.2112    0.3087   -0.1430 H   0  0  0  0  0  0  0  0  0  0  0  0
    3.0825    0.4786    1.6098 H   0  0  0  0  0  0  0  0  0  0  0  0
    0.7423    0.8640    2.6769 H   0  0  0  0  0  0  0  0  0  0  0  0
    0.1577   -0.5902    1.8635 H   0  0  0  0  0  0  0  0  0  0  0  0
   -0.6769    0.9495    1.6297 H   0  0  0  0  0  0  0  0  0  0  0  0
    2.0047    2.5344   -0.4809 H   0  0  0  0  0  0  0  0  0  0  0  0
    0.4149    2.7965    0.2440 H   0  0  0  0  0  0  0  0  0  0  0  0
    1.8540    2.7446    1.2658 H   0  0  0  0  0  0  0  0  0  0  0  0
  1  2  3  0
  1  6  1  0
  2  3  1  0
  3  4  1  0
  3  7  1  0
  3  8  1  0
  4  5  3  0
  5  9  1  0
 10 11  1  0
 10 14  1  0
 10 15  1  0
 10 16  1  0
 11 12  1  0
 11 13  1  0
 12 17  1  0
 12 18  1  0
 12 19  1  0
 13 20  1  0
 13 21  1  0
 13 22  1  0
M  RAD  1  11   2
M  END
>  <reaction>  (10) 
rxn_1349

>  <mol_properties>  (10) 
{"1": {"label": "*0", "atom_type": "Ct"}, "2": {"label": "*1", "atom_type": "Cs"}, "6": {"label": "*2", "atom_type": "H0"}, "9": {"label": "*4", "atom_type": "Cs"}, "10": {"label": "*3", "atom_type": "Cs"}}

>  <type>  (10) 
unop_6

>  <geom_source>  (10) 
Heuristics

$$$$

     RDKit          3D

 22 20  0  0  0  0  0  0  0  0999 V2000
   -0.4673   -1.0339   -2.9499 C   0  0  0  0  0  0  0  0  0  0  0  0
   -0.4673   -1.0339   -1.7544 C   0  0  0  0  0  0  0  0  0  0  0  0
   -0.4673   -1.0339   -0.2914 C   0  0  0  0  0  0  0  0  0  0  0  0
   -1.7813   -0.7583    0.2898 C   0  0  0  0  0  0  0  0  0  0  0  0
   -2.8551   -0.5331    0.7647 C   0  0  0  0  0  0  0  0  0  0  0  0
   -0.4673   -1.0339   -4.0134 H   0  0  0  0  0  0  0  0  0  0  0  0
    0.3908   -0.1395    0.1397 H   0  0  0  0  0  0  0  0  0  0  0  0
   -0.1120   -2.0038    0.0678 H   0  0  0  0  0  0  0  0  0  0  0  0
   -3.8103   -0.3327    1.1871 H   0  0  0  0  0  0  0  0  0  0  0  0
    2.2996    0.0341    1.4112 C   0  0  0  0  0  0  0  0  0  0  0  0
    1.2504    0.7564    0.5714 C   0  0  0  0  0  3  0  0  0  0  0  0
   -0.0246    0.9925    1.3754 C   0  0  0  0  0  0  0  0  0  0  0  0
    1.8002    2.0691    0.0217 C   0  0  0  0  0  0  0  0  0  0  0  0
    1.9218   -0.9204    1.7837 H   0  0  0  0  0  0  0  0  0  0  0  0
    3.2041   -0.1640    0.8322 H   0  0  0  0  0  0  0  0  0  0  0  0
    2.5833    0.6410    2.2760 H   0  0  0  0  0  0  0  0  0  0  0  0
    0.1791    1.6322    2.2391 H   0  0  0  0  0  0  0  0  0  0  0  0
   -0.4393    0.0531    1.7471 H   0  0  0  0  0  0  0  0  0  0  0  0
   -0.7901    1.4833    0.7706 H   0  0  0  0  0  0  0  0  0  0  0  0
    2.6968    1.9034   -0.5793 H   0  0  0  0  0  0  0  0  0  0  0  0
    1.0636    2.5769   -0.6045 H   0  0  0  0  0  0  0  0  0  0  0  0
    2.0667    2.7458    0.8389 H   0  0  0  0  0  0  0  0  0  0  0  0
  1  2  3  0
  1  6  1  0
  2  3  1  0
  3  4  1  0
  3  7  1  0
  3  8  1  0
  4  5  3  0
  5  9  1  0
 10 11  1  0
 10 14  1  0
 10 15  1  0
 10 16  1  0
 11 12  1  0
 11 13  1  0
 12 17  1  0
 12 18  1  0
 12 19  1  0
 13 20  1  0
 13 21  1  0
 13 22  1  0
M  RAD  1  11   2
M  END
>  <reaction>  (11) 
rxn_1349

>  <mol_properties>  (11) 
{"1": {"label": "*0", "atom_type": "Ct"}, "2": {"label": "*1", "atom_type": "Cs"}, "6": {"label": "*2", "atom_type": "H0"}, "9": {"label": "*4", "atom_type": "Cs"}, "10": {"label": "*3", "atom_type": "Cs"}}

>  <type>  (11) 
unop_7

>  <geom_source>  (11) 
Heuristics

$$$$

     RDKit          3D

 22 20  0  0  0  0  0  0  0  0999 V2000
   -0.4881   -1.0087   -2.9587 C   0  0  0  0  0  0  0  0  0  0  0  0
   -0.4881   -1.0087   -1.7632 C   0  0  0  0  0  0  0  0  0  0  0  0
   -0.4881   -1.0087   -0.3002 C   0  0  0  0  0  0  0  0  0  0  0  0
   -1.8021   -0.7331    0.2809 C   0  0  0  0  0  0  0  0  0  0  0  0
   -2.8759   -0.5079    0.7558 C   0  0  0  0  0  0  0  0  0  0  0  0
   -0.4881   -1.0087   -4.0222 H   0  0  0  0  0  0  0  0  0  0  0  0
    0.3700   -0.1144    0.1308 H   0  0  0  0  0  0  0  0  0  0  0  0
   -0.1328   -1.9786    0.0590 H   0  0  0  0  0  0  0  0  0  0  0  0
   -3.8311   -0.3076    1.1783 H   0  0  0  0  0  0  0  0  0  0  0  0
    0.4892    2.1067    0.7168 C   0  0  0  0  0  0  0  0  0  0  0  0
    1.2296    0.7816    0.5626 C   0  0  0  0  0  3  0  0  0  0  0  0
    2.7275    1.0105    0.3842 C   0  0  0  0  0  0  0  0  0  0  0  0
    0.9552   -0.1384    1.7484 C   0  0  0  0  0  0  0  0  0  0  0  0
    0.6583    2.7584   -0.1429 H   0  0  0  0  0  0  0  0  0  0  0  0
   -0.5871    1.9509    0.8155 H   0  0  0  0  0  0  0  0  0  0  0  0
    0.8329    2.6366    1.6100 H   0  0  0  0  0  0  0  0  0  0  0  0
    3.1481    1.5030    1.2658 H   0  0  0  0  0  0  0  0  0  0  0  0
    2.9319    1.6448   -0.4809 H   0  0  0  0  0  0  0  0  0  0  0  0
    3.2594    0.0672    0.2441 H   0  0  0  0  0  0  0  0  0  0  0  0
   -0.1137   -0.3297    1.8635 H   0  0  0  0  0  0  0  0  0  0  0  0
    1.4591   -1.1000    1.6298 H   0  0  0  0  0  0  0  0  0  0  0  0
    1.3150    0.3145    2.6769 H   0  0  0  0  0  0  0  0  0  0  0  0
  1  2  3  0
  1  6  1  0
  2  3  1  0
  3  4  1  0
  3  7  1  0
  3  8  1  0
  4  5  3  0
  5  9  1  0
 10 11  1  0
 10 14  1  0
 10 15  1  0
 10 16  1  0
 11 12  1  0
 11 13  1  0
 12 17  1  0
 12 18  1  0
 12 19  1  0
 13 20  1  0
 13 21  1  0
 13 22  1  0
M  RAD  1  11   2
M  END
>  <reaction>  (12) 
rxn_1349

>  <mol_properties>  (12) 
{"1": {"label": "*0", "atom_type": "Ct"}, "2": {"label": "*1", "atom_type": "Cs"}, "6": {"label": "*2", "atom_type": "H0"}, "9": {"label": "*4", "atom_type": "Cs"}, "10": {"label": "*3", "atom_type": "Cs"}}

>  <type>  (12) 
unop_8

>  <geom_source>  (12) 
Heuristics

$$$$

     RDKit          3D

 22 20  0  0  0  0  0  0  0  0999 V2000
   -0.5695   -1.0059   -2.8883 C   0  0  0  0  0  0  0  0  0  0  0  0
   -0.5695   -1.0059   -1.6928 C   0  0  0  0  0  0  0  0  0  0  0  0
   -0.5695   -1.0059   -0.2298 C   0  0  0  0  0  0  0  0  0  0  0  0
   -1.8835   -0.7303    0.3514 C   0  0  0  0  0  0  0  0  0  0  0  0
   -2.9573   -0.5051    0.8263 C   0  0  0  0  0  0  0  0  0  0  0  0
   -0.5695   -1.0059   -3.9518 H   0  0  0  0  0  0  0  0  0  0  0  0
    0.2886   -0.1115    0.2013 H   0  0  0  0  0  0  0  0  0  0  0  0
   -0.2141   -1.9758    0.1294 H   0  0  0  0  0  0  0  0  0  0  0  0
   -3.9125   -0.3048    1.2487 H   0  0  0  0  0  0  0  0  0  0  0  0
    2.2649    0.8999   -0.4001 C   0  0  0  0  0  0  0  0  0  0  0  0
    1.1482    0.7844    0.6330 C   0  0  0  0  0  3  0  0  0  0  0  0
    1.5757   -0.0968    1.8029 C   0  0  0  0  0  0  0  0  0  0  0  0
    0.7095    2.1624    1.1192 C   0  0  0  0  0  0  0  0  0  0  0  0
    2.5635   -0.0819   -0.7735 H   0  0  0  0  0  0  0  0  0  0  0  0
    1.9546    1.5056   -1.2542 H   0  0  0  0  0  0  0  0  0  0  0  0
    3.1480    1.3720    0.0404 H   0  0  0  0  0  0  0  0  0  0  0  0
    2.4352    0.3409    2.3191 H   0  0  0  0  0  0  0  0  0  0  0  0
    1.8632   -1.0944    1.4643 H   0  0  0  0  0  0  0  0  0  0  0  0
    0.7702   -0.2071    2.5319 H   0  0  0  0  0  0  0  0  0  0  0  0
    0.3746    2.7881    0.2892 H   0  0  0  0  0  0  0  0  0  0  0  0
   -0.1098    2.0878    1.8373 H   0  0  0  0  0  0  0  0  0  0  0  0
    1.5392    2.6777    1.6119 H   0  0  0  0  0  0  0  0  0  0  0  0
  1  2  3  0
  1  6  1  0
  2  3  1  0
  3  4  1  0
  3  7  1  0
  3  8  1  0
  4  5  3  0
  5  9  1  0
 10 11  1  0
 10 14  1  0
 10 15  1  0
 10 16  1  0
 11 12  1  0
 11 13  1  0
 12 17  1  0
 12 18  1  0
 12 19  1  0
 13 20  1  0
 13 21  1  0
 13 22  1  0
M  RAD  1  11   2
M  END
>  <reaction>  (13) 
rxn_1349

>  <mol_properties>  (13) 
{"1": {"label": "*0", "atom_type": "Ct"}, "2": {"label": "*1", "atom_type": "Cs"}, "6": {"label": "*2", "atom_type": "H0"}, "9": {"label": "*4", "atom_type": "Cs"}, "10": {"label": "*3", "atom_type": "Cs"}}

>  <type>  (13) 
unop_9

>  <geom_source>  (13) 
Heuristics

$$$$

     RDKit          3D

 22 20  0  0  0  0  0  0  0  0999 V2000
   -0.4738   -1.0532   -2.9306 C   0  0  0  0  0  0  0  0  0  0  0  0
   -0.4738   -1.0532   -1.7351 C   0  0  0  0  0  0  0  0  0  0  0  0
   -0.4738   -1.0532   -0.2721 C   0  0  0  0  0  0  0  0  0  0  0  0
   -1.7878   -0.7776    0.3090 C   0  0  0  0  0  0  0  0  0  0  0  0
   -2.8616   -0.5524    0.7839 C   0  0  0  0  0  0  0  0  0  0  0  0
   -0.4738   -1.0532   -3.9941 H   0  0  0  0  0  0  0  0  0  0  0  0
    0.3843   -0.1588    0.1589 H   0  0  0  0  0  0  0  0  0  0  0  0
   -0.1184   -2.0231    0.0871 H   0  0  0  0  0  0  0  0  0  0  0  0
   -3.8168   -0.3520    1.2064 H   0  0  0  0  0  0  0  0  0  0  0  0
    0.8089    2.0996    0.0594 C   0  0  0  0  0  0  0  0  0  0  0  0
    1.2439    0.7371    0.5907 C   0  0  0  0  0  3  0  0  0  0  0  0
    2.7593    0.6741    0.7565 C   0  0  0  0  0  0  0  0  0  0  0  0
    0.5370    0.4117    1.9030 C   0  0  0  0  0  0  0  0  0  0  0  0
    1.2896    2.3256   -0.8948 H   0  0  0  0  0  0  0  0  0  0  0  0
   -0.2721    2.1410   -0.0894 H   0  0  0  0  0  0  0  0  0  0  0  0
    1.0793    2.8908    0.7648 H   0  0  0  0  0  0  0  0  0  0  0  0
    3.0967    1.4164    1.4858 H   0  0  0  0  0  0  0  0  0  0  0  0
    3.2708    0.8775   -0.1867 H   0  0  0  0  0  0  0  0  0  0  0  0
    3.0796   -0.3086    1.1090 H   0  0  0  0  0  0  0  0  0  0  0  0
   -0.5484    0.4265    1.7835 H   0  0  0  0  0  0  0  0  0  0  0  0
    0.8222   -0.5751    2.2735 H   0  0  0  0  0  0  0  0  0  0  0  0
    0.7981    1.1450    2.6716 H   0  0  0  0  0  0  0  0  0  0  0  0
  1  2  3  0
  1  6  1  0
  2  3  1  0
  3  4  1  0
  3  7  1  0
  3  8  1  0
  4  5  3  0
  5  9  1  0
 10 11  1  0
 10 14  1  0
 10 15  1  0
 10 16  1  0
 11 12  1  0
 11 13  1  0
 12 17  1  0
 12 18  1  0
 12 19  1  0
 13 20  1  0
 13 21  1  0
 13 22  1  0
M  RAD  1  11   2
M  END
>  <reaction>  (14) 
rxn_1349

>  <mol_properties>  (14) 
{"1": {"label": "*0", "atom_type": "Ct"}, "2": {"label": "*1", "atom_type": "Cs"}, "6": {"label": "*2", "atom_type": "H0"}, "9": {"label": "*4", "atom_type": "Cs"}, "10": {"label": "*3", "atom_type": "Cs"}}

>  <type>  (14) 
unop_10

>  <geom_source>  (14) 
Heuristics

$$$$

     RDKit          3D

 22 20  0  0  0  0  0  0  0  0999 V2000
   -0.4759   -1.0740   -2.9037 C   0  0  0  0  0  0  0  0  0  0  0  0
   -0.4759   -1.0740   -1.7082 C   0  0  0  0  0  0  0  0  0  0  0  0
   -0.4759   -1.0740   -0.2452 C   0  0  0  0  0  0  0  0  0  0  0  0
   -1.7899   -0.7984    0.3360 C   0  0  0  0  0  0  0  0  0  0  0  0
   -2.8637   -0.5732    0.8109 C   0  0  0  0  0  0  0  0  0  0  0  0
   -0.4759   -1.0740   -3.9672 H   0  0  0  0  0  0  0  0  0  0  0  0
    0.3822   -0.1796    0.1859 H   0  0  0  0  0  0  0  0  0  0  0  0
   -0.1206   -2.0439    0.1140 H   0  0  0  0  0  0  0  0  0  0  0  0
   -3.8189   -0.3729    1.2333 H   0  0  0  0  0  0  0  0  0  0  0  0
    1.7868    0.2359    1.9593 C   0  0  0  0  0  0  0  0  0  0  0  0
    1.2418    0.7163    0.6176 C   0  0  0  0  0  3  0  0  0  0  0  0
    0.0108    1.5964    0.8118 C   0  0  0  0  0  0  0  0  0  0  0  0
    2.3176    1.4498   -0.1776 C   0  0  0  0  0  0  0  0  0  0  0  0
    1.0297   -0.3153    2.5210 H   0  0  0  0  0  0  0  0  0  0  0  0
    2.6506   -0.4186    1.8256 H   0  0  0  0  0  0  0  0  0  0  0  0
    2.1034    1.0855    2.5713 H   0  0  0  0  0  0  0  0  0  0  0  0
    0.2663    2.4928    1.3845 H   0  0  0  0  0  0  0  0  0  0  0  0
   -0.7744    1.0666    1.3552 H   0  0  0  0  0  0  0  0  0  0  0  0
   -0.4013    1.9197   -0.1464 H   0  0  0  0  0  0  0  0  0  0  0  0
    3.1899    0.8147   -0.3451 H   0  0  0  0  0  0  0  0  0  0  0  0
    1.9420    1.7708   -1.1515 H   0  0  0  0  0  0  0  0  0  0  0  0
    2.6524    2.3412    0.3611 H   0  0  0  0  0  0  0  0  0  0  0  0
  1  2  3  0
  1  6  1  0
  2  3  1  0
  3  4  1  0
  3  7  1  0
  3  8  1  0
  4  5  3  0
  5  9  1  0
 10 11  1  0
 10 14  1  0
 10 15  1  0
 10 16  1  0
 11 12  1  0
 11 13  1  0
 12 17  1  0
 12 18  1  0
 12 19  1  0
 13 20  1  0
 13 21  1  0
 13 22  1  0
M  RAD  1  11   2
M  END
>  <reaction>  (15) 
rxn_1349

>  <mol_properties>  (15) 
{"1": {"label": "*0", "atom_type": "Ct"}, "2": {"label": "*1", "atom_type": "Cs"}, "6": {"label": "*2", "atom_type": "H0"}, "9": {"label": "*4", "atom_type": "Cs"}, "10": {"label": "*3", "atom_type": "Cs"}}

>  <type>  (15) 
unop_11

>  <geom_source>  (15) 
Heuristics

$$$$

     RDKit          3D

 22 20  0  0  0  0  0  0  0  0999 V2000
   -0.5454   -1.0514   -2.8673 C   0  0  0  0  0  0  0  0  0  0  0  0
   -0.5454   -1.0514   -1.6718 C   0  0  0  0  0  0  0  0  0  0  0  0
   -0.5454   -1.0514   -0.2088 C   0  0  0  0  0  0  0  0  0  0  0  0
   -1.8594   -0.7758    0.3723 C   0  0  0  0  0  0  0  0  0  0  0  0
   -2.9332   -0.5506    0.8472 C   0  0  0  0  0  0  0  0  0  0  0  0
   -0.5454   -1.0514   -3.9308 H   0  0  0  0  0  0  0  0  0  0  0  0
    0.3127   -0.1570    0.2222 H   0  0  0  0  0  0  0  0  0  0  0  0
   -0.1900   -2.0212    0.1503 H   0  0  0  0  0  0  0  0  0  0  0  0
   -3.8884   -0.3502    1.2697 H   0  0  0  0  0  0  0  0  0  0  0  0
    1.8095    1.4030   -0.5629 C   0  0  0  0  0  0  0  0  0  0  0  0
    1.1723    0.7389    0.6540 C   0  0  0  0  0  3  0  0  0  0  0  0
    2.2215    0.0166    1.4938 C   0  0  0  0  0  0  0  0  0  0  0  0
    0.4072    1.7573    1.4937 C   0  0  0  0  0  0  0  0  0  0  0  0
    2.3344    0.6740   -1.1838 H   0  0  0  0  0  0  0  0  0  0  0  0
    1.0593    1.8971   -1.1839 H   0  0  0  0  0  0  0  0  0  0  0  0
    2.5353    2.1598   -0.2510 H   0  0  0  0  0  0  0  0  0  0  0  0
    2.9616    0.7256    1.8762 H   0  0  0  0  0  0  0  0  0  0  0  0
    2.7527   -0.7345    0.9054 H   0  0  0  0  0  0  0  0  0  0  0  0
    1.7673   -0.4854    2.3507 H   0  0  0  0  0  0  0  0  0  0  0  0
   -0.3652    2.2571    0.9053 H   0  0  0  0  0  0  0  0  0  0  0  0
   -0.0757    1.2829    2.3506 H   0  0  0  0  0  0  0  0  0  0  0  0
    1.0850    2.5261    1.8762 H   0  0  0  0  0  0  0  0  0  0  0  0
  1  2  3  0
  1  6  1  0
  2  3  1  0
  3  4  1  0
  3  7  1  0
  3  8  1  0
  4  5  3  0
  5  9  1  0
 10 11  1  0
 10 14  1  0
 10 15  1  0
 10 16  1  0
 11 12  1  0
 11 13  1  0
 12 17  1  0
 12 18  1  0
 12 19  1  0
 13 20  1  0
 13 21  1  0
 13 22  1  0
M  RAD  1  11   2
M  END
>  <reaction>  (16) 
rxn_1349

>  <mol_properties>  (16) 
{"1": {"label": "*0", "atom_type": "Ct"}, "2": {"label": "*1", "atom_type": "Cs"}, "6": {"label": "*2", "atom_type": "H0"}, "9": {"label": "*4", "atom_type": "Cs"}, "10": {"label": "*3", "atom_type": "Cs"}}

>  <type>  (16) 
unop_12

>  <geom_source>  (16) 
Heuristics

$$$$

     RDKit          3D

 22 20  0  0  0  0  0  0  0  0999 V2000
   -0.9703   -0.2001    0.0180 C   0  0  0  0  0  0  0  0  0  0  0  0
   -0.9171   -1.5439   -0.7149 C   0  0  0  0  0  0  0  0  0  0  0  0
   -1.4763   -0.3855    1.4517 C   0  0  0  0  0  0  0  0  0  0  0  0
   -1.8510    0.7961   -0.7419 C   0  0  0  0  0  0  0  0  0  0  0  0
    1.4449    0.5429   -0.5725 C   0  0  0  0  0  3  0  0  0  0  0  0
    2.3118   -0.5920   -0.2493 C   0  0  0  0  0  0  0  0  0  0  0  0
    1.8929    1.7311    0.1563 C   0  0  0  0  0  0  0  0  0  0  0  0
    3.0245   -1.5278    0.0157 C   0  0  0  0  0  0  0  0  0  0  0  0
    2.2602    2.7107    0.7557 C   0  0  0  0  0  0  0  0  0  0  0  0
    0.2478    0.2867    0.0722 H   0  0  0  0  0  0  0  0  0  0  0  0
   -0.5140   -1.4025   -1.7401 H   0  0  0  0  0  0  0  0  0  0  0  0
   -1.9306   -1.9946   -0.7846 H   0  0  0  0  0  0  0  0  0  0  0  0
   -0.2467   -2.2456   -0.1748 H   0  0  0  0  0  0  0  0  0  0  0  0
   -1.4754    0.5890    1.9845 H   0  0  0  0  0  0  0  0  0  0  0  0
   -0.8090   -1.0808    2.0038 H   0  0  0  0  0  0  0  0  0  0  0  0
   -2.5085   -0.7974    1.4546 H   0  0  0  0  0  0  0  0  0  0  0  0
   -1.8522    1.7772   -0.2214 H   0  0  0  0  0  0  0  0  0  0  0  0
   -1.4532    0.9506   -1.7674 H   0  0  0  0  0  0  0  0  0  0  0  0
   -2.8958    0.4238   -0.8125 H   0  0  0  0  0  0  0  0  0  0  0  0
    1.4851    0.7406   -1.6635 H   0  0  0  0  0  0  0  0  0  0  0  0
    3.6501   -2.3490    0.2485 H   0  0  0  0  0  0  0  0  0  0  0  0
    2.5828    3.5704    1.2819 H   0  0  0  0  0  0  0  0  0  0  0  0
  1  2  1  0
  1  3  1  0
  1  4  1  0
  1 10  1  0
  2 11  1  0
  2 12  1  0
  2 13  1  0
  3 14  1  0
  3 15  1  0
  3 16  1  0
  4 17  1  0
  4 18  1  0
  4 19  1  0
  5  6  1  0
  5  7  1  0
  5 20  1  0
  6  8  3  0
  7  9  3  0
  8 21  1  0
  9 22  1  0
M  RAD  1   5   2
M  END
>  <reaction>  (17) 
rxn_1349

>  <mol_properties>  (17) 
{"1": {"label": "*0", "atom_type": "Ct"}, "2": {"label": "*1", "atom_type": "Cs"}, "6": {"label": "*2", "atom_type": "H0"}, "9": {"label": "*4", "atom_type": "Cs"}, "10": {"label": "*3", "atom_type": "Cs"}}

>  <type>  (17) 
unop_13

>  <geom_source>  (17) 
AutoTST

$$$$
