
     RDKit          3D

  9  8  0  0  0  0  0  0  0  0999 V2000
   -0.9895    0.3048    0.1041 C   0  0  0  0  0  0  0  0  0  0  0  0
    0.3761   -0.3562    0.0721 C   0  0  0  0  0  0  0  0  0  0  0  0
    0.3441   -1.6564   -0.4834 O   0  0  0  0  0  0  0  0  0  0  0  0
   -1.6997   -0.3114    0.6572 H   0  0  0  0  0  0  0  0  0  0  0  0
   -0.9320    1.2848    0.5822 H   0  0  0  0  0  0  0  0  0  0  0  0
   -1.3774    0.4507   -0.9077 H   0  0  0  0  0  0  0  0  0  0  0  0
    0.7581   -0.4813    1.0862 H   0  0  0  0  0  0  0  0  0  0  0  0
    1.0900    0.2787   -0.4681 H   0  0  0  0  0  0  0  0  0  0  0  0
    0.0089   -1.5959   -1.3792 H   0  0  0  0  0  0  0  0  0  0  0  0
  1  2  1  0
  1  4  1  0
  1  5  1  0
  1  6  1  0
  2  3  1  0
  2  7  1  0
  2  8  1  0
  3  9  1  0
M  END
>  <reaction>  (1) 
rxn_143

>  <mol_properties>  (1) 
{"0": {"label": "donator", "atom_type": "Cs"}, "3": {"label": "d_hydrogen", "atom_type": "H0"}}

>  <type>  (1) 
r1h

$$$$

     RDKit          3D

  1  0  0  0  0  0  0  0  0  0999 V2000
    0.0000    0.0000    0.0000 Cl  0  0  0  0  0 15  0  0  0  0  0  0
M  END
>  <reaction>  (2) 
rxn_143

>  <mol_properties>  (2) 
{"0": {"label": "acceptor", "atom_type": "Cl1s"}}

>  <type>  (2) 
r2

$$$$

     RDKit          3D

  2  1  0  0  0  0  0  0  0  0999 V2000
    0.0000    0.0000    0.6391 Cl  0  0  0  0  0  0  0  0  0  0  0  0
    0.0000    0.0000   -0.6391 H   0  0  0  0  0  0  0  0  0  0  0  0
  1  2  1  0
M  END
>  <reaction>  (3) 
rxn_143

>  <mol_properties>  (3) 
{"0": {"label": "acceptor", "atom_type": "Cl1s"}, "1": {"label": "a_hydrogen", "atom_type": "H0"}}

>  <type>  (3) 
r2h

$$$$

     RDKit          3D

 10  8  0  0  0  0  0  0  0  0999 V2000
   -1.3286    1.2816    0.1782 Cl  0  0  0  0  0 15  0  0  0  0  0  0
    1.0486   -0.1360    0.9137 C   0  0  0  0  0  0  0  0  0  0  0  0
    0.9289   -1.4913    0.2969 C   0  0  0  0  0  0  0  0  0  0  0  0
    1.0586   -1.5105   -1.0991 O   0  0  0  0  0  0  0  0  0  0  0  0
   -0.1138    0.5713    0.5141 H   0  0  0  0  0  0  0  0  0  0  0  0
    0.9392   -0.0904    1.9940 H   0  0  0  0  0  0  0  0  0  0  0  0
    1.8102    0.5292    0.5122 H   0  0  0  0  0  0  0  0  0  0  0  0
   -0.0476   -1.9236    0.5232 H   0  0  0  0  0  0  0  0  0  0  0  0
    1.6773   -2.1444    0.7792 H   0  0  0  0  0  0  0  0  0  0  0  0
    1.9200   -1.1688   -1.3441 H   0  0  0  0  0  0  0  0  0  0  0  0
  2  3  1  0
  2  5  1  0
  2  6  1  0
  2  7  1  0
  3  4  1  0
  3  8  1  0
  3  9  1  0
  4 10  1  0
M  END
>  <reaction>  (4) 
rxn_143

>  <mol_properties>  (4) 
{"0": {"label": "*3", "atom_type": "Cl1s"}, "1": {"label": "*1", "atom_type": "Cs"}, "2": {"label": "*0", "atom_type": "Cs"}, "4": {"label": "*2", "atom_type": "H0"}}

>  <type>  (4) 
ts

$$$$

     RDKit          3D

 10  8  0  0  0  0  0  0  0  0999 V2000
   -1.2750    1.3714   -0.0279 Cl  0  0  0  0  0 15  0  0  0  0  0  0
    0.9560   -0.1113    0.9240 C   0  0  0  0  0  0  0  0  0  0  0  0
    0.9560   -1.5096    0.3346 C   0  0  0  0  0  0  0  0  0  0  0  0
    0.9560   -1.5096   -1.0796 O   0  0  0  0  0  0  0  0  0  0  0  0
   -0.0712    0.5714    0.4857 H   0  0  0  0  0  0  0  0  0  0  0  0
    0.9076   -0.1527    2.0141 H   0  0  0  0  0  0  0  0  0  0  0  0
    1.8675    0.4279    0.6520 H   0  0  0  0  0  0  0  0  0  0  0  0
    0.0496   -2.0417    0.6266 H   0  0  0  0  0  0  0  0  0  0  0  0
    1.8082   -2.0825    0.7223 H   0  0  0  0  0  0  0  0  0  0  0  0
    1.7380   -1.0462   -1.3834 H   0  0  0  0  0  0  0  0  0  0  0  0
  2  3  1  0
  2  5  1  0
  2  6  1  0
  2  7  1  0
  3  4  1  0
  3  8  1  0
  3  9  1  0
  4 10  1  0
M  END
>  <reaction>  (5) 
rxn_143

>  <mol_properties>  (5) 
{"0": {"label": "*3", "atom_type": "Cl1s"}, "1": {"label": "*1", "atom_type": "Cs"}, "2": {"label": "*0", "atom_type": "Cs"}, "4": {"label": "*2", "atom_type": "H0"}}

>  <type>  (5) 
unop_1

>  <geom_source>  (5) 
Heuristics

$$$$
