
     RDKit          3D

 10  9  0  0  0  0  0  0  0  0999 V2000
    1.8334    0.0847   -0.1062 C   0  0  0  0  0  0  0  0  0  0  0  0
    0.5993   -0.4071   -0.0750 C   0  0  0  0  0  0  0  0  0  0  0  0
   -0.5993    0.4071    0.0750 C   0  0  0  0  0  0  0  0  0  0  0  0
   -1.8334   -0.0847    0.1062 C   0  0  0  0  0  0  0  0  0  0  0  0
    2.0179    1.1498   -0.0189 H   0  0  0  0  0  0  0  0  0  0  0  0
    2.6972   -0.5572   -0.2194 H   0  0  0  0  0  0  0  0  0  0  0  0
    0.4465   -1.4793   -0.1649 H   0  0  0  0  0  0  0  0  0  0  0  0
   -0.4465    1.4793    0.1649 H   0  0  0  0  0  0  0  0  0  0  0  0
   -2.0179   -1.1498    0.0189 H   0  0  0  0  0  0  0  0  0  0  0  0
   -2.6972    0.5572    0.2194 H   0  0  0  0  0  0  0  0  0  0  0  0
  1  2  2  3
  1  5  1  0
  1  6  1  0
  2  3  1  0
  2  7  1  0
  3  4  2  3
  3  8  1  0
  4  9  1  0
  4 10  1  0
M  END
>  <reaction>  (1) 
rxn_1649

>  <mol_properties>  (1) 
{"2": {"label": "donator", "atom_type": "Cd"}, "7": {"label": "d_hydrogen", "atom_type": "H0"}}

>  <type>  (1) 
r1h

$$$$

     RDKit          3D

 10  9  0  0  0  0  0  0  0  0999 V2000
    1.2930    0.1441    0.3288 C   0  0  0  0  0  0  0  0  0  0  0  0
   -0.0374   -0.1647    0.9100 C   0  0  0  0  0  3  0  0  0  0  0  0
   -1.2664    0.4569    0.3567 C   0  0  0  0  0  0  0  0  0  0  0  0
    1.4384    1.2242    0.2174 H   0  0  0  0  0  0  0  0  0  0  0  0
    2.1077   -0.2477    0.9385 H   0  0  0  0  0  0  0  0  0  0  0  0
    1.4057   -0.2836   -0.6789 H   0  0  0  0  0  0  0  0  0  0  0  0
   -0.1309   -0.9912    1.6030 H   0  0  0  0  0  0  0  0  0  0  0  0
   -1.5005    0.0716   -0.6471 H   0  0  0  0  0  0  0  0  0  0  0  0
   -2.1382    0.2713    0.9849 H   0  0  0  0  0  0  0  0  0  0  0  0
   -1.1497    1.5406    0.2456 H   0  0  0  0  0  0  0  0  0  0  0  0
  1  2  1  0
  1  4  1  0
  1  5  1  0
  1  6  1  0
  2  3  1  0
  2  7  1  0
  3  8  1  0
  3  9  1  0
  3 10  1  0
M  RAD  1   2   2
M  END
>  <reaction>  (2) 
rxn_1649

>  <mol_properties>  (2) 
{"1": {"label": "acceptor", "atom_type": "Cs"}}

>  <type>  (2) 
r2

$$$$

     RDKit          3D

 11 10  0  0  0  0  0  0  0  0999 V2000
   -1.2710    0.1907   -0.2084 C   0  0  0  0  0  0  0  0  0  0  0  0
    0.0202   -0.6130   -0.2928 C   0  0  0  0  0  0  0  0  0  0  0  0
    0.1086   -1.6953    0.7756 C   0  0  0  0  0  0  0  0  0  0  0  0
   -1.3607    0.6851    0.7620 H   0  0  0  0  0  0  0  0  0  0  0  0
   -2.1429   -0.4567   -0.3299 H   0  0  0  0  0  0  0  0  0  0  0  0
   -1.3158    0.9602   -0.9809 H   0  0  0  0  0  0  0  0  0  0  0  0
    0.8757    0.0616   -0.1992 H   0  0  0  0  0  0  0  0  0  0  0  0
    0.0997   -1.0712   -1.2825 H   0  0  0  0  0  0  0  0  0  0  0  0
   -0.7198   -2.4022    0.6850 H   0  0  0  0  0  0  0  0  0  0  0  0
    1.0395   -2.2596    0.6989 H   0  0  0  0  0  0  0  0  0  0  0  0
    0.0624   -1.2603    1.7770 H   0  0  0  0  0  0  0  0  0  0  0  0
  1  2  1  0
  1  4  1  0
  1  5  1  0
  1  6  1  0
  2  3  1  0
  2  7  1  0
  2  8  1  0
  3  9  1  0
  3 10  1  0
  3 11  1  0
M  END
>  <reaction>  (3) 
rxn_1649

>  <mol_properties>  (3) 
{"0": {"label": "a_hydrogen", "atom_type": "H0"}, "2": {"label": "acceptor", "atom_type": "Cs"}}

>  <type>  (3) 
r2h

$$$$

     RDKit          3D

 20 18  0  0  0  0  0  0  0  0999 V2000
   -0.5475   -1.9754   -1.5260 C   0  0  0  0  0  0  0  0  0  0  0  0
   -0.3289   -2.0943   -0.2200 C   0  0  0  0  0  0  0  0  0  0  0  0
   -0.1556   -0.9809    0.6869 C   0  0  0  0  0  3  0  0  0  0  0  0
    0.0263   -0.9886    1.9940 C   0  0  0  0  0  0  0  0  0  0  0  0
   -0.6117   -1.0026   -1.9990 H   0  0  0  0  0  0  0  0  0  0  0  0
   -0.6715   -2.8446   -2.1584 H   0  0  0  0  0  0  0  0  0  0  0  0
   -0.2725   -3.0890    0.2232 H   0  0  0  0  0  0  0  0  0  0  0  0
   -0.1606    0.2951    0.0721 H   0  0  0  0  0  0  0  0  0  0  0  0
    0.0609   -1.9187    2.5596 H   0  0  0  0  0  0  0  0  0  0  0  0
    0.1458   -0.0709    2.5589 H   0  0  0  0  0  0  0  0  0  0  0  0
    1.2280    1.5139   -1.1741 C   0  0  0  0  0  0  0  0  0  0  0  0
   -0.0778    1.4680   -0.4191 C   0  0  0  0  0  0  0  0  0  0  0  0
   -0.1854    2.4174    0.7490 C   0  0  0  0  0  0  0  0  0  0  0  0
    2.0700    1.3324   -0.5019 H   0  0  0  0  0  0  0  0  0  0  0  0
    1.2630    0.7608   -1.9631 H   0  0  0  0  0  0  0  0  0  0  0  0
    1.3815    2.4932   -1.6392 H   0  0  0  0  0  0  0  0  0  0  0  0
   -0.9475    1.5191   -1.0772 H   0  0  0  0  0  0  0  0  0  0  0  0
   -0.1571    3.4597    0.4142 H   0  0  0  0  0  0  0  0  0  0  0  0
   -1.1158    2.2701    1.2998 H   0  0  0  0  0  0  0  0  0  0  0  0
    0.6474    2.2765    1.4427 H   0  0  0  0  0  0  0  0  0  0  0  0
  1  2  2  3
  1  5  1  0
  1  6  1  0
  2  3  1  0
  2  7  1  0
  3  4  2  3
  4  9  1  0
  4 10  1  0
  8 12  1  0
 11 12  1  0
 11 14  1  0
 11 15  1  0
 11 16  1  0
 12 13  1  0
 12 17  1  0
 13 18  1  0
 13 19  1  0
 13 20  1  0
M  RAD  1   3   2
M  END
>  <reaction>  (4) 
rxn_1649

>  <mol_properties>  (4) 
{"1": {"label": "*4", "atom_type": "Cd"}, "2": {"label": "*3", "atom_type": "Cd"}, "7": {"label": "*2", "atom_type": "H0"}, "10": {"label": "*0", "atom_type": "Cs"}, "11": {"label": "*1", "atom_type": "Cs"}}

>  <type>  (4) 
ts

$$$$

     RDKit          3D

 20 18  0  0  0  0  0  0  0  0999 V2000
    0.0920   -2.0902   -1.2008 C   0  0  0  0  0  0  0  0  0  0  0  0
    0.0920   -2.0902    0.1281 C   0  0  0  0  0  0  0  0  0  0  0  0
    0.0920   -0.8829    0.9434 C   0  0  0  0  0  0  0  0  0  0  0  0
    0.0920   -0.8829    2.2723 C   0  0  0  0  0  0  0  0  0  0  0  0
    0.0920   -1.1636   -1.7642 H   0  0  0  0  0  0  0  0  0  0  0  0
    0.0920   -3.0117   -1.7680 H   0  0  0  0  0  0  0  0  0  0  0  0
    0.0920   -3.0351    0.6647 H   0  0  0  0  0  0  0  0  0  0  0  0
    0.0920    0.2511    0.2995 H   0  0  0  0  0  0  0  0  0  0  0  0
    0.0920   -1.8095    2.8357 H   0  0  0  0  0  0  0  0  0  0  0  0
    0.0920    0.0387    2.8395 H   0  0  0  0  0  0  0  0  0  0  0  0
   -1.1521    2.1877    0.0256 C   0  0  0  0  0  0  0  0  0  0  0  0
    0.0920    1.3921   -0.3485 C   0  0  0  0  0  3  0  0  0  0  0  0
    0.7248    1.8699   -1.6492 C   0  0  0  0  0  0  0  0  0  0  0  0
   -1.9143    2.1101   -0.7534 H   0  0  0  0  0  0  0  0  0  0  0  0
   -1.5906    1.8311    0.9591 H   0  0  0  0  0  0  0  0  0  0  0  0
   -0.9153    3.2472    0.1504 H   0  0  0  0  0  0  0  0  0  0  0  0
    0.8251    1.4613    0.4599 H   0  0  0  0  0  0  0  0  0  0  0  0
    1.0207    2.9194   -1.5772 H   0  0  0  0  0  0  0  0  0  0  0  0
    1.6136    1.2885   -1.9002 H   0  0  0  0  0  0  0  0  0  0  0  0
    0.0217    1.7823   -2.4810 H   0  0  0  0  0  0  0  0  0  0  0  0
  1  2  2  3
  1  5  1  0
  1  6  1  0
  2  3  1  0
  2  7  1  0
  3  4  2  3
  3  8  1  0
  4  9  1  0
  4 10  1  0
 11 12  1  0
 11 14  1  0
 11 15  1  0
 11 16  1  0
 12 13  1  0
 12 17  1  0
 13 18  1  0
 13 19  1  0
 13 20  1  0
M  RAD  1  12   2
M  END
>  <reaction>  (5) 
rxn_1649

>  <mol_properties>  (5) 
{"1": {"label": "*4", "atom_type": "Cd"}, "2": {"label": "*3", "atom_type": "Cd"}, "7": {"label": "*2", "atom_type": "H0"}, "10": {"label": "*0", "atom_type": "Cs"}, "11": {"label": "*1", "atom_type": "Cs"}}

>  <type>  (5) 
unop_1

>  <geom_source>  (5) 
Heuristics

$$$$

     RDKit          3D

 20 18  0  0  0  0  0  0  0  0999 V2000
   -0.0773   -2.0021   -1.1159 C   0  0  0  0  0  0  0  0  0  0  0  0
   -0.0773   -2.0021    0.2130 C   0  0  0  0  0  0  0  0  0  0  0  0
   -0.0773   -0.7947    1.0283 C   0  0  0  0  0  0  0  0  0  0  0  0
   -0.0773   -0.7947    2.3572 C   0  0  0  0  0  0  0  0  0  0  0  0
   -0.0773   -1.0755   -1.6793 H   0  0  0  0  0  0  0  0  0  0  0  0
   -0.0773   -2.9236   -1.6830 H   0  0  0  0  0  0  0  0  0  0  0  0
   -0.0773   -2.9470    0.7496 H   0  0  0  0  0  0  0  0  0  0  0  0
   -0.0773    0.3392    0.3844 H   0  0  0  0  0  0  0  0  0  0  0  0
   -0.0773   -1.7213    2.9206 H   0  0  0  0  0  0  0  0  0  0  0  0
   -0.0773    0.1268    2.9244 H   0  0  0  0  0  0  0  0  0  0  0  0
   -0.7955    1.3069   -1.5958 C   0  0  0  0  0  0  0  0  0  0  0  0
   -0.0773    1.4803   -0.2636 C   0  0  0  0  0  3  0  0  0  0  0  0
    1.1592    2.3631   -0.3743 C   0  0  0  0  0  0  0  0  0  0  0  0
   -0.1366    0.8502   -2.3383 H   0  0  0  0  0  0  0  0  0  0  0  0
   -1.6776    0.6721   -1.4963 H   0  0  0  0  0  0  0  0  0  0  0  0
   -1.1205    2.2717   -1.9928 H   0  0  0  0  0  0  0  0  0  0  0  0
   -0.7668    1.9097    0.4685 H   0  0  0  0  0  0  0  0  0  0  0  0
    0.8959    3.3611   -0.7328 H   0  0  0  0  0  0  0  0  0  0  0  0
    1.6596    2.4752    0.5891 H   0  0  0  0  0  0  0  0  0  0  0  0
    1.8798    1.9397   -1.0783 H   0  0  0  0  0  0  0  0  0  0  0  0
  1  2  2  3
  1  5  1  0
  1  6  1  0
  2  3  1  0
  2  7  1  0
  3  4  2  3
  3  8  1  0
  4  9  1  0
  4 10  1  0
 11 12  1  0
 11 14  1  0
 11 15  1  0
 11 16  1  0
 12 13  1  0
 12 17  1  0
 13 18  1  0
 13 19  1  0
 13 20  1  0
M  RAD  1  12   2
M  END
>  <reaction>  (6) 
rxn_1649

>  <mol_properties>  (6) 
{"1": {"label": "*4", "atom_type": "Cd"}, "2": {"label": "*3", "atom_type": "Cd"}, "7": {"label": "*2", "atom_type": "H0"}, "10": {"label": "*0", "atom_type": "Cs"}, "11": {"label": "*1", "atom_type": "Cs"}}

>  <type>  (6) 
unop_2

>  <geom_source>  (6) 
Heuristics

$$$$

     RDKit          3D

 20 18  0  0  0  0  0  0  0  0999 V2000
    0.1279   -2.0932   -1.2375 C   0  0  0  0  0  0  0  0  0  0  0  0
    0.1279   -2.0932    0.0914 C   0  0  0  0  0  0  0  0  0  0  0  0
    0.1279   -0.8858    0.9066 C   0  0  0  0  0  0  0  0  0  0  0  0
    0.1279   -0.8858    2.2355 C   0  0  0  0  0  0  0  0  0  0  0  0
    0.1279   -1.1666   -1.8010 H   0  0  0  0  0  0  0  0  0  0  0  0
    0.1279   -3.0147   -1.8047 H   0  0  0  0  0  0  0  0  0  0  0  0
    0.1279   -3.0381    0.6280 H   0  0  0  0  0  0  0  0  0  0  0  0
    0.1279    0.2481    0.2627 H   0  0  0  0  0  0  0  0  0  0  0  0
    0.1279   -1.8124    2.7990 H   0  0  0  0  0  0  0  0  0  0  0  0
    0.1279    0.0357    2.8027 H   0  0  0  0  0  0  0  0  0  0  0  0
   -0.5904    2.4444    0.4460 C   0  0  0  0  0  0  0  0  0  0  0  0
    0.1279    1.3892   -0.3853 C   0  0  0  0  0  3  0  0  0  0  0  0
   -0.0062    1.6311   -1.8833 C   0  0  0  0  0  0  0  0  0  0  0  0
   -1.6582    2.4635    0.2151 H   0  0  0  0  0  0  0  0  0  0  0  0
   -0.4830    2.2542    1.5153 H   0  0  0  0  0  0  0  0  0  0  0  0
   -0.1914    3.4409    0.2417 H   0  0  0  0  0  0  0  0  0  0  0  0
    1.1868    1.3699   -0.1130 H   0  0  0  0  0  0  0  0  0  0  0  0
    0.4112    2.6020   -2.1611 H   0  0  0  0  0  0  0  0  0  0  0  0
    0.5143    0.8657   -2.4615 H   0  0  0  0  0  0  0  0  0  0  0  0
   -1.0557    1.6245   -2.1877 H   0  0  0  0  0  0  0  0  0  0  0  0
  1  2  2  3
  1  5  1  0
  1  6  1  0
  2  3  1  0
  2  7  1  0
  3  4  2  3
  3  8  1  0
  4  9  1  0
  4 10  1  0
 11 12  1  0
 11 14  1  0
 11 15  1  0
 11 16  1  0
 12 13  1  0
 12 17  1  0
 13 18  1  0
 13 19  1  0
 13 20  1  0
M  RAD  1  12   2
M  END
>  <reaction>  (7) 
rxn_1649

>  <mol_properties>  (7) 
{"1": {"label": "*4", "atom_type": "Cd"}, "2": {"label": "*3", "atom_type": "Cd"}, "7": {"label": "*2", "atom_type": "H0"}, "10": {"label": "*0", "atom_type": "Cs"}, "11": {"label": "*1", "atom_type": "Cs"}}

>  <type>  (7) 
unop_3

>  <geom_source>  (7) 
Heuristics

$$$$

     RDKit          3D

 20 18  0  0  0  0  0  0  0  0999 V2000
   -0.2302   -1.9953   -1.4227 C   0  0  0  0  0  0  0  0  0  0  0  0
   -0.2302   -1.9953   -0.0938 C   0  0  0  0  0  0  0  0  0  0  0  0
   -0.2302   -0.7879    0.7215 C   0  0  0  0  0  0  0  0  0  0  0  0
   -0.2302   -0.7879    2.0504 C   0  0  0  0  0  0  0  0  0  0  0  0
   -0.2302   -1.0687   -1.9861 H   0  0  0  0  0  0  0  0  0  0  0  0
   -0.2302   -2.9168   -1.9899 H   0  0  0  0  0  0  0  0  0  0  0  0
   -0.2302   -2.9402    0.4428 H   0  0  0  0  0  0  0  0  0  0  0  0
   -0.2302    0.3460    0.0775 H   0  0  0  0  0  0  0  0  0  0  0  0
   -0.2302   -1.7145    2.6138 H   0  0  0  0  0  0  0  0  0  0  0  0
   -0.2302    0.1336    2.6176 H   0  0  0  0  0  0  0  0  0  0  0  0
    1.0138    1.5733   -1.4454 C   0  0  0  0  0  0  0  0  0  0  0  0
   -0.2302    1.4871   -0.5705 C   0  0  0  0  0  3  0  0  0  0  0  0
   -0.0087    2.0622    0.8226 C   0  0  0  0  0  0  0  0  0  0  0  0
    1.8457    1.0249   -0.9968 H   0  0  0  0  0  0  0  0  0  0  0  0
    0.8356    1.1568   -2.4383 H   0  0  0  0  0  0  0  0  0  0  0  0
    1.3325    2.6111   -1.5701 H   0  0  0  0  0  0  0  0  0  0  0  0
   -1.0543    2.0169   -1.0562 H   0  0  0  0  0  0  0  0  0  0  0  0
    0.2778    3.1153    0.7694 H   0  0  0  0  0  0  0  0  0  0  0  0
   -0.9101    1.9915    1.4338 H   0  0  0  0  0  0  0  0  0  0  0  0
    0.7909    1.5292    1.3427 H   0  0  0  0  0  0  0  0  0  0  0  0
  1  2  2  3
  1  5  1  0
  1  6  1  0
  2  3  1  0
  2  7  1  0
  3  4  2  3
  3  8  1  0
  4  9  1  0
  4 10  1  0
 11 12  1  0
 11 14  1  0
 11 15  1  0
 11 16  1  0
 12 13  1  0
 12 17  1  0
 13 18  1  0
 13 19  1  0
 13 20  1  0
M  RAD  1  12   2
M  END
>  <reaction>  (8) 
rxn_1649

>  <mol_properties>  (8) 
{"1": {"label": "*4", "atom_type": "Cd"}, "2": {"label": "*3", "atom_type": "Cd"}, "7": {"label": "*2", "atom_type": "H0"}, "10": {"label": "*0", "atom_type": "Cs"}, "11": {"label": "*1", "atom_type": "Cs"}}

>  <type>  (8) 
unop_4

>  <geom_source>  (8) 
Heuristics

$$$$

     RDKit          3D

 20 18  0  0  0  0  0  0  0  0999 V2000
    0.1846   -2.0770   -1.3457 C   0  0  0  0  0  0  0  0  0  0  0  0
    0.1846   -2.0770   -0.0168 C   0  0  0  0  0  0  0  0  0  0  0  0
    0.1846   -0.8697    0.7985 C   0  0  0  0  0  0  0  0  0  0  0  0
    0.1846   -0.8697    2.1274 C   0  0  0  0  0  0  0  0  0  0  0  0
    0.1846   -1.1504   -1.9092 H   0  0  0  0  0  0  0  0  0  0  0  0
    0.1846   -2.9986   -1.9129 H   0  0  0  0  0  0  0  0  0  0  0  0
    0.1846   -3.0220    0.5198 H   0  0  0  0  0  0  0  0  0  0  0  0
    0.1846    0.2642    0.1545 H   0  0  0  0  0  0  0  0  0  0  0  0
    0.1846   -1.7963    2.6908 H   0  0  0  0  0  0  0  0  0  0  0  0
    0.1846    0.0519    2.6945 H   0  0  0  0  0  0  0  0  0  0  0  0
    0.1846    2.5556    0.5052 C   0  0  0  0  0  0  0  0  0  0  0  0
    0.1846    1.4053   -0.4935 C   0  0  0  0  0  3  0  0  0  0  0  0
   -1.0077    1.4506   -1.4406 C   0  0  0  0  0  0  0  0  0  0  0  0
   -0.7186    2.5391    1.1201 H   0  0  0  0  0  0  0  0  0  0  0  0
    1.0454    2.5060    1.1743 H   0  0  0  0  0  0  0  0  0  0  0  0
    0.2155    3.5193   -0.0089 H   0  0  0  0  0  0  0  0  0  0  0  0
    1.1113    1.4269   -1.0736 H   0  0  0  0  0  0  0  0  0  0  0  0
   -1.0143    2.3795   -2.0160 H   0  0  0  0  0  0  0  0  0  0  0  0
   -0.9901    0.6195   -2.1476 H   0  0  0  0  0  0  0  0  0  0  0  0
   -1.9484    1.3993   -0.8870 H   0  0  0  0  0  0  0  0  0  0  0  0
  1  2  2  3
  1  5  1  0
  1  6  1  0
  2  3  1  0
  2  7  1  0
  3  4  2  3
  3  8  1  0
  4  9  1  0
  4 10  1  0
 11 12  1  0
 11 14  1  0
 11 15  1  0
 11 16  1  0
 12 13  1  0
 12 17  1  0
 13 18  1  0
 13 19  1  0
 13 20  1  0
M  RAD  1  12   2
M  END
>  <reaction>  (9) 
rxn_1649

>  <mol_properties>  (9) 
{"1": {"label": "*4", "atom_type": "Cd"}, "2": {"label": "*3", "atom_type": "Cd"}, "7": {"label": "*2", "atom_type": "H0"}, "10": {"label": "*0", "atom_type": "Cs"}, "11": {"label": "*1", "atom_type": "Cs"}}

>  <type>  (9) 
unop_5

>  <geom_source>  (9) 
Heuristics

$$$$

     RDKit          3D

 20 18  0  0  0  0  0  0  0  0999 V2000
   -0.1463   -2.0204   -1.5210 C   0  0  0  0  0  0  0  0  0  0  0  0
   -0.1463   -2.0204   -0.1921 C   0  0  0  0  0  0  0  0  0  0  0  0
   -0.1463   -0.8130    0.6232 C   0  0  0  0  0  0  0  0  0  0  0  0
   -0.1463   -0.8130    1.9521 C   0  0  0  0  0  0  0  0  0  0  0  0
   -0.1463   -1.0938   -2.0845 H   0  0  0  0  0  0  0  0  0  0  0  0
   -0.1463   -2.9419   -2.0882 H   0  0  0  0  0  0  0  0  0  0  0  0
   -0.1463   -2.9653    0.3445 H   0  0  0  0  0  0  0  0  0  0  0  0
   -0.1463    0.3209   -0.0208 H   0  0  0  0  0  0  0  0  0  0  0  0
   -0.1463   -1.7396    2.5155 H   0  0  0  0  0  0  0  0  0  0  0  0
   -0.1463    0.1085    2.5192 H   0  0  0  0  0  0  0  0  0  0  0  0
    1.2901    1.9029   -0.9192 C   0  0  0  0  0  0  0  0  0  0  0  0
   -0.1463    1.4620   -0.6688 C   0  0  0  0  0  3  0  0  0  0  0  0
   -0.6430    1.8418    0.7203 C   0  0  0  0  0  0  0  0  0  0  0  0
    1.9705    1.4469   -0.1958 H   0  0  0  0  0  0  0  0  0  0  0  0
    1.6276    1.6222   -1.9183 H   0  0  0  0  0  0  0  0  0  0  0  0
    1.3880    2.9872   -0.8252 H   0  0  0  0  0  0  0  0  0  0  0  0
   -0.8005    1.9071   -1.4235 H   0  0  0  0  0  0  0  0  0  0  0  0
   -0.6061    2.9241    0.8660 H   0  0  0  0  0  0  0  0  0  0  0  0
   -1.6727    1.5179    0.8807 H   0  0  0  0  0  0  0  0  0  0  0  0
   -0.0236    1.3839    1.4954 H   0  0  0  0  0  0  0  0  0  0  0  0
  1  2  2  3
  1  5  1  0
  1  6  1  0
  2  3  1  0
  2  7  1  0
  3  4  2  3
  3  8  1  0
  4  9  1  0
  4 10  1  0
 11 12  1  0
 11 14  1  0
 11 15  1  0
 11 16  1  0
 12 13  1  0
 12 17  1  0
 13 18  1  0
 13 19  1  0
 13 20  1  0
M  RAD  1  12   2
M  END
>  <reaction>  (10) 
rxn_1649

>  <mol_properties>  (10) 
{"1": {"label": "*4", "atom_type": "Cd"}, "2": {"label": "*3", "atom_type": "Cd"}, "7": {"label": "*2", "atom_type": "H0"}, "10": {"label": "*0", "atom_type": "Cs"}, "11": {"label": "*1", "atom_type": "Cs"}}

>  <type>  (10) 
unop_6

>  <geom_source>  (10) 
Heuristics

$$$$

     RDKit          3D

 20 18  0  0  0  0  0  0  0  0999 V2000
   -0.0153   -2.0417   -1.5587 C   0  0  0  0  0  0  0  0  0  0  0  0
   -0.0153   -2.0417   -0.2298 C   0  0  0  0  0  0  0  0  0  0  0  0
   -0.0153   -0.8344    0.5855 C   0  0  0  0  0  0  0  0  0  0  0  0
   -0.0153   -0.8344    1.9144 C   0  0  0  0  0  0  0  0  0  0  0  0
   -0.0153   -1.1151   -2.1221 H   0  0  0  0  0  0  0  0  0  0  0  0
   -0.0153   -2.9632   -2.1259 H   0  0  0  0  0  0  0  0  0  0  0  0
   -0.0153   -2.9866    0.3068 H   0  0  0  0  0  0  0  0  0  0  0  0
   -0.0153    0.2996   -0.0585 H   0  0  0  0  0  0  0  0  0  0  0  0
   -0.0153   -1.7610    2.4778 H   0  0  0  0  0  0  0  0  0  0  0  0
   -0.0153    0.0872    2.4816 H   0  0  0  0  0  0  0  0  0  0  0  0
    1.2287    2.2362   -0.3323 C   0  0  0  0  0  0  0  0  0  0  0  0
   -0.0153    1.4406   -0.7065 C   0  0  0  0  0  3  0  0  0  0  0  0
   -1.1430    1.6052    0.3044 C   0  0  0  0  0  0  0  0  0  0  0  0
    1.6161    1.9213    0.6397 H   0  0  0  0  0  0  0  0  0  0  0  0
    2.0245    2.1057   -1.0676 H   0  0  0  0  0  0  0  0  0  0  0  0
    1.0048    3.3038   -0.2674 H   0  0  0  0  0  0  0  0  0  0  0  0
   -0.3638    1.7533   -1.6947 H   0  0  0  0  0  0  0  0  0  0  0  0
   -1.4417    2.6529    0.3893 H   0  0  0  0  0  0  0  0  0  0  0  0
   -2.0245    1.0284    0.0194 H   0  0  0  0  0  0  0  0  0  0  0  0
   -0.8303    1.2704    1.2964 H   0  0  0  0  0  0  0  0  0  0  0  0
  1  2  2  3
  1  5  1  0
  1  6  1  0
  2  3  1  0
  2  7  1  0
  3  4  2  3
  3  8  1  0
  4  9  1  0
  4 10  1  0
 11 12  1  0
 11 14  1  0
 11 15  1  0
 11 16  1  0
 12 13  1  0
 12 17  1  0
 13 18  1  0
 13 19  1  0
 13 20  1  0
M  RAD  1  12   2
M  END
>  <reaction>  (11) 
rxn_1649

>  <mol_properties>  (11) 
{"1": {"label": "*4", "atom_type": "Cd"}, "2": {"label": "*3", "atom_type": "Cd"}, "7": {"label": "*2", "atom_type": "H0"}, "10": {"label": "*0", "atom_type": "Cs"}, "11": {"label": "*1", "atom_type": "Cs"}}

>  <type>  (11) 
unop_7

>  <geom_source>  (11) 
Heuristics

$$$$

     RDKit          3D

 20 18  0  0  0  0  0  0  0  0999 V2000
    0.0691   -2.0689   -1.1632 C   0  0  0  0  0  0  0  0  0  0  0  0
    0.0691   -2.0689    0.1657 C   0  0  0  0  0  0  0  0  0  0  0  0
    0.0691   -0.8615    0.9810 C   0  0  0  0  0  0  0  0  0  0  0  0
    0.0691   -0.8615    2.3099 C   0  0  0  0  0  0  0  0  0  0  0  0
    0.0691   -1.1422   -1.7267 H   0  0  0  0  0  0  0  0  0  0  0  0
    0.0691   -2.9904   -1.7304 H   0  0  0  0  0  0  0  0  0  0  0  0
    0.0691   -3.0138    0.7023 H   0  0  0  0  0  0  0  0  0  0  0  0
    0.0691    0.2724    0.3370 H   0  0  0  0  0  0  0  0  0  0  0  0
    0.0691   -1.7881    2.8733 H   0  0  0  0  0  0  0  0  0  0  0  0
    0.0691    0.0600    2.8770 H   0  0  0  0  0  0  0  0  0  0  0  0
   -1.3674    1.8544   -0.5614 C   0  0  0  0  0  0  0  0  0  0  0  0
    0.0691    1.4135   -0.3110 C   0  0  0  0  0  3  0  0  0  0  0  0
    1.0646    2.1065   -1.2325 C   0  0  0  0  0  0  0  0  0  0  0  0
   -1.6698    1.6356   -1.5884 H   0  0  0  0  0  0  0  0  0  0  0  0
   -2.0650    1.3477    0.1076 H   0  0  0  0  0  0  0  0  0  0  0  0
   -1.4781    2.9306   -0.4076 H   0  0  0  0  0  0  0  0  0  0  0  0
    0.3355    1.6152    0.7302 H   0  0  0  0  0  0  0  0  0  0  0  0
    1.0305    3.1905   -1.0999 H   0  0  0  0  0  0  0  0  0  0  0  0
    2.0870    1.7779   -1.0382 H   0  0  0  0  0  0  0  0  0  0  0  0
    0.8389    1.8956   -2.2807 H   0  0  0  0  0  0  0  0  0  0  0  0
  1  2  2  3
  1  5  1  0
  1  6  1  0
  2  3  1  0
  2  7  1  0
  3  4  2  3
  3  8  1  0
  4  9  1  0
  4 10  1  0
 11 12  1  0
 11 14  1  0
 11 15  1  0
 11 16  1  0
 12 13  1  0
 12 17  1  0
 13 18  1  0
 13 19  1  0
 13 20  1  0
M  RAD  1  12   2
M  END
>  <reaction>  (12) 
rxn_1649

>  <mol_properties>  (12) 
{"1": {"label": "*4", "atom_type": "Cd"}, "2": {"label": "*3", "atom_type": "Cd"}, "7": {"label": "*2", "atom_type": "H0"}, "10": {"label": "*0", "atom_type": "Cs"}, "11": {"label": "*1", "atom_type": "Cs"}}

>  <type>  (12) 
unop_8

>  <geom_source>  (12) 
Heuristics

$$$$

     RDKit          3D

 20 18  0  0  0  0  0  0  0  0999 V2000
   -0.2457   -1.9780   -1.2931 C   0  0  0  0  0  0  0  0  0  0  0  0
   -0.2457   -1.9780    0.0357 C   0  0  0  0  0  0  0  0  0  0  0  0
   -0.2457   -0.7707    0.8510 C   0  0  0  0  0  0  0  0  0  0  0  0
   -0.2457   -0.7707    2.1799 C   0  0  0  0  0  0  0  0  0  0  0  0
   -0.2457   -1.0514   -1.8566 H   0  0  0  0  0  0  0  0  0  0  0  0
   -0.2457   -2.8996   -1.8603 H   0  0  0  0  0  0  0  0  0  0  0  0
   -0.2457   -2.9230    0.5724 H   0  0  0  0  0  0  0  0  0  0  0  0
   -0.2457    0.3632    0.2071 H   0  0  0  0  0  0  0  0  0  0  0  0
   -0.2457   -1.6973    2.7434 H   0  0  0  0  0  0  0  0  0  0  0  0
   -0.2457    0.1508    2.7471 H   0  0  0  0  0  0  0  0  0  0  0  0
    0.4725    1.3309   -1.7731 C   0  0  0  0  0  0  0  0  0  0  0  0
   -0.2457    1.5043   -0.4409 C   0  0  0  0  0  3  0  0  0  0  0  0
    0.6037    2.2319    0.5933 C   0  0  0  0  0  0  0  0  0  0  0  0
    1.3938    0.7567   -1.6483 H   0  0  0  0  0  0  0  0  0  0  0  0
   -0.1513    0.8082   -2.5001 H   0  0  0  0  0  0  0  0  0  0  0  0
    0.7435    2.2997   -2.1998 H   0  0  0  0  0  0  0  0  0  0  0  0
   -1.1776    2.0543   -0.5987 H   0  0  0  0  0  0  0  0  0  0  0  0
    0.8788    3.2291    0.2412 H   0  0  0  0  0  0  0  0  0  0  0  0
    0.0727    2.3464    1.5398 H   0  0  0  0  0  0  0  0  0  0  0  0
    1.5291    1.6861    0.7926 H   0  0  0  0  0  0  0  0  0  0  0  0
  1  2  2  3
  1  5  1  0
  1  6  1  0
  2  3  1  0
  2  7  1  0
  3  4  2  3
  3  8  1  0
  4  9  1  0
  4 10  1  0
 11 12  1  0
 11 14  1  0
 11 15  1  0
 11 16  1  0
 12 13  1  0
 12 17  1  0
 13 18  1  0
 13 19  1  0
 13 20  1  0
M  RAD  1  12   2
M  END
>  <reaction>  (13) 
rxn_1649

>  <mol_properties>  (13) 
{"1": {"label": "*4", "atom_type": "Cd"}, "2": {"label": "*3", "atom_type": "Cd"}, "7": {"label": "*2", "atom_type": "H0"}, "10": {"label": "*0", "atom_type": "Cs"}, "11": {"label": "*1", "atom_type": "Cs"}}

>  <type>  (13) 
unop_9

>  <geom_source>  (13) 
Heuristics

$$$$

     RDKit          3D

 20 18  0  0  0  0  0  0  0  0999 V2000
    0.0172   -2.0358   -1.1238 C   0  0  0  0  0  0  0  0  0  0  0  0
    0.0172   -2.0358    0.2051 C   0  0  0  0  0  0  0  0  0  0  0  0
    0.0172   -0.8284    1.0204 C   0  0  0  0  0  0  0  0  0  0  0  0
    0.0172   -0.8284    2.3492 C   0  0  0  0  0  0  0  0  0  0  0  0
    0.0172   -1.1092   -1.6873 H   0  0  0  0  0  0  0  0  0  0  0  0
    0.0172   -2.9573   -1.6910 H   0  0  0  0  0  0  0  0  0  0  0  0
    0.0172   -2.9807    0.7417 H   0  0  0  0  0  0  0  0  0  0  0  0
    0.0172    0.3055    0.3764 H   0  0  0  0  0  0  0  0  0  0  0  0
    0.0172   -1.7550    2.9127 H   0  0  0  0  0  0  0  0  0  0  0  0
    0.0172    0.0931    2.9164 H   0  0  0  0  0  0  0  0  0  0  0  0
   -1.2268    1.5328   -1.1465 C   0  0  0  0  0  0  0  0  0  0  0  0
    0.0172    1.4466   -0.2716 C   0  0  0  0  0  3  0  0  0  0  0  0
    1.1713    2.2833   -0.8086 C   0  0  0  0  0  0  0  0  0  0  0  0
   -1.0166    1.1826   -2.1600 H   0  0  0  0  0  0  0  0  0  0  0  0
   -2.0418    0.9275   -0.7460 H   0  0  0  0  0  0  0  0  0  0  0  0
   -1.5812    2.5638   -1.2212 H   0  0  0  0  0  0  0  0  0  0  0  0
   -0.2279    1.7730    0.7429 H   0  0  0  0  0  0  0  0  0  0  0  0
    0.8926    3.3379   -0.8726 H   0  0  0  0  0  0  0  0  0  0  0  0
    2.0525    2.2087   -0.1690 H   0  0  0  0  0  0  0  0  0  0  0  0
    1.4571    1.9567   -1.8114 H   0  0  0  0  0  0  0  0  0  0  0  0
  1  2  2  3
  1  5  1  0
  1  6  1  0
  2  3  1  0
  2  7  1  0
  3  4  2  3
  3  8  1  0
  4  9  1  0
  4 10  1  0
 11 12  1  0
 11 14  1  0
 11 15  1  0
 11 16  1  0
 12 13  1  0
 12 17  1  0
 13 18  1  0
 13 19  1  0
 13 20  1  0
M  RAD  1  12   2
M  END
>  <reaction>  (14) 
rxn_1649

>  <mol_properties>  (14) 
{"1": {"label": "*4", "atom_type": "Cd"}, "2": {"label": "*3", "atom_type": "Cd"}, "7": {"label": "*2", "atom_type": "H0"}, "10": {"label": "*0", "atom_type": "Cs"}, "11": {"label": "*1", "atom_type": "Cs"}}

>  <type>  (14) 
unop_10

>  <geom_source>  (14) 
Heuristics

$$$$

     RDKit          3D

 20 18  0  0  0  0  0  0  0  0999 V2000
    0.1264   -2.0572   -1.5028 C   0  0  0  0  0  0  0  0  0  0  0  0
    0.1264   -2.0572   -0.1740 C   0  0  0  0  0  0  0  0  0  0  0  0
    0.1264   -0.8499    0.6413 C   0  0  0  0  0  0  0  0  0  0  0  0
    0.1264   -0.8499    1.9702 C   0  0  0  0  0  0  0  0  0  0  0  0
    0.1264   -1.1306   -2.0663 H   0  0  0  0  0  0  0  0  0  0  0  0
    0.1264   -2.9787   -2.0700 H   0  0  0  0  0  0  0  0  0  0  0  0
    0.1264   -3.0021    0.3627 H   0  0  0  0  0  0  0  0  0  0  0  0
    0.1264    0.2841   -0.0026 H   0  0  0  0  0  0  0  0  0  0  0  0
    0.1264   -1.7765    2.5337 H   0  0  0  0  0  0  0  0  0  0  0  0
    0.1264    0.0717    2.5374 H   0  0  0  0  0  0  0  0  0  0  0  0
    0.8446    2.4804    0.1807 C   0  0  0  0  0  0  0  0  0  0  0  0
    0.1264    1.4251   -0.6506 C   0  0  0  0  0  3  0  0  0  0  0  0
   -1.3816    1.4349   -0.4352 C   0  0  0  0  0  0  0  0  0  0  0  0
    0.6686    2.3235    1.2477 H   0  0  0  0  0  0  0  0  0  0  0  0
    1.9227    2.4578    0.0130 H   0  0  0  0  0  0  0  0  0  0  0  0
    0.4882    3.4829   -0.0680 H   0  0  0  0  0  0  0  0  0  0  0  0
    0.3438    1.5864   -1.7101 H   0  0  0  0  0  0  0  0  0  0  0  0
   -1.8082    2.4044   -0.7034 H   0  0  0  0  0  0  0  0  0  0  0  0
   -1.8779    0.6729   -1.0386 H   0  0  0  0  0  0  0  0  0  0  0  0
   -1.6278    1.2451    0.6123 H   0  0  0  0  0  0  0  0  0  0  0  0
  1  2  2  3
  1  5  1  0
  1  6  1  0
  2  3  1  0
  2  7  1  0
  3  4  2  3
  3  8  1  0
  4  9  1  0
  4 10  1  0
 11 12  1  0
 11 14  1  0
 11 15  1  0
 11 16  1  0
 12 13  1  0
 12 17  1  0
 13 18  1  0
 13 19  1  0
 13 20  1  0
M  RAD  1  12   2
M  END
>  <reaction>  (15) 
rxn_1649

>  <mol_properties>  (15) 
{"1": {"label": "*4", "atom_type": "Cd"}, "2": {"label": "*3", "atom_type": "Cd"}, "7": {"label": "*2", "atom_type": "H0"}, "10": {"label": "*0", "atom_type": "Cs"}, "11": {"label": "*1", "atom_type": "Cs"}}

>  <type>  (15) 
unop_11

>  <geom_source>  (15) 
Heuristics

$$$$

     RDKit          3D

 20 18  0  0  0  0  0  0  0  0999 V2000
   -0.1846   -1.9799   -1.1746 C   0  0  0  0  0  0  0  0  0  0  0  0
   -0.1846   -1.9799    0.1543 C   0  0  0  0  0  0  0  0  0  0  0  0
   -0.1846   -0.7725    0.9695 C   0  0  0  0  0  0  0  0  0  0  0  0
   -0.1846   -0.7725    2.2984 C   0  0  0  0  0  0  0  0  0  0  0  0
   -0.1846   -1.0533   -1.7381 H   0  0  0  0  0  0  0  0  0  0  0  0
   -0.1846   -2.9014   -1.7418 H   0  0  0  0  0  0  0  0  0  0  0  0
   -0.1846   -2.9248    0.6909 H   0  0  0  0  0  0  0  0  0  0  0  0
   -0.1846    0.3614    0.3256 H   0  0  0  0  0  0  0  0  0  0  0  0
   -0.1846   -1.6991    2.8619 H   0  0  0  0  0  0  0  0  0  0  0  0
   -0.1846    0.1490    2.8656 H   0  0  0  0  0  0  0  0  0  0  0  0
   -0.1846    1.2340   -1.8219 C   0  0  0  0  0  0  0  0  0  0  0  0
   -0.1846    1.5025   -0.3224 C   0  0  0  0  0  3  0  0  0  0  0  0
    1.0077    2.3390    0.1239 C   0  0  0  0  0  0  0  0  0  0  0  0
    0.7186    0.6976   -2.1227 H   0  0  0  0  0  0  0  0  0  0  0  0
   -1.0454    0.6340   -2.1220 H   0  0  0  0  0  0  0  0  0  0  0  0
   -0.2155    2.1693   -2.3862 H   0  0  0  0  0  0  0  0  0  0  0  0
   -1.1113    2.0117   -0.0438 H   0  0  0  0  0  0  0  0  0  0  0  0
    1.0143    3.3091   -0.3790 H   0  0  0  0  0  0  0  0  0  0  0  0
    0.9901    2.5205    1.1999 H   0  0  0  0  0  0  0  0  0  0  0  0
    1.9484    1.8374   -0.1156 H   0  0  0  0  0  0  0  0  0  0  0  0
  1  2  2  3
  1  5  1  0
  1  6  1  0
  2  3  1  0
  2  7  1  0
  3  4  2  3
  3  8  1  0
  4  9  1  0
  4 10  1  0
 11 12  1  0
 11 14  1  0
 11 15  1  0
 11 16  1  0
 12 13  1  0
 12 17  1  0
 13 18  1  0
 13 19  1  0
 13 20  1  0
M  RAD  1  12   2
M  END
>  <reaction>  (16) 
rxn_1649

>  <mol_properties>  (16) 
{"1": {"label": "*4", "atom_type": "Cd"}, "2": {"label": "*3", "atom_type": "Cd"}, "7": {"label": "*2", "atom_type": "H0"}, "10": {"label": "*0", "atom_type": "Cs"}, "11": {"label": "*1", "atom_type": "Cs"}}

>  <type>  (16) 
unop_12

>  <geom_source>  (16) 
Heuristics

$$$$

     RDKit          3D

 20 18  0  0  0  0  0  0  0  0999 V2000
   -0.8066    0.6669   -0.0440 C   0  0  0  0  0  3  0  0  0  0  0  0
   -1.8314    0.1783    0.9734 C   0  0  0  0  0  0  0  0  0  0  0  0
   -1.4698    1.4626   -1.1625 C   0  0  0  0  0  0  0  0  0  0  0  0
    2.3251   -0.6000   -0.6379 C   0  0  0  0  0  0  0  0  0  0  0  0
    2.9947   -0.5189    0.5128 C   0  0  0  0  0  0  0  0  0  0  0  0
    0.1533   -1.5010    0.2247 C   0  0  0  0  0  0  0  0  0  0  0  0
    0.9345   -1.0820   -0.7697 C   0  0  0  0  0  0  0  0  0  0  0  0
   -0.0553    1.3063    0.4677 H   0  0  0  0  0  0  0  0  0  0  0  0
   -0.1463   -0.4431   -0.5996 H   0  0  0  0  0  0  0  0  0  0  0  0
   -2.3548    1.0399    1.4399 H   0  0  0  0  0  0  0  0  0  0  0  0
   -1.3148   -0.3991    1.7682 H   0  0  0  0  0  0  0  0  0  0  0  0
   -2.5753   -0.4831    0.4809 H   0  0  0  0  0  0  0  0  0  0  0  0
   -0.6962    1.7974   -1.8848 H   0  0  0  0  0  0  0  0  0  0  0  0
   -1.9842    2.3563   -0.7494 H   0  0  0  0  0  0  0  0  0  0  0  0
   -2.2060    0.8281   -1.6999 H   0  0  0  0  0  0  0  0  0  0  0  0
    2.8280   -0.2931   -1.5458 H   0  0  0  0  0  0  0  0  0  0  0  0
    4.0131   -0.1525    0.5130 H   0  0  0  0  0  0  0  0  0  0  0  0
    2.5620   -0.8060    1.4597 H   0  0  0  0  0  0  0  0  0  0  0  0
   -0.8515   -1.8313    0.0002 H   0  0  0  0  0  0  0  0  0  0  0  0
    0.4815   -1.5257    1.2533 H   0  0  0  0  0  0  0  0  0  0  0  0
  1  2  1  0
  1  3  1  0
  1  8  1  0
  2 10  1  0
  2 11  1  0
  2 12  1  0
  3 13  1  0
  3 14  1  0
  3 15  1  0
  4  5  2  3
  4  7  1  0
  4 16  1  0
  5 17  1  0
  5 18  1  0
  6  7  2  3
  6 19  1  0
  6 20  1  0
  7  9  1  0
M  RAD  1   1   2
M  END
>  <reaction>  (17) 
rxn_1649

>  <mol_properties>  (17) 
{"1": {"label": "*4", "atom_type": "Cd"}, "2": {"label": "*3", "atom_type": "Cd"}, "7": {"label": "*2", "atom_type": "H0"}, "10": {"label": "*0", "atom_type": "Cs"}, "11": {"label": "*1", "atom_type": "Cs"}}

>  <type>  (17) 
unop_13

>  <geom_source>  (17) 
AutoTST

$$$$
