
     RDKit          3D

 25 26  0  0  0  0  0  0  0  0999 V2000
    2.0298   -1.1515    0.0571 C   0  0  0  0  0  0  0  0  0  0  0  0
    2.2278    0.2445    0.6528 C   0  0  0  0  0  0  0  0  0  0  0  0
    1.2292    1.2625    0.0947 C   0  0  0  0  0  0  0  0  0  0  0  0
   -0.1869    0.7454    0.2762 C   0  0  0  0  0  0  0  0  0  0  0  0
   -1.3415    1.5501   -0.3122 C   0  0  0  0  0  0  0  0  0  0  0  0
   -2.5060    0.5338   -0.4178 C   0  0  0  0  0  0  0  0  0  0  0  0
   -1.8709   -0.8658   -0.2234 C   0  0  0  0  0  0  0  0  0  0  0  0
   -0.3715   -0.6265   -0.3693 C   0  0  0  0  0  0  0  0  0  0  0  0
    0.5898   -1.6500    0.2086 C   0  0  0  0  0  0  0  0  0  0  0  0
    2.2820   -1.1226   -1.0088 H   0  0  0  0  0  0  0  0  0  0  0  0
    2.7243   -1.8549    0.5221 H   0  0  0  0  0  0  0  0  0  0  0  0
    2.1030    0.1885    1.7400 H   0  0  0  0  0  0  0  0  0  0  0  0
    3.2514    0.5819    0.4743 H   0  0  0  0  0  0  0  0  0  0  0  0
    1.3611    2.2304    0.5855 H   0  0  0  0  0  0  0  0  0  0  0  0
    1.4198    1.4194   -0.9737 H   0  0  0  0  0  0  0  0  0  0  0  0
   -0.3675    0.6209    1.3539 H   0  0  0  0  0  0  0  0  0  0  0  0
   -1.5992    2.4249    0.2862 H   0  0  0  0  0  0  0  0  0  0  0  0
   -1.0595    1.9116   -1.3055 H   0  0  0  0  0  0  0  0  0  0  0  0
   -3.2666    0.7244    0.3399 H   0  0  0  0  0  0  0  0  0  0  0  0
   -3.0030    0.6112   -1.3853 H   0  0  0  0  0  0  0  0  0  0  0  0
   -2.2549   -1.6039   -0.9288 H   0  0  0  0  0  0  0  0  0  0  0  0
   -2.0796   -1.2429    0.7821 H   0  0  0  0  0  0  0  0  0  0  0  0
   -0.1432   -0.5121   -1.4391 H   0  0  0  0  0  0  0  0  0  0  0  0
    0.4720   -2.6209   -0.2799 H   0  0  0  0  0  0  0  0  0  0  0  0
    0.3601   -1.7986    1.2704 H   0  0  0  0  0  0  0  0  0  0  0  0
  1  2  1  0
  1  9  1  0
  1 10  1  0
  1 11  1  0
  2  3  1  0
  2 12  1  0
  2 13  1  0
  3  4  1  0
  3 14  1  0
  3 15  1  0
  4  5  1  0
  4  8  1  0
  4 16  1  0
  5  6  1  0
  5 17  1  0
  5 18  1  0
  6  7  1  0
  6 19  1  0
  6 20  1  0
  7  8  1  0
  7 21  1  0
  7 22  1  0
  8  9  1  0
  8 23  1  0
  9 24  1  0
  9 25  1  0
M  END
>  <reaction>  (1) 
rxn_612

>  <mol_properties>  (1) 
{"5": {"label": "donator", "atom_type": "Cs"}, "18": {"label": "d_hydrogen", "atom_type": "H0"}}

>  <type>  (1) 
r1h

$$$$

     RDKit          3D

 11 10  0  0  0  0  0  0  0  0999 V2000
   -0.9580    1.1013   -2.2955 C   0  0  0  0  0  0  0  0  0  0  0  0
   -0.5129    0.5941   -1.2929 C   0  0  0  0  0  0  0  0  0  0  0  0
   -0.0301   -0.0160   -0.1357 C   0  0  0  0  0  3  0  0  0  0  0  0
   -0.6593   -1.2845    0.3661 C   0  0  0  0  0  0  0  0  0  0  0  0
    1.0691    0.5292    0.5269 C   0  0  0  0  0  0  0  0  0  0  0  0
    2.0168    0.9794    1.1266 C   0  0  0  0  0  0  0  0  0  0  0  0
   -1.3415    1.5561   -3.1769 H   0  0  0  0  0  0  0  0  0  0  0  0
   -1.7166   -1.3186    0.1054 H   0  0  0  0  0  0  0  0  0  0  0  0
   -0.1742   -2.1550   -0.0865 H   0  0  0  0  0  0  0  0  0  0  0  0
   -0.5505   -1.3663    1.4470 H   0  0  0  0  0  0  0  0  0  0  0  0
    2.8514    1.3842    1.6465 H   0  0  0  0  0  0  0  0  0  0  0  0
  1  2  3  0
  1  7  1  0
  2  3  1  0
  3  4  1  0
  3  5  1  0
  4  8  1  0
  4  9  1  0
  4 10  1  0
  5  6  3  0
  6 11  1  0
M  RAD  1   3   2
M  END
>  <reaction>  (2) 
rxn_612

>  <mol_properties>  (2) 
{"2": {"label": "acceptor", "atom_type": "Cs"}}

>  <type>  (2) 
r2

$$$$

     RDKit          3D

 12 11  0  0  0  0  0  0  0  0999 V2000
    2.1696    0.6854    1.1310 C   0  0  0  0  0  0  0  0  0  0  0  0
    1.2518    0.4145    0.4134 C   0  0  0  0  0  0  0  0  0  0  0  0
    0.1391    0.0443   -0.4683 C   0  0  0  0  0  0  0  0  0  0  0  0
   -0.2054   -1.4492   -0.3339 C   0  0  0  0  0  0  0  0  0  0  0  0
   -1.0375    0.8853   -0.2222 C   0  0  0  0  0  0  0  0  0  0  0  0
   -2.0160    1.5463   -0.0311 C   0  0  0  0  0  0  0  0  0  0  0  0
    2.9819    0.9356    1.7702 H   0  0  0  0  0  0  0  0  0  0  0  0
    0.4629    0.2285   -1.4981 H   0  0  0  0  0  0  0  0  0  0  0  0
   -0.5327   -1.6703    0.6812 H   0  0  0  0  0  0  0  0  0  0  0  0
    0.6727   -2.0535   -0.5593 H   0  0  0  0  0  0  0  0  0  0  0  0
   -1.0064   -1.7081   -1.0256 H   0  0  0  0  0  0  0  0  0  0  0  0
   -2.8802    2.1413    0.1426 H   0  0  0  0  0  0  0  0  0  0  0  0
  1  2  3  0
  1  7  1  0
  2  3  1  0
  3  4  1  0
  3  5  1  0
  3  8  1  0
  4  9  1  0
  4 10  1  0
  4 11  1  0
  5  6  3  0
  6 12  1  0
M  END
>  <reaction>  (3) 
rxn_612

>  <mol_properties>  (3) 
{"2": {"label": "acceptor", "atom_type": "Cs"}, "11": {"label": "a_hydrogen", "atom_type": "H0"}}

>  <type>  (3) 
r2h

$$$$

     RDKit          3D

 36 36  0  0  0  0  0  0  0  0999 V2000
   -2.4448    1.2183    1.0523 C   0  0  0  0  0  0  0  0  0  0  0  0
   -1.4284    1.7552    0.7068 C   0  0  0  0  0  0  0  0  0  0  0  0
   -0.2107    2.3666    0.2341 C   0  0  0  0  0  0  0  0  0  0  0  0
   -0.4257    3.5337   -0.7253 C   0  0  0  0  0  0  0  0  0  0  0  0
    0.7655    2.6119    1.2674 C   0  0  0  0  0  0  0  0  0  0  0  0
    1.6185    2.8061    2.0886 C   0  0  0  0  0  0  0  0  0  0  0  0
   -3.3450    0.7528    1.3739 H   0  0  0  0  0  0  0  0  0  0  0  0
   -1.0660    3.2202   -1.5503 H   0  0  0  0  0  0  0  0  0  0  0  0
   -0.8990    4.3754   -0.2177 H   0  0  0  0  0  0  0  0  0  0  0  0
    0.5325    3.8632   -1.1269 H   0  0  0  0  0  0  0  0  0  0  0  0
    2.3615    2.9827    2.8283 H   0  0  0  0  0  0  0  0  0  0  0  0
   -1.1800   -3.7060   -0.2576 C   0  0  0  0  0  0  0  0  0  0  0  0
   -0.3613   -3.4744    1.0155 C   0  0  0  0  0  0  0  0  0  0  0  0
    0.9064   -2.6541    0.7564 C   0  0  0  0  0  0  0  0  0  0  0  0
    0.5329   -1.3615    0.0557 C   0  0  0  0  0  0  0  0  0  0  0  0
    1.6320   -0.3998   -0.3846 C   0  0  0  0  0  0  0  0  0  0  0  0
    0.9037    0.4899   -1.3686 C   0  0  0  0  0  3  0  0  0  0  0  0
   -0.3027   -0.2560   -1.9147 C   0  0  0  0  0  0  0  0  0  0  0  0
   -0.2157   -1.6352   -1.2500 C   0  0  0  0  0  0  0  0  0  0  0  0
   -1.5007   -2.4019   -0.9943 C   0  0  0  0  0  0  0  0  0  0  0  0
   -0.6137   -4.3590   -0.9310 H   0  0  0  0  0  0  0  0  0  0  0  0
   -2.1022   -4.2378   -0.0123 H   0  0  0  0  0  0  0  0  0  0  0  0
   -0.9798   -2.9391    1.7441 H   0  0  0  0  0  0  0  0  0  0  0  0
   -0.1048   -4.4343    1.4695 H   0  0  0  0  0  0  0  0  0  0  0  0
    1.4258   -2.4552    1.6972 H   0  0  0  0  0  0  0  0  0  0  0  0
    1.5966   -3.2255    0.1242 H   0  0  0  0  0  0  0  0  0  0  0  0
   -0.1487   -0.8039    0.7120 H   0  0  0  0  0  0  0  0  0  0  0  0
    2.0822    0.1597    0.4387 H   0  0  0  0  0  0  0  0  0  0  0  0
    2.4406   -0.9481   -0.8865 H   0  0  0  0  0  0  0  0  0  0  0  0
    0.3365    1.4784   -0.5144 H   0  0  0  0  0  0  0  0  0  0  0  0
    1.4874    1.1112   -2.0428 H   0  0  0  0  0  0  0  0  0  0  0  0
   -0.3013   -0.3094   -3.0055 H   0  0  0  0  0  0  0  0  0  0  0  0
   -1.2360    0.2420   -1.6246 H   0  0  0  0  0  0  0  0  0  0  0  0
    0.4391   -2.2660   -1.8675 H   0  0  0  0  0  0  0  0  0  0  0  0
   -2.0269   -2.6153   -1.9284 H   0  0  0  0  0  0  0  0  0  0  0  0
   -2.1682   -1.7820   -0.3844 H   0  0  0  0  0  0  0  0  0  0  0  0
  1  2  3  0
  1  7  1  0
  2  3  1  0
  3  4  1  0
  3  5  1  0
  3 30  1  0
  4  8  1  0
  4  9  1  0
  4 10  1  0
  5  6  3  0
  6 11  1  0
 12 13  1  0
 12 20  1  0
 12 21  1  0
 12 22  1  0
 13 14  1  0
 13 23  1  0
 13 24  1  0
 14 15  1  0
 14 25  1  0
 14 26  1  0
 15 16  1  0
 15 19  1  0
 15 27  1  0
 16 17  1  0
 16 28  1  0
 16 29  1  0
 17 18  1  0
 17 31  1  0
 18 19  1  0
 18 32  1  0
 18 33  1  0
 19 20  1  0
 19 34  1  0
 20 35  1  0
 20 36  1  0
M  RAD  1  17   2
M  END
>  <reaction>  (4) 
rxn_612

>  <mol_properties>  (4) 
{"1": {"label": "*0", "atom_type": "Ct"}, "2": {"label": "*1", "atom_type": "Cs"}, "15": {"label": "*4", "atom_type": "Cs"}, "16": {"label": "*3", "atom_type": "Cs"}, "29": {"label": "*2", "atom_type": "H0"}}

>  <type>  (4) 
ts

$$$$

     RDKit          3D

 36 36  0  0  0  0  0  0  0  0999 V2000
    1.9914    4.5258    0.4181 C   0  0  0  0  0  0  0  0  0  0  0  0
    1.1575    3.6764    0.5360 C   0  0  0  0  0  0  0  0  0  0  0  0
    0.1297    2.6456    0.7188 C   0  0  0  0  0  3  0  0  0  0  0  0
   -0.8581    3.0349    1.8325 C   0  0  0  0  0  0  0  0  0  0  0  0
   -0.5714    2.3640   -0.5388 C   0  0  0  0  0  0  0  0  0  0  0  0
   -1.1697    2.1263   -1.5470 C   0  0  0  0  0  0  0  0  0  0  0  0
    2.7328    5.2810    0.3132 H   0  0  0  0  0  0  0  0  0  0  0  0
   -0.3188    3.2004    2.7645 H   0  0  0  0  0  0  0  0  0  0  0  0
   -1.3860    3.9493    1.5649 H   0  0  0  0  0  0  0  0  0  0  0  0
   -1.5869    2.2378    1.9763 H   0  0  0  0  0  0  0  0  0  0  0  0
   -1.7015    1.9150   -2.4433 H   0  0  0  0  0  0  0  0  0  0  0  0
   -1.0529   -3.8954   -0.9370 C   0  0  0  0  0  0  0  0  0  0  0  0
   -1.0529   -3.8954    0.5936 C   0  0  0  0  0  0  0  0  0  0  0  0
    0.0903   -3.0590    1.1756 C   0  0  0  0  0  0  0  0  0  0  0  0
    0.0506   -1.6581    0.5914 C   0  0  0  0  0  0  0  0  0  0  0  0
    1.1697   -0.6843    0.9469 C   0  0  0  0  0  0  0  0  0  0  0  0
    1.1197    0.3863   -0.1717 C   0  0  0  0  0  0  0  0  0  0  0  0
    0.2263   -0.2056   -1.2904 C   0  0  0  0  0  0  0  0  0  0  0  0
    0.1012   -1.6837   -0.9349 C   0  0  0  0  0  0  0  0  0  0  0  0
   -1.0529   -2.4790   -1.5190 C   0  0  0  0  0  0  0  0  0  0  0  0
   -0.1604   -4.4222   -1.2930 H   0  0  0  0  0  0  0  0  0  0  0  0
   -1.9137   -4.4565   -1.3078 H   0  0  0  0  0  0  0  0  0  0  0  0
   -2.0050   -3.4863    0.9495 H   0  0  0  0  0  0  0  0  0  0  0  0
   -0.9973   -4.9215    0.9643 H   0  0  0  0  0  0  0  0  0  0  0  0
    0.0230   -3.0331    2.2664 H   0  0  0  0  0  0  0  0  0  0  0  0
    1.0518   -3.5242    0.9275 H   0  0  0  0  0  0  0  0  0  0  0  0
   -0.9081   -1.1992    0.8740 H   0  0  0  0  0  0  0  0  0  0  0  0
    1.0609   -0.2563    1.9443 H   0  0  0  0  0  0  0  0  0  0  0  0
    2.1273   -1.2128    0.9265 H   0  0  0  0  0  0  0  0  0  0  0  0
    0.6258    1.5135    0.2726 H   0  0  0  0  0  0  0  0  0  0  0  0
    2.1209    0.6088   -0.5420 H   0  0  0  0  0  0  0  0  0  0  0  0
    0.6359   -0.0407   -2.2878 H   0  0  0  0  0  0  0  0  0  0  0  0
   -0.7658    0.2552   -1.2699 H   0  0  0  0  0  0  0  0  0  0  0  0
    1.0376   -2.1865   -1.2175 H   0  0  0  0  0  0  0  0  0  0  0  0
   -0.9922   -2.5180   -2.6099 H   0  0  0  0  0  0  0  0  0  0  0  0
   -1.9960   -1.9777   -1.2710 H   0  0  0  0  0  0  0  0  0  0  0  0
  1  2  3  0
  1  7  1  0
  2  3  1  0
  3  4  1  0
  3  5  1  0
  4  8  1  0
  4  9  1  0
  4 10  1  0
  5  6  3  0
  6 11  1  0
 12 13  1  0
 12 20  1  0
 12 21  1  0
 12 22  1  0
 13 14  1  0
 13 23  1  0
 13 24  1  0
 14 15  1  0
 14 25  1  0
 14 26  1  0
 15 16  1  0
 15 19  1  0
 15 27  1  0
 16 17  1  0
 16 28  1  0
 16 29  1  0
 17 18  1  0
 17 30  1  0
 17 31  1  0
 18 19  1  0
 18 32  1  0
 18 33  1  0
 19 20  1  0
 19 34  1  0
 20 35  1  0
 20 36  1  0
M  RAD  1   3   2
M  END
>  <reaction>  (5) 
rxn_612

>  <mol_properties>  (5) 
{"1": {"label": "*0", "atom_type": "Ct"}, "2": {"label": "*1", "atom_type": "Cs"}, "15": {"label": "*4", "atom_type": "Cs"}, "16": {"label": "*3", "atom_type": "Cs"}, "29": {"label": "*2", "atom_type": "H0"}}

>  <type>  (5) 
unop_1

>  <geom_source>  (5) 
Heuristics

$$$$

     RDKit          3D

 36 36  0  0  0  0  0  0  0  0999 V2000
    0.5876    2.7920    3.0530 C   0  0  0  0  0  0  0  0  0  0  0  0
    0.3401    2.7171    1.8851 C   0  0  0  0  0  0  0  0  0  0  0  0
   -0.0020    2.6199    0.4618 C   0  0  0  0  0  3  0  0  0  0  0  0
   -1.4611    3.0382    0.2096 C   0  0  0  0  0  0  0  0  0  0  0  0
    0.9252    3.4020   -0.3633 C   0  0  0  0  0  0  0  0  0  0  0  0
    1.6573    4.0442   -1.0579 C   0  0  0  0  0  0  0  0  0  0  0  0
    0.8077    2.8585    4.0913 H   0  0  0  0  0  0  0  0  0  0  0  0
   -2.1320    2.4178    0.8029 H   0  0  0  0  0  0  0  0  0  0  0  0
   -1.6076    4.0807    0.4890 H   0  0  0  0  0  0  0  0  0  0  0  0
   -1.7029    2.9201   -0.8462 H   0  0  0  0  0  0  0  0  0  0  0  0
    2.3082    4.6151   -1.6754 H   0  0  0  0  0  0  0  0  0  0  0  0
   -1.1846   -3.9212   -1.1940 C   0  0  0  0  0  0  0  0  0  0  0  0
   -1.1846   -3.9212    0.3366 C   0  0  0  0  0  0  0  0  0  0  0  0
   -0.0414   -3.0848    0.9185 C   0  0  0  0  0  0  0  0  0  0  0  0
   -0.0811   -1.6838    0.3344 C   0  0  0  0  0  0  0  0  0  0  0  0
    1.0380   -0.7100    0.6899 C   0  0  0  0  0  0  0  0  0  0  0  0
    0.9880    0.3605   -0.4287 C   0  0  0  0  0  0  0  0  0  0  0  0
    0.0946   -0.2313   -1.5474 C   0  0  0  0  0  0  0  0  0  0  0  0
   -0.0305   -1.7094   -1.1919 C   0  0  0  0  0  0  0  0  0  0  0  0
   -1.1846   -2.5048   -1.7760 C   0  0  0  0  0  0  0  0  0  0  0  0
   -0.2921   -4.4480   -1.5500 H   0  0  0  0  0  0  0  0  0  0  0  0
   -2.0454   -4.4823   -1.5648 H   0  0  0  0  0  0  0  0  0  0  0  0
   -2.1367   -3.5120    0.6925 H   0  0  0  0  0  0  0  0  0  0  0  0
   -1.1290   -4.9473    0.7073 H   0  0  0  0  0  0  0  0  0  0  0  0
   -0.1087   -3.0588    2.0094 H   0  0  0  0  0  0  0  0  0  0  0  0
    0.9201   -3.5499    0.6705 H   0  0  0  0  0  0  0  0  0  0  0  0
   -1.0398   -1.2250    0.6170 H   0  0  0  0  0  0  0  0  0  0  0  0
    0.9292   -0.2821    1.6873 H   0  0  0  0  0  0  0  0  0  0  0  0
    1.9956   -1.2386    0.6695 H   0  0  0  0  0  0  0  0  0  0  0  0
    0.4941    1.4878    0.0156 H   0  0  0  0  0  0  0  0  0  0  0  0
    1.9892    0.5830   -0.7990 H   0  0  0  0  0  0  0  0  0  0  0  0
    0.5042   -0.0664   -2.5448 H   0  0  0  0  0  0  0  0  0  0  0  0
   -0.8975    0.2294   -1.5269 H   0  0  0  0  0  0  0  0  0  0  0  0
    0.9059   -2.2123   -1.4745 H   0  0  0  0  0  0  0  0  0  0  0  0
   -1.1239   -2.5437   -2.8669 H   0  0  0  0  0  0  0  0  0  0  0  0
   -2.1277   -2.0034   -1.5280 H   0  0  0  0  0  0  0  0  0  0  0  0
  1  2  3  0
  1  7  1  0
  2  3  1  0
  3  4  1  0
  3  5  1  0
  4  8  1  0
  4  9  1  0
  4 10  1  0
  5  6  3  0
  6 11  1  0
 12 13  1  0
 12 20  1  0
 12 21  1  0
 12 22  1  0
 13 14  1  0
 13 23  1  0
 13 24  1  0
 14 15  1  0
 14 25  1  0
 14 26  1  0
 15 16  1  0
 15 19  1  0
 15 27  1  0
 16 17  1  0
 16 28  1  0
 16 29  1  0
 17 18  1  0
 17 30  1  0
 17 31  1  0
 18 19  1  0
 18 32  1  0
 18 33  1  0
 19 20  1  0
 19 34  1  0
 20 35  1  0
 20 36  1  0
M  RAD  1   3   2
M  END
>  <reaction>  (6) 
rxn_612

>  <mol_properties>  (6) 
{"1": {"label": "*0", "atom_type": "Ct"}, "2": {"label": "*1", "atom_type": "Cs"}, "15": {"label": "*4", "atom_type": "Cs"}, "16": {"label": "*3", "atom_type": "Cs"}, "29": {"label": "*2", "atom_type": "H0"}}

>  <type>  (6) 
unop_2

>  <geom_source>  (6) 
Heuristics

$$$$

     RDKit          3D

 36 36  0  0  0  0  0  0  0  0999 V2000
    1.3690    4.6448   -0.6962 C   0  0  0  0  0  0  0  0  0  0  0  0
    0.8553    3.7497   -0.0913 C   0  0  0  0  0  0  0  0  0  0  0  0
    0.2411    2.6665    0.6844 C   0  0  0  0  0  3  0  0  0  0  0  0
    0.0022    3.0921    2.1436 C   0  0  0  0  0  0  0  0  0  0  0  0
   -1.0003    2.2001    0.0569 C   0  0  0  0  0  0  0  0  0  0  0  0
   -2.0237    1.8114   -0.4252 C   0  0  0  0  0  0  0  0  0  0  0  0
    1.8257    5.4405   -1.2339 H   0  0  0  0  0  0  0  0  0  0  0  0
    0.9438    3.3965    2.5994 H   0  0  0  0  0  0  0  0  0  0  0  0
   -0.6937    3.9291    2.1826 H   0  0  0  0  0  0  0  0  0  0  0  0
   -0.4172    2.2599    2.7081 H   0  0  0  0  0  0  0  0  0  0  0  0
   -2.9335    1.4659   -0.8538 H   0  0  0  0  0  0  0  0  0  0  0  0
   -0.9414   -3.8745   -0.9714 C   0  0  0  0  0  0  0  0  0  0  0  0
   -0.9414   -3.8745    0.5592 C   0  0  0  0  0  0  0  0  0  0  0  0
    0.2017   -3.0381    1.1412 C   0  0  0  0  0  0  0  0  0  0  0  0
    0.1621   -1.6372    0.5571 C   0  0  0  0  0  0  0  0  0  0  0  0
    1.2812   -0.6634    0.9125 C   0  0  0  0  0  0  0  0  0  0  0  0
    1.2312    0.4072   -0.2061 C   0  0  0  0  0  0  0  0  0  0  0  0
    0.3377   -0.1847   -1.3248 C   0  0  0  0  0  0  0  0  0  0  0  0
    0.2126   -1.6628   -0.9693 C   0  0  0  0  0  0  0  0  0  0  0  0
   -0.9414   -2.4581   -1.5534 C   0  0  0  0  0  0  0  0  0  0  0  0
   -0.0490   -4.4013   -1.3274 H   0  0  0  0  0  0  0  0  0  0  0  0
   -1.8023   -4.4356   -1.3421 H   0  0  0  0  0  0  0  0  0  0  0  0
   -1.8935   -3.4654    0.9151 H   0  0  0  0  0  0  0  0  0  0  0  0
   -0.8859   -4.9006    0.9299 H   0  0  0  0  0  0  0  0  0  0  0  0
    0.1345   -3.0122    2.2320 H   0  0  0  0  0  0  0  0  0  0  0  0
    1.1632   -3.5033    0.8931 H   0  0  0  0  0  0  0  0  0  0  0  0
   -0.7967   -1.1783    0.8396 H   0  0  0  0  0  0  0  0  0  0  0  0
    1.1723   -0.2354    1.9099 H   0  0  0  0  0  0  0  0  0  0  0  0
    2.2388   -1.1919    0.8921 H   0  0  0  0  0  0  0  0  0  0  0  0
    0.7372    1.5344    0.2382 H   0  0  0  0  0  0  0  0  0  0  0  0
    2.2324    0.6296   -0.5764 H   0  0  0  0  0  0  0  0  0  0  0  0
    0.7473   -0.0198   -2.3222 H   0  0  0  0  0  0  0  0  0  0  0  0
   -0.6543    0.2761   -1.3043 H   0  0  0  0  0  0  0  0  0  0  0  0
    1.1491   -2.1656   -1.2518 H   0  0  0  0  0  0  0  0  0  0  0  0
   -0.8808   -2.4971   -2.6443 H   0  0  0  0  0  0  0  0  0  0  0  0
   -1.8846   -1.9568   -1.3054 H   0  0  0  0  0  0  0  0  0  0  0  0
  1  2  3  0
  1  7  1  0
  2  3  1  0
  3  4  1  0
  3  5  1  0
  4  8  1  0
  4  9  1  0
  4 10  1  0
  5  6  3  0
  6 11  1  0
 12 13  1  0
 12 20  1  0
 12 21  1  0
 12 22  1  0
 13 14  1  0
 13 23  1  0
 13 24  1  0
 14 15  1  0
 14 25  1  0
 14 26  1  0
 15 16  1  0
 15 19  1  0
 15 27  1  0
 16 17  1  0
 16 28  1  0
 16 29  1  0
 17 18  1  0
 17 30  1  0
 17 31  1  0
 18 19  1  0
 18 32  1  0
 18 33  1  0
 19 20  1  0
 19 34  1  0
 20 35  1  0
 20 36  1  0
M  RAD  1   3   2
M  END
>  <reaction>  (7) 
rxn_612

>  <mol_properties>  (7) 
{"1": {"label": "*0", "atom_type": "Ct"}, "2": {"label": "*1", "atom_type": "Cs"}, "15": {"label": "*4", "atom_type": "Cs"}, "16": {"label": "*3", "atom_type": "Cs"}, "29": {"label": "*2", "atom_type": "H0"}}

>  <type>  (7) 
unop_3

>  <geom_source>  (7) 
Heuristics

$$$$

     RDKit          3D

 36 36  0  0  0  0  0  0  0  0999 V2000
   -2.2336    2.1302    1.2878 C   0  0  0  0  0  0  0  0  0  0  0  0
   -1.1179    2.3654    0.9263 C   0  0  0  0  0  0  0  0  0  0  0  0
    0.2406    2.6416    0.4461 C   0  0  0  0  0  3  0  0  0  0  0  0
    0.2471    2.9479   -1.0618 C   0  0  0  0  0  0  0  0  0  0  0  0
    0.8654    3.7262    1.2113 C   0  0  0  0  0  0  0  0  0  0  0  0
    1.3925    4.6183    1.8089 C   0  0  0  0  0  0  0  0  0  0  0  0
   -3.2255    1.9211    1.6092 H   0  0  0  0  0  0  0  0  0  0  0  0
   -0.1854    2.1124   -1.6112 H   0  0  0  0  0  0  0  0  0  0  0  0
   -0.3380    3.8435   -1.2666 H   0  0  0  0  0  0  0  0  0  0  0  0
    1.2692    3.1105   -1.4021 H   0  0  0  0  0  0  0  0  0  0  0  0
    1.8612    5.4114    2.3402 H   0  0  0  0  0  0  0  0  0  0  0  0
   -0.9419   -3.8994   -1.2097 C   0  0  0  0  0  0  0  0  0  0  0  0
   -0.9419   -3.8994    0.3209 C   0  0  0  0  0  0  0  0  0  0  0  0
    0.2012   -3.0630    0.9029 C   0  0  0  0  0  0  0  0  0  0  0  0
    0.1616   -1.6620    0.3187 C   0  0  0  0  0  0  0  0  0  0  0  0
    1.2806   -0.6883    0.6742 C   0  0  0  0  0  0  0  0  0  0  0  0
    1.2307    0.3823   -0.4444 C   0  0  0  0  0  0  0  0  0  0  0  0
    0.3372   -0.2095   -1.5631 C   0  0  0  0  0  0  0  0  0  0  0  0
    0.2121   -1.6877   -1.2076 C   0  0  0  0  0  0  0  0  0  0  0  0
   -0.9419   -2.4830   -1.7917 C   0  0  0  0  0  0  0  0  0  0  0  0
   -0.0495   -4.4262   -1.5657 H   0  0  0  0  0  0  0  0  0  0  0  0
   -1.8028   -4.4605   -1.5805 H   0  0  0  0  0  0  0  0  0  0  0  0
   -1.8941   -3.4903    0.6768 H   0  0  0  0  0  0  0  0  0  0  0  0
   -0.8864   -4.9255    0.6916 H   0  0  0  0  0  0  0  0  0  0  0  0
    0.1339   -3.0371    1.9937 H   0  0  0  0  0  0  0  0  0  0  0  0
    1.1627   -3.5281    0.6548 H   0  0  0  0  0  0  0  0  0  0  0  0
   -0.7972   -1.2032    0.6013 H   0  0  0  0  0  0  0  0  0  0  0  0
    1.1718   -0.2603    1.6716 H   0  0  0  0  0  0  0  0  0  0  0  0
    2.2382   -1.2168    0.6538 H   0  0  0  0  0  0  0  0  0  0  0  0
    0.7367    1.5096   -0.0001 H   0  0  0  0  0  0  0  0  0  0  0  0
    2.2319    0.6048   -0.8147 H   0  0  0  0  0  0  0  0  0  0  0  0
    0.7468   -0.0447   -2.5605 H   0  0  0  0  0  0  0  0  0  0  0  0
   -0.6549    0.2512   -1.5426 H   0  0  0  0  0  0  0  0  0  0  0  0
    1.1486   -2.1905   -1.4902 H   0  0  0  0  0  0  0  0  0  0  0  0
   -0.8813   -2.5219   -2.8826 H   0  0  0  0  0  0  0  0  0  0  0  0
   -1.8851   -1.9816   -1.5437 H   0  0  0  0  0  0  0  0  0  0  0  0
  1  2  3  0
  1  7  1  0
  2  3  1  0
  3  4  1  0
  3  5  1  0
  4  8  1  0
  4  9  1  0
  4 10  1  0
  5  6  3  0
  6 11  1  0
 12 13  1  0
 12 20  1  0
 12 21  1  0
 12 22  1  0
 13 14  1  0
 13 23  1  0
 13 24  1  0
 14 15  1  0
 14 25  1  0
 14 26  1  0
 15 16  1  0
 15 19  1  0
 15 27  1  0
 16 17  1  0
 16 28  1  0
 16 29  1  0
 17 18  1  0
 17 30  1  0
 17 31  1  0
 18 19  1  0
 18 32  1  0
 18 33  1  0
 19 20  1  0
 19 34  1  0
 20 35  1  0
 20 36  1  0
M  RAD  1   3   2
M  END
>  <reaction>  (8) 
rxn_612

>  <mol_properties>  (8) 
{"1": {"label": "*0", "atom_type": "Ct"}, "2": {"label": "*1", "atom_type": "Cs"}, "15": {"label": "*4", "atom_type": "Cs"}, "16": {"label": "*3", "atom_type": "Cs"}, "29": {"label": "*2", "atom_type": "H0"}}

>  <type>  (8) 
unop_4

>  <geom_source>  (8) 
Heuristics

$$$$

     RDKit          3D

 36 36  0  0  0  0  0  0  0  0999 V2000
    0.2978    4.3793   -1.4521 C   0  0  0  0  0  0  0  0  0  0  0  0
    0.2750    3.5973   -0.5473 C   0  0  0  0  0  0  0  0  0  0  0  0
    0.2832    2.6507    0.5736 C   0  0  0  0  0  3  0  0  0  0  0  0
    1.1823    3.1502    1.7180 C   0  0  0  0  0  0  0  0  0  0  0  0
   -1.0775    2.3757    1.0481 C   0  0  0  0  0  0  0  0  0  0  0  0
   -2.1749    2.1459    1.4649 C   0  0  0  0  0  0  0  0  0  0  0  0
    0.3182    5.0746   -2.2566 H   0  0  0  0  0  0  0  0  0  0  0  0
    2.1955    3.3095    1.3504 H   0  0  0  0  0  0  0  0  0  0  0  0
    0.8004    4.0902    2.1141 H   0  0  0  0  0  0  0  0  0  0  0  0
    1.2035    2.4136    2.5206 H   0  0  0  0  0  0  0  0  0  0  0  0
   -3.1505    1.9417    1.8354 H   0  0  0  0  0  0  0  0  0  0  0  0
   -0.8993   -3.8903   -1.0823 C   0  0  0  0  0  0  0  0  0  0  0  0
   -0.8993   -3.8903    0.4483 C   0  0  0  0  0  0  0  0  0  0  0  0
    0.2438   -3.0539    1.0303 C   0  0  0  0  0  0  0  0  0  0  0  0
    0.2042   -1.6529    0.4462 C   0  0  0  0  0  0  0  0  0  0  0  0
    1.3233   -0.6791    0.8017 C   0  0  0  0  0  0  0  0  0  0  0  0
    1.2733    0.3914   -0.3170 C   0  0  0  0  0  0  0  0  0  0  0  0
    0.3798   -0.2004   -1.4356 C   0  0  0  0  0  0  0  0  0  0  0  0
    0.2548   -1.6786   -1.0802 C   0  0  0  0  0  0  0  0  0  0  0  0
   -0.8993   -2.4739   -1.6643 C   0  0  0  0  0  0  0  0  0  0  0  0
   -0.0068   -4.4171   -1.4382 H   0  0  0  0  0  0  0  0  0  0  0  0
   -1.7602   -4.4514   -1.4530 H   0  0  0  0  0  0  0  0  0  0  0  0
   -1.8514   -3.4811    0.8043 H   0  0  0  0  0  0  0  0  0  0  0  0
   -0.8437   -4.9164    0.8190 H   0  0  0  0  0  0  0  0  0  0  0  0
    0.1766   -3.0280    2.1212 H   0  0  0  0  0  0  0  0  0  0  0  0
    1.2054   -3.5190    0.7823 H   0  0  0  0  0  0  0  0  0  0  0  0
   -0.7546   -1.1941    0.7287 H   0  0  0  0  0  0  0  0  0  0  0  0
    1.2145   -0.2512    1.7991 H   0  0  0  0  0  0  0  0  0  0  0  0
    2.2809   -1.2077    0.7812 H   0  0  0  0  0  0  0  0  0  0  0  0
    0.7793    1.5187    0.1273 H   0  0  0  0  0  0  0  0  0  0  0  0
    2.2745    0.6139   -0.6872 H   0  0  0  0  0  0  0  0  0  0  0  0
    0.7895   -0.0355   -2.4330 H   0  0  0  0  0  0  0  0  0  0  0  0
   -0.6122    0.2603   -1.4152 H   0  0  0  0  0  0  0  0  0  0  0  0
    1.1912   -2.1814   -1.3627 H   0  0  0  0  0  0  0  0  0  0  0  0
   -0.8386   -2.5128   -2.7551 H   0  0  0  0  0  0  0  0  0  0  0  0
   -1.8424   -1.9725   -1.4162 H   0  0  0  0  0  0  0  0  0  0  0  0
  1  2  3  0
  1  7  1  0
  2  3  1  0
  3  4  1  0
  3  5  1  0
  4  8  1  0
  4  9  1  0
  4 10  1  0
  5  6  3  0
  6 11  1  0
 12 13  1  0
 12 20  1  0
 12 21  1  0
 12 22  1  0
 13 14  1  0
 13 23  1  0
 13 24  1  0
 14 15  1  0
 14 25  1  0
 14 26  1  0
 15 16  1  0
 15 19  1  0
 15 27  1  0
 16 17  1  0
 16 28  1  0
 16 29  1  0
 17 18  1  0
 17 30  1  0
 17 31  1  0
 18 19  1  0
 18 32  1  0
 18 33  1  0
 19 20  1  0
 19 34  1  0
 20 35  1  0
 20 36  1  0
M  RAD  1   3   2
M  END
>  <reaction>  (9) 
rxn_612

>  <mol_properties>  (9) 
{"1": {"label": "*0", "atom_type": "Ct"}, "2": {"label": "*1", "atom_type": "Cs"}, "15": {"label": "*4", "atom_type": "Cs"}, "16": {"label": "*3", "atom_type": "Cs"}, "29": {"label": "*2", "atom_type": "H0"}}

>  <type>  (9) 
unop_5

>  <geom_source>  (9) 
Heuristics

$$$$

     RDKit          3D

 36 36  0  0  0  0  0  0  0  0999 V2000
   -2.3840    2.5293    0.0989 C   0  0  0  0  0  0  0  0  0  0  0  0
   -1.2049    2.5762    0.2946 C   0  0  0  0  0  0  0  0  0  0  0  0
    0.2474    2.6249    0.4961 C   0  0  0  0  0  3  0  0  0  0  0  0
    0.9796    2.9801   -0.8098 C   0  0  0  0  0  0  0  0  0  0  0  0
    0.6044    3.5531    1.5748 C   0  0  0  0  0  0  0  0  0  0  0  0
    0.9240    4.3153    2.4395 C   0  0  0  0  0  0  0  0  0  0  0  0
   -3.4323    2.4875   -0.0751 H   0  0  0  0  0  0  0  0  0  0  0  0
    0.7295    2.2550   -1.5835 H   0  0  0  0  0  0  0  0  0  0  0  0
    0.6843    3.9720   -1.1492 H   0  0  0  0  0  0  0  0  0  0  0  0
    2.0565    2.9715   -0.6446 H   0  0  0  0  0  0  0  0  0  0  0  0
    1.2082    4.9929    3.2082 H   0  0  0  0  0  0  0  0  0  0  0  0
   -0.9351   -3.9161   -1.1597 C   0  0  0  0  0  0  0  0  0  0  0  0
   -0.9351   -3.9161    0.3709 C   0  0  0  0  0  0  0  0  0  0  0  0
    0.2080   -3.0797    0.9529 C   0  0  0  0  0  0  0  0  0  0  0  0
    0.1684   -1.6787    0.3688 C   0  0  0  0  0  0  0  0  0  0  0  0
    1.2875   -0.7050    0.7242 C   0  0  0  0  0  0  0  0  0  0  0  0
    1.2375    0.3656   -0.3944 C   0  0  0  0  0  0  0  0  0  0  0  0
    0.3440   -0.2262   -1.5130 C   0  0  0  0  0  0  0  0  0  0  0  0
    0.2190   -1.7044   -1.1576 C   0  0  0  0  0  0  0  0  0  0  0  0
   -0.9351   -2.4997   -1.7417 C   0  0  0  0  0  0  0  0  0  0  0  0
   -0.0426   -4.4429   -1.5156 H   0  0  0  0  0  0  0  0  0  0  0  0
   -1.7960   -4.4772   -1.5304 H   0  0  0  0  0  0  0  0  0  0  0  0
   -1.8872   -3.5070    0.7268 H   0  0  0  0  0  0  0  0  0  0  0  0
   -0.8795   -4.9422    0.7416 H   0  0  0  0  0  0  0  0  0  0  0  0
    0.1408   -3.0538    2.0437 H   0  0  0  0  0  0  0  0  0  0  0  0
    1.1696   -3.5448    0.7048 H   0  0  0  0  0  0  0  0  0  0  0  0
   -0.7904   -1.2199    0.6513 H   0  0  0  0  0  0  0  0  0  0  0  0
    1.1787   -0.2770    1.7216 H   0  0  0  0  0  0  0  0  0  0  0  0
    2.2451   -1.2335    0.7038 H   0  0  0  0  0  0  0  0  0  0  0  0
    0.7435    1.4929    0.0499 H   0  0  0  0  0  0  0  0  0  0  0  0
    2.2387    0.5881   -0.7647 H   0  0  0  0  0  0  0  0  0  0  0  0
    0.7537   -0.0614   -2.5105 H   0  0  0  0  0  0  0  0  0  0  0  0
   -0.6480    0.2345   -1.4926 H   0  0  0  0  0  0  0  0  0  0  0  0
    1.1554   -2.2072   -1.4401 H   0  0  0  0  0  0  0  0  0  0  0  0
   -0.8744   -2.5386   -2.8326 H   0  0  0  0  0  0  0  0  0  0  0  0
   -1.8782   -1.9983   -1.4937 H   0  0  0  0  0  0  0  0  0  0  0  0
  1  2  3  0
  1  7  1  0
  2  3  1  0
  3  4  1  0
  3  5  1  0
  4  8  1  0
  4  9  1  0
  4 10  1  0
  5  6  3  0
  6 11  1  0
 12 13  1  0
 12 20  1  0
 12 21  1  0
 12 22  1  0
 13 14  1  0
 13 23  1  0
 13 24  1  0
 14 15  1  0
 14 25  1  0
 14 26  1  0
 15 16  1  0
 15 19  1  0
 15 27  1  0
 16 17  1  0
 16 28  1  0
 16 29  1  0
 17 18  1  0
 17 30  1  0
 17 31  1  0
 18 19  1  0
 18 32  1  0
 18 33  1  0
 19 20  1  0
 19 34  1  0
 20 35  1  0
 20 36  1  0
M  RAD  1   3   2
M  END
>  <reaction>  (10) 
rxn_612

>  <mol_properties>  (10) 
{"1": {"label": "*0", "atom_type": "Ct"}, "2": {"label": "*1", "atom_type": "Cs"}, "15": {"label": "*4", "atom_type": "Cs"}, "16": {"label": "*3", "atom_type": "Cs"}, "29": {"label": "*2", "atom_type": "H0"}}

>  <type>  (10) 
unop_6

>  <geom_source>  (10) 
Heuristics

$$$$

     RDKit          3D

 36 36  0  0  0  0  0  0  0  0999 V2000
   -1.9306    3.1393   -0.9444 C   0  0  0  0  0  0  0  0  0  0  0  0
   -0.9687    2.9036   -0.2735 C   0  0  0  0  0  0  0  0  0  0  0  0
    0.2327    2.6106    0.5159 C   0  0  0  0  0  3  0  0  0  0  0  0
    1.5101    3.0036   -0.2467 C   0  0  0  0  0  0  0  0  0  0  0  0
    0.1775    3.2600    1.8303 C   0  0  0  0  0  0  0  0  0  0  0  0
    0.1651    3.7910    2.9020 C   0  0  0  0  0  0  0  0  0  0  0  0
   -2.7857    3.3490   -1.5408 H   0  0  0  0  0  0  0  0  0  0  0  0
    1.5477    2.4793   -1.2010 H   0  0  0  0  0  0  0  0  0  0  0  0
    1.5214    4.0764   -0.4346 H   0  0  0  0  0  0  0  0  0  0  0  0
    2.3884    2.7407    0.3420 H   0  0  0  0  0  0  0  0  0  0  0  0
    0.1541    4.2631    3.8549 H   0  0  0  0  0  0  0  0  0  0  0  0
   -0.9498   -3.9305   -1.1400 C   0  0  0  0  0  0  0  0  0  0  0  0
   -0.9498   -3.9305    0.3906 C   0  0  0  0  0  0  0  0  0  0  0  0
    0.1933   -3.0941    0.9726 C   0  0  0  0  0  0  0  0  0  0  0  0
    0.1537   -1.6931    0.3885 C   0  0  0  0  0  0  0  0  0  0  0  0
    1.2728   -0.7193    0.7440 C   0  0  0  0  0  0  0  0  0  0  0  0
    1.2228    0.3513   -0.3747 C   0  0  0  0  0  0  0  0  0  0  0  0
    0.3293   -0.2406   -1.4933 C   0  0  0  0  0  0  0  0  0  0  0  0
    0.2042   -1.7187   -1.1379 C   0  0  0  0  0  0  0  0  0  0  0  0
   -0.9498   -2.5140   -1.7220 C   0  0  0  0  0  0  0  0  0  0  0  0
   -0.0574   -4.4573   -1.4959 H   0  0  0  0  0  0  0  0  0  0  0  0
   -1.8107   -4.4915   -1.5107 H   0  0  0  0  0  0  0  0  0  0  0  0
   -1.9019   -3.5213    0.7466 H   0  0  0  0  0  0  0  0  0  0  0  0
   -0.8943   -4.9565    0.7613 H   0  0  0  0  0  0  0  0  0  0  0  0
    0.1261   -3.0681    2.0635 H   0  0  0  0  0  0  0  0  0  0  0  0
    1.1548   -3.5592    0.7246 H   0  0  0  0  0  0  0  0  0  0  0  0
   -0.8051   -1.2342    0.6710 H   0  0  0  0  0  0  0  0  0  0  0  0
    1.1639   -0.2914    1.7414 H   0  0  0  0  0  0  0  0  0  0  0  0
    2.2304   -1.2478    0.7235 H   0  0  0  0  0  0  0  0  0  0  0  0
    0.7288    1.4785    0.0696 H   0  0  0  0  0  0  0  0  0  0  0  0
    2.2240    0.5737   -0.7449 H   0  0  0  0  0  0  0  0  0  0  0  0
    0.7389   -0.0757   -2.4907 H   0  0  0  0  0  0  0  0  0  0  0  0
   -0.6627    0.2202   -1.4729 H   0  0  0  0  0  0  0  0  0  0  0  0
    1.1407   -2.2215   -1.4204 H   0  0  0  0  0  0  0  0  0  0  0  0
   -0.8892   -2.5530   -2.8128 H   0  0  0  0  0  0  0  0  0  0  0  0
   -1.8930   -2.0127   -1.4739 H   0  0  0  0  0  0  0  0  0  0  0  0
  1  2  3  0
  1  7  1  0
  2  3  1  0
  3  4  1  0
  3  5  1  0
  4  8  1  0
  4  9  1  0
  4 10  1  0
  5  6  3  0
  6 11  1  0
 12 13  1  0
 12 20  1  0
 12 21  1  0
 12 22  1  0
 13 14  1  0
 13 23  1  0
 13 24  1  0
 14 15  1  0
 14 25  1  0
 14 26  1  0
 15 16  1  0
 15 19  1  0
 15 27  1  0
 16 17  1  0
 16 28  1  0
 16 29  1  0
 17 18  1  0
 17 30  1  0
 17 31  1  0
 18 19  1  0
 18 32  1  0
 18 33  1  0
 19 20  1  0
 19 34  1  0
 20 35  1  0
 20 36  1  0
M  RAD  1   3   2
M  END
>  <reaction>  (11) 
rxn_612

>  <mol_properties>  (11) 
{"1": {"label": "*0", "atom_type": "Ct"}, "2": {"label": "*1", "atom_type": "Cs"}, "15": {"label": "*4", "atom_type": "Cs"}, "16": {"label": "*3", "atom_type": "Cs"}, "29": {"label": "*2", "atom_type": "H0"}}

>  <type>  (11) 
unop_7

>  <geom_source>  (11) 
Heuristics

$$$$

     RDKit          3D

 36 36  0  0  0  0  0  0  0  0999 V2000
    2.0490    4.0858    1.6035 C   0  0  0  0  0  0  0  0  0  0  0  0
    1.1510    3.4258    1.1691 C   0  0  0  0  0  0  0  0  0  0  0  0
    0.0293    2.6226    0.6702 C   0  0  0  0  0  3  0  0  0  0  0  0
   -1.2965    3.0506    1.3233 C   0  0  0  0  0  0  0  0  0  0  0  0
   -0.0567    2.6793   -0.7933 C   0  0  0  0  0  0  0  0  0  0  0  0
   -0.1590    2.7210   -1.9844 C   0  0  0  0  0  0  0  0  0  0  0  0
    2.8474    4.6726    1.9898 H   0  0  0  0  0  0  0  0  0  0  0  0
   -1.2210    2.9625    2.4066 H   0  0  0  0  0  0  0  0  0  0  0  0
   -1.5244    4.0851    1.0700 H   0  0  0  0  0  0  0  0  0  0  0  0
   -2.1067    2.4150    0.9673 H   0  0  0  0  0  0  0  0  0  0  0  0
   -0.2500    2.7580   -3.0433 H   0  0  0  0  0  0  0  0  0  0  0  0
   -1.1532   -3.9184   -0.9857 C   0  0  0  0  0  0  0  0  0  0  0  0
   -1.1532   -3.9184    0.5449 C   0  0  0  0  0  0  0  0  0  0  0  0
   -0.0101   -3.0821    1.1269 C   0  0  0  0  0  0  0  0  0  0  0  0
   -0.0497   -1.6811    0.5428 C   0  0  0  0  0  0  0  0  0  0  0  0
    1.0693   -0.7073    0.8983 C   0  0  0  0  0  0  0  0  0  0  0  0
    1.0194    0.3633   -0.2204 C   0  0  0  0  0  0  0  0  0  0  0  0
    0.1259   -0.2286   -1.3390 C   0  0  0  0  0  0  0  0  0  0  0  0
    0.0008   -1.7067   -0.9835 C   0  0  0  0  0  0  0  0  0  0  0  0
   -1.1532   -2.5020   -1.5677 C   0  0  0  0  0  0  0  0  0  0  0  0
   -0.2608   -4.4453   -1.3416 H   0  0  0  0  0  0  0  0  0  0  0  0
   -2.0141   -4.4795   -1.3564 H   0  0  0  0  0  0  0  0  0  0  0  0
   -2.1054   -3.5093    0.9009 H   0  0  0  0  0  0  0  0  0  0  0  0
   -1.0977   -4.9445    0.9157 H   0  0  0  0  0  0  0  0  0  0  0  0
   -0.0774   -3.0561    2.2178 H   0  0  0  0  0  0  0  0  0  0  0  0
    0.9514   -3.5472    0.8789 H   0  0  0  0  0  0  0  0  0  0  0  0
   -1.0085   -1.2222    0.8254 H   0  0  0  0  0  0  0  0  0  0  0  0
    0.9605   -0.2793    1.8957 H   0  0  0  0  0  0  0  0  0  0  0  0
    2.0270   -1.2358    0.8778 H   0  0  0  0  0  0  0  0  0  0  0  0
    0.5254    1.4905    0.2240 H   0  0  0  0  0  0  0  0  0  0  0  0
    2.0206    0.5857   -0.5906 H   0  0  0  0  0  0  0  0  0  0  0  0
    0.5355   -0.0637   -2.3364 H   0  0  0  0  0  0  0  0  0  0  0  0
   -0.8662    0.2322   -1.3186 H   0  0  0  0  0  0  0  0  0  0  0  0
    0.9373   -2.2095   -1.2661 H   0  0  0  0  0  0  0  0  0  0  0  0
   -1.0926   -2.5410   -2.6585 H   0  0  0  0  0  0  0  0  0  0  0  0
   -2.0964   -2.0007   -1.3196 H   0  0  0  0  0  0  0  0  0  0  0  0
  1  2  3  0
  1  7  1  0
  2  3  1  0
  3  4  1  0
  3  5  1  0
  4  8  1  0
  4  9  1  0
  4 10  1  0
  5  6  3  0
  6 11  1  0
 12 13  1  0
 12 20  1  0
 12 21  1  0
 12 22  1  0
 13 14  1  0
 13 23  1  0
 13 24  1  0
 14 15  1  0
 14 25  1  0
 14 26  1  0
 15 16  1  0
 15 19  1  0
 15 27  1  0
 16 17  1  0
 16 28  1  0
 16 29  1  0
 17 18  1  0
 17 30  1  0
 17 31  1  0
 18 19  1  0
 18 32  1  0
 18 33  1  0
 19 20  1  0
 19 34  1  0
 20 35  1  0
 20 36  1  0
M  RAD  1   3   2
M  END
>  <reaction>  (12) 
rxn_612

>  <mol_properties>  (12) 
{"1": {"label": "*0", "atom_type": "Ct"}, "2": {"label": "*1", "atom_type": "Cs"}, "15": {"label": "*4", "atom_type": "Cs"}, "16": {"label": "*3", "atom_type": "Cs"}, "29": {"label": "*2", "atom_type": "H0"}}

>  <type>  (12) 
unop_8

>  <geom_source>  (12) 
Heuristics

$$$$

     RDKit          3D

 36 36  0  0  0  0  0  0  0  0999 V2000
   -1.5534    2.0384    2.3202 C   0  0  0  0  0  0  0  0  0  0  0  0
   -0.7620    2.3172    1.4677 C   0  0  0  0  0  0  0  0  0  0  0  0
    0.1829    2.6459    0.3946 C   0  0  0  0  0  3  0  0  0  0  0  0
   -0.5515    2.9246   -0.9285 C   0  0  0  0  0  0  0  0  0  0  0  0
    1.0453    3.7715    0.7710 C   0  0  0  0  0  0  0  0  0  0  0  0
    1.7509    4.6973    1.0463 C   0  0  0  0  0  0  0  0  0  0  0  0
   -2.2570    1.7905    3.0780 H   0  0  0  0  0  0  0  0  0  0  0  0
   -1.1538    2.0604   -1.2068 H   0  0  0  0  0  0  0  0  0  0  0  0
   -1.2056    3.7888   -0.8213 H   0  0  0  0  0  0  0  0  0  0  0  0
    0.1718    3.1270   -1.7178 H   0  0  0  0  0  0  0  0  0  0  0  0
    2.3782    5.5204    1.2910 H   0  0  0  0  0  0  0  0  0  0  0  0
   -0.9996   -3.8951   -1.2612 C   0  0  0  0  0  0  0  0  0  0  0  0
   -0.9996   -3.8951    0.2694 C   0  0  0  0  0  0  0  0  0  0  0  0
    0.1435   -3.0587    0.8514 C   0  0  0  0  0  0  0  0  0  0  0  0
    0.1039   -1.6578    0.2673 C   0  0  0  0  0  0  0  0  0  0  0  0
    1.2229   -0.6840    0.6227 C   0  0  0  0  0  0  0  0  0  0  0  0
    1.1730    0.3866   -0.4959 C   0  0  0  0  0  0  0  0  0  0  0  0
    0.2795   -0.2053   -1.6146 C   0  0  0  0  0  0  0  0  0  0  0  0
    0.1544   -1.6834   -1.2591 C   0  0  0  0  0  0  0  0  0  0  0  0
   -0.9996   -2.4787   -1.8432 C   0  0  0  0  0  0  0  0  0  0  0  0
   -0.1072   -4.4219   -1.6172 H   0  0  0  0  0  0  0  0  0  0  0  0
   -1.8605   -4.4562   -1.6319 H   0  0  0  0  0  0  0  0  0  0  0  0
   -1.9518   -3.4860    0.6253 H   0  0  0  0  0  0  0  0  0  0  0  0
   -0.9441   -4.9212    0.6401 H   0  0  0  0  0  0  0  0  0  0  0  0
    0.0762   -3.0328    1.9422 H   0  0  0  0  0  0  0  0  0  0  0  0
    1.1050   -3.5239    0.6033 H   0  0  0  0  0  0  0  0  0  0  0  0
   -0.8549   -1.1989    0.5498 H   0  0  0  0  0  0  0  0  0  0  0  0
    1.1141   -0.2560    1.6201 H   0  0  0  0  0  0  0  0  0  0  0  0
    2.1806   -1.2125    0.6023 H   0  0  0  0  0  0  0  0  0  0  0  0
    0.6790    1.5138   -0.0516 H   0  0  0  0  0  0  0  0  0  0  0  0
    2.1742    0.6091   -0.8662 H   0  0  0  0  0  0  0  0  0  0  0  0
    0.6891   -0.0404   -2.6120 H   0  0  0  0  0  0  0  0  0  0  0  0
   -0.7125    0.2555   -1.5941 H   0  0  0  0  0  0  0  0  0  0  0  0
    1.0909   -2.1862   -1.5416 H   0  0  0  0  0  0  0  0  0  0  0  0
   -0.9390   -2.5177   -2.9341 H   0  0  0  0  0  0  0  0  0  0  0  0
   -1.9428   -1.9774   -1.5952 H   0  0  0  0  0  0  0  0  0  0  0  0
  1  2  3  0
  1  7  1  0
  2  3  1  0
  3  4  1  0
  3  5  1  0
  4  8  1  0
  4  9  1  0
  4 10  1  0
  5  6  3  0
  6 11  1  0
 12 13  1  0
 12 20  1  0
 12 21  1  0
 12 22  1  0
 13 14  1  0
 13 23  1  0
 13 24  1  0
 14 15  1  0
 14 25  1  0
 14 26  1  0
 15 16  1  0
 15 19  1  0
 15 27  1  0
 16 17  1  0
 16 28  1  0
 16 29  1  0
 17 18  1  0
 17 30  1  0
 17 31  1  0
 18 19  1  0
 18 32  1  0
 18 33  1  0
 19 20  1  0
 19 34  1  0
 20 35  1  0
 20 36  1  0
M  RAD  1   3   2
M  END
>  <reaction>  (13) 
rxn_612

>  <mol_properties>  (13) 
{"1": {"label": "*0", "atom_type": "Ct"}, "2": {"label": "*1", "atom_type": "Cs"}, "15": {"label": "*4", "atom_type": "Cs"}, "16": {"label": "*3", "atom_type": "Cs"}, "29": {"label": "*2", "atom_type": "H0"}}

>  <type>  (13) 
unop_9

>  <geom_source>  (13) 
Heuristics

$$$$

     RDKit          3D

 36 36  0  0  0  0  0  0  0  0999 V2000
    1.5332    3.4522    2.5641 C   0  0  0  0  0  0  0  0  0  0  0  0
    0.8492    3.0753    1.6582 C   0  0  0  0  0  0  0  0  0  0  0  0
   -0.0216    2.6137    0.5714 C   0  0  0  0  0  3  0  0  0  0  0  0
   -1.4743    3.0721    0.7883 C   0  0  0  0  0  0  0  0  0  0  0  0
    0.4830    3.0480   -0.7360 C   0  0  0  0  0  0  0  0  0  0  0  0
    0.8638    3.4023   -1.8131 C   0  0  0  0  0  0  0  0  0  0  0  0
    2.1414    3.7872    3.3696 H   0  0  0  0  0  0  0  0  0  0  0  0
   -1.8392    2.7048    1.7470 H   0  0  0  0  0  0  0  0  0  0  0  0
   -1.5304    4.1599    0.7845 H   0  0  0  0  0  0  0  0  0  0  0  0
   -2.1078    2.6848   -0.0090 H   0  0  0  0  0  0  0  0  0  0  0  0
    1.2023    3.7172   -2.7708 H   0  0  0  0  0  0  0  0  0  0  0  0
   -1.2041   -3.9273   -1.0845 C   0  0  0  0  0  0  0  0  0  0  0  0
   -1.2041   -3.9273    0.4461 C   0  0  0  0  0  0  0  0  0  0  0  0
   -0.0610   -3.0909    1.0281 C   0  0  0  0  0  0  0  0  0  0  0  0
   -0.1006   -1.6900    0.4440 C   0  0  0  0  0  0  0  0  0  0  0  0
    1.0184   -0.7162    0.7995 C   0  0  0  0  0  0  0  0  0  0  0  0
    0.9685    0.3544   -0.3192 C   0  0  0  0  0  0  0  0  0  0  0  0
    0.0750   -0.2375   -1.4378 C   0  0  0  0  0  0  0  0  0  0  0  0
   -0.0501   -1.7156   -1.0823 C   0  0  0  0  0  0  0  0  0  0  0  0
   -1.2041   -2.5109   -1.6664 C   0  0  0  0  0  0  0  0  0  0  0  0
   -0.3117   -4.4541   -1.4404 H   0  0  0  0  0  0  0  0  0  0  0  0
   -2.0650   -4.4884   -1.4552 H   0  0  0  0  0  0  0  0  0  0  0  0
   -2.1563   -3.5182    0.8021 H   0  0  0  0  0  0  0  0  0  0  0  0
   -1.1486   -4.9534    0.8169 H   0  0  0  0  0  0  0  0  0  0  0  0
   -0.1283   -3.0650    2.1190 H   0  0  0  0  0  0  0  0  0  0  0  0
    0.9005   -3.5561    0.7801 H   0  0  0  0  0  0  0  0  0  0  0  0
   -1.0594   -1.2311    0.7266 H   0  0  0  0  0  0  0  0  0  0  0  0
    0.9096   -0.2882    1.7969 H   0  0  0  0  0  0  0  0  0  0  0  0
    1.9761   -1.2447    0.7790 H   0  0  0  0  0  0  0  0  0  0  0  0
    0.4745    1.4816    0.1252 H   0  0  0  0  0  0  0  0  0  0  0  0
    1.9697    0.5769   -0.6894 H   0  0  0  0  0  0  0  0  0  0  0  0
    0.4846   -0.0726   -2.4352 H   0  0  0  0  0  0  0  0  0  0  0  0
   -0.9170    0.2233   -1.4174 H   0  0  0  0  0  0  0  0  0  0  0  0
    0.8864   -2.2184   -1.3649 H   0  0  0  0  0  0  0  0  0  0  0  0
   -1.1435   -2.5499   -2.7573 H   0  0  0  0  0  0  0  0  0  0  0  0
   -2.1473   -2.0096   -1.4184 H   0  0  0  0  0  0  0  0  0  0  0  0
  1  2  3  0
  1  7  1  0
  2  3  1  0
  3  4  1  0
  3  5  1  0
  4  8  1  0
  4  9  1  0
  4 10  1  0
  5  6  3  0
  6 11  1  0
 12 13  1  0
 12 20  1  0
 12 21  1  0
 12 22  1  0
 13 14  1  0
 13 23  1  0
 13 24  1  0
 14 15  1  0
 14 25  1  0
 14 26  1  0
 15 16  1  0
 15 19  1  0
 15 27  1  0
 16 17  1  0
 16 28  1  0
 16 29  1  0
 17 18  1  0
 17 30  1  0
 17 31  1  0
 18 19  1  0
 18 32  1  0
 18 33  1  0
 19 20  1  0
 19 34  1  0
 20 35  1  0
 20 36  1  0
M  RAD  1   3   2
M  END
>  <reaction>  (14) 
rxn_612

>  <mol_properties>  (14) 
{"1": {"label": "*0", "atom_type": "Ct"}, "2": {"label": "*1", "atom_type": "Cs"}, "15": {"label": "*4", "atom_type": "Cs"}, "16": {"label": "*3", "atom_type": "Cs"}, "29": {"label": "*2", "atom_type": "H0"}}

>  <type>  (14) 
unop_10

>  <geom_source>  (14) 
Heuristics

$$$$

     RDKit          3D

 36 36  0  0  0  0  0  0  0  0999 V2000
   -0.9504    3.8128   -1.5421 C   0  0  0  0  0  0  0  0  0  0  0  0
   -0.4308    3.2738   -0.6093 C   0  0  0  0  0  0  0  0  0  0  0  0
    0.2421    2.6165    0.5166 C   0  0  0  0  0  3  0  0  0  0  0  0
    1.7100    3.0644    0.6270 C   0  0  0  0  0  0  0  0  0  0  0  0
   -0.4789    2.8441    1.7739 C   0  0  0  0  0  0  0  0  0  0  0  0
   -1.0384    3.0272    2.8152 C   0  0  0  0  0  0  0  0  0  0  0  0
   -1.4124    4.2920   -2.3715 H   0  0  0  0  0  0  0  0  0  0  0  0
    2.2337    2.8494   -0.3039 H   0  0  0  0  0  0  0  0  0  0  0  0
    1.7635    4.1348    0.8211 H   0  0  0  0  0  0  0  0  0  0  0  0
    2.1984    2.5343    1.4440 H   0  0  0  0  0  0  0  0  0  0  0  0
   -1.5358    3.1899    3.7410 H   0  0  0  0  0  0  0  0  0  0  0  0
   -0.9404   -3.9245   -1.1392 C   0  0  0  0  0  0  0  0  0  0  0  0
   -0.9404   -3.9245    0.3914 C   0  0  0  0  0  0  0  0  0  0  0  0
    0.2027   -3.0881    0.9734 C   0  0  0  0  0  0  0  0  0  0  0  0
    0.1631   -1.6871    0.3893 C   0  0  0  0  0  0  0  0  0  0  0  0
    1.2821   -0.7134    0.7447 C   0  0  0  0  0  0  0  0  0  0  0  0
    1.2322    0.3572   -0.3739 C   0  0  0  0  0  0  0  0  0  0  0  0
    0.3387   -0.2346   -1.4925 C   0  0  0  0  0  0  0  0  0  0  0  0
    0.2136   -1.7128   -1.1371 C   0  0  0  0  0  0  0  0  0  0  0  0
   -0.9404   -2.5081   -1.7212 C   0  0  0  0  0  0  0  0  0  0  0  0
   -0.0480   -4.4513   -1.4951 H   0  0  0  0  0  0  0  0  0  0  0  0
   -1.8013   -4.4856   -1.5099 H   0  0  0  0  0  0  0  0  0  0  0  0
   -1.8926   -3.5154    0.7473 H   0  0  0  0  0  0  0  0  0  0  0  0
   -0.8849   -4.9506    0.7621 H   0  0  0  0  0  0  0  0  0  0  0  0
    0.1354   -3.0622    2.0642 H   0  0  0  0  0  0  0  0  0  0  0  0
    1.1642   -3.5532    0.7254 H   0  0  0  0  0  0  0  0  0  0  0  0
   -0.7957   -1.2283    0.6718 H   0  0  0  0  0  0  0  0  0  0  0  0
    1.1733   -0.2854    1.7422 H   0  0  0  0  0  0  0  0  0  0  0  0
    2.2398   -1.2419    0.7243 H   0  0  0  0  0  0  0  0  0  0  0  0
    0.7382    1.4845    0.0704 H   0  0  0  0  0  0  0  0  0  0  0  0
    2.2334    0.5797   -0.7442 H   0  0  0  0  0  0  0  0  0  0  0  0
    0.7483   -0.0698   -2.4899 H   0  0  0  0  0  0  0  0  0  0  0  0
   -0.6533    0.2261   -1.4721 H   0  0  0  0  0  0  0  0  0  0  0  0
    1.1501   -2.2156   -1.4196 H   0  0  0  0  0  0  0  0  0  0  0  0
   -0.8798   -2.5470   -2.8120 H   0  0  0  0  0  0  0  0  0  0  0  0
   -1.8836   -2.0067   -1.4731 H   0  0  0  0  0  0  0  0  0  0  0  0
  1  2  3  0
  1  7  1  0
  2  3  1  0
  3  4  1  0
  3  5  1  0
  4  8  1  0
  4  9  1  0
  4 10  1  0
  5  6  3  0
  6 11  1  0
 12 13  1  0
 12 20  1  0
 12 21  1  0
 12 22  1  0
 13 14  1  0
 13 23  1  0
 13 24  1  0
 14 15  1  0
 14 25  1  0
 14 26  1  0
 15 16  1  0
 15 19  1  0
 15 27  1  0
 16 17  1  0
 16 28  1  0
 16 29  1  0
 17 18  1  0
 17 30  1  0
 17 31  1  0
 18 19  1  0
 18 32  1  0
 18 33  1  0
 19 20  1  0
 19 34  1  0
 20 35  1  0
 20 36  1  0
M  RAD  1   3   2
M  END
>  <reaction>  (15) 
rxn_612

>  <mol_properties>  (15) 
{"1": {"label": "*0", "atom_type": "Ct"}, "2": {"label": "*1", "atom_type": "Cs"}, "15": {"label": "*4", "atom_type": "Cs"}, "16": {"label": "*3", "atom_type": "Cs"}, "29": {"label": "*2", "atom_type": "H0"}}

>  <type>  (15) 
unop_11

>  <geom_source>  (15) 
Heuristics

$$$$

     RDKit          3D

 36 36  0  0  0  0  0  0  0  0999 V2000
   -0.5324    2.2773    2.9578 C   0  0  0  0  0  0  0  0  0  0  0  0
   -0.2393    2.4428    1.8099 C   0  0  0  0  0  0  0  0  0  0  0  0
    0.0831    2.6347    0.3916 C   0  0  0  0  0  3  0  0  0  0  0  0
   -1.1780    2.9614   -0.4272 C   0  0  0  0  0  0  0  0  0  0  0  0
    1.1131    3.6643    0.2145 C   0  0  0  0  0  0  0  0  0  0  0  0
    1.9403    4.5107    0.0407 C   0  0  0  0  0  0  0  0  0  0  0  0
   -0.7929    2.1302    3.9783 H   0  0  0  0  0  0  0  0  0  0  0  0
   -1.9117    2.1644   -0.3109 H   0  0  0  0  0  0  0  0  0  0  0  0
   -1.6180    3.8968   -0.0840 H   0  0  0  0  0  0  0  0  0  0  0  0
   -0.9198    3.0604   -1.4811 H   0  0  0  0  0  0  0  0  0  0  0  0
    2.6757    5.2631   -0.1137 H   0  0  0  0  0  0  0  0  0  0  0  0
   -1.0994   -3.9063   -1.2642 C   0  0  0  0  0  0  0  0  0  0  0  0
   -1.0994   -3.9063    0.2664 C   0  0  0  0  0  0  0  0  0  0  0  0
    0.0437   -3.0699    0.8484 C   0  0  0  0  0  0  0  0  0  0  0  0
    0.0041   -1.6689    0.2643 C   0  0  0  0  0  0  0  0  0  0  0  0
    1.1231   -0.6951    0.6197 C   0  0  0  0  0  0  0  0  0  0  0  0
    1.0732    0.3754   -0.4989 C   0  0  0  0  0  0  0  0  0  0  0  0
    0.1797   -0.2164   -1.6175 C   0  0  0  0  0  0  0  0  0  0  0  0
    0.0546   -1.6946   -1.2621 C   0  0  0  0  0  0  0  0  0  0  0  0
   -1.0994   -2.4899   -1.8462 C   0  0  0  0  0  0  0  0  0  0  0  0
   -0.2070   -4.4331   -1.6201 H   0  0  0  0  0  0  0  0  0  0  0  0
   -1.9603   -4.4674   -1.6349 H   0  0  0  0  0  0  0  0  0  0  0  0
   -2.0516   -3.4971    0.6223 H   0  0  0  0  0  0  0  0  0  0  0  0
   -1.0439   -4.9324    0.6371 H   0  0  0  0  0  0  0  0  0  0  0  0
   -0.0236   -3.0440    1.9392 H   0  0  0  0  0  0  0  0  0  0  0  0
    1.0052   -3.5350    0.6003 H   0  0  0  0  0  0  0  0  0  0  0  0
   -0.9547   -1.2101    0.5468 H   0  0  0  0  0  0  0  0  0  0  0  0
    1.0143   -0.2672    1.6171 H   0  0  0  0  0  0  0  0  0  0  0  0
    2.0807   -1.2237    0.5993 H   0  0  0  0  0  0  0  0  0  0  0  0
    0.5792    1.5027   -0.0546 H   0  0  0  0  0  0  0  0  0  0  0  0
    2.0744    0.5979   -0.8692 H   0  0  0  0  0  0  0  0  0  0  0  0
    0.5893   -0.0516   -2.6149 H   0  0  0  0  0  0  0  0  0  0  0  0
   -0.8124    0.2443   -1.5971 H   0  0  0  0  0  0  0  0  0  0  0  0
    0.9911   -2.1974   -1.5446 H   0  0  0  0  0  0  0  0  0  0  0  0
   -1.0388   -2.5288   -2.9370 H   0  0  0  0  0  0  0  0  0  0  0  0
   -2.0426   -1.9885   -1.5981 H   0  0  0  0  0  0  0  0  0  0  0  0
  1  2  3  0
  1  7  1  0
  2  3  1  0
  3  4  1  0
  3  5  1  0
  4  8  1  0
  4  9  1  0
  4 10  1  0
  5  6  3  0
  6 11  1  0
 12 13  1  0
 12 20  1  0
 12 21  1  0
 12 22  1  0
 13 14  1  0
 13 23  1  0
 13 24  1  0
 14 15  1  0
 14 25  1  0
 14 26  1  0
 15 16  1  0
 15 19  1  0
 15 27  1  0
 16 17  1  0
 16 28  1  0
 16 29  1  0
 17 18  1  0
 17 30  1  0
 17 31  1  0
 18 19  1  0
 18 32  1  0
 18 33  1  0
 19 20  1  0
 19 34  1  0
 20 35  1  0
 20 36  1  0
M  RAD  1   3   2
M  END
>  <reaction>  (16) 
rxn_612

>  <mol_properties>  (16) 
{"1": {"label": "*0", "atom_type": "Ct"}, "2": {"label": "*1", "atom_type": "Cs"}, "15": {"label": "*4", "atom_type": "Cs"}, "16": {"label": "*3", "atom_type": "Cs"}, "29": {"label": "*2", "atom_type": "H0"}}

>  <type>  (16) 
unop_12

>  <geom_source>  (16) 
Heuristics

$$$$

     RDKit          3D

 36 36  0  0  0  0  0  0  0  0999 V2000
   -1.6049    0.4126    0.8614 C   0  0  0  0  0  0  0  0  0  0  0  0
   -1.6949   -1.0247    0.2917 C   0  0  0  0  0  0  0  0  0  0  0  0
   -2.3660    1.4559    0.0152 C   0  0  0  0  0  0  0  0  0  0  0  0
   -2.3597   -1.0793   -1.1000 C   0  0  0  0  0  0  0  0  0  0  0  0
   -3.7670    0.9443   -0.3368 C   0  0  0  0  0  0  0  0  0  0  0  0
   -3.7412   -0.4047   -1.0895 C   0  0  0  0  0  0  0  0  0  0  0  0
   -0.1117    0.7477    0.9705 C   0  0  0  0  0  0  0  0  0  0  0  0
   -0.2572   -1.5444    0.2397 C   0  0  0  0  0  0  0  0  0  0  0  0
    3.1804    0.1356    0.1389 C   0  0  0  0  0  3  0  0  0  0  0  0
    3.4962    0.5159   -1.3058 C   0  0  0  0  0  0  0  0  0  0  0  0
    0.6292   -0.3163    0.1825 C   0  0  0  0  0  0  0  0  0  0  0  0
    3.6757   -1.2149    0.4324 C   0  0  0  0  0  0  0  0  0  0  0  0
    3.7968    1.0922    1.0662 C   0  0  0  0  0  0  0  0  0  0  0  0
    4.0809   -2.3249    0.6729 C   0  0  0  0  0  0  0  0  0  0  0  0
    4.3016    1.8792    1.8279 C   0  0  0  0  0  0  0  0  0  0  0  0
   -2.0451    0.4179    1.8848 H   0  0  0  0  0  0  0  0  0  0  0  0
   -2.2893   -1.6643    0.9831 H   0  0  0  0  0  0  0  0  0  0  0  0
   -1.8120    1.6778   -0.9241 H   0  0  0  0  0  0  0  0  0  0  0  0
   -2.4539    2.4048    0.5877 H   0  0  0  0  0  0  0  0  0  0  0  0
   -4.2875    1.7066   -0.9562 H   0  0  0  0  0  0  0  0  0  0  0  0
   -4.3505    0.8294    0.6033 H   0  0  0  0  0  0  0  0  0  0  0  0
   -4.0646   -0.2483   -2.1417 H   0  0  0  0  0  0  0  0  0  0  0  0
   -4.4765   -1.0948   -0.6205 H   0  0  0  0  0  0  0  0  0  0  0  0
   -1.7124   -0.5731   -1.8503 H   0  0  0  0  0  0  0  0  0  0  0  0
   -2.4752   -2.1382   -1.4187 H   0  0  0  0  0  0  0  0  0  0  0  0
    1.8387    0.1568    0.3178 H   0  0  0  0  0  0  0  0  0  0  0  0
    0.2097    0.6826    2.0328 H   0  0  0  0  0  0  0  0  0  0  0  0
    0.1382    1.7641    0.5942 H   0  0  0  0  0  0  0  0  0  0  0  0
   -0.0671   -2.2185   -0.6243 H   0  0  0  0  0  0  0  0  0  0  0  0
   -0.0277   -2.0995    1.1753 H   0  0  0  0  0  0  0  0  0  0  0  0
    3.1014    1.5309   -1.5258 H   0  0  0  0  0  0  0  0  0  0  0  0
    4.5934    0.5083   -1.4878 H   0  0  0  0  0  0  0  0  0  0  0  0
    3.0105   -0.2013   -2.0016 H   0  0  0  0  0  0  0  0  0  0  0  0
    0.7306    0.0136   -0.8752 H   0  0  0  0  0  0  0  0  0  0  0  0
    4.4366   -3.2990    0.8839 H   0  0  0  0  0  0  0  0  0  0  0  0
    4.7447    2.5697    2.4962 H   0  0  0  0  0  0  0  0  0  0  0  0
  1  3  1  0
  1  7  1  0
  1  2  1  0
  1 16  1  0
  2  4  1  0
  2  8  1  0
  2 17  1  0
  3  5  1  0
  3 18  1  0
  3 19  1  0
  4  6  1  0
  4 24  1  0
  4 25  1  0
  5  6  1  0
  5 20  1  0
  5 21  1  0
  6 22  1  0
  6 23  1  0
  7 11  1  0
  7 27  1  0
  7 28  1  0
  8 11  1  0
  8 29  1  0
  8 30  1  0
  9 10  1  0
  9 12  1  0
  9 13  1  0
 10 31  1  0
 10 32  1  0
 10 33  1  0
 11 26  1  0
 11 34  1  0
 12 14  3  0
 13 15  3  0
 14 35  1  0
 15 36  1  0
M  RAD  1   9   2
M  END
>  <reaction>  (17) 
rxn_612

>  <mol_properties>  (17) 
{"1": {"label": "*0", "atom_type": "Ct"}, "2": {"label": "*1", "atom_type": "Cs"}, "15": {"label": "*4", "atom_type": "Cs"}, "16": {"label": "*3", "atom_type": "Cs"}, "29": {"label": "*2", "atom_type": "H0"}}

>  <type>  (17) 
unop_13

>  <geom_source>  (17) 
AutoTST

$$$$
