
     RDKit          3D

 10  9  0  0  0  0  0  0  0  0999 V2000
   -1.1508    0.0666    0.2839 C   0  0  0  0  0  0  0  0  0  0  0  0
    0.1022   -0.3749   -0.4771 C   0  0  0  0  0  0  0  0  0  0  0  0
    1.3428    0.1620    0.1542 C   0  0  0  0  0  0  0  0  0  0  0  0
    2.5613   -0.6971    0.7526 S   0  0  0  0  0  0  0  0  0  0  0  0
   -1.2137    1.1546    0.3481 H   0  0  0  0  0  0  0  0  0  0  0  0
   -2.0472   -0.2935   -0.2212 H   0  0  0  0  0  0  0  0  0  0  0  0
   -1.1467   -0.3334    1.2987 H   0  0  0  0  0  0  0  0  0  0  0  0
    0.1602   -1.4616   -0.5369 H   0  0  0  0  0  0  0  0  0  0  0  0
    0.0536    0.0174   -1.4997 H   0  0  0  0  0  0  0  0  0  0  0  0
    1.3824    1.2528    0.2110 H   0  0  0  0  0  0  0  0  0  0  0  0
  1  2  1  0
  1  5  1  0
  1  6  1  0
  1  7  1  0
  2  3  1  0
  2  8  1  0
  2  9  1  0
  3  4  2  0
  3 10  1  0
M  END
>  <reaction>  (1) 
rxn_2008

>  <mol_properties>  (1) 
{"1": {"label": "donator", "atom_type": "Cs"}, "7": {"label": "d_hydrogen", "atom_type": "H0"}}

>  <type>  (1) 
r1h

$$$$

     RDKit          3D

  8  7  0  0  0  0  0  0  0  0999 V2000
   -2.2129    0.4855    0.7390 C   0  0  0  0  0  0  0  0  0  0  0  0
   -1.2226    0.0526    0.1974 C   0  0  0  0  0  0  0  0  0  0  0  0
   -0.1006   -0.4575   -0.4419 C   0  0  0  0  0  3  0  0  0  0  0  0
    1.1960   -0.1737   -0.0342 C   0  0  0  0  0  0  0  0  0  0  0  0
    2.3329    0.0603    0.3036 C   0  0  0  0  0  0  0  0  0  0  0  0
   -3.0803    0.8696    1.2198 H   0  0  0  0  0  0  0  0  0  0  0  0
   -0.2433   -1.1067   -1.2980 H   0  0  0  0  0  0  0  0  0  0  0  0
    3.3308    0.2700    0.6058 H   0  0  0  0  0  0  0  0  0  0  0  0
  1  2  3  0
  1  6  1  0
  2  3  1  0
  3  4  1  0
  3  7  1  0
  4  5  3  0
  5  8  1  0
M  RAD  1   3   2
M  END
>  <reaction>  (2) 
rxn_2008

>  <mol_properties>  (2) 
{"2": {"label": "acceptor", "atom_type": "Cs"}}

>  <type>  (2) 
r2

$$$$

     RDKit          3D

  9  8  0  0  0  0  0  0  0  0999 V2000
   -2.1022   -0.6873    0.3932 C   0  0  0  0  0  0  0  0  0  0  0  0
   -1.2072   -0.1086   -0.1482 C   0  0  0  0  0  0  0  0  0  0  0  0
   -0.1242    0.6105   -0.8193 C   0  0  0  0  0  0  0  0  0  0  0  0
    1.2067    0.1106   -0.4741 C   0  0  0  0  0  0  0  0  0  0  0  0
    2.3005   -0.2875   -0.2012 C   0  0  0  0  0  0  0  0  0  0  0  0
   -2.8942   -1.2059    0.8778 H   0  0  0  0  0  0  0  0  0  0  0  0
   -0.1862    1.6723   -0.5649 H   0  0  0  0  0  0  0  0  0  0  0  0
   -0.2641    0.5418   -1.9017 H   0  0  0  0  0  0  0  0  0  0  0  0
    3.2709   -0.6459    0.0455 H   0  0  0  0  0  0  0  0  0  0  0  0
  1  2  3  0
  1  6  1  0
  2  3  1  0
  3  4  1  0
  3  7  1  0
  3  8  1  0
  4  5  3  0
  5  9  1  0
M  END
>  <reaction>  (3) 
rxn_2008

>  <mol_properties>  (3) 
{"2": {"label": "acceptor", "atom_type": "Cs"}, "8": {"label": "a_hydrogen", "atom_type": "H0"}}

>  <type>  (3) 
r2h

$$$$

     RDKit          3D

 18 16  0  0  0  0  0  0  0  0999 V2000
   -2.7216   -0.5837   -0.0540 C   0  0  0  0  0  0  0  0  0  0  0  0
   -1.6453   -1.1096    0.0268 C   0  0  0  0  0  0  0  0  0  0  0  0
   -0.3498   -1.7012    0.0750 C   0  0  0  0  0  3  0  0  0  0  0  0
    0.3790   -1.6437    1.2964 C   0  0  0  0  0  0  0  0  0  0  0  0
    1.0715   -1.5321    2.2709 C   0  0  0  0  0  0  0  0  0  0  0  0
   -3.6787   -0.1232   -0.1107 H   0  0  0  0  0  0  0  0  0  0  0  0
   -0.2638   -2.6436   -0.4628 H   0  0  0  0  0  0  0  0  0  0  0  0
    1.6635   -1.4394    3.1498 H   0  0  0  0  0  0  0  0  0  0  0  0
    0.1090    0.8122   -2.1105 C   0  0  0  0  0  0  0  0  0  0  0  0
    1.1519   -0.0997   -1.5260 C   0  0  0  0  0  0  0  0  0  0  0  0
    2.1370    0.3910   -0.5998 C   0  0  0  0  0  0  0  0  0  0  0  0
    2.0763    1.8036    0.2170 S   0  0  0  0  0  0  0  0  0  0  0  0
    0.5676    1.5043   -2.8210 H   0  0  0  0  0  0  0  0  0  0  0  0
   -0.6539    0.2368   -2.6351 H   0  0  0  0  0  0  0  0  0  0  0  0
   -0.3705    1.4062   -1.3334 H   0  0  0  0  0  0  0  0  0  0  0  0
    0.4499   -0.9019   -0.7389 H   0  0  0  0  0  0  0  0  0  0  0  0
    1.5414   -0.8537   -2.2110 H   0  0  0  0  0  0  0  0  0  0  0  0
    2.9683   -0.2871   -0.4111 H   0  0  0  0  0  0  0  0  0  0  0  0
  1  2  3  0
  1  6  1  0
  2  3  1  0
  3  4  1  0
  3  7  1  0
  4  5  3  0
  5  8  1  0
  9 10  1  0
  9 13  1  0
  9 14  1  0
  9 15  1  0
 10 11  1  0
 10 16  1  0
 10 17  1  0
 11 12  2  0
 11 18  1  0
M  RAD  1   3   2
M  END
>  <reaction>  (4) 
rxn_2008

>  <mol_properties>  (4) 
{"1": {"label": "*4", "atom_type": "Ct"}, "2": {"label": "*3", "atom_type": "Cs"}, "9": {"label": "*1", "atom_type": "Cs"}, "10": {"label": "*0", "atom_type": "CS"}, "15": {"label": "*2", "atom_type": "H0"}}

>  <type>  (4) 
ts

$$$$

     RDKit          3D

 18 16  0  0  0  0  0  0  0  0999 V2000
    0.2508   -3.0146    1.6617 C   0  0  0  0  0  0  0  0  0  0  0  0
   -0.1391   -2.1028    0.9939 C   0  0  0  0  0  0  0  0  0  0  0  0
   -0.6161   -0.9870    0.1767 C   0  0  0  0  0  3  0  0  0  0  0  0
   -2.0004   -1.1439   -0.2699 C   0  0  0  0  0  0  0  0  0  0  0  0
   -3.1316   -1.2721   -0.6348 C   0  0  0  0  0  0  0  0  0  0  0  0
    0.5975   -3.8256    2.2557 H   0  0  0  0  0  0  0  0  0  0  0  0
   -0.5260   -0.0590    0.7481 H   0  0  0  0  0  0  0  0  0  0  0  0
   -4.1379   -1.3862   -0.9594 H   0  0  0  0  0  0  0  0  0  0  0  0
    1.4427    0.3339   -2.2933 C   0  0  0  0  0  0  0  0  0  0  0  0
    1.4427    0.3339   -0.7622 C   0  0  0  0  0  0  0  0  0  0  0  0
    1.4427    1.7221   -0.2156 C   0  0  0  0  0  0  0  0  0  0  0  0
    0.3232    2.3778    0.7320 S   0  0  0  0  0  0  0  0  0  0  0  0
    2.2979    0.8841   -2.6904 H   0  0  0  0  0  0  0  0  0  0  0  0
    1.4935   -0.6870   -2.6720 H   0  0  0  0  0  0  0  0  0  0  0  0
    0.5332    0.7963   -2.6790 H   0  0  0  0  0  0  0  0  0  0  0  0
    0.4151   -0.3254   -0.2936 H   0  0  0  0  0  0  0  0  0  0  0  0
    2.3531   -0.1628   -0.4068 H   0  0  0  0  0  0  0  0  0  0  0  0
    2.2982    2.3274   -0.5259 H   0  0  0  0  0  0  0  0  0  0  0  0
  1  2  3  0
  1  6  1  0
  2  3  1  0
  3  4  1  0
  3  7  1  0
  4  5  3  0
  5  8  1  0
  9 10  1  0
  9 13  1  0
  9 14  1  0
  9 15  1  0
 10 11  1  0
 10 16  1  0
 10 17  1  0
 11 12  2  0
 11 18  1  0
M  RAD  1   3   2
M  END
>  <reaction>  (5) 
rxn_2008

>  <mol_properties>  (5) 
{"1": {"label": "*4", "atom_type": "Ct"}, "2": {"label": "*3", "atom_type": "Cs"}, "9": {"label": "*1", "atom_type": "Cs"}, "10": {"label": "*0", "atom_type": "CS"}, "15": {"label": "*2", "atom_type": "H0"}}

>  <type>  (5) 
unop_1

>  <geom_source>  (5) 
Heuristics

$$$$

     RDKit          3D

 18 16  0  0  0  0  0  0  0  0999 V2000
   -1.1213   -3.1307   -1.3513 C   0  0  0  0  0  0  0  0  0  0  0  0
   -0.8227   -2.2683   -0.5790 C   0  0  0  0  0  0  0  0  0  0  0  0
   -0.4573   -1.2130    0.3660 C   0  0  0  0  0  3  0  0  0  0  0  0
   -1.6122   -0.5413    0.9621 C   0  0  0  0  0  0  0  0  0  0  0  0
   -2.5559    0.0076    1.4492 C   0  0  0  0  0  0  0  0  0  0  0  0
   -1.3869   -3.8979   -2.0383 H   0  0  0  0  0  0  0  0  0  0  0  0
    0.1595   -1.6408    1.1613 H   0  0  0  0  0  0  0  0  0  0  0  0
   -3.3954    0.4959    1.8826 H   0  0  0  0  0  0  0  0  0  0  0  0
    1.6015    0.1080   -2.1040 C   0  0  0  0  0  0  0  0  0  0  0  0
    1.6015    0.1080   -0.5729 C   0  0  0  0  0  0  0  0  0  0  0  0
    1.6015    1.4961   -0.0262 C   0  0  0  0  0  0  0  0  0  0  0  0
    0.4820    2.1518    0.9213 S   0  0  0  0  0  0  0  0  0  0  0  0
    2.4567    0.6581   -2.5011 H   0  0  0  0  0  0  0  0  0  0  0  0
    1.6524   -0.9130   -2.4826 H   0  0  0  0  0  0  0  0  0  0  0  0
    0.6920    0.5703   -2.4896 H   0  0  0  0  0  0  0  0  0  0  0  0
    0.5739   -0.5514   -0.1043 H   0  0  0  0  0  0  0  0  0  0  0  0
    2.5119   -0.3887   -0.2175 H   0  0  0  0  0  0  0  0  0  0  0  0
    2.4570    2.1014   -0.3366 H   0  0  0  0  0  0  0  0  0  0  0  0
  1  2  3  0
  1  6  1  0
  2  3  1  0
  3  4  1  0
  3  7  1  0
  4  5  3  0
  5  8  1  0
  9 10  1  0
  9 13  1  0
  9 14  1  0
  9 15  1  0
 10 11  1  0
 10 16  1  0
 10 17  1  0
 11 12  2  0
 11 18  1  0
M  RAD  1   3   2
M  END
>  <reaction>  (6) 
rxn_2008

>  <mol_properties>  (6) 
{"1": {"label": "*4", "atom_type": "Ct"}, "2": {"label": "*3", "atom_type": "Cs"}, "9": {"label": "*1", "atom_type": "Cs"}, "10": {"label": "*0", "atom_type": "CS"}, "15": {"label": "*2", "atom_type": "H0"}}

>  <type>  (6) 
unop_2

>  <geom_source>  (6) 
Heuristics

$$$$

     RDKit          3D

 18 16  0  0  0  0  0  0  0  0999 V2000
   -0.0381   -2.0371    2.4766 C   0  0  0  0  0  0  0  0  0  0  0  0
   -0.3293   -1.5532    1.4229 C   0  0  0  0  0  0  0  0  0  0  0  0
   -0.6858   -0.9610    0.1335 C   0  0  0  0  0  3  0  0  0  0  0  0
   -1.6736   -1.7418   -0.6114 C   0  0  0  0  0  0  0  0  0  0  0  0
   -2.4809   -2.3798   -1.2201 C   0  0  0  0  0  0  0  0  0  0  0  0
    0.2210   -2.4676    3.4139 H   0  0  0  0  0  0  0  0  0  0  0  0
   -1.0745    0.0480    0.2969 H   0  0  0  0  0  0  0  0  0  0  0  0
   -3.1990   -2.9474   -1.7616 H   0  0  0  0  0  0  0  0  0  0  0  0
    1.3730    0.3600   -2.3365 C   0  0  0  0  0  0  0  0  0  0  0  0
    1.3730    0.3600   -0.8054 C   0  0  0  0  0  0  0  0  0  0  0  0
    1.3730    1.7481   -0.2587 C   0  0  0  0  0  0  0  0  0  0  0  0
    0.2535    2.4038    0.6888 S   0  0  0  0  0  0  0  0  0  0  0  0
    2.2282    0.9101   -2.7336 H   0  0  0  0  0  0  0  0  0  0  0  0
    1.4239   -0.6610   -2.7151 H   0  0  0  0  0  0  0  0  0  0  0  0
    0.4635    0.8223   -2.7221 H   0  0  0  0  0  0  0  0  0  0  0  0
    0.3454   -0.2994   -0.3367 H   0  0  0  0  0  0  0  0  0  0  0  0
    2.2834   -0.1367   -0.4500 H   0  0  0  0  0  0  0  0  0  0  0  0
    2.2285    2.3534   -0.5690 H   0  0  0  0  0  0  0  0  0  0  0  0
  1  2  3  0
  1  6  1  0
  2  3  1  0
  3  4  1  0
  3  7  1  0
  4  5  3  0
  5  8  1  0
  9 10  1  0
  9 13  1  0
  9 14  1  0
  9 15  1  0
 10 11  1  0
 10 16  1  0
 10 17  1  0
 11 12  2  0
 11 18  1  0
M  RAD  1   3   2
M  END
>  <reaction>  (7) 
rxn_2008

>  <mol_properties>  (7) 
{"1": {"label": "*4", "atom_type": "Ct"}, "2": {"label": "*3", "atom_type": "Cs"}, "9": {"label": "*1", "atom_type": "Cs"}, "10": {"label": "*0", "atom_type": "CS"}, "15": {"label": "*2", "atom_type": "H0"}}

>  <type>  (7) 
unop_3

>  <geom_source>  (7) 
Heuristics

$$$$

     RDKit          3D

 18 16  0  0  0  0  0  0  0  0999 V2000
   -2.8929   -0.4724   -0.7941 C   0  0  0  0  0  0  0  0  0  0  0  0
   -1.8860   -0.9882   -0.4077 C   0  0  0  0  0  0  0  0  0  0  0  0
   -0.6538   -1.6194    0.0651 C   0  0  0  0  0  3  0  0  0  0  0  0
   -0.1799   -1.0849    1.3419 C   0  0  0  0  0  0  0  0  0  0  0  0
    0.2074   -0.6482    2.3852 C   0  0  0  0  0  0  0  0  0  0  0  0
   -3.7886   -0.0135   -1.1378 H   0  0  0  0  0  0  0  0  0  0  0  0
   -0.8172   -2.6961    0.1650 H   0  0  0  0  0  0  0  0  0  0  0  0
    0.5519   -0.2596    3.3133 H   0  0  0  0  0  0  0  0  0  0  0  0
    1.4050   -0.2985   -2.4048 C   0  0  0  0  0  0  0  0  0  0  0  0
    1.4050   -0.2985   -0.8738 C   0  0  0  0  0  0  0  0  0  0  0  0
    1.4050    1.0897   -0.3271 C   0  0  0  0  0  0  0  0  0  0  0  0
    0.2855    1.7454    0.6205 S   0  0  0  0  0  0  0  0  0  0  0  0
    2.2602    0.2517   -2.8019 H   0  0  0  0  0  0  0  0  0  0  0  0
    1.4559   -1.3194   -2.7835 H   0  0  0  0  0  0  0  0  0  0  0  0
    0.4955    0.1639   -2.7905 H   0  0  0  0  0  0  0  0  0  0  0  0
    0.3774   -0.9578   -0.4051 H   0  0  0  0  0  0  0  0  0  0  0  0
    2.3154   -0.7952   -0.5183 H   0  0  0  0  0  0  0  0  0  0  0  0
    2.2605    1.6950   -0.6374 H   0  0  0  0  0  0  0  0  0  0  0  0
  1  2  3  0
  1  6  1  0
  2  3  1  0
  3  4  1  0
  3  7  1  0
  4  5  3  0
  5  8  1  0
  9 10  1  0
  9 13  1  0
  9 14  1  0
  9 15  1  0
 10 11  1  0
 10 16  1  0
 10 17  1  0
 11 12  2  0
 11 18  1  0
M  RAD  1   3   2
M  END
>  <reaction>  (8) 
rxn_2008

>  <mol_properties>  (8) 
{"1": {"label": "*4", "atom_type": "Ct"}, "2": {"label": "*3", "atom_type": "Cs"}, "9": {"label": "*1", "atom_type": "Cs"}, "10": {"label": "*0", "atom_type": "CS"}, "15": {"label": "*2", "atom_type": "H0"}}

>  <type>  (8) 
unop_4

>  <geom_source>  (8) 
Heuristics

$$$$

     RDKit          3D

 18 16  0  0  0  0  0  0  0  0999 V2000
   -0.7893   -0.9240    2.6990 C   0  0  0  0  0  0  0  0  0  0  0  0
   -0.8213   -0.9445    1.5041 C   0  0  0  0  0  0  0  0  0  0  0  0
   -0.8604   -0.9696    0.0419 C   0  0  0  0  0  3  0  0  0  0  0  0
   -0.8589   -2.3219   -0.5164 C   0  0  0  0  0  0  0  0  0  0  0  0
   -0.8577   -3.4270   -0.9726 C   0  0  0  0  0  0  0  0  0  0  0  0
   -0.7608   -0.9057    3.7620 H   0  0  0  0  0  0  0  0  0  0  0  0
   -1.7529   -0.4398   -0.3027 H   0  0  0  0  0  0  0  0  0  0  0  0
   -0.8566   -4.4100   -1.3784 H   0  0  0  0  0  0  0  0  0  0  0  0
    1.1984    0.3513   -2.4281 C   0  0  0  0  0  0  0  0  0  0  0  0
    1.1984    0.3513   -0.8970 C   0  0  0  0  0  0  0  0  0  0  0  0
    1.1984    1.7395   -0.3504 C   0  0  0  0  0  0  0  0  0  0  0  0
    0.0788    2.3952    0.5972 S   0  0  0  0  0  0  0  0  0  0  0  0
    2.0536    0.9015   -2.8252 H   0  0  0  0  0  0  0  0  0  0  0  0
    1.2492   -0.6696   -2.8068 H   0  0  0  0  0  0  0  0  0  0  0  0
    0.2889    0.8137   -2.8138 H   0  0  0  0  0  0  0  0  0  0  0  0
    0.1707   -0.3080   -0.4284 H   0  0  0  0  0  0  0  0  0  0  0  0
    2.1087   -0.1454   -0.5416 H   0  0  0  0  0  0  0  0  0  0  0  0
    2.0538    2.3448   -0.6607 H   0  0  0  0  0  0  0  0  0  0  0  0
  1  2  3  0
  1  6  1  0
  2  3  1  0
  3  4  1  0
  3  7  1  0
  4  5  3  0
  5  8  1  0
  9 10  1  0
  9 13  1  0
  9 14  1  0
  9 15  1  0
 10 11  1  0
 10 16  1  0
 10 17  1  0
 11 12  2  0
 11 18  1  0
M  RAD  1   3   2
M  END
>  <reaction>  (9) 
rxn_2008

>  <mol_properties>  (9) 
{"1": {"label": "*4", "atom_type": "Ct"}, "2": {"label": "*3", "atom_type": "Cs"}, "9": {"label": "*1", "atom_type": "Cs"}, "10": {"label": "*0", "atom_type": "CS"}, "15": {"label": "*2", "atom_type": "H0"}}

>  <type>  (9) 
unop_5

>  <geom_source>  (9) 
Heuristics

$$$$

     RDKit          3D

 18 16  0  0  0  0  0  0  0  0999 V2000
   -2.8467    0.1146    0.2499 C   0  0  0  0  0  0  0  0  0  0  0  0
   -1.9284   -0.6378    0.1092 C   0  0  0  0  0  0  0  0  0  0  0  0
   -0.8046   -1.5586   -0.0630 C   0  0  0  0  0  3  0  0  0  0  0  0
    0.1353   -1.5446    1.0581 C   0  0  0  0  0  0  0  0  0  0  0  0
    0.9033   -1.5331    1.9742 C   0  0  0  0  0  0  0  0  0  0  0  0
   -3.6636    0.7839    0.3751 H   0  0  0  0  0  0  0  0  0  0  0  0
   -1.1891   -2.5736   -0.1967 H   0  0  0  0  0  0  0  0  0  0  0  0
    1.5865   -1.5229    2.7891 H   0  0  0  0  0  0  0  0  0  0  0  0
    1.2542   -0.2376   -2.5330 C   0  0  0  0  0  0  0  0  0  0  0  0
    1.2542   -0.2376   -1.0019 C   0  0  0  0  0  0  0  0  0  0  0  0
    1.2542    1.1506   -0.4552 C   0  0  0  0  0  0  0  0  0  0  0  0
    0.1347    1.8063    0.4923 S   0  0  0  0  0  0  0  0  0  0  0  0
    2.1094    0.3125   -2.9301 H   0  0  0  0  0  0  0  0  0  0  0  0
    1.3051   -1.2585   -2.9116 H   0  0  0  0  0  0  0  0  0  0  0  0
    0.3447    0.2248   -2.9186 H   0  0  0  0  0  0  0  0  0  0  0  0
    0.2266   -0.8970   -0.5333 H   0  0  0  0  0  0  0  0  0  0  0  0
    2.1646   -0.7343   -0.6465 H   0  0  0  0  0  0  0  0  0  0  0  0
    2.1097    1.7558   -0.7656 H   0  0  0  0  0  0  0  0  0  0  0  0
  1  2  3  0
  1  6  1  0
  2  3  1  0
  3  4  1  0
  3  7  1  0
  4  5  3  0
  5  8  1  0
  9 10  1  0
  9 13  1  0
  9 14  1  0
  9 15  1  0
 10 11  1  0
 10 16  1  0
 10 17  1  0
 11 12  2  0
 11 18  1  0
M  RAD  1   3   2
M  END
>  <reaction>  (10) 
rxn_2008

>  <mol_properties>  (10) 
{"1": {"label": "*4", "atom_type": "Ct"}, "2": {"label": "*3", "atom_type": "Cs"}, "9": {"label": "*1", "atom_type": "Cs"}, "10": {"label": "*0", "atom_type": "CS"}, "15": {"label": "*2", "atom_type": "H0"}}

>  <type>  (10) 
unop_6

>  <geom_source>  (10) 
Heuristics

$$$$

     RDKit          3D

 18 16  0  0  0  0  0  0  0  0999 V2000
   -2.4181    0.2349    1.3582 C   0  0  0  0  0  0  0  0  0  0  0  0
   -1.7517   -0.4994    0.6904 C   0  0  0  0  0  0  0  0  0  0  0  0
   -0.9363   -1.3981   -0.1268 C   0  0  0  0  0  3  0  0  0  0  0  0
    0.1983   -1.9724    0.5965 C   0  0  0  0  0  0  0  0  0  0  0  0
    1.1255   -2.4417    1.1875 C   0  0  0  0  0  0  0  0  0  0  0  0
   -3.0108    0.8881    1.9523 H   0  0  0  0  0  0  0  0  0  0  0  0
   -1.5656   -2.2069   -0.5084 H   0  0  0  0  0  0  0  0  0  0  0  0
    1.9502   -2.8592    1.7133 H   0  0  0  0  0  0  0  0  0  0  0  0
    1.1225   -0.0771   -2.5968 C   0  0  0  0  0  0  0  0  0  0  0  0
    1.1225   -0.0771   -1.0657 C   0  0  0  0  0  0  0  0  0  0  0  0
    1.1225    1.3111   -0.5190 C   0  0  0  0  0  0  0  0  0  0  0  0
    0.0030    1.9668    0.4285 S   0  0  0  0  0  0  0  0  0  0  0  0
    1.9777    0.4730   -2.9939 H   0  0  0  0  0  0  0  0  0  0  0  0
    1.1734   -1.0980   -2.9754 H   0  0  0  0  0  0  0  0  0  0  0  0
    0.2130    0.3853   -2.9824 H   0  0  0  0  0  0  0  0  0  0  0  0
    0.0949   -0.7365   -0.5970 H   0  0  0  0  0  0  0  0  0  0  0  0
    2.0329   -0.5738   -0.7103 H   0  0  0  0  0  0  0  0  0  0  0  0
    1.9780    1.9163   -0.8294 H   0  0  0  0  0  0  0  0  0  0  0  0
  1  2  3  0
  1  6  1  0
  2  3  1  0
  3  4  1  0
  3  7  1  0
  4  5  3  0
  5  8  1  0
  9 10  1  0
  9 13  1  0
  9 14  1  0
  9 15  1  0
 10 11  1  0
 10 16  1  0
 10 17  1  0
 11 12  2  0
 11 18  1  0
M  RAD  1   3   2
M  END
>  <reaction>  (11) 
rxn_2008

>  <mol_properties>  (11) 
{"1": {"label": "*4", "atom_type": "Ct"}, "2": {"label": "*3", "atom_type": "Cs"}, "9": {"label": "*1", "atom_type": "Cs"}, "10": {"label": "*0", "atom_type": "CS"}, "15": {"label": "*2", "atom_type": "H0"}}

>  <type>  (11) 
unop_7

>  <geom_source>  (11) 
Heuristics

$$$$

     RDKit          3D

 18 16  0  0  0  0  0  0  0  0999 V2000
    0.0963   -3.5613    0.5537 C   0  0  0  0  0  0  0  0  0  0  0  0
   -0.2049   -2.4129    0.4130 C   0  0  0  0  0  0  0  0  0  0  0  0
   -0.5735   -1.0076    0.2408 C   0  0  0  0  0  3  0  0  0  0  0  0
   -2.0191   -0.7879    0.1908 C   0  0  0  0  0  0  0  0  0  0  0  0
   -3.2003   -0.6084    0.1500 C   0  0  0  0  0  0  0  0  0  0  0  0
    0.3643   -4.5828    0.6788 H   0  0  0  0  0  0  0  0  0  0  0  0
   -0.1493   -0.4219    1.0611 H   0  0  0  0  0  0  0  0  0  0  0  0
   -4.2511   -0.4487    0.1136 H   0  0  0  0  0  0  0  0  0  0  0  0
    1.4853    0.3133   -2.2292 C   0  0  0  0  0  0  0  0  0  0  0  0
    1.4853    0.3133   -0.6981 C   0  0  0  0  0  0  0  0  0  0  0  0
    1.4853    1.7015   -0.1515 C   0  0  0  0  0  0  0  0  0  0  0  0
    0.3657    2.3572    0.7961 S   0  0  0  0  0  0  0  0  0  0  0  0
    2.3405    0.8635   -2.6263 H   0  0  0  0  0  0  0  0  0  0  0  0
    1.5361   -0.7076   -2.6079 H   0  0  0  0  0  0  0  0  0  0  0  0
    0.5758    0.7757   -2.6149 H   0  0  0  0  0  0  0  0  0  0  0  0
    0.4576   -0.3460   -0.2295 H   0  0  0  0  0  0  0  0  0  0  0  0
    2.3956   -0.1834   -0.3427 H   0  0  0  0  0  0  0  0  0  0  0  0
    2.3407    2.3068   -0.4618 H   0  0  0  0  0  0  0  0  0  0  0  0
  1  2  3  0
  1  6  1  0
  2  3  1  0
  3  4  1  0
  3  7  1  0
  4  5  3  0
  5  8  1  0
  9 10  1  0
  9 13  1  0
  9 14  1  0
  9 15  1  0
 10 11  1  0
 10 16  1  0
 10 17  1  0
 11 12  2  0
 11 18  1  0
M  RAD  1   3   2
M  END
>  <reaction>  (12) 
rxn_2008

>  <mol_properties>  (12) 
{"1": {"label": "*4", "atom_type": "Ct"}, "2": {"label": "*3", "atom_type": "Cs"}, "9": {"label": "*1", "atom_type": "Cs"}, "10": {"label": "*0", "atom_type": "CS"}, "15": {"label": "*2", "atom_type": "H0"}}

>  <type>  (12) 
unop_8

>  <geom_source>  (12) 
Heuristics

$$$$

     RDKit          3D

 18 16  0  0  0  0  0  0  0  0999 V2000
   -2.5412   -1.3700   -1.5021 C   0  0  0  0  0  0  0  0  0  0  0  0
   -1.6328   -1.4580   -0.7299 C   0  0  0  0  0  0  0  0  0  0  0  0
   -0.5212   -1.5657    0.2152 C   0  0  0  0  0  3  0  0  0  0  0  0
   -0.6746   -0.7111    1.3927 C   0  0  0  0  0  0  0  0  0  0  0  0
   -0.8000   -0.0128    2.3549 C   0  0  0  0  0  0  0  0  0  0  0  0
   -3.3492   -1.2917   -2.1891 H   0  0  0  0  0  0  0  0  0  0  0  0
   -0.4227   -2.6062    0.5369 H   0  0  0  0  0  0  0  0  0  0  0  0
   -0.9116    0.6083    3.2109 H   0  0  0  0  0  0  0  0  0  0  0  0
    1.5376   -0.2447   -2.2548 C   0  0  0  0  0  0  0  0  0  0  0  0
    1.5376   -0.2447   -0.7237 C   0  0  0  0  0  0  0  0  0  0  0  0
    1.5376    1.1435   -0.1770 C   0  0  0  0  0  0  0  0  0  0  0  0
    0.4181    1.7992    0.7705 S   0  0  0  0  0  0  0  0  0  0  0  0
    2.3928    0.3055   -2.6519 H   0  0  0  0  0  0  0  0  0  0  0  0
    1.5884   -1.2656   -2.6335 H   0  0  0  0  0  0  0  0  0  0  0  0
    0.6281    0.2177   -2.6405 H   0  0  0  0  0  0  0  0  0  0  0  0
    0.5099   -0.9041   -0.2551 H   0  0  0  0  0  0  0  0  0  0  0  0
    2.4480   -0.7414   -0.3683 H   0  0  0  0  0  0  0  0  0  0  0  0
    2.3931    1.7487   -0.4874 H   0  0  0  0  0  0  0  0  0  0  0  0
  1  2  3  0
  1  6  1  0
  2  3  1  0
  3  4  1  0
  3  7  1  0
  4  5  3  0
  5  8  1  0
  9 10  1  0
  9 13  1  0
  9 14  1  0
  9 15  1  0
 10 11  1  0
 10 16  1  0
 10 17  1  0
 11 12  2  0
 11 18  1  0
M  RAD  1   3   2
M  END
>  <reaction>  (13) 
rxn_2008

>  <mol_properties>  (13) 
{"1": {"label": "*4", "atom_type": "Ct"}, "2": {"label": "*3", "atom_type": "Cs"}, "9": {"label": "*1", "atom_type": "Cs"}, "10": {"label": "*0", "atom_type": "CS"}, "15": {"label": "*2", "atom_type": "H0"}}

>  <type>  (13) 
unop_9

>  <geom_source>  (13) 
Heuristics

$$$$

     RDKit          3D

 18 16  0  0  0  0  0  0  0  0999 V2000
   -0.4066   -3.5855   -0.5401 C   0  0  0  0  0  0  0  0  0  0  0  0
   -0.4559   -2.4552   -0.1537 C   0  0  0  0  0  0  0  0  0  0  0  0
   -0.5162   -1.0721    0.3192 C   0  0  0  0  0  3  0  0  0  0  0  0
   -1.8748   -0.6183    0.6167 C   0  0  0  0  0  0  0  0  0  0  0  0
   -2.9850   -0.2474    0.8598 C   0  0  0  0  0  0  0  0  0  0  0  0
   -0.3628   -4.5909   -0.8838 H   0  0  0  0  0  0  0  0  0  0  0  0
    0.1005   -0.9721    1.2167 H   0  0  0  0  0  0  0  0  0  0  0  0
   -3.9727    0.0824    1.0760 H   0  0  0  0  0  0  0  0  0  0  0  0
    1.5426    0.2489   -2.1508 C   0  0  0  0  0  0  0  0  0  0  0  0
    1.5426    0.2489   -0.6197 C   0  0  0  0  0  0  0  0  0  0  0  0
    1.5426    1.6371   -0.0730 C   0  0  0  0  0  0  0  0  0  0  0  0
    0.4231    2.2928    0.8745 S   0  0  0  0  0  0  0  0  0  0  0  0
    2.3978    0.7991   -2.5479 H   0  0  0  0  0  0  0  0  0  0  0  0
    1.5935   -0.7720   -2.5295 H   0  0  0  0  0  0  0  0  0  0  0  0
    0.6331    0.7113   -2.5365 H   0  0  0  0  0  0  0  0  0  0  0  0
    0.5150   -0.4105   -0.1511 H   0  0  0  0  0  0  0  0  0  0  0  0
    2.4530   -0.2478   -0.2643 H   0  0  0  0  0  0  0  0  0  0  0  0
    2.3981    2.2424   -0.3834 H   0  0  0  0  0  0  0  0  0  0  0  0
  1  2  3  0
  1  6  1  0
  2  3  1  0
  3  4  1  0
  3  7  1  0
  4  5  3  0
  5  8  1  0
  9 10  1  0
  9 13  1  0
  9 14  1  0
  9 15  1  0
 10 11  1  0
 10 16  1  0
 10 17  1  0
 11 12  2  0
 11 18  1  0
M  RAD  1   3   2
M  END
>  <reaction>  (14) 
rxn_2008

>  <mol_properties>  (14) 
{"1": {"label": "*4", "atom_type": "Ct"}, "2": {"label": "*3", "atom_type": "Cs"}, "9": {"label": "*1", "atom_type": "Cs"}, "10": {"label": "*0", "atom_type": "CS"}, "15": {"label": "*2", "atom_type": "H0"}}

>  <type>  (14) 
unop_10

>  <geom_source>  (14) 
Heuristics

$$$$

     RDKit          3D

 18 16  0  0  0  0  0  0  0  0999 V2000
   -1.6954   -0.1271    2.2522 C   0  0  0  0  0  0  0  0  0  0  0  0
   -1.3769   -0.5935    1.1986 C   0  0  0  0  0  0  0  0  0  0  0  0
   -0.9871   -1.1644   -0.0909 C   0  0  0  0  0  3  0  0  0  0  0  0
   -0.0793   -2.3053    0.0293 C   0  0  0  0  0  0  0  0  0  0  0  0
    0.6625   -3.2377    0.1274 C   0  0  0  0  0  0  0  0  0  0  0  0
   -1.9787    0.2878    3.1895 H   0  0  0  0  0  0  0  0  0  0  0  0
   -1.8850   -1.4752   -0.6322 H   0  0  0  0  0  0  0  0  0  0  0  0
    1.3224   -4.0671    0.2147 H   0  0  0  0  0  0  0  0  0  0  0  0
    1.0717    0.1566   -2.5608 C   0  0  0  0  0  0  0  0  0  0  0  0
    1.0717    0.1566   -1.0298 C   0  0  0  0  0  0  0  0  0  0  0  0
    1.0717    1.5448   -0.4831 C   0  0  0  0  0  0  0  0  0  0  0  0
   -0.0478    2.2005    0.4645 S   0  0  0  0  0  0  0  0  0  0  0  0
    1.9269    0.7068   -2.9579 H   0  0  0  0  0  0  0  0  0  0  0  0
    1.1225   -0.8643   -2.9395 H   0  0  0  0  0  0  0  0  0  0  0  0
    0.1622    0.6190   -2.9465 H   0  0  0  0  0  0  0  0  0  0  0  0
    0.0441   -0.5028   -0.5611 H   0  0  0  0  0  0  0  0  0  0  0  0
    1.9821   -0.3401   -0.6743 H   0  0  0  0  0  0  0  0  0  0  0  0
    1.9272    2.1500   -0.7934 H   0  0  0  0  0  0  0  0  0  0  0  0
  1  2  3  0
  1  6  1  0
  2  3  1  0
  3  4  1  0
  3  7  1  0
  4  5  3  0
  5  8  1  0
  9 10  1  0
  9 13  1  0
  9 14  1  0
  9 15  1  0
 10 11  1  0
 10 16  1  0
 10 17  1  0
 11 12  2  0
 11 18  1  0
M  RAD  1   3   2
M  END
>  <reaction>  (15) 
rxn_2008

>  <mol_properties>  (15) 
{"1": {"label": "*4", "atom_type": "Ct"}, "2": {"label": "*3", "atom_type": "Cs"}, "9": {"label": "*1", "atom_type": "Cs"}, "10": {"label": "*0", "atom_type": "CS"}, "15": {"label": "*2", "atom_type": "H0"}}

>  <type>  (15) 
unop_11

>  <geom_source>  (15) 
Heuristics

$$$$

     RDKit          3D

 18 16  0  0  0  0  0  0  0  0999 V2000
   -1.8910   -2.3329   -1.6992 C   0  0  0  0  0  0  0  0  0  0  0  0
   -1.2419   -1.9165   -0.7857 C   0  0  0  0  0  0  0  0  0  0  0  0
   -0.4476   -1.4068    0.3322 C   0  0  0  0  0  3  0  0  0  0  0  0
   -1.2042   -0.5390    1.2348 C   0  0  0  0  0  0  0  0  0  0  0  0
   -1.8226    0.1701    1.9724 C   0  0  0  0  0  0  0  0  0  0  0  0
   -2.4684   -2.7034   -2.5118 H   0  0  0  0  0  0  0  0  0  0  0  0
   -0.0433   -2.2499    0.8994 H   0  0  0  0  0  0  0  0  0  0  0  0
   -2.3726    0.8009    2.6286 H   0  0  0  0  0  0  0  0  0  0  0  0
    1.6113   -0.0858   -2.1378 C   0  0  0  0  0  0  0  0  0  0  0  0
    1.6113   -0.0858   -0.6067 C   0  0  0  0  0  0  0  0  0  0  0  0
    1.6113    1.3023   -0.0600 C   0  0  0  0  0  0  0  0  0  0  0  0
    0.4917    1.9580    0.8875 S   0  0  0  0  0  0  0  0  0  0  0  0
    2.4665    0.4643   -2.5349 H   0  0  0  0  0  0  0  0  0  0  0  0
    1.6621   -1.1068   -2.5164 H   0  0  0  0  0  0  0  0  0  0  0  0
    0.7018    0.3765   -2.5234 H   0  0  0  0  0  0  0  0  0  0  0  0
    0.5836   -0.7452   -0.1381 H   0  0  0  0  0  0  0  0  0  0  0  0
    2.5216   -0.5825   -0.2513 H   0  0  0  0  0  0  0  0  0  0  0  0
    2.4667    1.9076   -0.3704 H   0  0  0  0  0  0  0  0  0  0  0  0
  1  2  3  0
  1  6  1  0
  2  3  1  0
  3  4  1  0
  3  7  1  0
  4  5  3  0
  5  8  1  0
  9 10  1  0
  9 13  1  0
  9 14  1  0
  9 15  1  0
 10 11  1  0
 10 16  1  0
 10 17  1  0
 11 12  2  0
 11 18  1  0
M  RAD  1   3   2
M  END
>  <reaction>  (16) 
rxn_2008

>  <mol_properties>  (16) 
{"1": {"label": "*4", "atom_type": "Ct"}, "2": {"label": "*3", "atom_type": "Cs"}, "9": {"label": "*1", "atom_type": "Cs"}, "10": {"label": "*0", "atom_type": "CS"}, "15": {"label": "*2", "atom_type": "H0"}}

>  <type>  (16) 
unop_12

>  <geom_source>  (16) 
Heuristics

$$$$

     RDKit          3D

 18 16  0  0  0  0  0  0  0  0999 V2000
    2.8486   -0.6966    2.0949 S   0  0  0  0  0  1  0  0  0  0  0  0
   -1.3238   -0.0707    0.3760 C   0  0  0  0  0  0  0  0  0  0  0  0
    2.0973   -0.1954   -1.0310 C   0  0  0  0  0  0  0  0  0  0  0  0
    1.2251   -0.6999    0.1132 C   0  0  0  0  0  0  0  0  0  0  0  0
    1.6766   -0.1755    1.4459 C   0  0  0  0  0  0  0  0  0  0  0  0
   -1.7106    1.3215    0.6127 C   0  0  0  0  0  0  0  0  0  0  0  0
   -2.0903   -0.6124   -0.7478 C   0  0  0  0  0  0  0  0  0  0  0  0
   -2.0275    2.4681    0.8091 C   0  0  0  0  0  0  0  0  0  0  0  0
   -2.7204   -1.0602   -1.6731 C   0  0  0  0  0  0  0  0  0  0  0  0
   -1.5287   -0.6710    1.2864 H   0  0  0  0  0  0  0  0  0  0  0  0
   -0.0047   -0.1277    0.0887 H   0  0  0  0  0  0  0  0  0  0  0  0
    1.6756   -0.5476   -1.9951 H   0  0  0  0  0  0  0  0  0  0  0  0
    3.1331   -0.5835   -0.9303 H   0  0  0  0  0  0  0  0  0  0  0  0
    2.1162    0.9150   -1.0356 H   0  0  0  0  0  0  0  0  0  0  0  0
    1.1706   -1.8107    0.1125 H   0  0  0  0  0  0  0  0  0  0  0  0
    1.0422    0.5251    1.9775 H   0  0  0  0  0  0  0  0  0  0  0  0
   -2.3058    3.4745    0.9813 H   0  0  0  0  0  0  0  0  0  0  0  0
   -3.2734   -1.4531   -2.4853 H   0  0  0  0  0  0  0  0  0  0  0  0
  1  5  1  0
  2  6  1  0
  2  7  1  0
  2 10  1  0
  2 11  1  0
  3  4  1  0
  3 12  1  0
  3 13  1  0
  3 14  1  0
  4  5  2  3
  4 15  1  0
  5 16  1  0
  6  8  3  0
  7  9  3  0
  8 17  1  0
  9 18  1  0
M  RAD  1   1   2
M  END
>  <reaction>  (17) 
rxn_2008

>  <mol_properties>  (17) 
{"1": {"label": "*4", "atom_type": "Ct"}, "2": {"label": "*3", "atom_type": "Cs"}, "9": {"label": "*1", "atom_type": "Cs"}, "10": {"label": "*0", "atom_type": "CS"}, "15": {"label": "*2", "atom_type": "H0"}}

>  <type>  (17) 
unop_13

>  <geom_source>  (17) 
AutoTST

$$$$
