
     RDKit          3D

  9  8  0  0  0  0  0  0  0  0999 V2000
   -2.1022   -0.6873    0.3932 C   0  0  0  0  0  0  0  0  0  0  0  0
   -1.2072   -0.1086   -0.1482 C   0  0  0  0  0  0  0  0  0  0  0  0
   -0.1242    0.6105   -0.8193 C   0  0  0  0  0  0  0  0  0  0  0  0
    1.2067    0.1106   -0.4741 C   0  0  0  0  0  0  0  0  0  0  0  0
    2.3005   -0.2875   -0.2012 C   0  0  0  0  0  0  0  0  0  0  0  0
   -2.8942   -1.2059    0.8778 H   0  0  0  0  0  0  0  0  0  0  0  0
   -0.1862    1.6723   -0.5649 H   0  0  0  0  0  0  0  0  0  0  0  0
   -0.2641    0.5418   -1.9017 H   0  0  0  0  0  0  0  0  0  0  0  0
    3.2709   -0.6459    0.0455 H   0  0  0  0  0  0  0  0  0  0  0  0
  1  2  3  0
  1  6  1  0
  2  3  1  0
  3  4  1  0
  3  7  1  0
  3  8  1  0
  4  5  3  0
  5  9  1  0
M  END
>  <reaction>  (1) 
rxn_1387

>  <mol_properties>  (1) 
{"2": {"label": "donator", "atom_type": "Cs"}, "6": {"label": "d_hydrogen", "atom_type": "H0"}}

>  <type>  (1) 
r1h

$$$$

     RDKit          3D

  7  6  0  0  0  0  0  0  0  0999 V2000
   -0.6904   -0.9066   -0.0346 C   0  0  0  0  0  0  0  0  0  0  0  0
    0.1413    0.0254   -0.6161 C   0  0  0  0  0  0  0  0  0  0  0  0
    0.4603    0.1105   -1.9267 C   0  0  0  0  0  3  0  0  0  0  0  0
    0.8318    0.2180   -3.4201 S   0  0  0  0  0  0  0  0  0  0  0  0
   -0.8731   -0.8770    1.0287 H   0  0  0  0  0  0  0  0  0  0  0  0
   -1.1718   -1.6767   -0.6199 H   0  0  0  0  0  0  0  0  0  0  0  0
    0.6090    0.7866    0.0044 H   0  0  0  0  0  0  0  0  0  0  0  0
  1  2  2  3
  1  5  1  0
  1  6  1  0
  2  3  1  0
  2  7  1  0
  3  4  2  0
M  RAD  1   3   2
M  END
>  <reaction>  (2) 
rxn_1387

>  <mol_properties>  (2) 
{"2": {"label": "acceptor", "atom_type": "CS"}}

>  <type>  (2) 
r2

$$$$

     RDKit          3D

  8  7  0  0  0  0  0  0  0  0999 V2000
   -1.1617    0.0338    0.5053 C   0  0  0  0  0  0  0  0  0  0  0  0
   -0.1023    0.4503   -0.1863 C   0  0  0  0  0  0  0  0  0  0  0  0
    1.0978   -0.3557   -0.3104 C   0  0  0  0  0  0  0  0  0  0  0  0
    2.4251    0.0667   -1.1256 S   0  0  0  0  0  0  0  0  0  0  0  0
   -1.1653   -0.9292    1.0039 H   0  0  0  0  0  0  0  0  0  0  0  0
   -2.0546    0.6389    0.5948 H   0  0  0  0  0  0  0  0  0  0  0  0
   -0.0991    1.4132   -0.6847 H   0  0  0  0  0  0  0  0  0  0  0  0
    1.0601   -1.3180    0.2032 H   0  0  0  0  0  0  0  0  0  0  0  0
  1  2  2  3
  1  5  1  0
  1  6  1  0
  2  3  1  0
  2  7  1  0
  3  4  2  0
  3  8  1  0
M  END
>  <reaction>  (3) 
rxn_1387

>  <mol_properties>  (3) 
{"0": {"label": "a_hydrogen", "atom_type": "H0"}, "3": {"label": "acceptor", "atom_type": "CS"}}

>  <type>  (3) 
r2h

$$$$

     RDKit          3D

 16 14  0  0  0  0  0  0  0  0999 V2000
   -1.1843   -0.9573   -3.0369 C   0  0  0  0  0  0  0  0  0  0  0  0
   -1.0220   -1.0946   -1.8558 C   0  0  0  0  0  0  0  0  0  0  0  0
   -0.7664   -1.2011   -0.4471 C   0  0  0  0  0  0  0  0  0  0  0  0
   -1.8976   -1.1798    0.4287 C   0  0  0  0  0  0  0  0  0  0  0  0
   -2.8109   -1.1032    1.2039 C   0  0  0  0  0  0  0  0  0  0  0  0
   -1.3525   -0.8535   -4.0817 H   0  0  0  0  0  0  0  0  0  0  0  0
   -0.0941   -0.1096   -0.0985 H   0  0  0  0  0  0  0  0  0  0  0  0
   -0.0507   -1.9864   -0.2026 H   0  0  0  0  0  0  0  0  0  0  0  0
   -3.6275   -1.0473    1.8825 H   0  0  0  0  0  0  0  0  0  0  0  0
    2.0301    0.7695   -1.5388 C   0  0  0  0  0  0  0  0  0  0  0  0
    1.7319    1.3805   -0.3925 C   0  0  0  0  0  0  0  0  0  0  0  0
    0.5641    1.0353    0.3844 C   0  0  0  0  0  3  0  0  0  0  0  0
   -0.0792    1.7026    1.6652 S   0  0  0  0  0  0  0  0  0  0  0  0
    2.9031    1.0581   -2.1105 H   0  0  0  0  0  0  0  0  0  0  0  0
    1.4040   -0.0147   -1.9471 H   0  0  0  0  0  0  0  0  0  0  0  0
    2.3609    2.1803   -0.0113 H   0  0  0  0  0  0  0  0  0  0  0  0
  1  2  3  0
  1  6  1  0
  2  3  1  0
  3  4  1  0
  3  7  1  0
  3  8  1  0
  4  5  3  0
  5  9  1  0
 10 11  2  3
 10 14  1  0
 10 15  1  0
 11 12  1  0
 11 16  1  0
 12 13  2  0
M  RAD  1  12   2
M  END
>  <reaction>  (4) 
rxn_1387

>  <mol_properties>  (4) 
{"1": {"label": "*0", "atom_type": "Ct"}, "2": {"label": "*1", "atom_type": "Cs"}, "6": {"label": "*2", "atom_type": "H0"}, "11": {"label": "*3", "atom_type": "CS"}, "12": {"label": "*4", "atom_type": "S2d"}}

>  <type>  (4) 
ts

$$$$

     RDKit          3D

 16 14  0  0  0  0  0  0  0  0999 V2000
   -0.6500   -1.1117   -3.0850 C   0  0  0  0  0  0  0  0  0  0  0  0
   -0.6500   -1.1117   -1.8895 C   0  0  0  0  0  0  0  0  0  0  0  0
   -0.6500   -1.1117   -0.4265 C   0  0  0  0  0  3  0  0  0  0  0  0
   -1.9640   -0.8361    0.1547 C   0  0  0  0  0  0  0  0  0  0  0  0
   -3.0377   -0.6108    0.6296 C   0  0  0  0  0  0  0  0  0  0  0  0
   -0.6500   -1.1117   -4.1485 H   0  0  0  0  0  0  0  0  0  0  0  0
    0.2082   -0.2173    0.0045 H   0  0  0  0  0  0  0  0  0  0  0  0
   -0.2946   -2.0815   -0.0673 H   0  0  0  0  0  0  0  0  0  0  0  0
   -3.9929   -0.4105    1.0520 H   0  0  0  0  0  0  0  0  0  0  0  0
   -0.6740    2.2957    0.9587 C   0  0  0  0  0  0  0  0  0  0  0  0
    0.4920    1.7249    1.2569 C   0  0  0  0  0  0  0  0  0  0  0  0
    1.0647    0.6754    0.4348 C   0  0  0  0  0  0  0  0  0  0  0  0
    2.4672   -0.0711    0.7181 S   0  0  0  0  0  0  0  0  0  0  0  0
   -1.0968    3.0781    1.5754 H   0  0  0  0  0  0  0  0  0  0  0  0
   -1.2409    1.9945    0.0848 H   0  0  0  0  0  0  0  0  0  0  0  0
    1.0586    2.0262    2.1309 H   0  0  0  0  0  0  0  0  0  0  0  0
  1  2  3  0
  1  6  1  0
  2  3  1  0
  3  4  1  0
  3  8  1  0
  4  5  3  0
  5  9  1  0
  7 12  1  0
 10 11  2  3
 10 14  1  0
 10 15  1  0
 11 12  1  0
 11 16  1  0
 12 13  2  0
M  RAD  1   3   2
M  END
>  <reaction>  (5) 
rxn_1387

>  <mol_properties>  (5) 
{"1": {"label": "*0", "atom_type": "Ct"}, "2": {"label": "*1", "atom_type": "Cs"}, "6": {"label": "*2", "atom_type": "H0"}, "11": {"label": "*3", "atom_type": "CS"}, "12": {"label": "*4", "atom_type": "S2d"}}

>  <type>  (5) 
unop_1

>  <geom_source>  (5) 
Heuristics

$$$$

     RDKit          3D

 16 14  0  0  0  0  0  0  0  0999 V2000
   -0.6543   -1.2320   -2.9358 C   0  0  0  0  0  0  0  0  0  0  0  0
   -0.6543   -1.2320   -1.7403 C   0  0  0  0  0  0  0  0  0  0  0  0
   -0.6543   -1.2320   -0.2773 C   0  0  0  0  0  3  0  0  0  0  0  0
   -1.9683   -0.9564    0.3038 C   0  0  0  0  0  0  0  0  0  0  0  0
   -3.0421   -0.7312    0.7787 C   0  0  0  0  0  0  0  0  0  0  0  0
   -0.6543   -1.2320   -3.9993 H   0  0  0  0  0  0  0  0  0  0  0  0
    0.2038   -0.3376    0.1537 H   0  0  0  0  0  0  0  0  0  0  0  0
   -0.2989   -2.2019    0.0819 H   0  0  0  0  0  0  0  0  0  0  0  0
   -3.9973   -0.5309    1.2012 H   0  0  0  0  0  0  0  0  0  0  0  0
    0.8766    1.6690   -1.5720 C   0  0  0  0  0  0  0  0  0  0  0  0
    1.2441    1.6971   -0.2920 C   0  0  0  0  0  0  0  0  0  0  0  0
    1.0603    0.5551    0.5839 C   0  0  0  0  0  0  0  0  0  0  0  0
    1.4741    0.4989    2.1429 S   0  0  0  0  0  0  0  0  0  0  0  0
    1.0159    2.5237   -2.2212 H   0  0  0  0  0  0  0  0  0  0  0  0
    0.4238    0.7855   -2.0083 H   0  0  0  0  0  0  0  0  0  0  0  0
    1.6968    2.5806    0.1439 H   0  0  0  0  0  0  0  0  0  0  0  0
  1  2  3  0
  1  6  1  0
  2  3  1  0
  3  4  1  0
  3  8  1  0
  4  5  3  0
  5  9  1  0
  7 12  1  0
 10 11  2  3
 10 14  1  0
 10 15  1  0
 11 12  1  0
 11 16  1  0
 12 13  2  0
M  RAD  1   3   2
M  END
>  <reaction>  (6) 
rxn_1387

>  <mol_properties>  (6) 
{"1": {"label": "*0", "atom_type": "Ct"}, "2": {"label": "*1", "atom_type": "Cs"}, "6": {"label": "*2", "atom_type": "H0"}, "11": {"label": "*3", "atom_type": "CS"}, "12": {"label": "*4", "atom_type": "S2d"}}

>  <type>  (6) 
unop_2

>  <geom_source>  (6) 
Heuristics

$$$$

     RDKit          3D

 16 14  0  0  0  0  0  0  0  0999 V2000
   -0.7112   -1.0962   -3.0523 C   0  0  0  0  0  0  0  0  0  0  0  0
   -0.7112   -1.0962   -1.8568 C   0  0  0  0  0  0  0  0  0  0  0  0
   -0.7112   -1.0962   -0.3938 C   0  0  0  0  0  3  0  0  0  0  0  0
   -2.0252   -0.8206    0.1874 C   0  0  0  0  0  0  0  0  0  0  0  0
   -3.0989   -0.5954    0.6623 C   0  0  0  0  0  0  0  0  0  0  0  0
   -0.7112   -1.0962   -4.1157 H   0  0  0  0  0  0  0  0  0  0  0  0
    0.1470   -0.2018    0.0373 H   0  0  0  0  0  0  0  0  0  0  0  0
   -0.3558   -2.0661   -0.0346 H   0  0  0  0  0  0  0  0  0  0  0  0
   -4.0541   -0.3951    1.0848 H   0  0  0  0  0  0  0  0  0  0  0  0
   -0.5937    1.4658    2.1322 C   0  0  0  0  0  0  0  0  0  0  0  0
    0.6688    1.2926    1.7447 C   0  0  0  0  0  0  0  0  0  0  0  0
    1.0035    0.6909    0.4675 C   0  0  0  0  0  0  0  0  0  0  0  0
    2.5000    0.4424   -0.0832 S   0  0  0  0  0  0  0  0  0  0  0  0
   -0.8380    1.9152    3.0860 H   0  0  0  0  0  0  0  0  0  0  0  0
   -1.4225    1.1612    1.5027 H   0  0  0  0  0  0  0  0  0  0  0  0
    1.4973    1.5973    2.3743 H   0  0  0  0  0  0  0  0  0  0  0  0
  1  2  3  0
  1  6  1  0
  2  3  1  0
  3  4  1  0
  3  8  1  0
  4  5  3  0
  5  9  1  0
  7 12  1  0
 10 11  2  3
 10 14  1  0
 10 15  1  0
 11 12  1  0
 11 16  1  0
 12 13  2  0
M  RAD  1   3   2
M  END
>  <reaction>  (7) 
rxn_1387

>  <mol_properties>  (7) 
{"1": {"label": "*0", "atom_type": "Ct"}, "2": {"label": "*1", "atom_type": "Cs"}, "6": {"label": "*2", "atom_type": "H0"}, "11": {"label": "*3", "atom_type": "CS"}, "12": {"label": "*4", "atom_type": "S2d"}}

>  <type>  (7) 
unop_3

>  <geom_source>  (7) 
Heuristics

$$$$

     RDKit          3D

 16 14  0  0  0  0  0  0  0  0999 V2000
   -0.7625   -1.0700   -3.0019 C   0  0  0  0  0  0  0  0  0  0  0  0
   -0.7625   -1.0700   -1.8064 C   0  0  0  0  0  0  0  0  0  0  0  0
   -0.7625   -1.0700   -0.3434 C   0  0  0  0  0  3  0  0  0  0  0  0
   -2.0765   -0.7944    0.2378 C   0  0  0  0  0  0  0  0  0  0  0  0
   -3.1503   -0.5692    0.7126 C   0  0  0  0  0  0  0  0  0  0  0  0
   -0.7625   -1.0700   -4.0654 H   0  0  0  0  0  0  0  0  0  0  0  0
    0.0956   -0.1757    0.0876 H   0  0  0  0  0  0  0  0  0  0  0  0
   -0.4071   -2.0399    0.0158 H   0  0  0  0  0  0  0  0  0  0  0  0
   -4.1055   -0.3689    1.1351 H   0  0  0  0  0  0  0  0  0  0  0  0
    2.6203   -0.0658   -1.0718 C   0  0  0  0  0  0  0  0  0  0  0  0
    2.3237    0.5002    0.0969 C   0  0  0  0  0  0  0  0  0  0  0  0
    0.9521    0.7170    0.5178 C   0  0  0  0  0  0  0  0  0  0  0  0
    0.4999    1.3931    1.9118 S   0  0  0  0  0  0  0  0  0  0  0  0
    3.6451   -0.2253   -1.3810 H   0  0  0  0  0  0  0  0  0  0  0  0
    1.8422   -0.3870   -1.7553 H   0  0  0  0  0  0  0  0  0  0  0  0
    3.1020    0.8212    0.7801 H   0  0  0  0  0  0  0  0  0  0  0  0
  1  2  3  0
  1  6  1  0
  2  3  1  0
  3  4  1  0
  3  8  1  0
  4  5  3  0
  5  9  1  0
  7 12  1  0
 10 11  2  3
 10 14  1  0
 10 15  1  0
 11 12  1  0
 11 16  1  0
 12 13  2  0
M  RAD  1   3   2
M  END
>  <reaction>  (8) 
rxn_1387

>  <mol_properties>  (8) 
{"1": {"label": "*0", "atom_type": "Ct"}, "2": {"label": "*1", "atom_type": "Cs"}, "6": {"label": "*2", "atom_type": "H0"}, "11": {"label": "*3", "atom_type": "CS"}, "12": {"label": "*4", "atom_type": "S2d"}}

>  <type>  (8) 
unop_4

>  <geom_source>  (8) 
Heuristics

$$$$

     RDKit          3D

 16 14  0  0  0  0  0  0  0  0999 V2000
   -0.7010   -1.1638   -3.0102 C   0  0  0  0  0  0  0  0  0  0  0  0
   -0.7010   -1.1638   -1.8147 C   0  0  0  0  0  0  0  0  0  0  0  0
   -0.7010   -1.1638   -0.3517 C   0  0  0  0  0  3  0  0  0  0  0  0
   -2.0151   -0.8882    0.2294 C   0  0  0  0  0  0  0  0  0  0  0  0
   -3.0888   -0.6630    0.7043 C   0  0  0  0  0  0  0  0  0  0  0  0
   -0.7010   -1.1638   -4.0737 H   0  0  0  0  0  0  0  0  0  0  0  0
    0.1571   -0.2694    0.0793 H   0  0  0  0  0  0  0  0  0  0  0  0
   -0.3457   -2.1336    0.0075 H   0  0  0  0  0  0  0  0  0  0  0  0
   -4.0440   -0.4626    1.1268 H   0  0  0  0  0  0  0  0  0  0  0  0
    0.3834   -0.0335    2.7665 C   0  0  0  0  0  0  0  0  0  0  0  0
    1.1137    0.7276    1.9533 C   0  0  0  0  0  0  0  0  0  0  0  0
    1.0136    0.6233    0.5095 C   0  0  0  0  0  0  0  0  0  0  0  0
    1.8564    1.5018   -0.5500 S   0  0  0  0  0  0  0  0  0  0  0  0
    0.4619    0.0483    3.8429 H   0  0  0  0  0  0  0  0  0  0  0  0
   -0.3170   -0.7635    2.3761 H   0  0  0  0  0  0  0  0  0  0  0  0
    1.8139    1.4575    2.3440 H   0  0  0  0  0  0  0  0  0  0  0  0
  1  2  3  0
  1  6  1  0
  2  3  1  0
  3  4  1  0
  3  8  1  0
  4  5  3  0
  5  9  1  0
  7 12  1  0
 10 11  2  3
 10 14  1  0
 10 15  1  0
 11 12  1  0
 11 16  1  0
 12 13  2  0
M  RAD  1   3   2
M  END
>  <reaction>  (9) 
rxn_1387

>  <mol_properties>  (9) 
{"1": {"label": "*0", "atom_type": "Ct"}, "2": {"label": "*1", "atom_type": "Cs"}, "6": {"label": "*2", "atom_type": "H0"}, "11": {"label": "*3", "atom_type": "CS"}, "12": {"label": "*4", "atom_type": "S2d"}}

>  <type>  (9) 
unop_5

>  <geom_source>  (9) 
Heuristics

$$$$

     RDKit          3D

 16 14  0  0  0  0  0  0  0  0999 V2000
   -0.7113   -1.0676   -3.0632 C   0  0  0  0  0  0  0  0  0  0  0  0
   -0.7113   -1.0676   -1.8677 C   0  0  0  0  0  0  0  0  0  0  0  0
   -0.7113   -1.0676   -0.4047 C   0  0  0  0  0  3  0  0  0  0  0  0
   -2.0253   -0.7920    0.1765 C   0  0  0  0  0  0  0  0  0  0  0  0
   -3.0991   -0.5668    0.6514 C   0  0  0  0  0  0  0  0  0  0  0  0
   -0.7113   -1.0676   -4.1267 H   0  0  0  0  0  0  0  0  0  0  0  0
    0.1468   -0.1732    0.0264 H   0  0  0  0  0  0  0  0  0  0  0  0
   -0.3559   -2.0375   -0.0455 H   0  0  0  0  0  0  0  0  0  0  0  0
   -4.0543   -0.3664    1.0738 H   0  0  0  0  0  0  0  0  0  0  0  0
    2.9223   -0.6299   -0.1909 C   0  0  0  0  0  0  0  0  0  0  0  0
    2.3524    0.2246    0.6572 C   0  0  0  0  0  0  0  0  0  0  0  0
    1.0033    0.7195    0.4566 C   0  0  0  0  0  0  0  0  0  0  0  0
    0.2346    1.7533    1.4287 S   0  0  0  0  0  0  0  0  0  0  0  0
    3.9290   -0.9961   -0.0366 H   0  0  0  0  0  0  0  0  0  0  0  0
    2.3948   -0.9888   -1.0677 H   0  0  0  0  0  0  0  0  0  0  0  0
    2.8801    0.5832    1.5338 H   0  0  0  0  0  0  0  0  0  0  0  0
  1  2  3  0
  1  6  1  0
  2  3  1  0
  3  4  1  0
  3  8  1  0
  4  5  3  0
  5  9  1  0
  7 12  1  0
 10 11  2  3
 10 14  1  0
 10 15  1  0
 11 12  1  0
 11 16  1  0
 12 13  2  0
M  RAD  1   3   2
M  END
>  <reaction>  (10) 
rxn_1387

>  <mol_properties>  (10) 
{"1": {"label": "*0", "atom_type": "Ct"}, "2": {"label": "*1", "atom_type": "Cs"}, "6": {"label": "*2", "atom_type": "H0"}, "11": {"label": "*3", "atom_type": "CS"}, "12": {"label": "*4", "atom_type": "S2d"}}

>  <type>  (10) 
unop_6

>  <geom_source>  (10) 
Heuristics

$$$$

     RDKit          3D

 16 14  0  0  0  0  0  0  0  0999 V2000
   -0.6511   -1.1106   -3.0850 C   0  0  0  0  0  0  0  0  0  0  0  0
   -0.6511   -1.1106   -1.8895 C   0  0  0  0  0  0  0  0  0  0  0  0
   -0.6511   -1.1106   -0.4265 C   0  0  0  0  0  3  0  0  0  0  0  0
   -1.9651   -0.8350    0.1547 C   0  0  0  0  0  0  0  0  0  0  0  0
   -3.0389   -0.6098    0.6296 C   0  0  0  0  0  0  0  0  0  0  0  0
   -0.6511   -1.1106   -4.1485 H   0  0  0  0  0  0  0  0  0  0  0  0
    0.2071   -0.2162    0.0045 H   0  0  0  0  0  0  0  0  0  0  0  0
   -0.2957   -2.0804   -0.0673 H   0  0  0  0  0  0  0  0  0  0  0  0
   -3.9940   -0.4094    1.0520 H   0  0  0  0  0  0  0  0  0  0  0  0
    2.7543   -0.9936    0.9587 C   0  0  0  0  0  0  0  0  0  0  0  0
    2.1358    0.1477    1.2569 C   0  0  0  0  0  0  0  0  0  0  0  0
    1.0636    0.6765    0.4348 C   0  0  0  0  0  0  0  0  0  0  0  0
    0.2597    2.0470    0.7181 S   0  0  0  0  0  0  0  0  0  0  0  0
    3.5536   -1.3837    1.5754 H   0  0  0  0  0  0  0  0  0  0  0  0
    2.4769   -1.5725    0.0848 H   0  0  0  0  0  0  0  0  0  0  0  0
    2.4135    0.7263    2.1309 H   0  0  0  0  0  0  0  0  0  0  0  0
  1  2  3  0
  1  6  1  0
  2  3  1  0
  3  4  1  0
  3  8  1  0
  4  5  3  0
  5  9  1  0
  7 12  1  0
 10 11  2  3
 10 14  1  0
 10 15  1  0
 11 12  1  0
 11 16  1  0
 12 13  2  0
M  RAD  1   3   2
M  END
>  <reaction>  (11) 
rxn_1387

>  <mol_properties>  (11) 
{"1": {"label": "*0", "atom_type": "Ct"}, "2": {"label": "*1", "atom_type": "Cs"}, "6": {"label": "*2", "atom_type": "H0"}, "11": {"label": "*3", "atom_type": "CS"}, "12": {"label": "*4", "atom_type": "S2d"}}

>  <type>  (11) 
unop_7

>  <geom_source>  (11) 
Heuristics

$$$$

     RDKit          3D

 16 14  0  0  0  0  0  0  0  0999 V2000
   -0.6045   -1.1701   -3.0632 C   0  0  0  0  0  0  0  0  0  0  0  0
   -0.6045   -1.1701   -1.8677 C   0  0  0  0  0  0  0  0  0  0  0  0
   -0.6045   -1.1701   -0.4047 C   0  0  0  0  0  3  0  0  0  0  0  0
   -1.9185   -0.8945    0.1765 C   0  0  0  0  0  0  0  0  0  0  0  0
   -2.9923   -0.6692    0.6514 C   0  0  0  0  0  0  0  0  0  0  0  0
   -0.6045   -1.1701   -4.1267 H   0  0  0  0  0  0  0  0  0  0  0  0
    0.2536   -0.2757    0.0264 H   0  0  0  0  0  0  0  0  0  0  0  0
   -0.2491   -2.1399   -0.0455 H   0  0  0  0  0  0  0  0  0  0  0  0
   -3.9475   -0.4689    1.0738 H   0  0  0  0  0  0  0  0  0  0  0  0
   -0.3175    2.4785   -0.1909 C   0  0  0  0  0  0  0  0  0  0  0  0
    0.5598    1.9445    0.6572 C   0  0  0  0  0  0  0  0  0  0  0  0
    1.1101    0.6170    0.4566 C   0  0  0  0  0  0  0  0  0  0  0  0
    2.1748   -0.1083    1.4287 S   0  0  0  0  0  0  0  0  0  0  0  0
   -0.7250    3.4692   -0.0366 H   0  0  0  0  0  0  0  0  0  0  0  0
   -0.6543    1.9367   -1.0677 H   0  0  0  0  0  0  0  0  0  0  0  0
    0.8963    2.4866    1.5338 H   0  0  0  0  0  0  0  0  0  0  0  0
  1  2  3  0
  1  6  1  0
  2  3  1  0
  3  4  1  0
  3  8  1  0
  4  5  3  0
  5  9  1  0
  7 12  1  0
 10 11  2  3
 10 14  1  0
 10 15  1  0
 11 12  1  0
 11 16  1  0
 12 13  2  0
M  RAD  1   3   2
M  END
>  <reaction>  (12) 
rxn_1387

>  <mol_properties>  (12) 
{"1": {"label": "*0", "atom_type": "Ct"}, "2": {"label": "*1", "atom_type": "Cs"}, "6": {"label": "*2", "atom_type": "H0"}, "11": {"label": "*3", "atom_type": "CS"}, "12": {"label": "*4", "atom_type": "S2d"}}

>  <type>  (12) 
unop_8

>  <geom_source>  (12) 
Heuristics

$$$$

     RDKit          3D

 16 14  0  0  0  0  0  0  0  0999 V2000
   -0.7712   -1.1199   -2.9358 C   0  0  0  0  0  0  0  0  0  0  0  0
   -0.7712   -1.1199   -1.7403 C   0  0  0  0  0  0  0  0  0  0  0  0
   -0.7712   -1.1199   -0.2773 C   0  0  0  0  0  3  0  0  0  0  0  0
   -2.0852   -0.8443    0.3038 C   0  0  0  0  0  0  0  0  0  0  0  0
   -3.1589   -0.6191    0.7787 C   0  0  0  0  0  0  0  0  0  0  0  0
   -0.7712   -1.1199   -3.9993 H   0  0  0  0  0  0  0  0  0  0  0  0
    0.0870   -0.2255    0.1537 H   0  0  0  0  0  0  0  0  0  0  0  0
   -0.4158   -2.0897    0.0819 H   0  0  0  0  0  0  0  0  0  0  0  0
   -4.1141   -0.4187    1.2012 H   0  0  0  0  0  0  0  0  0  0  0  0
    2.0640    0.5297   -1.5720 C   0  0  0  0  0  0  0  0  0  0  0  0
    2.0769    0.8980   -0.2920 C   0  0  0  0  0  0  0  0  0  0  0  0
    0.9435    0.6672    0.5839 C   0  0  0  0  0  0  0  0  0  0  0  0
    0.8703    1.0782    2.1429 S   0  0  0  0  0  0  0  0  0  0  0  0
    2.9122    0.7042   -2.2212 H   0  0  0  0  0  0  0  0  0  0  0  0
    1.2001    0.0408   -2.0083 H   0  0  0  0  0  0  0  0  0  0  0  0
    2.9409    1.3869    0.1439 H   0  0  0  0  0  0  0  0  0  0  0  0
  1  2  3  0
  1  6  1  0
  2  3  1  0
  3  4  1  0
  3  8  1  0
  4  5  3  0
  5  9  1  0
  7 12  1  0
 10 11  2  3
 10 14  1  0
 10 15  1  0
 11 12  1  0
 11 16  1  0
 12 13  2  0
M  RAD  1   3   2
M  END
>  <reaction>  (13) 
rxn_1387

>  <mol_properties>  (13) 
{"1": {"label": "*0", "atom_type": "Ct"}, "2": {"label": "*1", "atom_type": "Cs"}, "6": {"label": "*2", "atom_type": "H0"}, "11": {"label": "*3", "atom_type": "CS"}, "12": {"label": "*4", "atom_type": "S2d"}}

>  <type>  (13) 
unop_9

>  <geom_source>  (13) 
Heuristics

$$$$

     RDKit          3D

 16 14  0  0  0  0  0  0  0  0999 V2000
   -0.6048   -1.2213   -3.0019 C   0  0  0  0  0  0  0  0  0  0  0  0
   -0.6048   -1.2213   -1.8064 C   0  0  0  0  0  0  0  0  0  0  0  0
   -0.6048   -1.2213   -0.3434 C   0  0  0  0  0  3  0  0  0  0  0  0
   -1.9189   -0.9457    0.2378 C   0  0  0  0  0  0  0  0  0  0  0  0
   -2.9926   -0.7205    0.7126 C   0  0  0  0  0  0  0  0  0  0  0  0
   -0.6048   -1.2213   -4.0654 H   0  0  0  0  0  0  0  0  0  0  0  0
    0.2533   -0.3269    0.0876 H   0  0  0  0  0  0  0  0  0  0  0  0
   -0.2495   -2.1912    0.0158 H   0  0  0  0  0  0  0  0  0  0  0  0
   -3.9478   -0.5202    1.1351 H   0  0  0  0  0  0  0  0  0  0  0  0
    0.2586    2.2002   -1.0718 C   0  0  0  0  0  0  0  0  0  0  0  0
    0.8364    1.9272    0.0969 C   0  0  0  0  0  0  0  0  0  0  0  0
    1.1098    0.5658    0.5178 C   0  0  0  0  0  0  0  0  0  0  0  0
    1.8040    0.1419    1.9118 S   0  0  0  0  0  0  0  0  0  0  0  0
    0.0568    3.2175   -1.3810 H   0  0  0  0  0  0  0  0  0  0  0  0
   -0.0301    1.4094   -1.7553 H   0  0  0  0  0  0  0  0  0  0  0  0
    1.1249    2.7181    0.7801 H   0  0  0  0  0  0  0  0  0  0  0  0
  1  2  3  0
  1  6  1  0
  2  3  1  0
  3  4  1  0
  3  8  1  0
  4  5  3  0
  5  9  1  0
  7 12  1  0
 10 11  2  3
 10 14  1  0
 10 15  1  0
 11 12  1  0
 11 16  1  0
 12 13  2  0
M  RAD  1   3   2
M  END
>  <reaction>  (14) 
rxn_1387

>  <mol_properties>  (14) 
{"1": {"label": "*0", "atom_type": "Ct"}, "2": {"label": "*1", "atom_type": "Cs"}, "6": {"label": "*2", "atom_type": "H0"}, "11": {"label": "*3", "atom_type": "CS"}, "12": {"label": "*4", "atom_type": "S2d"}}

>  <type>  (14) 
unop_10

>  <geom_source>  (14) 
Heuristics

$$$$

     RDKit          3D

 16 14  0  0  0  0  0  0  0  0999 V2000
   -0.6331   -1.1711   -3.0523 C   0  0  0  0  0  0  0  0  0  0  0  0
   -0.6331   -1.1711   -1.8568 C   0  0  0  0  0  0  0  0  0  0  0  0
   -0.6331   -1.1711   -0.3938 C   0  0  0  0  0  3  0  0  0  0  0  0
   -1.9471   -0.8955    0.1874 C   0  0  0  0  0  0  0  0  0  0  0  0
   -3.0209   -0.6703    0.6623 C   0  0  0  0  0  0  0  0  0  0  0  0
   -0.6331   -1.1711   -4.1157 H   0  0  0  0  0  0  0  0  0  0  0  0
    0.2250   -0.2767    0.0373 H   0  0  0  0  0  0  0  0  0  0  0  0
   -0.2777   -2.1410   -0.0346 H   0  0  0  0  0  0  0  0  0  0  0  0
   -3.9761   -0.4700    1.0848 H   0  0  0  0  0  0  0  0  0  0  0  0
    1.9218   -0.9478    2.1321 C   0  0  0  0  0  0  0  0  0  0  0  0
    1.6966    0.3065    1.7447 C   0  0  0  0  0  0  0  0  0  0  0  0
    1.0815    0.6160    0.4675 C   0  0  0  0  0  0  0  0  0  0  0  0
    0.7713    2.1010   -0.0832 S   0  0  0  0  0  0  0  0  0  0  0  0
    2.3810   -1.1732    3.0859 H   0  0  0  0  0  0  0  0  0  0  0  0
    1.6518   -1.7884    1.5027 H   0  0  0  0  0  0  0  0  0  0  0  0
    1.9667    1.1469    2.3743 H   0  0  0  0  0  0  0  0  0  0  0  0
  1  2  3  0
  1  6  1  0
  2  3  1  0
  3  4  1  0
  3  8  1  0
  4  5  3  0
  5  9  1  0
  7 12  1  0
 10 11  2  3
 10 14  1  0
 10 15  1  0
 11 12  1  0
 11 16  1  0
 12 13  2  0
M  RAD  1   3   2
M  END
>  <reaction>  (15) 
rxn_1387

>  <mol_properties>  (15) 
{"1": {"label": "*0", "atom_type": "Ct"}, "2": {"label": "*1", "atom_type": "Cs"}, "6": {"label": "*2", "atom_type": "H0"}, "11": {"label": "*3", "atom_type": "CS"}, "12": {"label": "*4", "atom_type": "S2d"}}

>  <type>  (15) 
unop_11

>  <geom_source>  (15) 
Heuristics

$$$$

     RDKit          3D

 16 14  0  0  0  0  0  0  0  0999 V2000
   -0.7259   -1.1897   -2.9068 C   0  0  0  0  0  0  0  0  0  0  0  0
   -0.7259   -1.1897   -1.7113 C   0  0  0  0  0  0  0  0  0  0  0  0
   -0.7259   -1.1897   -0.2483 C   0  0  0  0  0  3  0  0  0  0  0  0
   -2.0400   -0.9141    0.3329 C   0  0  0  0  0  0  0  0  0  0  0  0
   -3.1137   -0.6889    0.8078 C   0  0  0  0  0  0  0  0  0  0  0  0
   -0.7259   -1.1897   -3.9702 H   0  0  0  0  0  0  0  0  0  0  0  0
    0.1322   -0.2954    0.1828 H   0  0  0  0  0  0  0  0  0  0  0  0
   -0.3706   -2.1596    0.1109 H   0  0  0  0  0  0  0  0  0  0  0  0
   -4.0689   -0.4886    1.2303 H   0  0  0  0  0  0  0  0  0  0  0  0
    1.4640    1.0927   -1.7218 C   0  0  0  0  0  0  0  0  0  0  0  0
    1.6874    1.3256   -0.4295 C   0  0  0  0  0  0  0  0  0  0  0  0
    0.9887    0.5973    0.6130 C   0  0  0  0  0  0  0  0  0  0  0  0
    1.1945    0.8119    2.1993 S   0  0  0  0  0  0  0  0  0  0  0  0
    1.9879    1.6388   -2.4956 H   0  0  0  0  0  0  0  0  0  0  0  0
    0.7470    0.3455   -2.0434 H   0  0  0  0  0  0  0  0  0  0  0  0
    2.4043    2.0728   -0.1083 H   0  0  0  0  0  0  0  0  0  0  0  0
  1  2  3  0
  1  6  1  0
  2  3  1  0
  3  4  1  0
  3  8  1  0
  4  5  3  0
  5  9  1  0
  7 12  1  0
 10 11  2  3
 10 14  1  0
 10 15  1  0
 11 12  1  0
 11 16  1  0
 12 13  2  0
M  RAD  1   3   2
M  END
>  <reaction>  (16) 
rxn_1387

>  <mol_properties>  (16) 
{"1": {"label": "*0", "atom_type": "Ct"}, "2": {"label": "*1", "atom_type": "Cs"}, "6": {"label": "*2", "atom_type": "H0"}, "11": {"label": "*3", "atom_type": "CS"}, "12": {"label": "*4", "atom_type": "S2d"}}

>  <type>  (16) 
unop_12

>  <geom_source>  (16) 
Heuristics

$$$$

     RDKit          3D

 16 14  0  0  0  0  0  0  0  0999 V2000
    1.3297    0.6146   -2.7607 S   0  0  0  0  0  0  0  0  0  0  0  0
    2.4124    0.3696   -0.3095 C   0  0  0  0  0  0  0  0  0  0  0  0
   -1.2402   -0.2428   -0.5662 C   0  0  0  0  0  3  0  0  0  0  0  0
    2.3672    0.0140    0.9702 C   0  0  0  0  0  0  0  0  0  0  0  0
    1.2566    0.1714   -1.1896 C   0  0  0  0  0  0  0  0  0  0  0  0
   -1.6951    1.0109    0.0380 C   0  0  0  0  0  0  0  0  0  0  0  0
   -1.7705   -1.3782    0.1911 C   0  0  0  0  0  0  0  0  0  0  0  0
   -2.0686    2.0443    0.5343 C   0  0  0  0  0  0  0  0  0  0  0  0
   -2.2061   -2.3145    0.8135 C   0  0  0  0  0  0  0  0  0  0  0  0
    3.3189    0.8124   -0.7043 H   0  0  0  0  0  0  0  0  0  0  0  0
    1.4773   -0.4313    1.3979 H   0  0  0  0  0  0  0  0  0  0  0  0
    3.2302    0.1680    1.6048 H   0  0  0  0  0  0  0  0  0  0  0  0
    0.1696   -0.3549   -0.7339 H   0  0  0  0  0  0  0  0  0  0  0  0
   -1.5964   -0.2988   -1.6155 H   0  0  0  0  0  0  0  0  0  0  0  0
   -2.3966    2.9513    0.9700 H   0  0  0  0  0  0  0  0  0  0  0  0
   -2.5885   -3.1362    1.3600 H   0  0  0  0  0  0  0  0  0  0  0  0
  1  5  2  0
  2  4  2  3
  2  5  1  0
  2 10  1  0
  3  6  1  0
  3  7  1  0
  3 14  1  0
  4 11  1  0
  4 12  1  0
  5 13  1  0
  6  8  3  0
  7  9  3  0
  8 15  1  0
  9 16  1  0
M  RAD  1   3   2
M  END
>  <reaction>  (17) 
rxn_1387

>  <mol_properties>  (17) 
{"1": {"label": "*0", "atom_type": "Ct"}, "2": {"label": "*1", "atom_type": "Cs"}, "6": {"label": "*2", "atom_type": "H0"}, "11": {"label": "*3", "atom_type": "CS"}, "12": {"label": "*4", "atom_type": "S2d"}}

>  <type>  (17) 
unop_13

>  <geom_source>  (17) 
AutoTST

$$$$

     RDKit          3D

 16 14  0  0  0  0  0  0  0  0999 V2000
   -0.6543   -1.2320   -2.9358 C   0  0  0  0  0  0  0  0  0  0  0  0
   -0.6543   -1.2320   -1.7403 C   0  0  0  0  0  0  0  0  0  0  0  0
   -0.6543   -1.2320   -0.2773 C   0  0  0  0  0  3  0  0  0  0  0  0
   -1.9683   -0.9564    0.3038 C   0  0  0  0  0  0  0  0  0  0  0  0
   -3.0421   -0.7312    0.7787 C   0  0  0  0  0  0  0  0  0  0  0  0
   -0.6543   -1.2320   -3.9993 H   0  0  0  0  0  0  0  0  0  0  0  0
    0.2039   -0.3376    0.1537 H   0  0  0  0  0  0  0  0  0  0  0  0
   -0.2989   -2.2019    0.0819 H   0  0  0  0  0  0  0  0  0  0  0  0
   -3.9973   -0.5309    1.2012 H   0  0  0  0  0  0  0  0  0  0  0  0
    0.8766    1.6690   -1.5720 C   0  0  0  0  0  0  0  0  0  0  0  0
    1.2441    1.6971   -0.2920 C   0  0  0  0  0  0  0  0  0  0  0  0
    1.0603    0.5551    0.5839 C   0  0  0  0  0  0  0  0  0  0  0  0
    1.4741    0.4989    2.1429 S   0  0  0  0  0  0  0  0  0  0  0  0
    1.0159    2.5237   -2.2212 H   0  0  0  0  0  0  0  0  0  0  0  0
    0.4238    0.7855   -2.0083 H   0  0  0  0  0  0  0  0  0  0  0  0
    1.6968    2.5806    0.1439 H   0  0  0  0  0  0  0  0  0  0  0  0
  1  2  3  0
  1  6  1  0
  2  3  1  0
  3  4  1  0
  3  8  1  0
  4  5  3  0
  5  9  1  0
  7 12  1  0
 10 11  2  3
 10 14  1  0
 10 15  1  0
 11 12  1  0
 11 16  1  0
 12 13  2  0
M  RAD  1   3   2
M  END
>  <reaction>  (18) 
rxn_1387

>  <mol_properties>  (18) 
{"1": {"label": "*0", "atom_type": "Ct"}, "2": {"label": "*1", "atom_type": "Cs"}, "6": {"label": "*2", "atom_type": "H0"}, "11": {"label": "*3", "atom_type": "CS"}, "12": {"label": "*4", "atom_type": "S2d"}}

>  <type>  (18) 
unop_14

>  <geom_source>  (18) 
gaussian_log

$$$$
