
     RDKit          3D

 16 15  0  0  0  0  0  0  0  0999 V2000
    1.7961   -0.3807    1.6176 C   0  0  0  0  0  0  0  0  0  0  0  0
    0.8562   -0.8708    0.8256 C   0  0  0  0  0  0  0  0  0  0  0  0
    0.0895   -0.0826   -0.2048 C   0  0  0  0  0  0  0  0  0  0  0  0
   -1.4061   -0.1111    0.0982 C   0  0  0  0  0  0  0  0  0  0  0  0
    0.4476   -0.5902   -1.5797 C   0  0  0  0  0  0  0  0  0  0  0  0
   -0.3793   -1.1113   -2.4728 C   0  0  0  0  0  0  0  0  0  0  0  0
    2.3110   -1.0032    2.3386 H   0  0  0  0  0  0  0  0  0  0  0  0
    2.0846    0.6643    1.5737 H   0  0  0  0  0  0  0  0  0  0  0  0
    0.5921   -1.9241    0.8925 H   0  0  0  0  0  0  0  0  0  0  0  0
    0.4358    0.9557   -0.1462 H   0  0  0  0  0  0  0  0  0  0  0  0
   -1.5968    0.3080    1.0865 H   0  0  0  0  0  0  0  0  0  0  0  0
   -1.9674    0.4693   -0.6359 H   0  0  0  0  0  0  0  0  0  0  0  0
   -1.7902   -1.1338    0.0883 H   0  0  0  0  0  0  0  0  0  0  0  0
    1.5049   -0.5197   -1.8214 H   0  0  0  0  0  0  0  0  0  0  0  0
   -1.4421   -1.2131   -2.2889 H   0  0  0  0  0  0  0  0  0  0  0  0
   -0.0162   -1.4558   -3.4328 H   0  0  0  0  0  0  0  0  0  0  0  0
  1  2  2  3
  1  7  1  0
  1  8  1  0
  2  3  1  0
  2  9  1  0
  3  4  1  0
  3  5  1  0
  3 10  1  0
  4 11  1  0
  4 12  1  0
  4 13  1  0
  5  6  2  3
  5 14  1  0
  6 15  1  0
  6 16  1  0
M  END
>  <reaction>  (1) 
rxn_1203

>  <mol_properties>  (1) 
{"2": {"label": "donator", "atom_type": "Cs"}, "9": {"label": "d_hydrogen", "atom_type": "H0"}}

>  <type>  (1) 
r1h

$$$$

     RDKit          3D

 10  9  0  0  0  0  0  0  0  0999 V2000
   -1.3354   -0.2069    0.0525 C   0  0  0  0  0  0  0  0  0  0  0  0
    0.0851    0.2624    0.0266 C   0  0  0  0  0  0  0  0  0  0  0  0
    0.4841    1.3876    0.7359 C   0  0  0  0  0  0  0  0  0  0  0  0
    2.0191    2.0303    0.8057 S   0  0  0  0  0  1  0  0  0  0  0  0
    1.1566   -0.6823   -0.9297 S   0  0  0  0  0  0  0  0  0  0  0  0
   -1.7589   -0.2174   -0.9545 H   0  0  0  0  0  0  0  0  0  0  0  0
   -1.4004   -1.2253    0.4427 H   0  0  0  0  0  0  0  0  0  0  0  0
   -1.9442    0.4442    0.6783 H   0  0  0  0  0  0  0  0  0  0  0  0
   -0.3073    1.8814    1.2951 H   0  0  0  0  0  0  0  0  0  0  0  0
    2.2383    0.0827   -0.6554 H   0  0  0  0  0  0  0  0  0  0  0  0
  1  2  1  0
  1  6  1  0
  1  7  1  0
  1  8  1  0
  2  3  2  3
  2  5  1  0
  3  4  1  0
  3  9  1  0
  5 10  1  0
M  RAD  1   4   2
M  END
>  <reaction>  (2) 
rxn_1203

>  <mol_properties>  (2) 
{"1": {"label": "acceptor", "atom_type": "Cs"}}

>  <type>  (2) 
r2

$$$$

     RDKit          3D

 11 10  0  0  0  0  0  0  0  0999 V2000
   -1.0997   -0.5860   -0.1182 C   0  0  0  0  0  0  0  0  0  0  0  0
    0.0827    0.2961    0.2270 C   0  0  0  0  0  0  0  0  0  0  0  0
    0.1622    1.6171   -0.4774 C   0  0  0  0  0  0  0  0  0  0  0  0
   -0.9879    2.3087   -1.3633 S   0  0  0  0  0  0  0  0  0  0  0  0
    0.2176    0.6619    2.0187 S   0  0  0  0  0  0  0  0  0  0  0  0
   -1.1052   -0.8107   -1.1861 H   0  0  0  0  0  0  0  0  0  0  0  0
   -2.0402   -0.0893    0.1198 H   0  0  0  0  0  0  0  0  0  0  0  0
   -1.0438   -1.5182    0.4423 H   0  0  0  0  0  0  0  0  0  0  0  0
    1.0207   -0.2324    0.0280 H   0  0  0  0  0  0  0  0  0  0  0  0
    1.1091    2.1333   -0.3182 H   0  0  0  0  0  0  0  0  0  0  0  0
   -0.9205    1.3661    2.0994 H   0  0  0  0  0  0  0  0  0  0  0  0
  1  2  1  0
  1  6  1  0
  1  7  1  0
  1  8  1  0
  2  3  1  0
  2  5  1  0
  2  9  1  0
  3  4  2  0
  3 10  1  0
  5 11  1  0
M  END
>  <reaction>  (3) 
rxn_1203

>  <mol_properties>  (3) 
{"1": {"label": "acceptor", "atom_type": "Cs"}, "10": {"label": "a_hydrogen", "atom_type": "H0"}}

>  <type>  (3) 
r2h

$$$$

     RDKit          3D

 26 24  0  0  0  0  0  0  0  0999 V2000
   -1.2963    1.3878   -0.5539 C   0  0  0  0  0  0  0  0  0  0  0  0
    0.1411    1.0444   -0.2587 C   0  0  1  0  0  0  0  0  0  0  0  0
    0.9983    0.5667   -1.3104 C   0  0  0  0  0  0  0  0  0  0  0  0
    0.5210    0.0286   -2.7783 S   0  0  0  0  0  0  0  0  0  0  0  0
    0.9997    2.1211    0.8868 S   0  0  0  0  0  0  0  0  0  0  0  0
   -1.3561    2.3241   -1.1114 H   0  0  0  0  0  0  0  0  0  0  0  0
   -1.7512    0.6028   -1.1578 H   0  0  0  0  0  0  0  0  0  0  0  0
   -1.8583    1.5033    0.3742 H   0  0  0  0  0  0  0  0  0  0  0  0
    2.0568    0.5291   -1.0523 H   0  0  0  0  0  0  0  0  0  0  0  0
    0.1345    1.9768    1.9013 H   0  0  0  0  0  0  0  0  0  0  0  0
   -0.6006   -2.9029   -0.5908 C   0  0  0  0  0  0  0  0  0  0  0  0
   -1.0367   -1.9975    0.2855 C   0  0  0  0  0  0  0  0  0  0  0  0
   -0.2124   -1.2115    1.2076 C   0  0  0  0  0  3  0  0  0  0  0  0
    1.2352   -1.5961    1.3718 C   0  0  0  0  0  0  0  0  0  0  0  0
   -0.9248   -0.6811    2.3731 C   0  0  0  0  0  0  0  0  0  0  0  0
   -0.3889   -0.3317    3.5449 C   0  0  0  0  0  0  0  0  0  0  0  0
   -1.2919   -3.4066   -1.2530 H   0  0  0  0  0  0  0  0  0  0  0  0
    0.4438   -3.1716   -0.6805 H   0  0  0  0  0  0  0  0  0  0  0  0
   -2.1012   -1.7812    0.3149 H   0  0  0  0  0  0  0  0  0  0  0  0
   -0.0263   -0.0839    0.4573 H   0  0  0  0  0  0  0  0  0  0  0  0
    1.7063   -1.7562    0.4015 H   0  0  0  0  0  0  0  0  0  0  0  0
    1.7933   -0.8092    1.8792 H   0  0  0  0  0  0  0  0  0  0  0  0
    1.3277   -2.5179    1.9514 H   0  0  0  0  0  0  0  0  0  0  0  0
   -1.9969   -0.5575    2.2423 H   0  0  0  0  0  0  0  0  0  0  0  0
    0.6678   -0.4383    3.7543 H   0  0  0  0  0  0  0  0  0  0  0  0
   -1.0090    0.0600    4.3405 H   0  0  0  0  0  0  0  0  0  0  0  0
  1  2  1  0
  1  6  1  0
  1  7  1  0
  1  8  1  0
  2  3  1  0
  2  5  1  0
  2 20  1  1
  3  4  2  0
  3  9  1  0
  5 10  1  0
 11 12  2  3
 11 17  1  0
 11 18  1  0
 12 13  1  0
 12 19  1  0
 13 14  1  0
 13 15  1  0
 14 21  1  0
 14 22  1  0
 14 23  1  0
 15 16  2  3
 15 24  1  0
 16 25  1  0
 16 26  1  0
M  RAD  1  13   2
M  END
>  <reaction>  (4) 
rxn_1203

>  <mol_properties>  (4) 
{"1": {"label": "*1", "atom_type": "Cs"}, "2": {"label": "*0", "atom_type": "CS"}, "11": {"label": "*4", "atom_type": "Cd"}, "12": {"label": "*3", "atom_type": "Cs"}, "19": {"label": "*2", "atom_type": "H0"}}

>  <type>  (4) 
ts

$$$$

     RDKit          3D

 26 24  0  0  0  0  0  0  0  0999 V2000
   -1.3569    1.5945   -0.3027 C   0  0  0  0  0  0  0  0  0  0  0  0
   -0.1349    0.7254   -0.5193 C   0  0  0  0  0  0  0  0  0  0  0  0
    0.6147    0.9298   -1.8015 C   0  0  0  0  0  0  0  0  0  0  0  0
    0.4186    2.1307   -2.8527 S   0  0  0  0  0  0  0  0  0  0  0  0
    1.1033    0.8650    0.8259 S   0  0  0  0  0  0  0  0  0  0  0  0
   -1.0895    2.6510   -0.3007 H   0  0  0  0  0  0  0  0  0  0  0  0
   -2.0797    1.4376   -1.1051 H   0  0  0  0  0  0  0  0  0  0  0  0
   -1.8231    1.3489    0.6505 H   0  0  0  0  0  0  0  0  0  0  0  0
    1.3785    0.1724   -1.9787 H   0  0  0  0  0  0  0  0  0  0  0  0
    1.4071    2.1508    0.5977 H   0  0  0  0  0  0  0  0  0  0  0  0
   -0.2080   -2.5929   -1.1152 C   0  0  0  0  0  0  0  0  0  0  0  0
   -0.2080   -2.5929    0.2081 C   0  0  0  0  0  0  0  0  0  0  0  0
   -0.2080   -1.3621    1.0775 C   0  0  0  0  0  3  0  0  0  0  0  0
    1.0303   -1.3323    1.9691 C   0  0  0  0  0  0  0  0  0  0  0  0
   -1.5115   -1.2935    1.8340 C   0  0  0  0  0  0  0  0  0  0  0  0
   -1.6662   -1.2933    3.1489 C   0  0  0  0  0  0  0  0  0  0  0  0
   -0.2088   -3.5155   -1.6819 H   0  0  0  0  0  0  0  0  0  0  0  0
   -0.2063   -1.6671   -1.6809 H   0  0  0  0  0  0  0  0  0  0  0  0
   -0.2128   -3.5387    0.7457 H   0  0  0  0  0  0  0  0  0  0  0  0
   -0.1714   -0.3177    0.2787 H   0  0  0  0  0  0  0  0  0  0  0  0
    1.9331   -1.3407    1.3578 H   0  0  0  0  0  0  0  0  0  0  0  0
    1.0450   -0.4365    2.5922 H   0  0  0  0  0  0  0  0  0  0  0  0
    1.0629   -2.2041    2.6267 H   0  0  0  0  0  0  0  0  0  0  0  0
   -2.3947   -1.2578    1.2015 H   0  0  0  0  0  0  0  0  0  0  0  0
   -0.8258   -1.3326    3.8315 H   0  0  0  0  0  0  0  0  0  0  0  0
   -2.6526   -1.2502    3.5932 H   0  0  0  0  0  0  0  0  0  0  0  0
  1  2  1  0
  1  6  1  0
  1  7  1  0
  1  8  1  0
  2  3  1  0
  2  5  1  0
  2 20  1  0
  3  4  2  0
  3  9  1  0
  5 10  1  0
 11 12  2  3
 11 17  1  0
 11 18  1  0
 12 13  1  0
 12 19  1  0
 13 14  1  0
 13 15  1  0
 14 21  1  0
 14 22  1  0
 14 23  1  0
 15 16  2  3
 15 24  1  0
 16 25  1  0
 16 26  1  0
M  RAD  1  13   2
M  END
>  <reaction>  (5) 
rxn_1203

>  <mol_properties>  (5) 
{"1": {"label": "*1", "atom_type": "Cs"}, "2": {"label": "*0", "atom_type": "CS"}, "11": {"label": "*4", "atom_type": "Cd"}, "12": {"label": "*3", "atom_type": "Cs"}, "19": {"label": "*2", "atom_type": "H0"}}

>  <type>  (5) 
unop_1

>  <geom_source>  (5) 
Heuristics

$$$$

     RDKit          3D

 26 24  0  0  0  0  0  0  0  0999 V2000
   -0.6985    0.2993   -1.9311 C   0  0  0  0  0  0  0  0  0  0  0  0
   -0.0134    0.6190   -0.6182 C   0  0  0  0  0  0  0  0  0  0  0  0
    1.2358    1.4442   -0.6970 C   0  0  0  0  0  0  0  0  0  0  0  0
    1.7898    2.2352   -1.9827 S   0  0  0  0  0  0  0  0  0  0  0  0
   -1.1091    1.4618    0.5865 S   0  0  0  0  0  0  0  0  0  0  0  0
   -1.0020    1.2109   -2.4455 H   0  0  0  0  0  0  0  0  0  0  0  0
   -0.0183   -0.2420   -2.5908 H   0  0  0  0  0  0  0  0  0  0  0  0
   -1.5817   -0.3118   -1.7500 H   0  0  0  0  0  0  0  0  0  0  0  0
    1.7729    1.5032    0.2498 H   0  0  0  0  0  0  0  0  0  0  0  0
   -1.2673    2.5814   -0.1342 H   0  0  0  0  0  0  0  0  0  0  0  0
   -0.0866   -2.6993   -1.2140 C   0  0  0  0  0  0  0  0  0  0  0  0
   -0.0866   -2.6993    0.1092 C   0  0  0  0  0  0  0  0  0  0  0  0
   -0.0866   -1.4685    0.9786 C   0  0  0  0  0  3  0  0  0  0  0  0
    1.1518   -1.4387    1.8702 C   0  0  0  0  0  0  0  0  0  0  0  0
   -1.3901   -1.3999    1.7351 C   0  0  0  0  0  0  0  0  0  0  0  0
   -1.5447   -1.3997    3.0500 C   0  0  0  0  0  0  0  0  0  0  0  0
   -0.0873   -3.6219   -1.7807 H   0  0  0  0  0  0  0  0  0  0  0  0
   -0.0848   -1.7735   -1.7797 H   0  0  0  0  0  0  0  0  0  0  0  0
   -0.0913   -3.6451    0.6468 H   0  0  0  0  0  0  0  0  0  0  0  0
   -0.0500   -0.4242    0.1798 H   0  0  0  0  0  0  0  0  0  0  0  0
    2.0546   -1.4471    1.2590 H   0  0  0  0  0  0  0  0  0  0  0  0
    1.1665   -0.5430    2.4933 H   0  0  0  0  0  0  0  0  0  0  0  0
    1.1844   -2.3105    2.5278 H   0  0  0  0  0  0  0  0  0  0  0  0
   -2.2732   -1.3642    1.1026 H   0  0  0  0  0  0  0  0  0  0  0  0
   -0.7043   -1.4390    3.7326 H   0  0  0  0  0  0  0  0  0  0  0  0
   -2.5311   -1.3566    3.4943 H   0  0  0  0  0  0  0  0  0  0  0  0
  1  2  1  0
  1  6  1  0
  1  7  1  0
  1  8  1  0
  2  3  1  0
  2  5  1  0
  2 20  1  0
  3  4  2  0
  3  9  1  0
  5 10  1  0
 11 12  2  3
 11 17  1  0
 11 18  1  0
 12 13  1  0
 12 19  1  0
 13 14  1  0
 13 15  1  0
 14 21  1  0
 14 22  1  0
 14 23  1  0
 15 16  2  3
 15 24  1  0
 16 25  1  0
 16 26  1  0
M  RAD  1  13   2
M  END
>  <reaction>  (6) 
rxn_1203

>  <mol_properties>  (6) 
{"1": {"label": "*1", "atom_type": "Cs"}, "2": {"label": "*0", "atom_type": "CS"}, "11": {"label": "*4", "atom_type": "Cd"}, "12": {"label": "*3", "atom_type": "Cs"}, "19": {"label": "*2", "atom_type": "H0"}}

>  <type>  (6) 
unop_2

>  <geom_source>  (6) 
Heuristics

$$$$

     RDKit          3D

 26 24  0  0  0  0  0  0  0  0999 V2000
   -0.7445    1.9976    0.2835 C   0  0  0  0  0  0  0  0  0  0  0  0
   -0.0380    0.8211   -0.3586 C   0  0  0  0  0  0  0  0  0  0  0  0
   -0.0570    0.7635   -1.8565 C   0  0  0  0  0  0  0  0  0  0  0  0
   -0.5209    1.9304   -2.8610 S   0  0  0  0  0  0  0  0  0  0  0  0
    1.7208    0.6711    0.1376 S   0  0  0  0  0  0  0  0  0  0  0  0
   -0.3007    2.9408   -0.0346 H   0  0  0  0  0  0  0  0  0  0  0  0
   -1.7962    2.0120   -0.0074 H   0  0  0  0  0  0  0  0  0  0  0  0
   -0.6752    1.9255    1.3681 H   0  0  0  0  0  0  0  0  0  0  0  0
    0.3172   -0.1794   -2.2557 H   0  0  0  0  0  0  0  0  0  0  0  0
    2.1212    1.8158   -0.4342 H   0  0  0  0  0  0  0  0  0  0  0  0
   -0.1111   -2.4972   -0.9545 C   0  0  0  0  0  0  0  0  0  0  0  0
   -0.1111   -2.4972    0.3688 C   0  0  0  0  0  0  0  0  0  0  0  0
   -0.1111   -1.2664    1.2382 C   0  0  0  0  0  3  0  0  0  0  0  0
    1.1273   -1.2366    2.1298 C   0  0  0  0  0  0  0  0  0  0  0  0
   -1.4146   -1.1978    1.9947 C   0  0  0  0  0  0  0  0  0  0  0  0
   -1.5693   -1.1976    3.3096 C   0  0  0  0  0  0  0  0  0  0  0  0
   -0.1119   -3.4198   -1.5212 H   0  0  0  0  0  0  0  0  0  0  0  0
   -0.1094   -1.5714   -1.5202 H   0  0  0  0  0  0  0  0  0  0  0  0
   -0.1159   -3.4430    0.9064 H   0  0  0  0  0  0  0  0  0  0  0  0
   -0.0745   -0.2221    0.4394 H   0  0  0  0  0  0  0  0  0  0  0  0
    2.0300   -1.2450    1.5185 H   0  0  0  0  0  0  0  0  0  0  0  0
    1.1419   -0.3409    2.7529 H   0  0  0  0  0  0  0  0  0  0  0  0
    1.1598   -2.1084    2.7874 H   0  0  0  0  0  0  0  0  0  0  0  0
   -2.2978   -1.1621    1.3622 H   0  0  0  0  0  0  0  0  0  0  0  0
   -0.7289   -1.2369    3.9922 H   0  0  0  0  0  0  0  0  0  0  0  0
   -2.5557   -1.1545    3.7539 H   0  0  0  0  0  0  0  0  0  0  0  0
  1  2  1  0
  1  6  1  0
  1  7  1  0
  1  8  1  0
  2  3  1  0
  2  5  1  0
  2 20  1  0
  3  4  2  0
  3  9  1  0
  5 10  1  0
 11 12  2  3
 11 17  1  0
 11 18  1  0
 12 13  1  0
 12 19  1  0
 13 14  1  0
 13 15  1  0
 14 21  1  0
 14 22  1  0
 14 23  1  0
 15 16  2  3
 15 24  1  0
 16 25  1  0
 16 26  1  0
M  RAD  1  13   2
M  END
>  <reaction>  (7) 
rxn_1203

>  <mol_properties>  (7) 
{"1": {"label": "*1", "atom_type": "Cs"}, "2": {"label": "*0", "atom_type": "CS"}, "11": {"label": "*4", "atom_type": "Cd"}, "12": {"label": "*3", "atom_type": "Cs"}, "19": {"label": "*2", "atom_type": "H0"}}

>  <type>  (7) 
unop_3

>  <geom_source>  (7) 
Heuristics

$$$$

     RDKit          3D

 26 24  0  0  0  0  0  0  0  0999 V2000
    1.3065    0.5794   -1.7828 C   0  0  0  0  0  0  0  0  0  0  0  0
    0.0552    0.6156   -0.9292 C   0  0  0  0  0  0  0  0  0  0  0  0
    0.1565    1.3409    0.3789 C   0  0  0  0  0  0  0  0  0  0  0  0
    1.3583    2.2932    0.8634 S   0  0  0  0  0  0  0  0  0  0  0  0
   -1.3959    1.3246   -1.7972 S   0  0  0  0  0  0  0  0  0  0  0  0
    1.6265    1.5865   -2.0496 H   0  0  0  0  0  0  0  0  0  0  0  0
    2.1239    0.1064   -1.2360 H   0  0  0  0  0  0  0  0  0  0  0  0
    1.1165    0.0180   -2.6966 H   0  0  0  0  0  0  0  0  0  0  0  0
   -0.7129    1.1951    1.0202 H   0  0  0  0  0  0  0  0  0  0  0  0
   -0.8889    2.5596   -1.9226 H   0  0  0  0  0  0  0  0  0  0  0  0
   -0.0179   -2.7027   -1.5251 C   0  0  0  0  0  0  0  0  0  0  0  0
   -0.0179   -2.7027   -0.2018 C   0  0  0  0  0  0  0  0  0  0  0  0
   -0.0179   -1.4719    0.6676 C   0  0  0  0  0  3  0  0  0  0  0  0
    1.2205   -1.4421    1.5592 C   0  0  0  0  0  0  0  0  0  0  0  0
   -1.3214   -1.4033    1.4241 C   0  0  0  0  0  0  0  0  0  0  0  0
   -1.4761   -1.4031    2.7390 C   0  0  0  0  0  0  0  0  0  0  0  0
   -0.0187   -3.6253   -2.0918 H   0  0  0  0  0  0  0  0  0  0  0  0
   -0.0162   -1.7769   -2.0908 H   0  0  0  0  0  0  0  0  0  0  0  0
   -0.0227   -3.6485    0.3358 H   0  0  0  0  0  0  0  0  0  0  0  0
    0.0187   -0.4276   -0.1313 H   0  0  0  0  0  0  0  0  0  0  0  0
    2.1232   -1.4505    0.9479 H   0  0  0  0  0  0  0  0  0  0  0  0
    1.2351   -0.5464    2.1823 H   0  0  0  0  0  0  0  0  0  0  0  0
    1.2530   -2.3139    2.2168 H   0  0  0  0  0  0  0  0  0  0  0  0
   -2.2046   -1.3676    0.7915 H   0  0  0  0  0  0  0  0  0  0  0  0
   -0.6357   -1.4424    3.4215 H   0  0  0  0  0  0  0  0  0  0  0  0
   -2.4625   -1.3600    3.1832 H   0  0  0  0  0  0  0  0  0  0  0  0
  1  2  1  0
  1  6  1  0
  1  7  1  0
  1  8  1  0
  2  3  1  0
  2  5  1  0
  2 20  1  0
  3  4  2  0
  3  9  1  0
  5 10  1  0
 11 12  2  3
 11 17  1  0
 11 18  1  0
 12 13  1  0
 12 19  1  0
 13 14  1  0
 13 15  1  0
 14 21  1  0
 14 22  1  0
 14 23  1  0
 15 16  2  3
 15 24  1  0
 16 25  1  0
 16 26  1  0
M  RAD  1  13   2
M  END
>  <reaction>  (8) 
rxn_1203

>  <mol_properties>  (8) 
{"1": {"label": "*1", "atom_type": "Cs"}, "2": {"label": "*0", "atom_type": "CS"}, "11": {"label": "*4", "atom_type": "Cd"}, "12": {"label": "*3", "atom_type": "Cs"}, "19": {"label": "*2", "atom_type": "H0"}}

>  <type>  (8) 
unop_4

>  <geom_source>  (8) 
Heuristics

$$$$

     RDKit          3D

 26 24  0  0  0  0  0  0  0  0999 V2000
    0.3063    2.1476    0.4782 C   0  0  0  0  0  0  0  0  0  0  0  0
    0.3041    0.8674   -0.3321 C   0  0  0  0  0  0  0  0  0  0  0  0
   -0.8078    0.7035   -1.3242 C   0  0  0  0  0  0  0  0  0  0  0  0
   -1.8480    1.8327   -1.8026 S   0  0  0  0  0  0  0  0  0  0  0  0
    1.8622    0.5912   -1.2584 S   0  0  0  0  0  0  0  0  0  0  0  0
    0.3843    3.0201   -0.1702 H   0  0  0  0  0  0  0  0  0  0  0  0
   -0.6219    2.2384    1.0448 H   0  0  0  0  0  0  0  0  0  0  0  0
    1.1479    2.1481    1.1695 H   0  0  0  0  0  0  0  0  0  0  0  0
   -0.8555   -0.2964   -1.7559 H   0  0  0  0  0  0  0  0  0  0  0  0
    1.7266    1.6496   -2.0704 H   0  0  0  0  0  0  0  0  0  0  0  0
    0.2309   -2.4509   -0.9279 C   0  0  0  0  0  0  0  0  0  0  0  0
    0.2309   -2.4509    0.3953 C   0  0  0  0  0  0  0  0  0  0  0  0
    0.2309   -1.2202    1.2647 C   0  0  0  0  0  3  0  0  0  0  0  0
    1.4693   -1.1904    2.1563 C   0  0  0  0  0  0  0  0  0  0  0  0
   -1.0726   -1.1516    2.0212 C   0  0  0  0  0  0  0  0  0  0  0  0
   -1.2272   -1.1514    3.3361 C   0  0  0  0  0  0  0  0  0  0  0  0
    0.2302   -3.3736   -1.4946 H   0  0  0  0  0  0  0  0  0  0  0  0
    0.2327   -1.5252   -1.4936 H   0  0  0  0  0  0  0  0  0  0  0  0
    0.2262   -3.3968    0.9329 H   0  0  0  0  0  0  0  0  0  0  0  0
    0.2675   -0.1758    0.4659 H   0  0  0  0  0  0  0  0  0  0  0  0
    2.3721   -1.1988    1.5450 H   0  0  0  0  0  0  0  0  0  0  0  0
    1.4840   -0.2946    2.7794 H   0  0  0  0  0  0  0  0  0  0  0  0
    1.5019   -2.0622    2.8139 H   0  0  0  0  0  0  0  0  0  0  0  0
   -1.9558   -1.1159    1.3887 H   0  0  0  0  0  0  0  0  0  0  0  0
   -0.3869   -1.1907    4.0187 H   0  0  0  0  0  0  0  0  0  0  0  0
   -2.2136   -1.1082    3.7804 H   0  0  0  0  0  0  0  0  0  0  0  0
  1  2  1  0
  1  6  1  0
  1  7  1  0
  1  8  1  0
  2  3  1  0
  2  5  1  0
  2 20  1  0
  3  4  2  0
  3  9  1  0
  5 10  1  0
 11 12  2  3
 11 17  1  0
 11 18  1  0
 12 13  1  0
 12 19  1  0
 13 14  1  0
 13 15  1  0
 14 21  1  0
 14 22  1  0
 14 23  1  0
 15 16  2  3
 15 24  1  0
 16 25  1  0
 16 26  1  0
M  RAD  1  13   2
M  END
>  <reaction>  (9) 
rxn_1203

>  <mol_properties>  (9) 
{"1": {"label": "*1", "atom_type": "Cs"}, "2": {"label": "*0", "atom_type": "CS"}, "11": {"label": "*4", "atom_type": "Cd"}, "12": {"label": "*3", "atom_type": "Cs"}, "19": {"label": "*2", "atom_type": "H0"}}

>  <type>  (9) 
unop_5

>  <geom_source>  (9) 
Heuristics

$$$$

     RDKit          3D

 26 24  0  0  0  0  0  0  0  0999 V2000
    1.6937    1.0356   -1.2526 C   0  0  0  0  0  0  0  0  0  0  0  0
    0.2583    0.6431   -0.9679 C   0  0  0  0  0  0  0  0  0  0  0  0
   -0.3389    1.1618    0.3057 C   0  0  0  0  0  0  0  0  0  0  0  0
    0.2815    2.2852    1.2746 S   0  0  0  0  0  0  0  0  0  0  0  0
   -0.9026    1.1134   -2.3070 S   0  0  0  0  0  0  0  0  0  0  0  0
    1.7964    2.1185   -1.3206 H   0  0  0  0  0  0  0  0  0  0  0  0
    2.3467    0.6912   -0.4489 H   0  0  0  0  0  0  0  0  0  0  0  0
    2.0204    0.5926   -2.1924 H   0  0  0  0  0  0  0  0  0  0  0  0
   -1.3066    0.7176    0.5393 H   0  0  0  0  0  0  0  0  0  0  0  0
   -0.7501    2.4374   -2.1599 H   0  0  0  0  0  0  0  0  0  0  0  0
    0.1851   -2.6752   -1.5638 C   0  0  0  0  0  0  0  0  0  0  0  0
    0.1851   -2.6752   -0.2405 C   0  0  0  0  0  0  0  0  0  0  0  0
    0.1851   -1.4444    0.6289 C   0  0  0  0  0  3  0  0  0  0  0  0
    1.4235   -1.4147    1.5205 C   0  0  0  0  0  0  0  0  0  0  0  0
   -1.1184   -1.3759    1.3854 C   0  0  0  0  0  0  0  0  0  0  0  0
   -1.2730   -1.3756    2.7003 C   0  0  0  0  0  0  0  0  0  0  0  0
    0.1844   -3.5978   -2.1305 H   0  0  0  0  0  0  0  0  0  0  0  0
    0.1869   -1.7494   -2.1295 H   0  0  0  0  0  0  0  0  0  0  0  0
    0.1804   -3.6210    0.2971 H   0  0  0  0  0  0  0  0  0  0  0  0
    0.2217   -0.4001   -0.1700 H   0  0  0  0  0  0  0  0  0  0  0  0
    2.3263   -1.4230    0.9092 H   0  0  0  0  0  0  0  0  0  0  0  0
    1.4382   -0.5189    2.1436 H   0  0  0  0  0  0  0  0  0  0  0  0
    1.4561   -2.2864    2.1781 H   0  0  0  0  0  0  0  0  0  0  0  0
   -2.0015   -1.3401    0.7528 H   0  0  0  0  0  0  0  0  0  0  0  0
   -0.4326   -1.4149    3.3828 H   0  0  0  0  0  0  0  0  0  0  0  0
   -2.2594   -1.3325    3.1445 H   0  0  0  0  0  0  0  0  0  0  0  0
  1  2  1  0
  1  6  1  0
  1  7  1  0
  1  8  1  0
  2  3  1  0
  2  5  1  0
  2 20  1  0
  3  4  2  0
  3  9  1  0
  5 10  1  0
 11 12  2  3
 11 17  1  0
 11 18  1  0
 12 13  1  0
 12 19  1  0
 13 14  1  0
 13 15  1  0
 14 21  1  0
 14 22  1  0
 14 23  1  0
 15 16  2  3
 15 24  1  0
 16 25  1  0
 16 26  1  0
M  RAD  1  13   2
M  END
>  <reaction>  (10) 
rxn_1203

>  <mol_properties>  (10) 
{"1": {"label": "*1", "atom_type": "Cs"}, "2": {"label": "*0", "atom_type": "CS"}, "11": {"label": "*4", "atom_type": "Cd"}, "12": {"label": "*3", "atom_type": "Cs"}, "19": {"label": "*2", "atom_type": "H0"}}

>  <type>  (10) 
unop_6

>  <geom_source>  (10) 
Heuristics

$$$$

     RDKit          3D

 26 24  0  0  0  0  0  0  0  0999 V2000
    1.6973    1.5422   -0.5925 C   0  0  0  0  0  0  0  0  0  0  0  0
    0.4584    0.7146   -0.8677 C   0  0  0  0  0  0  0  0  0  0  0  0
   -0.7216    0.9566    0.0248 C   0  0  0  0  0  0  0  0  0  0  0  0
   -0.9076    2.1622    1.0725 S   0  0  0  0  0  0  0  0  0  0  0  0
   -0.1574    0.8783   -2.5870 S   0  0  0  0  0  0  0  0  0  0  0  0
    1.4869    2.6066   -0.6956 H   0  0  0  0  0  0  0  0  0  0  0  0
    2.0477    1.3715    0.4268 H   0  0  0  0  0  0  0  0  0  0  0  0
    2.4875    1.2716   -1.2915 H   0  0  0  0  0  0  0  0  0  0  0  0
   -1.5193    0.2257   -0.1090 H   0  0  0  0  0  0  0  0  0  0  0  0
   -0.4828    2.1756   -2.4915 H   0  0  0  0  0  0  0  0  0  0  0  0
    0.3853   -2.6037   -1.4635 C   0  0  0  0  0  0  0  0  0  0  0  0
    0.3853   -2.6037   -0.1403 C   0  0  0  0  0  0  0  0  0  0  0  0
    0.3853   -1.3729    0.7291 C   0  0  0  0  0  3  0  0  0  0  0  0
    1.6237   -1.3431    1.6207 C   0  0  0  0  0  0  0  0  0  0  0  0
   -0.9182   -1.3043    1.4856 C   0  0  0  0  0  0  0  0  0  0  0  0
   -1.0729   -1.3041    2.8005 C   0  0  0  0  0  0  0  0  0  0  0  0
    0.3845   -3.5263   -2.0303 H   0  0  0  0  0  0  0  0  0  0  0  0
    0.3871   -1.6779   -2.0293 H   0  0  0  0  0  0  0  0  0  0  0  0
    0.3805   -3.5495    0.3973 H   0  0  0  0  0  0  0  0  0  0  0  0
    0.4219   -0.3286   -0.0697 H   0  0  0  0  0  0  0  0  0  0  0  0
    2.5264   -1.3515    1.0094 H   0  0  0  0  0  0  0  0  0  0  0  0
    1.6383   -0.4474    2.2438 H   0  0  0  0  0  0  0  0  0  0  0  0
    1.6562   -2.2149    2.2783 H   0  0  0  0  0  0  0  0  0  0  0  0
   -1.8014   -1.2686    0.8531 H   0  0  0  0  0  0  0  0  0  0  0  0
   -0.2325   -1.3434    3.4831 H   0  0  0  0  0  0  0  0  0  0  0  0
   -2.0593   -1.2610    3.2448 H   0  0  0  0  0  0  0  0  0  0  0  0
  1  2  1  0
  1  6  1  0
  1  7  1  0
  1  8  1  0
  2  3  1  0
  2  5  1  0
  2 20  1  0
  3  4  2  0
  3  9  1  0
  5 10  1  0
 11 12  2  3
 11 17  1  0
 11 18  1  0
 12 13  1  0
 12 19  1  0
 13 14  1  0
 13 15  1  0
 14 21  1  0
 14 22  1  0
 14 23  1  0
 15 16  2  3
 15 24  1  0
 16 25  1  0
 16 26  1  0
M  RAD  1  13   2
M  END
>  <reaction>  (11) 
rxn_1203

>  <mol_properties>  (11) 
{"1": {"label": "*1", "atom_type": "Cs"}, "2": {"label": "*0", "atom_type": "CS"}, "11": {"label": "*4", "atom_type": "Cd"}, "12": {"label": "*3", "atom_type": "Cs"}, "19": {"label": "*2", "atom_type": "H0"}}

>  <type>  (11) 
unop_7

>  <geom_source>  (11) 
Heuristics

$$$$

     RDKit          3D

 26 24  0  0  0  0  0  0  0  0999 V2000
   -1.4924    1.0900   -0.9676 C   0  0  0  0  0  0  0  0  0  0  0  0
   -0.0862    0.6497   -0.6152 C   0  0  0  0  0  0  0  0  0  0  0  0
    1.0130    1.1348   -1.5119 C   0  0  0  0  0  0  0  0  0  0  0  0
    0.9015    2.2656   -2.6497 S   0  0  0  0  0  0  0  0  0  0  0  0
    0.4094    1.0992    1.0920 S   0  0  0  0  0  0  0  0  0  0  0  0
   -1.5784    2.1763   -0.9467 H   0  0  0  0  0  0  0  0  0  0  0  0
   -1.7523    0.7568   -1.9737 H   0  0  0  0  0  0  0  0  0  0  0  0
   -2.2025    0.6684   -0.2575 H   0  0  0  0  0  0  0  0  0  0  0  0
    1.9728    0.6580   -1.3126 H   0  0  0  0  0  0  0  0  0  0  0  0
    0.3779    2.4255    0.8976 H   0  0  0  0  0  0  0  0  0  0  0  0
   -0.1594   -2.6686   -1.2111 C   0  0  0  0  0  0  0  0  0  0  0  0
   -0.1594   -2.6686    0.1122 C   0  0  0  0  0  0  0  0  0  0  0  0
   -0.1594   -1.4378    0.9816 C   0  0  0  0  0  3  0  0  0  0  0  0
    1.0790   -1.4080    1.8732 C   0  0  0  0  0  0  0  0  0  0  0  0
   -1.4629   -1.3692    1.7381 C   0  0  0  0  0  0  0  0  0  0  0  0
   -1.6175   -1.3690    3.0530 C   0  0  0  0  0  0  0  0  0  0  0  0
   -0.1601   -3.5912   -1.7778 H   0  0  0  0  0  0  0  0  0  0  0  0
   -0.1576   -1.7428   -1.7768 H   0  0  0  0  0  0  0  0  0  0  0  0
   -0.1641   -3.6144    0.6498 H   0  0  0  0  0  0  0  0  0  0  0  0
   -0.1228   -0.3935    0.1827 H   0  0  0  0  0  0  0  0  0  0  0  0
    1.9818   -1.4164    1.2619 H   0  0  0  0  0  0  0  0  0  0  0  0
    1.0937   -0.5123    2.4963 H   0  0  0  0  0  0  0  0  0  0  0  0
    1.1116   -2.2798    2.5308 H   0  0  0  0  0  0  0  0  0  0  0  0
   -2.3460   -1.3335    1.1055 H   0  0  0  0  0  0  0  0  0  0  0  0
   -0.7771   -1.4083    3.7355 H   0  0  0  0  0  0  0  0  0  0  0  0
   -2.6039   -1.3259    3.4972 H   0  0  0  0  0  0  0  0  0  0  0  0
  1  2  1  0
  1  6  1  0
  1  7  1  0
  1  8  1  0
  2  3  1  0
  2  5  1  0
  2 20  1  0
  3  4  2  0
  3  9  1  0
  5 10  1  0
 11 12  2  3
 11 17  1  0
 11 18  1  0
 12 13  1  0
 12 19  1  0
 13 14  1  0
 13 15  1  0
 14 21  1  0
 14 22  1  0
 14 23  1  0
 15 16  2  3
 15 24  1  0
 16 25  1  0
 16 26  1  0
M  RAD  1  13   2
M  END
>  <reaction>  (12) 
rxn_1203

>  <mol_properties>  (12) 
{"1": {"label": "*1", "atom_type": "Cs"}, "2": {"label": "*0", "atom_type": "CS"}, "11": {"label": "*4", "atom_type": "Cd"}, "12": {"label": "*3", "atom_type": "Cs"}, "19": {"label": "*2", "atom_type": "H0"}}

>  <type>  (12) 
unop_8

>  <geom_source>  (12) 
Heuristics

$$$$

     RDKit          3D

 26 24  0  0  0  0  0  0  0  0999 V2000
    0.6726    0.2758   -2.0762 C   0  0  0  0  0  0  0  0  0  0  0  0
   -0.0631    0.6194   -0.7970 C   0  0  0  0  0  0  0  0  0  0  0  0
    0.6807    1.4557    0.2005 C   0  0  0  0  0  0  0  0  0  0  0  0
    2.0670    2.2350   -0.0368 S   0  0  0  0  0  0  0  0  0  0  0  0
   -1.6633    1.4673   -1.0848 S   0  0  0  0  0  0  0  0  0  0  0  0
    0.9480    1.1776   -2.6227 H   0  0  0  0  0  0  0  0  0  0  0  0
    1.5915   -0.2675   -1.8498 H   0  0  0  0  0  0  0  0  0  0  0  0
    0.0409   -0.3415   -2.7135 H   0  0  0  0  0  0  0  0  0  0  0  0
    0.1724    1.5323    1.1618 H   0  0  0  0  0  0  0  0  0  0  0  0
   -1.1346    2.5757   -1.6231 H   0  0  0  0  0  0  0  0  0  0  0  0
   -0.1363   -2.6989   -1.3929 C   0  0  0  0  0  0  0  0  0  0  0  0
   -0.1363   -2.6989   -0.0697 C   0  0  0  0  0  0  0  0  0  0  0  0
   -0.1363   -1.4681    0.7997 C   0  0  0  0  0  3  0  0  0  0  0  0
    1.1021   -1.4383    1.6913 C   0  0  0  0  0  0  0  0  0  0  0  0
   -1.4398   -1.3995    1.5562 C   0  0  0  0  0  0  0  0  0  0  0  0
   -1.5944   -1.3993    2.8712 C   0  0  0  0  0  0  0  0  0  0  0  0
   -0.1370   -3.6215   -1.9596 H   0  0  0  0  0  0  0  0  0  0  0  0
   -0.1345   -1.7731   -1.9586 H   0  0  0  0  0  0  0  0  0  0  0  0
   -0.1410   -3.6447    0.4679 H   0  0  0  0  0  0  0  0  0  0  0  0
   -0.0997   -0.4237    0.0009 H   0  0  0  0  0  0  0  0  0  0  0  0
    2.0049   -1.4467    1.0801 H   0  0  0  0  0  0  0  0  0  0  0  0
    1.1168   -0.5425    2.3144 H   0  0  0  0  0  0  0  0  0  0  0  0
    1.1347   -2.3101    2.3489 H   0  0  0  0  0  0  0  0  0  0  0  0
   -2.3230   -1.3638    0.9237 H   0  0  0  0  0  0  0  0  0  0  0  0
   -0.7541   -1.4386    3.5537 H   0  0  0  0  0  0  0  0  0  0  0  0
   -2.5808   -1.3562    3.3154 H   0  0  0  0  0  0  0  0  0  0  0  0
  1  2  1  0
  1  6  1  0
  1  7  1  0
  1  8  1  0
  2  3  1  0
  2  5  1  0
  2 20  1  0
  3  4  2  0
  3  9  1  0
  5 10  1  0
 11 12  2  3
 11 17  1  0
 11 18  1  0
 12 13  1  0
 12 19  1  0
 13 14  1  0
 13 15  1  0
 14 21  1  0
 14 22  1  0
 14 23  1  0
 15 16  2  3
 15 24  1  0
 16 25  1  0
 16 26  1  0
M  RAD  1  13   2
M  END
>  <reaction>  (13) 
rxn_1203

>  <mol_properties>  (13) 
{"1": {"label": "*1", "atom_type": "Cs"}, "2": {"label": "*0", "atom_type": "CS"}, "11": {"label": "*4", "atom_type": "Cd"}, "12": {"label": "*3", "atom_type": "Cs"}, "19": {"label": "*2", "atom_type": "H0"}}

>  <type>  (13) 
unop_9

>  <geom_source>  (13) 
Heuristics

$$$$

     RDKit          3D

 26 24  0  0  0  0  0  0  0  0999 V2000
   -1.2293    0.6228   -1.5427 C   0  0  0  0  0  0  0  0  0  0  0  0
   -0.0197    0.6176   -0.6305 C   0  0  0  0  0  0  0  0  0  0  0  0
    1.2046    1.3197   -1.1361 C   0  0  0  0  0  0  0  0  0  0  0  0
    1.3023    2.2865   -2.4173 S   0  0  0  0  0  0  0  0  0  0  0  0
   -0.3600    1.3137    1.0313 S   0  0  0  0  0  0  0  0  0  0  0  0
   -1.5599    1.6409   -1.7474 H   0  0  0  0  0  0  0  0  0  0  0  0
   -0.9847    0.1560   -2.4983 H   0  0  0  0  0  0  0  0  0  0  0  0
   -2.0478    0.0752   -1.0773 H   0  0  0  0  0  0  0  0  0  0  0  0
    2.0866    1.1443   -0.5199 H   0  0  0  0  0  0  0  0  0  0  0  0
   -0.6108    2.5607    0.6072 H   0  0  0  0  0  0  0  0  0  0  0  0
   -0.0928   -2.7007   -1.2264 C   0  0  0  0  0  0  0  0  0  0  0  0
   -0.0928   -2.7007    0.0968 C   0  0  0  0  0  0  0  0  0  0  0  0
   -0.0928   -1.4699    0.9662 C   0  0  0  0  0  3  0  0  0  0  0  0
    1.1456   -1.4402    1.8578 C   0  0  0  0  0  0  0  0  0  0  0  0
   -1.3963   -1.4014    1.7228 C   0  0  0  0  0  0  0  0  0  0  0  0
   -1.5510   -1.4011    3.0377 C   0  0  0  0  0  0  0  0  0  0  0  0
   -0.0936   -3.6233   -1.7931 H   0  0  0  0  0  0  0  0  0  0  0  0
   -0.0910   -1.7749   -1.7921 H   0  0  0  0  0  0  0  0  0  0  0  0
   -0.0976   -3.6465    0.6345 H   0  0  0  0  0  0  0  0  0  0  0  0
   -0.0562   -0.4256    0.1674 H   0  0  0  0  0  0  0  0  0  0  0  0
    2.0483   -1.4485    1.2466 H   0  0  0  0  0  0  0  0  0  0  0  0
    1.1602   -0.5444    2.4810 H   0  0  0  0  0  0  0  0  0  0  0  0
    1.1781   -2.3119    2.5155 H   0  0  0  0  0  0  0  0  0  0  0  0
   -2.2795   -1.3656    1.0902 H   0  0  0  0  0  0  0  0  0  0  0  0
   -0.7106   -1.4405    3.7202 H   0  0  0  0  0  0  0  0  0  0  0  0
   -2.5374   -1.3580    3.4819 H   0  0  0  0  0  0  0  0  0  0  0  0
  1  2  1  0
  1  6  1  0
  1  7  1  0
  1  8  1  0
  2  3  1  0
  2  5  1  0
  2 20  1  0
  3  4  2  0
  3  9  1  0
  5 10  1  0
 11 12  2  3
 11 17  1  0
 11 18  1  0
 12 13  1  0
 12 19  1  0
 13 14  1  0
 13 15  1  0
 14 21  1  0
 14 22  1  0
 14 23  1  0
 15 16  2  3
 15 24  1  0
 16 25  1  0
 16 26  1  0
M  RAD  1  13   2
M  END
>  <reaction>  (14) 
rxn_1203

>  <mol_properties>  (14) 
{"1": {"label": "*1", "atom_type": "Cs"}, "2": {"label": "*0", "atom_type": "CS"}, "11": {"label": "*4", "atom_type": "Cd"}, "12": {"label": "*3", "atom_type": "Cs"}, "19": {"label": "*2", "atom_type": "H0"}}

>  <type>  (14) 
unop_10

>  <geom_source>  (14) 
Heuristics

$$$$

     RDKit          3D

 26 24  0  0  0  0  0  0  0  0999 V2000
    1.2483    1.9634    0.0604 C   0  0  0  0  0  0  0  0  0  0  0  0
    0.5340    0.8109   -0.6156 C   0  0  0  0  0  0  0  0  0  0  0  0
   -0.9597    0.7819   -0.4910 C   0  0  0  0  0  0  0  0  0  0  0  0
   -1.9048    1.9606    0.0597 S   0  0  0  0  0  0  0  0  0  0  0  0
    0.9014    0.6790   -2.4071 S   0  0  0  0  0  0  0  0  0  0  0  0
    0.9189    2.9195   -0.3462 H   0  0  0  0  0  0  0  0  0  0  0  0
    1.0328    1.9669    1.1302 H   0  0  0  0  0  0  0  0  0  0  0  0
    2.3235    1.8715   -0.0868 H   0  0  0  0  0  0  0  0  0  0  0  0
   -1.4035   -0.1471   -0.8495 H   0  0  0  0  0  0  0  0  0  0  0  0
    0.3261    1.8408   -2.7494 H   0  0  0  0  0  0  0  0  0  0  0  0
    0.4608   -2.5074   -1.2114 C   0  0  0  0  0  0  0  0  0  0  0  0
    0.4608   -2.5074    0.1118 C   0  0  0  0  0  0  0  0  0  0  0  0
    0.4608   -1.2767    0.9812 C   0  0  0  0  0  3  0  0  0  0  0  0
    1.6992   -1.2469    1.8728 C   0  0  0  0  0  0  0  0  0  0  0  0
   -0.8427   -1.2081    1.7377 C   0  0  0  0  0  0  0  0  0  0  0  0
   -0.9973   -1.2078    3.0526 C   0  0  0  0  0  0  0  0  0  0  0  0
    0.4601   -3.4301   -1.7782 H   0  0  0  0  0  0  0  0  0  0  0  0
    0.4626   -1.5817   -1.7772 H   0  0  0  0  0  0  0  0  0  0  0  0
    0.4561   -3.4533    0.6494 H   0  0  0  0  0  0  0  0  0  0  0  0
    0.4974   -0.2323    0.1824 H   0  0  0  0  0  0  0  0  0  0  0  0
    2.6020   -1.2552    1.2615 H   0  0  0  0  0  0  0  0  0  0  0  0
    1.7139   -0.3511    2.4959 H   0  0  0  0  0  0  0  0  0  0  0  0
    1.7318   -2.1186    2.5304 H   0  0  0  0  0  0  0  0  0  0  0  0
   -1.7259   -1.1724    1.1052 H   0  0  0  0  0  0  0  0  0  0  0  0
   -0.1569   -1.2472    3.7352 H   0  0  0  0  0  0  0  0  0  0  0  0
   -1.9837   -1.1647    3.4969 H   0  0  0  0  0  0  0  0  0  0  0  0
  1  2  1  0
  1  6  1  0
  1  7  1  0
  1  8  1  0
  2  3  1  0
  2  5  1  0
  2 20  1  0
  3  4  2  0
  3  9  1  0
  5 10  1  0
 11 12  2  3
 11 17  1  0
 11 18  1  0
 12 13  1  0
 12 19  1  0
 13 14  1  0
 13 15  1  0
 14 21  1  0
 14 22  1  0
 14 23  1  0
 15 16  2  3
 15 24  1  0
 16 25  1  0
 16 26  1  0
M  RAD  1  13   2
M  END
>  <reaction>  (15) 
rxn_1203

>  <mol_properties>  (15) 
{"1": {"label": "*1", "atom_type": "Cs"}, "2": {"label": "*0", "atom_type": "CS"}, "11": {"label": "*4", "atom_type": "Cd"}, "12": {"label": "*3", "atom_type": "Cs"}, "19": {"label": "*2", "atom_type": "H0"}}

>  <type>  (15) 
unop_11

>  <geom_source>  (15) 
Heuristics

$$$$

     RDKit          3D

 26 24  0  0  0  0  0  0  0  0999 V2000
   -0.0350    0.1782   -2.1122 C   0  0  0  0  0  0  0  0  0  0  0  0
   -0.0619    0.6256   -0.6649 C   0  0  0  0  0  0  0  0  0  0  0  0
    1.0746    1.4906   -0.2091 C   0  0  0  0  0  0  0  0  0  0  0  0
    2.1791    2.2004   -1.1373 S   0  0  0  0  0  0  0  0  0  0  0  0
   -1.5985    1.5157   -0.2083 S   0  0  0  0  0  0  0  0  0  0  0  0
   -0.0523    1.0345   -2.7861 H   0  0  0  0  0  0  0  0  0  0  0  0
    0.8767   -0.3856   -2.3170 H   0  0  0  0  0  0  0  0  0  0  0  0
   -0.8986   -0.4512   -2.3225 H   0  0  0  0  0  0  0  0  0  0  0  0
    1.0925    1.6440    0.8701 H   0  0  0  0  0  0  0  0  0  0  0  0
   -1.3890    2.5688   -1.0113 H   0  0  0  0  0  0  0  0  0  0  0  0
   -0.1351   -2.6927   -1.2608 C   0  0  0  0  0  0  0  0  0  0  0  0
   -0.1351   -2.6927    0.0624 C   0  0  0  0  0  0  0  0  0  0  0  0
   -0.1351   -1.4619    0.9319 C   0  0  0  0  0  3  0  0  0  0  0  0
    1.1033   -1.4321    1.8235 C   0  0  0  0  0  0  0  0  0  0  0  0
   -1.4386   -1.3934    1.6884 C   0  0  0  0  0  0  0  0  0  0  0  0
   -1.5932   -1.3931    3.0033 C   0  0  0  0  0  0  0  0  0  0  0  0
   -0.1358   -3.6153   -1.8275 H   0  0  0  0  0  0  0  0  0  0  0  0
   -0.1333   -1.7669   -1.8265 H   0  0  0  0  0  0  0  0  0  0  0  0
   -0.1398   -3.6385    0.6001 H   0  0  0  0  0  0  0  0  0  0  0  0
   -0.0985   -0.4176    0.1330 H   0  0  0  0  0  0  0  0  0  0  0  0
    2.0061   -1.4405    1.2122 H   0  0  0  0  0  0  0  0  0  0  0  0
    1.1180   -0.5364    2.4466 H   0  0  0  0  0  0  0  0  0  0  0  0
    1.1359   -2.3039    2.4811 H   0  0  0  0  0  0  0  0  0  0  0  0
   -2.3218   -1.3576    1.0558 H   0  0  0  0  0  0  0  0  0  0  0  0
   -0.7529   -1.4324    3.6858 H   0  0  0  0  0  0  0  0  0  0  0  0
   -2.5796   -1.3500    3.4475 H   0  0  0  0  0  0  0  0  0  0  0  0
  1  2  1  0
  1  6  1  0
  1  7  1  0
  1  8  1  0
  2  3  1  0
  2  5  1  0
  2 20  1  0
  3  4  2  0
  3  9  1  0
  5 10  1  0
 11 12  2  3
 11 17  1  0
 11 18  1  0
 12 13  1  0
 12 19  1  0
 13 14  1  0
 13 15  1  0
 14 21  1  0
 14 22  1  0
 14 23  1  0
 15 16  2  3
 15 24  1  0
 16 25  1  0
 16 26  1  0
M  RAD  1  13   2
M  END
>  <reaction>  (16) 
rxn_1203

>  <mol_properties>  (16) 
{"1": {"label": "*1", "atom_type": "Cs"}, "2": {"label": "*0", "atom_type": "CS"}, "11": {"label": "*4", "atom_type": "Cd"}, "12": {"label": "*3", "atom_type": "Cs"}, "19": {"label": "*2", "atom_type": "H0"}}

>  <type>  (16) 
unop_12

>  <geom_source>  (16) 
Heuristics

$$$$

     RDKit          3D

 26 23  0  0  0  0  0  0  0  0999 V2000
    1.6985   -1.7019    0.8718 S   0  0  0  0  0  1  0  0  0  0  0  0
    2.0527    0.6345    3.2150 S   0  0  0  0  0  1  0  0  0  0  0  0
    1.2890    0.0772    0.8076 C   0  0  0  0  0  0  0  0  0  0  0  0
    2.3800    0.8556    0.0687 C   0  0  0  0  0  0  0  0  0  0  0  0
   -0.0359   -1.5389   -0.4726 C   0  0  0  0  0  0  0  0  0  0  0  0
   -0.9729   -0.3372   -0.3858 C   0  0  0  0  0  3  0  0  0  0  0  0
   -0.7046    0.6369   -1.4935 C   0  0  0  0  0  0  0  0  0  0  0  0
   -2.4082   -0.7696   -0.4110 C   0  0  0  0  0  0  0  0  0  0  0  0
    1.0386    0.6252    2.1925 C   0  0  0  0  0  0  0  0  0  0  0  0
   -0.3471    1.8919   -1.2195 C   0  0  0  0  0  0  0  0  0  0  0  0
   -3.2204   -0.4799    0.6059 C   0  0  0  0  0  0  0  0  0  0  0  0
    0.1611    0.2035    0.1143 H   0  0  0  0  0  0  0  0  0  0  0  0
    2.4561    0.4941   -0.9783 H   0  0  0  0  0  0  0  0  0  0  0  0
    2.1265    1.9368    0.0462 H   0  0  0  0  0  0  0  0  0  0  0  0
    3.3653    0.7224    0.5642 H   0  0  0  0  0  0  0  0  0  0  0  0
   -0.1875   -2.0893   -1.4265 H   0  0  0  0  0  0  0  0  0  0  0  0
    1.0195   -1.1982   -0.4140 H   0  0  0  0  0  0  0  0  0  0  0  0
   -0.2268   -2.2271    0.3779 H   0  0  0  0  0  0  0  0  0  0  0  0
   -0.8070    0.3209   -2.5281 H   0  0  0  0  0  0  0  0  0  0  0  0
   -2.7926   -1.3187   -1.2663 H   0  0  0  0  0  0  0  0  0  0  0  0
    0.0575    1.0253    2.4253 H   0  0  0  0  0  0  0  0  0  0  0  0
   -0.2417    2.2299   -0.1928 H   0  0  0  0  0  0  0  0  0  0  0  0
   -0.1574    2.5913   -2.0271 H   0  0  0  0  0  0  0  0  0  0  0  0
   -2.8582    0.0704    1.4693 H   0  0  0  0  0  0  0  0  0  0  0  0
   -4.2586   -0.7943    0.5785 H   0  0  0  0  0  0  0  0  0  0  0  0
    1.5741   -1.8607   -0.5216 H   0  0  0  0  0  0  0  0  0  0  0  0
  1 26  1  0
  2  9  1  0
  3  4  1  0
  3  9  2  3
  3 12  1  0
  4 13  1  0
  4 14  1  0
  4 15  1  0
  5  6  1  0
  5 16  1  0
  5 17  1  0
  5 18  1  0
  6  7  1  0
  6  8  1  0
  7 10  2  3
  7 19  1  0
  8 11  2  3
  8 20  1  0
  9 21  1  0
 10 22  1  0
 10 23  1  0
 11 24  1  0
 11 25  1  0
M  RAD  3   1   2   2   2   6   2
M  END
>  <reaction>  (17) 
rxn_1203

>  <mol_properties>  (17) 
{"1": {"label": "*1", "atom_type": "Cs"}, "2": {"label": "*0", "atom_type": "CS"}, "11": {"label": "*4", "atom_type": "Cd"}, "12": {"label": "*3", "atom_type": "Cs"}, "19": {"label": "*2", "atom_type": "H0"}}

>  <type>  (17) 
unop_13

>  <geom_source>  (17) 
AutoTST

$$$$
