
     RDKit          3D

 18 18  0  0  0  0  0  0  0  0999 V2000
   -2.4852    0.3210   -0.3966 C   0  0  0  0  0  0  0  0  0  0  0  0
   -1.5917   -0.2708    0.6941 C   0  0  0  0  0  0  0  0  0  0  0  0
   -0.1292   -0.1692    0.3493 C   0  0  0  0  0  0  0  0  0  0  0  0
    0.6099    0.9558    0.7015 C   0  0  0  0  0  0  0  0  0  0  0  0
    1.9447    1.0728    0.3458 C   0  0  0  0  0  0  0  0  0  0  0  0
    2.5646    0.0613   -0.3720 C   0  0  0  0  0  0  0  0  0  0  0  0
    1.8399   -1.0657   -0.7287 C   0  0  0  0  0  0  0  0  0  0  0  0
    0.5055   -1.1769   -0.3700 C   0  0  0  0  0  0  0  0  0  0  0  0
   -2.3325   -0.1971   -1.3452 H   0  0  0  0  0  0  0  0  0  0  0  0
   -2.2554    1.3763   -0.5546 H   0  0  0  0  0  0  0  0  0  0  0  0
   -3.5397    0.2376   -0.1280 H   0  0  0  0  0  0  0  0  0  0  0  0
   -1.7801    0.2462    1.6380 H   0  0  0  0  0  0  0  0  0  0  0  0
   -1.8568   -1.3190    0.8516 H   0  0  0  0  0  0  0  0  0  0  0  0
    0.1327    1.7497    1.2656 H   0  0  0  0  0  0  0  0  0  0  0  0
    2.5033    1.9550    0.6330 H   0  0  0  0  0  0  0  0  0  0  0  0
    3.6077    0.1491   -0.6484 H   0  0  0  0  0  0  0  0  0  0  0  0
    2.3163   -1.8632   -1.2854 H   0  0  0  0  0  0  0  0  0  0  0  0
   -0.0540   -2.0629   -0.6500 H   0  0  0  0  0  0  0  0  0  0  0  0
  1  2  1  0
  1  9  1  0
  1 10  1  0
  1 11  1  0
  2  3  1  0
  2 12  1  0
  2 13  1  0
  3  4  2  0
  3  8  1  0
  4  5  1  0
  4 14  1  0
  5  6  2  0
  5 15  1  0
  6  7  1  0
  6 16  1  0
  7  8  2  0
  7 17  1  0
  8 18  1  0
M  END
>  <reaction>  (1) 
rxn_1495

>  <mol_properties>  (1) 
{"2": {"label": "donator", "atom_type": "Cs"}, "11": {"label": "d_hydrogen", "atom_type": "H0"}}

>  <type>  (1) 
r1h

$$$$

     RDKit          3D

  8  7  0  0  0  0  0  0  0  0999 V2000
    1.4038   -0.4003    0.0140 C   0  0  0  0  0  0  0  0  0  0  0  0
    0.2804    0.0563    0.4920 C   0  0  0  0  0  3  0  0  0  0  0  0
   -1.0935    0.3323    0.0625 C   0  0  0  0  0  0  0  0  0  0  0  0
    1.4898   -0.7154   -1.0285 H   0  0  0  0  0  0  0  0  0  0  0  0
    2.2990   -0.4891    0.6210 H   0  0  0  0  0  0  0  0  0  0  0  0
   -1.3399    1.3883    0.1900 H   0  0  0  0  0  0  0  0  0  0  0  0
   -1.2285    0.0762   -0.9967 H   0  0  0  0  0  0  0  0  0  0  0  0
   -1.8111   -0.2482    0.6457 H   0  0  0  0  0  0  0  0  0  0  0  0
  1  2  2  3
  1  4  1  0
  1  5  1  0
  2  3  1  0
  3  6  1  0
  3  7  1  0
  3  8  1  0
M  RAD  1   2   2
M  END
>  <reaction>  (2) 
rxn_1495

>  <mol_properties>  (2) 
{"1": {"label": "acceptor", "atom_type": "Cd"}}

>  <type>  (2) 
r2

$$$$

     RDKit          3D

  9  8  0  0  0  0  0  0  0  0999 V2000
    1.1303   -0.2933   -0.7510 C   0  0  0  0  0  0  0  0  0  0  0  0
    0.2866    0.4560   -0.0588 C   0  0  0  0  0  0  0  0  0  0  0  0
   -0.9719   -0.0331    0.5823 C   0  0  0  0  0  0  0  0  0  0  0  0
    2.0274    0.1230   -1.1916 H   0  0  0  0  0  0  0  0  0  0  0  0
    0.9532   -1.3530   -0.9023 H   0  0  0  0  0  0  0  0  0  0  0  0
    0.5065    1.5132    0.0659 H   0  0  0  0  0  0  0  0  0  0  0  0
   -0.9526    0.1426    1.6610 H   0  0  0  0  0  0  0  0  0  0  0  0
   -1.1182   -1.1002    0.4106 H   0  0  0  0  0  0  0  0  0  0  0  0
   -1.8412    0.5010    0.1901 H   0  0  0  0  0  0  0  0  0  0  0  0
  1  2  2  3
  1  4  1  0
  1  5  1  0
  2  3  1  0
  2  6  1  0
  3  7  1  0
  3  8  1  0
  3  9  1  0
M  END
>  <reaction>  (3) 
rxn_1495

>  <mol_properties>  (3) 
{"1": {"label": "acceptor", "atom_type": "Cd"}, "6": {"label": "a_hydrogen", "atom_type": "H0"}}

>  <type>  (3) 
r2h

$$$$

     RDKit          3D

 26 25  0  0  0  0  0  0  0  0999 V2000
    1.6989    1.2967   -1.1490 C   0  0  0  0  0  0  0  0  0  0  0  0
    0.4628   -0.7483    2.3851 C   0  0  0  0  0  0  0  0  0  0  0  0
   -0.9342   -0.5118    0.2349 C   0  0  0  0  0  0  0  0  0  0  0  0
    0.2576   -1.0664    0.9219 C   0  0  0  0  0  0  0  0  0  0  0  0
    2.2807    0.1815   -0.3740 C   0  0  0  0  0  3  0  0  0  0  0  0
   -1.6419    0.5840    0.7282 C   0  0  0  0  0  0  0  0  0  0  0  0
   -1.3314   -1.0470   -0.9934 C   0  0  0  0  0  0  0  0  0  0  0  0
   -2.7046    1.1247    0.0198 C   0  0  0  0  0  0  0  0  0  0  0  0
   -3.0826    0.5847   -1.1991 C   0  0  0  0  0  0  0  0  0  0  0  0
   -2.3897   -0.5082   -1.7025 C   0  0  0  0  0  0  0  0  0  0  0  0
    3.5062   -0.2544   -0.2015 C   0  0  0  0  0  0  0  0  0  0  0  0
    2.4732    1.8511   -1.6895 H   0  0  0  0  0  0  0  0  0  0  0  0
    0.9655    0.9260   -1.8688 H   0  0  0  0  0  0  0  0  0  0  0  0
    1.1694    1.9898   -0.4912 H   0  0  0  0  0  0  0  0  0  0  0  0
    1.3575   -1.2464    2.7594 H   0  0  0  0  0  0  0  0  0  0  0  0
    0.5965    0.3229    2.5489 H   0  0  0  0  0  0  0  0  0  0  0  0
   -0.3865   -1.0761    2.9911 H   0  0  0  0  0  0  0  0  0  0  0  0
    1.2278   -0.5529    0.3264 H   0  0  0  0  0  0  0  0  0  0  0  0
    0.3839   -2.1275    0.7039 H   0  0  0  0  0  0  0  0  0  0  0  0
   -1.3656    1.0209    1.6794 H   0  0  0  0  0  0  0  0  0  0  0  0
   -3.2412    1.9737    0.4253 H   0  0  0  0  0  0  0  0  0  0  0  0
   -3.9124    1.0074   -1.7510 H   0  0  0  0  0  0  0  0  0  0  0  0
   -2.6783   -0.9431   -2.6515 H   0  0  0  0  0  0  0  0  0  0  0  0
   -0.7932   -1.8986   -1.3949 H   0  0  0  0  0  0  0  0  0  0  0  0
    4.3559    0.2304   -0.6820 H   0  0  0  0  0  0  0  0  0  0  0  0
    3.7257   -1.1132    0.4238 H   0  0  0  0  0  0  0  0  0  0  0  0
  1  5  1  0
  1 12  1  0
  1 13  1  0
  1 14  1  0
  2  4  1  0
  2 15  1  0
  2 16  1  0
  2 17  1  0
  3  4  1  0
  3  6  2  0
  3  7  1  0
  4 18  1  0
  4 19  1  0
  5 11  2  3
  6  8  1  0
  6 20  1  0
  7 10  2  0
  7 24  1  0
  8  9  2  0
  8 21  1  0
  9 10  1  0
  9 22  1  0
 10 23  1  0
 11 25  1  0
 11 26  1  0
M  RAD  1   5   2
M  END
>  <reaction>  (4) 
rxn_1495

>  <mol_properties>  (4) 
{"0": {"label": "*4", "atom_type": "Cs"}, "2": {"label": "*0", "atom_type": "Cd"}, "3": {"label": "*1", "atom_type": "Cs"}, "4": {"label": "*3", "atom_type": "Cd"}, "17": {"label": "*2", "atom_type": "H0"}}

>  <type>  (4) 
ts

$$$$

     RDKit          3D

 26 25  0  0  0  0  0  0  0  0999 V2000
   -1.2415   -3.4395    0.8812 C   0  0  0  0  0  0  0  0  0  0  0  0
   -1.4221   -2.3701    0.1222 C   0  0  0  0  0  0  0  0  0  0  0  0
   -2.4281   -1.2942    0.3766 C   0  0  0  0  0  0  0  0  0  0  0  0
   -1.8373   -3.6085    1.7720 H   0  0  0  0  0  0  0  0  0  0  0  0
   -0.4933   -4.1845    0.6414 H   0  0  0  0  0  0  0  0  0  0  0  0
   -3.1200   -1.2019   -0.4645 H   0  0  0  0  0  0  0  0  0  0  0  0
   -3.0081   -1.4959    1.2780 H   0  0  0  0  0  0  0  0  0  0  0  0
   -1.9388   -0.3237    0.4920 H   0  0  0  0  0  0  0  0  0  0  0  0
    0.6764   -1.0734   -2.2762 C   0  0  0  0  0  0  0  0  0  0  0  0
    0.6764   -1.0734   -0.7471 C   0  0  0  0  0  0  0  0  0  0  0  0
    0.6764    0.3209   -0.1777 C   0  0  0  0  0  0  0  0  0  0  0  0
   -0.5181    0.9898    0.0700 C   0  0  0  0  0  3  0  0  0  0  0  0
   -0.5214    2.2901    0.5510 C   0  0  0  0  0  0  0  0  0  0  0  0
    0.6764    2.9454    0.7928 C   0  0  0  0  0  0  0  0  0  0  0  0
    1.8742    2.2901    0.5510 C   0  0  0  0  0  0  0  0  0  0  0  0
    1.8710    0.9898    0.0700 C   0  0  0  0  0  0  0  0  0  0  0  0
    1.5577   -0.5583   -2.6630 H   0  0  0  0  0  0  0  0  0  0  0  0
   -0.2048   -0.5583   -2.6630 H   0  0  0  0  0  0  0  0  0  0  0  0
    0.6764   -2.0918   -2.6685 H   0  0  0  0  0  0  0  0  0  0  0  0
   -0.3755   -1.7234   -0.3113 H   0  0  0  0  0  0  0  0  0  0  0  0
    1.5531   -1.6151   -0.3840 H   0  0  0  0  0  0  0  0  0  0  0  0
   -1.4590    0.4827   -0.1137 H   0  0  0  0  0  0  0  0  0  0  0  0
   -1.4622    2.7918    0.7409 H   0  0  0  0  0  0  0  0  0  0  0  0
    0.6764    3.9598    1.1711 H   0  0  0  0  0  0  0  0  0  0  0  0
    2.8150    2.7918    0.7409 H   0  0  0  0  0  0  0  0  0  0  0  0
    2.8119    0.4827   -0.1137 H   0  0  0  0  0  0  0  0  0  0  0  0
  1  2  2  3
  1  4  1  0
  1  5  1  0
  2  3  1  0
  2 20  1  0
  3  6  1  0
  3  7  1  0
  3  8  1  0
  9 10  1  0
  9 17  1  0
  9 18  1  0
  9 19  1  0
 10 11  2  3
 10 21  1  0
 11 12  1  0
 11 16  1  0
 12 13  1  0
 12 22  1  0
 13 14  2  0
 13 23  1  0
 14 15  1  0
 14 24  1  0
 15 16  2  0
 15 25  1  0
 16 26  1  0
M  RAD  1  12   2
M  END
>  <reaction>  (5) 
rxn_1495

>  <mol_properties>  (5) 
{"0": {"label": "*4", "atom_type": "Cs"}, "2": {"label": "*0", "atom_type": "Cd"}, "3": {"label": "*1", "atom_type": "Cs"}, "4": {"label": "*3", "atom_type": "Cd"}, "17": {"label": "*2", "atom_type": "H0"}}

>  <type>  (5) 
unop_1

>  <geom_source>  (5) 
Heuristics

$$$$

     RDKit          3D

 26 25  0  0  0  0  0  0  0  0999 V2000
   -1.9223   -3.2712   -0.5912 C   0  0  0  0  0  0  0  0  0  0  0  0
   -1.4316   -2.2862    0.1445 C   0  0  0  0  0  0  0  0  0  0  0  0
   -1.7186   -2.0705    1.5955 C   0  0  0  0  0  0  0  0  0  0  0  0
   -2.5910   -4.0140   -0.1690 H   0  0  0  0  0  0  0  0  0  0  0  0
   -1.6748   -3.3722   -1.6404 H   0  0  0  0  0  0  0  0  0  0  0  0
   -2.1750   -1.0911    1.7603 H   0  0  0  0  0  0  0  0  0  0  0  0
   -2.3926   -2.8338    1.9863 H   0  0  0  0  0  0  0  0  0  0  0  0
   -0.7963   -2.0926    2.1818 H   0  0  0  0  0  0  0  0  0  0  0  0
    0.6670   -0.9895   -2.2539 C   0  0  0  0  0  0  0  0  0  0  0  0
    0.6670   -0.9895   -0.7248 C   0  0  0  0  0  0  0  0  0  0  0  0
    0.6670    0.4048   -0.1554 C   0  0  0  0  0  0  0  0  0  0  0  0
   -0.5276    1.0737    0.0924 C   0  0  0  0  0  3  0  0  0  0  0  0
   -0.5308    2.3739    0.5733 C   0  0  0  0  0  0  0  0  0  0  0  0
    0.6670    3.0293    0.8151 C   0  0  0  0  0  0  0  0  0  0  0  0
    1.8648    2.3739    0.5733 C   0  0  0  0  0  0  0  0  0  0  0  0
    1.8615    1.0737    0.0924 C   0  0  0  0  0  0  0  0  0  0  0  0
    1.5482   -0.4744   -2.6407 H   0  0  0  0  0  0  0  0  0  0  0  0
   -0.2143   -0.4744   -2.6407 H   0  0  0  0  0  0  0  0  0  0  0  0
    0.6670   -2.0079   -2.6462 H   0  0  0  0  0  0  0  0  0  0  0  0
   -0.3850   -1.6395   -0.2890 H   0  0  0  0  0  0  0  0  0  0  0  0
    1.5436   -1.5312   -0.3616 H   0  0  0  0  0  0  0  0  0  0  0  0
   -1.4685    0.5666   -0.0914 H   0  0  0  0  0  0  0  0  0  0  0  0
   -1.4716    2.8756    0.7632 H   0  0  0  0  0  0  0  0  0  0  0  0
    0.6670    4.0436    1.1935 H   0  0  0  0  0  0  0  0  0  0  0  0
    2.8056    2.8756    0.7632 H   0  0  0  0  0  0  0  0  0  0  0  0
    2.8024    0.5666   -0.0914 H   0  0  0  0  0  0  0  0  0  0  0  0
  1  2  2  3
  1  4  1  0
  1  5  1  0
  2  3  1  0
  2 20  1  0
  3  6  1  0
  3  7  1  0
  3  8  1  0
  9 10  1  0
  9 17  1  0
  9 18  1  0
  9 19  1  0
 10 11  2  3
 10 21  1  0
 11 12  1  0
 11 16  1  0
 12 13  1  0
 12 22  1  0
 13 14  2  0
 13 23  1  0
 14 15  1  0
 14 24  1  0
 15 16  2  0
 15 25  1  0
 16 26  1  0
M  RAD  1  12   2
M  END
>  <reaction>  (6) 
rxn_1495

>  <mol_properties>  (6) 
{"0": {"label": "*4", "atom_type": "Cs"}, "2": {"label": "*0", "atom_type": "Cd"}, "3": {"label": "*1", "atom_type": "Cs"}, "4": {"label": "*3", "atom_type": "Cd"}, "17": {"label": "*2", "atom_type": "H0"}}

>  <type>  (6) 
unop_2

>  <geom_source>  (6) 
Heuristics

$$$$

     RDKit          3D

 26 25  0  0  0  0  0  0  0  0999 V2000
   -1.3111   -3.0054    1.3255 C   0  0  0  0  0  0  0  0  0  0  0  0
   -1.3885   -2.3714    0.1660 C   0  0  0  0  0  0  0  0  0  0  0  0
   -2.6103   -1.6925   -0.3636 C   0  0  0  0  0  0  0  0  0  0  0  0
   -2.1651   -3.0745    1.9909 H   0  0  0  0  0  0  0  0  0  0  0  0
   -0.3935   -3.4781    1.6524 H   0  0  0  0  0  0  0  0  0  0  0  0
   -2.9097   -2.1232   -1.3226 H   0  0  0  0  0  0  0  0  0  0  0  0
   -3.4479   -1.7814    0.3294 H   0  0  0  0  0  0  0  0  0  0  0  0
   -2.4199   -0.6306   -0.5392 H   0  0  0  0  0  0  0  0  0  0  0  0
    0.7100   -1.0747   -2.2324 C   0  0  0  0  0  0  0  0  0  0  0  0
    0.7100   -1.0747   -0.7033 C   0  0  0  0  0  0  0  0  0  0  0  0
    0.7100    0.3196   -0.1339 C   0  0  0  0  0  0  0  0  0  0  0  0
   -0.4845    0.9885    0.1138 C   0  0  0  0  0  3  0  0  0  0  0  0
   -0.4878    2.2887    0.5948 C   0  0  0  0  0  0  0  0  0  0  0  0
    0.7100    2.9441    0.8366 C   0  0  0  0  0  0  0  0  0  0  0  0
    1.9078    2.2887    0.5948 C   0  0  0  0  0  0  0  0  0  0  0  0
    1.9046    0.9885    0.1138 C   0  0  0  0  0  0  0  0  0  0  0  0
    1.5913   -0.5596   -2.6192 H   0  0  0  0  0  0  0  0  0  0  0  0
   -0.1712   -0.5596   -2.6192 H   0  0  0  0  0  0  0  0  0  0  0  0
    0.7100   -2.0931   -2.6247 H   0  0  0  0  0  0  0  0  0  0  0  0
   -0.3419   -1.7247   -0.2675 H   0  0  0  0  0  0  0  0  0  0  0  0
    1.5867   -1.6164   -0.3402 H   0  0  0  0  0  0  0  0  0  0  0  0
   -1.4254    0.4814   -0.0699 H   0  0  0  0  0  0  0  0  0  0  0  0
   -1.4286    2.7904    0.7847 H   0  0  0  0  0  0  0  0  0  0  0  0
    0.7100    3.9584    1.2149 H   0  0  0  0  0  0  0  0  0  0  0  0
    2.8486    2.7904    0.7847 H   0  0  0  0  0  0  0  0  0  0  0  0
    2.8455    0.4814   -0.0699 H   0  0  0  0  0  0  0  0  0  0  0  0
  1  2  2  3
  1  4  1  0
  1  5  1  0
  2  3  1  0
  2 20  1  0
  3  6  1  0
  3  7  1  0
  3  8  1  0
  9 10  1  0
  9 17  1  0
  9 18  1  0
  9 19  1  0
 10 11  2  3
 10 21  1  0
 11 12  1  0
 11 16  1  0
 12 13  1  0
 12 22  1  0
 13 14  2  0
 13 23  1  0
 14 15  1  0
 14 24  1  0
 15 16  2  0
 15 25  1  0
 16 26  1  0
M  RAD  1  12   2
M  END
>  <reaction>  (7) 
rxn_1495

>  <mol_properties>  (7) 
{"0": {"label": "*4", "atom_type": "Cs"}, "2": {"label": "*0", "atom_type": "Cd"}, "3": {"label": "*1", "atom_type": "Cs"}, "4": {"label": "*3", "atom_type": "Cd"}, "17": {"label": "*2", "atom_type": "H0"}}

>  <type>  (7) 
unop_3

>  <geom_source>  (7) 
Heuristics

$$$$

     RDKit          3D

 26 25  0  0  0  0  0  0  0  0999 V2000
   -2.6306   -1.8958   -0.2132 C   0  0  0  0  0  0  0  0  0  0  0  0
   -1.4270   -2.3331    0.1220 C   0  0  0  0  0  0  0  0  0  0  0  0
   -1.0870   -3.0176    1.4065 C   0  0  0  0  0  0  0  0  0  0  0  0
   -3.4803   -2.0120    0.4513 H   0  0  0  0  0  0  0  0  0  0  0  0
   -2.8116   -1.4064   -1.1619 H   0  0  0  0  0  0  0  0  0  0  0  0
   -0.3208   -2.4614    1.9527 H   0  0  0  0  0  0  0  0  0  0  0  0
   -1.9627   -3.1175    2.0490 H   0  0  0  0  0  0  0  0  0  0  0  0
   -0.6813   -4.0153    1.2200 H   0  0  0  0  0  0  0  0  0  0  0  0
    0.6716   -1.0364   -2.2764 C   0  0  0  0  0  0  0  0  0  0  0  0
    0.6716   -1.0364   -0.7473 C   0  0  0  0  0  0  0  0  0  0  0  0
    0.6716    0.3579   -0.1779 C   0  0  0  0  0  0  0  0  0  0  0  0
   -0.5229    1.0269    0.0698 C   0  0  0  0  0  3  0  0  0  0  0  0
   -0.5262    2.3271    0.5508 C   0  0  0  0  0  0  0  0  0  0  0  0
    0.6716    2.9824    0.7926 C   0  0  0  0  0  0  0  0  0  0  0  0
    1.8694    2.3271    0.5508 C   0  0  0  0  0  0  0  0  0  0  0  0
    1.8661    1.0269    0.0698 C   0  0  0  0  0  0  0  0  0  0  0  0
    1.5529   -0.5213   -2.6632 H   0  0  0  0  0  0  0  0  0  0  0  0
   -0.2097   -0.5213   -2.6632 H   0  0  0  0  0  0  0  0  0  0  0  0
    0.6716   -2.0548   -2.6687 H   0  0  0  0  0  0  0  0  0  0  0  0
   -0.3804   -1.6864   -0.3116 H   0  0  0  0  0  0  0  0  0  0  0  0
    1.5482   -1.5780   -0.3842 H   0  0  0  0  0  0  0  0  0  0  0  0
   -1.4638    0.5197   -0.1139 H   0  0  0  0  0  0  0  0  0  0  0  0
   -1.4670    2.8288    0.7407 H   0  0  0  0  0  0  0  0  0  0  0  0
    0.6716    3.9968    1.1709 H   0  0  0  0  0  0  0  0  0  0  0  0
    2.8102    2.8288    0.7407 H   0  0  0  0  0  0  0  0  0  0  0  0
    2.8070    0.5197   -0.1139 H   0  0  0  0  0  0  0  0  0  0  0  0
  1  2  2  3
  1  4  1  0
  1  5  1  0
  2  3  1  0
  2 20  1  0
  3  6  1  0
  3  7  1  0
  3  8  1  0
  9 10  1  0
  9 17  1  0
  9 18  1  0
  9 19  1  0
 10 11  2  3
 10 21  1  0
 11 12  1  0
 11 16  1  0
 12 13  1  0
 12 22  1  0
 13 14  2  0
 13 23  1  0
 14 15  1  0
 14 24  1  0
 15 16  2  0
 15 25  1  0
 16 26  1  0
M  RAD  1  12   2
M  END
>  <reaction>  (8) 
rxn_1495

>  <mol_properties>  (8) 
{"0": {"label": "*4", "atom_type": "Cs"}, "2": {"label": "*0", "atom_type": "Cd"}, "3": {"label": "*1", "atom_type": "Cs"}, "4": {"label": "*3", "atom_type": "Cd"}, "17": {"label": "*2", "atom_type": "H0"}}

>  <type>  (8) 
unop_4

>  <geom_source>  (8) 
Heuristics

$$$$

     RDKit          3D

 26 25  0  0  0  0  0  0  0  0999 V2000
   -1.5795   -2.4042    1.5130 C   0  0  0  0  0  0  0  0  0  0  0  0
   -1.3960   -2.2908    0.2069 C   0  0  0  0  0  0  0  0  0  0  0  0
   -2.3025   -2.8510   -0.8413 C   0  0  0  0  0  0  0  0  0  0  0  0
   -2.4349   -2.9328    1.9206 H   0  0  0  0  0  0  0  0  0  0  0  0
   -0.8836   -1.9742    2.2222 H   0  0  0  0  0  0  0  0  0  0  0  0
   -1.7653   -3.5507   -1.4866 H   0  0  0  0  0  0  0  0  0  0  0  0
   -3.1500   -3.3746   -0.3971 H   0  0  0  0  0  0  0  0  0  0  0  0
   -2.6880   -2.0574   -1.4866 H   0  0  0  0  0  0  0  0  0  0  0  0
    0.7025   -0.9941   -2.1915 C   0  0  0  0  0  0  0  0  0  0  0  0
    0.7025   -0.9941   -0.6624 C   0  0  0  0  0  0  0  0  0  0  0  0
    0.7025    0.4001   -0.0930 C   0  0  0  0  0  0  0  0  0  0  0  0
   -0.4920    1.0691    0.1548 C   0  0  0  0  0  3  0  0  0  0  0  0
   -0.4953    2.3693    0.6357 C   0  0  0  0  0  0  0  0  0  0  0  0
    0.7025    3.0247    0.8775 C   0  0  0  0  0  0  0  0  0  0  0  0
    1.9003    2.3693    0.6357 C   0  0  0  0  0  0  0  0  0  0  0  0
    1.8970    1.0691    0.1548 C   0  0  0  0  0  0  0  0  0  0  0  0
    1.5838   -0.4791   -2.5783 H   0  0  0  0  0  0  0  0  0  0  0  0
   -0.1788   -0.4791   -2.5783 H   0  0  0  0  0  0  0  0  0  0  0  0
    0.7025   -2.0126   -2.5838 H   0  0  0  0  0  0  0  0  0  0  0  0
   -0.3495   -1.6441   -0.2266 H   0  0  0  0  0  0  0  0  0  0  0  0
    1.5791   -1.5358   -0.2993 H   0  0  0  0  0  0  0  0  0  0  0  0
   -1.4329    0.5619   -0.0290 H   0  0  0  0  0  0  0  0  0  0  0  0
   -1.4361    2.8710    0.8256 H   0  0  0  0  0  0  0  0  0  0  0  0
    0.7025    4.0390    1.2558 H   0  0  0  0  0  0  0  0  0  0  0  0
    2.8411    2.8710    0.8256 H   0  0  0  0  0  0  0  0  0  0  0  0
    2.8379    0.5619   -0.0290 H   0  0  0  0  0  0  0  0  0  0  0  0
  1  2  2  3
  1  4  1  0
  1  5  1  0
  2  3  1  0
  2 20  1  0
  3  6  1  0
  3  7  1  0
  3  8  1  0
  9 10  1  0
  9 17  1  0
  9 18  1  0
  9 19  1  0
 10 11  2  3
 10 21  1  0
 11 12  1  0
 11 16  1  0
 12 13  1  0
 12 22  1  0
 13 14  2  0
 13 23  1  0
 14 15  1  0
 14 24  1  0
 15 16  2  0
 15 25  1  0
 16 26  1  0
M  RAD  1  12   2
M  END
>  <reaction>  (9) 
rxn_1495

>  <mol_properties>  (9) 
{"0": {"label": "*4", "atom_type": "Cs"}, "2": {"label": "*0", "atom_type": "Cd"}, "3": {"label": "*1", "atom_type": "Cs"}, "4": {"label": "*3", "atom_type": "Cd"}, "17": {"label": "*2", "atom_type": "H0"}}

>  <type>  (9) 
unop_5

>  <geom_source>  (9) 
Heuristics

$$$$

     RDKit          3D

 26 25  0  0  0  0  0  0  0  0999 V2000
   -2.5784   -1.6442    0.3211 C   0  0  0  0  0  0  0  0  0  0  0  0
   -1.4570   -2.3150    0.1092 C   0  0  0  0  0  0  0  0  0  0  0  0
   -0.9145   -3.3871    0.9984 C   0  0  0  0  0  0  0  0  0  0  0  0
   -3.1990   -1.8390    1.1894 H   0  0  0  0  0  0  0  0  0  0  0  0
   -2.9175   -0.8769   -0.3635 H   0  0  0  0  0  0  0  0  0  0  0  0
    0.0813   -3.1227    1.3633 H   0  0  0  0  0  0  0  0  0  0  0  0
   -1.5622   -3.5565    1.8595 H   0  0  0  0  0  0  0  0  0  0  0  0
   -0.8123   -4.3293    0.4538 H   0  0  0  0  0  0  0  0  0  0  0  0
    0.6415   -1.0183   -2.2892 C   0  0  0  0  0  0  0  0  0  0  0  0
    0.6415   -1.0183   -0.7601 C   0  0  0  0  0  0  0  0  0  0  0  0
    0.6415    0.3760   -0.1907 C   0  0  0  0  0  0  0  0  0  0  0  0
   -0.5530    1.0449    0.0571 C   0  0  0  0  0  3  0  0  0  0  0  0
   -0.5563    2.3451    0.5380 C   0  0  0  0  0  0  0  0  0  0  0  0
    0.6415    3.0005    0.7798 C   0  0  0  0  0  0  0  0  0  0  0  0
    1.8393    2.3451    0.5380 C   0  0  0  0  0  0  0  0  0  0  0  0
    1.8360    1.0449    0.0571 C   0  0  0  0  0  0  0  0  0  0  0  0
    1.5228   -0.5033   -2.6760 H   0  0  0  0  0  0  0  0  0  0  0  0
   -0.2398   -0.5033   -2.6760 H   0  0  0  0  0  0  0  0  0  0  0  0
    0.6415   -2.0367   -2.6815 H   0  0  0  0  0  0  0  0  0  0  0  0
   -0.4104   -1.6683   -0.3243 H   0  0  0  0  0  0  0  0  0  0  0  0
    1.5182   -1.5600   -0.3969 H   0  0  0  0  0  0  0  0  0  0  0  0
   -1.4939    0.5377   -0.1267 H   0  0  0  0  0  0  0  0  0  0  0  0
   -1.4971    2.8468    0.7279 H   0  0  0  0  0  0  0  0  0  0  0  0
    0.6415    4.0148    1.1582 H   0  0  0  0  0  0  0  0  0  0  0  0
    2.7801    2.8468    0.7279 H   0  0  0  0  0  0  0  0  0  0  0  0
    2.7769    0.5377   -0.1267 H   0  0  0  0  0  0  0  0  0  0  0  0
  1  2  2  3
  1  4  1  0
  1  5  1  0
  2  3  1  0
  2 20  1  0
  3  6  1  0
  3  7  1  0
  3  8  1  0
  9 10  1  0
  9 17  1  0
  9 18  1  0
  9 19  1  0
 10 11  2  3
 10 21  1  0
 11 12  1  0
 11 16  1  0
 12 13  1  0
 12 22  1  0
 13 14  2  0
 13 23  1  0
 14 15  1  0
 14 24  1  0
 15 16  2  0
 15 25  1  0
 16 26  1  0
M  RAD  1  12   2
M  END
>  <reaction>  (10) 
rxn_1495

>  <mol_properties>  (10) 
{"0": {"label": "*4", "atom_type": "Cs"}, "2": {"label": "*0", "atom_type": "Cd"}, "3": {"label": "*1", "atom_type": "Cs"}, "4": {"label": "*3", "atom_type": "Cd"}, "17": {"label": "*2", "atom_type": "H0"}}

>  <type>  (10) 
unop_6

>  <geom_source>  (10) 
Heuristics

$$$$

     RDKit          3D

 26 25  0  0  0  0  0  0  0  0999 V2000
   -2.3542   -1.6387    0.8812 C   0  0  0  0  0  0  0  0  0  0  0  0
   -1.4786   -2.2787    0.1222 C   0  0  0  0  0  0  0  0  0  0  0  0
   -0.9664   -3.6597    0.3766 C   0  0  0  0  0  0  0  0  0  0  0  0
   -2.7718   -2.0960    1.7720 H   0  0  0  0  0  0  0  0  0  0  0  0
   -2.6858   -0.6363    0.6414 H   0  0  0  0  0  0  0  0  0  0  0  0
    0.1205   -3.6563    0.4920 H   0  0  0  0  0  0  0  0  0  0  0  0
   -1.4063   -4.0882    1.2780 H   0  0  0  0  0  0  0  0  0  0  0  0
   -1.1934   -4.3198   -0.4645 H   0  0  0  0  0  0  0  0  0  0  0  0
    0.6200   -0.9820   -2.2762 C   0  0  0  0  0  0  0  0  0  0  0  0
    0.6200   -0.9820   -0.7471 C   0  0  0  0  0  0  0  0  0  0  0  0
    0.6200    0.4123   -0.1777 C   0  0  0  0  0  0  0  0  0  0  0  0
   -0.5745    1.0812    0.0700 C   0  0  0  0  0  3  0  0  0  0  0  0
   -0.5778    2.3814    0.5510 C   0  0  0  0  0  0  0  0  0  0  0  0
    0.6200    3.0368    0.7928 C   0  0  0  0  0  0  0  0  0  0  0  0
    1.8178    2.3814    0.5510 C   0  0  0  0  0  0  0  0  0  0  0  0
    1.8145    1.0812    0.0700 C   0  0  0  0  0  0  0  0  0  0  0  0
    1.5013   -0.4669   -2.6630 H   0  0  0  0  0  0  0  0  0  0  0  0
   -0.2613   -0.4669   -2.6630 H   0  0  0  0  0  0  0  0  0  0  0  0
    0.6200   -2.0004   -2.6685 H   0  0  0  0  0  0  0  0  0  0  0  0
   -0.4320   -1.6320   -0.3113 H   0  0  0  0  0  0  0  0  0  0  0  0
    1.4966   -1.5237   -0.3840 H   0  0  0  0  0  0  0  0  0  0  0  0
   -1.5154    0.5741   -0.1137 H   0  0  0  0  0  0  0  0  0  0  0  0
   -1.5186    2.8831    0.7409 H   0  0  0  0  0  0  0  0  0  0  0  0
    0.6200    4.0511    1.1711 H   0  0  0  0  0  0  0  0  0  0  0  0
    2.7586    2.8831    0.7409 H   0  0  0  0  0  0  0  0  0  0  0  0
    2.7554    0.5741   -0.1137 H   0  0  0  0  0  0  0  0  0  0  0  0
  1  2  2  3
  1  4  1  0
  1  5  1  0
  2  3  1  0
  2 20  1  0
  3  6  1  0
  3  7  1  0
  3  8  1  0
  9 10  1  0
  9 17  1  0
  9 18  1  0
  9 19  1  0
 10 11  2  3
 10 21  1  0
 11 12  1  0
 11 16  1  0
 12 13  1  0
 12 22  1  0
 13 14  2  0
 13 23  1  0
 14 15  1  0
 14 24  1  0
 15 16  2  0
 15 25  1  0
 16 26  1  0
M  RAD  1  12   2
M  END
>  <reaction>  (11) 
rxn_1495

>  <mol_properties>  (11) 
{"0": {"label": "*4", "atom_type": "Cs"}, "2": {"label": "*0", "atom_type": "Cd"}, "3": {"label": "*1", "atom_type": "Cs"}, "4": {"label": "*3", "atom_type": "Cd"}, "17": {"label": "*2", "atom_type": "H0"}}

>  <type>  (11) 
unop_7

>  <geom_source>  (11) 
Heuristics

$$$$

     RDKit          3D

 26 25  0  0  0  0  0  0  0  0999 V2000
   -1.3466   -3.6376    0.3211 C   0  0  0  0  0  0  0  0  0  0  0  0
   -1.4449   -2.3346    0.1092 C   0  0  0  0  0  0  0  0  0  0  0  0
   -2.1610   -1.3698    0.9984 C   0  0  0  0  0  0  0  0  0  0  0  0
   -1.7985   -4.1055    1.1894 H   0  0  0  0  0  0  0  0  0  0  0  0
   -0.8122   -4.2841   -0.3635 H   0  0  0  0  0  0  0  0  0  0  0  0
   -2.9579   -0.8568    0.4538 H   0  0  0  0  0  0  0  0  0  0  0  0
   -2.6023   -1.8732    1.8595 H   0  0  0  0  0  0  0  0  0  0  0  0
   -1.4791   -0.5974    1.3633 H   0  0  0  0  0  0  0  0  0  0  0  0
    0.6536   -1.0379   -2.2892 C   0  0  0  0  0  0  0  0  0  0  0  0
    0.6536   -1.0379   -0.7601 C   0  0  0  0  0  0  0  0  0  0  0  0
    0.6536    0.3564   -0.1907 C   0  0  0  0  0  0  0  0  0  0  0  0
   -0.5409    1.0253    0.0571 C   0  0  0  0  0  3  0  0  0  0  0  0
   -0.5442    2.3256    0.5380 C   0  0  0  0  0  0  0  0  0  0  0  0
    0.6536    2.9809    0.7798 C   0  0  0  0  0  0  0  0  0  0  0  0
    1.8514    2.3256    0.5380 C   0  0  0  0  0  0  0  0  0  0  0  0
    1.8481    1.0253    0.0571 C   0  0  0  0  0  0  0  0  0  0  0  0
    1.5349   -0.5228   -2.6760 H   0  0  0  0  0  0  0  0  0  0  0  0
   -0.2277   -0.5228   -2.6760 H   0  0  0  0  0  0  0  0  0  0  0  0
    0.6536   -2.0563   -2.6815 H   0  0  0  0  0  0  0  0  0  0  0  0
   -0.3984   -1.6879   -0.3243 H   0  0  0  0  0  0  0  0  0  0  0  0
    1.5302   -1.5796   -0.3969 H   0  0  0  0  0  0  0  0  0  0  0  0
   -1.4818    0.5182   -0.1267 H   0  0  0  0  0  0  0  0  0  0  0  0
   -1.4850    2.8273    0.7279 H   0  0  0  0  0  0  0  0  0  0  0  0
    0.6536    3.9953    1.1582 H   0  0  0  0  0  0  0  0  0  0  0  0
    2.7922    2.8273    0.7279 H   0  0  0  0  0  0  0  0  0  0  0  0
    2.7890    0.5182   -0.1267 H   0  0  0  0  0  0  0  0  0  0  0  0
  1  2  2  3
  1  4  1  0
  1  5  1  0
  2  3  1  0
  2 20  1  0
  3  6  1  0
  3  7  1  0
  3  8  1  0
  9 10  1  0
  9 17  1  0
  9 18  1  0
  9 19  1  0
 10 11  2  3
 10 21  1  0
 11 12  1  0
 11 16  1  0
 12 13  1  0
 12 22  1  0
 13 14  2  0
 13 23  1  0
 14 15  1  0
 14 24  1  0
 15 16  2  0
 15 25  1  0
 16 26  1  0
M  RAD  1  12   2
M  END
>  <reaction>  (12) 
rxn_1495

>  <mol_properties>  (12) 
{"0": {"label": "*4", "atom_type": "Cs"}, "2": {"label": "*0", "atom_type": "Cd"}, "3": {"label": "*1", "atom_type": "Cs"}, "4": {"label": "*3", "atom_type": "Cd"}, "17": {"label": "*2", "atom_type": "H0"}}

>  <type>  (12) 
unop_8

>  <geom_source>  (12) 
Heuristics

$$$$

     RDKit          3D

 26 25  0  0  0  0  0  0  0  0999 V2000
   -2.5083   -2.3229   -0.5912 C   0  0  0  0  0  0  0  0  0  0  0  0
   -1.4078   -2.3247    0.1445 C   0  0  0  0  0  0  0  0  0  0  0  0
   -1.3433   -2.6779    1.5955 C   0  0  0  0  0  0  0  0  0  0  0  0
   -3.4717   -2.5886   -0.1690 H   0  0  0  0  0  0  0  0  0  0  0  0
   -2.4878   -2.0563   -1.6404 H   0  0  0  0  0  0  0  0  0  0  0  0
   -0.9505   -1.8432    2.1818 H   0  0  0  0  0  0  0  0  0  0  0  0
   -2.3274   -2.9392    1.9863 H   0  0  0  0  0  0  0  0  0  0  0  0
   -0.6715   -3.5242    1.7603 H   0  0  0  0  0  0  0  0  0  0  0  0
    0.6908   -1.0280   -2.2539 C   0  0  0  0  0  0  0  0  0  0  0  0
    0.6908   -1.0280   -0.7248 C   0  0  0  0  0  0  0  0  0  0  0  0
    0.6908    0.3663   -0.1554 C   0  0  0  0  0  0  0  0  0  0  0  0
   -0.5038    1.0352    0.0924 C   0  0  0  0  0  3  0  0  0  0  0  0
   -0.5070    2.3354    0.5733 C   0  0  0  0  0  0  0  0  0  0  0  0
    0.6908    2.9908    0.8151 C   0  0  0  0  0  0  0  0  0  0  0  0
    1.8886    2.3354    0.5733 C   0  0  0  0  0  0  0  0  0  0  0  0
    1.8853    1.0352    0.0924 C   0  0  0  0  0  0  0  0  0  0  0  0
    1.5720   -0.5130   -2.6407 H   0  0  0  0  0  0  0  0  0  0  0  0
   -0.1905   -0.5130   -2.6407 H   0  0  0  0  0  0  0  0  0  0  0  0
    0.6908   -2.0464   -2.6462 H   0  0  0  0  0  0  0  0  0  0  0  0
   -0.3612   -1.6780   -0.2890 H   0  0  0  0  0  0  0  0  0  0  0  0
    1.5674   -1.5697   -0.3616 H   0  0  0  0  0  0  0  0  0  0  0  0
   -1.4447    0.5280   -0.0914 H   0  0  0  0  0  0  0  0  0  0  0  0
   -1.4478    2.8371    0.7632 H   0  0  0  0  0  0  0  0  0  0  0  0
    0.6908    4.0051    1.1935 H   0  0  0  0  0  0  0  0  0  0  0  0
    2.8294    2.8371    0.7632 H   0  0  0  0  0  0  0  0  0  0  0  0
    2.8262    0.5280   -0.0914 H   0  0  0  0  0  0  0  0  0  0  0  0
  1  2  2  3
  1  4  1  0
  1  5  1  0
  2  3  1  0
  2 20  1  0
  3  6  1  0
  3  7  1  0
  3  8  1  0
  9 10  1  0
  9 17  1  0
  9 18  1  0
  9 19  1  0
 10 11  2  3
 10 21  1  0
 11 12  1  0
 11 16  1  0
 12 13  1  0
 12 22  1  0
 13 14  2  0
 13 23  1  0
 14 15  1  0
 14 24  1  0
 15 16  2  0
 15 25  1  0
 16 26  1  0
M  RAD  1  12   2
M  END
>  <reaction>  (13) 
rxn_1495

>  <mol_properties>  (13) 
{"0": {"label": "*4", "atom_type": "Cs"}, "2": {"label": "*0", "atom_type": "Cd"}, "3": {"label": "*1", "atom_type": "Cs"}, "4": {"label": "*3", "atom_type": "Cd"}, "17": {"label": "*2", "atom_type": "H0"}}

>  <type>  (13) 
unop_9

>  <geom_source>  (13) 
Heuristics

$$$$

     RDKit          3D

 26 25  0  0  0  0  0  0  0  0999 V2000
   -1.5950   -3.5717   -0.2132 C   0  0  0  0  0  0  0  0  0  0  0  0
   -1.4476   -2.2996    0.1220 C   0  0  0  0  0  0  0  0  0  0  0  0
   -1.9078   -1.6893    1.4065 C   0  0  0  0  0  0  0  0  0  0  0  0
   -2.0791   -4.2797    0.4513 H   0  0  0  0  0  0  0  0  0  0  0  0
   -1.2384   -3.9525   -1.1619 H   0  0  0  0  0  0  0  0  0  0  0  0
   -2.6185   -0.8801    1.2200 H   0  0  0  0  0  0  0  0  0  0  0  0
   -2.3888   -2.4278    2.0490 H   0  0  0  0  0  0  0  0  0  0  0  0
   -1.0675   -1.2529    1.9527 H   0  0  0  0  0  0  0  0  0  0  0  0
    0.6509   -1.0029   -2.2764 C   0  0  0  0  0  0  0  0  0  0  0  0
    0.6509   -1.0029   -0.7473 C   0  0  0  0  0  0  0  0  0  0  0  0
    0.6509    0.3914   -0.1779 C   0  0  0  0  0  0  0  0  0  0  0  0
   -0.5436    1.0603    0.0698 C   0  0  0  0  0  3  0  0  0  0  0  0
   -0.5469    2.3605    0.5508 C   0  0  0  0  0  0  0  0  0  0  0  0
    0.6509    3.0159    0.7926 C   0  0  0  0  0  0  0  0  0  0  0  0
    1.8487    2.3605    0.5508 C   0  0  0  0  0  0  0  0  0  0  0  0
    1.8454    1.0603    0.0698 C   0  0  0  0  0  0  0  0  0  0  0  0
    1.5322   -0.4879   -2.6632 H   0  0  0  0  0  0  0  0  0  0  0  0
   -0.2304   -0.4879   -2.6632 H   0  0  0  0  0  0  0  0  0  0  0  0
    0.6509   -2.0213   -2.6687 H   0  0  0  0  0  0  0  0  0  0  0  0
   -0.4010   -1.6529   -0.3116 H   0  0  0  0  0  0  0  0  0  0  0  0
    1.5276   -1.5446   -0.3842 H   0  0  0  0  0  0  0  0  0  0  0  0
   -1.4845    0.5531   -0.1139 H   0  0  0  0  0  0  0  0  0  0  0  0
   -1.4877    2.8622    0.7407 H   0  0  0  0  0  0  0  0  0  0  0  0
    0.6509    4.0302    1.1709 H   0  0  0  0  0  0  0  0  0  0  0  0
    2.7895    2.8622    0.7407 H   0  0  0  0  0  0  0  0  0  0  0  0
    2.7863    0.5531   -0.1139 H   0  0  0  0  0  0  0  0  0  0  0  0
  1  2  2  3
  1  4  1  0
  1  5  1  0
  2  3  1  0
  2 20  1  0
  3  6  1  0
  3  7  1  0
  3  8  1  0
  9 10  1  0
  9 17  1  0
  9 18  1  0
  9 19  1  0
 10 11  2  3
 10 21  1  0
 11 12  1  0
 11 16  1  0
 12 13  1  0
 12 22  1  0
 13 14  2  0
 13 23  1  0
 14 15  1  0
 14 24  1  0
 15 16  2  0
 15 25  1  0
 16 26  1  0
M  RAD  1  12   2
M  END
>  <reaction>  (14) 
rxn_1495

>  <mol_properties>  (14) 
{"0": {"label": "*4", "atom_type": "Cs"}, "2": {"label": "*0", "atom_type": "Cd"}, "3": {"label": "*1", "atom_type": "Cs"}, "4": {"label": "*3", "atom_type": "Cd"}, "17": {"label": "*2", "atom_type": "H0"}}

>  <type>  (14) 
unop_10

>  <geom_source>  (14) 
Heuristics

$$$$

     RDKit          3D

 26 25  0  0  0  0  0  0  0  0999 V2000
   -1.9971   -1.8952    1.3255 C   0  0  0  0  0  0  0  0  0  0  0  0
   -1.4647   -2.2481    0.1660 C   0  0  0  0  0  0  0  0  0  0  0  0
   -1.4042   -3.6445   -0.3636 C   0  0  0  0  0  0  0  0  0  0  0  0
   -2.4409   -2.6281    1.9909 H   0  0  0  0  0  0  0  0  0  0  0  0
   -2.0093   -0.8630    1.6524 H   0  0  0  0  0  0  0  0  0  0  0  0
   -0.3693   -3.9493   -0.5392 H   0  0  0  0  0  0  0  0  0  0  0  0
   -1.8584   -4.3538    0.3294 H   0  0  0  0  0  0  0  0  0  0  0  0
   -1.9233   -3.7196   -1.3226 H   0  0  0  0  0  0  0  0  0  0  0  0
    0.6338   -0.9514   -2.2324 C   0  0  0  0  0  0  0  0  0  0  0  0
    0.6338   -0.9514   -0.7033 C   0  0  0  0  0  0  0  0  0  0  0  0
    0.6338    0.4429   -0.1339 C   0  0  0  0  0  0  0  0  0  0  0  0
   -0.5607    1.1119    0.1138 C   0  0  0  0  0  3  0  0  0  0  0  0
   -0.5640    2.4121    0.5948 C   0  0  0  0  0  0  0  0  0  0  0  0
    0.6338    3.0674    0.8366 C   0  0  0  0  0  0  0  0  0  0  0  0
    1.8316    2.4121    0.5948 C   0  0  0  0  0  0  0  0  0  0  0  0
    1.8284    1.1119    0.1138 C   0  0  0  0  0  0  0  0  0  0  0  0
    1.5151   -0.4363   -2.6192 H   0  0  0  0  0  0  0  0  0  0  0  0
   -0.2474   -0.4363   -2.6192 H   0  0  0  0  0  0  0  0  0  0  0  0
    0.6338   -1.9698   -2.6247 H   0  0  0  0  0  0  0  0  0  0  0  0
   -0.4181   -1.6014   -0.2675 H   0  0  0  0  0  0  0  0  0  0  0  0
    1.5105   -1.4930   -0.3402 H   0  0  0  0  0  0  0  0  0  0  0  0
   -1.5016    0.6047   -0.0699 H   0  0  0  0  0  0  0  0  0  0  0  0
   -1.5048    2.9138    0.7847 H   0  0  0  0  0  0  0  0  0  0  0  0
    0.6338    4.0818    1.2149 H   0  0  0  0  0  0  0  0  0  0  0  0
    2.7724    2.9138    0.7847 H   0  0  0  0  0  0  0  0  0  0  0  0
    2.7693    0.6047   -0.0699 H   0  0  0  0  0  0  0  0  0  0  0  0
  1  2  2  3
  1  4  1  0
  1  5  1  0
  2  3  1  0
  2 20  1  0
  3  6  1  0
  3  7  1  0
  3  8  1  0
  9 10  1  0
  9 17  1  0
  9 18  1  0
  9 19  1  0
 10 11  2  3
 10 21  1  0
 11 12  1  0
 11 16  1  0
 12 13  1  0
 12 22  1  0
 13 14  2  0
 13 23  1  0
 14 15  1  0
 14 24  1  0
 15 16  2  0
 15 25  1  0
 16 26  1  0
M  RAD  1  12   2
M  END
>  <reaction>  (15) 
rxn_1495

>  <mol_properties>  (15) 
{"0": {"label": "*4", "atom_type": "Cs"}, "2": {"label": "*0", "atom_type": "Cd"}, "3": {"label": "*1", "atom_type": "Cs"}, "4": {"label": "*3", "atom_type": "Cd"}, "17": {"label": "*2", "atom_type": "H0"}}

>  <type>  (15) 
unop_11

>  <geom_source>  (15) 
Heuristics

$$$$

     RDKit          3D

 26 25  0  0  0  0  0  0  0  0999 V2000
   -2.2509   -2.8191   -0.7266 C   0  0  0  0  0  0  0  0  0  0  0  0
   -1.4114   -2.3003    0.1557 C   0  0  0  0  0  0  0  0  0  0  0  0
   -1.5586   -2.3913    1.6404 C   0  0  0  0  0  0  0  0  0  0  0  0
   -3.1347   -3.3652   -0.4138 H   0  0  0  0  0  0  0  0  0  0  0  0
   -2.0870   -2.7178   -1.7920 H   0  0  0  0  0  0  0  0  0  0  0  0
   -1.6167   -1.3954    2.0872 H   0  0  0  0  0  0  0  0  0  0  0  0
   -2.4557   -2.9456    1.9188 H   0  0  0  0  0  0  0  0  0  0  0  0
   -0.6939   -2.8887    2.0872 H   0  0  0  0  0  0  0  0  0  0  0  0
    0.6872   -1.0036   -2.2427 C   0  0  0  0  0  0  0  0  0  0  0  0
    0.6872   -1.0036   -0.7136 C   0  0  0  0  0  0  0  0  0  0  0  0
    0.6872    0.3907   -0.1442 C   0  0  0  0  0  0  0  0  0  0  0  0
   -0.5074    1.0596    0.1036 C   0  0  0  0  0  3  0  0  0  0  0  0
   -0.5106    2.3598    0.5845 C   0  0  0  0  0  0  0  0  0  0  0  0
    0.6872    3.0152    0.8263 C   0  0  0  0  0  0  0  0  0  0  0  0
    1.8850    2.3598    0.5845 C   0  0  0  0  0  0  0  0  0  0  0  0
    1.8817    1.0596    0.1036 C   0  0  0  0  0  0  0  0  0  0  0  0
    1.5684   -0.4886   -2.6295 H   0  0  0  0  0  0  0  0  0  0  0  0
   -0.1941   -0.4886   -2.6295 H   0  0  0  0  0  0  0  0  0  0  0  0
    0.6872   -2.0220   -2.6350 H   0  0  0  0  0  0  0  0  0  0  0  0
   -0.3648   -1.6536   -0.2778 H   0  0  0  0  0  0  0  0  0  0  0  0
    1.5638   -1.5453   -0.3505 H   0  0  0  0  0  0  0  0  0  0  0  0
   -1.4483    0.5524   -0.0802 H   0  0  0  0  0  0  0  0  0  0  0  0
   -1.4514    2.8615    0.7744 H   0  0  0  0  0  0  0  0  0  0  0  0
    0.6872    4.0295    1.2047 H   0  0  0  0  0  0  0  0  0  0  0  0
    2.8258    2.8615    0.7744 H   0  0  0  0  0  0  0  0  0  0  0  0
    2.8226    0.5524   -0.0802 H   0  0  0  0  0  0  0  0  0  0  0  0
  1  2  2  3
  1  4  1  0
  1  5  1  0
  2  3  1  0
  2 20  1  0
  3  6  1  0
  3  7  1  0
  3  8  1  0
  9 10  1  0
  9 17  1  0
  9 18  1  0
  9 19  1  0
 10 11  2  3
 10 21  1  0
 11 12  1  0
 11 16  1  0
 12 13  1  0
 12 22  1  0
 13 14  2  0
 13 23  1  0
 14 15  1  0
 14 24  1  0
 15 16  2  0
 15 25  1  0
 16 26  1  0
M  RAD  1  12   2
M  END
>  <reaction>  (16) 
rxn_1495

>  <mol_properties>  (16) 
{"0": {"label": "*4", "atom_type": "Cs"}, "2": {"label": "*0", "atom_type": "Cd"}, "3": {"label": "*1", "atom_type": "Cs"}, "4": {"label": "*3", "atom_type": "Cd"}, "17": {"label": "*2", "atom_type": "H0"}}

>  <type>  (16) 
unop_12

>  <geom_source>  (16) 
Heuristics

$$$$

     RDKit          3D

 26 25  0  0  0  0  0  0  0  0999 V2000
    2.6586    1.6091    0.9617 C   0  0  0  0  0  0  0  0  0  0  0  0
    0.2495   -2.6104   -0.2030 C   0  0  0  0  0  0  0  0  0  0  0  0
   -0.9019   -0.4201    0.1238 C   0  0  0  0  0  0  0  0  0  0  0  0
    0.4204   -1.1249    0.0867 C   0  0  0  0  0  0  0  0  0  0  0  0
    2.3479    0.5969   -0.0959 C   0  0  0  0  0  0  0  0  0  0  0  0
   -1.5394   -0.0287   -1.0646 C   0  0  0  0  0  3  0  0  0  0  0  0
   -1.5241   -0.1770    1.3564 C   0  0  0  0  0  0  0  0  0  0  0  0
   -2.7825    0.6105   -1.0160 C   0  0  0  0  0  0  0  0  0  0  0  0
   -3.3956    0.8568    0.2162 C   0  0  0  0  0  0  0  0  0  0  0  0
   -2.7673    0.4625    1.4014 C   0  0  0  0  0  0  0  0  0  0  0  0
    2.7504    0.7683   -1.3565 C   0  0  0  0  0  0  0  0  0  0  0  0
    2.2352    1.2743    1.9313 H   0  0  0  0  0  0  0  0  0  0  0  0
    3.7582    1.7212    1.0685 H   0  0  0  0  0  0  0  0  0  0  0  0
    2.2106    2.5890    0.6925 H   0  0  0  0  0  0  0  0  0  0  0  0
    1.2431   -3.1042   -0.1839 H   0  0  0  0  0  0  0  0  0  0  0  0
   -0.2068   -2.7594   -1.2049 H   0  0  0  0  0  0  0  0  0  0  0  0
   -0.3951   -3.0785    0.5708 H   0  0  0  0  0  0  0  0  0  0  0  0
    1.7107   -0.4101    0.2030 H   0  0  0  0  0  0  0  0  0  0  0  0
    1.0950   -0.6578   -0.6631 H   0  0  0  0  0  0  0  0  0  0  0  0
   -1.0747   -0.2193   -2.0241 H   0  0  0  0  0  0  0  0  0  0  0  0
   -3.2711    0.9131   -1.9331 H   0  0  0  0  0  0  0  0  0  0  0  0
   -1.0472   -0.4826    2.2796 H   0  0  0  0  0  0  0  0  0  0  0  0
   -4.3579    1.3509    0.2524 H   0  0  0  0  0  0  0  0  0  0  0  0
   -3.2443    0.6508    2.3545 H   0  0  0  0  0  0  0  0  0  0  0  0
    3.3150    1.6490   -1.6478 H   0  0  0  0  0  0  0  0  0  0  0  0
    2.5133    0.0208   -2.1061 H   0  0  0  0  0  0  0  0  0  0  0  0
  1  5  1  0
  1 12  1  0
  1 13  1  0
  1 14  1  0
  2  4  1  0
  2 15  1  0
  2 16  1  0
  2 17  1  0
  3  4  2  3
  3  6  1  0
  3  7  1  0
  4 19  1  0
  5 11  2  3
  5 18  1  0
  6  8  1  0
  6 20  1  0
  7 10  2  0
  7 22  1  0
  8  9  2  0
  8 21  1  0
  9 10  1  0
  9 23  1  0
 10 24  1  0
 11 25  1  0
 11 26  1  0
M  RAD  1   6   2
M  END
>  <reaction>  (17) 
rxn_1495

>  <mol_properties>  (17) 
{"0": {"label": "*4", "atom_type": "Cs"}, "2": {"label": "*0", "atom_type": "Cd"}, "3": {"label": "*1", "atom_type": "Cs"}, "4": {"label": "*3", "atom_type": "Cd"}, "17": {"label": "*2", "atom_type": "H0"}}

>  <type>  (17) 
unop_13

>  <geom_source>  (17) 
AutoTST

$$$$
