
     RDKit          3D

 15 14  0  0  0  0  0  0  0  0999 V2000
    2.1256    0.4849   -0.6284 C   0  0  0  0  0  0  0  0  0  0  0  0
    1.1128    0.2141    0.1794 C   0  0  0  0  0  0  0  0  0  0  0  0
   -0.3017   -0.0425   -0.2513 C   0  0  0  0  0  0  0  0  0  0  0  0
   -1.2427    1.0075    0.3423 C   0  0  0  0  0  0  0  0  0  0  0  0
   -0.7381   -1.4526    0.1504 C   0  0  0  0  0  0  0  0  0  0  0  0
    3.1243    0.6602   -0.2486 H   0  0  0  0  0  0  0  0  0  0  0  0
    1.9908    0.5411   -1.7036 H   0  0  0  0  0  0  0  0  0  0  0  0
    1.2888    0.1665    1.2533 H   0  0  0  0  0  0  0  0  0  0  0  0
   -0.3426    0.0343   -1.3424 H   0  0  0  0  0  0  0  0  0  0  0  0
   -0.9570    2.0133    0.0315 H   0  0  0  0  0  0  0  0  0  0  0  0
   -1.2189    0.9728    1.4350 H   0  0  0  0  0  0  0  0  0  0  0  0
   -2.2723    0.8287    0.0254 H   0  0  0  0  0  0  0  0  0  0  0  0
   -0.6964   -1.5744    1.2363 H   0  0  0  0  0  0  0  0  0  0  0  0
   -0.0911   -2.2079   -0.2978 H   0  0  0  0  0  0  0  0  0  0  0  0
   -1.7646   -1.6461   -0.1677 H   0  0  0  0  0  0  0  0  0  0  0  0
  1  2  2  3
  1  6  1  0
  1  7  1  0
  2  3  1  0
  2  8  1  0
  3  4  1  0
  3  5  1  0
  3  9  1  0
  4 10  1  0
  4 11  1  0
  4 12  1  0
  5 13  1  0
  5 14  1  0
  5 15  1  0
M  END
>  <reaction>  (1) 
rxn_1122

>  <mol_properties>  (1) 
{"2": {"label": "donator", "atom_type": "Cs"}, "8": {"label": "d_hydrogen", "atom_type": "H0"}}

>  <type>  (1) 
r1h

$$$$

     RDKit          3D

  4  3  0  0  0  0  0  0  0  0999 V2000
   -0.7528   -0.8706   -0.3839 S   0  0  0  0  0  0  0  0  0  0  0  0
    0.7502   -0.2564   -0.0649 C   0  0  0  0  0  3  0  0  0  0  0  0
    1.5655    0.9691    0.4633 S   0  0  0  0  0  0  0  0  0  0  0  0
   -1.5629    0.1579   -0.0146 H   0  0  0  0  0  0  0  0  0  0  0  0
  1  2  1  0
  1  4  1  0
  2  3  2  0
M  RAD  1   2   2
M  END
>  <reaction>  (2) 
rxn_1122

>  <mol_properties>  (2) 
{"1": {"label": "acceptor", "atom_type": "CS"}}

>  <type>  (2) 
r2

$$$$

     RDKit          3D

  5  4  0  0  0  0  0  0  0  0999 V2000
    1.2280   -0.4626    0.1225 S   0  0  0  0  0  0  0  0  0  0  0  0
   -0.4732   -0.2566   -0.0746 C   0  0  0  0  0  0  0  0  0  0  0  0
   -1.3314    1.1074   -0.0947 S   0  0  0  0  0  0  0  0  0  0  0  0
    1.5289    0.8405    0.2416 H   0  0  0  0  0  0  0  0  0  0  0  0
   -0.9523   -1.2286   -0.1949 H   0  0  0  0  0  0  0  0  0  0  0  0
  1  2  1  0
  1  4  1  0
  2  3  2  0
  2  5  1  0
M  END
>  <reaction>  (3) 
rxn_1122

>  <mol_properties>  (3) 
{"1": {"label": "acceptor", "atom_type": "CS"}, "4": {"label": "a_hydrogen", "atom_type": "H0"}}

>  <type>  (3) 
r2h

$$$$

     RDKit          3D

 19 17  0  0  0  0  0  0  0  0999 V2000
   -0.5058    0.9773   -1.8606 S   0  0  0  0  0  0  0  0  0  0  0  0
   -0.4379    1.1991   -0.1769 C   0  0  0  0  0  3  0  0  0  0  0  0
   -0.4955    2.4742    0.7755 S   0  0  0  0  0  0  0  0  0  0  0  0
   -0.6397    2.2648   -2.2410 H   0  0  0  0  0  0  0  0  0  0  0  0
    0.6092   -2.9345   -0.6610 C   0  0  0  0  0  0  0  0  0  0  0  0
   -0.2904   -2.2448    0.0401 C   0  0  0  0  0  0  0  0  0  0  0  0
   -0.0159   -1.1928    1.0287 C   0  0  0  0  0  0  0  0  0  0  0  0
    1.4212   -0.9929    1.4483 C   0  0  0  0  0  0  0  0  0  0  0  0
   -1.0102   -1.1101    2.1667 C   0  0  0  0  0  0  0  0  0  0  0  0
    0.2992   -3.6725   -1.3893 H   0  0  0  0  0  0  0  0  0  0  0  0
    1.6752   -2.7971   -0.5278 H   0  0  0  0  0  0  0  0  0  0  0  0
   -1.3443   -2.4441   -0.1406 H   0  0  0  0  0  0  0  0  0  0  0  0
   -0.2672   -0.0902    0.3856 H   0  0  0  0  0  0  0  0  0  0  0  0
    2.0798   -0.8556    0.5892 H   0  0  0  0  0  0  0  0  0  0  0  0
    1.7839   -1.8550    2.0168 H   0  0  0  0  0  0  0  0  0  0  0  0
    1.5097   -0.1089    2.0818 H   0  0  0  0  0  0  0  0  0  0  0  0
   -0.8292   -1.9064    2.8960 H   0  0  0  0  0  0  0  0  0  0  0  0
   -2.0361   -1.2110    1.8080 H   0  0  0  0  0  0  0  0  0  0  0  0
   -0.9236   -0.1537    2.6865 H   0  0  0  0  0  0  0  0  0  0  0  0
  1  2  1  0
  1  4  1  0
  2  3  2  0
  5  6  2  3
  5 10  1  0
  5 11  1  0
  6  7  1  0
  6 12  1  0
  7  8  1  0
  7  9  1  0
  7 13  1  0
  8 14  1  0
  8 15  1  0
  8 16  1  0
  9 17  1  0
  9 18  1  0
  9 19  1  0
M  RAD  1   2   2
M  END
>  <reaction>  (4) 
rxn_1122

>  <mol_properties>  (4) 
{"0": {"label": "*4", "atom_type": "S2s"}, "1": {"label": "*3", "atom_type": "CS"}, "5": {"label": "*0", "atom_type": "Cd"}, "6": {"label": "*1", "atom_type": "Cs"}, "12": {"label": "*2", "atom_type": "H0"}}

>  <type>  (4) 
ts

$$$$

     RDKit          3D

 19 17  0  0  0  0  0  0  0  0999 V2000
   -1.4216    1.8455   -0.3306 S   0  0  0  0  0  0  0  0  0  0  0  0
   -0.0165    0.8924   -0.6351 C   0  0  0  0  0  0  0  0  0  0  0  0
    1.4900    1.3790   -0.9369 S   0  0  0  0  0  0  0  0  0  0  0  0
   -0.8221    3.0425   -0.4344 H   0  0  0  0  0  0  0  0  0  0  0  0
   -0.0165   -2.4377   -1.2727 C   0  0  0  0  0  0  0  0  0  0  0  0
   -0.0165   -2.4377    0.0508 C   0  0  0  0  0  0  0  0  0  0  0  0
   -0.0165   -1.2163    0.9228 C   0  0  0  0  0  3  0  0  0  0  0  0
    1.2428   -1.1759    1.7904 C   0  0  0  0  0  0  0  0  0  0  0  0
   -1.2759   -1.1759    1.7904 C   0  0  0  0  0  0  0  0  0  0  0  0
   -0.0165   -3.3594   -1.8410 H   0  0  0  0  0  0  0  0  0  0  0  0
   -0.0165   -1.5111   -1.8373 H   0  0  0  0  0  0  0  0  0  0  0  0
   -0.0165   -3.3890    0.5813 H   0  0  0  0  0  0  0  0  0  0  0  0
   -0.0165   -0.1599    0.1423 H   0  0  0  0  0  0  0  0  0  0  0  0
    2.1443   -1.1700    1.1763 H   0  0  0  0  0  0  0  0  0  0  0  0
    1.2873   -2.0497    2.4462 H   0  0  0  0  0  0  0  0  0  0  0  0
    1.2503   -0.2847    2.4214 H   0  0  0  0  0  0  0  0  0  0  0  0
   -1.3204   -2.0497    2.4462 H   0  0  0  0  0  0  0  0  0  0  0  0
   -2.1774   -1.1700    1.1763 H   0  0  0  0  0  0  0  0  0  0  0  0
   -1.2834   -0.2847    2.4214 H   0  0  0  0  0  0  0  0  0  0  0  0
  1  2  1  0
  1  4  1  0
  2  3  2  0
  2 13  1  0
  5  6  2  3
  5 10  1  0
  5 11  1  0
  6  7  1  0
  6 12  1  0
  7  8  1  0
  7  9  1  0
  8 14  1  0
  8 15  1  0
  8 16  1  0
  9 17  1  0
  9 18  1  0
  9 19  1  0
M  RAD  1   7   2
M  END
>  <reaction>  (5) 
rxn_1122

>  <mol_properties>  (5) 
{"0": {"label": "*4", "atom_type": "S2s"}, "1": {"label": "*3", "atom_type": "CS"}, "5": {"label": "*0", "atom_type": "Cd"}, "6": {"label": "*1", "atom_type": "Cs"}, "12": {"label": "*2", "atom_type": "H0"}}

>  <type>  (5) 
unop_1

>  <geom_source>  (5) 
Heuristics

$$$$

     RDKit          3D

 19 17  0  0  0  0  0  0  0  0999 V2000
   -0.7016    0.6162   -1.9163 S   0  0  0  0  0  0  0  0  0  0  0  0
    0.1096    0.9800   -0.4381 C   0  0  0  0  0  0  0  0  0  0  0  0
    0.4492    2.4198    0.2016 S   0  0  0  0  0  0  0  0  0  0  0  0
   -0.9191    1.8873   -2.2903 H   0  0  0  0  0  0  0  0  0  0  0  0
    0.1096   -2.3501   -1.0758 C   0  0  0  0  0  0  0  0  0  0  0  0
    0.1096   -2.3501    0.2477 C   0  0  0  0  0  0  0  0  0  0  0  0
    0.1096   -1.1287    1.1197 C   0  0  0  0  0  3  0  0  0  0  0  0
    1.3689   -1.0883    1.9874 C   0  0  0  0  0  0  0  0  0  0  0  0
   -1.1497   -1.0883    1.9874 C   0  0  0  0  0  0  0  0  0  0  0  0
    0.1096   -3.2718   -1.6441 H   0  0  0  0  0  0  0  0  0  0  0  0
    0.1096   -1.4235   -1.6404 H   0  0  0  0  0  0  0  0  0  0  0  0
    0.1096   -3.3014    0.7782 H   0  0  0  0  0  0  0  0  0  0  0  0
    0.1096   -0.0723    0.3393 H   0  0  0  0  0  0  0  0  0  0  0  0
    2.2705   -1.0824    1.3732 H   0  0  0  0  0  0  0  0  0  0  0  0
    1.4135   -1.9621    2.6432 H   0  0  0  0  0  0  0  0  0  0  0  0
    1.3764   -0.1971    2.6184 H   0  0  0  0  0  0  0  0  0  0  0  0
   -1.1943   -1.9621    2.6432 H   0  0  0  0  0  0  0  0  0  0  0  0
   -2.0512   -1.0824    1.3732 H   0  0  0  0  0  0  0  0  0  0  0  0
   -1.1572   -0.1971    2.6184 H   0  0  0  0  0  0  0  0  0  0  0  0
  1  2  1  0
  1  4  1  0
  2  3  2  0
  2 13  1  0
  5  6  2  3
  5 10  1  0
  5 11  1  0
  6  7  1  0
  6 12  1  0
  7  8  1  0
  7  9  1  0
  8 14  1  0
  8 15  1  0
  8 16  1  0
  9 17  1  0
  9 18  1  0
  9 19  1  0
M  RAD  1   7   2
M  END
>  <reaction>  (6) 
rxn_1122

>  <mol_properties>  (6) 
{"0": {"label": "*4", "atom_type": "S2s"}, "1": {"label": "*3", "atom_type": "CS"}, "5": {"label": "*0", "atom_type": "Cd"}, "6": {"label": "*1", "atom_type": "Cs"}, "12": {"label": "*2", "atom_type": "H0"}}

>  <type>  (6) 
unop_2

>  <geom_source>  (6) 
Heuristics

$$$$

     RDKit          3D

 19 17  0  0  0  0  0  0  0  0999 V2000
   -0.8894    2.2148    0.2172 S   0  0  0  0  0  0  0  0  0  0  0  0
   -0.0782    0.9089   -0.5649 C   0  0  0  0  0  0  0  0  0  0  0  0
    1.0972    0.9625   -1.6663 S   0  0  0  0  0  0  0  0  0  0  0  0
   -0.2185    3.2031   -0.3959 H   0  0  0  0  0  0  0  0  0  0  0  0
   -0.0782   -2.4213   -1.2025 C   0  0  0  0  0  0  0  0  0  0  0  0
   -0.0782   -2.4213    0.1210 C   0  0  0  0  0  0  0  0  0  0  0  0
   -0.0782   -1.1999    0.9930 C   0  0  0  0  0  3  0  0  0  0  0  0
    1.1811   -1.1594    1.8607 C   0  0  0  0  0  0  0  0  0  0  0  0
   -1.3375   -1.1594    1.8607 C   0  0  0  0  0  0  0  0  0  0  0  0
   -0.0782   -3.3430   -1.7708 H   0  0  0  0  0  0  0  0  0  0  0  0
   -0.0782   -1.4947   -1.7671 H   0  0  0  0  0  0  0  0  0  0  0  0
   -0.0782   -3.3726    0.6515 H   0  0  0  0  0  0  0  0  0  0  0  0
   -0.0782   -0.1435    0.2126 H   0  0  0  0  0  0  0  0  0  0  0  0
    2.0826   -1.1536    1.2465 H   0  0  0  0  0  0  0  0  0  0  0  0
    1.2257   -2.0333    2.5165 H   0  0  0  0  0  0  0  0  0  0  0  0
    1.1886   -0.2682    2.4917 H   0  0  0  0  0  0  0  0  0  0  0  0
   -1.3821   -2.0333    2.5165 H   0  0  0  0  0  0  0  0  0  0  0  0
   -2.2391   -1.1536    1.2465 H   0  0  0  0  0  0  0  0  0  0  0  0
   -1.3451   -0.2682    2.4917 H   0  0  0  0  0  0  0  0  0  0  0  0
  1  2  1  0
  1  4  1  0
  2  3  2  0
  2 13  1  0
  5  6  2  3
  5 10  1  0
  5 11  1  0
  6  7  1  0
  6 12  1  0
  7  8  1  0
  7  9  1  0
  8 14  1  0
  8 15  1  0
  8 16  1  0
  9 17  1  0
  9 18  1  0
  9 19  1  0
M  RAD  1   7   2
M  END
>  <reaction>  (7) 
rxn_1122

>  <mol_properties>  (7) 
{"0": {"label": "*4", "atom_type": "S2s"}, "1": {"label": "*3", "atom_type": "CS"}, "5": {"label": "*0", "atom_type": "Cd"}, "6": {"label": "*1", "atom_type": "Cs"}, "12": {"label": "*2", "atom_type": "H0"}}

>  <type>  (7) 
unop_3

>  <geom_source>  (7) 
Heuristics

$$$$

     RDKit          3D

 19 17  0  0  0  0  0  0  0  0999 V2000
    1.2646    0.9284   -1.5382 S   0  0  0  0  0  0  0  0  0  0  0  0
   -0.1405    0.9393   -0.5377 C   0  0  0  0  0  0  0  0  0  0  0  0
   -0.9483    2.2003    0.0580 S   0  0  0  0  0  0  0  0  0  0  0  0
    1.4078    2.2610   -1.6184 H   0  0  0  0  0  0  0  0  0  0  0  0
   -0.1405   -2.3908   -1.1754 C   0  0  0  0  0  0  0  0  0  0  0  0
   -0.1405   -2.3908    0.1481 C   0  0  0  0  0  0  0  0  0  0  0  0
   -0.1405   -1.1694    1.0201 C   0  0  0  0  0  3  0  0  0  0  0  0
    1.1188   -1.1290    1.8878 C   0  0  0  0  0  0  0  0  0  0  0  0
   -1.3998   -1.1290    1.8878 C   0  0  0  0  0  0  0  0  0  0  0  0
   -0.1405   -3.3125   -1.7437 H   0  0  0  0  0  0  0  0  0  0  0  0
   -0.1405   -1.4642   -1.7400 H   0  0  0  0  0  0  0  0  0  0  0  0
   -0.1405   -3.3421    0.6787 H   0  0  0  0  0  0  0  0  0  0  0  0
   -0.1405   -0.1130    0.2397 H   0  0  0  0  0  0  0  0  0  0  0  0
    2.0204   -1.1231    1.2736 H   0  0  0  0  0  0  0  0  0  0  0  0
    1.1634   -2.0028    2.5436 H   0  0  0  0  0  0  0  0  0  0  0  0
    1.1264   -0.2378    2.5188 H   0  0  0  0  0  0  0  0  0  0  0  0
   -1.4444   -2.0028    2.5436 H   0  0  0  0  0  0  0  0  0  0  0  0
   -2.3013   -1.1231    1.2736 H   0  0  0  0  0  0  0  0  0  0  0  0
   -1.4073   -0.2378    2.5188 H   0  0  0  0  0  0  0  0  0  0  0  0
  1  2  1  0
  1  4  1  0
  2  3  2  0
  2 13  1  0
  5  6  2  3
  5 10  1  0
  5 11  1  0
  6  7  1  0
  6 12  1  0
  7  8  1  0
  7  9  1  0
  8 14  1  0
  8 15  1  0
  8 16  1  0
  9 17  1  0
  9 18  1  0
  9 19  1  0
M  RAD  1   7   2
M  END
>  <reaction>  (8) 
rxn_1122

>  <mol_properties>  (8) 
{"0": {"label": "*4", "atom_type": "S2s"}, "1": {"label": "*3", "atom_type": "CS"}, "5": {"label": "*0", "atom_type": "Cd"}, "6": {"label": "*1", "atom_type": "Cs"}, "12": {"label": "*2", "atom_type": "H0"}}

>  <type>  (8) 
unop_4

>  <geom_source>  (8) 
Heuristics

$$$$

     RDKit          3D

 19 17  0  0  0  0  0  0  0  0999 V2000
    0.0000    2.3591    0.4652 S   0  0  0  0  0  0  0  0  0  0  0  0
    0.0000    0.9240   -0.4917 C   0  0  0  0  0  0  0  0  0  0  0  0
    0.0000    0.7784   -2.0968 S   0  0  0  0  0  0  0  0  0  0  0  0
    0.0000    3.2278   -0.5586 H   0  0  0  0  0  0  0  0  0  0  0  0
   -0.0000   -2.4061   -1.1294 C   0  0  0  0  0  0  0  0  0  0  0  0
   -0.0000   -2.4061    0.1941 C   0  0  0  0  0  0  0  0  0  0  0  0
   -0.0000   -1.1847    1.0661 C   0  0  0  0  0  3  0  0  0  0  0  0
    1.2593   -1.1443    1.9338 C   0  0  0  0  0  0  0  0  0  0  0  0
   -1.2593   -1.1443    1.9338 C   0  0  0  0  0  0  0  0  0  0  0  0
   -0.0000   -3.3278   -1.6977 H   0  0  0  0  0  0  0  0  0  0  0  0
   -0.0000   -1.4795   -1.6940 H   0  0  0  0  0  0  0  0  0  0  0  0
   -0.0000   -3.3574    0.7246 H   0  0  0  0  0  0  0  0  0  0  0  0
   -0.0000   -0.1283    0.2857 H   0  0  0  0  0  0  0  0  0  0  0  0
    2.1609   -1.1384    1.3196 H   0  0  0  0  0  0  0  0  0  0  0  0
    1.3039   -2.0181    2.5896 H   0  0  0  0  0  0  0  0  0  0  0  0
    1.2668   -0.2531    2.5648 H   0  0  0  0  0  0  0  0  0  0  0  0
   -1.3039   -2.0181    2.5896 H   0  0  0  0  0  0  0  0  0  0  0  0
   -2.1609   -1.1384    1.3196 H   0  0  0  0  0  0  0  0  0  0  0  0
   -1.2668   -0.2531    2.5648 H   0  0  0  0  0  0  0  0  0  0  0  0
  1  2  1  0
  1  4  1  0
  2  3  2  0
  2 13  1  0
  5  6  2  3
  5 10  1  0
  5 11  1  0
  6  7  1  0
  6 12  1  0
  7  8  1  0
  7  9  1  0
  8 14  1  0
  8 15  1  0
  8 16  1  0
  9 17  1  0
  9 18  1  0
  9 19  1  0
M  RAD  1   7   2
M  END
>  <reaction>  (9) 
rxn_1122

>  <mol_properties>  (9) 
{"0": {"label": "*4", "atom_type": "S2s"}, "1": {"label": "*3", "atom_type": "CS"}, "5": {"label": "*0", "atom_type": "Cd"}, "6": {"label": "*1", "atom_type": "Cs"}, "12": {"label": "*2", "atom_type": "H0"}}

>  <type>  (9) 
unop_5

>  <geom_source>  (9) 
Heuristics

$$$$

     RDKit          3D

 19 17  0  0  0  0  0  0  0  0999 V2000
    1.5387    1.3742   -0.9680 S   0  0  0  0  0  0  0  0  0  0  0  0
   -0.0837    0.9031   -0.6200 C   0  0  0  0  0  0  0  0  0  0  0  0
   -1.3658    1.8337   -0.3237 S   0  0  0  0  0  0  0  0  0  0  0  0
    1.3328    2.6993   -0.9012 H   0  0  0  0  0  0  0  0  0  0  0  0
   -0.0837   -2.4270   -1.2576 C   0  0  0  0  0  0  0  0  0  0  0  0
   -0.0837   -2.4270    0.0659 C   0  0  0  0  0  0  0  0  0  0  0  0
   -0.0837   -1.2056    0.9379 C   0  0  0  0  0  3  0  0  0  0  0  0
    1.1756   -1.1652    1.8056 C   0  0  0  0  0  0  0  0  0  0  0  0
   -1.3430   -1.1652    1.8056 C   0  0  0  0  0  0  0  0  0  0  0  0
   -0.0837   -3.3487   -1.8259 H   0  0  0  0  0  0  0  0  0  0  0  0
   -0.0837   -1.5004   -1.8222 H   0  0  0  0  0  0  0  0  0  0  0  0
   -0.0837   -3.3783    0.5964 H   0  0  0  0  0  0  0  0  0  0  0  0
   -0.0837   -0.1492    0.1575 H   0  0  0  0  0  0  0  0  0  0  0  0
    2.0771   -1.1593    1.1914 H   0  0  0  0  0  0  0  0  0  0  0  0
    1.2202   -2.0390    2.4614 H   0  0  0  0  0  0  0  0  0  0  0  0
    1.1831   -0.2740    2.4366 H   0  0  0  0  0  0  0  0  0  0  0  0
   -1.3876   -2.0390    2.4614 H   0  0  0  0  0  0  0  0  0  0  0  0
   -2.2446   -1.1593    1.1914 H   0  0  0  0  0  0  0  0  0  0  0  0
   -1.3505   -0.2740    2.4366 H   0  0  0  0  0  0  0  0  0  0  0  0
  1  2  1  0
  1  4  1  0
  2  3  2  0
  2 13  1  0
  5  6  2  3
  5 10  1  0
  5 11  1  0
  6  7  1  0
  6 12  1  0
  7  8  1  0
  7  9  1  0
  8 14  1  0
  8 15  1  0
  8 16  1  0
  9 17  1  0
  9 18  1  0
  9 19  1  0
M  RAD  1   7   2
M  END
>  <reaction>  (10) 
rxn_1122

>  <mol_properties>  (10) 
{"0": {"label": "*4", "atom_type": "S2s"}, "1": {"label": "*3", "atom_type": "CS"}, "5": {"label": "*0", "atom_type": "Cd"}, "6": {"label": "*1", "atom_type": "Cs"}, "12": {"label": "*2", "atom_type": "H0"}}

>  <type>  (10) 
unop_6

>  <geom_source>  (10) 
Heuristics

$$$$

     RDKit          3D

 19 17  0  0  0  0  0  0  0  0999 V2000
    1.4216    1.8455   -0.3306 S   0  0  0  0  0  0  0  0  0  0  0  0
    0.0165    0.8924   -0.6351 C   0  0  0  0  0  0  0  0  0  0  0  0
   -1.4900    1.3790   -0.9369 S   0  0  0  0  0  0  0  0  0  0  0  0
    0.8221    3.0425   -0.4344 H   0  0  0  0  0  0  0  0  0  0  0  0
    0.0165   -2.4377   -1.2727 C   0  0  0  0  0  0  0  0  0  0  0  0
    0.0165   -2.4377    0.0508 C   0  0  0  0  0  0  0  0  0  0  0  0
    0.0165   -1.2163    0.9228 C   0  0  0  0  0  3  0  0  0  0  0  0
    1.2758   -1.1759    1.7904 C   0  0  0  0  0  0  0  0  0  0  0  0
   -1.2428   -1.1759    1.7904 C   0  0  0  0  0  0  0  0  0  0  0  0
    0.0165   -3.3594   -1.8410 H   0  0  0  0  0  0  0  0  0  0  0  0
    0.0165   -1.5111   -1.8373 H   0  0  0  0  0  0  0  0  0  0  0  0
    0.0165   -3.3890    0.5813 H   0  0  0  0  0  0  0  0  0  0  0  0
    0.0165   -0.1599    0.1423 H   0  0  0  0  0  0  0  0  0  0  0  0
    2.1774   -1.1700    1.1763 H   0  0  0  0  0  0  0  0  0  0  0  0
    1.3204   -2.0497    2.4462 H   0  0  0  0  0  0  0  0  0  0  0  0
    1.2834   -0.2847    2.4214 H   0  0  0  0  0  0  0  0  0  0  0  0
   -1.2873   -2.0497    2.4462 H   0  0  0  0  0  0  0  0  0  0  0  0
   -2.1443   -1.1700    1.1763 H   0  0  0  0  0  0  0  0  0  0  0  0
   -1.2503   -0.2847    2.4214 H   0  0  0  0  0  0  0  0  0  0  0  0
  1  2  1  0
  1  4  1  0
  2  3  2  0
  2 13  1  0
  5  6  2  3
  5 10  1  0
  5 11  1  0
  6  7  1  0
  6 12  1  0
  7  8  1  0
  7  9  1  0
  8 14  1  0
  8 15  1  0
  8 16  1  0
  9 17  1  0
  9 18  1  0
  9 19  1  0
M  RAD  1   7   2
M  END
>  <reaction>  (11) 
rxn_1122

>  <mol_properties>  (11) 
{"0": {"label": "*4", "atom_type": "S2s"}, "1": {"label": "*3", "atom_type": "CS"}, "5": {"label": "*0", "atom_type": "Cd"}, "6": {"label": "*1", "atom_type": "Cs"}, "12": {"label": "*2", "atom_type": "H0"}}

>  <type>  (11) 
unop_7

>  <geom_source>  (11) 
Heuristics

$$$$

     RDKit          3D

 19 17  0  0  0  0  0  0  0  0999 V2000
   -1.5387    1.3742   -0.9680 S   0  0  0  0  0  0  0  0  0  0  0  0
    0.0837    0.9031   -0.6200 C   0  0  0  0  0  0  0  0  0  0  0  0
    1.3658    1.8337   -0.3237 S   0  0  0  0  0  0  0  0  0  0  0  0
   -1.3328    2.6993   -0.9012 H   0  0  0  0  0  0  0  0  0  0  0  0
    0.0837   -2.4270   -1.2576 C   0  0  0  0  0  0  0  0  0  0  0  0
    0.0837   -2.4270    0.0659 C   0  0  0  0  0  0  0  0  0  0  0  0
    0.0837   -1.2056    0.9379 C   0  0  0  0  0  3  0  0  0  0  0  0
    1.3430   -1.1652    1.8056 C   0  0  0  0  0  0  0  0  0  0  0  0
   -1.1756   -1.1652    1.8056 C   0  0  0  0  0  0  0  0  0  0  0  0
    0.0837   -3.3487   -1.8259 H   0  0  0  0  0  0  0  0  0  0  0  0
    0.0837   -1.5004   -1.8222 H   0  0  0  0  0  0  0  0  0  0  0  0
    0.0837   -3.3783    0.5964 H   0  0  0  0  0  0  0  0  0  0  0  0
    0.0837   -0.1492    0.1575 H   0  0  0  0  0  0  0  0  0  0  0  0
    2.2446   -1.1593    1.1914 H   0  0  0  0  0  0  0  0  0  0  0  0
    1.3876   -2.0390    2.4614 H   0  0  0  0  0  0  0  0  0  0  0  0
    1.3505   -0.2740    2.4366 H   0  0  0  0  0  0  0  0  0  0  0  0
   -1.2202   -2.0390    2.4614 H   0  0  0  0  0  0  0  0  0  0  0  0
   -2.0771   -1.1593    1.1914 H   0  0  0  0  0  0  0  0  0  0  0  0
   -1.1831   -0.2740    2.4366 H   0  0  0  0  0  0  0  0  0  0  0  0
  1  2  1  0
  1  4  1  0
  2  3  2  0
  2 13  1  0
  5  6  2  3
  5 10  1  0
  5 11  1  0
  6  7  1  0
  6 12  1  0
  7  8  1  0
  7  9  1  0
  8 14  1  0
  8 15  1  0
  8 16  1  0
  9 17  1  0
  9 18  1  0
  9 19  1  0
M  RAD  1   7   2
M  END
>  <reaction>  (12) 
rxn_1122

>  <mol_properties>  (12) 
{"0": {"label": "*4", "atom_type": "S2s"}, "1": {"label": "*3", "atom_type": "CS"}, "5": {"label": "*0", "atom_type": "Cd"}, "6": {"label": "*1", "atom_type": "Cs"}, "12": {"label": "*2", "atom_type": "H0"}}

>  <type>  (12) 
unop_8

>  <geom_source>  (12) 
Heuristics

$$$$

     RDKit          3D

 19 17  0  0  0  0  0  0  0  0999 V2000
    0.7016    0.6162   -1.9163 S   0  0  0  0  0  0  0  0  0  0  0  0
   -0.1096    0.9800   -0.4381 C   0  0  0  0  0  0  0  0  0  0  0  0
   -0.4492    2.4198    0.2016 S   0  0  0  0  0  0  0  0  0  0  0  0
    0.9191    1.8873   -2.2903 H   0  0  0  0  0  0  0  0  0  0  0  0
   -0.1096   -2.3501   -1.0758 C   0  0  0  0  0  0  0  0  0  0  0  0
   -0.1096   -2.3501    0.2477 C   0  0  0  0  0  0  0  0  0  0  0  0
   -0.1096   -1.1287    1.1197 C   0  0  0  0  0  3  0  0  0  0  0  0
    1.1497   -1.0883    1.9874 C   0  0  0  0  0  0  0  0  0  0  0  0
   -1.3689   -1.0883    1.9874 C   0  0  0  0  0  0  0  0  0  0  0  0
   -0.1096   -3.2718   -1.6441 H   0  0  0  0  0  0  0  0  0  0  0  0
   -0.1096   -1.4235   -1.6404 H   0  0  0  0  0  0  0  0  0  0  0  0
   -0.1096   -3.3014    0.7782 H   0  0  0  0  0  0  0  0  0  0  0  0
   -0.1096   -0.0723    0.3393 H   0  0  0  0  0  0  0  0  0  0  0  0
    2.0512   -1.0824    1.3732 H   0  0  0  0  0  0  0  0  0  0  0  0
    1.1943   -1.9621    2.6432 H   0  0  0  0  0  0  0  0  0  0  0  0
    1.1572   -0.1971    2.6184 H   0  0  0  0  0  0  0  0  0  0  0  0
   -1.4135   -1.9621    2.6432 H   0  0  0  0  0  0  0  0  0  0  0  0
   -2.2705   -1.0824    1.3732 H   0  0  0  0  0  0  0  0  0  0  0  0
   -1.3765   -0.1971    2.6184 H   0  0  0  0  0  0  0  0  0  0  0  0
  1  2  1  0
  1  4  1  0
  2  3  2  0
  2 13  1  0
  5  6  2  3
  5 10  1  0
  5 11  1  0
  6  7  1  0
  6 12  1  0
  7  8  1  0
  7  9  1  0
  8 14  1  0
  8 15  1  0
  8 16  1  0
  9 17  1  0
  9 18  1  0
  9 19  1  0
M  RAD  1   7   2
M  END
>  <reaction>  (13) 
rxn_1122

>  <mol_properties>  (13) 
{"0": {"label": "*4", "atom_type": "S2s"}, "1": {"label": "*3", "atom_type": "CS"}, "5": {"label": "*0", "atom_type": "Cd"}, "6": {"label": "*1", "atom_type": "Cs"}, "12": {"label": "*2", "atom_type": "H0"}}

>  <type>  (13) 
unop_9

>  <geom_source>  (13) 
Heuristics

$$$$

     RDKit          3D

 19 17  0  0  0  0  0  0  0  0999 V2000
   -1.2646    0.9284   -1.5382 S   0  0  0  0  0  0  0  0  0  0  0  0
    0.1405    0.9393   -0.5377 C   0  0  0  0  0  0  0  0  0  0  0  0
    0.9483    2.2003    0.0580 S   0  0  0  0  0  0  0  0  0  0  0  0
   -1.4078    2.2610   -1.6184 H   0  0  0  0  0  0  0  0  0  0  0  0
    0.1405   -2.3908   -1.1754 C   0  0  0  0  0  0  0  0  0  0  0  0
    0.1405   -2.3908    0.1481 C   0  0  0  0  0  0  0  0  0  0  0  0
    0.1405   -1.1694    1.0201 C   0  0  0  0  0  3  0  0  0  0  0  0
    1.3998   -1.1290    1.8878 C   0  0  0  0  0  0  0  0  0  0  0  0
   -1.1188   -1.1290    1.8878 C   0  0  0  0  0  0  0  0  0  0  0  0
    0.1405   -3.3125   -1.7437 H   0  0  0  0  0  0  0  0  0  0  0  0
    0.1405   -1.4642   -1.7400 H   0  0  0  0  0  0  0  0  0  0  0  0
    0.1405   -3.3421    0.6787 H   0  0  0  0  0  0  0  0  0  0  0  0
    0.1405   -0.1130    0.2397 H   0  0  0  0  0  0  0  0  0  0  0  0
    2.3013   -1.1231    1.2736 H   0  0  0  0  0  0  0  0  0  0  0  0
    1.4444   -2.0028    2.5436 H   0  0  0  0  0  0  0  0  0  0  0  0
    1.4073   -0.2378    2.5188 H   0  0  0  0  0  0  0  0  0  0  0  0
   -1.1634   -2.0028    2.5436 H   0  0  0  0  0  0  0  0  0  0  0  0
   -2.0204   -1.1231    1.2736 H   0  0  0  0  0  0  0  0  0  0  0  0
   -1.1264   -0.2378    2.5188 H   0  0  0  0  0  0  0  0  0  0  0  0
  1  2  1  0
  1  4  1  0
  2  3  2  0
  2 13  1  0
  5  6  2  3
  5 10  1  0
  5 11  1  0
  6  7  1  0
  6 12  1  0
  7  8  1  0
  7  9  1  0
  8 14  1  0
  8 15  1  0
  8 16  1  0
  9 17  1  0
  9 18  1  0
  9 19  1  0
M  RAD  1   7   2
M  END
>  <reaction>  (14) 
rxn_1122

>  <mol_properties>  (14) 
{"0": {"label": "*4", "atom_type": "S2s"}, "1": {"label": "*3", "atom_type": "CS"}, "5": {"label": "*0", "atom_type": "Cd"}, "6": {"label": "*1", "atom_type": "Cs"}, "12": {"label": "*2", "atom_type": "H0"}}

>  <type>  (14) 
unop_10

>  <geom_source>  (14) 
Heuristics

$$$$

     RDKit          3D

 19 17  0  0  0  0  0  0  0  0999 V2000
    0.8894    2.2148    0.2172 S   0  0  0  0  0  0  0  0  0  0  0  0
    0.0782    0.9089   -0.5649 C   0  0  0  0  0  0  0  0  0  0  0  0
   -1.0972    0.9625   -1.6663 S   0  0  0  0  0  0  0  0  0  0  0  0
    0.2185    3.2031   -0.3959 H   0  0  0  0  0  0  0  0  0  0  0  0
    0.0782   -2.4213   -1.2025 C   0  0  0  0  0  0  0  0  0  0  0  0
    0.0782   -2.4213    0.1210 C   0  0  0  0  0  0  0  0  0  0  0  0
    0.0782   -1.1999    0.9930 C   0  0  0  0  0  3  0  0  0  0  0  0
    1.3375   -1.1594    1.8607 C   0  0  0  0  0  0  0  0  0  0  0  0
   -1.1811   -1.1594    1.8607 C   0  0  0  0  0  0  0  0  0  0  0  0
    0.0782   -3.3430   -1.7708 H   0  0  0  0  0  0  0  0  0  0  0  0
    0.0782   -1.4947   -1.7671 H   0  0  0  0  0  0  0  0  0  0  0  0
    0.0782   -3.3726    0.6515 H   0  0  0  0  0  0  0  0  0  0  0  0
    0.0782   -0.1435    0.2126 H   0  0  0  0  0  0  0  0  0  0  0  0
    2.2391   -1.1536    1.2465 H   0  0  0  0  0  0  0  0  0  0  0  0
    1.3821   -2.0333    2.5165 H   0  0  0  0  0  0  0  0  0  0  0  0
    1.3451   -0.2682    2.4917 H   0  0  0  0  0  0  0  0  0  0  0  0
   -1.2257   -2.0333    2.5165 H   0  0  0  0  0  0  0  0  0  0  0  0
   -2.0826   -1.1536    1.2465 H   0  0  0  0  0  0  0  0  0  0  0  0
   -1.1886   -0.2682    2.4917 H   0  0  0  0  0  0  0  0  0  0  0  0
  1  2  1  0
  1  4  1  0
  2  3  2  0
  2 13  1  0
  5  6  2  3
  5 10  1  0
  5 11  1  0
  6  7  1  0
  6 12  1  0
  7  8  1  0
  7  9  1  0
  8 14  1  0
  8 15  1  0
  8 16  1  0
  9 17  1  0
  9 18  1  0
  9 19  1  0
M  RAD  1   7   2
M  END
>  <reaction>  (15) 
rxn_1122

>  <mol_properties>  (15) 
{"0": {"label": "*4", "atom_type": "S2s"}, "1": {"label": "*3", "atom_type": "CS"}, "5": {"label": "*0", "atom_type": "Cd"}, "6": {"label": "*1", "atom_type": "Cs"}, "12": {"label": "*2", "atom_type": "H0"}}

>  <type>  (15) 
unop_11

>  <geom_source>  (15) 
Heuristics

$$$$

     RDKit          3D

 19 17  0  0  0  0  0  0  0  0999 V2000
    0.0000    0.5051   -2.0445 S   0  0  0  0  0  0  0  0  0  0  0  0
    0.0000    0.9980   -0.3916 C   0  0  0  0  0  0  0  0  0  0  0  0
    0.0000    2.4895    0.2192 S   0  0  0  0  0  0  0  0  0  0  0  0
    0.0000    1.7389   -2.5740 H   0  0  0  0  0  0  0  0  0  0  0  0
   -0.0000   -2.3321   -1.0292 C   0  0  0  0  0  0  0  0  0  0  0  0
   -0.0000   -2.3321    0.2943 C   0  0  0  0  0  0  0  0  0  0  0  0
   -0.0000   -1.1107    1.1663 C   0  0  0  0  0  3  0  0  0  0  0  0
    1.2593   -1.0703    2.0340 C   0  0  0  0  0  0  0  0  0  0  0  0
   -1.2593   -1.0703    2.0340 C   0  0  0  0  0  0  0  0  0  0  0  0
   -0.0000   -3.2538   -1.5975 H   0  0  0  0  0  0  0  0  0  0  0  0
   -0.0000   -1.4055   -1.5938 H   0  0  0  0  0  0  0  0  0  0  0  0
   -0.0000   -3.2834    0.8248 H   0  0  0  0  0  0  0  0  0  0  0  0
   -0.0000   -0.0543    0.3859 H   0  0  0  0  0  0  0  0  0  0  0  0
    2.1609   -1.0644    1.4198 H   0  0  0  0  0  0  0  0  0  0  0  0
    1.3039   -1.9441    2.6898 H   0  0  0  0  0  0  0  0  0  0  0  0
    1.2668   -0.1791    2.6650 H   0  0  0  0  0  0  0  0  0  0  0  0
   -1.3039   -1.9441    2.6898 H   0  0  0  0  0  0  0  0  0  0  0  0
   -2.1609   -1.0644    1.4198 H   0  0  0  0  0  0  0  0  0  0  0  0
   -1.2668   -0.1791    2.6650 H   0  0  0  0  0  0  0  0  0  0  0  0
  1  2  1  0
  1  4  1  0
  2  3  2  0
  2 13  1  0
  5  6  2  3
  5 10  1  0
  5 11  1  0
  6  7  1  0
  6 12  1  0
  7  8  1  0
  7  9  1  0
  8 14  1  0
  8 15  1  0
  8 16  1  0
  9 17  1  0
  9 18  1  0
  9 19  1  0
M  RAD  1   7   2
M  END
>  <reaction>  (16) 
rxn_1122

>  <mol_properties>  (16) 
{"0": {"label": "*4", "atom_type": "S2s"}, "1": {"label": "*3", "atom_type": "CS"}, "5": {"label": "*0", "atom_type": "Cd"}, "6": {"label": "*1", "atom_type": "Cs"}, "12": {"label": "*2", "atom_type": "H0"}}

>  <type>  (16) 
unop_12

>  <geom_source>  (16) 
Heuristics

$$$$

     RDKit          3D

 19 17  0  0  0  0  0  0  0  0999 V2000
    2.6912    1.1557   -1.4328 S   0  0  0  0  0  0  0  0  0  0  0  0
    3.2806   -1.4676   -0.6620 S   0  0  0  0  0  0  0  0  0  0  0  0
    0.1332    0.2897    1.4058 C   0  0  0  0  0  0  0  0  0  0  0  0
   -0.9031   -1.6046    0.0681 C   0  0  0  0  0  0  0  0  0  0  0  0
   -0.2001   -0.2471    0.0126 C   0  0  0  0  0  3  0  0  0  0  0  0
   -0.9562    0.7560   -0.8221 C   0  0  0  0  0  0  0  0  0  0  0  0
   -2.1774    1.1940   -0.4962 C   0  0  0  0  0  0  0  0  0  0  0  0
    2.2944   -0.4283   -0.7014 C   0  0  0  0  0  0  0  0  0  0  0  0
    0.7945   -0.4275    1.9359 H   0  0  0  0  0  0  0  0  0  0  0  0
    0.6700    1.2580    1.3193 H   0  0  0  0  0  0  0  0  0  0  0  0
   -0.7906    0.4376    2.0047 H   0  0  0  0  0  0  0  0  0  0  0  0
   -1.8668   -1.5295    0.6155 H   0  0  0  0  0  0  0  0  0  0  0  0
   -1.0972   -1.9721   -0.9618 H   0  0  0  0  0  0  0  0  0  0  0  0
   -0.2534   -2.3429    0.5833 H   0  0  0  0  0  0  0  0  0  0  0  0
   -0.4831    1.1333   -1.7228 H   0  0  0  0  0  0  0  0  0  0  0  0
   -2.6823    0.8395    0.3968 H   0  0  0  0  0  0  0  0  0  0  0  0
   -2.6807    1.9168   -1.1299 H   0  0  0  0  0  0  0  0  0  0  0  0
    1.1036   -0.6407   -0.2132 H   0  0  0  0  0  0  0  0  0  0  0  0
    3.1234    1.6797   -0.1999 H   0  0  0  0  0  0  0  0  0  0  0  0
  1  8  1  0
  1 19  1  0
  2  8  2  0
  3  5  1  0
  3  9  1  0
  3 10  1  0
  3 11  1  0
  4  5  1  0
  4 12  1  0
  4 13  1  0
  4 14  1  0
  5  6  1  0
  6  7  2  3
  6 15  1  0
  7 16  1  0
  7 17  1  0
  8 18  1  0
M  RAD  1   5   2
M  END
>  <reaction>  (17) 
rxn_1122

>  <mol_properties>  (17) 
{"0": {"label": "*4", "atom_type": "S2s"}, "1": {"label": "*3", "atom_type": "CS"}, "5": {"label": "*0", "atom_type": "Cd"}, "6": {"label": "*1", "atom_type": "Cs"}, "12": {"label": "*2", "atom_type": "H0"}}

>  <type>  (17) 
unop_13

>  <geom_source>  (17) 
AutoTST

$$$$
