
     RDKit          3D

  7  6  0  0  0  0  0  0  0  0999 V2000
    1.3572   -0.1671    1.3611 O   0  0  0  0  0  0  0  0  0  0  0  0
    0.9236    0.0526    0.2798 C   0  0  0  0  0  0  0  0  0  0  0  0
   -0.5771   -0.0341   -0.0851 C   0  0  0  0  0  0  0  0  0  0  0  0
   -1.0319    1.5740   -0.6898 Cl  0  0  0  0  0  0  0  0  0  0  0  0
   -1.5652   -0.4943    1.2822 Cl  0  0  0  0  0  0  0  0  0  0  0  0
   -0.6988   -1.2311   -1.3932 Cl  0  0  0  0  0  0  0  0  0  0  0  0
    1.5409    0.3436   -0.5884 H   0  0  0  0  0  0  0  0  0  0  0  0
  1  2  2  0
  2  3  1  0
  2  7  1  0
  3  4  1  0
  3  5  1  0
  3  6  1  0
M  END
>  <reaction>  (1) 
rxn_3201

>  <mol_properties>  (1) 
{"1": {"label": "donator", "atom_type": "CO"}, "6": {"label": "d_hydrogen", "atom_type": "H0"}}

>  <type>  (1) 
r1h

$$$$

     RDKit          3D

  6  6  0  0  0  0  0  0  0  0999 V2000
    1.9594    0.0134   -0.3734 N   0  0  0  0  0  2  0  0  0  0  0  0
    0.7437    0.0051   -0.0788 C   0  0  0  0  0  0  0  0  0  0  0  0
   -0.0745    1.0868    0.0233 O   0  0  0  0  0  0  0  0  0  0  0  0
   -1.3223    0.5972    0.3682 N   0  0  0  0  0  0  0  0  0  0  0  0
   -1.2899   -0.6150    0.4676 N   0  0  0  0  0  0  0  0  0  0  0  0
   -0.0165   -1.0874    0.2015 O   0  0  0  0  0  0  0  0  0  0  0  0
  1  2  2  0
  2  3  1  0
  2  6  1  0
  3  4  1  0
  4  5  2  0
  5  6  1  0
M  RAD  1   1   2
M  END
>  <reaction>  (2) 
rxn_3201

>  <mol_properties>  (2) 
{"0": {"label": "acceptor", "atom_type": "N3d"}}

>  <type>  (2) 
r2

$$$$

     RDKit          3D

  7  7  0  0  0  0  0  0  0  0999 V2000
    1.6064   -0.4313    0.1905 N   0  0  0  0  0  0  0  0  0  0  0  0
    0.3982   -0.1725    0.0701 C   0  0  0  0  0  0  0  0  0  0  0  0
   -0.6051   -1.0481    0.3497 O   0  0  0  0  0  0  0  0  0  0  0  0
   -1.7906   -0.4044    0.0958 N   0  0  0  0  0  0  0  0  0  0  0  0
   -1.5819    0.7348   -0.2956 N   0  0  0  0  0  0  0  0  0  0  0  0
   -0.2229    0.9708   -0.3436 O   0  0  0  0  0  0  0  0  0  0  0  0
    2.1958    0.3506   -0.0669 H   0  0  0  0  0  0  0  0  0  0  0  0
  1  2  2  3
  1  7  1  0
  2  3  1  0
  2  6  1  0
  3  4  1  0
  4  5  2  0
  5  6  1  0
M  END
>  <reaction>  (3) 
rxn_3201

>  <mol_properties>  (3) 
{"0": {"label": "acceptor", "atom_type": "N3d"}, "6": {"label": "a_hydrogen", "atom_type": "H0"}}

>  <type>  (3) 
r2h

$$$$

     RDKit          3D

 13 12  0  0  0  0  0  0  0  0999 V2000
   -1.0476   -1.6405    0.6661 N   0  0  0  0  0  2  0  0  0  0  0  0
   -0.3211   -2.4938    0.1147 C   0  0  0  0  0  0  0  0  0  0  0  0
   -0.2595   -3.8098    0.4649 O   0  0  0  0  0  0  0  0  0  0  0  0
    0.6524   -4.4062   -0.3786 N   0  0  0  0  0  0  0  0  0  0  0  0
    1.1096   -3.5882   -1.1586 N   0  0  0  0  0  0  0  0  0  0  0  0
    0.5521   -2.3458   -0.9231 O   0  0  0  0  0  0  0  0  0  0  0  0
   -0.9796    0.7167   -1.7833 O   0  0  0  0  0  0  0  0  0  0  0  0
   -0.6106    0.5843   -0.6766 C   0  0  0  0  0  0  0  0  0  0  0  0
    0.2178    1.6172    0.1345 C   0  0  0  0  0  0  0  0  0  0  0  0
   -0.7382    1.9955    1.5734 Cl  0  0  0  0  0  0  0  0  0  0  0  0
    0.5507    3.0651   -0.8008 Cl  0  0  0  0  0  0  0  0  0  0  0  0
    1.7240    0.7965    0.5813 Cl  0  0  0  0  0  0  0  0  0  0  0  0
   -0.8502   -0.4324    0.0103 H   0  0  0  0  0  0  0  0  0  0  0  0
  1  2  2  0
  2  3  1  0
  2  6  1  0
  3  4  1  0
  4  5  2  0
  5  6  1  0
  7  8  2  0
  8  9  1  0
  8 13  1  0
  9 10  1  0
  9 11  1  0
  9 12  1  0
M  RAD  1   1   2
M  END
>  <reaction>  (4) 
rxn_3201

>  <mol_properties>  (4) 
{"0": {"label": "*3", "atom_type": "N3d"}, "1": {"label": "*4", "atom_type": "Cd"}, "6": {"label": "*0", "atom_type": "O2d"}, "7": {"label": "*1", "atom_type": "CO"}, "12": {"label": "*2", "atom_type": "H0"}}

>  <type>  (4) 
ts

$$$$

     RDKit          3D

 13 12  0  0  0  0  0  0  0  0999 V2000
   -0.5931   -2.1082   -0.0851 N   0  0  0  0  0  0  0  0  0  0  0  0
    0.4010   -2.1772    0.6553 C   0  0  0  0  0  0  0  0  0  0  0  0
    0.3608   -2.5665    1.9585 O   0  0  0  0  0  0  0  0  0  0  0  0
    1.6457   -2.5156    2.4390 N   0  0  0  0  0  0  0  0  0  0  0  0
    2.4137   -2.1434    1.5639 N   0  0  0  0  0  0  0  0  0  0  0  0
    1.7140   -1.9053    0.3983 O   0  0  0  0  0  0  0  0  0  0  0  0
   -0.5931   -0.0062   -2.6967 O   0  0  0  0  0  0  0  0  0  0  0  0
   -0.5931   -0.0062   -1.5112 C   0  0  0  0  0  3  0  0  0  0  0  0
   -0.5931    1.2758   -0.6456 C   0  0  0  0  0  0  0  0  0  0  0  0
   -2.0487    1.1856    0.3703 Cl  0  0  0  0  0  0  0  0  0  0  0  0
   -0.5931    2.7300   -1.6165 Cl  0  0  0  0  0  0  0  0  0  0  0  0
    0.8625    1.1857    0.3703 Cl  0  0  0  0  0  0  0  0  0  0  0  0
   -0.5931   -1.1028   -0.7672 H   0  0  0  0  0  0  0  0  0  0  0  0
  1  2  2  3
  1 13  1  0
  2  3  1  0
  2  6  1  0
  3  4  1  0
  4  5  2  0
  5  6  1  0
  7  8  2  0
  8  9  1  0
  9 10  1  0
  9 11  1  0
  9 12  1  0
M  RAD  1   8   2
M  END
>  <reaction>  (5) 
rxn_3201

>  <mol_properties>  (5) 
{"0": {"label": "*3", "atom_type": "N3d"}, "1": {"label": "*4", "atom_type": "Cd"}, "6": {"label": "*0", "atom_type": "O2d"}, "7": {"label": "*1", "atom_type": "CO"}, "12": {"label": "*2", "atom_type": "H0"}}

>  <type>  (5) 
unop_1

>  <geom_source>  (5) 
Heuristics

$$$$

     RDKit          3D

 13 12  0  0  0  0  0  0  0  0999 V2000
   -0.3509   -1.5701    0.7011 N   0  0  0  0  0  0  0  0  0  0  0  0
    0.2231   -2.5196    0.1440 C   0  0  0  0  0  0  0  0  0  0  0  0
    0.6919   -3.6197    0.7931 O   0  0  0  0  0  0  0  0  0  0  0  0
    1.2578   -4.4399   -0.1509 N   0  0  0  0  0  0  0  0  0  0  0  0
    1.1672   -3.9375   -1.2617 N   0  0  0  0  0  0  0  0  0  0  0  0
    0.5254   -2.7188   -1.1724 O   0  0  0  0  0  0  0  0  0  0  0  0
   -0.3509    0.5318   -1.9105 O   0  0  0  0  0  0  0  0  0  0  0  0
   -0.3509    0.5318   -0.7250 C   0  0  0  0  0  3  0  0  0  0  0  0
   -0.3509    1.8138    0.1407 C   0  0  0  0  0  0  0  0  0  0  0  0
   -1.8064    1.7237    1.1565 Cl  0  0  0  0  0  0  0  0  0  0  0  0
   -0.3509    3.2681   -0.8303 Cl  0  0  0  0  0  0  0  0  0  0  0  0
    1.1047    1.7237    1.1565 Cl  0  0  0  0  0  0  0  0  0  0  0  0
   -0.3509   -0.5648    0.0190 H   0  0  0  0  0  0  0  0  0  0  0  0
  1  2  2  3
  1 13  1  0
  2  3  1  0
  2  6  1  0
  3  4  1  0
  4  5  2  0
  5  6  1  0
  7  8  2  0
  8  9  1  0
  9 10  1  0
  9 11  1  0
  9 12  1  0
M  RAD  1   8   2
M  END
>  <reaction>  (6) 
rxn_3201

>  <mol_properties>  (6) 
{"0": {"label": "*3", "atom_type": "N3d"}, "1": {"label": "*4", "atom_type": "Cd"}, "6": {"label": "*0", "atom_type": "O2d"}, "7": {"label": "*1", "atom_type": "CO"}, "12": {"label": "*2", "atom_type": "H0"}}

>  <type>  (6) 
unop_2

>  <geom_source>  (6) 
Heuristics

$$$$

     RDKit          3D

 13 12  0  0  0  0  0  0  0  0999 V2000
   -0.3369   -2.2449   -0.2902 N   0  0  0  0  0  0  0  0  0  0  0  0
    0.2371   -2.0781    0.7979 C   0  0  0  0  0  0  0  0  0  0  0  0
   -0.1086   -2.7106    1.9520 O   0  0  0  0  0  0  0  0  0  0  0  0
    0.7485   -2.2713    2.9301 N   0  0  0  0  0  0  0  0  0  0  0  0
    1.5419   -1.4631    2.4702 N   0  0  0  0  0  0  0  0  0  0  0  0
    1.2938   -1.2780    1.1252 O   0  0  0  0  0  0  0  0  0  0  0  0
   -0.3369   -0.1429   -2.9018 O   0  0  0  0  0  0  0  0  0  0  0  0
   -0.3369   -0.1429   -1.7164 C   0  0  0  0  0  3  0  0  0  0  0  0
   -0.3369    1.1390   -0.8507 C   0  0  0  0  0  0  0  0  0  0  0  0
   -1.7925    1.0489    0.1652 Cl  0  0  0  0  0  0  0  0  0  0  0  0
   -0.3369    2.5933   -1.8217 Cl  0  0  0  0  0  0  0  0  0  0  0  0
    1.1187    1.0489    0.1652 Cl  0  0  0  0  0  0  0  0  0  0  0  0
   -0.3369   -1.2395   -0.9724 H   0  0  0  0  0  0  0  0  0  0  0  0
  1  2  2  3
  1 13  1  0
  2  3  1  0
  2  6  1  0
  3  4  1  0
  4  5  2  0
  5  6  1  0
  7  8  2  0
  8  9  1  0
  9 10  1  0
  9 11  1  0
  9 12  1  0
M  RAD  1   8   2
M  END
>  <reaction>  (7) 
rxn_3201

>  <mol_properties>  (7) 
{"0": {"label": "*3", "atom_type": "N3d"}, "1": {"label": "*4", "atom_type": "Cd"}, "6": {"label": "*0", "atom_type": "O2d"}, "7": {"label": "*1", "atom_type": "CO"}, "12": {"label": "*2", "atom_type": "H0"}}

>  <type>  (7) 
unop_3

>  <geom_source>  (7) 
Heuristics

$$$$

     RDKit          3D

 13 12  0  0  0  0  0  0  0  0999 V2000
    0.6043   -1.7169    0.4883 N   0  0  0  0  0  0  0  0  0  0  0  0
   -0.3898   -2.4304    0.2788 C   0  0  0  0  0  0  0  0  0  0  0  0
   -1.0035   -3.1881    1.2280 O   0  0  0  0  0  0  0  0  0  0  0  0
   -2.0547   -3.8292    0.6210 N   0  0  0  0  0  0  0  0  0  0  0  0
   -2.1129   -3.5267   -0.5619 N   0  0  0  0  0  0  0  0  0  0  0  0
   -1.0970   -2.6443   -0.8692 O   0  0  0  0  0  0  0  0  0  0  0  0
    0.6043    0.3851   -2.1233 O   0  0  0  0  0  0  0  0  0  0  0  0
    0.6043    0.3851   -0.9378 C   0  0  0  0  0  3  0  0  0  0  0  0
    0.6043    1.6670   -0.0722 C   0  0  0  0  0  0  0  0  0  0  0  0
   -0.8513    1.5769    0.9437 Cl  0  0  0  0  0  0  0  0  0  0  0  0
    0.6043    3.1213   -1.0431 Cl  0  0  0  0  0  0  0  0  0  0  0  0
    2.0599    1.5769    0.9437 Cl  0  0  0  0  0  0  0  0  0  0  0  0
    0.6043   -0.7115   -0.1938 H   0  0  0  0  0  0  0  0  0  0  0  0
  1  2  2  3
  1 13  1  0
  2  3  1  0
  2  6  1  0
  3  4  1  0
  4  5  2  0
  5  6  1  0
  7  8  2  0
  8  9  1  0
  9 10  1  0
  9 11  1  0
  9 12  1  0
M  RAD  1   8   2
M  END
>  <reaction>  (8) 
rxn_3201

>  <mol_properties>  (8) 
{"0": {"label": "*3", "atom_type": "N3d"}, "1": {"label": "*4", "atom_type": "Cd"}, "6": {"label": "*0", "atom_type": "O2d"}, "7": {"label": "*1", "atom_type": "CO"}, "12": {"label": "*2", "atom_type": "H0"}}

>  <type>  (8) 
unop_4

>  <geom_source>  (8) 
Heuristics

$$$$

     RDKit          3D

 13 12  0  0  0  0  0  0  0  0999 V2000
   -0.0000   -2.2911   -0.3633 N   0  0  0  0  0  0  0  0  0  0  0  0
   -0.0000   -2.0379    0.8521 C   0  0  0  0  0  0  0  0  0  0  0  0
    0.0000   -2.9821    1.8320 O   0  0  0  0  0  0  0  0  0  0  0  0
    0.0000   -2.3211    3.0351 N   0  0  0  0  0  0  0  0  0  0  0  0
    0.0000   -1.1117    2.8570 N   0  0  0  0  0  0  0  0  0  0  0  0
    0.0000   -0.8385    1.5041 O   0  0  0  0  0  0  0  0  0  0  0  0
    0.0000   -0.1891   -2.9749 O   0  0  0  0  0  0  0  0  0  0  0  0
    0.0000   -0.1891   -1.7894 C   0  0  0  0  0  3  0  0  0  0  0  0
    0.0000    1.0928   -0.9238 C   0  0  0  0  0  0  0  0  0  0  0  0
   -1.4556    1.0027    0.0921 Cl  0  0  0  0  0  0  0  0  0  0  0  0
   -0.0000    2.5471   -1.8947 Cl  0  0  0  0  0  0  0  0  0  0  0  0
    1.4556    1.0027    0.0921 Cl  0  0  0  0  0  0  0  0  0  0  0  0
    0.0000   -1.2858   -1.0454 H   0  0  0  0  0  0  0  0  0  0  0  0
  1  2  2  3
  1 13  1  0
  2  3  1  0
  2  6  1  0
  3  4  1  0
  4  5  2  0
  5  6  1  0
  7  8  2  0
  8  9  1  0
  9 10  1  0
  9 11  1  0
  9 12  1  0
M  RAD  1   8   2
M  END
>  <reaction>  (9) 
rxn_3201

>  <mol_properties>  (9) 
{"0": {"label": "*3", "atom_type": "N3d"}, "1": {"label": "*4", "atom_type": "Cd"}, "6": {"label": "*0", "atom_type": "O2d"}, "7": {"label": "*1", "atom_type": "CO"}, "12": {"label": "*2", "atom_type": "H0"}}

>  <type>  (9) 
unop_5

>  <geom_source>  (9) 
Heuristics

$$$$

     RDKit          3D

 13 12  0  0  0  0  0  0  0  0999 V2000
    0.6923   -1.9144    0.2000 N   0  0  0  0  0  0  0  0  0  0  0  0
   -0.4556   -2.3057    0.4655 C   0  0  0  0  0  0  0  0  0  0  0  0
   -0.8447   -2.7702    1.6838 O   0  0  0  0  0  0  0  0  0  0  0  0
   -2.1727   -3.1042    1.5877 N   0  0  0  0  0  0  0  0  0  0  0  0
   -2.5867   -2.8852    0.4586 N   0  0  0  0  0  0  0  0  0  0  0  0
   -1.5682   -2.3776   -0.3224 O   0  0  0  0  0  0  0  0  0  0  0  0
    0.6923    0.1876   -2.4116 O   0  0  0  0  0  0  0  0  0  0  0  0
    0.6923    0.1876   -1.2261 C   0  0  0  0  0  3  0  0  0  0  0  0
    0.6923    1.4695   -0.3605 C   0  0  0  0  0  0  0  0  0  0  0  0
   -0.7633    1.3794    0.6554 Cl  0  0  0  0  0  0  0  0  0  0  0  0
    0.6923    2.9238   -1.3314 Cl  0  0  0  0  0  0  0  0  0  0  0  0
    2.1479    1.3794    0.6554 Cl  0  0  0  0  0  0  0  0  0  0  0  0
    0.6923   -0.9090   -0.4821 H   0  0  0  0  0  0  0  0  0  0  0  0
  1  2  2  3
  1 13  1  0
  2  3  1  0
  2  6  1  0
  3  4  1  0
  4  5  2  0
  5  6  1  0
  7  8  2  0
  8  9  1  0
  9 10  1  0
  9 11  1  0
  9 12  1  0
M  RAD  1   8   2
M  END
>  <reaction>  (10) 
rxn_3201

>  <mol_properties>  (10) 
{"0": {"label": "*3", "atom_type": "N3d"}, "1": {"label": "*4", "atom_type": "Cd"}, "6": {"label": "*0", "atom_type": "O2d"}, "7": {"label": "*1", "atom_type": "CO"}, "12": {"label": "*2", "atom_type": "H0"}}

>  <type>  (10) 
unop_6

>  <geom_source>  (10) 
Heuristics

$$$$

     RDKit          3D

 13 12  0  0  0  0  0  0  0  0999 V2000
    0.5931   -2.1082   -0.0851 N   0  0  0  0  0  0  0  0  0  0  0  0
   -0.4010   -2.1772    0.6553 C   0  0  0  0  0  0  0  0  0  0  0  0
   -0.3608   -2.5665    1.9585 O   0  0  0  0  0  0  0  0  0  0  0  0
   -1.6457   -2.5156    2.4390 N   0  0  0  0  0  0  0  0  0  0  0  0
   -2.4137   -2.1434    1.5639 N   0  0  0  0  0  0  0  0  0  0  0  0
   -1.7140   -1.9053    0.3983 O   0  0  0  0  0  0  0  0  0  0  0  0
    0.5931   -0.0062   -2.6967 O   0  0  0  0  0  0  0  0  0  0  0  0
    0.5931   -0.0062   -1.5112 C   0  0  0  0  0  3  0  0  0  0  0  0
    0.5931    1.2758   -0.6456 C   0  0  0  0  0  0  0  0  0  0  0  0
   -0.8625    1.1856    0.3703 Cl  0  0  0  0  0  0  0  0  0  0  0  0
    0.5931    2.7300   -1.6165 Cl  0  0  0  0  0  0  0  0  0  0  0  0
    2.0487    1.1857    0.3703 Cl  0  0  0  0  0  0  0  0  0  0  0  0
    0.5931   -1.1028   -0.7672 H   0  0  0  0  0  0  0  0  0  0  0  0
  1  2  2  3
  1 13  1  0
  2  3  1  0
  2  6  1  0
  3  4  1  0
  4  5  2  0
  5  6  1  0
  7  8  2  0
  8  9  1  0
  9 10  1  0
  9 11  1  0
  9 12  1  0
M  RAD  1   8   2
M  END
>  <reaction>  (11) 
rxn_3201

>  <mol_properties>  (11) 
{"0": {"label": "*3", "atom_type": "N3d"}, "1": {"label": "*4", "atom_type": "Cd"}, "6": {"label": "*0", "atom_type": "O2d"}, "7": {"label": "*1", "atom_type": "CO"}, "12": {"label": "*2", "atom_type": "H0"}}

>  <type>  (11) 
unop_7

>  <geom_source>  (11) 
Heuristics

$$$$

     RDKit          3D

 13 12  0  0  0  0  0  0  0  0999 V2000
   -0.6923   -1.9144    0.2000 N   0  0  0  0  0  0  0  0  0  0  0  0
    0.4556   -2.3057    0.4655 C   0  0  0  0  0  0  0  0  0  0  0  0
    0.8447   -2.7702    1.6838 O   0  0  0  0  0  0  0  0  0  0  0  0
    2.1727   -3.1042    1.5877 N   0  0  0  0  0  0  0  0  0  0  0  0
    2.5867   -2.8852    0.4586 N   0  0  0  0  0  0  0  0  0  0  0  0
    1.5682   -2.3776   -0.3224 O   0  0  0  0  0  0  0  0  0  0  0  0
   -0.6923    0.1876   -2.4116 O   0  0  0  0  0  0  0  0  0  0  0  0
   -0.6923    0.1876   -1.2261 C   0  0  0  0  0  3  0  0  0  0  0  0
   -0.6923    1.4695   -0.3605 C   0  0  0  0  0  0  0  0  0  0  0  0
   -2.1479    1.3794    0.6554 Cl  0  0  0  0  0  0  0  0  0  0  0  0
   -0.6923    2.9238   -1.3314 Cl  0  0  0  0  0  0  0  0  0  0  0  0
    0.7633    1.3794    0.6554 Cl  0  0  0  0  0  0  0  0  0  0  0  0
   -0.6923   -0.9090   -0.4821 H   0  0  0  0  0  0  0  0  0  0  0  0
  1  2  2  3
  1 13  1  0
  2  3  1  0
  2  6  1  0
  3  4  1  0
  4  5  2  0
  5  6  1  0
  7  8  2  0
  8  9  1  0
  9 10  1  0
  9 11  1  0
  9 12  1  0
M  RAD  1   8   2
M  END
>  <reaction>  (12) 
rxn_3201

>  <mol_properties>  (12) 
{"0": {"label": "*3", "atom_type": "N3d"}, "1": {"label": "*4", "atom_type": "Cd"}, "6": {"label": "*0", "atom_type": "O2d"}, "7": {"label": "*1", "atom_type": "CO"}, "12": {"label": "*2", "atom_type": "H0"}}

>  <type>  (12) 
unop_8

>  <geom_source>  (12) 
Heuristics

$$$$

     RDKit          3D

 13 12  0  0  0  0  0  0  0  0999 V2000
    0.3509   -1.5701    0.7011 N   0  0  0  0  0  0  0  0  0  0  0  0
   -0.2231   -2.5196    0.1440 C   0  0  0  0  0  0  0  0  0  0  0  0
   -0.6919   -3.6197    0.7931 O   0  0  0  0  0  0  0  0  0  0  0  0
   -1.2578   -4.4399   -0.1509 N   0  0  0  0  0  0  0  0  0  0  0  0
   -1.1672   -3.9375   -1.2617 N   0  0  0  0  0  0  0  0  0  0  0  0
   -0.5254   -2.7188   -1.1724 O   0  0  0  0  0  0  0  0  0  0  0  0
    0.3509    0.5318   -1.9105 O   0  0  0  0  0  0  0  0  0  0  0  0
    0.3509    0.5318   -0.7250 C   0  0  0  0  0  3  0  0  0  0  0  0
    0.3509    1.8138    0.1407 C   0  0  0  0  0  0  0  0  0  0  0  0
   -1.1047    1.7237    1.1565 Cl  0  0  0  0  0  0  0  0  0  0  0  0
    0.3508    3.2681   -0.8303 Cl  0  0  0  0  0  0  0  0  0  0  0  0
    1.8064    1.7237    1.1565 Cl  0  0  0  0  0  0  0  0  0  0  0  0
    0.3509   -0.5648    0.0190 H   0  0  0  0  0  0  0  0  0  0  0  0
  1  2  2  3
  1 13  1  0
  2  3  1  0
  2  6  1  0
  3  4  1  0
  4  5  2  0
  5  6  1  0
  7  8  2  0
  8  9  1  0
  9 10  1  0
  9 11  1  0
  9 12  1  0
M  RAD  1   8   2
M  END
>  <reaction>  (13) 
rxn_3201

>  <mol_properties>  (13) 
{"0": {"label": "*3", "atom_type": "N3d"}, "1": {"label": "*4", "atom_type": "Cd"}, "6": {"label": "*0", "atom_type": "O2d"}, "7": {"label": "*1", "atom_type": "CO"}, "12": {"label": "*2", "atom_type": "H0"}}

>  <type>  (13) 
unop_9

>  <geom_source>  (13) 
Heuristics

$$$$

     RDKit          3D

 13 12  0  0  0  0  0  0  0  0999 V2000
   -0.6043   -1.7169    0.4883 N   0  0  0  0  0  0  0  0  0  0  0  0
    0.3898   -2.4304    0.2788 C   0  0  0  0  0  0  0  0  0  0  0  0
    1.0035   -3.1881    1.2280 O   0  0  0  0  0  0  0  0  0  0  0  0
    2.0547   -3.8292    0.6210 N   0  0  0  0  0  0  0  0  0  0  0  0
    2.1129   -3.5267   -0.5619 N   0  0  0  0  0  0  0  0  0  0  0  0
    1.0970   -2.6443   -0.8692 O   0  0  0  0  0  0  0  0  0  0  0  0
   -0.6043    0.3851   -2.1233 O   0  0  0  0  0  0  0  0  0  0  0  0
   -0.6043    0.3851   -0.9378 C   0  0  0  0  0  3  0  0  0  0  0  0
   -0.6043    1.6670   -0.0722 C   0  0  0  0  0  0  0  0  0  0  0  0
   -2.0599    1.5769    0.9437 Cl  0  0  0  0  0  0  0  0  0  0  0  0
   -0.6043    3.1213   -1.0431 Cl  0  0  0  0  0  0  0  0  0  0  0  0
    0.8513    1.5769    0.9437 Cl  0  0  0  0  0  0  0  0  0  0  0  0
   -0.6043   -0.7115   -0.1938 H   0  0  0  0  0  0  0  0  0  0  0  0
  1  2  2  3
  1 13  1  0
  2  3  1  0
  2  6  1  0
  3  4  1  0
  4  5  2  0
  5  6  1  0
  7  8  2  0
  8  9  1  0
  9 10  1  0
  9 11  1  0
  9 12  1  0
M  RAD  1   8   2
M  END
>  <reaction>  (14) 
rxn_3201

>  <mol_properties>  (14) 
{"0": {"label": "*3", "atom_type": "N3d"}, "1": {"label": "*4", "atom_type": "Cd"}, "6": {"label": "*0", "atom_type": "O2d"}, "7": {"label": "*1", "atom_type": "CO"}, "12": {"label": "*2", "atom_type": "H0"}}

>  <type>  (14) 
unop_10

>  <geom_source>  (14) 
Heuristics

$$$$

     RDKit          3D

 13 12  0  0  0  0  0  0  0  0999 V2000
    0.3369   -2.2449   -0.2902 N   0  0  0  0  0  0  0  0  0  0  0  0
   -0.2371   -2.0781    0.7979 C   0  0  0  0  0  0  0  0  0  0  0  0
    0.1086   -2.7106    1.9520 O   0  0  0  0  0  0  0  0  0  0  0  0
   -0.7485   -2.2713    2.9301 N   0  0  0  0  0  0  0  0  0  0  0  0
   -1.5419   -1.4631    2.4702 N   0  0  0  0  0  0  0  0  0  0  0  0
   -1.2938   -1.2780    1.1252 O   0  0  0  0  0  0  0  0  0  0  0  0
    0.3369   -0.1429   -2.9018 O   0  0  0  0  0  0  0  0  0  0  0  0
    0.3369   -0.1429   -1.7164 C   0  0  0  0  0  3  0  0  0  0  0  0
    0.3369    1.1390   -0.8507 C   0  0  0  0  0  0  0  0  0  0  0  0
   -1.1187    1.0489    0.1652 Cl  0  0  0  0  0  0  0  0  0  0  0  0
    0.3369    2.5933   -1.8217 Cl  0  0  0  0  0  0  0  0  0  0  0  0
    1.7925    1.0489    0.1652 Cl  0  0  0  0  0  0  0  0  0  0  0  0
    0.3369   -1.2395   -0.9724 H   0  0  0  0  0  0  0  0  0  0  0  0
  1  2  2  3
  1 13  1  0
  2  3  1  0
  2  6  1  0
  3  4  1  0
  4  5  2  0
  5  6  1  0
  7  8  2  0
  8  9  1  0
  9 10  1  0
  9 11  1  0
  9 12  1  0
M  RAD  1   8   2
M  END
>  <reaction>  (15) 
rxn_3201

>  <mol_properties>  (15) 
{"0": {"label": "*3", "atom_type": "N3d"}, "1": {"label": "*4", "atom_type": "Cd"}, "6": {"label": "*0", "atom_type": "O2d"}, "7": {"label": "*1", "atom_type": "CO"}, "12": {"label": "*2", "atom_type": "H0"}}

>  <type>  (15) 
unop_11

>  <geom_source>  (15) 
Heuristics

$$$$

     RDKit          3D

 13 12  0  0  0  0  0  0  0  0999 V2000
    0.0000   -1.5158    0.7794 N   0  0  0  0  0  0  0  0  0  0  0  0
    0.0000   -2.5516    0.0950 C   0  0  0  0  0  0  0  0  0  0  0  0
   -0.0000   -3.8110    0.6102 O   0  0  0  0  0  0  0  0  0  0  0  0
   -0.0000   -4.6846   -0.4486 N   0  0  0  0  0  0  0  0  0  0  0  0
   -0.0000   -4.0722   -1.5066 N   0  0  0  0  0  0  0  0  0  0  0  0
    0.0000   -2.7142   -1.2605 O   0  0  0  0  0  0  0  0  0  0  0  0
    0.0000    0.5861   -1.8321 O   0  0  0  0  0  0  0  0  0  0  0  0
    0.0000    0.5861   -0.6467 C   0  0  0  0  0  3  0  0  0  0  0  0
    0.0000    1.8681    0.2190 C   0  0  0  0  0  0  0  0  0  0  0  0
   -1.4556    1.7780    1.2349 Cl  0  0  0  0  0  0  0  0  0  0  0  0
   -0.0000    3.3224   -0.7520 Cl  0  0  0  0  0  0  0  0  0  0  0  0
    1.4556    1.7780    1.2348 Cl  0  0  0  0  0  0  0  0  0  0  0  0
    0.0000   -0.5105    0.0973 H   0  0  0  0  0  0  0  0  0  0  0  0
  1  2  2  3
  1 13  1  0
  2  3  1  0
  2  6  1  0
  3  4  1  0
  4  5  2  0
  5  6  1  0
  7  8  2  0
  8  9  1  0
  9 10  1  0
  9 11  1  0
  9 12  1  0
M  RAD  1   8   2
M  END
>  <reaction>  (16) 
rxn_3201

>  <mol_properties>  (16) 
{"0": {"label": "*3", "atom_type": "N3d"}, "1": {"label": "*4", "atom_type": "Cd"}, "6": {"label": "*0", "atom_type": "O2d"}, "7": {"label": "*1", "atom_type": "CO"}, "12": {"label": "*2", "atom_type": "H0"}}

>  <type>  (16) 
unop_12

>  <geom_source>  (16) 
Heuristics

$$$$

     RDKit          3D

 13 12  0  0  0  0  0  0  0  0999 V2000
   -0.3508   -1.5701    0.7011 N   0  0  0  0  0  0  0  0  0  0  0  0
    0.2231   -2.5196    0.1440 C   0  0  0  0  0  0  0  0  0  0  0  0
    0.6919   -3.6197    0.7931 O   0  0  0  0  0  0  0  0  0  0  0  0
    1.2578   -4.4399   -0.1509 N   0  0  0  0  0  0  0  0  0  0  0  0
    1.1672   -3.9375   -1.2617 N   0  0  0  0  0  0  0  0  0  0  0  0
    0.5254   -2.7188   -1.1724 O   0  0  0  0  0  0  0  0  0  0  0  0
   -0.3508    0.5319   -1.9104 O   0  0  0  0  0  0  0  0  0  0  0  0
   -0.3508    0.5319   -0.7250 C   0  0  0  0  0  3  0  0  0  0  0  0
   -0.3508    1.8138    0.1406 C   0  0  0  0  0  0  0  0  0  0  0  0
   -1.8064    1.7237    1.1565 Cl  0  0  0  0  0  0  0  0  0  0  0  0
   -0.3509    3.2681   -0.8303 Cl  0  0  0  0  0  0  0  0  0  0  0  0
    1.1047    1.7237    1.1565 Cl  0  0  0  0  0  0  0  0  0  0  0  0
   -0.3508   -0.5648    0.0190 H   0  0  0  0  0  0  0  0  0  0  0  0
  1  2  2  3
  1 13  1  0
  2  3  1  0
  2  6  1  0
  3  4  1  0
  4  5  2  0
  5  6  1  0
  7  8  2  0
  8  9  1  0
  9 10  1  0
  9 11  1  0
  9 12  1  0
M  RAD  1   8   2
M  END
>  <reaction>  (17) 
rxn_3201

>  <mol_properties>  (17) 
{"0": {"label": "*3", "atom_type": "N3d"}, "1": {"label": "*4", "atom_type": "Cd"}, "6": {"label": "*0", "atom_type": "O2d"}, "7": {"label": "*1", "atom_type": "CO"}, "12": {"label": "*2", "atom_type": "H0"}}

>  <type>  (17) 
unop_13

>  <geom_source>  (17) 
gaussian_log

$$$$
