
     RDKit          3D

 12 11  0  0  0  0  0  0  0  0999 V2000
    0.2765    1.4875   -0.3235 C   0  0  0  0  0  0  0  0  0  0  0  0
    0.0387    0.2116   -0.0470 C   0  0  0  0  0  0  0  0  0  0  0  0
    1.1382   -0.7557    0.2806 C   0  0  0  0  0  0  0  0  0  0  0  0
   -1.3481   -0.3618   -0.0405 C   0  0  0  0  0  0  0  0  0  0  0  0
    1.2833    1.8882   -0.3245 H   0  0  0  0  0  0  0  0  0  0  0  0
   -0.5275    2.1750   -0.5584 H   0  0  0  0  0  0  0  0  0  0  0  0
    0.9863   -1.1895    1.2731 H   0  0  0  0  0  0  0  0  0  0  0  0
    1.1431   -1.5878   -0.4293 H   0  0  0  0  0  0  0  0  0  0  0  0
    2.1177   -0.2788    0.2593 H   0  0  0  0  0  0  0  0  0  0  0  0
   -1.4296   -1.1802   -0.7616 H   0  0  0  0  0  0  0  0  0  0  0  0
   -1.5864   -0.7819    0.9408 H   0  0  0  0  0  0  0  0  0  0  0  0
   -2.0987    0.3891   -0.2854 H   0  0  0  0  0  0  0  0  0  0  0  0
  1  2  2  3
  1  5  1  0
  1  6  1  0
  2  3  1  0
  2  4  1  0
  3  7  1  0
  3  8  1  0
  3  9  1  0
  4 10  1  0
  4 11  1  0
  4 12  1  0
M  END
>  <reaction>  (1) 
rxn_31

>  <mol_properties>  (1) 
{"2": {"label": "donator", "atom_type": "Cs"}, "6": {"label": "d_hydrogen", "atom_type": "H0"}}

>  <type>  (1) 
r1h

$$$$

     RDKit          3D

  9  8  0  0  0  0  0  0  0  0999 V2000
   -1.1190   -0.1791    0.1439 C   0  0  0  0  0  0  0  0  0  0  0  0
    0.1303    0.5931   -0.0164 C   0  0  0  0  0  0  0  0  0  0  0  0
    0.3198    1.5563   -1.0510 C   0  0  0  0  0  0  0  0  0  0  0  0
   -0.5293    1.8274   -1.8924 O   0  0  0  0  0  1  0  0  0  0  0  0
   -0.9173   -1.2534    0.0852 H   0  0  0  0  0  0  0  0  0  0  0  0
   -1.8441    0.0914   -0.6212 H   0  0  0  0  0  0  0  0  0  0  0  0
   -1.5557   -0.0033    1.1322 H   0  0  0  0  0  0  0  0  0  0  0  0
    0.9483    0.4300    0.6772 H   0  0  0  0  0  0  0  0  0  0  0  0
    1.2979    2.0687   -1.0664 H   0  0  0  0  0  0  0  0  0  0  0  0
  1  2  1  0
  1  5  1  0
  1  6  1  0
  1  7  1  0
  2  3  2  3
  2  8  1  0
  3  4  1  0
  3  9  1  0
M  RAD  1   4   2
M  END
>  <reaction>  (2) 
rxn_31

>  <mol_properties>  (2) 
{"3": {"label": "acceptor", "atom_type": "O2s"}}

>  <type>  (2) 
r2

$$$$

     RDKit          3D

 10  9  0  0  0  0  0  0  0  0999 V2000
   -0.8856   -0.4848   -0.7236 C   0  0  0  0  0  0  0  0  0  0  0  0
   -0.2668    0.6546    0.0255 C   0  0  0  0  0  0  0  0  0  0  0  0
    0.1522    1.8066   -0.4848 C   0  0  0  0  0  0  0  0  0  0  0  0
    0.1133    2.2022   -1.7810 O   0  0  0  0  0  0  0  0  0  0  0  0
   -0.2947   -1.3968   -0.6100 H   0  0  0  0  0  0  0  0  0  0  0  0
   -1.8892   -0.7018   -0.3501 H   0  0  0  0  0  0  0  0  0  0  0  0
   -0.9796   -0.2992   -1.7965 H   0  0  0  0  0  0  0  0  0  0  0  0
   -0.1454    0.5334    1.0945 H   0  0  0  0  0  0  0  0  0  0  0  0
    0.5893    2.5767    0.1375 H   0  0  0  0  0  0  0  0  0  0  0  0
   -0.2763    1.5101   -2.3202 H   0  0  0  0  0  0  0  0  0  0  0  0
  1  2  1  0
  1  5  1  0
  1  6  1  0
  1  7  1  0
  2  3  2  3
  2  8  1  0
  3  4  1  0
  3  9  1  0
  4 10  1  0
M  END
>  <reaction>  (3) 
rxn_31

>  <mol_properties>  (3) 
{"0": {"label": "a_hydrogen", "atom_type": "H0"}, "4": {"label": "acceptor", "atom_type": "O2s"}}

>  <type>  (3) 
r2h

$$$$

     RDKit          3D

 21 19  0  0  0  0  0  0  0  0999 V2000
    1.3596    0.5097   -1.5904 C   0  0  0  0  0  0  0  0  0  0  0  0
    1.5987   -0.0570   -0.3860 C   0  0  0  0  0  0  0  0  0  0  0  0
    1.6802    0.7388    0.8060 C   0  0  0  0  0  3  0  0  0  0  0  0
    1.6670   -1.5496   -0.2295 C   0  0  0  0  0  0  0  0  0  0  0  0
    1.3090    1.5855   -1.7020 H   0  0  0  0  0  0  0  0  0  0  0  0
    1.2298   -0.0896   -2.4824 H   0  0  0  0  0  0  0  0  0  0  0  0
    0.3666    0.8569    1.1258 H   0  0  0  0  0  0  0  0  0  0  0  0
    2.1099    0.2732    1.6890 H   0  0  0  0  0  0  0  0  0  0  0  0
    1.9383    1.7872    0.6822 H   0  0  0  0  0  0  0  0  0  0  0  0
    2.6580   -1.8508    0.1178 H   0  0  0  0  0  0  0  0  0  0  0  0
    0.9464   -1.8852    0.5194 H   0  0  0  0  0  0  0  0  0  0  0  0
    1.4576   -2.0658   -1.1657 H   0  0  0  0  0  0  0  0  0  0  0  0
   -1.9129   -1.3548   -0.1946 C   0  0  0  0  0  0  0  0  0  0  0  0
   -1.8871    0.0576   -0.6615 C   0  0  0  0  0  0  0  0  0  0  0  0
   -1.3630    1.0914    0.0370 C   0  0  0  0  0  0  0  0  0  0  0  0
   -0.8205    0.9755    1.2252 O   0  0  0  0  0  0  0  0  0  0  0  0
   -2.9369   -1.7370   -0.1701 H   0  0  0  0  0  0  0  0  0  0  0  0
   -1.4866   -1.4426    0.8034 H   0  0  0  0  0  0  0  0  0  0  0  0
   -1.3512   -2.0008   -0.8757 H   0  0  0  0  0  0  0  0  0  0  0  0
   -2.3470    0.2885   -1.6162 H   0  0  0  0  0  0  0  0  0  0  0  0
   -1.3978    2.0933   -0.3982 H   0  0  0  0  0  0  0  0  0  0  0  0
  1  2  2  3
  1  5  1  0
  1  6  1  0
  2  3  1  0
  2  4  1  0
  3  8  1  0
  3  9  1  0
  4 10  1  0
  4 11  1  0
  4 12  1  0
  7 16  1  0
 13 14  1  0
 13 17  1  0
 13 18  1  0
 13 19  1  0
 14 15  2  3
 14 20  1  0
 15 16  1  0
 15 21  1  0
M  RAD  1   3   2
M  END
>  <reaction>  (4) 
rxn_31

>  <mol_properties>  (4) 
{"1": {"label": "*4", "atom_type": "Cd"}, "2": {"label": "*3", "atom_type": "Cs"}, "6": {"label": "*2", "atom_type": "H0"}, "14": {"label": "*0", "atom_type": "Cd"}, "15": {"label": "*1", "atom_type": "O2s"}}

>  <type>  (4) 
ts

$$$$

     RDKit          3D

 21 19  0  0  0  0  0  0  0  0999 V2000
    0.4316   -0.8819   -3.0400 C   0  0  0  0  0  0  0  0  0  0  0  0
    0.4316   -0.8819   -1.7129 C   0  0  0  0  0  0  0  0  0  0  0  0
    0.4316    0.3870   -0.9117 C   0  0  0  0  0  3  0  0  0  0  0  0
    0.4316   -2.1508   -0.9117 C   0  0  0  0  0  0  0  0  0  0  0  0
    0.4316    0.0422   -3.6058 H   0  0  0  0  0  0  0  0  0  0  0  0
    0.4316   -1.8060   -3.6058 H   0  0  0  0  0  0  0  0  0  0  0  0
   -0.6217    0.4399   -0.1303 H   0  0  0  0  0  0  0  0  0  0  0  0
    1.3093    0.4310   -0.2605 H   0  0  0  0  0  0  0  0  0  0  0  0
    0.4316    1.2699   -1.5502 H   0  0  0  0  0  0  0  0  0  0  0  0
    1.3093   -2.1949   -0.2605 H   0  0  0  0  0  0  0  0  0  0  0  0
   -0.4461   -2.1949   -0.2605 H   0  0  0  0  0  0  0  0  0  0  0  0
    0.4316   -3.0337   -1.5502 H   0  0  0  0  0  0  0  0  0  0  0  0
    1.1908    0.5939    1.9097 C   0  0  0  0  0  0  0  0  0  0  0  0
   -0.0844    1.2748    2.3004 C   0  0  0  0  0  0  0  0  0  0  0  0
   -1.2523    1.1941    1.6740 C   0  0  0  0  0  0  0  0  0  0  0  0
   -1.5460    0.4863    0.5555 O   0  0  0  0  0  0  0  0  0  0  0  0
    1.9817    1.3224    1.7157 H   0  0  0  0  0  0  0  0  0  0  0  0
    1.0975   -0.0201    1.0105 H   0  0  0  0  0  0  0  0  0  0  0  0
    1.5457   -0.0633    2.7071 H   0  0  0  0  0  0  0  0  0  0  0  0
   -0.0587    1.8992    3.1845 H   0  0  0  0  0  0  0  0  0  0  0  0
   -2.1253    1.7246    2.0315 H   0  0  0  0  0  0  0  0  0  0  0  0
  1  2  2  3
  1  5  1  0
  1  6  1  0
  2  3  1  0
  2  4  1  0
  3  8  1  0
  3  9  1  0
  4 10  1  0
  4 11  1  0
  4 12  1  0
  7 16  1  0
 13 14  1  0
 13 17  1  0
 13 18  1  0
 13 19  1  0
 14 15  2  3
 14 20  1  0
 15 16  1  0
 15 21  1  0
M  RAD  1   3   2
M  END
>  <reaction>  (5) 
rxn_31

>  <mol_properties>  (5) 
{"1": {"label": "*4", "atom_type": "Cd"}, "2": {"label": "*3", "atom_type": "Cs"}, "6": {"label": "*2", "atom_type": "H0"}, "14": {"label": "*0", "atom_type": "Cd"}, "15": {"label": "*1", "atom_type": "O2s"}}

>  <type>  (5) 
unop_1

>  <geom_source>  (5) 
Heuristics

$$$$

     RDKit          3D

 21 17  0  0  0  0  0  0  0  0999 V2000
    0.9497    0.0784   -2.3390 C   0  0  0  0  0  0  0  0  0  0  0  0
    0.9497    0.0784   -1.0120 C   0  0  0  0  0  0  0  0  0  0  0  0
    0.9497    1.3473   -0.2107 C   0  0  0  0  0  3  0  0  0  0  0  0
    0.9497   -1.1905   -0.2107 C   0  0  0  0  0  3  0  0  0  0  0  0
    0.9497    1.0025   -2.9049 H   0  0  0  0  0  0  0  0  0  0  0  0
    0.9497   -0.8457   -2.9049 H   0  0  0  0  0  0  0  0  0  0  0  0
   -0.1035    1.4002    0.5707 H   0  0  0  0  0  0  0  0  0  0  0  0
    1.8275    1.3914    0.4405 H   0  0  0  0  0  0  0  0  0  0  0  0
    0.9497    2.2302   -0.8492 H   0  0  0  0  0  0  0  0  0  0  0  0
    1.8275   -1.2345    0.4405 H   0  0  0  0  0  0  0  0  0  0  0  0
    0.0720   -1.2345    0.4405 H   0  0  0  0  0  0  0  0  0  0  0  0
    0.9497   -2.0734   -0.8492 H   0  0  0  0  0  0  0  0  0  0  0  0
   -0.2551   -1.1089   -0.2295 C   0  0  0  0  0  2  0  0  0  0  0  0
   -1.0939   -0.9477    1.0004 C   0  0  0  0  0  3  0  0  0  0  0  0
   -1.4010    0.1917    1.6090 C   0  0  0  0  0  0  0  0  0  0  0  0
   -1.0279    1.4466    1.2565 O   0  0  0  0  0  0  0  0  0  0  0  0
    0.6176   -1.7355   -0.0306 H   0  0  0  0  0  0  0  0  0  0  0  0
    0.1183   -0.1621   -0.6276 H   0  0  0  0  0  0  0  0  0  0  0  0
   -0.8213   -1.5889   -1.0312 H   0  0  0  0  0  0  0  0  0  0  0  0
   -1.4950   -1.8498    1.4449 H   0  0  0  0  0  0  0  0  0  0  0  0
   -2.0174    0.2113    2.4984 H   0  0  0  0  0  0  0  0  0  0  0  0
  1  2  2  3
  1  5  1  0
  1  6  1  0
  2  3  1  0
  2 18  1  0
  3  8  1  0
  3  9  1  0
  4 10  1  0
  4 12  1  0
  4 17  1  0
  7 16  1  0
 11 13  1  0
 13 19  1  0
 14 15  2  3
 14 20  1  0
 15 16  1  0
 15 21  1  0
M  RAD  4   3   2   4   2  13   3  14   2
M  END
>  <reaction>  (6) 
rxn_31

>  <mol_properties>  (6) 
{"1": {"label": "*4", "atom_type": "Cd"}, "2": {"label": "*3", "atom_type": "Cs"}, "6": {"label": "*2", "atom_type": "H0"}, "14": {"label": "*0", "atom_type": "Cd"}, "15": {"label": "*1", "atom_type": "O2s"}}

>  <type>  (6) 
unop_2

>  <geom_source>  (6) 
Heuristics

$$$$

     RDKit          3D

 21 19  0  0  0  0  0  0  0  0999 V2000
    0.6036   -1.3608   -2.6652 C   0  0  0  0  0  0  0  0  0  0  0  0
    0.6036   -1.3608   -1.3382 C   0  0  0  0  0  0  0  0  0  0  0  0
    0.6036   -0.0919   -0.5369 C   0  0  0  0  0  3  0  0  0  0  0  0
    0.6036   -2.6297   -0.5369 C   0  0  0  0  0  0  0  0  0  0  0  0
    0.6036   -0.4367   -3.2311 H   0  0  0  0  0  0  0  0  0  0  0  0
    0.6036   -2.2849   -3.2311 H   0  0  0  0  0  0  0  0  0  0  0  0
   -0.4496   -0.0390    0.2445 H   0  0  0  0  0  0  0  0  0  0  0  0
    1.4814   -0.0479    0.1143 H   0  0  0  0  0  0  0  0  0  0  0  0
    0.6036    0.7910   -1.1754 H   0  0  0  0  0  0  0  0  0  0  0  0
    1.4814   -2.6738    0.1143 H   0  0  0  0  0  0  0  0  0  0  0  0
   -0.2741   -2.6738    0.1143 H   0  0  0  0  0  0  0  0  0  0  0  0
    0.6036   -3.5126   -1.1754 H   0  0  0  0  0  0  0  0  0  0  0  0
    0.7853    2.1623    0.7576 C   0  0  0  0  0  0  0  0  0  0  0  0
   -0.4464    2.1245    1.6085 C   0  0  0  0  0  0  0  0  0  0  0  0
   -1.3571    1.1590    1.6455 C   0  0  0  0  0  0  0  0  0  0  0  0
   -1.3740    0.0074    0.9303 O   0  0  0  0  0  0  0  0  0  0  0  0
    0.7805    3.0331    0.0978 H   0  0  0  0  0  0  0  0  0  0  0  0
    0.8999    1.2819    0.1202 H   0  0  0  0  0  0  0  0  0  0  0  0
    1.6859    2.2281    1.3726 H   0  0  0  0  0  0  0  0  0  0  0  0
   -0.6185    2.9689    2.2639 H   0  0  0  0  0  0  0  0  0  0  0  0
   -2.2201    1.2184    2.2959 H   0  0  0  0  0  0  0  0  0  0  0  0
  1  2  2  3
  1  5  1  0
  1  6  1  0
  2  3  1  0
  2  4  1  0
  3  8  1  0
  3  9  1  0
  4 10  1  0
  4 11  1  0
  4 12  1  0
  7 16  1  0
 13 14  1  0
 13 17  1  0
 13 18  1  0
 13 19  1  0
 14 15  2  3
 14 20  1  0
 15 16  1  0
 15 21  1  0
M  RAD  1   3   2
M  END
>  <reaction>  (7) 
rxn_31

>  <mol_properties>  (7) 
{"1": {"label": "*4", "atom_type": "Cd"}, "2": {"label": "*3", "atom_type": "Cs"}, "6": {"label": "*2", "atom_type": "H0"}, "14": {"label": "*0", "atom_type": "Cd"}, "15": {"label": "*1", "atom_type": "O2s"}}

>  <type>  (7) 
unop_3

>  <geom_source>  (7) 
Heuristics

$$$$

     RDKit          3D

 21 18  0  0  0  0  0  0  0  0999 V2000
    1.2011   -0.1451   -1.9850 C   0  0  0  0  0  0  0  0  0  0  0  0
    1.2011   -0.1451   -0.6580 C   0  0  0  0  0  0  0  0  0  0  0  0
    1.2011    1.1237    0.1433 C   0  0  0  0  0  3  0  0  0  0  0  0
    1.2011   -1.4140    0.1433 C   0  0  0  0  0  3  0  0  0  0  0  0
    1.2011    0.7790   -2.5509 H   0  0  0  0  0  0  0  0  0  0  0  0
    1.2011   -1.0693   -2.5509 H   0  0  0  0  0  0  0  0  0  0  0  0
    0.1479    1.1766    0.9247 H   0  0  0  0  0  0  0  0  0  0  0  0
    2.0789    1.1678    0.7945 H   0  0  0  0  0  0  0  0  0  0  0  0
    1.2011    2.0067   -0.4952 H   0  0  0  0  0  0  0  0  0  0  0  0
    2.0789   -1.4581    0.7945 H   0  0  0  0  0  0  0  0  0  0  0  0
    0.3234   -1.4581    0.7945 H   0  0  0  0  0  0  0  0  0  0  0  0
    1.2011   -2.2969   -0.4952 H   0  0  0  0  0  0  0  0  0  0  0  0
   -0.5087   -0.8834   -0.5866 C   0  0  0  0  0  3  0  0  0  0  0  0
   -1.7449   -0.3689    0.0838 C   0  0  0  0  0  0  0  0  0  0  0  0
   -1.8064    0.5522    1.0382 C   0  0  0  0  0  0  0  0  0  0  0  0
   -0.7765    1.2231    1.6105 O   0  0  0  0  0  0  0  0  0  0  0  0
   -0.4026   -1.9611   -0.4417 H   0  0  0  0  0  0  0  0  0  0  0  0
    0.4102   -0.4216   -0.2166 H   0  0  0  0  0  0  0  0  0  0  0  0
   -0.5423   -0.7042   -1.6638 H   0  0  0  0  0  0  0  0  0  0  0  0
   -2.6903   -0.7870   -0.2381 H   0  0  0  0  0  0  0  0  0  0  0  0
   -2.7506    0.8632    1.4660 H   0  0  0  0  0  0  0  0  0  0  0  0
  1  2  2  3
  1  5  1  0
  1  6  1  0
  2  3  1  0
  2 18  1  0
  3  8  1  0
  3  9  1  0
  4 10  1  0
  4 11  1  0
  4 12  1  0
  7 16  1  0
 13 14  1  0
 13 17  1  0
 13 19  1  0
 14 15  2  3
 14 20  1  0
 15 16  1  0
 15 21  1  0
M  RAD  3   3   2   4   2  13   2
M  END
>  <reaction>  (8) 
rxn_31

>  <mol_properties>  (8) 
{"1": {"label": "*4", "atom_type": "Cd"}, "2": {"label": "*3", "atom_type": "Cs"}, "6": {"label": "*2", "atom_type": "H0"}, "14": {"label": "*0", "atom_type": "Cd"}, "15": {"label": "*1", "atom_type": "O2s"}}

>  <type>  (8) 
unop_4

>  <geom_source>  (8) 
Heuristics

$$$$

     RDKit          3D

 21 19  0  0  0  0  0  0  0  0999 V2000
    1.0282   -1.4124   -2.1999 C   0  0  0  0  0  0  0  0  0  0  0  0
    1.0282   -1.4124   -0.8729 C   0  0  0  0  0  0  0  0  0  0  0  0
    1.0282   -0.1435   -0.0716 C   0  0  0  0  0  3  0  0  0  0  0  0
    1.0282   -2.6813   -0.0716 C   0  0  0  0  0  0  0  0  0  0  0  0
    1.0282   -0.4883   -2.7658 H   0  0  0  0  0  0  0  0  0  0  0  0
    1.0282   -2.3365   -2.7658 H   0  0  0  0  0  0  0  0  0  0  0  0
   -0.0251   -0.0906    0.7098 H   0  0  0  0  0  0  0  0  0  0  0  0
    1.9059   -0.0994    0.5795 H   0  0  0  0  0  0  0  0  0  0  0  0
    1.0282    0.7394   -0.7101 H   0  0  0  0  0  0  0  0  0  0  0  0
    1.9059   -2.7253    0.5795 H   0  0  0  0  0  0  0  0  0  0  0  0
    0.1504   -2.7253    0.5795 H   0  0  0  0  0  0  0  0  0  0  0  0
    1.0282   -3.5642   -0.7101 H   0  0  0  0  0  0  0  0  0  0  0  0
   -0.6231    2.2069   -0.6445 C   0  0  0  0  0  0  0  0  0  0  0  0
   -1.1932    2.2607    0.7391 C   0  0  0  0  0  0  0  0  0  0  0  0
   -1.3126    1.2476    1.5892 C   0  0  0  0  0  0  0  0  0  0  0  0
   -0.9495   -0.0442    1.3956 O   0  0  0  0  0  0  0  0  0  0  0  0
   -1.3612    2.5215   -1.3861 H   0  0  0  0  0  0  0  0  0  0  0  0
   -0.2852    1.2095   -0.9365 H   0  0  0  0  0  0  0  0  0  0  0  0
    0.2367    2.8741   -0.7415 H   0  0  0  0  0  0  0  0  0  0  0  0
   -1.5466    3.2223    1.0894 H   0  0  0  0  0  0  0  0  0  0  0  0
   -1.7396    1.3817    2.5745 H   0  0  0  0  0  0  0  0  0  0  0  0
  1  2  2  3
  1  5  1  0
  1  6  1  0
  2  3  1  0
  2  4  1  0
  3  8  1  0
  3  9  1  0
  4 10  1  0
  4 11  1  0
  4 12  1  0
  7 16  1  0
 13 14  1  0
 13 17  1  0
 13 18  1  0
 13 19  1  0
 14 15  2  3
 14 20  1  0
 15 16  1  0
 15 21  1  0
M  RAD  1   3   2
M  END
>  <reaction>  (9) 
rxn_31

>  <mol_properties>  (9) 
{"1": {"label": "*4", "atom_type": "Cd"}, "2": {"label": "*3", "atom_type": "Cs"}, "6": {"label": "*2", "atom_type": "H0"}, "14": {"label": "*0", "atom_type": "Cd"}, "15": {"label": "*1", "atom_type": "O2s"}}

>  <type>  (9) 
unop_5

>  <geom_source>  (9) 
Heuristics

$$$$

     RDKit          3D

 21 19  0  0  0  0  0  0  0  0999 V2000
    1.3358   -0.3934   -1.8704 C   0  0  0  0  0  0  0  0  0  0  0  0
    1.3358   -0.3934   -0.5434 C   0  0  0  0  0  0  0  0  0  0  0  0
    1.3358    0.8755    0.2579 C   0  0  0  0  0  3  0  0  0  0  0  0
    1.3358   -1.6623    0.2579 C   0  0  0  0  0  0  0  0  0  0  0  0
    1.3358    0.5307   -2.4363 H   0  0  0  0  0  0  0  0  0  0  0  0
    1.3358   -1.3175   -2.4363 H   0  0  0  0  0  0  0  0  0  0  0  0
    0.2825    0.9284    1.0393 H   0  0  0  0  0  0  0  0  0  0  0  0
    2.2135    0.9195    0.9091 H   0  0  0  0  0  0  0  0  0  0  0  0
    1.3358    1.7584   -0.3806 H   0  0  0  0  0  0  0  0  0  0  0  0
    2.2135   -1.7064    0.9091 H   0  0  0  0  0  0  0  0  0  0  0  0
    0.4581   -1.7064    0.9091 H   0  0  0  0  0  0  0  0  0  0  0  0
    1.3358   -2.5452   -0.3806 H   0  0  0  0  0  0  0  0  0  0  0  0
   -0.9838   -0.6059   -0.8672 C   0  0  0  0  0  0  0  0  0  0  0  0
   -1.9716    0.2642   -0.1536 C   0  0  0  0  0  0  0  0  0  0  0  0
   -1.7712    0.9325    0.9762 C   0  0  0  0  0  0  0  0  0  0  0  0
   -0.6418    0.9748    1.7251 O   0  0  0  0  0  0  0  0  0  0  0  0
   -1.3553   -1.6294   -0.9581 H   0  0  0  0  0  0  0  0  0  0  0  0
   -0.0143   -0.6636   -0.3662 H   0  0  0  0  0  0  0  0  0  0  0  0
   -0.7964   -0.2394   -1.8793 H   0  0  0  0  0  0  0  0  0  0  0  0
   -2.9532    0.3634   -0.5995 H   0  0  0  0  0  0  0  0  0  0  0  0
   -2.5486    1.5399    1.4211 H   0  0  0  0  0  0  0  0  0  0  0  0
  1  2  2  3
  1  5  1  0
  1  6  1  0
  2  3  1  0
  2  4  1  0
  3  8  1  0
  3  9  1  0
  4 10  1  0
  4 11  1  0
  4 12  1  0
  7 16  1  0
 13 14  1  0
 13 17  1  0
 13 18  1  0
 13 19  1  0
 14 15  2  3
 14 20  1  0
 15 16  1  0
 15 21  1  0
M  RAD  1   3   2
M  END
>  <reaction>  (10) 
rxn_31

>  <mol_properties>  (10) 
{"1": {"label": "*4", "atom_type": "Cd"}, "2": {"label": "*3", "atom_type": "Cs"}, "6": {"label": "*2", "atom_type": "H0"}, "14": {"label": "*0", "atom_type": "Cd"}, "15": {"label": "*1", "atom_type": "O2s"}}

>  <type>  (10) 
unop_6

>  <geom_source>  (10) 
Heuristics

$$$$

     RDKit          3D

 21 19  0  0  0  0  0  0  0  0999 V2000
    1.3898   -0.7458   -1.8363 C   0  0  0  0  0  0  0  0  0  0  0  0
    1.3898   -0.7458   -0.5093 C   0  0  0  0  0  0  0  0  0  0  0  0
    1.3898    0.5231    0.2920 C   0  0  0  0  0  3  0  0  0  0  0  0
    1.3898   -2.0146    0.2920 C   0  0  0  0  0  0  0  0  0  0  0  0
    1.3898    0.1784   -2.4022 H   0  0  0  0  0  0  0  0  0  0  0  0
    1.3898   -1.6699   -2.4022 H   0  0  0  0  0  0  0  0  0  0  0  0
    0.3365    0.5760    1.0734 H   0  0  0  0  0  0  0  0  0  0  0  0
    2.2676    0.5672    0.9432 H   0  0  0  0  0  0  0  0  0  0  0  0
    1.3898    1.4060   -0.3465 H   0  0  0  0  0  0  0  0  0  0  0  0
    2.2676   -2.0587    0.9432 H   0  0  0  0  0  0  0  0  0  0  0  0
    0.5121   -2.0587    0.9432 H   0  0  0  0  0  0  0  0  0  0  0  0
    1.3898   -2.8976   -0.3465 H   0  0  0  0  0  0  0  0  0  0  0  0
   -1.3683    0.1201   -1.1519 C   0  0  0  0  0  0  0  0  0  0  0  0
   -1.9927    1.0433   -0.1518 C   0  0  0  0  0  0  0  0  0  0  0  0
   -1.6127    1.2249    1.1074 C   0  0  0  0  0  0  0  0  0  0  0  0
   -0.5878    0.6224    1.7592 O   0  0  0  0  0  0  0  0  0  0  0  0
   -2.0908   -0.6165   -1.5113 H   0  0  0  0  0  0  0  0  0  0  0  0
   -0.5167   -0.4382   -0.7551 H   0  0  0  0  0  0  0  0  0  0  0  0
   -1.0080    0.6710   -2.0239 H   0  0  0  0  0  0  0  0  0  0  0  0
   -2.8428    1.6263   -0.4830 H   0  0  0  0  0  0  0  0  0  0  0  0
   -2.1272    1.9177    1.7606 H   0  0  0  0  0  0  0  0  0  0  0  0
  1  2  2  3
  1  5  1  0
  1  6  1  0
  2  3  1  0
  2  4  1  0
  3  8  1  0
  3  9  1  0
  4 10  1  0
  4 11  1  0
  4 12  1  0
  7 16  1  0
 13 14  1  0
 13 17  1  0
 13 18  1  0
 13 19  1  0
 14 15  2  3
 14 20  1  0
 15 16  1  0
 15 21  1  0
M  RAD  1   3   2
M  END
>  <reaction>  (11) 
rxn_31

>  <mol_properties>  (11) 
{"1": {"label": "*4", "atom_type": "Cd"}, "2": {"label": "*3", "atom_type": "Cs"}, "6": {"label": "*2", "atom_type": "H0"}, "14": {"label": "*0", "atom_type": "Cd"}, "15": {"label": "*1", "atom_type": "O2s"}}

>  <type>  (11) 
unop_7

>  <geom_source>  (11) 
Heuristics

$$$$

     RDKit          3D

 21 19  0  0  0  0  0  0  0  0999 V2000
    0.4977   -0.4110   -3.0678 C   0  0  0  0  0  0  0  0  0  0  0  0
    0.4977   -0.4110   -1.7408 C   0  0  0  0  0  0  0  0  0  0  0  0
    0.4977    0.8578   -0.9395 C   0  0  0  0  0  3  0  0  0  0  0  0
    0.4977   -1.6799   -0.9395 C   0  0  0  0  0  0  0  0  0  0  0  0
    0.4977    0.5131   -3.6337 H   0  0  0  0  0  0  0  0  0  0  0  0
    0.4977   -1.3352   -3.6337 H   0  0  0  0  0  0  0  0  0  0  0  0
   -0.5556    0.9107   -0.1581 H   0  0  0  0  0  0  0  0  0  0  0  0
    1.3754    0.9019   -0.2883 H   0  0  0  0  0  0  0  0  0  0  0  0
    0.4977    1.7408   -1.5780 H   0  0  0  0  0  0  0  0  0  0  0  0
    1.3754   -1.7240   -0.2883 H   0  0  0  0  0  0  0  0  0  0  0  0
   -0.3800   -1.7240   -0.2883 H   0  0  0  0  0  0  0  0  0  0  0  0
    0.4977   -2.5628   -1.5780 H   0  0  0  0  0  0  0  0  0  0  0  0
    0.7584   -0.6897    1.7979 C   0  0  0  0  0  0  0  0  0  0  0  0
   -0.1239    0.3464    2.4227 C   0  0  0  0  0  0  0  0  0  0  0  0
   -1.0868    1.0364    1.8228 C   0  0  0  0  0  0  0  0  0  0  0  0
   -1.4800    0.9572    0.5277 O   0  0  0  0  0  0  0  0  0  0  0  0
    1.8108   -0.4055    1.8709 H   0  0  0  0  0  0  0  0  0  0  0  0
    0.5479   -0.8580    0.7388 H   0  0  0  0  0  0  0  0  0  0  0  0
    0.6487   -1.6538    2.3002 H   0  0  0  0  0  0  0  0  0  0  0  0
    0.0341    0.5602    3.4722 H   0  0  0  0  0  0  0  0  0  0  0  0
   -1.6766    1.7694    2.3577 H   0  0  0  0  0  0  0  0  0  0  0  0
  1  2  2  3
  1  5  1  0
  1  6  1  0
  2  3  1  0
  2  4  1  0
  3  8  1  0
  3  9  1  0
  4 10  1  0
  4 11  1  0
  4 12  1  0
  7 16  1  0
 13 14  1  0
 13 17  1  0
 13 18  1  0
 13 19  1  0
 14 15  2  3
 14 20  1  0
 15 16  1  0
 15 21  1  0
M  RAD  1   3   2
M  END
>  <reaction>  (12) 
rxn_31

>  <mol_properties>  (12) 
{"1": {"label": "*4", "atom_type": "Cd"}, "2": {"label": "*3", "atom_type": "Cs"}, "6": {"label": "*2", "atom_type": "H0"}, "14": {"label": "*0", "atom_type": "Cd"}, "15": {"label": "*1", "atom_type": "O2s"}}

>  <type>  (12) 
unop_8

>  <geom_source>  (12) 
Heuristics

$$$$

     RDKit          3D

 21 16  0  0  0  0  0  0  0  0999 V2000
    0.6444   -0.0829   -2.8860 C   0  0  0  0  0  0  0  0  0  0  0  0
    0.6444   -0.0829   -1.5590 C   0  0  0  0  0  0  0  0  0  0  0  0
    0.6444    1.1860   -0.7577 C   0  0  0  0  0  0  0  0  0  0  0  0
    0.6444   -1.3518   -0.7577 C   0  0  0  0  0  3  0  0  0  0  0  0
    0.6444    0.8412   -3.4519 H   0  0  0  0  0  0  0  0  0  0  0  0
    0.6444   -1.0070   -3.4519 H   0  0  0  0  0  0  0  0  0  0  0  0
   -0.4089    1.2389    0.0237 H   0  0  0  0  0  0  0  0  0  0  0  0
    1.5221    1.2301   -0.1065 H   0  0  0  0  0  0  0  0  0  0  0  0
    0.6444    2.0689   -1.3962 H   0  0  0  0  0  0  0  0  0  0  0  0
    1.5221   -1.3959   -0.1065 H   0  0  0  0  0  0  0  0  0  0  0  0
   -0.2334   -1.3959   -0.1065 H   0  0  0  0  0 15  0  0  0  0  0  0
    0.6444   -2.2347   -1.3962 H   0  0  0  0  0  0  0  0  0  0  0  0
    0.2357   -1.3063    1.1068 C   0  0  0  0  0  2  0  0  0  0  0  0
   -0.3690   -0.4005    2.1346 C   0  0  0  0  0  3  0  0  0  0  0  0
   -1.0446    0.7198    1.9074 C   0  0  0  0  0  0  0  0  0  0  0  0
   -1.3333    1.2853    0.7095 O   0  0  0  0  0  0  0  0  0  0  0  0
    1.3155   -1.3950    1.2479 H   0  0  0  0  0  0  0  0  0  0  0  0
    0.0767   -0.9659    0.0806 H   0  0  0  0  0  0  0  0  0  0  0  0
   -0.1827   -2.3132    1.1755 H   0  0  0  0  0  0  0  0  0  0  0  0
   -0.2465   -0.6822    3.1728 H   0  0  0  0  0  0  0  0  0  0  0  0
   -1.4474    1.3132    2.7179 H   0  0  0  0  0  0  0  0  0  0  0  0
  1  2  2  0
  1  5  1  0
  1  6  1  0
  2  3  2  0
  3  8  1  0
  3  9  1  0
  4 10  1  0
  4 12  1  0
  4 18  1  0
  7 16  1  0
 13 17  1  0
 13 19  1  0
 14 15  2  3
 14 20  1  0
 15 16  1  0
 15 21  1  0
M  RAD  3   4   2  13   3  14   2
M  END
>  <reaction>  (13) 
rxn_31

>  <mol_properties>  (13) 
{"1": {"label": "*4", "atom_type": "Cd"}, "2": {"label": "*3", "atom_type": "Cs"}, "6": {"label": "*2", "atom_type": "H0"}, "14": {"label": "*0", "atom_type": "Cd"}, "15": {"label": "*1", "atom_type": "O2s"}}

>  <type>  (13) 
unop_9

>  <geom_source>  (13) 
Heuristics

$$$$

     RDKit          3D

 21 19  0  0  0  0  0  0  0  0999 V2000
    1.3019   -1.1261   -1.9353 C   0  0  0  0  0  0  0  0  0  0  0  0
    1.3019   -1.1261   -0.6083 C   0  0  0  0  0  0  0  0  0  0  0  0
    1.3019    0.1427    0.1930 C   0  0  0  0  0  3  0  0  0  0  0  0
    1.3019   -2.3950    0.1930 C   0  0  0  0  0  0  0  0  0  0  0  0
    1.3019   -0.2020   -2.5012 H   0  0  0  0  0  0  0  0  0  0  0  0
    1.3019   -2.0503   -2.5012 H   0  0  0  0  0  0  0  0  0  0  0  0
    0.2486    0.1956    0.9744 H   0  0  0  0  0  0  0  0  0  0  0  0
    2.1796    0.1868    0.8441 H   0  0  0  0  0  0  0  0  0  0  0  0
    1.3019    1.0256   -0.4455 H   0  0  0  0  0  0  0  0  0  0  0  0
    2.1796   -2.4391    0.8441 H   0  0  0  0  0  0  0  0  0  0  0  0
    0.4242   -2.4391    0.8441 H   0  0  0  0  0  0  0  0  0  0  0  0
    1.3019   -3.2779   -0.4455 H   0  0  0  0  0  0  0  0  0  0  0  0
   -1.3479    1.1832   -1.1680 C   0  0  0  0  0  0  0  0  0  0  0  0
   -1.7406    1.7839    0.1463 C   0  0  0  0  0  0  0  0  0  0  0  0
   -1.4201    1.3329    1.3534 C   0  0  0  0  0  0  0  0  0  0  0  0
   -0.6757    0.2420    1.6601 O   0  0  0  0  0  0  0  0  0  0  0  0
   -2.2287    0.9047   -1.7515 H   0  0  0  0  0  0  0  0  0  0  0  0
   -0.7357    0.2834   -1.0686 H   0  0  0  0  0  0  0  0  0  0  0  0
   -0.7739    1.8928   -1.7685 H   0  0  0  0  0  0  0  0  0  0  0  0
   -2.3488    2.6791    0.1168 H   0  0  0  0  0  0  0  0  0  0  0  0
   -1.7511    1.8357    2.2528 H   0  0  0  0  0  0  0  0  0  0  0  0
  1  2  2  3
  1  5  1  0
  1  6  1  0
  2  3  1  0
  2  4  1  0
  3  8  1  0
  3  9  1  0
  4 10  1  0
  4 11  1  0
  4 12  1  0
  7 16  1  0
 13 14  1  0
 13 17  1  0
 13 18  1  0
 13 19  1  0
 14 15  2  3
 14 20  1  0
 15 16  1  0
 15 21  1  0
M  RAD  1   3   2
M  END
>  <reaction>  (14) 
rxn_31

>  <mol_properties>  (14) 
{"1": {"label": "*4", "atom_type": "Cd"}, "2": {"label": "*3", "atom_type": "Cs"}, "6": {"label": "*2", "atom_type": "H0"}, "14": {"label": "*0", "atom_type": "Cd"}, "15": {"label": "*1", "atom_type": "O2s"}}

>  <type>  (14) 
unop_10

>  <geom_source>  (14) 
Heuristics

$$$$

     RDKit          3D

 21 18  0  0  0  0  0  0  0  0999 V2000
    1.0650   -0.0028   -2.1352 C   0  0  0  0  0  0  0  0  0  0  0  0
    1.0650   -0.0028   -0.8082 C   0  0  0  0  0  0  0  0  0  0  0  0
    1.0650    1.2661   -0.0070 C   0  0  0  0  0  3  0  0  0  0  0  0
    1.0650   -1.2716   -0.0070 C   0  0  0  0  0  0  0  0  0  0  0  0
    1.0650    0.9214   -2.7011 H   0  0  0  0  0  0  0  0  0  0  0  0
    1.0650   -0.9269   -2.7011 H   0  0  0  0  0  0  0  0  0  0  0  0
    0.0117    1.3190    0.7744 H   0  0  0  0  0  0  0  0  0  0  0  0
    1.9427    1.3102    0.6442 H   0  0  0  0  0  0  0  0  0  0  0  0
    1.0650    2.1490   -0.6455 H   0  0  0  0  0  0  0  0  0  0  0  0
    1.9427   -1.3157    0.6442 H   0  0  0  0  0  0  0  0  0  0  0  0
    0.1873   -1.3157    0.6442 H   0  0  0  0  0  0  0  0  0  0  0  0
    1.0650   -2.1545   -0.6455 H   0  0  0  0  0  0  0  0  0  0  0  0
   -0.2654   -0.9304   -0.4492 C   0  0  0  0  0  2  0  0  0  0  0  0
   -1.4305   -0.7723    0.4780 C   0  0  0  0  0  0  0  0  0  0  0  0
   -1.6657    0.2508    1.2911 C   0  0  0  0  0  0  0  0  0  0  0  0
   -0.9126    1.3654    1.4602 O   0  0  0  0  0  0  0  0  0  0  0  0
    0.3074   -1.8298   -0.2108 H   0  0  0  0  0  0  0  0  0  0  0  0
    0.4335   -0.0909   -0.4155 H   0  0  0  0  0  0  0  0  0  0  0  0
   -0.5980   -1.0247   -1.4857 H   0  0  0  0  0  0  0  0  0  0  0  0
   -2.1609   -1.5713    0.4922 H   0  0  0  0  0  0  0  0  0  0  0  0
   -2.5394    0.2786    1.9292 H   0  0  0  0  0  0  0  0  0  0  0  0
  1  2  2  3
  1  5  1  0
  1  6  1  0
  2  3  1  0
  2 18  1  0
  3  8  1  0
  3  9  1  0
  4 10  1  0
  4 11  1  0
  4 12  1  0
  4 17  1  0
  7 16  1  0
 13 14  1  0
 13 19  1  0
 14 15  2  3
 14 20  1  0
 15 16  1  0
 15 21  1  0
M  RAD  2   3   2  13   3
M  END
>  <reaction>  (15) 
rxn_31

>  <mol_properties>  (15) 
{"1": {"label": "*4", "atom_type": "Cd"}, "2": {"label": "*3", "atom_type": "Cs"}, "6": {"label": "*2", "atom_type": "H0"}, "14": {"label": "*0", "atom_type": "Cd"}, "15": {"label": "*1", "atom_type": "O2s"}}

>  <type>  (15) 
unop_11

>  <geom_source>  (15) 
Heuristics

$$$$

     RDKit          3D

 21 19  0  0  0  0  0  0  0  0999 V2000
    0.8509   -1.3297   -0.9666 O   0  0  0  0  0  0  0  0  0  0  0  0
   -1.9904    0.9796    0.8044 C   0  0  0  0  0  0  0  0  0  0  0  0
    3.3263    1.4821   -1.1451 C   0  0  0  0  0  0  0  0  0  0  0  0
   -2.0876   -0.5128    0.9301 C   0  0  0  0  0  0  0  0  0  0  0  0
    2.1128    0.6712   -0.8232 C   0  0  0  0  0  0  0  0  0  0  0  0
    1.9830   -0.5779   -1.2689 C   0  0  0  0  0  0  0  0  0  0  0  0
   -0.9249   -1.3650    0.5209 C   0  0  0  0  0  0  0  0  0  0  0  0
   -3.2048   -1.0791    1.4043 C   0  0  0  0  0  3  0  0  0  0  0  0
    3.4226    1.6007   -2.2452 H   0  0  0  0  0  0  0  0  0  0  0  0
    3.2388    2.4874   -0.6825 H   0  0  0  0  0  0  0  0  0  0  0  0
    4.2340    0.9816   -0.7463 H   0  0  0  0  0  0  0  0  0  0  0  0
   -2.1174    1.4510    1.8019 H   0  0  0  0  0  0  0  0  0  0  0  0
   -1.0009    1.2764    0.3963 H   0  0  0  0  0  0  0  0  0  0  0  0
   -2.7815    1.3526    0.1200 H   0  0  0  0  0  0  0  0  0  0  0  0
    1.3315    1.1137   -0.2174 H   0  0  0  0  0  0  0  0  0  0  0  0
    2.7611   -1.0254   -1.8749 H   0  0  0  0  0  0  0  0  0  0  0  0
   -0.5516   -1.9506    1.3874 H   0  0  0  0  0  0  0  0  0  0  0  0
   -1.2189   -2.0495   -0.3027 H   0  0  0  0  0  0  0  0  0  0  0  0
   -4.0526   -0.4697    1.7034 H   0  0  0  0  0  0  0  0  0  0  0  0
   -3.2838   -2.1582    1.4986 H   0  0  0  0  0  0  0  0  0  0  0  0
   -0.0464   -0.8786   -0.2945 H   0  0  0  0  0  0  0  0  0  0  0  0
  1  6  1  0
  1 21  1  0
  2  4  1  0
  2 12  1  0
  2 13  1  0
  2 14  1  0
  3  5  1  0
  3  9  1  0
  3 10  1  0
  3 11  1  0
  4  7  2  3
  4  8  1  0
  5  6  2  3
  5 15  1  0
  6 16  1  0
  7 17  1  0
  7 18  1  0
  8 19  1  0
  8 20  1  0
M  RAD  1   8   2
M  END
>  <reaction>  (16) 
rxn_31

>  <mol_properties>  (16) 
{"1": {"label": "*4", "atom_type": "Cd"}, "2": {"label": "*3", "atom_type": "Cs"}, "6": {"label": "*2", "atom_type": "H0"}, "14": {"label": "*0", "atom_type": "Cd"}, "15": {"label": "*1", "atom_type": "O2s"}}

>  <type>  (16) 
unop_12

>  <geom_source>  (16) 
AutoTST

$$$$

     RDKit          3D

 21 17  0  0  0  0  0  0  0  0999 V2000
    0.9497    0.0784   -2.3390 C   0  0  0  0  0  0  0  0  0  0  0  0
    0.9497    0.0784   -1.0120 C   0  0  0  0  0  0  0  0  0  0  0  0
    0.9497    1.3473   -0.2107 C   0  0  0  0  0  3  0  0  0  0  0  0
    0.9497   -1.1905   -0.2107 C   0  0  0  0  0  3  0  0  0  0  0  0
    0.9497    1.0025   -2.9049 H   0  0  0  0  0  0  0  0  0  0  0  0
    0.9497   -0.8457   -2.9049 H   0  0  0  0  0  0  0  0  0  0  0  0
   -0.1036    1.4002    0.5707 H   0  0  0  0  0  0  0  0  0  0  0  0
    1.8275    1.3914    0.4405 H   0  0  0  0  0  0  0  0  0  0  0  0
    0.9497    2.2302   -0.8492 H   0  0  0  0  0  0  0  0  0  0  0  0
    1.8275   -1.2345    0.4405 H   0  0  0  0  0  0  0  0  0  0  0  0
    0.0720   -1.2345    0.4405 H   0  0  0  0  0  0  0  0  0  0  0  0
    0.9497   -2.0734   -0.8492 H   0  0  0  0  0  0  0  0  0  0  0  0
   -0.2551   -1.1089   -0.2295 C   0  0  0  0  0  2  0  0  0  0  0  0
   -1.0939   -0.9477    1.0004 C   0  0  0  0  0  3  0  0  0  0  0  0
   -1.4010    0.1917    1.6090 C   0  0  0  0  0  0  0  0  0  0  0  0
   -1.0279    1.4466    1.2565 O   0  0  0  0  0  0  0  0  0  0  0  0
    0.6176   -1.7355   -0.0306 H   0  0  0  0  0  0  0  0  0  0  0  0
    0.1183   -0.1621   -0.6276 H   0  0  0  0  0  0  0  0  0  0  0  0
   -0.8213   -1.5889   -1.0312 H   0  0  0  0  0  0  0  0  0  0  0  0
   -1.4950   -1.8498    1.4449 H   0  0  0  0  0  0  0  0  0  0  0  0
   -2.0174    0.2113    2.4983 H   0  0  0  0  0  0  0  0  0  0  0  0
  1  2  2  3
  1  5  1  0
  1  6  1  0
  2  3  1  0
  2 18  1  0
  3  8  1  0
  3  9  1  0
  4 10  1  0
  4 12  1  0
  4 17  1  0
  7 16  1  0
 11 13  1  0
 13 19  1  0
 14 15  2  3
 14 20  1  0
 15 16  1  0
 15 21  1  0
M  RAD  4   3   2   4   2  13   3  14   2
M  END
>  <reaction>  (17) 
rxn_31

>  <mol_properties>  (17) 
{"1": {"label": "*4", "atom_type": "Cd"}, "2": {"label": "*3", "atom_type": "Cs"}, "6": {"label": "*2", "atom_type": "H0"}, "14": {"label": "*0", "atom_type": "Cd"}, "15": {"label": "*1", "atom_type": "O2s"}}

>  <type>  (17) 
unop_13

>  <geom_source>  (17) 
gaussian_log

$$$$
