
     RDKit          3D

 10  9  0  0  0  0  0  0  0  0999 V2000
    2.2738    0.0217   -0.0992 C   0  0  0  0  0  0  0  0  0  0  0  0
    1.1083    0.2960   -0.0695 C   0  0  0  0  0  0  0  0  0  0  0  0
   -0.3173    0.6046   -0.0227 C   0  0  0  0  0  0  0  0  0  0  0  0
   -1.1561   -0.5495    0.5292 C   0  0  0  0  0  0  0  0  0  0  0  0
    3.3097   -0.2166   -0.1277 H   0  0  0  0  0  0  0  0  0  0  0  0
   -0.6542    0.8617   -1.0302 H   0  0  0  0  0  0  0  0  0  0  0  0
   -0.4633    1.4978    0.5900 H   0  0  0  0  0  0  0  0  0  0  0  0
   -0.8485   -0.7997    1.5447 H   0  0  0  0  0  0  0  0  0  0  0  0
   -2.2115   -0.2752    0.5459 H   0  0  0  0  0  0  0  0  0  0  0  0
   -1.0409   -1.4407   -0.0879 H   0  0  0  0  0  0  0  0  0  0  0  0
  1  2  3  0
  1  5  1  0
  2  3  1  0
  3  4  1  0
  3  6  1  0
  3  7  1  0
  4  8  1  0
  4  9  1  0
  4 10  1  0
M  END
>  <reaction>  (1) 
rxn_1299

>  <mol_properties>  (1) 
{"2": {"label": "donator", "atom_type": "Cs"}, "5": {"label": "d_hydrogen", "atom_type": "H0"}}

>  <type>  (1) 
r1h

$$$$

     RDKit          3D

  7  6  0  0  0  0  0  0  0  0999 V2000
   -0.6904   -0.9066   -0.0346 C   0  0  0  0  0  0  0  0  0  0  0  0
    0.1413    0.0254   -0.6161 C   0  0  0  0  0  0  0  0  0  0  0  0
    0.4603    0.1105   -1.9267 C   0  0  0  0  0  3  0  0  0  0  0  0
    0.8318    0.2180   -3.4201 S   0  0  0  0  0  0  0  0  0  0  0  0
   -0.8731   -0.8770    1.0287 H   0  0  0  0  0  0  0  0  0  0  0  0
   -1.1718   -1.6767   -0.6199 H   0  0  0  0  0  0  0  0  0  0  0  0
    0.6090    0.7866    0.0044 H   0  0  0  0  0  0  0  0  0  0  0  0
  1  2  2  3
  1  5  1  0
  1  6  1  0
  2  3  1  0
  2  7  1  0
  3  4  2  0
M  RAD  1   3   2
M  END
>  <reaction>  (2) 
rxn_1299

>  <mol_properties>  (2) 
{"2": {"label": "acceptor", "atom_type": "CS"}}

>  <type>  (2) 
r2

$$$$

     RDKit          3D

  8  7  0  0  0  0  0  0  0  0999 V2000
   -1.1617    0.0338    0.5053 C   0  0  0  0  0  0  0  0  0  0  0  0
   -0.1023    0.4503   -0.1863 C   0  0  0  0  0  0  0  0  0  0  0  0
    1.0978   -0.3557   -0.3104 C   0  0  0  0  0  0  0  0  0  0  0  0
    2.4251    0.0667   -1.1256 S   0  0  0  0  0  0  0  0  0  0  0  0
   -1.1653   -0.9292    1.0039 H   0  0  0  0  0  0  0  0  0  0  0  0
   -2.0546    0.6389    0.5948 H   0  0  0  0  0  0  0  0  0  0  0  0
   -0.0991    1.4132   -0.6847 H   0  0  0  0  0  0  0  0  0  0  0  0
    1.0601   -1.3180    0.2032 H   0  0  0  0  0  0  0  0  0  0  0  0
  1  2  2  3
  1  5  1  0
  1  6  1  0
  2  3  1  0
  2  7  1  0
  3  4  2  0
  3  8  1  0
M  END
>  <reaction>  (3) 
rxn_1299

>  <mol_properties>  (3) 
{"0": {"label": "a_hydrogen", "atom_type": "H0"}, "3": {"label": "acceptor", "atom_type": "CS"}}

>  <type>  (3) 
r2h

$$$$

     RDKit          3D

 17 15  0  0  0  0  0  0  0  0999 V2000
   -1.2633    1.2290   -2.9392 C   0  0  0  0  0  0  0  0  0  0  0  0
   -1.3778    1.0063   -1.7624 C   0  0  0  0  0  0  0  0  0  0  0  0
   -1.4443    0.7345   -0.3635 C   0  0  0  0  0  0  0  0  0  0  0  0
   -1.6401    1.9191    0.5558 C   0  0  0  0  0  0  0  0  0  0  0  0
   -1.1837    1.4359   -3.9792 H   0  0  0  0  0  0  0  0  0  0  0  0
   -0.2413    0.2561    0.0022 H   0  0  0  0  0  0  0  0  0  0  0  0
   -2.0858   -0.1156   -0.1309 H   0  0  0  0  0  0  0  0  0  0  0  0
   -2.6380    2.3482    0.4340 H   0  0  0  0  0  0  0  0  0  0  0  0
   -1.5215    1.6154    1.5964 H   0  0  0  0  0  0  0  0  0  0  0  0
   -0.9085    2.6991    0.3433 H   0  0  0  0  0  0  0  0  0  0  0  0
    1.1022   -1.5364   -1.4929 C   0  0  0  0  0  0  0  0  0  0  0  0
    1.5879   -1.1793   -0.3041 C   0  0  0  0  0  0  0  0  0  0  0  0
    0.9507   -0.1818    0.5253 C   0  0  0  0  0  3  0  0  0  0  0  0
    1.4229    0.4373    1.9123 S   0  0  0  0  0  0  0  0  0  0  0  0
    1.6054   -2.2813   -2.0965 H   0  0  0  0  0  0  0  0  0  0  0  0
    0.2058   -1.0860   -1.9015 H   0  0  0  0  0  0  0  0  0  0  0  0
    2.4991   -1.6295    0.0805 H   0  0  0  0  0  0  0  0  0  0  0  0
  1  2  3  0
  1  5  1  0
  2  3  1  0
  3  4  1  0
  3  6  1  0
  3  7  1  0
  4  8  1  0
  4  9  1  0
  4 10  1  0
 11 12  2  3
 11 15  1  0
 11 16  1  0
 12 13  1  0
 12 17  1  0
 13 14  2  0
M  RAD  1  13   2
M  END
>  <reaction>  (4) 
rxn_1299

>  <mol_properties>  (4) 
{"1": {"label": "*0", "atom_type": "Ct"}, "2": {"label": "*1", "atom_type": "Cs"}, "5": {"label": "*2", "atom_type": "H0"}, "12": {"label": "*3", "atom_type": "CS"}, "13": {"label": "*4", "atom_type": "S2d"}}

>  <type>  (4) 
ts

$$$$

     RDKit          3D

 17 15  0  0  0  0  0  0  0  0999 V2000
   -1.3194    0.6240   -3.0243 C   0  0  0  0  0  0  0  0  0  0  0  0
   -1.3194    0.6240   -1.8266 C   0  0  0  0  0  0  0  0  0  0  0  0
   -1.3194    0.6522   -0.3674 C   0  0  0  0  0  3  0  0  0  0  0  0
   -1.3193    2.0736    0.1982 C   0  0  0  0  0  0  0  0  0  0  0  0
   -1.3194    0.6240   -4.0876 H   0  0  0  0  0  0  0  0  0  0  0  0
   -0.2688   -0.0019    0.0666 H   0  0  0  0  0  0  0  0  0  0  0  0
   -2.1949    0.1071   -0.0057 H   0  0  0  0  0  0  0  0  0  0  0  0
   -2.2016    2.6215   -0.1333 H   0  0  0  0  0  0  0  0  0  0  0  0
   -1.3193    2.0463    1.2885 H   0  0  0  0  0  0  0  0  0  0  0  0
   -0.4371    2.6214   -0.1333 H   0  0  0  0  0  0  0  0  0  0  0  0
    2.0220    1.3810    0.9851 C   0  0  0  0  0  0  0  0  0  0  0  0
    1.6988    0.1290    1.3045 C   0  0  0  0  0  0  0  0  0  0  0  0
    0.7805   -0.6552    0.5001 C   0  0  0  0  0  0  0  0  0  0  0  0
    0.3327   -2.1745    0.8096 S   0  0  0  0  0  0  0  0  0  0  0  0
    2.7076    1.9617    1.5885 H   0  0  0  0  0  0  0  0  0  0  0  0
    1.6075    1.8626    0.1063 H   0  0  0  0  0  0  0  0  0  0  0  0
    2.1135   -0.3522    2.1832 H   0  0  0  0  0  0  0  0  0  0  0  0
  1  2  3  0
  1  5  1  0
  2  3  1  0
  3  4  1  0
  3  7  1  0
  4  8  1  0
  4  9  1  0
  4 10  1  0
  6 13  1  0
 11 12  2  3
 11 15  1  0
 11 16  1  0
 12 13  1  0
 12 17  1  0
 13 14  2  0
M  RAD  1   3   2
M  END
>  <reaction>  (5) 
rxn_1299

>  <mol_properties>  (5) 
{"1": {"label": "*0", "atom_type": "Ct"}, "2": {"label": "*1", "atom_type": "Cs"}, "5": {"label": "*2", "atom_type": "H0"}, "12": {"label": "*3", "atom_type": "CS"}, "13": {"label": "*4", "atom_type": "S2d"}}

>  <type>  (5) 
unop_1

>  <geom_source>  (5) 
Heuristics

$$$$

     RDKit          3D

 17 15  0  0  0  0  0  0  0  0999 V2000
   -1.4466    0.6049   -2.8621 C   0  0  0  0  0  0  0  0  0  0  0  0
   -1.4466    0.6049   -1.6644 C   0  0  0  0  0  0  0  0  0  0  0  0
   -1.4466    0.6332   -0.2052 C   0  0  0  0  0  3  0  0  0  0  0  0
   -1.4466    2.0545    0.3604 C   0  0  0  0  0  0  0  0  0  0  0  0
   -1.4466    0.6049   -3.9254 H   0  0  0  0  0  0  0  0  0  0  0  0
   -0.3960   -0.0210    0.2288 H   0  0  0  0  0  0  0  0  0  0  0  0
   -2.3221    0.0881    0.1565 H   0  0  0  0  0  0  0  0  0  0  0  0
   -2.3288    2.6024    0.0289 H   0  0  0  0  0  0  0  0  0  0  0  0
   -1.4466    2.0272    1.4507 H   0  0  0  0  0  0  0  0  0  0  0  0
   -0.5643    2.6024    0.0289 H   0  0  0  0  0  0  0  0  0  0  0  0
    1.6937   -0.3037   -1.5062 C   0  0  0  0  0  0  0  0  0  0  0  0
    1.8033   -0.6384   -0.2217 C   0  0  0  0  0  0  0  0  0  0  0  0
    0.6533   -0.6742    0.6623 C   0  0  0  0  0  0  0  0  0  0  0  0
    0.6914   -1.0669    2.2273 S   0  0  0  0  0  0  0  0  0  0  0  0
    2.5547   -0.2785   -2.1615 H   0  0  0  0  0  0  0  0  0  0  0  0
    0.7345   -0.0441   -1.9404 H   0  0  0  0  0  0  0  0  0  0  0  0
    2.7625   -0.8979    0.2121 H   0  0  0  0  0  0  0  0  0  0  0  0
  1  2  3  0
  1  5  1  0
  2  3  1  0
  3  4  1  0
  3  7  1  0
  4  8  1  0
  4  9  1  0
  4 10  1  0
  6 13  1  0
 11 12  2  3
 11 15  1  0
 11 16  1  0
 12 13  1  0
 12 17  1  0
 13 14  2  0
M  RAD  1   3   2
M  END
>  <reaction>  (6) 
rxn_1299

>  <mol_properties>  (6) 
{"1": {"label": "*0", "atom_type": "Ct"}, "2": {"label": "*1", "atom_type": "Cs"}, "5": {"label": "*2", "atom_type": "H0"}, "12": {"label": "*3", "atom_type": "CS"}, "13": {"label": "*4", "atom_type": "S2d"}}

>  <type>  (6) 
unop_2

>  <geom_source>  (6) 
Heuristics

$$$$

     RDKit          3D

 17 15  0  0  0  0  0  0  0  0999 V2000
   -1.3161    0.6926   -2.9900 C   0  0  0  0  0  0  0  0  0  0  0  0
   -1.3161    0.6926   -1.7923 C   0  0  0  0  0  0  0  0  0  0  0  0
   -1.3161    0.7208   -0.3331 C   0  0  0  0  0  3  0  0  0  0  0  0
   -1.3160    2.1422    0.2325 C   0  0  0  0  0  0  0  0  0  0  0  0
   -1.3161    0.6926   -4.0533 H   0  0  0  0  0  0  0  0  0  0  0  0
   -0.2655    0.0667    0.1009 H   0  0  0  0  0  0  0  0  0  0  0  0
   -2.1916    0.1758    0.0286 H   0  0  0  0  0  0  0  0  0  0  0  0
   -2.1983    2.6901   -0.0990 H   0  0  0  0  0  0  0  0  0  0  0  0
   -1.3160    2.1149    1.3227 H   0  0  0  0  0  0  0  0  0  0  0  0
   -0.4338    2.6901   -0.0990 H   0  0  0  0  0  0  0  0  0  0  0  0
    1.2329    1.1589    2.1697 C   0  0  0  0  0  0  0  0  0  0  0  0
    1.3143   -0.1185    1.8012 C   0  0  0  0  0  0  0  0  0  0  0  0
    0.7838   -0.5865    0.5344 C   0  0  0  0  0  0  0  0  0  0  0  0
    0.8373   -2.1108    0.0066 S   0  0  0  0  0  0  0  0  0  0  0  0
    1.6303    1.5029    3.1158 H   0  0  0  0  0  0  0  0  0  0  0  0
    0.7641    1.9000    1.5319 H   0  0  0  0  0  0  0  0  0  0  0  0
    1.7832   -0.8592    2.4392 H   0  0  0  0  0  0  0  0  0  0  0  0
  1  2  3  0
  1  5  1  0
  2  3  1  0
  3  4  1  0
  3  7  1  0
  4  8  1  0
  4  9  1  0
  4 10  1  0
  6 13  1  0
 11 12  2  3
 11 15  1  0
 11 16  1  0
 12 13  1  0
 12 17  1  0
 13 14  2  0
M  RAD  1   3   2
M  END
>  <reaction>  (7) 
rxn_1299

>  <mol_properties>  (7) 
{"1": {"label": "*0", "atom_type": "Ct"}, "2": {"label": "*1", "atom_type": "Cs"}, "5": {"label": "*2", "atom_type": "H0"}, "12": {"label": "*3", "atom_type": "CS"}, "13": {"label": "*4", "atom_type": "S2d"}}

>  <type>  (7) 
unop_3

>  <geom_source>  (7) 
Heuristics

$$$$

     RDKit          3D

 17 15  0  0  0  0  0  0  0  0999 V2000
   -1.2991    0.7534   -2.9367 C   0  0  0  0  0  0  0  0  0  0  0  0
   -1.2991    0.7534   -1.7390 C   0  0  0  0  0  0  0  0  0  0  0  0
   -1.2991    0.7816   -0.2798 C   0  0  0  0  0  3  0  0  0  0  0  0
   -1.2991    2.2030    0.2858 C   0  0  0  0  0  0  0  0  0  0  0  0
   -1.2991    0.7534   -4.0000 H   0  0  0  0  0  0  0  0  0  0  0  0
   -0.2486    0.1275    0.1543 H   0  0  0  0  0  0  0  0  0  0  0  0
   -2.1747    0.2366    0.0819 H   0  0  0  0  0  0  0  0  0  0  0  0
   -2.1814    2.7509   -0.0457 H   0  0  0  0  0  0  0  0  0  0  0  0
   -1.2991    2.1757    1.3761 H   0  0  0  0  0  0  0  0  0  0  0  0
   -0.4169    2.7509   -0.0457 H   0  0  0  0  0  0  0  0  0  0  0  0
    0.3585   -2.3412   -0.9715 C   0  0  0  0  0  0  0  0  0  0  0  0
    0.8609   -1.9192    0.1876 C   0  0  0  0  0  0  0  0  0  0  0  0
    0.8007   -0.5257    0.5877 C   0  0  0  0  0  0  0  0  0  0  0  0
    1.3812    0.0742    1.9690 S   0  0  0  0  0  0  0  0  0  0  0  0
    0.4060   -3.3818   -1.2652 H   0  0  0  0  0  0  0  0  0  0  0  0
   -0.1168   -1.6538   -1.6625 H   0  0  0  0  0  0  0  0  0  0  0  0
    1.3361   -2.6067    0.8784 H   0  0  0  0  0  0  0  0  0  0  0  0
  1  2  3  0
  1  5  1  0
  2  3  1  0
  3  4  1  0
  3  7  1  0
  4  8  1  0
  4  9  1  0
  4 10  1  0
  6 13  1  0
 11 12  2  3
 11 15  1  0
 11 16  1  0
 12 13  1  0
 12 17  1  0
 13 14  2  0
M  RAD  1   3   2
M  END
>  <reaction>  (8) 
rxn_1299

>  <mol_properties>  (8) 
{"1": {"label": "*0", "atom_type": "Ct"}, "2": {"label": "*1", "atom_type": "Cs"}, "5": {"label": "*2", "atom_type": "H0"}, "12": {"label": "*3", "atom_type": "CS"}, "13": {"label": "*4", "atom_type": "S2d"}}

>  <type>  (8) 
unop_4

>  <geom_source>  (8) 
Heuristics

$$$$

     RDKit          3D

 17 15  0  0  0  0  0  0  0  0999 V2000
   -1.3850    0.6680   -2.9438 C   0  0  0  0  0  0  0  0  0  0  0  0
   -1.3850    0.6680   -1.7461 C   0  0  0  0  0  0  0  0  0  0  0  0
   -1.3850    0.6962   -0.2869 C   0  0  0  0  0  3  0  0  0  0  0  0
   -1.3850    2.1176    0.2787 C   0  0  0  0  0  0  0  0  0  0  0  0
   -1.3850    0.6680   -4.0071 H   0  0  0  0  0  0  0  0  0  0  0  0
   -0.3344    0.0421    0.1471 H   0  0  0  0  0  0  0  0  0  0  0  0
   -2.2606    0.1511    0.0748 H   0  0  0  0  0  0  0  0  0  0  0  0
   -2.2673    2.6654   -0.0528 H   0  0  0  0  0  0  0  0  0  0  0  0
   -1.3850    2.0903    1.3690 H   0  0  0  0  0  0  0  0  0  0  0  0
   -0.5028    2.6654   -0.0528 H   0  0  0  0  0  0  0  0  0  0  0  0
   -0.0406   -0.0912    2.8349 C   0  0  0  0  0  0  0  0  0  0  0  0
    0.8464   -0.6663    2.0246 C   0  0  0  0  0  0  0  0  0  0  0  0
    0.7148   -0.6112    0.5806 C   0  0  0  0  0  0  0  0  0  0  0  0
    1.7377   -1.2767   -0.4755 S   0  0  0  0  0  0  0  0  0  0  0  0
    0.0622   -0.1352    3.9114 H   0  0  0  0  0  0  0  0  0  0  0  0
   -0.8989    0.4424    2.4418 H   0  0  0  0  0  0  0  0  0  0  0  0
    1.7045   -1.1998    2.4179 H   0  0  0  0  0  0  0  0  0  0  0  0
  1  2  3  0
  1  5  1  0
  2  3  1  0
  3  4  1  0
  3  7  1  0
  4  8  1  0
  4  9  1  0
  4 10  1  0
  6 13  1  0
 11 12  2  3
 11 15  1  0
 11 16  1  0
 12 13  1  0
 12 17  1  0
 13 14  2  0
M  RAD  1   3   2
M  END
>  <reaction>  (9) 
rxn_1299

>  <mol_properties>  (9) 
{"1": {"label": "*0", "atom_type": "Ct"}, "2": {"label": "*1", "atom_type": "Cs"}, "5": {"label": "*2", "atom_type": "H0"}, "12": {"label": "*3", "atom_type": "CS"}, "13": {"label": "*4", "atom_type": "S2d"}}

>  <type>  (9) 
unop_5

>  <geom_source>  (9) 
Heuristics

$$$$

     RDKit          3D

 17 15  0  0  0  0  0  0  0  0999 V2000
   -1.2859    0.6988   -3.0021 C   0  0  0  0  0  0  0  0  0  0  0  0
   -1.2859    0.6988   -1.8044 C   0  0  0  0  0  0  0  0  0  0  0  0
   -1.2859    0.7270   -0.3452 C   0  0  0  0  0  3  0  0  0  0  0  0
   -1.2859    2.1484    0.2204 C   0  0  0  0  0  0  0  0  0  0  0  0
   -1.2859    0.6988   -4.0654 H   0  0  0  0  0  0  0  0  0  0  0  0
   -0.2353    0.0729    0.0888 H   0  0  0  0  0  0  0  0  0  0  0  0
   -2.1614    0.1819    0.0165 H   0  0  0  0  0  0  0  0  0  0  0  0
   -2.1681    2.6962   -0.1111 H   0  0  0  0  0  0  0  0  0  0  0  0
   -1.2859    2.1211    1.3107 H   0  0  0  0  0  0  0  0  0  0  0  0
   -0.4036    2.6962   -0.1111 H   0  0  0  0  0  0  0  0  0  0  0  0
   -0.1268   -2.7408   -0.0861 C   0  0  0  0  0  0  0  0  0  0  0  0
    0.6013   -1.9981    0.7460 C   0  0  0  0  0  0  0  0  0  0  0  0
    0.8140   -0.5804    0.5223 C   0  0  0  0  0  0  0  0  0  0  0  0
    1.6786    0.3949    1.4742 S   0  0  0  0  0  0  0  0  0  0  0  0
   -0.2824   -3.7980    0.0853 H   0  0  0  0  0  0  0  0  0  0  0  0
   -0.5900   -2.3095   -0.9667 H   0  0  0  0  0  0  0  0  0  0  0  0
    1.0643   -2.4297    1.6264 H   0  0  0  0  0  0  0  0  0  0  0  0
  1  2  3  0
  1  5  1  0
  2  3  1  0
  3  4  1  0
  3  7  1  0
  4  8  1  0
  4  9  1  0
  4 10  1  0
  6 13  1  0
 11 12  2  3
 11 15  1  0
 11 16  1  0
 12 13  1  0
 12 17  1  0
 13 14  2  0
M  RAD  1   3   2
M  END
>  <reaction>  (10) 
rxn_1299

>  <mol_properties>  (10) 
{"1": {"label": "*0", "atom_type": "Ct"}, "2": {"label": "*1", "atom_type": "Cs"}, "5": {"label": "*2", "atom_type": "H0"}, "12": {"label": "*3", "atom_type": "CS"}, "13": {"label": "*4", "atom_type": "S2d"}}

>  <type>  (10) 
unop_6

>  <geom_source>  (10) 
Heuristics

$$$$

     RDKit          3D

 17 15  0  0  0  0  0  0  0  0999 V2000
   -1.3185    0.6254   -3.0243 C   0  0  0  0  0  0  0  0  0  0  0  0
   -1.3185    0.6254   -1.8266 C   0  0  0  0  0  0  0  0  0  0  0  0
   -1.3185    0.6536   -0.3675 C   0  0  0  0  0  3  0  0  0  0  0  0
   -1.3184    2.0750    0.1982 C   0  0  0  0  0  0  0  0  0  0  0  0
   -1.3185    0.6254   -4.0876 H   0  0  0  0  0  0  0  0  0  0  0  0
   -0.2679   -0.0005    0.0666 H   0  0  0  0  0  0  0  0  0  0  0  0
   -2.1940    0.1085   -0.0057 H   0  0  0  0  0  0  0  0  0  0  0  0
   -2.2007    2.6229   -0.1333 H   0  0  0  0  0  0  0  0  0  0  0  0
   -1.3184    2.0477    1.2884 H   0  0  0  0  0  0  0  0  0  0  0  0
   -0.4362    2.6228   -0.1333 H   0  0  0  0  0  0  0  0  0  0  0  0
   -0.5118   -2.6371    1.0628 C   0  0  0  0  0  0  0  0  0  0  0  0
    0.4839   -1.7976    1.3418 C   0  0  0  0  0  0  0  0  0  0  0  0
    0.7814   -0.6538    0.5001 C   0  0  0  0  0  0  0  0  0  0  0  0
    1.9643    0.4130    0.7596 S   0  0  0  0  0  0  0  0  0  0  0  0
   -0.7295   -3.4889    1.6939 H   0  0  0  0  0  0  0  0  0  0  0  0
   -1.1403   -2.4948    0.1906 H   0  0  0  0  0  0  0  0  0  0  0  0
    1.1121   -1.9401    2.2140 H   0  0  0  0  0  0  0  0  0  0  0  0
  1  2  3  0
  1  5  1  0
  2  3  1  0
  3  4  1  0
  3  7  1  0
  4  8  1  0
  4  9  1  0
  4 10  1  0
  6 13  1  0
 11 12  2  3
 11 15  1  0
 11 16  1  0
 12 13  1  0
 12 17  1  0
 13 14  2  0
M  RAD  1   3   2
M  END
>  <reaction>  (11) 
rxn_1299

>  <mol_properties>  (11) 
{"1": {"label": "*0", "atom_type": "Ct"}, "2": {"label": "*1", "atom_type": "Cs"}, "5": {"label": "*2", "atom_type": "H0"}, "12": {"label": "*3", "atom_type": "CS"}, "13": {"label": "*4", "atom_type": "S2d"}}

>  <type>  (11) 
unop_7

>  <geom_source>  (11) 
Heuristics

$$$$

     RDKit          3D

 17 15  0  0  0  0  0  0  0  0999 V2000
   -1.3711    0.5636   -2.9995 C   0  0  0  0  0  0  0  0  0  0  0  0
   -1.3711    0.5636   -1.8018 C   0  0  0  0  0  0  0  0  0  0  0  0
   -1.3711    0.5918   -0.3426 C   0  0  0  0  0  3  0  0  0  0  0  0
   -1.3711    2.0132    0.2230 C   0  0  0  0  0  0  0  0  0  0  0  0
   -1.3711    0.5636   -4.0628 H   0  0  0  0  0  0  0  0  0  0  0  0
   -0.3205   -0.0623    0.0915 H   0  0  0  0  0  0  0  0  0  0  0  0
   -2.2466    0.0468    0.0191 H   0  0  0  0  0  0  0  0  0  0  0  0
   -2.2533    2.5611   -0.1085 H   0  0  0  0  0  0  0  0  0  0  0  0
   -1.3711    1.9859    1.3133 H   0  0  0  0  0  0  0  0  0  0  0  0
   -0.4889    2.5611   -0.1085 H   0  0  0  0  0  0  0  0  0  0  0  0
    2.2615    1.0465   -0.1594 C   0  0  0  0  0  0  0  0  0  0  0  0
    1.9199    0.0930    0.7056 C   0  0  0  0  0  0  0  0  0  0  0  0
    0.7287   -0.7155    0.5249 C   0  0  0  0  0  0  0  0  0  0  0  0
    0.2382   -1.8891    1.5183 S   0  0  0  0  0  0  0  0  0  0  0  0
    3.1511    1.6469   -0.0200 H   0  0  0  0  0  0  0  0  0  0  0  0
    1.6574    1.2543   -1.0356 H   0  0  0  0  0  0  0  0  0  0  0  0
    2.5242   -0.1145    1.5816 H   0  0  0  0  0  0  0  0  0  0  0  0
  1  2  3  0
  1  5  1  0
  2  3  1  0
  3  4  1  0
  3  7  1  0
  4  8  1  0
  4  9  1  0
  4 10  1  0
  6 13  1  0
 11 12  2  3
 11 15  1  0
 11 16  1  0
 12 13  1  0
 12 17  1  0
 13 14  2  0
M  RAD  1   3   2
M  END
>  <reaction>  (12) 
rxn_1299

>  <mol_properties>  (12) 
{"1": {"label": "*0", "atom_type": "Ct"}, "2": {"label": "*1", "atom_type": "Cs"}, "5": {"label": "*2", "atom_type": "H0"}, "12": {"label": "*3", "atom_type": "CS"}, "13": {"label": "*4", "atom_type": "S2d"}}

>  <type>  (12) 
unop_8

>  <geom_source>  (12) 
Heuristics

$$$$

     RDKit          3D

 17 15  0  0  0  0  0  0  0  0999 V2000
   -1.3533    0.7529   -2.8649 C   0  0  0  0  0  0  0  0  0  0  0  0
   -1.3533    0.7529   -1.6672 C   0  0  0  0  0  0  0  0  0  0  0  0
   -1.3533    0.7811   -0.2081 C   0  0  0  0  0  3  0  0  0  0  0  0
   -1.3533    2.2025    0.3575 C   0  0  0  0  0  0  0  0  0  0  0  0
   -1.3533    0.7529   -3.9282 H   0  0  0  0  0  0  0  0  0  0  0  0
   -0.3027    0.1270    0.2260 H   0  0  0  0  0  0  0  0  0  0  0  0
   -2.2288    0.2360    0.1536 H   0  0  0  0  0  0  0  0  0  0  0  0
   -2.2355    2.7503    0.0261 H   0  0  0  0  0  0  0  0  0  0  0  0
   -1.3533    2.1752    1.4478 H   0  0  0  0  0  0  0  0  0  0  0  0
   -0.4710    2.7503    0.0261 H   0  0  0  0  0  0  0  0  0  0  0  0
    0.8230   -1.6845   -1.4795 C   0  0  0  0  0  0  0  0  0  0  0  0
    1.1946   -1.6036   -0.2030 C   0  0  0  0  0  0  0  0  0  0  0  0
    0.7465   -0.5263    0.6595 C   0  0  0  0  0  0  0  0  0  0  0  0
    1.1445   -0.3483    2.2134 S   0  0  0  0  0  0  0  0  0  0  0  0
    1.1601   -2.4902   -2.1187 H   0  0  0  0  0  0  0  0  0  0  0  0
    0.1677   -0.9430   -1.9230 H   0  0  0  0  0  0  0  0  0  0  0  0
    1.8498   -2.3452    0.2401 H   0  0  0  0  0  0  0  0  0  0  0  0
  1  2  3  0
  1  5  1  0
  2  3  1  0
  3  4  1  0
  3  7  1  0
  4  8  1  0
  4  9  1  0
  4 10  1  0
  6 13  1  0
 11 12  2  3
 11 15  1  0
 11 16  1  0
 12 13  1  0
 12 17  1  0
 13 14  2  0
M  RAD  1   3   2
M  END
>  <reaction>  (13) 
rxn_1299

>  <mol_properties>  (13) 
{"1": {"label": "*0", "atom_type": "Ct"}, "2": {"label": "*1", "atom_type": "Cs"}, "5": {"label": "*2", "atom_type": "H0"}, "12": {"label": "*3", "atom_type": "CS"}, "13": {"label": "*4", "atom_type": "S2d"}}

>  <type>  (13) 
unop_9

>  <geom_source>  (13) 
Heuristics

$$$$

     RDKit          3D

 17 15  0  0  0  0  0  0  0  0999 V2000
   -1.4250    0.5539   -2.9328 C   0  0  0  0  0  0  0  0  0  0  0  0
   -1.4250    0.5539   -1.7351 C   0  0  0  0  0  0  0  0  0  0  0  0
   -1.4250    0.5821   -0.2759 C   0  0  0  0  0  3  0  0  0  0  0  0
   -1.4250    2.0035    0.2897 C   0  0  0  0  0  0  0  0  0  0  0  0
   -1.4250    0.5539   -3.9961 H   0  0  0  0  0  0  0  0  0  0  0  0
   -0.3744   -0.0720    0.1581 H   0  0  0  0  0  0  0  0  0  0  0  0
   -2.3005    0.0370    0.0858 H   0  0  0  0  0  0  0  0  0  0  0  0
   -2.3072    2.5513   -0.0418 H   0  0  0  0  0  0  0  0  0  0  0  0
   -1.4250    1.9762    1.3799 H   0  0  0  0  0  0  0  0  0  0  0  0
   -0.5427    2.5513   -0.0418 H   0  0  0  0  0  0  0  0  0  0  0  0
    2.0948    0.4122   -1.0247 C   0  0  0  0  0  0  0  0  0  0  0  0
    1.9509   -0.1907    0.1542 C   0  0  0  0  0  0  0  0  0  0  0  0
    0.6749   -0.7253    0.5916 C   0  0  0  0  0  0  0  0  0  0  0  0
    0.4080   -1.4691    1.9988 S   0  0  0  0  0  0  0  0  0  0  0  0
    3.0489    0.8092   -1.3463 H   0  0  0  0  0  0  0  0  0  0  0  0
    1.2577    0.5259   -1.7047 H   0  0  0  0  0  0  0  0  0  0  0  0
    2.7880   -0.3042    0.8338 H   0  0  0  0  0  0  0  0  0  0  0  0
  1  2  3  0
  1  5  1  0
  2  3  1  0
  3  4  1  0
  3  7  1  0
  4  8  1  0
  4  9  1  0
  4 10  1  0
  6 13  1  0
 11 12  2  3
 11 15  1  0
 11 16  1  0
 12 13  1  0
 12 17  1  0
 13 14  2  0
M  RAD  1   3   2
M  END
>  <reaction>  (14) 
rxn_1299

>  <mol_properties>  (14) 
{"1": {"label": "*0", "atom_type": "Ct"}, "2": {"label": "*1", "atom_type": "Cs"}, "5": {"label": "*2", "atom_type": "H0"}, "12": {"label": "*3", "atom_type": "CS"}, "13": {"label": "*4", "atom_type": "S2d"}}

>  <type>  (14) 
unop_10

>  <geom_source>  (14) 
Heuristics

$$$$

     RDKit          3D

 17 15  0  0  0  0  0  0  0  0999 V2000
   -1.3784    0.5938   -2.9881 C   0  0  0  0  0  0  0  0  0  0  0  0
   -1.3784    0.5938   -1.7904 C   0  0  0  0  0  0  0  0  0  0  0  0
   -1.3784    0.6220   -0.3312 C   0  0  0  0  0  3  0  0  0  0  0  0
   -1.3783    2.0434    0.2344 C   0  0  0  0  0  0  0  0  0  0  0  0
   -1.3784    0.5938   -4.0514 H   0  0  0  0  0  0  0  0  0  0  0  0
   -0.3278   -0.0321    0.1028 H   0  0  0  0  0  0  0  0  0  0  0  0
   -2.2539    0.0770    0.0305 H   0  0  0  0  0  0  0  0  0  0  0  0
   -2.2606    2.5913   -0.0971 H   0  0  0  0  0  0  0  0  0  0  0  0
   -1.3783    2.0161    1.3246 H   0  0  0  0  0  0  0  0  0  0  0  0
   -0.4961    2.5913   -0.0971 H   0  0  0  0  0  0  0  0  0  0  0  0
   -0.6309   -1.7968    2.2269 C   0  0  0  0  0  0  0  0  0  0  0  0
    0.5501   -1.3304    1.8246 C   0  0  0  0  0  0  0  0  0  0  0  0
    0.7215   -0.6853    0.5363 C   0  0  0  0  0  0  0  0  0  0  0  0
    2.1104   -0.0919   -0.0325 S   0  0  0  0  0  0  0  0  0  0  0  0
   -0.7535   -2.2772    3.1890 H   0  0  0  0  0  0  0  0  0  0  0  0
   -1.5127   -1.7106    1.6017 H   0  0  0  0  0  0  0  0  0  0  0  0
    1.4316   -1.4168    2.4500 H   0  0  0  0  0  0  0  0  0  0  0  0
  1  2  3  0
  1  5  1  0
  2  3  1  0
  3  4  1  0
  3  7  1  0
  4  8  1  0
  4  9  1  0
  4 10  1  0
  6 13  1  0
 11 12  2  3
 11 15  1  0
 11 16  1  0
 12 13  1  0
 12 17  1  0
 13 14  2  0
M  RAD  1   3   2
M  END
>  <reaction>  (15) 
rxn_1299

>  <mol_properties>  (15) 
{"1": {"label": "*0", "atom_type": "Ct"}, "2": {"label": "*1", "atom_type": "Cs"}, "5": {"label": "*2", "atom_type": "H0"}, "12": {"label": "*3", "atom_type": "CS"}, "13": {"label": "*4", "atom_type": "S2d"}}

>  <type>  (15) 
unop_11

>  <geom_source>  (15) 
Heuristics

$$$$

     RDKit          3D

 17 15  0  0  0  0  0  0  0  0999 V2000
   -1.4172    0.6904   -2.8322 C   0  0  0  0  0  0  0  0  0  0  0  0
   -1.4172    0.6904   -1.6345 C   0  0  0  0  0  0  0  0  0  0  0  0
   -1.4172    0.7186   -0.1753 C   0  0  0  0  0  3  0  0  0  0  0  0
   -1.4172    2.1400    0.3903 C   0  0  0  0  0  0  0  0  0  0  0  0
   -1.4172    0.6904   -3.8955 H   0  0  0  0  0  0  0  0  0  0  0  0
   -0.3666    0.0645    0.2587 H   0  0  0  0  0  0  0  0  0  0  0  0
   -2.2927    0.1735    0.1864 H   0  0  0  0  0  0  0  0  0  0  0  0
   -2.2994    2.6878    0.0588 H   0  0  0  0  0  0  0  0  0  0  0  0
   -1.4172    2.1127    1.4806 H   0  0  0  0  0  0  0  0  0  0  0  0
   -0.5349    2.6878    0.0588 H   0  0  0  0  0  0  0  0  0  0  0  0
    1.2483   -0.9906   -1.6404 C   0  0  0  0  0  0  0  0  0  0  0  0
    1.5296   -1.1430   -0.3474 C   0  0  0  0  0  0  0  0  0  0  0  0
    0.6827   -0.5888    0.6922 C   0  0  0  0  0  0  0  0  0  0  0  0
    0.9443   -0.7231    2.2791 S   0  0  0  0  0  0  0  0  0  0  0  0
    1.8835   -1.4060   -2.4120 H   0  0  0  0  0  0  0  0  0  0  0  0
    0.3703   -0.4432   -1.9647 H   0  0  0  0  0  0  0  0  0  0  0  0
    2.4077   -1.6904   -0.0235 H   0  0  0  0  0  0  0  0  0  0  0  0
  1  2  3  0
  1  5  1  0
  2  3  1  0
  3  4  1  0
  3  7  1  0
  4  8  1  0
  4  9  1  0
  4 10  1  0
  6 13  1  0
 11 12  2  3
 11 15  1  0
 11 16  1  0
 12 13  1  0
 12 17  1  0
 13 14  2  0
M  RAD  1   3   2
M  END
>  <reaction>  (16) 
rxn_1299

>  <mol_properties>  (16) 
{"1": {"label": "*0", "atom_type": "Ct"}, "2": {"label": "*1", "atom_type": "Cs"}, "5": {"label": "*2", "atom_type": "H0"}, "12": {"label": "*3", "atom_type": "CS"}, "13": {"label": "*4", "atom_type": "S2d"}}

>  <type>  (16) 
unop_12

>  <geom_source>  (16) 
Heuristics

$$$$

     RDKit          3D

 17 15  0  0  0  0  0  0  0  0999 V2000
    1.7719   -2.1015    0.3917 S   0  0  0  0  0  0  0  0  0  0  0  0
   -1.9539   -1.0046   -1.4951 C   0  0  0  0  0  0  0  0  0  0  0  0
   -1.3040   -0.4978   -0.2158 C   0  0  0  0  0  3  0  0  0  0  0  0
    2.1150    0.6125    0.5831 C   0  0  0  0  0  0  0  0  0  0  0  0
    3.3395    0.5131    1.1007 C   0  0  0  0  0  0  0  0  0  0  0  0
    1.2831   -0.5469    0.2107 C   0  0  0  0  0  0  0  0  0  0  0  0
   -1.8768    0.7925    0.1826 C   0  0  0  0  0  0  0  0  0  0  0  0
   -2.3469    1.8531    0.5108 C   0  0  0  0  0  0  0  0  0  0  0  0
   -1.4954   -1.9745   -1.7793 H   0  0  0  0  0  0  0  0  0  0  0  0
   -3.0446   -1.1543   -1.3437 H   0  0  0  0  0  0  0  0  0  0  0  0
   -1.7901   -0.2801   -2.3211 H   0  0  0  0  0  0  0  0  0  0  0  0
    1.7000    1.5995    0.4238 H   0  0  0  0  0  0  0  0  0  0  0  0
   -1.4494   -1.2350    0.6017 H   0  0  0  0  0  0  0  0  0  0  0  0
    3.8912    1.4102    1.3499 H   0  0  0  0  0  0  0  0  0  0  0  0
    3.8092   -0.4440    1.2837 H   0  0  0  0  0  0  0  0  0  0  0  0
    0.1109   -0.3264   -0.2826 H   0  0  0  0  0  0  0  0  0  0  0  0
   -2.7598    2.7840    0.7987 H   0  0  0  0  0  0  0  0  0  0  0  0
  1  6  2  0
  2  3  1  0
  2  9  1  0
  2 10  1  0
  2 11  1  0
  3  7  1  0
  3 13  1  0
  4  5  2  3
  4  6  1  0
  4 12  1  0
  5 14  1  0
  5 15  1  0
  6 16  1  0
  7  8  3  0
  8 17  1  0
M  RAD  1   3   2
M  END
>  <reaction>  (17) 
rxn_1299

>  <mol_properties>  (17) 
{"1": {"label": "*0", "atom_type": "Ct"}, "2": {"label": "*1", "atom_type": "Cs"}, "5": {"label": "*2", "atom_type": "H0"}, "12": {"label": "*3", "atom_type": "CS"}, "13": {"label": "*4", "atom_type": "S2d"}}

>  <type>  (17) 
unop_13

>  <geom_source>  (17) 
AutoTST

$$$$
