
     RDKit          3D

 13 12  0  0  0  0  0  0  0  0999 V2000
    3.0977   -0.3549   -0.5105 C   0  0  0  0  0  0  0  0  0  0  0  0
    2.0556    0.4221   -0.2627 C   0  0  0  0  0  0  0  0  0  0  0  0
    0.6313   -0.0354   -0.2366 C   0  0  0  0  0  0  0  0  0  0  0  0
   -0.2567    0.6038   -1.2694 C   0  0  0  0  0  0  0  0  0  0  0  0
    0.1459    1.3456   -2.2891 C   0  0  0  0  0  0  0  0  0  0  0  0
    4.1081    0.0344   -0.5074 H   0  0  0  0  0  0  0  0  0  0  0  0
    2.9777   -1.4116   -0.7243 H   0  0  0  0  0  0  0  0  0  0  0  0
    2.2171    1.4781   -0.0618 H   0  0  0  0  0  0  0  0  0  0  0  0
    0.5865   -1.1233   -0.3540 H   0  0  0  0  0  0  0  0  0  0  0  0
    0.2065    0.1743    0.7521 H   0  0  0  0  0  0  0  0  0  0  0  0
   -1.3190    0.4126   -1.1445 H   0  0  0  0  0  0  0  0  0  0  0  0
    1.1948    1.5564   -2.4628 H   0  0  0  0  0  0  0  0  0  0  0  0
   -0.5644    1.7621   -2.9918 H   0  0  0  0  0  0  0  0  0  0  0  0
  1  2  2  3
  1  6  1  0
  1  7  1  0
  2  3  1  0
  2  8  1  0
  3  4  1  0
  3  9  1  0
  3 10  1  0
  4  5  2  3
  4 11  1  0
  5 12  1  0
  5 13  1  0
M  END
>  <reaction>  (1) 
rxn_1156

>  <mol_properties>  (1) 
{"2": {"label": "donator", "atom_type": "Cs"}, "8": {"label": "d_hydrogen", "atom_type": "H0"}}

>  <type>  (1) 
r1h

$$$$

     RDKit          3D

  9  8  0  0  0  0  0  0  0  0999 V2000
    2.3991   -0.1292   -0.2384 S   0  0  0  0  0  0  0  0  0  0  0  0
    0.7460    0.2807    0.0931 C   0  0  0  0  0  3  0  0  0  0  0  0
   -0.3131   -0.5719   -0.2043 C   0  0  0  0  0  0  0  0  0  0  0  0
   -0.2286   -1.8095   -0.7775 C   0  0  0  0  0  0  0  0  0  0  0  0
    2.9373    1.0009    0.2312 H   0  0  0  0  0  0  0  0  0  0  0  0
    0.5618    1.2421    0.5487 H   0  0  0  0  0  0  0  0  0  0  0  0
   -1.2978   -0.1954    0.0537 H   0  0  0  0  0  0  0  0  0  0  0  0
    0.7207   -2.2479   -1.0607 H   0  0  0  0  0  0  0  0  0  0  0  0
   -1.1177   -2.3938   -0.9670 H   0  0  0  0  0  0  0  0  0  0  0  0
  1  2  1  0
  1  5  1  0
  2  3  1  0
  2  6  1  0
  3  4  2  3
  3  7  1  0
  4  8  1  0
  4  9  1  0
M  RAD  1   2   2
M  END
>  <reaction>  (2) 
rxn_1156

>  <mol_properties>  (2) 
{"1": {"label": "acceptor", "atom_type": "Cs"}}

>  <type>  (2) 
r2

$$$$

     RDKit          3D

 10  9  0  0  0  0  0  0  0  0999 V2000
    2.2097   -0.5315    0.2575 S   0  0  0  0  0  0  0  0  0  0  0  0
    0.5401   -0.7188   -0.4494 C   0  0  0  0  0  0  0  0  0  0  0  0
   -0.5263   -0.1678    0.4365 C   0  0  0  0  0  0  0  0  0  0  0  0
   -1.3394    0.8185    0.0912 C   0  0  0  0  0  0  0  0  0  0  0  0
    2.1701    0.8016    0.3806 H   0  0  0  0  0  0  0  0  0  0  0  0
    0.4238   -1.7978   -0.5701 H   0  0  0  0  0  0  0  0  0  0  0  0
    0.5053   -0.2663   -1.4400 H   0  0  0  0  0  0  0  0  0  0  0  0
   -0.6005   -0.6141    1.4236 H   0  0  0  0  0  0  0  0  0  0  0  0
   -2.0960    1.1907    0.7700 H   0  0  0  0  0  0  0  0  0  0  0  0
   -1.2784    1.2877   -0.8850 H   0  0  0  0  0  0  0  0  0  0  0  0
  1  2  1  0
  1  5  1  0
  2  3  1  0
  2  6  1  0
  2  7  1  0
  3  4  2  3
  3  8  1  0
  4  9  1  0
  4 10  1  0
M  END
>  <reaction>  (3) 
rxn_1156

>  <mol_properties>  (3) 
{"1": {"label": "acceptor", "atom_type": "Cs"}, "9": {"label": "a_hydrogen", "atom_type": "H0"}}

>  <type>  (3) 
r2h

$$$$

     RDKit          3D

 22 20  0  0  0  0  0  0  0  0999 V2000
   -2.2191    1.4067   -0.2481 S   0  0  0  0  0  0  0  0  0  0  0  0
   -0.4561    1.3972   -0.0559 C   0  0  0  0  0  3  0  0  0  0  0  0
    0.4001    1.3351   -1.2294 C   0  0  0  0  0  0  0  0  0  0  0  0
    1.6896    1.6833   -1.2314 C   0  0  0  0  0  0  0  0  0  0  0  0
   -2.2907    0.2902   -0.9888 H   0  0  0  0  0  0  0  0  0  0  0  0
   -0.1608    2.1228    0.6993 H   0  0  0  0  0  0  0  0  0  0  0  0
   -0.0394    0.9163   -2.1294 H   0  0  0  0  0  0  0  0  0  0  0  0
    2.1664    2.0958   -0.3496 H   0  0  0  0  0  0  0  0  0  0  0  0
    2.3018    1.5663   -2.1155 H   0  0  0  0  0  0  0  0  0  0  0  0
   -0.2097   -2.1285   -1.0052 C   0  0  0  0  0  0  0  0  0  0  0  0
   -0.6127   -1.8784    0.2423 C   0  0  0  0  0  0  0  0  0  0  0  0
    0.0271   -0.9519    1.1838 C   0  0  0  0  0  0  0  0  0  0  0  0
    1.4754   -0.9359    1.4266 C   0  0  0  0  0  0  0  0  0  0  0  0
    2.4134   -1.7020    0.8720 C   0  0  0  0  0  0  0  0  0  0  0  0
   -0.7698   -2.7971   -1.6464 H   0  0  0  0  0  0  0  0  0  0  0  0
    0.6808   -1.6733   -1.4206 H   0  0  0  0  0  0  0  0  0  0  0  0
   -1.5364   -2.3367    0.5832 H   0  0  0  0  0  0  0  0  0  0  0  0
   -0.1940    0.2318    0.6198 H   0  0  0  0  0  0  0  0  0  0  0  0
   -0.5444   -0.8108    2.1003 H   0  0  0  0  0  0  0  0  0  0  0  0
    1.7914   -0.1936    2.1555 H   0  0  0  0  0  0  0  0  0  0  0  0
    2.1755   -2.4811    0.1597 H   0  0  0  0  0  0  0  0  0  0  0  0
    3.4538   -1.5788    1.1427 H   0  0  0  0  0  0  0  0  0  0  0  0
  1  2  1  0
  1  5  1  0
  2  3  1  0
  2  6  1  0
  3  4  2  3
  3  7  1  0
  4  8  1  0
  4  9  1  0
 10 11  2  3
 10 15  1  0
 10 16  1  0
 11 12  1  0
 11 17  1  0
 12 13  1  0
 12 18  1  0
 12 19  1  0
 13 14  2  3
 13 20  1  0
 14 21  1  0
 14 22  1  0
M  RAD  1   2   2
M  END
>  <reaction>  (4) 
rxn_1156

>  <mol_properties>  (4) 
{"0": {"label": "*4", "atom_type": "S2s"}, "1": {"label": "*3", "atom_type": "Cs"}, "10": {"label": "*0", "atom_type": "Cd"}, "11": {"label": "*1", "atom_type": "Cs"}, "17": {"label": "*2", "atom_type": "H0"}}

>  <type>  (4) 
ts

$$$$

     RDKit          3D

 22 20  0  0  0  0  0  0  0  0999 V2000
   -1.8215    1.7558    0.1691 S   0  0  0  0  0  0  0  0  0  0  0  0
   -0.2861    0.9723   -0.4234 C   0  0  0  0  0  0  0  0  0  0  0  0
    0.0635    1.3708   -1.8179 C   0  0  0  0  0  0  0  0  0  0  0  0
    1.1797    2.0009   -2.1502 C   0  0  0  0  0  0  0  0  0  0  0  0
   -1.4185    3.0214   -0.0034 H   0  0  0  0  0  0  0  0  0  0  0  0
    0.5291    1.1883    0.2665 H   0  0  0  0  0  0  0  0  0  0  0  0
   -0.6725    1.1297   -2.5788 H   0  0  0  0  0  0  0  0  0  0  0  0
    1.9256    2.2621   -1.4071 H   0  0  0  0  0  0  0  0  0  0  0  0
    1.3890    2.2760   -3.1759 H   0  0  0  0  0  0  0  0  0  0  0  0
   -0.0463   -2.3943   -1.1057 C   0  0  0  0  0  0  0  0  0  0  0  0
   -0.0463   -2.3943    0.2175 C   0  0  0  0  0  0  0  0  0  0  0  0
   -0.0463   -1.1685    1.0755 C   0  0  0  0  0  3  0  0  0  0  0  0
    1.1634   -1.0141    1.9567 C   0  0  0  0  0  0  0  0  0  0  0  0
    2.2746   -1.7298    1.8843 C   0  0  0  0  0  0  0  0  0  0  0  0
   -0.0545   -3.3170   -1.6723 H   0  0  0  0  0  0  0  0  0  0  0  0
   -0.0400   -1.4689   -1.6717 H   0  0  0  0  0  0  0  0  0  0  0  0
   -0.0437   -3.3431    0.7480 H   0  0  0  0  0  0  0  0  0  0  0  0
   -0.1664   -0.0965    0.3250 H   0  0  0  0  0  0  0  0  0  0  0  0
   -0.9343   -1.1820    1.7183 H   0  0  0  0  0  0  0  0  0  0  0  0
    1.0907   -0.2291    2.7044 H   0  0  0  0  0  0  0  0  0  0  0  0
    2.4000   -2.5167    1.1494 H   0  0  0  0  0  0  0  0  0  0  0  0
    3.1028   -1.5455    2.5566 H   0  0  0  0  0  0  0  0  0  0  0  0
  1  2  1  0
  1  5  1  0
  2  3  1  0
  2  6  1  0
  2 18  1  0
  3  4  2  3
  3  7  1  0
  4  8  1  0
  4  9  1  0
 10 11  2  3
 10 15  1  0
 10 16  1  0
 11 12  1  0
 11 17  1  0
 12 13  1  0
 12 19  1  0
 13 14  2  3
 13 20  1  0
 14 21  1  0
 14 22  1  0
M  RAD  1  12   2
M  END
>  <reaction>  (5) 
rxn_1156

>  <mol_properties>  (5) 
{"0": {"label": "*4", "atom_type": "S2s"}, "1": {"label": "*3", "atom_type": "Cs"}, "10": {"label": "*0", "atom_type": "Cd"}, "11": {"label": "*1", "atom_type": "Cs"}, "17": {"label": "*2", "atom_type": "H0"}}

>  <type>  (5) 
unop_1

>  <geom_source>  (5) 
Heuristics

$$$$

     RDKit          3D

 22 20  0  0  0  0  0  0  0  0999 V2000
   -1.4242    0.5533   -1.6537 S   0  0  0  0  0  0  0  0  0  0  0  0
   -0.4530    1.1247   -0.2209 C   0  0  0  0  0  0  0  0  0  0  0  0
    0.6619    2.0376   -0.6072 C   0  0  0  0  0  0  0  0  0  0  0  0
    0.7711    3.2901   -0.1916 C   0  0  0  0  0  0  0  0  0  0  0  0
   -1.7767    1.7700   -2.0888 H   0  0  0  0  0  0  0  0  0  0  0  0
   -1.1124    1.5918    0.5099 H   0  0  0  0  0  0  0  0  0  0  0  0
    1.4015    1.6227   -1.2853 H   0  0  0  0  0  0  0  0  0  0  0  0
    0.0398    3.7309    0.4775 H   0  0  0  0  0  0  0  0  0  0  0  0
    1.5955    3.9186   -0.5030 H   0  0  0  0  0  0  0  0  0  0  0  0
   -0.2132   -2.2420   -0.9033 C   0  0  0  0  0  0  0  0  0  0  0  0
   -0.2132   -2.2420    0.4200 C   0  0  0  0  0  0  0  0  0  0  0  0
   -0.2132   -1.0162    1.2780 C   0  0  0  0  0  3  0  0  0  0  0  0
    0.9965   -0.8618    2.1592 C   0  0  0  0  0  0  0  0  0  0  0  0
    2.1076   -1.5775    2.0867 C   0  0  0  0  0  0  0  0  0  0  0  0
   -0.2214   -3.1647   -1.4698 H   0  0  0  0  0  0  0  0  0  0  0  0
   -0.2069   -1.3165   -1.4693 H   0  0  0  0  0  0  0  0  0  0  0  0
   -0.2107   -3.1907    0.9505 H   0  0  0  0  0  0  0  0  0  0  0  0
   -0.3333    0.0558    0.5274 H   0  0  0  0  0  0  0  0  0  0  0  0
   -1.1012   -1.0297    1.9207 H   0  0  0  0  0  0  0  0  0  0  0  0
    0.9238   -0.0768    2.9069 H   0  0  0  0  0  0  0  0  0  0  0  0
    2.2331   -2.3644    1.3519 H   0  0  0  0  0  0  0  0  0  0  0  0
    2.9359   -1.3932    2.7591 H   0  0  0  0  0  0  0  0  0  0  0  0
  1  2  1  0
  1  5  1  0
  2  3  1  0
  2  6  1  0
  2 18  1  0
  3  4  2  3
  3  7  1  0
  4  8  1  0
  4  9  1  0
 10 11  2  3
 10 15  1  0
 10 16  1  0
 11 12  1  0
 11 17  1  0
 12 13  1  0
 12 19  1  0
 13 14  2  3
 13 20  1  0
 14 21  1  0
 14 22  1  0
M  RAD  1  12   2
M  END
>  <reaction>  (6) 
rxn_1156

>  <mol_properties>  (6) 
{"0": {"label": "*4", "atom_type": "S2s"}, "1": {"label": "*3", "atom_type": "Cs"}, "10": {"label": "*0", "atom_type": "Cd"}, "11": {"label": "*1", "atom_type": "Cs"}, "17": {"label": "*2", "atom_type": "H0"}}

>  <type>  (6) 
unop_2

>  <geom_source>  (6) 
Heuristics

$$$$

     RDKit          3D

 22 20  0  0  0  0  0  0  0  0999 V2000
   -1.1420    2.1573    0.6136 S   0  0  0  0  0  0  0  0  0  0  0  0
   -0.2724    0.9651   -0.4563 C   0  0  0  0  0  0  0  0  0  0  0  0
   -0.6581    1.0905   -1.8920 C   0  0  0  0  0  0  0  0  0  0  0  0
    0.1901    1.3920   -2.8630 C   0  0  0  0  0  0  0  0  0  0  0  0
   -0.7214    3.2598   -0.0201 H   0  0  0  0  0  0  0  0  0  0  0  0
    0.8044    1.0676   -0.3250 H   0  0  0  0  0  0  0  0  0  0  0  0
   -1.7093    0.9360   -2.1159 H   0  0  0  0  0  0  0  0  0  0  0  0
    1.2429    1.5612   -2.6635 H   0  0  0  0  0  0  0  0  0  0  0  0
   -0.1363    1.4783   -3.8914 H   0  0  0  0  0  0  0  0  0  0  0  0
   -0.0325   -2.4016   -1.1386 C   0  0  0  0  0  0  0  0  0  0  0  0
   -0.0325   -2.4016    0.1846 C   0  0  0  0  0  0  0  0  0  0  0  0
   -0.0325   -1.1758    1.0426 C   0  0  0  0  0  3  0  0  0  0  0  0
    1.1772   -1.0214    1.9238 C   0  0  0  0  0  0  0  0  0  0  0  0
    2.2883   -1.7371    1.8514 C   0  0  0  0  0  0  0  0  0  0  0  0
   -0.0407   -3.3243   -1.7052 H   0  0  0  0  0  0  0  0  0  0  0  0
   -0.0262   -1.4761   -1.7046 H   0  0  0  0  0  0  0  0  0  0  0  0
   -0.0300   -3.3503    0.7151 H   0  0  0  0  0  0  0  0  0  0  0  0
   -0.1526   -0.1038    0.2921 H   0  0  0  0  0  0  0  0  0  0  0  0
   -0.9205   -1.1892    1.6854 H   0  0  0  0  0  0  0  0  0  0  0  0
    1.1045   -0.2364    2.6715 H   0  0  0  0  0  0  0  0  0  0  0  0
    2.4138   -2.5239    1.1165 H   0  0  0  0  0  0  0  0  0  0  0  0
    3.1165   -1.5528    2.5237 H   0  0  0  0  0  0  0  0  0  0  0  0
  1  2  1  0
  1  5  1  0
  2  3  1  0
  2  6  1  0
  2 18  1  0
  3  4  2  3
  3  7  1  0
  4  8  1  0
  4  9  1  0
 10 11  2  3
 10 15  1  0
 10 16  1  0
 11 12  1  0
 11 17  1  0
 12 13  1  0
 12 19  1  0
 13 14  2  3
 13 20  1  0
 14 21  1  0
 14 22  1  0
M  RAD  1  12   2
M  END
>  <reaction>  (7) 
rxn_1156

>  <mol_properties>  (7) 
{"0": {"label": "*4", "atom_type": "S2s"}, "1": {"label": "*3", "atom_type": "Cs"}, "10": {"label": "*0", "atom_type": "Cd"}, "11": {"label": "*1", "atom_type": "Cs"}, "17": {"label": "*2", "atom_type": "H0"}}

>  <type>  (7) 
unop_3

>  <geom_source>  (7) 
Heuristics

$$$$

     RDKit          3D

 22 20  0  0  0  0  0  0  0  0999 V2000
    0.6704    0.9975   -1.7163 S   0  0  0  0  0  0  0  0  0  0  0  0
   -0.7845    1.0615   -0.6200 C   0  0  0  0  0  0  0  0  0  0  0  0
   -0.5079    1.7681    0.6645 C   0  0  0  0  0  0  0  0  0  0  0  0
   -1.1379    2.8646    1.0569 C   0  0  0  0  0  0  0  0  0  0  0  0
    0.8553    2.3217   -1.7950 H   0  0  0  0  0  0  0  0  0  0  0  0
   -1.6249    1.5120   -1.1471 H   0  0  0  0  0  0  0  0  0  0  0  0
    0.2758    1.3401    1.2821 H   0  0  0  0  0  0  0  0  0  0  0  0
   -1.9171    3.3173    0.4529 H   0  0  0  0  0  0  0  0  0  0  0  0
   -0.8996    3.3475    1.9958 H   0  0  0  0  0  0  0  0  0  0  0  0
   -0.5446   -2.3052   -1.3023 C   0  0  0  0  0  0  0  0  0  0  0  0
   -0.5446   -2.3052    0.0209 C   0  0  0  0  0  0  0  0  0  0  0  0
   -0.5446   -1.0794    0.8789 C   0  0  0  0  0  3  0  0  0  0  0  0
    0.6651   -0.9250    1.7601 C   0  0  0  0  0  0  0  0  0  0  0  0
    1.7762   -1.6407    1.6877 C   0  0  0  0  0  0  0  0  0  0  0  0
   -0.5528   -3.2279   -1.8689 H   0  0  0  0  0  0  0  0  0  0  0  0
   -0.5383   -1.3797   -1.8683 H   0  0  0  0  0  0  0  0  0  0  0  0
   -0.5421   -3.2539    0.5514 H   0  0  0  0  0  0  0  0  0  0  0  0
   -0.6647   -0.0074    0.1284 H   0  0  0  0  0  0  0  0  0  0  0  0
   -1.4326   -1.0929    1.5217 H   0  0  0  0  0  0  0  0  0  0  0  0
    0.5924   -0.1400    2.5078 H   0  0  0  0  0  0  0  0  0  0  0  0
    1.9017   -2.4276    0.9528 H   0  0  0  0  0  0  0  0  0  0  0  0
    2.6044   -1.4564    2.3600 H   0  0  0  0  0  0  0  0  0  0  0  0
  1  2  1  0
  1  5  1  0
  2  3  1  0
  2  6  1  0
  2 18  1  0
  3  4  2  3
  3  7  1  0
  4  8  1  0
  4  9  1  0
 10 11  2  3
 10 15  1  0
 10 16  1  0
 11 12  1  0
 11 17  1  0
 12 13  1  0
 12 19  1  0
 13 14  2  3
 13 20  1  0
 14 21  1  0
 14 22  1  0
M  RAD  1  12   2
M  END
>  <reaction>  (8) 
rxn_1156

>  <mol_properties>  (8) 
{"0": {"label": "*4", "atom_type": "S2s"}, "1": {"label": "*3", "atom_type": "Cs"}, "10": {"label": "*0", "atom_type": "Cd"}, "11": {"label": "*1", "atom_type": "Cs"}, "17": {"label": "*2", "atom_type": "H0"}}

>  <type>  (8) 
unop_4

>  <geom_source>  (8) 
Heuristics

$$$$

     RDKit          3D

 22 20  0  0  0  0  0  0  0  0999 V2000
   -0.1958    2.3546    0.6247 S   0  0  0  0  0  0  0  0  0  0  0  0
   -0.2141    0.9766   -0.5683 C   0  0  0  0  0  0  0  0  0  0  0  0
   -1.4720    0.9236   -1.3687 C   0  0  0  0  0  0  0  0  0  0  0  0
   -1.5160    1.0374   -2.6872 C   0  0  0  0  0  0  0  0  0  0  0  0
   -0.3689    3.3319   -0.2746 H   0  0  0  0  0  0  0  0  0  0  0  0
    0.6631    1.0335   -1.2122 H   0  0  0  0  0  0  0  0  0  0  0  0
   -2.3900    0.8010   -0.8021 H   0  0  0  0  0  0  0  0  0  0  0  0
   -0.6140    1.1711   -3.2749 H   0  0  0  0  0  0  0  0  0  0  0  0
   -2.4537    0.9988   -3.2264 H   0  0  0  0  0  0  0  0  0  0  0  0
    0.0257   -2.3900   -1.2507 C   0  0  0  0  0  0  0  0  0  0  0  0
    0.0257   -2.3900    0.0726 C   0  0  0  0  0  0  0  0  0  0  0  0
    0.0257   -1.1642    0.9306 C   0  0  0  0  0  3  0  0  0  0  0  0
    1.2354   -1.0098    1.8118 C   0  0  0  0  0  0  0  0  0  0  0  0
    2.3466   -1.7255    1.7393 C   0  0  0  0  0  0  0  0  0  0  0  0
    0.0175   -3.3127   -1.8172 H   0  0  0  0  0  0  0  0  0  0  0  0
    0.0321   -1.4646   -1.8167 H   0  0  0  0  0  0  0  0  0  0  0  0
    0.0283   -3.3388    0.6031 H   0  0  0  0  0  0  0  0  0  0  0  0
   -0.0944   -0.0922    0.1800 H   0  0  0  0  0  0  0  0  0  0  0  0
   -0.8622   -1.1777    1.5733 H   0  0  0  0  0  0  0  0  0  0  0  0
    1.1628   -0.2248    2.5595 H   0  0  0  0  0  0  0  0  0  0  0  0
    2.4721   -2.5124    1.0045 H   0  0  0  0  0  0  0  0  0  0  0  0
    3.1748   -1.5412    2.4117 H   0  0  0  0  0  0  0  0  0  0  0  0
  1  2  1  0
  1  5  1  0
  2  3  1  0
  2  6  1  0
  2 18  1  0
  3  4  2  3
  3  7  1  0
  4  8  1  0
  4  9  1  0
 10 11  2  3
 10 15  1  0
 10 16  1  0
 11 12  1  0
 11 17  1  0
 12 13  1  0
 12 19  1  0
 13 14  2  3
 13 20  1  0
 14 21  1  0
 14 22  1  0
M  RAD  1  12   2
M  END
>  <reaction>  (9) 
rxn_1156

>  <mol_properties>  (9) 
{"0": {"label": "*4", "atom_type": "S2s"}, "1": {"label": "*3", "atom_type": "Cs"}, "10": {"label": "*0", "atom_type": "Cd"}, "11": {"label": "*1", "atom_type": "Cs"}, "17": {"label": "*2", "atom_type": "H0"}}

>  <type>  (9) 
unop_5

>  <geom_source>  (9) 
Heuristics

$$$$

     RDKit          3D

 22 20  0  0  0  0  0  0  0  0999 V2000
    1.0519    1.4668   -1.1682 S   0  0  0  0  0  0  0  0  0  0  0  0
   -0.6680    1.0085   -0.7755 C   0  0  0  0  0  0  0  0  0  0  0  0
   -1.1027    1.4959    0.5658 C   0  0  0  0  0  0  0  0  0  0  0  0
   -2.1069    2.3373    0.7581 C   0  0  0  0  0  0  0  0  0  0  0  0
    0.8854    2.7898   -1.0426 H   0  0  0  0  0  0  0  0  0  0  0  0
   -1.3338    1.3641   -1.5612 H   0  0  0  0  0  0  0  0  0  0  0  0
   -0.5275    1.1324    1.4119 H   0  0  0  0  0  0  0  0  0  0  0  0
   -2.6899    2.7228   -0.0714 H   0  0  0  0  0  0  0  0  0  0  0  0
   -2.3835    2.6690    1.7506 H   0  0  0  0  0  0  0  0  0  0  0  0
   -0.4282   -2.3582   -1.4578 C   0  0  0  0  0  0  0  0  0  0  0  0
   -0.4282   -2.3582   -0.1346 C   0  0  0  0  0  0  0  0  0  0  0  0
   -0.4282   -1.1324    0.7234 C   0  0  0  0  0  3  0  0  0  0  0  0
    0.7815   -0.9780    1.6046 C   0  0  0  0  0  0  0  0  0  0  0  0
    1.8927   -1.6937    1.5322 C   0  0  0  0  0  0  0  0  0  0  0  0
   -0.4364   -3.2809   -2.0244 H   0  0  0  0  0  0  0  0  0  0  0  0
   -0.4218   -1.4327   -2.0238 H   0  0  0  0  0  0  0  0  0  0  0  0
   -0.4256   -3.3069    0.3959 H   0  0  0  0  0  0  0  0  0  0  0  0
   -0.5483   -0.0604   -0.0271 H   0  0  0  0  0  0  0  0  0  0  0  0
   -1.3162   -1.1458    1.3662 H   0  0  0  0  0  0  0  0  0  0  0  0
    0.7088   -0.1930    2.3523 H   0  0  0  0  0  0  0  0  0  0  0  0
    2.0182   -2.4805    0.7973 H   0  0  0  0  0  0  0  0  0  0  0  0
    2.7209   -1.5094    2.2045 H   0  0  0  0  0  0  0  0  0  0  0  0
  1  2  1  0
  1  5  1  0
  2  3  1  0
  2  6  1  0
  2 18  1  0
  3  4  2  3
  3  7  1  0
  4  8  1  0
  4  9  1  0
 10 11  2  3
 10 15  1  0
 10 16  1  0
 11 12  1  0
 11 17  1  0
 12 13  1  0
 12 19  1  0
 13 14  2  3
 13 20  1  0
 14 21  1  0
 14 22  1  0
M  RAD  1  12   2
M  END
>  <reaction>  (10) 
rxn_1156

>  <mol_properties>  (10) 
{"0": {"label": "*4", "atom_type": "S2s"}, "1": {"label": "*3", "atom_type": "Cs"}, "10": {"label": "*0", "atom_type": "Cd"}, "11": {"label": "*1", "atom_type": "Cs"}, "17": {"label": "*2", "atom_type": "H0"}}

>  <type>  (10) 
unop_6

>  <geom_source>  (10) 
Heuristics

$$$$

     RDKit          3D

 22 20  0  0  0  0  0  0  0  0999 V2000
    1.0380    1.9338   -0.4871 S   0  0  0  0  0  0  0  0  0  0  0  0
   -0.4754    0.9796   -0.8357 C   0  0  0  0  0  0  0  0  0  0  0  0
   -1.5446    1.2027    0.1805 C   0  0  0  0  0  0  0  0  0  0  0  0
   -2.7361    1.7090   -0.0974 C   0  0  0  0  0  0  0  0  0  0  0  0
    0.4570    3.1405   -0.4918 H   0  0  0  0  0  0  0  0  0  0  0  0
   -0.8308    1.2046   -1.8408 H   0  0  0  0  0  0  0  0  0  0  0  0
   -1.2900    0.9394    1.2026 H   0  0  0  0  0  0  0  0  0  0  0  0
   -3.0108    1.9896   -1.1086 H   0  0  0  0  0  0  0  0  0  0  0  0
   -3.4800    1.8590    0.6745 H   0  0  0  0  0  0  0  0  0  0  0  0
   -0.2356   -2.3871   -1.5180 C   0  0  0  0  0  0  0  0  0  0  0  0
   -0.2356   -2.3871   -0.1948 C   0  0  0  0  0  0  0  0  0  0  0  0
   -0.2356   -1.1613    0.6632 C   0  0  0  0  0  3  0  0  0  0  0  0
    0.9742   -1.0069    1.5444 C   0  0  0  0  0  0  0  0  0  0  0  0
    2.0853   -1.7226    1.4720 C   0  0  0  0  0  0  0  0  0  0  0  0
   -0.2437   -3.3098   -2.0846 H   0  0  0  0  0  0  0  0  0  0  0  0
   -0.2292   -1.4616   -2.0840 H   0  0  0  0  0  0  0  0  0  0  0  0
   -0.2330   -3.3358    0.3357 H   0  0  0  0  0  0  0  0  0  0  0  0
   -0.3556   -0.0893   -0.0873 H   0  0  0  0  0  0  0  0  0  0  0  0
   -1.1235   -1.1748    1.3060 H   0  0  0  0  0  0  0  0  0  0  0  0
    0.9015   -0.2219    2.2921 H   0  0  0  0  0  0  0  0  0  0  0  0
    2.2108   -2.5095    0.7371 H   0  0  0  0  0  0  0  0  0  0  0  0
    2.9135   -1.5383    2.1443 H   0  0  0  0  0  0  0  0  0  0  0  0
  1  2  1  0
  1  5  1  0
  2  3  1  0
  2  6  1  0
  2 18  1  0
  3  4  2  3
  3  7  1  0
  4  8  1  0
  4  9  1  0
 10 11  2  3
 10 15  1  0
 10 16  1  0
 11 12  1  0
 11 17  1  0
 12 13  1  0
 12 19  1  0
 13 14  2  3
 13 20  1  0
 14 21  1  0
 14 22  1  0
M  RAD  1  12   2
M  END
>  <reaction>  (11) 
rxn_1156

>  <mol_properties>  (11) 
{"0": {"label": "*4", "atom_type": "S2s"}, "1": {"label": "*3", "atom_type": "Cs"}, "10": {"label": "*0", "atom_type": "Cd"}, "11": {"label": "*1", "atom_type": "Cs"}, "17": {"label": "*2", "atom_type": "H0"}}

>  <type>  (11) 
unop_7

>  <geom_source>  (11) 
Heuristics

$$$$

     RDKit          3D

 22 20  0  0  0  0  0  0  0  0999 V2000
   -2.0770    1.2732   -0.4785 S   0  0  0  0  0  0  0  0  0  0  0  0
   -0.2765    1.0121   -0.3674 C   0  0  0  0  0  0  0  0  0  0  0  0
    0.4706    1.6642   -1.4820 C   0  0  0  0  0  0  0  0  0  0  0  0
    1.3837    2.6074   -1.3092 C   0  0  0  0  0  0  0  0  0  0  0  0
   -2.0342    2.6118   -0.4613 H   0  0  0  0  0  0  0  0  0  0  0  0
    0.0867    1.3486    0.6032 H   0  0  0  0  0  0  0  0  0  0  0  0
    0.2121    1.3339   -2.4835 H   0  0  0  0  0  0  0  0  0  0  0  0
    1.6520    2.9618   -0.3197 H   0  0  0  0  0  0  0  0  0  0  0  0
    1.8971    3.0572   -2.1494 H   0  0  0  0  0  0  0  0  0  0  0  0
   -0.0366   -2.3546   -1.0498 C   0  0  0  0  0  0  0  0  0  0  0  0
   -0.0366   -2.3546    0.2735 C   0  0  0  0  0  0  0  0  0  0  0  0
   -0.0366   -1.1288    1.1315 C   0  0  0  0  0  3  0  0  0  0  0  0
    1.1731   -0.9744    2.0127 C   0  0  0  0  0  0  0  0  0  0  0  0
    2.2842   -1.6901    1.9402 C   0  0  0  0  0  0  0  0  0  0  0  0
   -0.0448   -3.2773   -1.6163 H   0  0  0  0  0  0  0  0  0  0  0  0
   -0.0303   -1.4291   -1.6158 H   0  0  0  0  0  0  0  0  0  0  0  0
   -0.0341   -3.3033    0.8040 H   0  0  0  0  0  0  0  0  0  0  0  0
   -0.1567   -0.0568    0.3809 H   0  0  0  0  0  0  0  0  0  0  0  0
   -0.9246   -1.1422    1.7742 H   0  0  0  0  0  0  0  0  0  0  0  0
    1.1004   -0.1894    2.7604 H   0  0  0  0  0  0  0  0  0  0  0  0
    2.4097   -2.4769    1.2054 H   0  0  0  0  0  0  0  0  0  0  0  0
    3.1124   -1.5058    2.6126 H   0  0  0  0  0  0  0  0  0  0  0  0
  1  2  1  0
  1  5  1  0
  2  3  1  0
  2  6  1  0
  2 18  1  0
  3  4  2  3
  3  7  1  0
  4  8  1  0
  4  9  1  0
 10 11  2  3
 10 15  1  0
 10 16  1  0
 11 12  1  0
 11 17  1  0
 12 13  1  0
 12 19  1  0
 13 14  2  3
 13 20  1  0
 14 21  1  0
 14 22  1  0
M  RAD  1  12   2
M  END
>  <reaction>  (12) 
rxn_1156

>  <mol_properties>  (12) 
{"0": {"label": "*4", "atom_type": "S2s"}, "1": {"label": "*3", "atom_type": "Cs"}, "10": {"label": "*0", "atom_type": "Cd"}, "11": {"label": "*1", "atom_type": "Cs"}, "17": {"label": "*2", "atom_type": "H0"}}

>  <type>  (12) 
unop_8

>  <geom_source>  (12) 
Heuristics

$$$$

     RDKit          3D

 22 20  0  0  0  0  0  0  0  0999 V2000
    0.0093    0.6431   -1.9958 S   0  0  0  0  0  0  0  0  0  0  0  0
   -0.7798    1.1159   -0.4222 C   0  0  0  0  0  0  0  0  0  0  0  0
    0.1007    1.9647    0.4322 C   0  0  0  0  0  0  0  0  0  0  0  0
   -0.2007    3.1970    0.8113 C   0  0  0  0  0  0  0  0  0  0  0  0
    0.2341    1.8901   -2.4297 H   0  0  0  0  0  0  0  0  0  0  0  0
   -1.7327    1.6062   -0.6192 H   0  0  0  0  0  0  0  0  0  0  0  0
    1.0459    1.5200    0.7282 H   0  0  0  0  0  0  0  0  0  0  0  0
   -1.1339    3.6673    0.5201 H   0  0  0  0  0  0  0  0  0  0  0  0
    0.4726    3.7789    1.4276 H   0  0  0  0  0  0  0  0  0  0  0  0
   -0.5400   -2.2508   -1.1045 C   0  0  0  0  0  0  0  0  0  0  0  0
   -0.5400   -2.2508    0.2188 C   0  0  0  0  0  0  0  0  0  0  0  0
   -0.5400   -1.0250    1.0768 C   0  0  0  0  0  3  0  0  0  0  0  0
    0.6697   -0.8706    1.9580 C   0  0  0  0  0  0  0  0  0  0  0  0
    1.7809   -1.5863    1.8855 C   0  0  0  0  0  0  0  0  0  0  0  0
   -0.5482   -3.1735   -1.6710 H   0  0  0  0  0  0  0  0  0  0  0  0
   -0.5337   -1.3253   -1.6705 H   0  0  0  0  0  0  0  0  0  0  0  0
   -0.5374   -3.1995    0.7493 H   0  0  0  0  0  0  0  0  0  0  0  0
   -0.6601    0.0470    0.3262 H   0  0  0  0  0  0  0  0  0  0  0  0
   -1.4280   -1.0385    1.7195 H   0  0  0  0  0  0  0  0  0  0  0  0
    0.5970   -0.0856    2.7057 H   0  0  0  0  0  0  0  0  0  0  0  0
    1.9063   -2.3732    1.1507 H   0  0  0  0  0  0  0  0  0  0  0  0
    2.6091   -1.4020    2.5579 H   0  0  0  0  0  0  0  0  0  0  0  0
  1  2  1  0
  1  5  1  0
  2  3  1  0
  2  6  1  0
  2 18  1  0
  3  4  2  3
  3  7  1  0
  4  8  1  0
  4  9  1  0
 10 11  2  3
 10 15  1  0
 10 16  1  0
 11 12  1  0
 11 17  1  0
 12 13  1  0
 12 19  1  0
 13 14  2  3
 13 20  1  0
 14 21  1  0
 14 22  1  0
M  RAD  1  12   2
M  END
>  <reaction>  (13) 
rxn_1156

>  <mol_properties>  (13) 
{"0": {"label": "*4", "atom_type": "S2s"}, "1": {"label": "*3", "atom_type": "Cs"}, "10": {"label": "*0", "atom_type": "Cd"}, "11": {"label": "*1", "atom_type": "Cs"}, "17": {"label": "*2", "atom_type": "H0"}}

>  <type>  (13) 
unop_9

>  <geom_source>  (13) 
Heuristics

$$$$

     RDKit          3D

 22 20  0  0  0  0  0  0  0  0999 V2000
   -1.9128    0.8371   -1.1342 S   0  0  0  0  0  0  0  0  0  0  0  0
   -0.3188    1.0719   -0.2819 C   0  0  0  0  0  0  0  0  0  0  0  0
    0.6395    1.9009   -1.0693 C   0  0  0  0  0  0  0  0  0  0  0  0
    1.1356    3.0557   -0.6526 C   0  0  0  0  0  0  0  0  0  0  0  0
   -2.2107    2.1376   -1.2526 H   0  0  0  0  0  0  0  0  0  0  0  0
   -0.4877    1.4945    0.7081 H   0  0  0  0  0  0  0  0  0  0  0  0
    0.9114    1.5125   -2.0461 H   0  0  0  0  0  0  0  0  0  0  0  0
    0.8714    3.4700    0.3145 H   0  0  0  0  0  0  0  0  0  0  0  0
    1.8247    3.6269   -1.2614 H   0  0  0  0  0  0  0  0  0  0  0  0
   -0.0790   -2.2948   -0.9642 C   0  0  0  0  0  0  0  0  0  0  0  0
   -0.0790   -2.2948    0.3590 C   0  0  0  0  0  0  0  0  0  0  0  0
   -0.0790   -1.0690    1.2170 C   0  0  0  0  0  3  0  0  0  0  0  0
    1.1308   -0.9146    2.0982 C   0  0  0  0  0  0  0  0  0  0  0  0
    2.2419   -1.6303    2.0258 C   0  0  0  0  0  0  0  0  0  0  0  0
   -0.0871   -3.2175   -1.5308 H   0  0  0  0  0  0  0  0  0  0  0  0
   -0.0726   -1.3693   -1.5302 H   0  0  0  0  0  0  0  0  0  0  0  0
   -0.0764   -3.2435    0.8896 H   0  0  0  0  0  0  0  0  0  0  0  0
   -0.1990    0.0030    0.4665 H   0  0  0  0  0  0  0  0  0  0  0  0
   -0.9669   -1.0824    1.8598 H   0  0  0  0  0  0  0  0  0  0  0  0
    1.0581   -0.1296    2.8460 H   0  0  0  0  0  0  0  0  0  0  0  0
    2.3674   -2.4171    1.2909 H   0  0  0  0  0  0  0  0  0  0  0  0
    3.0701   -1.4460    2.6981 H   0  0  0  0  0  0  0  0  0  0  0  0
  1  2  1  0
  1  5  1  0
  2  3  1  0
  2  6  1  0
  2 18  1  0
  3  4  2  3
  3  7  1  0
  4  8  1  0
  4  9  1  0
 10 11  2  3
 10 15  1  0
 10 16  1  0
 11 12  1  0
 11 17  1  0
 12 13  1  0
 12 19  1  0
 13 14  2  3
 13 20  1  0
 14 21  1  0
 14 22  1  0
M  RAD  1  12   2
M  END
>  <reaction>  (14) 
rxn_1156

>  <mol_properties>  (14) 
{"0": {"label": "*4", "atom_type": "S2s"}, "1": {"label": "*3", "atom_type": "Cs"}, "10": {"label": "*0", "atom_type": "Cd"}, "11": {"label": "*1", "atom_type": "Cs"}, "17": {"label": "*2", "atom_type": "H0"}}

>  <type>  (14) 
unop_10

>  <geom_source>  (14) 
Heuristics

$$$$

     RDKit          3D

 22 20  0  0  0  0  0  0  0  0999 V2000
    0.6097    2.2681    0.1706 S   0  0  0  0  0  0  0  0  0  0  0  0
   -0.2808    0.9772   -0.7584 C   0  0  0  0  0  0  0  0  0  0  0  0
   -1.7466    0.9743   -0.4805 C   0  0  0  0  0  0  0  0  0  0  0  0
   -2.6753    1.1802   -1.4016 C   0  0  0  0  0  0  0  0  0  0  0  0
   -0.0879    3.3052   -0.3105 H   0  0  0  0  0  0  0  0  0  0  0  0
   -0.0798    1.0836   -1.8240 H   0  0  0  0  0  0  0  0  0  0  0  0
   -2.0330    0.8076    0.5535 H   0  0  0  0  0  0  0  0  0  0  0  0
   -2.4143    1.3593   -2.4392 H   0  0  0  0  0  0  0  0  0  0  0  0
   -3.7286    1.1749   -1.1525 H   0  0  0  0  0  0  0  0  0  0  0  0
   -0.0410   -2.3894   -1.4407 C   0  0  0  0  0  0  0  0  0  0  0  0
   -0.0410   -2.3894   -0.1175 C   0  0  0  0  0  0  0  0  0  0  0  0
   -0.0410   -1.1636    0.7405 C   0  0  0  0  0  3  0  0  0  0  0  0
    1.1687   -1.0092    1.6217 C   0  0  0  0  0  0  0  0  0  0  0  0
    2.2799   -1.7249    1.5493 C   0  0  0  0  0  0  0  0  0  0  0  0
   -0.0492   -3.3121   -2.0073 H   0  0  0  0  0  0  0  0  0  0  0  0
   -0.0347   -1.4640   -2.0067 H   0  0  0  0  0  0  0  0  0  0  0  0
   -0.0384   -3.3382    0.4130 H   0  0  0  0  0  0  0  0  0  0  0  0
   -0.1611   -0.0916   -0.0100 H   0  0  0  0  0  0  0  0  0  0  0  0
   -0.9290   -1.1771    1.3833 H   0  0  0  0  0  0  0  0  0  0  0  0
    1.0960   -0.2242    2.3694 H   0  0  0  0  0  0  0  0  0  0  0  0
    2.4053   -2.5118    0.8144 H   0  0  0  0  0  0  0  0  0  0  0  0
    3.1081   -1.5406    2.2216 H   0  0  0  0  0  0  0  0  0  0  0  0
  1  2  1  0
  1  5  1  0
  2  3  1  0
  2  6  1  0
  2 18  1  0
  3  4  2  3
  3  7  1  0
  4  8  1  0
  4  9  1  0
 10 11  2  3
 10 15  1  0
 10 16  1  0
 11 12  1  0
 11 17  1  0
 12 13  1  0
 12 19  1  0
 13 14  2  3
 13 20  1  0
 14 21  1  0
 14 22  1  0
M  RAD  1  12   2
M  END
>  <reaction>  (15) 
rxn_1156

>  <mol_properties>  (15) 
{"0": {"label": "*4", "atom_type": "S2s"}, "1": {"label": "*3", "atom_type": "Cs"}, "10": {"label": "*0", "atom_type": "Cd"}, "11": {"label": "*1", "atom_type": "Cs"}, "17": {"label": "*2", "atom_type": "H0"}}

>  <type>  (15) 
unop_11

>  <geom_source>  (15) 
Heuristics

$$$$

     RDKit          3D

 22 20  0  0  0  0  0  0  0  0999 V2000
   -0.7432    0.4840   -1.9594 S   0  0  0  0  0  0  0  0  0  0  0  0
   -0.6443    1.1425   -0.2626 C   0  0  0  0  0  0  0  0  0  0  0  0
    0.5169    2.0583   -0.0663 C   0  0  0  0  0  0  0  0  0  0  0  0
    0.4056    3.3311    0.2814 C   0  0  0  0  0  0  0  0  0  0  0  0
   -0.8125    1.6712   -2.5755 H   0  0  0  0  0  0  0  0  0  0  0  0
   -1.5825    1.6305   -0.0003 H   0  0  0  0  0  0  0  0  0  0  0  0
    1.4970    1.6266   -0.2448 H   0  0  0  0  0  0  0  0  0  0  0  0
   -0.5626    3.7885    0.4552 H   0  0  0  0  0  0  0  0  0  0  0  0
    1.2772    3.9606    0.4068 H   0  0  0  0  0  0  0  0  0  0  0  0
   -0.4045   -2.2241   -0.9449 C   0  0  0  0  0  0  0  0  0  0  0  0
   -0.4045   -2.2241    0.3783 C   0  0  0  0  0  0  0  0  0  0  0  0
   -0.4045   -0.9983    1.2363 C   0  0  0  0  0  3  0  0  0  0  0  0
    0.8052   -0.8440    2.1175 C   0  0  0  0  0  0  0  0  0  0  0  0
    1.9164   -1.5596    2.0451 C   0  0  0  0  0  0  0  0  0  0  0  0
   -0.4127   -3.1469   -1.5115 H   0  0  0  0  0  0  0  0  0  0  0  0
   -0.3981   -1.2987   -1.5109 H   0  0  0  0  0  0  0  0  0  0  0  0
   -0.4019   -3.1729    0.9088 H   0  0  0  0  0  0  0  0  0  0  0  0
   -0.5246    0.0737    0.4858 H   0  0  0  0  0  0  0  0  0  0  0  0
   -1.2925   -1.0118    1.8791 H   0  0  0  0  0  0  0  0  0  0  0  0
    0.7325   -0.0589    2.8652 H   0  0  0  0  0  0  0  0  0  0  0  0
    2.0418   -2.3465    1.3102 H   0  0  0  0  0  0  0  0  0  0  0  0
    2.7446   -1.3753    2.7174 H   0  0  0  0  0  0  0  0  0  0  0  0
  1  2  1  0
  1  5  1  0
  2  3  1  0
  2  6  1  0
  2 18  1  0
  3  4  2  3
  3  7  1  0
  4  8  1  0
  4  9  1  0
 10 11  2  3
 10 15  1  0
 10 16  1  0
 11 12  1  0
 11 17  1  0
 12 13  1  0
 12 19  1  0
 13 14  2  3
 13 20  1  0
 14 21  1  0
 14 22  1  0
M  RAD  1  12   2
M  END
>  <reaction>  (16) 
rxn_1156

>  <mol_properties>  (16) 
{"0": {"label": "*4", "atom_type": "S2s"}, "1": {"label": "*3", "atom_type": "Cs"}, "10": {"label": "*0", "atom_type": "Cd"}, "11": {"label": "*1", "atom_type": "Cs"}, "17": {"label": "*2", "atom_type": "H0"}}

>  <type>  (16) 
unop_12

>  <geom_source>  (16) 
Heuristics

$$$$

     RDKit          3D

 22 20  0  0  0  0  0  0  0  0999 V2000
    1.5734    1.4961   -1.8224 S   0  0  0  0  0  0  0  0  0  0  0  0
    1.2384    0.8483   -0.1561 C   0  0  0  0  0  0  0  0  0  0  0  0
    2.3978    0.0318    0.3300 C   0  0  0  0  0  0  0  0  0  0  0  0
   -0.9018   -0.6145    0.4488 C   0  0  0  0  0  3  0  0  0  0  0  0
   -1.5576   -1.9215    0.1376 C   0  0  0  0  0  0  0  0  0  0  0  0
   -1.9267    0.3965    0.8524 C   0  0  0  0  0  0  0  0  0  0  0  0
    3.5731    0.5918    0.6302 C   0  0  0  0  0  0  0  0  0  0  0  0
   -1.5941   -2.3817   -1.1133 C   0  0  0  0  0  0  0  0  0  0  0  0
   -2.2019    1.4359    0.0639 C   0  0  0  0  0  0  0  0  0  0  0  0
    1.0440    1.6898    0.5427 H   0  0  0  0  0  0  0  0  0  0  0  0
    0.1646    0.0866   -0.2073 H   0  0  0  0  0  0  0  0  0  0  0  0
    2.2671   -1.0370    0.4678 H   0  0  0  0  0  0  0  0  0  0  0  0
   -2.0249   -2.4913    0.9356 H   0  0  0  0  0  0  0  0  0  0  0  0
   -0.1605   -0.7479    1.2643 H   0  0  0  0  0  0  0  0  0  0  0  0
   -2.4648    0.2717    1.7876 H   0  0  0  0  0  0  0  0  0  0  0  0
    3.7272    1.6609    0.5177 H   0  0  0  0  0  0  0  0  0  0  0  0
    4.3905   -0.0227    0.9932 H   0  0  0  0  0  0  0  0  0  0  0  0
   -2.0810   -3.3268   -1.3303 H   0  0  0  0  0  0  0  0  0  0  0  0
   -1.1419   -1.8220   -1.9268 H   0  0  0  0  0  0  0  0  0  0  0  0
   -1.6824    1.5729   -0.8799 H   0  0  0  0  0  0  0  0  0  0  0  0
   -2.9544    2.1590    0.3613 H   0  0  0  0  0  0  0  0  0  0  0  0
    0.3158    2.1240   -1.8970 H   0  0  0  0  0  0  0  0  0  0  0  0
  1  2  1  0
  1 22  1  0
  2  3  1  0
  2 10  1  0
  2 11  1  0
  3  7  2  3
  3 12  1  0
  4  5  1  0
  4  6  1  0
  4 14  1  0
  5  8  2  3
  5 13  1  0
  6  9  2  3
  6 15  1  0
  7 16  1  0
  7 17  1  0
  8 18  1  0
  8 19  1  0
  9 20  1  0
  9 21  1  0
M  RAD  1   4   2
M  END
>  <reaction>  (17) 
rxn_1156

>  <mol_properties>  (17) 
{"0": {"label": "*4", "atom_type": "S2s"}, "1": {"label": "*3", "atom_type": "Cs"}, "10": {"label": "*0", "atom_type": "Cd"}, "11": {"label": "*1", "atom_type": "Cs"}, "17": {"label": "*2", "atom_type": "H0"}}

>  <type>  (17) 
unop_13

>  <geom_source>  (17) 
AutoTST

$$$$

     RDKit          3D

 22 20  0  0  0  0  0  0  0  0999 V2000
   -1.4242    0.5533   -1.6537 S   0  0  0  0  0  0  0  0  0  0  0  0
   -0.4530    1.1247   -0.2209 C   0  0  0  0  0  0  0  0  0  0  0  0
    0.6619    2.0376   -0.6072 C   0  0  0  0  0  0  0  0  0  0  0  0
    0.7711    3.2901   -0.1916 C   0  0  0  0  0  0  0  0  0  0  0  0
   -1.7767    1.7700   -2.0888 H   0  0  0  0  0  0  0  0  0  0  0  0
   -1.1124    1.5917    0.5099 H   0  0  0  0  0  0  0  0  0  0  0  0
    1.4015    1.6227   -1.2853 H   0  0  0  0  0  0  0  0  0  0  0  0
    0.0398    3.7309    0.4775 H   0  0  0  0  0  0  0  0  0  0  0  0
    1.5955    3.9186   -0.5030 H   0  0  0  0  0  0  0  0  0  0  0  0
   -0.2132   -2.2420   -0.9033 C   0  0  0  0  0  0  0  0  0  0  0  0
   -0.2132   -2.2420    0.4200 C   0  0  0  0  0  0  0  0  0  0  0  0
   -0.2132   -1.0162    1.2780 C   0  0  0  0  0  3  0  0  0  0  0  0
    0.9965   -0.8618    2.1592 C   0  0  0  0  0  0  0  0  0  0  0  0
    2.1077   -1.5775    2.0867 C   0  0  0  0  0  0  0  0  0  0  0  0
   -0.2214   -3.1647   -1.4698 H   0  0  0  0  0  0  0  0  0  0  0  0
   -0.2069   -1.3165   -1.4693 H   0  0  0  0  0  0  0  0  0  0  0  0
   -0.2107   -3.1907    0.9505 H   0  0  0  0  0  0  0  0  0  0  0  0
   -0.3333    0.0558    0.5274 H   0  0  0  0  0  0  0  0  0  0  0  0
   -1.1012   -1.0296    1.9207 H   0  0  0  0  0  0  0  0  0  0  0  0
    0.9238   -0.0768    2.9069 H   0  0  0  0  0  0  0  0  0  0  0  0
    2.2331   -2.3644    1.3519 H   0  0  0  0  0  0  0  0  0  0  0  0
    2.9359   -1.3932    2.7591 H   0  0  0  0  0  0  0  0  0  0  0  0
  1  2  1  0
  1  5  1  0
  2  3  1  0
  2  6  1  0
  2 18  1  0
  3  4  2  3
  3  7  1  0
  4  8  1  0
  4  9  1  0
 10 11  2  3
 10 15  1  0
 10 16  1  0
 11 12  1  0
 11 17  1  0
 12 13  1  0
 12 19  1  0
 13 14  2  3
 13 20  1  0
 14 21  1  0
 14 22  1  0
M  RAD  1  12   2
M  END
>  <reaction>  (18) 
rxn_1156

>  <mol_properties>  (18) 
{"0": {"label": "*4", "atom_type": "S2s"}, "1": {"label": "*3", "atom_type": "Cs"}, "10": {"label": "*0", "atom_type": "Cd"}, "11": {"label": "*1", "atom_type": "Cs"}, "17": {"label": "*2", "atom_type": "H0"}}

>  <type>  (18) 
unop_14

>  <geom_source>  (18) 
gaussian_log

$$$$
