
     RDKit          3D

 15 15  0  0  0  0  0  0  0  0999 V2000
    2.2031   -0.2111   -0.1693 C   0  0  0  0  0  0  0  0  0  0  0  0
    0.7140   -0.0314   -0.0623 C   0  0  0  0  0  0  0  0  0  0  0  0
   -0.0114    0.5491   -1.0982 C   0  0  0  0  0  0  0  0  0  0  0  0
   -1.3882    0.6886   -1.0150 C   0  0  0  0  0  0  0  0  0  0  0  0
   -2.0661    0.2493    0.1118 C   0  0  0  0  0  0  0  0  0  0  0  0
   -1.3551   -0.3278    1.1528 C   0  0  0  0  0  0  0  0  0  0  0  0
    0.0216   -0.4648    1.0642 C   0  0  0  0  0  0  0  0  0  0  0  0
    2.6776   -0.1836    0.8122 H   0  0  0  0  0  0  0  0  0  0  0  0
    2.4446   -1.1749   -0.6249 H   0  0  0  0  0  0  0  0  0  0  0  0
    2.6532    0.5664   -0.7875 H   0  0  0  0  0  0  0  0  0  0  0  0
    0.5104    0.8989   -1.9819 H   0  0  0  0  0  0  0  0  0  0  0  0
   -1.9328    1.1452   -1.8322 H   0  0  0  0  0  0  0  0  0  0  0  0
   -3.1409    0.3597    0.1800 H   0  0  0  0  0  0  0  0  0  0  0  0
   -1.8736   -0.6702    2.0398 H   0  0  0  0  0  0  0  0  0  0  0  0
    0.5695   -0.9141    1.8849 H   0  0  0  0  0  0  0  0  0  0  0  0
  1  2  1  0
  1  8  1  0
  1  9  1  0
  1 10  1  0
  2  3  2  0
  2  7  1  0
  3  4  1  0
  3 11  1  0
  4  5  2  0
  4 12  1  0
  5  6  1  0
  5 13  1  0
  6  7  2  0
  6 14  1  0
  7 15  1  0
M  END
>  <reaction>  (1) 
rxn_1434

>  <mol_properties>  (1) 
{"0": {"label": "donator", "atom_type": "Cs"}, "7": {"label": "d_hydrogen", "atom_type": "H0"}}

>  <type>  (1) 
r1h

$$$$

     RDKit          3D

  4  3  0  0  0  0  0  0  0  0999 V2000
    0.0000    0.0000    0.0000 C   0  0  0  0  0  3  0  0  0  0  0  0
    1.0638   -0.1747    0.0540 H   0  0  0  0  0  0  0  0  0  0  0  0
   -0.6833   -0.8351   -0.0280 H   0  0  0  0  0  0  0  0  0  0  0  0
   -0.3805    1.0098   -0.0260 H   0  0  0  0  0  0  0  0  0  0  0  0
  1  2  1  0
  1  3  1  0
  1  4  1  0
M  RAD  1   1   2
M  END
>  <reaction>  (2) 
rxn_1434

>  <mol_properties>  (2) 
{"0": {"label": "acceptor", "atom_type": "Cs"}}

>  <type>  (2) 
r2

$$$$

     RDKit          3D

  5  4  0  0  0  0  0  0  0  0999 V2000
    0.0000    0.0000    0.0000 C   0  0  0  0  0  0  0  0  0  0  0  0
   -0.6486   -0.7720   -0.4113 H   0  0  0  0  0  0  0  0  0  0  0  0
   -0.3482    0.9787   -0.3267 H   0  0  0  0  0  0  0  0  0  0  0  0
   -0.0223   -0.0487    1.0876 H   0  0  0  0  0  0  0  0  0  0  0  0
    1.0191   -0.1580   -0.3496 H   0  0  0  0  0  0  0  0  0  0  0  0
  1  2  1  0
  1  3  1  0
  1  4  1  0
  1  5  1  0
M  END
>  <reaction>  (3) 
rxn_1434

>  <mol_properties>  (3) 
{"0": {"label": "acceptor", "atom_type": "Cs"}, "4": {"label": "a_hydrogen", "atom_type": "H0"}}

>  <type>  (3) 
r2h

$$$$

     RDKit          3D

 19 18  0  0  0  0  0  0  0  0999 V2000
   -1.4980   -1.2766    2.9119 C   0  0  0  0  0  3  0  0  0  0  0  0
   -1.5180   -2.1645    2.2887 H   0  0  0  0  0  0  0  0  0  0  0  0
   -2.3120   -0.5824    2.7310 H   0  0  0  0  0  0  0  0  0  0  0  0
   -1.2814   -1.4599    3.9592 H   0  0  0  0  0  0  0  0  0  0  0  0
    0.6484    0.0477    1.9438 C   0  0  0  0  0  0  0  0  0  0  0  0
    0.4680    0.1339    0.4846 C   0  0  0  0  0  0  0  0  0  0  0  0
   -0.2253    1.2003   -0.0913 C   0  0  0  0  0  0  0  0  0  0  0  0
   -0.4427    1.2550   -1.4577 C   0  0  0  0  0  0  0  0  0  0  0  0
    0.0258    0.2411   -2.2809 C   0  0  0  0  0  0  0  0  0  0  0  0
    0.7143   -0.8268   -1.7234 C   0  0  0  0  0  0  0  0  0  0  0  0
    0.9307   -0.8797   -0.3569 C   0  0  0  0  0  0  0  0  0  0  0  0
   -0.3551   -0.5733    2.4212 H   0  0  0  0  0  0  0  0  0  0  0  0
    1.4944   -0.5587    2.2614 H   0  0  0  0  0  0  0  0  0  0  0  0
    0.6231    1.0044    2.4617 H   0  0  0  0  0  0  0  0  0  0  0  0
   -0.5935    1.9975    0.5444 H   0  0  0  0  0  0  0  0  0  0  0  0
   -0.9788    2.0943   -1.8834 H   0  0  0  0  0  0  0  0  0  0  0  0
   -0.1421    0.2842   -3.3494 H   0  0  0  0  0  0  0  0  0  0  0  0
    1.0865   -1.6218   -2.3577 H   0  0  0  0  0  0  0  0  0  0  0  0
    1.4710   -1.7170    0.0703 H   0  0  0  0  0  0  0  0  0  0  0  0
  1  2  1  0
  1  3  1  0
  1  4  1  0
  5  6  1  0
  5 12  1  0
  5 13  1  0
  5 14  1  0
  6  7  2  0
  6 11  1  0
  7  8  1  0
  7 15  1  0
  8  9  2  0
  8 16  1  0
  9 10  1  0
  9 17  1  0
 10 11  2  0
 10 18  1  0
 11 19  1  0
M  RAD  1   1   2
M  END
>  <reaction>  (4) 
rxn_1434

>  <mol_properties>  (4) 
{"0": {"label": "*3", "atom_type": "Cs"}, "1": {"label": "*4", "atom_type": "H0"}, "4": {"label": "*1", "atom_type": "Cs"}, "5": {"label": "*0", "atom_type": "Cd"}, "11": {"label": "*2", "atom_type": "H0"}}

>  <type>  (4) 
ts

$$$$

     RDKit          3D

 19 18  0  0  0  0  0  0  0  0999 V2000
   -1.0299   -1.8269    2.9121 C   0  0  0  0  0  0  0  0  0  0  0  0
   -0.3251   -2.3896    3.5223 H   0  0  0  0  0  0  0  0  0  0  0  0
   -1.8386   -2.4829    2.5935 H   0  0  0  0  0  0  0  0  0  0  0  0
   -1.3479   -1.0812    3.6392 H   0  0  0  0  0  0  0  0  0  0  0  0
    0.1490    0.3050    1.9607 C   0  0  0  0  0  0  0  0  0  0  0  0
    0.1490    0.3050    0.4570 C   0  0  0  0  0  0  0  0  0  0  0  0
    0.1490    1.4993   -0.2571 C   0  0  0  0  0  3  0  0  0  0  0  0
    0.1794    1.5027   -1.6431 C   0  0  0  0  0  0  0  0  0  0  0  0
    0.2090    0.3056   -2.3421 C   0  0  0  0  0  0  0  0  0  0  0  0
    0.2058   -0.8917   -1.6431 C   0  0  0  0  0  0  0  0  0  0  0  0
    0.1753   -0.8890   -0.2571 C   0  0  0  0  0  0  0  0  0  0  0  0
   -0.4409   -0.7617    2.4368 H   0  0  0  0  0  0  0  0  0  0  0  0
    1.1712    0.3162    2.3475 H   0  0  0  0  0  0  0  0  0  0  0  0
   -0.3620    1.1829    2.3574 H   0  0  0  0  0  0  0  0  0  0  0  0
    0.1224    2.4404    0.2807 H   0  0  0  0  0  0  0  0  0  0  0  0
    0.1768    2.4439   -2.1788 H   0  0  0  0  0  0  0  0  0  0  0  0
    0.2301    0.3059   -3.4245 H   0  0  0  0  0  0  0  0  0  0  0  0
    0.2239   -1.8328   -2.1788 H   0  0  0  0  0  0  0  0  0  0  0  0
    0.1695   -1.8305    0.2807 H   0  0  0  0  0  0  0  0  0  0  0  0
  1  2  1  0
  1  3  1  0
  1  4  1  0
  1 12  1  0
  5  6  2  3
  5 13  1  0
  5 14  1  0
  6  7  1  0
  6 11  1  0
  7  8  1  0
  7 15  1  0
  8  9  2  0
  8 16  1  0
  9 10  1  0
  9 17  1  0
 10 11  2  0
 10 18  1  0
 11 19  1  0
M  RAD  1   7   2
M  END
>  <reaction>  (5) 
rxn_1434

>  <mol_properties>  (5) 
{"0": {"label": "*3", "atom_type": "Cs"}, "1": {"label": "*4", "atom_type": "H0"}, "4": {"label": "*1", "atom_type": "Cs"}, "5": {"label": "*0", "atom_type": "Cd"}, "11": {"label": "*2", "atom_type": "H0"}}

>  <type>  (5) 
unop_1

>  <geom_source>  (5) 
Heuristics

$$$$

     RDKit          3D

 19 18  0  0  0  0  0  0  0  0999 V2000
   -1.0308   -1.8277    2.9169 C   0  0  0  0  0  0  0  0  0  0  0  0
   -0.9017   -2.6550    2.2208 H   0  0  0  0  0  0  0  0  0  0  0  0
   -2.0507   -1.8302    3.2986 H   0  0  0  0  0  0  0  0  0  0  0  0
   -0.4688   -1.3883    3.7397 H   0  0  0  0  0  0  0  0  0  0  0  0
    0.1481    0.3042    1.9655 C   0  0  0  0  0  0  0  0  0  0  0  0
    0.1481    0.3042    0.4618 C   0  0  0  0  0  0  0  0  0  0  0  0
    0.1481    1.4985   -0.2523 C   0  0  0  0  0  3  0  0  0  0  0  0
    0.1785    1.5019   -1.6383 C   0  0  0  0  0  0  0  0  0  0  0  0
    0.2081    0.3049   -2.3373 C   0  0  0  0  0  0  0  0  0  0  0  0
    0.2050   -0.8925   -1.6383 C   0  0  0  0  0  0  0  0  0  0  0  0
    0.1744   -0.8898   -0.2523 C   0  0  0  0  0  0  0  0  0  0  0  0
   -0.4418   -0.7625    2.4416 H   0  0  0  0  0  0  0  0  0  0  0  0
    1.1703    0.3155    2.3523 H   0  0  0  0  0  0  0  0  0  0  0  0
   -0.3629    1.1821    2.3622 H   0  0  0  0  0  0  0  0  0  0  0  0
    0.1215    2.4396    0.2855 H   0  0  0  0  0  0  0  0  0  0  0  0
    0.1759    2.4431   -2.1740 H   0  0  0  0  0  0  0  0  0  0  0  0
    0.2292    0.3051   -3.4197 H   0  0  0  0  0  0  0  0  0  0  0  0
    0.2231   -1.8335   -2.1740 H   0  0  0  0  0  0  0  0  0  0  0  0
    0.1686   -1.8313    0.2855 H   0  0  0  0  0  0  0  0  0  0  0  0
  1  2  1  0
  1  3  1  0
  1  4  1  0
  1 12  1  0
  5  6  2  3
  5 13  1  0
  5 14  1  0
  6  7  1  0
  6 11  1  0
  7  8  1  0
  7 15  1  0
  8  9  2  0
  8 16  1  0
  9 10  1  0
  9 17  1  0
 10 11  2  0
 10 18  1  0
 11 19  1  0
M  RAD  1   7   2
M  END
>  <reaction>  (6) 
rxn_1434

>  <mol_properties>  (6) 
{"0": {"label": "*3", "atom_type": "Cs"}, "1": {"label": "*4", "atom_type": "H0"}, "4": {"label": "*1", "atom_type": "Cs"}, "5": {"label": "*0", "atom_type": "Cd"}, "11": {"label": "*2", "atom_type": "H0"}}

>  <type>  (6) 
unop_2

>  <geom_source>  (6) 
Heuristics

$$$$

     RDKit          3D

 19 18  0  0  0  0  0  0  0  0999 V2000
   -1.0278   -1.8258    2.9127 C   0  0  0  0  0  0  0  0  0  0  0  0
   -0.5857   -2.0871    3.8729 H   0  0  0  0  0  0  0  0  0  0  0  0
   -1.3508   -2.7324    2.4032 H   0  0  0  0  0  0  0  0  0  0  0  0
   -1.7960   -1.2445    3.4204 H   0  0  0  0  0  0  0  0  0  0  0  0
    0.1511    0.3060    1.9613 C   0  0  0  0  0  0  0  0  0  0  0  0
    0.1511    0.3060    0.4575 C   0  0  0  0  0  0  0  0  0  0  0  0
    0.1511    1.5004   -0.2565 C   0  0  0  0  0  3  0  0  0  0  0  0
    0.1816    1.5037   -1.6425 C   0  0  0  0  0  0  0  0  0  0  0  0
    0.2111    0.3067   -2.3415 C   0  0  0  0  0  0  0  0  0  0  0  0
    0.2080   -0.8907   -1.6425 C   0  0  0  0  0  0  0  0  0  0  0  0
    0.1774   -0.8880   -0.2565 C   0  0  0  0  0  0  0  0  0  0  0  0
   -0.4388   -0.7607    2.4373 H   0  0  0  0  0  0  0  0  0  0  0  0
    1.1733    0.3173    2.3480 H   0  0  0  0  0  0  0  0  0  0  0  0
   -0.3599    1.1839    2.3580 H   0  0  0  0  0  0  0  0  0  0  0  0
    0.1245    2.4415    0.2813 H   0  0  0  0  0  0  0  0  0  0  0  0
    0.1789    2.4449   -2.1782 H   0  0  0  0  0  0  0  0  0  0  0  0
    0.2323    0.3069   -3.4239 H   0  0  0  0  0  0  0  0  0  0  0  0
    0.2261   -1.8317   -2.1782 H   0  0  0  0  0  0  0  0  0  0  0  0
    0.1716   -1.8294    0.2813 H   0  0  0  0  0  0  0  0  0  0  0  0
  1  2  1  0
  1  3  1  0
  1  4  1  0
  1 12  1  0
  5  6  2  3
  5 13  1  0
  5 14  1  0
  6  7  1  0
  6 11  1  0
  7  8  1  0
  7 15  1  0
  8  9  2  0
  8 16  1  0
  9 10  1  0
  9 17  1  0
 10 11  2  0
 10 18  1  0
 11 19  1  0
M  RAD  1   7   2
M  END
>  <reaction>  (7) 
rxn_1434

>  <mol_properties>  (7) 
{"0": {"label": "*3", "atom_type": "Cs"}, "1": {"label": "*4", "atom_type": "H0"}, "4": {"label": "*1", "atom_type": "Cs"}, "5": {"label": "*0", "atom_type": "Cd"}, "11": {"label": "*2", "atom_type": "H0"}}

>  <type>  (7) 
unop_3

>  <geom_source>  (7) 
Heuristics

$$$$

     RDKit          3D

 19 18  0  0  0  0  0  0  0  0999 V2000
   -1.0308   -1.8284    2.9147 C   0  0  0  0  0  0  0  0  0  0  0  0
   -2.0629   -1.8574    2.5686 H   0  0  0  0  0  0  0  0  0  0  0  0
   -0.9749   -1.2604    3.8422 H   0  0  0  0  0  0  0  0  0  0  0  0
   -0.3793   -2.6859    3.0753 H   0  0  0  0  0  0  0  0  0  0  0  0
    0.1481    0.3035    1.9633 C   0  0  0  0  0  0  0  0  0  0  0  0
    0.1481    0.3035    0.4596 C   0  0  0  0  0  0  0  0  0  0  0  0
    0.1481    1.4978   -0.2545 C   0  0  0  0  0  3  0  0  0  0  0  0
    0.1785    1.5012   -1.6405 C   0  0  0  0  0  0  0  0  0  0  0  0
    0.2080    0.3042   -2.3395 C   0  0  0  0  0  0  0  0  0  0  0  0
    0.2049   -0.8932   -1.6405 C   0  0  0  0  0  0  0  0  0  0  0  0
    0.1744   -0.8905   -0.2545 C   0  0  0  0  0  0  0  0  0  0  0  0
   -0.4418   -0.7632    2.4394 H   0  0  0  0  0  0  0  0  0  0  0  0
    1.1703    0.3148    2.3501 H   0  0  0  0  0  0  0  0  0  0  0  0
   -0.3630    1.1814    2.3600 H   0  0  0  0  0  0  0  0  0  0  0  0
    0.1214    2.4389    0.2833 H   0  0  0  0  0  0  0  0  0  0  0  0
    0.1759    2.4424   -2.1762 H   0  0  0  0  0  0  0  0  0  0  0  0
    0.2292    0.3044   -3.4219 H   0  0  0  0  0  0  0  0  0  0  0  0
    0.2230   -1.8342   -2.1762 H   0  0  0  0  0  0  0  0  0  0  0  0
    0.1685   -1.8320    0.2833 H   0  0  0  0  0  0  0  0  0  0  0  0
  1  2  1  0
  1  3  1  0
  1  4  1  0
  1 12  1  0
  5  6  2  3
  5 13  1  0
  5 14  1  0
  6  7  1  0
  6 11  1  0
  7  8  1  0
  7 15  1  0
  8  9  2  0
  8 16  1  0
  9 10  1  0
  9 17  1  0
 10 11  2  0
 10 18  1  0
 11 19  1  0
M  RAD  1   7   2
M  END
>  <reaction>  (8) 
rxn_1434

>  <mol_properties>  (8) 
{"0": {"label": "*3", "atom_type": "Cs"}, "1": {"label": "*4", "atom_type": "H0"}, "4": {"label": "*1", "atom_type": "Cs"}, "5": {"label": "*0", "atom_type": "Cd"}, "11": {"label": "*2", "atom_type": "H0"}}

>  <type>  (8) 
unop_4

>  <geom_source>  (8) 
Heuristics

$$$$

     RDKit          3D

 19 18  0  0  0  0  0  0  0  0999 V2000
   -1.0288   -1.8229    2.9139 C   0  0  0  0  0  0  0  0  0  0  0  0
   -1.0117   -1.7920    4.0023 H   0  0  0  0  0  0  0  0  0  0  0  0
   -0.5047   -2.7125    2.5678 H   0  0  0  0  0  0  0  0  0  0  0  0
   -2.1136   -1.8582    3.0013 H   0  0  0  0  0  0  0  0  0  0  0  0
    0.1501    0.3089    1.9625 C   0  0  0  0  0  0  0  0  0  0  0  0
    0.1501    0.3089    0.4587 C   0  0  0  0  0  0  0  0  0  0  0  0
    0.1501    1.5033   -0.2553 C   0  0  0  0  0  3  0  0  0  0  0  0
    0.1806    1.5066   -1.6413 C   0  0  0  0  0  0  0  0  0  0  0  0
    0.2101    0.3096   -2.3403 C   0  0  0  0  0  0  0  0  0  0  0  0
    0.2070   -0.8878   -1.6413 C   0  0  0  0  0  0  0  0  0  0  0  0
    0.1765   -0.8851   -0.2553 C   0  0  0  0  0  0  0  0  0  0  0  0
   -0.4398   -0.7578    2.4385 H   0  0  0  0  0  0  0  0  0  0  0  0
    1.1723    0.3202    2.3492 H   0  0  0  0  0  0  0  0  0  0  0  0
   -0.3609    1.1868    2.3592 H   0  0  0  0  0  0  0  0  0  0  0  0
    0.1235    2.4444    0.2825 H   0  0  0  0  0  0  0  0  0  0  0  0
    0.1779    2.4478   -2.1770 H   0  0  0  0  0  0  0  0  0  0  0  0
    0.2313    0.3098   -3.4227 H   0  0  0  0  0  0  0  0  0  0  0  0
    0.2251   -1.8288   -2.1770 H   0  0  0  0  0  0  0  0  0  0  0  0
    0.1706   -1.8265    0.2825 H   0  0  0  0  0  0  0  0  0  0  0  0
  1  2  1  0
  1  3  1  0
  1  4  1  0
  1 12  1  0
  5  6  2  3
  5 13  1  0
  5 14  1  0
  6  7  1  0
  6 11  1  0
  7  8  1  0
  7 15  1  0
  8  9  2  0
  8 16  1  0
  9 10  1  0
  9 17  1  0
 10 11  2  0
 10 18  1  0
 11 19  1  0
M  RAD  1   7   2
M  END
>  <reaction>  (9) 
rxn_1434

>  <mol_properties>  (9) 
{"0": {"label": "*3", "atom_type": "Cs"}, "1": {"label": "*4", "atom_type": "H0"}, "4": {"label": "*1", "atom_type": "Cs"}, "5": {"label": "*0", "atom_type": "Cd"}, "11": {"label": "*2", "atom_type": "H0"}}

>  <type>  (9) 
unop_5

>  <geom_source>  (9) 
Heuristics

$$$$

     RDKit          3D

 19 18  0  0  0  0  0  0  0  0999 V2000
   -1.0312   -1.8271    2.9133 C   0  0  0  0  0  0  0  0  0  0  0  0
   -2.0932   -1.6261    3.0453 H   0  0  0  0  0  0  0  0  0  0  0  0
   -0.4771   -1.4209    3.7581 H   0  0  0  0  0  0  0  0  0  0  0  0
   -0.8125   -2.8911    2.8372 H   0  0  0  0  0  0  0  0  0  0  0  0
    0.1477    0.3048    1.9618 C   0  0  0  0  0  0  0  0  0  0  0  0
    0.1477    0.3048    0.4581 C   0  0  0  0  0  0  0  0  0  0  0  0
    0.1477    1.4991   -0.2560 C   0  0  0  0  0  3  0  0  0  0  0  0
    0.1782    1.5025   -1.6420 C   0  0  0  0  0  0  0  0  0  0  0  0
    0.2077    0.3055   -2.3410 C   0  0  0  0  0  0  0  0  0  0  0  0
    0.2046   -0.8919   -1.6420 C   0  0  0  0  0  0  0  0  0  0  0  0
    0.1741   -0.8892   -0.2560 C   0  0  0  0  0  0  0  0  0  0  0  0
   -0.4422   -0.7619    2.4379 H   0  0  0  0  0  0  0  0  0  0  0  0
    1.1699    0.3161    2.3486 H   0  0  0  0  0  0  0  0  0  0  0  0
   -0.3633    1.1827    2.3585 H   0  0  0  0  0  0  0  0  0  0  0  0
    0.1211    2.4402    0.2818 H   0  0  0  0  0  0  0  0  0  0  0  0
    0.1755    2.4437   -2.1777 H   0  0  0  0  0  0  0  0  0  0  0  0
    0.2289    0.3057   -3.4234 H   0  0  0  0  0  0  0  0  0  0  0  0
    0.2227   -1.8329   -2.1777 H   0  0  0  0  0  0  0  0  0  0  0  0
    0.1682   -1.8307    0.2818 H   0  0  0  0  0  0  0  0  0  0  0  0
  1  2  1  0
  1  3  1  0
  1  4  1  0
  1 12  1  0
  5  6  2  3
  5 13  1  0
  5 14  1  0
  6  7  1  0
  6 11  1  0
  7  8  1  0
  7 15  1  0
  8  9  2  0
  8 16  1  0
  9 10  1  0
  9 17  1  0
 10 11  2  0
 10 18  1  0
 11 19  1  0
M  RAD  1   7   2
M  END
>  <reaction>  (10) 
rxn_1434

>  <mol_properties>  (10) 
{"0": {"label": "*3", "atom_type": "Cs"}, "1": {"label": "*4", "atom_type": "H0"}, "4": {"label": "*1", "atom_type": "Cs"}, "5": {"label": "*0", "atom_type": "Cd"}, "11": {"label": "*2", "atom_type": "H0"}}

>  <type>  (10) 
unop_6

>  <geom_source>  (10) 
Heuristics

$$$$

     RDKit          3D

 19 18  0  0  0  0  0  0  0  0999 V2000
   -1.0319   -1.8253    2.9124 C   0  0  0  0  0  0  0  0  0  0  0  0
   -1.8832   -1.5275    3.5226 H   0  0  0  0  0  0  0  0  0  0  0  0
   -0.1173   -1.7341    3.4962 H   0  0  0  0  0  0  0  0  0  0  0  0
   -1.3052   -2.8593    2.7078 H   0  0  0  0  0  0  0  0  0  0  0  0
    0.1470    0.3066    1.9610 C   0  0  0  0  0  0  0  0  0  0  0  0
    0.1470    0.3066    0.4572 C   0  0  0  0  0  0  0  0  0  0  0  0
    0.1470    1.5009   -0.2568 C   0  0  0  0  0  3  0  0  0  0  0  0
    0.1774    1.5043   -1.6428 C   0  0  0  0  0  0  0  0  0  0  0  0
    0.2070    0.3073   -2.3418 C   0  0  0  0  0  0  0  0  0  0  0  0
    0.2038   -0.8901   -1.6428 C   0  0  0  0  0  0  0  0  0  0  0  0
    0.1733   -0.8874   -0.2568 C   0  0  0  0  0  0  0  0  0  0  0  0
   -0.4429   -0.7601    2.4370 H   0  0  0  0  0  0  0  0  0  0  0  0
    1.1692    0.3179    2.3477 H   0  0  0  0  0  0  0  0  0  0  0  0
   -0.3640    1.1845    2.3577 H   0  0  0  0  0  0  0  0  0  0  0  0
    0.1204    2.4420    0.2810 H   0  0  0  0  0  0  0  0  0  0  0  0
    0.1748    2.4455   -2.1785 H   0  0  0  0  0  0  0  0  0  0  0  0
    0.2281    0.3075   -3.4242 H   0  0  0  0  0  0  0  0  0  0  0  0
    0.2219   -1.8312   -2.1785 H   0  0  0  0  0  0  0  0  0  0  0  0
    0.1675   -1.8289    0.2810 H   0  0  0  0  0  0  0  0  0  0  0  0
  1  2  1  0
  1  3  1  0
  1  4  1  0
  1 12  1  0
  5  6  2  3
  5 13  1  0
  5 14  1  0
  6  7  1  0
  6 11  1  0
  7  8  1  0
  7 15  1  0
  8  9  2  0
  8 16  1  0
  9 10  1  0
  9 17  1  0
 10 11  2  0
 10 18  1  0
 11 19  1  0
M  RAD  1   7   2
M  END
>  <reaction>  (11) 
rxn_1434

>  <mol_properties>  (11) 
{"0": {"label": "*3", "atom_type": "Cs"}, "1": {"label": "*4", "atom_type": "H0"}, "4": {"label": "*1", "atom_type": "Cs"}, "5": {"label": "*0", "atom_type": "Cd"}, "11": {"label": "*2", "atom_type": "H0"}}

>  <type>  (11) 
unop_7

>  <geom_source>  (11) 
Heuristics

$$$$

     RDKit          3D

 19 18  0  0  0  0  0  0  0  0999 V2000
   -1.0316   -1.8266    2.9134 C   0  0  0  0  0  0  0  0  0  0  0  0
   -0.2967   -2.6193    3.0454 H   0  0  0  0  0  0  0  0  0  0  0  0
   -2.0283   -2.2614    2.8566 H   0  0  0  0  0  0  0  0  0  0  0  0
   -1.0173   -1.1025    3.7265 H   0  0  0  0  0  0  0  0  0  0  0  0
    0.1473    0.3053    1.9619 C   0  0  0  0  0  0  0  0  0  0  0  0
    0.1473    0.3053    0.4582 C   0  0  0  0  0  0  0  0  0  0  0  0
    0.1473    1.4996   -0.2559 C   0  0  0  0  0  3  0  0  0  0  0  0
    0.1778    1.5029   -1.6419 C   0  0  0  0  0  0  0  0  0  0  0  0
    0.2073    0.3059   -2.3409 C   0  0  0  0  0  0  0  0  0  0  0  0
    0.2042   -0.8914   -1.6419 C   0  0  0  0  0  0  0  0  0  0  0  0
    0.1737   -0.8888   -0.2559 C   0  0  0  0  0  0  0  0  0  0  0  0
   -0.4425   -0.7615    2.4380 H   0  0  0  0  0  0  0  0  0  0  0  0
    1.1696    0.3165    2.3487 H   0  0  0  0  0  0  0  0  0  0  0  0
   -0.3637    1.1832    2.3586 H   0  0  0  0  0  0  0  0  0  0  0  0
    0.1207    2.4407    0.2820 H   0  0  0  0  0  0  0  0  0  0  0  0
    0.1751    2.4441   -2.1776 H   0  0  0  0  0  0  0  0  0  0  0  0
    0.2285    0.3062   -3.4232 H   0  0  0  0  0  0  0  0  0  0  0  0
    0.2223   -1.8325   -2.1776 H   0  0  0  0  0  0  0  0  0  0  0  0
    0.1678   -1.8302    0.2820 H   0  0  0  0  0  0  0  0  0  0  0  0
  1  2  1  0
  1  3  1  0
  1  4  1  0
  1 12  1  0
  5  6  2  3
  5 13  1  0
  5 14  1  0
  6  7  1  0
  6 11  1  0
  7  8  1  0
  7 15  1  0
  8  9  2  0
  8 16  1  0
  9 10  1  0
  9 17  1  0
 10 11  2  0
 10 18  1  0
 11 19  1  0
M  RAD  1   7   2
M  END
>  <reaction>  (12) 
rxn_1434

>  <mol_properties>  (12) 
{"0": {"label": "*3", "atom_type": "Cs"}, "1": {"label": "*4", "atom_type": "H0"}, "4": {"label": "*1", "atom_type": "Cs"}, "5": {"label": "*0", "atom_type": "Cd"}, "11": {"label": "*2", "atom_type": "H0"}}

>  <type>  (12) 
unop_8

>  <geom_source>  (12) 
Heuristics

$$$$

     RDKit          3D

 19 18  0  0  0  0  0  0  0  0999 V2000
   -1.0307   -1.8292    2.9162 C   0  0  0  0  0  0  0  0  0  0  0  0
   -1.8000   -2.1598    2.2200 H   0  0  0  0  0  0  0  0  0  0  0  0
   -1.4953   -1.2969    3.7447 H   0  0  0  0  0  0  0  0  0  0  0  0
   -0.1403   -2.2559    3.3755 H   0  0  0  0  0  0  0  0  0  0  0  0
    0.1482    0.3026    1.9647 C   0  0  0  0  0  0  0  0  0  0  0  0
    0.1482    0.3026    0.4610 C   0  0  0  0  0  0  0  0  0  0  0  0
    0.1482    1.4970   -0.2531 C   0  0  0  0  0  3  0  0  0  0  0  0
    0.1787    1.5003   -1.6391 C   0  0  0  0  0  0  0  0  0  0  0  0
    0.2082    0.3033   -2.3381 C   0  0  0  0  0  0  0  0  0  0  0  0
    0.2051   -0.8941   -1.6391 C   0  0  0  0  0  0  0  0  0  0  0  0
    0.1746   -0.8914   -0.2531 C   0  0  0  0  0  0  0  0  0  0  0  0
   -0.4416   -0.7641    2.4408 H   0  0  0  0  0  0  0  0  0  0  0  0
    1.1705    0.3139    2.3515 H   0  0  0  0  0  0  0  0  0  0  0  0
   -0.3628    1.1805    2.3614 H   0  0  0  0  0  0  0  0  0  0  0  0
    0.1216    2.4381    0.2847 H   0  0  0  0  0  0  0  0  0  0  0  0
    0.1760    2.4415   -2.1748 H   0  0  0  0  0  0  0  0  0  0  0  0
    0.2294    0.3035   -3.4205 H   0  0  0  0  0  0  0  0  0  0  0  0
    0.2232   -1.8351   -2.1748 H   0  0  0  0  0  0  0  0  0  0  0  0
    0.1687   -1.8328    0.2847 H   0  0  0  0  0  0  0  0  0  0  0  0
  1  2  1  0
  1  3  1  0
  1  4  1  0
  1 12  1  0
  5  6  2  3
  5 13  1  0
  5 14  1  0
  6  7  1  0
  6 11  1  0
  7  8  1  0
  7 15  1  0
  8  9  2  0
  8 16  1  0
  9 10  1  0
  9 17  1  0
 10 11  2  0
 10 18  1  0
 11 19  1  0
M  RAD  1   7   2
M  END
>  <reaction>  (13) 
rxn_1434

>  <mol_properties>  (13) 
{"0": {"label": "*3", "atom_type": "Cs"}, "1": {"label": "*4", "atom_type": "H0"}, "4": {"label": "*1", "atom_type": "Cs"}, "5": {"label": "*0", "atom_type": "Cd"}, "11": {"label": "*2", "atom_type": "H0"}}

>  <type>  (13) 
unop_9

>  <geom_source>  (13) 
Heuristics

$$$$

     RDKit          3D

 19 18  0  0  0  0  0  0  0  0999 V2000
   -1.0316   -1.8267    2.9154 C   0  0  0  0  0  0  0  0  0  0  0  0
   -0.5076   -2.7162    2.5693 H   0  0  0  0  0  0  0  0  0  0  0  0
   -2.0793   -2.0673    3.0896 H   0  0  0  0  0  0  0  0  0  0  0  0
   -0.7483   -1.1969    3.7574 H   0  0  0  0  0  0  0  0  0  0  0  0
    0.1473    0.3052    1.9640 C   0  0  0  0  0  0  0  0  0  0  0  0
    0.1473    0.3052    0.4602 C   0  0  0  0  0  0  0  0  0  0  0  0
    0.1473    1.4996   -0.2538 C   0  0  0  0  0  3  0  0  0  0  0  0
    0.1777    1.5029   -1.6398 C   0  0  0  0  0  0  0  0  0  0  0  0
    0.2073    0.3059   -2.3388 C   0  0  0  0  0  0  0  0  0  0  0  0
    0.2041   -0.8915   -1.6398 C   0  0  0  0  0  0  0  0  0  0  0  0
    0.1736   -0.8888   -0.2538 C   0  0  0  0  0  0  0  0  0  0  0  0
   -0.4426   -0.7615    2.4400 H   0  0  0  0  0  0  0  0  0  0  0  0
    1.1695    0.3165    2.3507 H   0  0  0  0  0  0  0  0  0  0  0  0
   -0.3638    1.1831    2.3607 H   0  0  0  0  0  0  0  0  0  0  0  0
    0.1206    2.4407    0.2840 H   0  0  0  0  0  0  0  0  0  0  0  0
    0.1751    2.4441   -2.1755 H   0  0  0  0  0  0  0  0  0  0  0  0
    0.2284    0.3061   -3.4212 H   0  0  0  0  0  0  0  0  0  0  0  0
    0.2222   -1.8325   -2.1755 H   0  0  0  0  0  0  0  0  0  0  0  0
    0.1677   -1.8302    0.2840 H   0  0  0  0  0  0  0  0  0  0  0  0
  1  2  1  0
  1  3  1  0
  1  4  1  0
  1 12  1  0
  5  6  2  3
  5 13  1  0
  5 14  1  0
  6  7  1  0
  6 11  1  0
  7  8  1  0
  7 15  1  0
  8  9  2  0
  8 16  1  0
  9 10  1  0
  9 17  1  0
 10 11  2  0
 10 18  1  0
 11 19  1  0
M  RAD  1   7   2
M  END
>  <reaction>  (14) 
rxn_1434

>  <mol_properties>  (14) 
{"0": {"label": "*3", "atom_type": "Cs"}, "1": {"label": "*4", "atom_type": "H0"}, "4": {"label": "*1", "atom_type": "Cs"}, "5": {"label": "*0", "atom_type": "Cd"}, "11": {"label": "*2", "atom_type": "H0"}}

>  <type>  (14) 
unop_10

>  <geom_source>  (14) 
Heuristics

$$$$

     RDKit          3D

 19 18  0  0  0  0  0  0  0  0999 V2000
   -1.0317   -1.8231    2.9130 C   0  0  0  0  0  0  0  0  0  0  0  0
   -1.4881   -1.5875    3.8732 H   0  0  0  0  0  0  0  0  0  0  0  0
   -0.0240   -2.2032    3.0735 H   0  0  0  0  0  0  0  0  0  0  0  0
   -1.8115   -2.5579    2.7186 H   0  0  0  0  0  0  0  0  0  0  0  0
    0.1471    0.3088    1.9616 C   0  0  0  0  0  0  0  0  0  0  0  0
    0.1471    0.3088    0.4578 C   0  0  0  0  0  0  0  0  0  0  0  0
    0.1471    1.5031   -0.2562 C   0  0  0  0  0  3  0  0  0  0  0  0
    0.1776    1.5065   -1.6422 C   0  0  0  0  0  0  0  0  0  0  0  0
    0.2071    0.3095   -2.3412 C   0  0  0  0  0  0  0  0  0  0  0  0
    0.2040   -0.8879   -1.6422 C   0  0  0  0  0  0  0  0  0  0  0  0
    0.1735   -0.8852   -0.2562 C   0  0  0  0  0  0  0  0  0  0  0  0
   -0.4427   -0.7579    2.4376 H   0  0  0  0  0  0  0  0  0  0  0  0
    1.1694    0.3201    2.3483 H   0  0  0  0  0  0  0  0  0  0  0  0
   -0.3639    1.1867    2.3583 H   0  0  0  0  0  0  0  0  0  0  0  0
    0.1205    2.4442    0.2816 H   0  0  0  0  0  0  0  0  0  0  0  0
    0.1750    2.4477   -2.1779 H   0  0  0  0  0  0  0  0  0  0  0  0
    0.2283    0.3097   -3.4236 H   0  0  0  0  0  0  0  0  0  0  0  0
    0.2221   -1.8289   -2.1779 H   0  0  0  0  0  0  0  0  0  0  0  0
    0.1676   -1.8267    0.2816 H   0  0  0  0  0  0  0  0  0  0  0  0
  1  2  1  0
  1  3  1  0
  1  4  1  0
  1 12  1  0
  5  6  2  3
  5 13  1  0
  5 14  1  0
  6  7  1  0
  6 11  1  0
  7  8  1  0
  7 15  1  0
  8  9  2  0
  8 16  1  0
  9 10  1  0
  9 17  1  0
 10 11  2  0
 10 18  1  0
 11 19  1  0
M  RAD  1   7   2
M  END
>  <reaction>  (15) 
rxn_1434

>  <mol_properties>  (15) 
{"0": {"label": "*3", "atom_type": "Cs"}, "1": {"label": "*4", "atom_type": "H0"}, "4": {"label": "*1", "atom_type": "Cs"}, "5": {"label": "*0", "atom_type": "Cd"}, "11": {"label": "*2", "atom_type": "H0"}}

>  <type>  (15) 
unop_11

>  <geom_source>  (15) 
Heuristics

$$$$

     RDKit          3D

 19 18  0  0  0  0  0  0  0  0999 V2000
   -1.0304   -1.8290    2.9171 C   0  0  0  0  0  0  0  0  0  0  0  0
   -1.3748   -2.4517    2.0928 H   0  0  0  0  0  0  0  0  0  0  0  0
   -1.8817   -1.5312    3.5273 H   0  0  0  0  0  0  0  0  0  0  0  0
   -0.2055   -1.7535    3.6239 H   0  0  0  0  0  0  0  0  0  0  0  0
    0.1485    0.3029    1.9656 C   0  0  0  0  0  0  0  0  0  0  0  0
    0.1485    0.3029    0.4619 C   0  0  0  0  0  0  0  0  0  0  0  0
    0.1485    1.4972   -0.2521 C   0  0  0  0  0  3  0  0  0  0  0  0
    0.1789    1.5005   -1.6381 C   0  0  0  0  0  0  0  0  0  0  0  0
    0.2085    0.3035   -2.3372 C   0  0  0  0  0  0  0  0  0  0  0  0
    0.2053   -0.8938   -1.6381 C   0  0  0  0  0  0  0  0  0  0  0  0
    0.1748   -0.8912   -0.2521 C   0  0  0  0  0  0  0  0  0  0  0  0
   -0.4414   -0.7638    2.4417 H   0  0  0  0  0  0  0  0  0  0  0  0
    1.1707    0.3141    2.3524 H   0  0  0  0  0  0  0  0  0  0  0  0
   -0.3625    1.1808    2.3624 H   0  0  0  0  0  0  0  0  0  0  0  0
    0.1219    2.4383    0.2857 H   0  0  0  0  0  0  0  0  0  0  0  0
    0.1763    2.4418   -2.1738 H   0  0  0  0  0  0  0  0  0  0  0  0
    0.2296    0.3038   -3.4195 H   0  0  0  0  0  0  0  0  0  0  0  0
    0.2235   -1.8349   -2.1738 H   0  0  0  0  0  0  0  0  0  0  0  0
    0.1690   -1.8326    0.2857 H   0  0  0  0  0  0  0  0  0  0  0  0
  1  2  1  0
  1  3  1  0
  1  4  1  0
  1 12  1  0
  5  6  2  3
  5 13  1  0
  5 14  1  0
  6  7  1  0
  6 11  1  0
  7  8  1  0
  7 15  1  0
  8  9  2  0
  8 16  1  0
  9 10  1  0
  9 17  1  0
 10 11  2  0
 10 18  1  0
 11 19  1  0
M  RAD  1   7   2
M  END
>  <reaction>  (16) 
rxn_1434

>  <mol_properties>  (16) 
{"0": {"label": "*3", "atom_type": "Cs"}, "1": {"label": "*4", "atom_type": "H0"}, "4": {"label": "*1", "atom_type": "Cs"}, "5": {"label": "*0", "atom_type": "Cd"}, "11": {"label": "*2", "atom_type": "H0"}}

>  <type>  (16) 
unop_12

>  <geom_source>  (16) 
Heuristics

$$$$

     RDKit          3D

 19 18  0  0  0  0  0  0  0  0999 V2000
    2.8422    0.2461    0.8528 C   0  0  0  0  0  0  0  0  0  0  0  0
   -0.1658   -0.3712   -0.4910 C   0  0  0  0  0  0  0  0  0  0  0  0
   -0.9590    0.4044   -1.3498 C   0  0  0  0  0  3  0  0  0  0  0  0
   -0.6648   -0.7512    0.7622 C   0  0  0  0  0  0  0  0  0  0  0  0
   -2.2426    0.7960   -0.9552 C   0  0  0  0  0  0  0  0  0  0  0  0
   -2.7372    0.4150    0.2960 C   0  0  0  0  0  0  0  0  0  0  0  0
   -1.9489   -0.3581    1.1540 C   0  0  0  0  0  0  0  0  0  0  0  0
    1.2055   -0.7941   -0.9031 C   0  0  0  0  0  0  0  0  0  0  0  0
    2.6257    0.1951    1.9397 H   0  0  0  0  0  0  0  0  0  0  0  0
    3.7524   -0.3474    0.6289 H   0  0  0  0  0  0  0  0  0  0  0  0
    3.0079    1.3027    0.5580 H   0  0  0  0  0  0  0  0  0  0  0  0
    1.8502   -0.2297    0.1970 H   0  0  0  0  0  0  0  0  0  0  0  0
   -0.5837    0.7039   -2.3207 H   0  0  0  0  0  0  0  0  0  0  0  0
   -2.8534    1.3943   -1.6188 H   0  0  0  0  0  0  0  0  0  0  0  0
   -0.0614   -1.3499    1.4335 H   0  0  0  0  0  0  0  0  0  0  0  0
   -3.7306    0.7185    0.6003 H   0  0  0  0  0  0  0  0  0  0  0  0
   -2.3326   -0.6525    2.1223 H   0  0  0  0  0  0  0  0  0  0  0  0
    1.8421    0.0969   -1.0863 H   0  0  0  0  0  0  0  0  0  0  0  0
    1.1542   -1.4186   -1.8197 H   0  0  0  0  0  0  0  0  0  0  0  0
  1  9  1  0
  1 10  1  0
  1 11  1  0
  1 12  1  0
  2  8  2  3
  2  3  1  0
  2  4  1  0
  3  5  1  0
  3 13  1  0
  4  7  2  0
  4 15  1  0
  5  6  2  0
  5 14  1  0
  6  7  1  0
  6 16  1  0
  7 17  1  0
  8 18  1  0
  8 19  1  0
M  RAD  1   3   2
M  END
>  <reaction>  (17) 
rxn_1434

>  <mol_properties>  (17) 
{"0": {"label": "*3", "atom_type": "Cs"}, "1": {"label": "*4", "atom_type": "H0"}, "4": {"label": "*1", "atom_type": "Cs"}, "5": {"label": "*0", "atom_type": "Cd"}, "11": {"label": "*2", "atom_type": "H0"}}

>  <type>  (17) 
unop_13

>  <geom_source>  (17) 
AutoTST

$$$$
