
     RDKit          3D

  9  8  0  0  0  0  0  0  0  0999 V2000
    1.1303   -0.2933   -0.7510 C   0  0  0  0  0  0  0  0  0  0  0  0
    0.2866    0.4560   -0.0588 C   0  0  0  0  0  0  0  0  0  0  0  0
   -0.9719   -0.0331    0.5823 C   0  0  0  0  0  0  0  0  0  0  0  0
    2.0274    0.1230   -1.1916 H   0  0  0  0  0  0  0  0  0  0  0  0
    0.9532   -1.3530   -0.9023 H   0  0  0  0  0  0  0  0  0  0  0  0
    0.5065    1.5132    0.0659 H   0  0  0  0  0  0  0  0  0  0  0  0
   -0.9526    0.1426    1.6610 H   0  0  0  0  0  0  0  0  0  0  0  0
   -1.1182   -1.1002    0.4106 H   0  0  0  0  0  0  0  0  0  0  0  0
   -1.8412    0.5010    0.1901 H   0  0  0  0  0  0  0  0  0  0  0  0
  1  2  2  3
  1  4  1  0
  1  5  1  0
  2  3  1  0
  2  6  1  0
  3  7  1  0
  3  8  1  0
  3  9  1  0
M  END
>  <reaction>  (1) 
rxn_428

>  <mol_properties>  (1) 
{"2": {"label": "donator", "atom_type": "Cs"}, "6": {"label": "d_hydrogen", "atom_type": "H0"}}

>  <type>  (1) 
r1h

$$$$

     RDKit          3D

  3  2  0  0  0  0  0  0  0  0999 V2000
    0.9943   -0.1797    0.0000 O   0  0  0  0  0  1  0  0  0  0  0  0
   -0.1595    0.4394    0.0000 O   0  0  0  0  0  0  0  0  0  0  0  0
   -0.8348   -0.2597    0.0000 H   0  0  0  0  0  0  0  0  0  0  0  0
  1  2  1  0
  2  3  1  0
M  RAD  1   1   2
M  END
>  <reaction>  (2) 
rxn_428

>  <mol_properties>  (2) 
{"0": {"label": "acceptor", "atom_type": "O2s"}}

>  <type>  (2) 
r2

$$$$

     RDKit          3D

  4  3  0  0  0  0  0  0  0  0999 V2000
    0.5949   -0.3853    0.2659 O   0  0  0  0  0  0  0  0  0  0  0  0
   -0.5918    0.4028    0.2462 O   0  0  0  0  0  0  0  0  0  0  0  0
    1.1865    0.1539   -0.2689 H   0  0  0  0  0  0  0  0  0  0  0  0
   -1.1896   -0.1714   -0.2432 H   0  0  0  0  0  0  0  0  0  0  0  0
  1  2  1  0
  1  3  1  0
  2  4  1  0
M  END
>  <reaction>  (3) 
rxn_428

>  <mol_properties>  (3) 
{"0": {"label": "acceptor", "atom_type": "O2s"}, "3": {"label": "a_hydrogen", "atom_type": "H0"}}

>  <type>  (3) 
r2h

$$$$

     RDKit          3D

 12 10  0  0  0  0  0  0  0  0999 V2000
   -0.8205    0.4287    1.4398 O   0  0  0  0  0  0  0  0  0  0  0  0
   -1.6785    0.0799    0.4262 O   0  0  0  0  0  0  0  0  0  0  0  0
   -1.5685   -0.8770    0.3494 H   0  0  0  0  0  0  0  0  0  0  0  0
    0.5998   -0.7064   -1.7909 C   0  0  0  0  0  0  0  0  0  0  0  0
    1.2894   -0.4838   -0.6624 C   0  0  0  0  0  0  0  0  0  0  0  0
    1.2723    0.7621    0.0705 C   0  0  0  0  0  3  0  0  0  0  0  0
    0.6159   -1.6714   -2.2808 H   0  0  0  0  0  0  0  0  0  0  0  0
    0.0175    0.0802   -2.2562 H   0  0  0  0  0  0  0  0  0  0  0  0
    1.8519   -1.3045   -0.2265 H   0  0  0  0  0  0  0  0  0  0  0  0
    0.2459    0.6316    0.8715 H   0  0  0  0  0  0  0  0  0  0  0  0
    0.9668    1.6430   -0.4896 H   0  0  0  0  0  0  0  0  0  0  0  0
    2.0976    0.9381    0.7549 H   0  0  0  0  0  0  0  0  0  0  0  0
  1  2  1  0
  1 10  1  0
  2  3  1  0
  4  5  2  3
  4  7  1  0
  4  8  1  0
  5  6  1  0
  5  9  1  0
  6 11  1  0
  6 12  1  0
M  RAD  1   6   2
M  END
>  <reaction>  (4) 
rxn_428

>  <mol_properties>  (4) 
{"0": {"label": "*1", "atom_type": "O2s"}, "1": {"label": "*0", "atom_type": "O2s"}, "4": {"label": "*4", "atom_type": "Cd"}, "5": {"label": "*3", "atom_type": "Cs"}, "9": {"label": "*2", "atom_type": "H0"}}

>  <type>  (4) 
ts

$$$$

     RDKit          3D

 12 10  0  0  0  0  0  0  0  0999 V2000
   -1.2501    0.4467    1.0853 O   0  0  0  0  0  0  0  0  0  0  0  0
   -0.6396    0.4595    2.3724 O   0  0  0  0  0  0  0  0  0  0  0  0
   -0.3217    1.3669    2.4196 H   0  0  0  0  0  0  0  0  0  0  0  0
    0.7308   -0.8141   -2.5687 C   0  0  0  0  0  0  0  0  0  0  0  0
    0.7308   -0.8141   -1.2449 C   0  0  0  0  0  0  0  0  0  0  0  0
    0.7308    0.4080   -0.3844 C   0  0  0  0  0  3  0  0  0  0  0  0
    0.7308   -1.7369   -3.1351 H   0  0  0  0  0  0  0  0  0  0  0  0
    0.7308    0.1115   -3.1347 H   0  0  0  0  0  0  0  0  0  0  0  0
    0.7308   -1.7668   -0.7214 H   0  0  0  0  0  0  0  0  0  0  0  0
   -0.3225    0.4286    0.3971 H   0  0  0  0  0  0  0  0  0  0  0  0
    0.7308    1.3185   -0.9850 H   0  0  0  0  0  0  0  0  0  0  0  0
    1.6085    0.4252    0.2668 H   0  0  0  0  0  0  0  0  0  0  0  0
  1  2  1  0
  1 10  1  0
  2  3  1  0
  4  5  2  3
  4  7  1  0
  4  8  1  0
  5  6  1  0
  5  9  1  0
  6 11  1  0
  6 12  1  0
M  RAD  1   6   2
M  END
>  <reaction>  (5) 
rxn_428

>  <mol_properties>  (5) 
{"0": {"label": "*1", "atom_type": "O2s"}, "1": {"label": "*0", "atom_type": "O2s"}, "4": {"label": "*4", "atom_type": "Cd"}, "5": {"label": "*3", "atom_type": "Cs"}, "9": {"label": "*2", "atom_type": "H0"}}

>  <type>  (5) 
unop_1

>  <geom_source>  (5) 
Heuristics

$$$$

     RDKit          3D

 12 10  0  0  0  0  0  0  0  0999 V2000
   -1.0608    0.7796    1.3248 O   0  0  0  0  0  0  0  0  0  0  0  0
   -1.2957   -0.6134    1.5096 O   0  0  0  0  0  0  0  0  0  0  0  0
   -0.8069   -0.7792    2.3222 H   0  0  0  0  0  0  0  0  0  0  0  0
    0.9200   -0.4812   -2.3292 C   0  0  0  0  0  0  0  0  0  0  0  0
    0.9200   -0.4812   -1.0054 C   0  0  0  0  0  0  0  0  0  0  0  0
    0.9200    0.7410   -0.1449 C   0  0  0  0  0  3  0  0  0  0  0  0
    0.9200   -1.4039   -2.8957 H   0  0  0  0  0  0  0  0  0  0  0  0
    0.9200    0.4444   -2.8952 H   0  0  0  0  0  0  0  0  0  0  0  0
    0.9200   -1.4338   -0.4819 H   0  0  0  0  0  0  0  0  0  0  0  0
   -0.1333    0.7615    0.6366 H   0  0  0  0  0  0  0  0  0  0  0  0
    0.9200    1.6514   -0.7455 H   0  0  0  0  0  0  0  0  0  0  0  0
    1.7977    0.7581    0.5063 H   0  0  0  0  0  0  0  0  0  0  0  0
  1  2  1  0
  1 10  1  0
  2  3  1  0
  4  5  2  3
  4  7  1  0
  4  8  1  0
  5  6  1  0
  5  9  1  0
  6 11  1  0
  6 12  1  0
M  RAD  1   6   2
M  END
>  <reaction>  (6) 
rxn_428

>  <mol_properties>  (6) 
{"0": {"label": "*1", "atom_type": "O2s"}, "1": {"label": "*0", "atom_type": "O2s"}, "4": {"label": "*4", "atom_type": "Cd"}, "5": {"label": "*3", "atom_type": "Cs"}, "9": {"label": "*2", "atom_type": "H0"}}

>  <type>  (6) 
unop_2

>  <geom_source>  (6) 
Heuristics

$$$$

     RDKit          3D

 12 10  0  0  0  0  0  0  0  0999 V2000
   -1.2198    0.2886    1.1258 O   0  0  0  0  0  0  0  0  0  0  0  0
   -0.7146    0.9990    2.2527 O   0  0  0  0  0  0  0  0  0  0  0  0
   -0.8763    1.9100    1.9873 H   0  0  0  0  0  0  0  0  0  0  0  0
    0.7611   -0.9722   -2.5281 C   0  0  0  0  0  0  0  0  0  0  0  0
    0.7611   -0.9722   -1.2044 C   0  0  0  0  0  0  0  0  0  0  0  0
    0.7611    0.2500   -0.3439 C   0  0  0  0  0  3  0  0  0  0  0  0
    0.7611   -1.8949   -3.0946 H   0  0  0  0  0  0  0  0  0  0  0  0
    0.7611   -0.0466   -3.0941 H   0  0  0  0  0  0  0  0  0  0  0  0
    0.7611   -1.9248   -0.6809 H   0  0  0  0  0  0  0  0  0  0  0  0
   -0.2922    0.2705    0.4376 H   0  0  0  0  0  0  0  0  0  0  0  0
    0.7611    1.1604   -0.9445 H   0  0  0  0  0  0  0  0  0  0  0  0
    1.6388    0.2671    0.3073 H   0  0  0  0  0  0  0  0  0  0  0  0
  1  2  1  0
  1 10  1  0
  2  3  1  0
  4  5  2  3
  4  7  1  0
  4  8  1  0
  5  6  1  0
  5  9  1  0
  6 11  1  0
  6 12  1  0
M  RAD  1   6   2
M  END
>  <reaction>  (7) 
rxn_428

>  <mol_properties>  (7) 
{"0": {"label": "*1", "atom_type": "O2s"}, "1": {"label": "*0", "atom_type": "O2s"}, "4": {"label": "*4", "atom_type": "Cd"}, "5": {"label": "*3", "atom_type": "Cs"}, "9": {"label": "*2", "atom_type": "H0"}}

>  <type>  (7) 
unop_3

>  <geom_source>  (7) 
Heuristics

$$$$

     RDKit          3D

 12 10  0  0  0  0  0  0  0  0999 V2000
   -0.8592    0.4690    1.5880 O   0  0  0  0  0  0  0  0  0  0  0  0
   -1.9143    0.4648    0.6307 O   0  0  0  0  0  0  0  0  0  0  0  0
   -2.6033   -0.0026    1.1138 H   0  0  0  0  0  0  0  0  0  0  0  0
    1.1216   -0.7918   -2.0660 C   0  0  0  0  0  0  0  0  0  0  0  0
    1.1216   -0.7918   -0.7422 C   0  0  0  0  0  0  0  0  0  0  0  0
    1.1216    0.4304    0.1183 C   0  0  0  0  0  3  0  0  0  0  0  0
    1.1216   -1.7145   -2.6325 H   0  0  0  0  0  0  0  0  0  0  0  0
    1.1216    0.1338   -2.6320 H   0  0  0  0  0  0  0  0  0  0  0  0
    1.1216   -1.7444   -0.2187 H   0  0  0  0  0  0  0  0  0  0  0  0
    0.0684    0.4509    0.8997 H   0  0  0  0  0  0  0  0  0  0  0  0
    1.1216    1.3408   -0.4823 H   0  0  0  0  0  0  0  0  0  0  0  0
    1.9994    0.4475    0.7695 H   0  0  0  0  0  0  0  0  0  0  0  0
  1  2  1  0
  1 10  1  0
  2  3  1  0
  4  5  2  3
  4  7  1  0
  4  8  1  0
  5  6  1  0
  5  9  1  0
  6 11  1  0
  6 12  1  0
M  RAD  1   6   2
M  END
>  <reaction>  (8) 
rxn_428

>  <mol_properties>  (8) 
{"0": {"label": "*1", "atom_type": "O2s"}, "1": {"label": "*0", "atom_type": "O2s"}, "4": {"label": "*4", "atom_type": "Cd"}, "5": {"label": "*3", "atom_type": "Cs"}, "9": {"label": "*2", "atom_type": "H0"}}

>  <type>  (8) 
unop_4

>  <geom_source>  (8) 
Heuristics

$$$$

     RDKit          3D

 12 10  0  0  0  0  0  0  0  0999 V2000
   -1.1439    0.1786    1.2212 O   0  0  0  0  0  0  0  0  0  0  0  0
   -0.9390    1.3973    1.9300 O   0  0  0  0  0  0  0  0  0  0  0  0
   -1.6814    1.9235    1.6159 H   0  0  0  0  0  0  0  0  0  0  0  0
    0.8369   -1.0822   -2.4328 C   0  0  0  0  0  0  0  0  0  0  0  0
    0.8369   -1.0822   -1.1090 C   0  0  0  0  0  0  0  0  0  0  0  0
    0.8369    0.1400   -0.2485 C   0  0  0  0  0  3  0  0  0  0  0  0
    0.8369   -2.0049   -2.9992 H   0  0  0  0  0  0  0  0  0  0  0  0
    0.8369   -0.1566   -2.9988 H   0  0  0  0  0  0  0  0  0  0  0  0
    0.8369   -2.0349   -0.5855 H   0  0  0  0  0  0  0  0  0  0  0  0
   -0.2164    0.1605    0.5330 H   0  0  0  0  0  0  0  0  0  0  0  0
    0.8369    1.0504   -0.8491 H   0  0  0  0  0  0  0  0  0  0  0  0
    1.7146    0.1571    0.4027 H   0  0  0  0  0  0  0  0  0  0  0  0
  1  2  1  0
  1 10  1  0
  2  3  1  0
  4  5  2  3
  4  7  1  0
  4  8  1  0
  5  6  1  0
  5  9  1  0
  6 11  1  0
  6 12  1  0
M  RAD  1   6   2
M  END
>  <reaction>  (9) 
rxn_428

>  <mol_properties>  (9) 
{"0": {"label": "*1", "atom_type": "O2s"}, "1": {"label": "*0", "atom_type": "O2s"}, "4": {"label": "*4", "atom_type": "Cd"}, "5": {"label": "*3", "atom_type": "Cs"}, "9": {"label": "*2", "atom_type": "H0"}}

>  <type>  (9) 
unop_5

>  <geom_source>  (9) 
Heuristics

$$$$

     RDKit          3D

 12 10  0  0  0  0  0  0  0  0999 V2000
   -0.8839    0.3084    1.5578 O   0  0  0  0  0  0  0  0  0  0  0  0
   -1.8212    1.0040    0.7409 O   0  0  0  0  0  0  0  0  0  0  0  0
   -2.6554    0.6883    1.1030 H   0  0  0  0  0  0  0  0  0  0  0  0
    1.0969   -0.9524   -2.0962 C   0  0  0  0  0  0  0  0  0  0  0  0
    1.0969   -0.9524   -0.7724 C   0  0  0  0  0  0  0  0  0  0  0  0
    1.0969    0.2698    0.0881 C   0  0  0  0  0  3  0  0  0  0  0  0
    1.0969   -1.8751   -2.6627 H   0  0  0  0  0  0  0  0  0  0  0  0
    1.0969   -0.0268   -2.6622 H   0  0  0  0  0  0  0  0  0  0  0  0
    1.0969   -1.9050   -0.2489 H   0  0  0  0  0  0  0  0  0  0  0  0
    0.0436    0.2903    0.8696 H   0  0  0  0  0  0  0  0  0  0  0  0
    1.0969    1.1802   -0.5125 H   0  0  0  0  0  0  0  0  0  0  0  0
    1.9746    0.2869    0.7393 H   0  0  0  0  0  0  0  0  0  0  0  0
  1  2  1  0
  1 10  1  0
  2  3  1  0
  4  5  2  3
  4  7  1  0
  4  8  1  0
  5  6  1  0
  5  9  1  0
  6 11  1  0
  6 12  1  0
M  RAD  1   6   2
M  END
>  <reaction>  (10) 
rxn_428

>  <mol_properties>  (10) 
{"0": {"label": "*1", "atom_type": "O2s"}, "1": {"label": "*0", "atom_type": "O2s"}, "4": {"label": "*4", "atom_type": "Cd"}, "5": {"label": "*3", "atom_type": "Cs"}, "9": {"label": "*2", "atom_type": "H0"}}

>  <type>  (10) 
unop_6

>  <geom_source>  (10) 
Heuristics

$$$$

     RDKit          3D

 12 10  0  0  0  0  0  0  0  0999 V2000
   -0.9529    0.1900    1.4682 O   0  0  0  0  0  0  0  0  0  0  0  0
   -1.5808    1.4002    1.0548 O   0  0  0  0  0  0  0  0  0  0  0  0
   -2.4989    1.2218    1.2824 H   0  0  0  0  0  0  0  0  0  0  0  0
    1.0279   -1.0708   -2.1858 C   0  0  0  0  0  0  0  0  0  0  0  0
    1.0279   -1.0708   -0.8620 C   0  0  0  0  0  0  0  0  0  0  0  0
    1.0279    0.1513   -0.0015 C   0  0  0  0  0  3  0  0  0  0  0  0
    1.0279   -1.9936   -2.7523 H   0  0  0  0  0  0  0  0  0  0  0  0
    1.0279   -0.1452   -2.7518 H   0  0  0  0  0  0  0  0  0  0  0  0
    1.0279   -2.0235   -0.3385 H   0  0  0  0  0  0  0  0  0  0  0  0
   -0.0253    0.1719    0.7799 H   0  0  0  0  0  0  0  0  0  0  0  0
    1.0279    1.0618   -0.6021 H   0  0  0  0  0  0  0  0  0  0  0  0
    1.9056    0.1685    0.6497 H   0  0  0  0  0  0  0  0  0  0  0  0
  1  2  1  0
  1 10  1  0
  2  3  1  0
  4  5  2  3
  4  7  1  0
  4  8  1  0
  5  6  1  0
  5  9  1  0
  6 11  1  0
  6 12  1  0
M  RAD  1   6   2
M  END
>  <reaction>  (11) 
rxn_428

>  <mol_properties>  (11) 
{"0": {"label": "*1", "atom_type": "O2s"}, "1": {"label": "*0", "atom_type": "O2s"}, "4": {"label": "*4", "atom_type": "Cd"}, "5": {"label": "*3", "atom_type": "Cs"}, "9": {"label": "*2", "atom_type": "H0"}}

>  <type>  (11) 
unop_7

>  <geom_source>  (11) 
Heuristics

$$$$

     RDKit          3D

 12 10  0  0  0  0  0  0  0  0999 V2000
   -1.2270    0.6085    1.1127 O   0  0  0  0  0  0  0  0  0  0  0  0
   -0.7343   -0.0784    2.2594 O   0  0  0  0  0  0  0  0  0  0  0  0
   -0.1468    0.5844    2.6365 H   0  0  0  0  0  0  0  0  0  0  0  0
    0.7538   -0.6523   -2.5413 C   0  0  0  0  0  0  0  0  0  0  0  0
    0.7538   -0.6523   -1.2175 C   0  0  0  0  0  0  0  0  0  0  0  0
    0.7538    0.5699   -0.3570 C   0  0  0  0  0  3  0  0  0  0  0  0
    0.7538   -1.5750   -3.1077 H   0  0  0  0  0  0  0  0  0  0  0  0
    0.7538    0.2733   -3.1073 H   0  0  0  0  0  0  0  0  0  0  0  0
    0.7538   -1.6049   -0.6940 H   0  0  0  0  0  0  0  0  0  0  0  0
   -0.2994    0.5904    0.4245 H   0  0  0  0  0  0  0  0  0  0  0  0
    0.7538    1.4803   -0.9576 H   0  0  0  0  0  0  0  0  0  0  0  0
    1.6315    0.5870    0.2942 H   0  0  0  0  0  0  0  0  0  0  0  0
  1  2  1  0
  1 10  1  0
  2  3  1  0
  4  5  2  3
  4  7  1  0
  4  8  1  0
  5  6  1  0
  5  9  1  0
  6 11  1  0
  6 12  1  0
M  RAD  1   6   2
M  END
>  <reaction>  (12) 
rxn_428

>  <mol_properties>  (12) 
{"0": {"label": "*1", "atom_type": "O2s"}, "1": {"label": "*0", "atom_type": "O2s"}, "4": {"label": "*4", "atom_type": "Cd"}, "5": {"label": "*3", "atom_type": "Cs"}, "9": {"label": "*2", "atom_type": "H0"}}

>  <type>  (12) 
unop_8

>  <geom_source>  (12) 
Heuristics

$$$$

     RDKit          3D

 12 10  0  0  0  0  0  0  0  0999 V2000
   -0.8870    0.6287    1.5494 O   0  0  0  0  0  0  0  0  0  0  0  0
   -1.8368   -0.0730    0.7524 O   0  0  0  0  0  0  0  0  0  0  0  0
   -2.2295   -0.6621    1.4046 H   0  0  0  0  0  0  0  0  0  0  0  0
    1.0938   -0.6321   -2.1046 C   0  0  0  0  0  0  0  0  0  0  0  0
    1.0938   -0.6321   -0.7808 C   0  0  0  0  0  0  0  0  0  0  0  0
    1.0938    0.5900    0.0797 C   0  0  0  0  0  3  0  0  0  0  0  0
    1.0938   -1.5549   -2.6711 H   0  0  0  0  0  0  0  0  0  0  0  0
    1.0938    0.2935   -2.6706 H   0  0  0  0  0  0  0  0  0  0  0  0
    1.0938   -1.5848   -0.2573 H   0  0  0  0  0  0  0  0  0  0  0  0
    0.0406    0.6106    0.8612 H   0  0  0  0  0  0  0  0  0  0  0  0
    1.0938    1.5005   -0.5209 H   0  0  0  0  0  0  0  0  0  0  0  0
    1.9715    0.6072    0.7309 H   0  0  0  0  0  0  0  0  0  0  0  0
  1  2  1  0
  1 10  1  0
  2  3  1  0
  4  5  2  3
  4  7  1  0
  4  8  1  0
  5  6  1  0
  5  9  1  0
  6 11  1  0
  6 12  1  0
M  RAD  1   6   2
M  END
>  <reaction>  (13) 
rxn_428

>  <mol_properties>  (13) 
{"0": {"label": "*1", "atom_type": "O2s"}, "1": {"label": "*0", "atom_type": "O2s"}, "4": {"label": "*4", "atom_type": "Cd"}, "5": {"label": "*3", "atom_type": "Cs"}, "9": {"label": "*2", "atom_type": "H0"}}

>  <type>  (13) 
unop_9

>  <geom_source>  (13) 
Heuristics

$$$$

     RDKit          3D

 12 10  0  0  0  0  0  0  0  0999 V2000
   -1.1578    0.7303    1.2005 O   0  0  0  0  0  0  0  0  0  0  0  0
   -0.9746   -0.4712    1.9437 O   0  0  0  0  0  0  0  0  0  0  0  0
   -0.3176   -0.1931    2.5900 H   0  0  0  0  0  0  0  0  0  0  0  0
    0.8230   -0.5305   -2.4535 C   0  0  0  0  0  0  0  0  0  0  0  0
    0.8230   -0.5305   -1.1297 C   0  0  0  0  0  0  0  0  0  0  0  0
    0.8230    0.6916   -0.2692 C   0  0  0  0  0  3  0  0  0  0  0  0
    0.8230   -1.4533   -3.0199 H   0  0  0  0  0  0  0  0  0  0  0  0
    0.8230    0.3950   -3.0195 H   0  0  0  0  0  0  0  0  0  0  0  0
    0.8230   -1.4832   -0.6062 H   0  0  0  0  0  0  0  0  0  0  0  0
   -0.2303    0.7122    0.5123 H   0  0  0  0  0  0  0  0  0  0  0  0
    0.8230    1.6021   -0.8698 H   0  0  0  0  0  0  0  0  0  0  0  0
    1.7007    0.7087    0.3820 H   0  0  0  0  0  0  0  0  0  0  0  0
  1  2  1  0
  1 10  1  0
  2  3  1  0
  4  5  2  3
  4  7  1  0
  4  8  1  0
  5  6  1  0
  5  9  1  0
  6 11  1  0
  6 12  1  0
M  RAD  1   6   2
M  END
>  <reaction>  (14) 
rxn_428

>  <mol_properties>  (14) 
{"0": {"label": "*1", "atom_type": "O2s"}, "1": {"label": "*0", "atom_type": "O2s"}, "4": {"label": "*4", "atom_type": "Cd"}, "5": {"label": "*3", "atom_type": "Cs"}, "9": {"label": "*2", "atom_type": "H0"}}

>  <type>  (14) 
unop_10

>  <geom_source>  (14) 
Heuristics

$$$$

     RDKit          3D

 12 10  0  0  0  0  0  0  0  0999 V2000
   -1.0470    0.1436    1.3449 O   0  0  0  0  0  0  0  0  0  0  0  0
   -1.2568    1.5452    1.4900 O   0  0  0  0  0  0  0  0  0  0  0  0
   -2.2181    1.5931    1.4738 H   0  0  0  0  0  0  0  0  0  0  0  0
    0.9338   -1.1172   -2.3090 C   0  0  0  0  0  0  0  0  0  0  0  0
    0.9338   -1.1172   -0.9853 C   0  0  0  0  0  0  0  0  0  0  0  0
    0.9338    0.1049   -0.1248 C   0  0  0  0  0  3  0  0  0  0  0  0
    0.9338   -2.0400   -2.8755 H   0  0  0  0  0  0  0  0  0  0  0  0
    0.9338   -0.1916   -2.8750 H   0  0  0  0  0  0  0  0  0  0  0  0
    0.9338   -2.0699   -0.4618 H   0  0  0  0  0  0  0  0  0  0  0  0
   -0.1195    0.1255    0.6567 H   0  0  0  0  0  0  0  0  0  0  0  0
    0.9338    1.0154   -0.7254 H   0  0  0  0  0  0  0  0  0  0  0  0
    1.8115    0.1220    0.5264 H   0  0  0  0  0  0  0  0  0  0  0  0
  1  2  1  0
  1 10  1  0
  2  3  1  0
  4  5  2  3
  4  7  1  0
  4  8  1  0
  5  6  1  0
  5  9  1  0
  6 11  1  0
  6 12  1  0
M  RAD  1   6   2
M  END
>  <reaction>  (15) 
rxn_428

>  <mol_properties>  (15) 
{"0": {"label": "*1", "atom_type": "O2s"}, "1": {"label": "*0", "atom_type": "O2s"}, "4": {"label": "*4", "atom_type": "Cd"}, "5": {"label": "*3", "atom_type": "Cs"}, "9": {"label": "*2", "atom_type": "H0"}}

>  <type>  (15) 
unop_11

>  <geom_source>  (15) 
Heuristics

$$$$

     RDKit          3D

 12 10  0  0  0  0  0  0  0  0999 V2000
   -0.9613    0.7428    1.4525 O   0  0  0  0  0  0  0  0  0  0  0  0
   -1.6108   -0.4672    1.0736 O   0  0  0  0  0  0  0  0  0  0  0  0
   -1.5385   -0.9803    1.8848 H   0  0  0  0  0  0  0  0  0  0  0  0
    1.0195   -0.5180   -2.2014 C   0  0  0  0  0  0  0  0  0  0  0  0
    1.0195   -0.5180   -0.8777 C   0  0  0  0  0  0  0  0  0  0  0  0
    1.0195    0.7042   -0.0172 C   0  0  0  0  0  3  0  0  0  0  0  0
    1.0195   -1.4407   -2.7679 H   0  0  0  0  0  0  0  0  0  0  0  0
    1.0195    0.4076   -2.7674 H   0  0  0  0  0  0  0  0  0  0  0  0
    1.0195   -1.4706   -0.3541 H   0  0  0  0  0  0  0  0  0  0  0  0
   -0.0337    0.7247    0.7643 H   0  0  0  0  0  0  0  0  0  0  0  0
    1.0195    1.6146   -0.6178 H   0  0  0  0  0  0  0  0  0  0  0  0
    1.8972    0.7213    0.6341 H   0  0  0  0  0  0  0  0  0  0  0  0
  1  2  1  0
  1 10  1  0
  2  3  1  0
  4  5  2  3
  4  7  1  0
  4  8  1  0
  5  6  1  0
  5  9  1  0
  6 11  1  0
  6 12  1  0
M  RAD  1   6   2
M  END
>  <reaction>  (16) 
rxn_428

>  <mol_properties>  (16) 
{"0": {"label": "*1", "atom_type": "O2s"}, "1": {"label": "*0", "atom_type": "O2s"}, "4": {"label": "*4", "atom_type": "Cd"}, "5": {"label": "*3", "atom_type": "Cs"}, "9": {"label": "*2", "atom_type": "H0"}}

>  <type>  (16) 
unop_12

>  <geom_source>  (16) 
Heuristics

$$$$

     RDKit          3D

 12 10  0  0  0  0  0  0  0  0999 V2000
    2.5893   -0.4612    0.4863 O   0  0  0  0  0  0  0  0  0  0  0  0
    1.6029    0.3808    0.7110 O   0  0  0  0  0  1  0  0  0  0  0  0
   -1.1844   -0.3466    0.1704 C   0  0  0  0  0  0  0  0  0  0  0  0
   -0.0735   -0.5330   -0.8125 C   0  0  0  0  0  0  0  0  0  0  0  0
   -1.5950    0.8751    0.5139 C   0  0  0  0  0  0  0  0  0  0  0  0
   -1.6541   -1.2168    0.6193 H   0  0  0  0  0  0  0  0  0  0  0  0
   -1.1358    1.7600    0.0831 H   0  0  0  0  0  0  0  0  0  0  0  0
   -2.3985    0.9957    1.2333 H   0  0  0  0  0  0  0  0  0  0  0  0
   -0.3688   -0.1240   -1.8019 H   0  0  0  0  0  0  0  0  0  0  0  0
    0.1610   -1.6127   -0.9195 H   0  0  0  0  0  0  0  0  0  0  0  0
    3.2729    0.0758    0.0113 H   0  0  0  0  0  0  0  0  0  0  0  0
    0.7841    0.2068   -0.2949 H   0  0  0  0  0  0  0  0  0  0  0  0
  1  2  1  0
  1 11  1  0
  3  5  2  3
  3  4  1  0
  3  6  1  0
  4  9  1  0
  4 10  1  0
  4 12  1  0
  5  7  1  0
  5  8  1  0
M  RAD  1   2   2
M  END
>  <reaction>  (17) 
rxn_428

>  <mol_properties>  (17) 
{"0": {"label": "*1", "atom_type": "O2s"}, "1": {"label": "*0", "atom_type": "O2s"}, "4": {"label": "*4", "atom_type": "Cd"}, "5": {"label": "*3", "atom_type": "Cs"}, "9": {"label": "*2", "atom_type": "H0"}}

>  <type>  (17) 
unop_13

>  <geom_source>  (17) 
AutoTST

$$$$
