
     RDKit          3D

 13 12  0  0  0  0  0  0  0  0999 V2000
    3.0977   -0.3549   -0.5105 C   0  0  0  0  0  0  0  0  0  0  0  0
    2.0556    0.4221   -0.2627 C   0  0  0  0  0  0  0  0  0  0  0  0
    0.6313   -0.0354   -0.2366 C   0  0  0  0  0  0  0  0  0  0  0  0
   -0.2567    0.6038   -1.2694 C   0  0  0  0  0  0  0  0  0  0  0  0
    0.1459    1.3456   -2.2891 C   0  0  0  0  0  0  0  0  0  0  0  0
    4.1081    0.0344   -0.5074 H   0  0  0  0  0  0  0  0  0  0  0  0
    2.9777   -1.4116   -0.7243 H   0  0  0  0  0  0  0  0  0  0  0  0
    2.2171    1.4781   -0.0618 H   0  0  0  0  0  0  0  0  0  0  0  0
    0.5865   -1.1233   -0.3540 H   0  0  0  0  0  0  0  0  0  0  0  0
    0.2065    0.1743    0.7521 H   0  0  0  0  0  0  0  0  0  0  0  0
   -1.3190    0.4126   -1.1445 H   0  0  0  0  0  0  0  0  0  0  0  0
    1.1948    1.5564   -2.4628 H   0  0  0  0  0  0  0  0  0  0  0  0
   -0.5644    1.7621   -2.9918 H   0  0  0  0  0  0  0  0  0  0  0  0
  1  2  2  3
  1  6  1  0
  1  7  1  0
  2  3  1  0
  2  8  1  0
  3  4  1  0
  3  9  1  0
  3 10  1  0
  4  5  2  3
  4 11  1  0
  5 12  1  0
  5 13  1  0
M  END
>  <reaction>  (1) 
rxn_1138

>  <mol_properties>  (1) 
{"2": {"label": "donator", "atom_type": "Cs"}, "8": {"label": "d_hydrogen", "atom_type": "H0"}}

>  <type>  (1) 
r1h

$$$$

     RDKit          3D

 11 10  0  0  0  0  0  0  0  0999 V2000
   -0.9580    1.1013   -2.2955 C   0  0  0  0  0  0  0  0  0  0  0  0
   -0.5129    0.5941   -1.2929 C   0  0  0  0  0  0  0  0  0  0  0  0
   -0.0301   -0.0160   -0.1357 C   0  0  0  0  0  3  0  0  0  0  0  0
   -0.6593   -1.2845    0.3661 C   0  0  0  0  0  0  0  0  0  0  0  0
    1.0691    0.5292    0.5269 C   0  0  0  0  0  0  0  0  0  0  0  0
    2.0168    0.9794    1.1266 C   0  0  0  0  0  0  0  0  0  0  0  0
   -1.3415    1.5561   -3.1769 H   0  0  0  0  0  0  0  0  0  0  0  0
   -1.7166   -1.3186    0.1054 H   0  0  0  0  0  0  0  0  0  0  0  0
   -0.1742   -2.1550   -0.0865 H   0  0  0  0  0  0  0  0  0  0  0  0
   -0.5505   -1.3663    1.4470 H   0  0  0  0  0  0  0  0  0  0  0  0
    2.8514    1.3842    1.6465 H   0  0  0  0  0  0  0  0  0  0  0  0
  1  2  3  0
  1  7  1  0
  2  3  1  0
  3  4  1  0
  3  5  1  0
  4  8  1  0
  4  9  1  0
  4 10  1  0
  5  6  3  0
  6 11  1  0
M  RAD  1   3   2
M  END
>  <reaction>  (2) 
rxn_1138

>  <mol_properties>  (2) 
{"2": {"label": "acceptor", "atom_type": "Cs"}}

>  <type>  (2) 
r2

$$$$

     RDKit          3D

 12 11  0  0  0  0  0  0  0  0999 V2000
    2.1696    0.6854    1.1310 C   0  0  0  0  0  0  0  0  0  0  0  0
    1.2518    0.4145    0.4134 C   0  0  0  0  0  0  0  0  0  0  0  0
    0.1391    0.0443   -0.4683 C   0  0  0  0  0  0  0  0  0  0  0  0
   -0.2054   -1.4492   -0.3339 C   0  0  0  0  0  0  0  0  0  0  0  0
   -1.0375    0.8853   -0.2222 C   0  0  0  0  0  0  0  0  0  0  0  0
   -2.0160    1.5463   -0.0311 C   0  0  0  0  0  0  0  0  0  0  0  0
    2.9819    0.9356    1.7702 H   0  0  0  0  0  0  0  0  0  0  0  0
    0.4629    0.2285   -1.4981 H   0  0  0  0  0  0  0  0  0  0  0  0
   -0.5327   -1.6703    0.6812 H   0  0  0  0  0  0  0  0  0  0  0  0
    0.6727   -2.0535   -0.5593 H   0  0  0  0  0  0  0  0  0  0  0  0
   -1.0064   -1.7081   -1.0256 H   0  0  0  0  0  0  0  0  0  0  0  0
   -2.8802    2.1413    0.1426 H   0  0  0  0  0  0  0  0  0  0  0  0
  1  2  3  0
  1  7  1  0
  2  3  1  0
  3  4  1  0
  3  5  1  0
  3  8  1  0
  4  9  1  0
  4 10  1  0
  4 11  1  0
  5  6  3  0
  6 12  1  0
M  END
>  <reaction>  (3) 
rxn_1138

>  <mol_properties>  (3) 
{"2": {"label": "acceptor", "atom_type": "Cs"}, "11": {"label": "a_hydrogen", "atom_type": "H0"}}

>  <type>  (3) 
r2h

$$$$

     RDKit          3D

 24 22  0  0  0  0  0  0  0  0999 V2000
   -2.6052    1.2954   -1.3279 C   0  0  0  0  0  0  0  0  0  0  0  0
   -1.4908    1.3194   -0.8804 C   0  0  0  0  0  0  0  0  0  0  0  0
   -0.1610    1.2713   -0.3550 C   0  0  0  0  0  3  0  0  0  0  0  0
    0.9621    1.1848   -1.3731 C   0  0  0  0  0  0  0  0  0  0  0  0
    0.0914    2.0860    0.7945 C   0  0  0  0  0  0  0  0  0  0  0  0
    0.3413    2.7155    1.7864 C   0  0  0  0  0  0  0  0  0  0  0  0
   -3.5914    1.2960   -1.7253 H   0  0  0  0  0  0  0  0  0  0  0  0
    0.7341    0.4131   -2.1084 H   0  0  0  0  0  0  0  0  0  0  0  0
    1.0885    2.1360   -1.8937 H   0  0  0  0  0  0  0  0  0  0  0  0
    1.8971    0.9357   -0.8702 H   0  0  0  0  0  0  0  0  0  0  0  0
    0.5530    3.2937    2.6533 H   0  0  0  0  0  0  0  0  0  0  0  0
   -1.0383   -2.4664   -1.2623 C   0  0  0  0  0  0  0  0  0  0  0  0
    0.0434   -2.0500   -0.6044 C   0  0  0  0  0  0  0  0  0  0  0  0
   -0.0035   -1.2494    0.6164 C   0  0  0  0  0  0  0  0  0  0  0  0
    1.1375   -1.1756    1.5308 C   0  0  0  0  0  0  0  0  0  0  0  0
    2.3759   -1.6207    1.3118 C   0  0  0  0  0  0  0  0  0  0  0  0
   -0.9569   -3.0259   -2.1848 H   0  0  0  0  0  0  0  0  0  0  0  0
   -2.0367   -2.2575   -0.8950 H   0  0  0  0  0  0  0  0  0  0  0  0
    1.0213   -2.2690   -1.0209 H   0  0  0  0  0  0  0  0  0  0  0  0
   -0.0991   -0.0017    0.1751 H   0  0  0  0  0  0  0  0  0  0  0  0
   -0.9707   -1.2686    1.1184 H   0  0  0  0  0  0  0  0  0  0  0  0
    0.9381   -0.6559    2.4626 H   0  0  0  0  0  0  0  0  0  0  0  0
    2.6568   -2.1510    0.4104 H   0  0  0  0  0  0  0  0  0  0  0  0
    3.1528   -1.4750    2.0506 H   0  0  0  0  0  0  0  0  0  0  0  0
  1  2  3  0
  1  7  1  0
  2  3  1  0
  3  4  1  0
  3  5  1  0
  4  8  1  0
  4  9  1  0
  4 10  1  0
  5  6  3  0
  6 11  1  0
 12 13  2  3
 12 17  1  0
 12 18  1  0
 13 14  1  0
 13 19  1  0
 14 15  1  0
 14 20  1  0
 14 21  1  0
 15 16  2  3
 15 22  1  0
 16 23  1  0
 16 24  1  0
M  RAD  1   3   2
M  END
>  <reaction>  (4) 
rxn_1138

>  <mol_properties>  (4) 
{"1": {"label": "*4", "atom_type": "Ct"}, "2": {"label": "*3", "atom_type": "Cs"}, "12": {"label": "*0", "atom_type": "Cd"}, "13": {"label": "*1", "atom_type": "Cs"}, "19": {"label": "*2", "atom_type": "H0"}}

>  <type>  (4) 
ts

$$$$

     RDKit          3D

 24 22  0  0  0  0  0  0  0  0999 V2000
   -2.6883    2.2503   -0.0184 C   0  0  0  0  0  0  0  0  0  0  0  0
   -1.6812    1.6841   -0.3282 C   0  0  0  0  0  0  0  0  0  0  0  0
   -0.4575    0.9914   -0.7466 C   0  0  0  0  0  0  0  0  0  0  0  0
   -0.0801    1.3522   -2.1940 C   0  0  0  0  0  0  0  0  0  0  0  0
    0.6505    1.2646    0.1753 C   0  0  0  0  0  0  0  0  0  0  0  0
    1.5749    1.4833    0.9022 C   0  0  0  0  0  0  0  0  0  0  0  0
   -3.5837    2.7537    0.2571 H   0  0  0  0  0  0  0  0  0  0  0  0
   -0.9027    1.1041   -2.8640 H   0  0  0  0  0  0  0  0  0  0  0  0
    0.1290    2.4181   -2.2741 H   0  0  0  0  0  0  0  0  0  0  0  0
    0.8075    0.7964   -2.4947 H   0  0  0  0  0  0  0  0  0  0  0  0
    2.3968    1.6777    1.5485 H   0  0  0  0  0  0  0  0  0  0  0  0
   -0.2174   -2.3783   -1.4268 C   0  0  0  0  0  0  0  0  0  0  0  0
   -0.2174   -2.3783   -0.1036 C   0  0  0  0  0  0  0  0  0  0  0  0
   -0.2174   -1.1525    0.7544 C   0  0  0  0  0  3  0  0  0  0  0  0
    0.9924   -0.9981    1.6356 C   0  0  0  0  0  0  0  0  0  0  0  0
    2.1035   -1.7138    1.5632 C   0  0  0  0  0  0  0  0  0  0  0  0
   -0.2255   -3.3010   -1.9933 H   0  0  0  0  0  0  0  0  0  0  0  0
   -0.2110   -1.4529   -1.9928 H   0  0  0  0  0  0  0  0  0  0  0  0
   -0.2148   -3.3271    0.4270 H   0  0  0  0  0  0  0  0  0  0  0  0
   -0.3374   -0.0805    0.0039 H   0  0  0  0  0  0  0  0  0  0  0  0
   -1.1053   -1.1660    1.3972 H   0  0  0  0  0  0  0  0  0  0  0  0
    0.9197   -0.2131    2.3834 H   0  0  0  0  0  0  0  0  0  0  0  0
    2.2290   -2.5007    0.8283 H   0  0  0  0  0  0  0  0  0  0  0  0
    2.9317   -1.5295    2.2355 H   0  0  0  0  0  0  0  0  0  0  0  0
  1  2  3  0
  1  7  1  0
  2  3  1  0
  3  4  1  0
  3  5  1  0
  3 20  1  0
  4  8  1  0
  4  9  1  0
  4 10  1  0
  5  6  3  0
  6 11  1  0
 12 13  2  3
 12 17  1  0
 12 18  1  0
 13 14  1  0
 13 19  1  0
 14 15  1  0
 14 21  1  0
 15 16  2  3
 15 22  1  0
 16 23  1  0
 16 24  1  0
M  RAD  1  14   2
M  END
>  <reaction>  (5) 
rxn_1138

>  <mol_properties>  (5) 
{"1": {"label": "*4", "atom_type": "Ct"}, "2": {"label": "*3", "atom_type": "Cs"}, "12": {"label": "*0", "atom_type": "Cd"}, "13": {"label": "*1", "atom_type": "Cs"}, "19": {"label": "*2", "atom_type": "H0"}}

>  <type>  (5) 
unop_1

>  <geom_source>  (5) 
Heuristics

$$$$

     RDKit          3D

 24 22  0  0  0  0  0  0  0  0999 V2000
   -1.5574    0.4182   -2.6547 C   0  0  0  0  0  0  0  0  0  0  0  0
   -0.9509    0.7247   -1.6704 C   0  0  0  0  0  0  0  0  0  0  0  0
   -0.1739    1.1047   -0.4853 C   0  0  0  0  0  0  0  0  0  0  0  0
    1.0294    1.9847   -0.8664 C   0  0  0  0  0  0  0  0  0  0  0  0
   -1.0188    1.7646    0.5161 C   0  0  0  0  0  0  0  0  0  0  0  0
   -1.6817    2.3195    1.3429 C   0  0  0  0  0  0  0  0  0  0  0  0
   -2.0966    0.1457   -3.5299 H   0  0  0  0  0  0  0  0  0  0  0  0
    1.6619    1.4580   -1.5802 H   0  0  0  0  0  0  0  0  0  0  0  0
    0.6875    2.9144   -1.3193 H   0  0  0  0  0  0  0  0  0  0  0  0
    1.6121    2.2207    0.0234 H   0  0  0  0  0  0  0  0  0  0  0  0
   -2.2710    2.8128    2.0780 H   0  0  0  0  0  0  0  0  0  0  0  0
    0.0663   -2.2651   -1.1655 C   0  0  0  0  0  0  0  0  0  0  0  0
    0.0663   -2.2651    0.1578 C   0  0  0  0  0  0  0  0  0  0  0  0
    0.0663   -1.0393    1.0158 C   0  0  0  0  0  3  0  0  0  0  0  0
    1.2760   -0.8849    1.8970 C   0  0  0  0  0  0  0  0  0  0  0  0
    2.3871   -1.6006    1.8245 C   0  0  0  0  0  0  0  0  0  0  0  0
    0.0581   -3.1878   -1.7320 H   0  0  0  0  0  0  0  0  0  0  0  0
    0.0726   -1.3396   -1.7315 H   0  0  0  0  0  0  0  0  0  0  0  0
    0.0688   -3.2138    0.6883 H   0  0  0  0  0  0  0  0  0  0  0  0
   -0.0538    0.0327    0.2652 H   0  0  0  0  0  0  0  0  0  0  0  0
   -0.8217   -1.0528    1.6585 H   0  0  0  0  0  0  0  0  0  0  0  0
    1.2033   -0.0999    2.6447 H   0  0  0  0  0  0  0  0  0  0  0  0
    2.5126   -2.3875    1.0897 H   0  0  0  0  0  0  0  0  0  0  0  0
    3.2154   -1.4163    2.4969 H   0  0  0  0  0  0  0  0  0  0  0  0
  1  2  3  0
  1  7  1  0
  2  3  1  0
  3  4  1  0
  3  5  1  0
  3 20  1  0
  4  8  1  0
  4  9  1  0
  4 10  1  0
  5  6  3  0
  6 11  1  0
 12 13  2  3
 12 17  1  0
 12 18  1  0
 13 14  1  0
 13 19  1  0
 14 15  1  0
 14 21  1  0
 15 16  2  3
 15 22  1  0
 16 23  1  0
 16 24  1  0
M  RAD  1  14   2
M  END
>  <reaction>  (6) 
rxn_1138

>  <mol_properties>  (6) 
{"1": {"label": "*4", "atom_type": "Ct"}, "2": {"label": "*3", "atom_type": "Cs"}, "12": {"label": "*0", "atom_type": "Cd"}, "13": {"label": "*1", "atom_type": "Cs"}, "19": {"label": "*2", "atom_type": "H0"}}

>  <type>  (6) 
unop_2

>  <geom_source>  (6) 
Heuristics

$$$$

     RDKit          3D

 24 22  0  0  0  0  0  0  0  0999 V2000
   -1.8777    2.8298    0.7755 C   0  0  0  0  0  0  0  0  0  0  0  0
   -1.2855    2.0012    0.1481 C   0  0  0  0  0  0  0  0  0  0  0  0
   -0.5889    0.9849   -0.6482 C   0  0  0  0  0  0  0  0  0  0  0  0
   -0.9884    1.0689   -2.1317 C   0  0  0  0  0  0  0  0  0  0  0  0
    0.8655    1.0841   -0.4831 C   0  0  0  0  0  0  0  0  0  0  0  0
    2.0551    1.1530   -0.3787 C   0  0  0  0  0  0  0  0  0  0  0  0
   -2.4042    3.5665    1.3332 H   0  0  0  0  0  0  0  0  0  0  0  0
   -2.0671    0.9535   -2.2317 H   0  0  0  0  0  0  0  0  0  0  0  0
   -0.6985    2.0338   -2.5456 H   0  0  0  0  0  0  0  0  0  0  0  0
   -0.4895    0.2808   -2.6947 H   0  0  0  0  0  0  0  0  0  0  0  0
    3.1128    1.2142   -0.2859 H   0  0  0  0  0  0  0  0  0  0  0  0
   -0.3487   -2.3849   -1.3283 C   0  0  0  0  0  0  0  0  0  0  0  0
   -0.3487   -2.3849   -0.0051 C   0  0  0  0  0  0  0  0  0  0  0  0
   -0.3487   -1.1590    0.8529 C   0  0  0  0  0  3  0  0  0  0  0  0
    0.8610   -1.0047    1.7341 C   0  0  0  0  0  0  0  0  0  0  0  0
    1.9722   -1.7204    1.6617 C   0  0  0  0  0  0  0  0  0  0  0  0
   -0.3569   -3.3076   -1.8949 H   0  0  0  0  0  0  0  0  0  0  0  0
   -0.3424   -1.4594   -1.8943 H   0  0  0  0  0  0  0  0  0  0  0  0
   -0.3461   -3.3336    0.5254 H   0  0  0  0  0  0  0  0  0  0  0  0
   -0.4688   -0.0871    0.1024 H   0  0  0  0  0  0  0  0  0  0  0  0
   -1.2367   -1.1725    1.4957 H   0  0  0  0  0  0  0  0  0  0  0  0
    0.7883   -0.2197    2.4818 H   0  0  0  0  0  0  0  0  0  0  0  0
    2.0976   -2.5072    0.9268 H   0  0  0  0  0  0  0  0  0  0  0  0
    2.8004   -1.5361    2.3340 H   0  0  0  0  0  0  0  0  0  0  0  0
  1  2  3  0
  1  7  1  0
  2  3  1  0
  3  4  1  0
  3  5  1  0
  3 20  1  0
  4  8  1  0
  4  9  1  0
  4 10  1  0
  5  6  3  0
  6 11  1  0
 12 13  2  3
 12 17  1  0
 12 18  1  0
 13 14  1  0
 13 19  1  0
 14 15  1  0
 14 21  1  0
 15 16  2  3
 15 22  1  0
 16 23  1  0
 16 24  1  0
M  RAD  1  14   2
M  END
>  <reaction>  (7) 
rxn_1138

>  <mol_properties>  (7) 
{"1": {"label": "*4", "atom_type": "Ct"}, "2": {"label": "*3", "atom_type": "Cs"}, "12": {"label": "*0", "atom_type": "Cd"}, "13": {"label": "*1", "atom_type": "Cs"}, "19": {"label": "*2", "atom_type": "H0"}}

>  <type>  (7) 
unop_3

>  <geom_source>  (7) 
Heuristics

$$$$

     RDKit          3D

 24 22  0  0  0  0  0  0  0  0999 V2000
    1.6231    1.0795   -1.9834 C   0  0  0  0  0  0  0  0  0  0  0  0
    0.6706    1.0607   -1.2602 C   0  0  0  0  0  0  0  0  0  0  0  0
   -0.4731    1.0390   -0.3415 C   0  0  0  0  0  0  0  0  0  0  0  0
   -0.1241    1.7093    0.9988 C   0  0  0  0  0  0  0  0  0  0  0  0
   -1.6572    1.6544   -0.9510 C   0  0  0  0  0  0  0  0  0  0  0  0
   -2.6329    2.1649   -1.4182 C   0  0  0  0  0  0  0  0  0  0  0  0
    2.4700    1.0962   -2.6264 H   0  0  0  0  0  0  0  0  0  0  0  0
    0.7328    1.2104    1.4502 H   0  0  0  0  0  0  0  0  0  0  0  0
    0.1226    2.7585    0.8420 H   0  0  0  0  0  0  0  0  0  0  0  0
   -0.9745    1.6458    1.6769 H   0  0  0  0  0  0  0  0  0  0  0  0
   -3.5003    2.6188   -1.8335 H   0  0  0  0  0  0  0  0  0  0  0  0
   -0.2329   -2.3308   -1.0217 C   0  0  0  0  0  0  0  0  0  0  0  0
   -0.2329   -2.3308    0.3015 C   0  0  0  0  0  0  0  0  0  0  0  0
   -0.2329   -1.1050    1.1595 C   0  0  0  0  0  3  0  0  0  0  0  0
    0.9768   -0.9506    2.0407 C   0  0  0  0  0  0  0  0  0  0  0  0
    2.0879   -1.6663    1.9683 C   0  0  0  0  0  0  0  0  0  0  0  0
   -0.2411   -3.2535   -1.5882 H   0  0  0  0  0  0  0  0  0  0  0  0
   -0.2266   -1.4053   -1.5877 H   0  0  0  0  0  0  0  0  0  0  0  0
   -0.2304   -3.2795    0.8321 H   0  0  0  0  0  0  0  0  0  0  0  0
   -0.3530   -0.0330    0.4090 H   0  0  0  0  0  0  0  0  0  0  0  0
   -1.1209   -1.1185    1.8023 H   0  0  0  0  0  0  0  0  0  0  0  0
    0.9041   -0.1656    2.7885 H   0  0  0  0  0  0  0  0  0  0  0  0
    2.2134   -2.4532    1.2334 H   0  0  0  0  0  0  0  0  0  0  0  0
    2.9161   -1.4820    2.6406 H   0  0  0  0  0  0  0  0  0  0  0  0
  1  2  3  0
  1  7  1  0
  2  3  1  0
  3  4  1  0
  3  5  1  0
  3 20  1  0
  4  8  1  0
  4  9  1  0
  4 10  1  0
  5  6  3  0
  6 11  1  0
 12 13  2  3
 12 17  1  0
 12 18  1  0
 13 14  1  0
 13 19  1  0
 14 15  1  0
 14 21  1  0
 15 16  2  3
 15 22  1  0
 16 23  1  0
 16 24  1  0
M  RAD  1  14   2
M  END
>  <reaction>  (8) 
rxn_1138

>  <mol_properties>  (8) 
{"1": {"label": "*4", "atom_type": "Ct"}, "2": {"label": "*3", "atom_type": "Cs"}, "12": {"label": "*0", "atom_type": "Cd"}, "13": {"label": "*1", "atom_type": "Cs"}, "19": {"label": "*2", "atom_type": "H0"}}

>  <type>  (8) 
unop_4

>  <geom_source>  (8) 
Heuristics

$$$$

     RDKit          3D

 24 22  0  0  0  0  0  0  0  0999 V2000
   -0.6054    3.0977    1.1417 C   0  0  0  0  0  0  0  0  0  0  0  0
   -0.5780    2.1508    0.4114 C   0  0  0  0  0  0  0  0  0  0  0  0
   -0.5844    0.9874   -0.4824 C   0  0  0  0  0  0  0  0  0  0  0  0
   -1.9111    0.8855   -1.2551 C   0  0  0  0  0  0  0  0  0  0  0  0
    0.5625    1.0124   -1.3969 C   0  0  0  0  0  0  0  0  0  0  0  0
    1.4799    1.0165   -2.1645 C   0  0  0  0  0  0  0  0  0  0  0  0
   -0.6298    3.9396    1.7910 H   0  0  0  0  0  0  0  0  0  0  0  0
   -2.7439    0.8288   -0.5549 H   0  0  0  0  0  0  0  0  0  0  0  0
   -2.0451    1.7602   -1.8902 H   0  0  0  0  0  0  0  0  0  0  0  0
   -1.9074   -0.0061   -1.8812 H   0  0  0  0  0  0  0  0  0  0  0  0
    2.2955    1.0200   -2.8469 H   0  0  0  0  0  0  0  0  0  0  0  0
   -0.3442   -2.3823   -1.1626 C   0  0  0  0  0  0  0  0  0  0  0  0
   -0.3442   -2.3823    0.1607 C   0  0  0  0  0  0  0  0  0  0  0  0
   -0.3442   -1.1565    1.0187 C   0  0  0  0  0  3  0  0  0  0  0  0
    0.8655   -1.0022    1.8999 C   0  0  0  0  0  0  0  0  0  0  0  0
    1.9766   -1.7179    1.8274 C   0  0  0  0  0  0  0  0  0  0  0  0
   -0.3524   -3.3051   -1.7291 H   0  0  0  0  0  0  0  0  0  0  0  0
   -0.3379   -1.4569   -1.7286 H   0  0  0  0  0  0  0  0  0  0  0  0
   -0.3417   -3.3311    0.6912 H   0  0  0  0  0  0  0  0  0  0  0  0
   -0.4643   -0.0846    0.2681 H   0  0  0  0  0  0  0  0  0  0  0  0
   -1.2322   -1.1700    1.6614 H   0  0  0  0  0  0  0  0  0  0  0  0
    0.7928   -0.2172    2.6476 H   0  0  0  0  0  0  0  0  0  0  0  0
    2.1021   -2.5047    1.0926 H   0  0  0  0  0  0  0  0  0  0  0  0
    2.8048   -1.5336    2.4998 H   0  0  0  0  0  0  0  0  0  0  0  0
  1  2  3  0
  1  7  1  0
  2  3  1  0
  3  4  1  0
  3  5  1  0
  3 20  1  0
  4  8  1  0
  4  9  1  0
  4 10  1  0
  5  6  3  0
  6 11  1  0
 12 13  2  3
 12 17  1  0
 12 18  1  0
 13 14  1  0
 13 19  1  0
 14 15  1  0
 14 21  1  0
 15 16  2  3
 15 22  1  0
 16 23  1  0
 16 24  1  0
M  RAD  1  14   2
M  END
>  <reaction>  (9) 
rxn_1138

>  <mol_properties>  (9) 
{"1": {"label": "*4", "atom_type": "Ct"}, "2": {"label": "*3", "atom_type": "Cs"}, "12": {"label": "*0", "atom_type": "Cd"}, "13": {"label": "*1", "atom_type": "Cs"}, "19": {"label": "*2", "atom_type": "H0"}}

>  <type>  (9) 
unop_5

>  <geom_source>  (9) 
Heuristics

$$$$

     RDKit          3D

 24 22  0  0  0  0  0  0  0  0999 V2000
    1.9707    1.7871   -1.0230 C   0  0  0  0  0  0  0  0  0  0  0  0
    0.8591    1.4322   -0.7598 C   0  0  0  0  0  0  0  0  0  0  0  0
   -0.4944    0.9969   -0.3982 C   0  0  0  0  0  0  0  0  0  0  0  0
   -0.8622    1.4461    1.0268 C   0  0  0  0  0  0  0  0  0  0  0  0
   -1.4833    1.4662   -1.3751 C   0  0  0  0  0  0  0  0  0  0  0  0
   -2.3120    1.8492   -2.1479 C   0  0  0  0  0  0  0  0  0  0  0  0
    2.9590    2.1026   -1.2569 H   0  0  0  0  0  0  0  0  0  0  0  0
   -0.1362    1.0531    1.7378 H   0  0  0  0  0  0  0  0  0  0  0  0
   -0.8631    2.5334    1.0903 H   0  0  0  0  0  0  0  0  0  0  0  0
   -1.8542    1.0780    1.2865 H   0  0  0  0  0  0  0  0  0  0  0  0
   -3.0488    2.1897   -2.8350 H   0  0  0  0  0  0  0  0  0  0  0  0
   -0.2543   -2.3728   -1.0784 C   0  0  0  0  0  0  0  0  0  0  0  0
   -0.2543   -2.3728    0.2449 C   0  0  0  0  0  0  0  0  0  0  0  0
   -0.2543   -1.1470    1.1029 C   0  0  0  0  0  3  0  0  0  0  0  0
    0.9555   -0.9927    1.9841 C   0  0  0  0  0  0  0  0  0  0  0  0
    2.0666   -1.7084    1.9116 C   0  0  0  0  0  0  0  0  0  0  0  0
   -0.2624   -3.2956   -1.6449 H   0  0  0  0  0  0  0  0  0  0  0  0
   -0.2479   -1.4474   -1.6444 H   0  0  0  0  0  0  0  0  0  0  0  0
   -0.2517   -3.3216    0.7754 H   0  0  0  0  0  0  0  0  0  0  0  0
   -0.3743   -0.0751    0.3523 H   0  0  0  0  0  0  0  0  0  0  0  0
   -1.1422   -1.1605    1.7456 H   0  0  0  0  0  0  0  0  0  0  0  0
    0.8828   -0.2076    2.7318 H   0  0  0  0  0  0  0  0  0  0  0  0
    2.1921   -2.4952    1.1768 H   0  0  0  0  0  0  0  0  0  0  0  0
    2.8948   -1.5241    2.5840 H   0  0  0  0  0  0  0  0  0  0  0  0
  1  2  3  0
  1  7  1  0
  2  3  1  0
  3  4  1  0
  3  5  1  0
  3 20  1  0
  4  8  1  0
  4  9  1  0
  4 10  1  0
  5  6  3  0
  6 11  1  0
 12 13  2  3
 12 17  1  0
 12 18  1  0
 13 14  1  0
 13 19  1  0
 14 15  1  0
 14 21  1  0
 15 16  2  3
 15 22  1  0
 16 23  1  0
 16 24  1  0
M  RAD  1  14   2
M  END
>  <reaction>  (10) 
rxn_1138

>  <mol_properties>  (10) 
{"1": {"label": "*4", "atom_type": "Ct"}, "2": {"label": "*3", "atom_type": "Cs"}, "12": {"label": "*0", "atom_type": "Cd"}, "13": {"label": "*1", "atom_type": "Cs"}, "19": {"label": "*2", "atom_type": "H0"}}

>  <type>  (10) 
unop_6

>  <geom_source>  (10) 
Heuristics

$$$$

     RDKit          3D

 24 22  0  0  0  0  0  0  0  0999 V2000
    1.6767    2.4794    0.0128 C   0  0  0  0  0  0  0  0  0  0  0  0
    0.7124    1.8054   -0.2030 C   0  0  0  0  0  0  0  0  0  0  0  0
   -0.4777    0.9775   -0.4283 C   0  0  0  0  0  0  0  0  0  0  0  0
   -1.5057    1.1601    0.7019 C   0  0  0  0  0  0  0  0  0  0  0  0
   -1.0757    1.2508   -1.7398 C   0  0  0  0  0  0  0  0  0  0  0  0
   -1.5925    1.4653   -2.7971 C   0  0  0  0  0  0  0  0  0  0  0  0
    2.5341    3.0786    0.2046 H   0  0  0  0  0  0  0  0  0  0  0  0
   -1.0499    0.9139    1.6603 H   0  0  0  0  0  0  0  0  0  0  0  0
   -1.8522    2.1923    0.7325 H   0  0  0  0  0  0  0  0  0  0  0  0
   -2.3614    0.5071    0.5332 H   0  0  0  0  0  0  0  0  0  0  0  0
   -2.0520    1.6561   -3.7370 H   0  0  0  0  0  0  0  0  0  0  0  0
   -0.2375   -2.3922   -1.1085 C   0  0  0  0  0  0  0  0  0  0  0  0
   -0.2375   -2.3922    0.2147 C   0  0  0  0  0  0  0  0  0  0  0  0
   -0.2375   -1.1664    1.0727 C   0  0  0  0  0  3  0  0  0  0  0  0
    0.9722   -1.0120    1.9540 C   0  0  0  0  0  0  0  0  0  0  0  0
    2.0833   -1.7277    1.8815 C   0  0  0  0  0  0  0  0  0  0  0  0
   -0.2457   -3.3149   -1.6750 H   0  0  0  0  0  0  0  0  0  0  0  0
   -0.2312   -1.4668   -1.6745 H   0  0  0  0  0  0  0  0  0  0  0  0
   -0.2350   -3.3410    0.7453 H   0  0  0  0  0  0  0  0  0  0  0  0
   -0.3576   -0.0944    0.3222 H   0  0  0  0  0  0  0  0  0  0  0  0
   -1.1255   -1.1799    1.7155 H   0  0  0  0  0  0  0  0  0  0  0  0
    0.8995   -0.2270    2.7017 H   0  0  0  0  0  0  0  0  0  0  0  0
    2.2088   -2.5146    1.1467 H   0  0  0  0  0  0  0  0  0  0  0  0
    2.9115   -1.5434    2.5539 H   0  0  0  0  0  0  0  0  0  0  0  0
  1  2  3  0
  1  7  1  0
  2  3  1  0
  3  4  1  0
  3  5  1  0
  3 20  1  0
  4  8  1  0
  4  9  1  0
  4 10  1  0
  5  6  3  0
  6 11  1  0
 12 13  2  3
 12 17  1  0
 12 18  1  0
 13 14  1  0
 13 19  1  0
 14 15  1  0
 14 21  1  0
 15 16  2  3
 15 22  1  0
 16 23  1  0
 16 24  1  0
M  RAD  1  14   2
M  END
>  <reaction>  (11) 
rxn_1138

>  <mol_properties>  (11) 
{"1": {"label": "*4", "atom_type": "Ct"}, "2": {"label": "*3", "atom_type": "Cs"}, "12": {"label": "*0", "atom_type": "Cd"}, "13": {"label": "*1", "atom_type": "Cs"}, "19": {"label": "*2", "atom_type": "H0"}}

>  <type>  (11) 
unop_7

>  <geom_source>  (11) 
Heuristics

$$$$

     RDKit          3D

 24 22  0  0  0  0  0  0  0  0999 V2000
   -2.9013    1.5297   -1.0176 C   0  0  0  0  0  0  0  0  0  0  0  0
   -1.7365    1.2997   -0.8722 C   0  0  0  0  0  0  0  0  0  0  0  0
   -0.3029    1.0205   -0.7336 C   0  0  0  0  0  0  0  0  0  0  0  0
    0.4994    1.6357   -1.8935 C   0  0  0  0  0  0  0  0  0  0  0  0
    0.2052    1.4770    0.5648 C   0  0  0  0  0  0  0  0  0  0  0  0
    0.6488    1.8539    1.6098 C   0  0  0  0  0  0  0  0  0  0  0  0
   -3.9369    1.7342   -1.1468 H   0  0  0  0  0  0  0  0  0  0  0  0
    0.1297    1.2519   -2.8439 H   0  0  0  0  0  0  0  0  0  0  0  0
    0.3969    2.7201   -1.8888 H   0  0  0  0  0  0  0  0  0  0  0  0
    1.5539    1.3820   -1.7899 H   0  0  0  0  0  0  0  0  0  0  0  0
    1.0432    2.1890    2.5388 H   0  0  0  0  0  0  0  0  0  0  0  0
   -0.0627   -2.3492   -1.4138 C   0  0  0  0  0  0  0  0  0  0  0  0
   -0.0627   -2.3492   -0.0905 C   0  0  0  0  0  0  0  0  0  0  0  0
   -0.0627   -1.1234    0.7675 C   0  0  0  0  0  3  0  0  0  0  0  0
    1.1470   -0.9690    1.6487 C   0  0  0  0  0  0  0  0  0  0  0  0
    2.2581   -1.6847    1.5763 C   0  0  0  0  0  0  0  0  0  0  0  0
   -0.0709   -3.2719   -1.9803 H   0  0  0  0  0  0  0  0  0  0  0  0
   -0.0564   -1.4238   -1.9797 H   0  0  0  0  0  0  0  0  0  0  0  0
   -0.0602   -3.2980    0.4400 H   0  0  0  0  0  0  0  0  0  0  0  0
   -0.1828   -0.0514    0.0169 H   0  0  0  0  0  0  0  0  0  0  0  0
   -0.9507   -1.1369    1.4103 H   0  0  0  0  0  0  0  0  0  0  0  0
    1.0743   -0.1840    2.3964 H   0  0  0  0  0  0  0  0  0  0  0  0
    2.3836   -2.4716    0.8414 H   0  0  0  0  0  0  0  0  0  0  0  0
    3.0863   -1.5004    2.2486 H   0  0  0  0  0  0  0  0  0  0  0  0
  1  2  3  0
  1  7  1  0
  2  3  1  0
  3  4  1  0
  3  5  1  0
  3 20  1  0
  4  8  1  0
  4  9  1  0
  4 10  1  0
  5  6  3  0
  6 11  1  0
 12 13  2  3
 12 17  1  0
 12 18  1  0
 13 14  1  0
 13 19  1  0
 14 15  1  0
 14 21  1  0
 15 16  2  3
 15 22  1  0
 16 23  1  0
 16 24  1  0
M  RAD  1  14   2
M  END
>  <reaction>  (12) 
rxn_1138

>  <mol_properties>  (12) 
{"1": {"label": "*4", "atom_type": "Ct"}, "2": {"label": "*3", "atom_type": "Cs"}, "12": {"label": "*0", "atom_type": "Cd"}, "13": {"label": "*1", "atom_type": "Cs"}, "19": {"label": "*2", "atom_type": "H0"}}

>  <type>  (12) 
unop_8

>  <geom_source>  (12) 
Heuristics

$$$$

     RDKit          3D

 24 22  0  0  0  0  0  0  0  0999 V2000
    0.7657    0.5405   -2.6471 C   0  0  0  0  0  0  0  0  0  0  0  0
    0.2335    0.7846   -1.6040 C   0  0  0  0  0  0  0  0  0  0  0  0
   -0.3831    1.0864   -0.3075 C   0  0  0  0  0  0  0  0  0  0  0  0
    0.5683    1.9018    0.5857 C   0  0  0  0  0  0  0  0  0  0  0  0
   -1.6700    1.7703   -0.4764 C   0  0  0  0  0  0  0  0  0  0  0  0
   -2.7146    2.3427   -0.5854 C   0  0  0  0  0  0  0  0  0  0  0  0
    1.2389    0.3235   -3.5745 H   0  0  0  0  0  0  0  0  0  0  0  0
    1.5006    1.3564    0.7284 H   0  0  0  0  0  0  0  0  0  0  0  0
    0.7904    2.8617    0.1215 H   0  0  0  0  0  0  0  0  0  0  0  0
    0.1044    2.0793    1.5555 H   0  0  0  0  0  0  0  0  0  0  0  0
   -3.6433    2.8517   -0.6823 H   0  0  0  0  0  0  0  0  0  0  0  0
   -0.1429   -2.2833   -0.9876 C   0  0  0  0  0  0  0  0  0  0  0  0
   -0.1429   -2.2833    0.3356 C   0  0  0  0  0  0  0  0  0  0  0  0
   -0.1429   -1.0575    1.1936 C   0  0  0  0  0  3  0  0  0  0  0  0
    1.0668   -0.9031    2.0748 C   0  0  0  0  0  0  0  0  0  0  0  0
    2.1780   -1.6188    2.0024 C   0  0  0  0  0  0  0  0  0  0  0  0
   -0.1511   -3.2060   -1.5542 H   0  0  0  0  0  0  0  0  0  0  0  0
   -0.1366   -1.3578   -1.5536 H   0  0  0  0  0  0  0  0  0  0  0  0
   -0.1403   -3.2320    0.8661 H   0  0  0  0  0  0  0  0  0  0  0  0
   -0.2630    0.0145    0.4431 H   0  0  0  0  0  0  0  0  0  0  0  0
   -1.0309   -1.0710    1.8364 H   0  0  0  0  0  0  0  0  0  0  0  0
    0.9941   -0.1181    2.8225 H   0  0  0  0  0  0  0  0  0  0  0  0
    2.3034   -2.4057    1.2675 H   0  0  0  0  0  0  0  0  0  0  0  0
    3.0062   -1.4345    2.6747 H   0  0  0  0  0  0  0  0  0  0  0  0
  1  2  3  0
  1  7  1  0
  2  3  1  0
  3  4  1  0
  3  5  1  0
  3 20  1  0
  4  8  1  0
  4  9  1  0
  4 10  1  0
  5  6  3  0
  6 11  1  0
 12 13  2  3
 12 17  1  0
 12 18  1  0
 13 14  1  0
 13 19  1  0
 14 15  1  0
 14 21  1  0
 15 16  2  3
 15 22  1  0
 16 23  1  0
 16 24  1  0
M  RAD  1  14   2
M  END
>  <reaction>  (13) 
rxn_1138

>  <mol_properties>  (13) 
{"1": {"label": "*4", "atom_type": "Ct"}, "2": {"label": "*3", "atom_type": "Cs"}, "12": {"label": "*0", "atom_type": "Cd"}, "13": {"label": "*1", "atom_type": "Cs"}, "19": {"label": "*2", "atom_type": "H0"}}

>  <type>  (13) 
unop_9

>  <geom_source>  (13) 
Heuristics

$$$$

     RDKit          3D

 24 22  0  0  0  0  0  0  0  0999 V2000
   -2.4834    0.8626   -1.9787 C   0  0  0  0  0  0  0  0  0  0  0  0
   -1.4641    0.9520   -1.3590 C   0  0  0  0  0  0  0  0  0  0  0  0
   -0.1941    1.0655   -0.6335 C   0  0  0  0  0  0  0  0  0  0  0  0
    0.8434    1.8590   -1.4468 C   0  0  0  0  0  0  0  0  0  0  0  0
   -0.3910    1.6548    0.6955 C   0  0  0  0  0  0  0  0  0  0  0  0
   -0.5213    2.1474    1.7777 C   0  0  0  0  0  0  0  0  0  0  0  0
   -3.3895    0.7830   -2.5296 H   0  0  0  0  0  0  0  0  0  0  0  0
    1.0013    1.3804   -2.4127 H   0  0  0  0  0  0  0  0  0  0  0  0
    0.4935    2.8771   -1.6122 H   0  0  0  0  0  0  0  0  0  0  0  0
    1.7884    1.8958   -0.9058 H   0  0  0  0  0  0  0  0  0  0  0  0
   -0.6371    2.5854    2.7399 H   0  0  0  0  0  0  0  0  0  0  0  0
    0.0461   -2.3043   -1.3136 C   0  0  0  0  0  0  0  0  0  0  0  0
    0.0461   -2.3043    0.0096 C   0  0  0  0  0  0  0  0  0  0  0  0
    0.0461   -1.0785    0.8676 C   0  0  0  0  0  3  0  0  0  0  0  0
    1.2558   -0.9241    1.7488 C   0  0  0  0  0  0  0  0  0  0  0  0
    2.3670   -1.6398    1.6764 C   0  0  0  0  0  0  0  0  0  0  0  0
    0.0379   -3.2270   -1.8802 H   0  0  0  0  0  0  0  0  0  0  0  0
    0.0524   -1.3788   -1.8796 H   0  0  0  0  0  0  0  0  0  0  0  0
    0.0486   -3.2530    0.5401 H   0  0  0  0  0  0  0  0  0  0  0  0
   -0.0740   -0.0065    0.1171 H   0  0  0  0  0  0  0  0  0  0  0  0
   -0.8419   -1.0920    1.5104 H   0  0  0  0  0  0  0  0  0  0  0  0
    1.1831   -0.1391    2.4965 H   0  0  0  0  0  0  0  0  0  0  0  0
    2.4924   -2.4267    0.9415 H   0  0  0  0  0  0  0  0  0  0  0  0
    3.1952   -1.4555    2.3487 H   0  0  0  0  0  0  0  0  0  0  0  0
  1  2  3  0
  1  7  1  0
  2  3  1  0
  3  4  1  0
  3  5  1  0
  3 20  1  0
  4  8  1  0
  4  9  1  0
  4 10  1  0
  5  6  3  0
  6 11  1  0
 12 13  2  3
 12 17  1  0
 12 18  1  0
 13 14  1  0
 13 19  1  0
 14 15  1  0
 14 21  1  0
 15 16  2  3
 15 22  1  0
 16 23  1  0
 16 24  1  0
M  RAD  1  14   2
M  END
>  <reaction>  (14) 
rxn_1138

>  <mol_properties>  (14) 
{"1": {"label": "*4", "atom_type": "Ct"}, "2": {"label": "*3", "atom_type": "Cs"}, "12": {"label": "*0", "atom_type": "Cd"}, "13": {"label": "*1", "atom_type": "Cs"}, "19": {"label": "*2", "atom_type": "H0"}}

>  <type>  (14) 
unop_10

>  <geom_source>  (14) 
Heuristics

$$$$

     RDKit          3D

 24 22  0  0  0  0  0  0  0  0999 V2000
    0.7508    2.9659    0.8419 C   0  0  0  0  0  0  0  0  0  0  0  0
    0.2045    2.0754    0.2593 C   0  0  0  0  0  0  0  0  0  0  0  0
   -0.4925    0.9810   -0.4255 C   0  0  0  0  0  0  0  0  0  0  0  0
   -1.9783    0.9319   -0.0288 C   0  0  0  0  0  0  0  0  0  0  0  0
   -0.3340    1.0771   -1.8808 C   0  0  0  0  0  0  0  0  0  0  0  0
   -0.2336    1.1407   -3.0711 C   0  0  0  0  0  0  0  0  0  0  0  0
    1.2365    3.7576    1.3598 H   0  0  0  0  0  0  0  0  0  0  0  0
   -2.0697    0.8210    1.0512 H   0  0  0  0  0  0  0  0  0  0  0  0
   -2.4793    1.8505   -0.3312 H   0  0  0  0  0  0  0  0  0  0  0  0
   -2.4646    0.0888   -0.5185 H   0  0  0  0  0  0  0  0  0  0  0  0
   -0.1444    1.1973   -4.1293 H   0  0  0  0  0  0  0  0  0  0  0  0
   -0.2523   -2.3887   -1.1057 C   0  0  0  0  0  0  0  0  0  0  0  0
   -0.2523   -2.3887    0.2176 C   0  0  0  0  0  0  0  0  0  0  0  0
   -0.2523   -1.1629    1.0756 C   0  0  0  0  0  3  0  0  0  0  0  0
    0.9574   -1.0086    1.9568 C   0  0  0  0  0  0  0  0  0  0  0  0
    2.0686   -1.7243    1.8843 C   0  0  0  0  0  0  0  0  0  0  0  0
   -0.2605   -3.3115   -1.6722 H   0  0  0  0  0  0  0  0  0  0  0  0
   -0.2460   -1.4633   -1.6717 H   0  0  0  0  0  0  0  0  0  0  0  0
   -0.2497   -3.3375    0.7481 H   0  0  0  0  0  0  0  0  0  0  0  0
   -0.3724   -0.0910    0.3250 H   0  0  0  0  0  0  0  0  0  0  0  0
   -1.1403   -1.1764    1.7184 H   0  0  0  0  0  0  0  0  0  0  0  0
    0.8847   -0.2235    2.7045 H   0  0  0  0  0  0  0  0  0  0  0  0
    2.1940   -2.5111    1.1495 H   0  0  0  0  0  0  0  0  0  0  0  0
    2.8968   -1.5400    2.5567 H   0  0  0  0  0  0  0  0  0  0  0  0
  1  2  3  0
  1  7  1  0
  2  3  1  0
  3  4  1  0
  3  5  1  0
  3 20  1  0
  4  8  1  0
  4  9  1  0
  4 10  1  0
  5  6  3  0
  6 11  1  0
 12 13  2  3
 12 17  1  0
 12 18  1  0
 13 14  1  0
 13 19  1  0
 14 15  1  0
 14 21  1  0
 15 16  2  3
 15 22  1  0
 16 23  1  0
 16 24  1  0
M  RAD  1  14   2
M  END
>  <reaction>  (15) 
rxn_1138

>  <mol_properties>  (15) 
{"1": {"label": "*4", "atom_type": "Ct"}, "2": {"label": "*3", "atom_type": "Cs"}, "12": {"label": "*0", "atom_type": "Cd"}, "13": {"label": "*1", "atom_type": "Cs"}, "19": {"label": "*2", "atom_type": "H0"}}

>  <type>  (15) 
unop_11

>  <geom_source>  (15) 
Heuristics

$$$$

     RDKit          3D

 24 22  0  0  0  0  0  0  0  0999 V2000
   -0.3792    0.3021   -2.8874 C   0  0  0  0  0  0  0  0  0  0  0  0
   -0.3412    0.6652   -1.7483 C   0  0  0  0  0  0  0  0  0  0  0  0
   -0.2548    1.1141   -0.3542 C   0  0  0  0  0  0  0  0  0  0  0  0
    0.9843    1.9981   -0.1292 C   0  0  0  0  0  0  0  0  0  0  0  0
   -1.4817    1.8035    0.0600 C   0  0  0  0  0  0  0  0  0  0  0  0
   -2.4645    2.3833    0.4188 C   0  0  0  0  0  0  0  0  0  0  0  0
   -0.4129   -0.0207   -3.9001 H   0  0  0  0  0  0  0  0  0  0  0  0
    1.8848    1.4511   -0.4067 H   0  0  0  0  0  0  0  0  0  0  0  0
    0.9194    2.8993   -0.7375 H   0  0  0  0  0  0  0  0  0  0  0  0
    1.0482    2.2860    0.9196 H   0  0  0  0  0  0  0  0  0  0  0  0
   -3.3383    2.8988    0.7378 H   0  0  0  0  0  0  0  0  0  0  0  0
   -0.0146   -2.2557   -1.0344 C   0  0  0  0  0  0  0  0  0  0  0  0
   -0.0146   -2.2557    0.2888 C   0  0  0  0  0  0  0  0  0  0  0  0
   -0.0146   -1.0299    1.1468 C   0  0  0  0  0  3  0  0  0  0  0  0
    1.1951   -0.8755    2.0280 C   0  0  0  0  0  0  0  0  0  0  0  0
    2.3063   -1.5912    1.9556 C   0  0  0  0  0  0  0  0  0  0  0  0
   -0.0228   -3.1784   -1.6009 H   0  0  0  0  0  0  0  0  0  0  0  0
   -0.0083   -1.3302   -1.6004 H   0  0  0  0  0  0  0  0  0  0  0  0
   -0.0121   -3.2044    0.8194 H   0  0  0  0  0  0  0  0  0  0  0  0
   -0.1347    0.0421    0.3963 H   0  0  0  0  0  0  0  0  0  0  0  0
   -0.9026   -1.0434    1.7896 H   0  0  0  0  0  0  0  0  0  0  0  0
    1.1224   -0.0905    2.7758 H   0  0  0  0  0  0  0  0  0  0  0  0
    2.4317   -2.3781    1.2207 H   0  0  0  0  0  0  0  0  0  0  0  0
    3.1345   -1.4069    2.6279 H   0  0  0  0  0  0  0  0  0  0  0  0
  1  2  3  0
  1  7  1  0
  2  3  1  0
  3  4  1  0
  3  5  1  0
  3 20  1  0
  4  8  1  0
  4  9  1  0
  4 10  1  0
  5  6  3  0
  6 11  1  0
 12 13  2  3
 12 17  1  0
 12 18  1  0
 13 14  1  0
 13 19  1  0
 14 15  1  0
 14 21  1  0
 15 16  2  3
 15 22  1  0
 16 23  1  0
 16 24  1  0
M  RAD  1  14   2
M  END
>  <reaction>  (16) 
rxn_1138

>  <mol_properties>  (16) 
{"1": {"label": "*4", "atom_type": "Ct"}, "2": {"label": "*3", "atom_type": "Cs"}, "12": {"label": "*0", "atom_type": "Cd"}, "13": {"label": "*1", "atom_type": "Cs"}, "19": {"label": "*2", "atom_type": "H0"}}

>  <type>  (16) 
unop_12

>  <geom_source>  (16) 
Heuristics

$$$$

     RDKit          3D

 24 22  0  0  0  0  0  0  0  0999 V2000
   -1.2266   -0.0044    0.1913 C   0  0  0  0  0  0  0  0  0  0  0  0
   -1.7187    1.1872    1.0099 C   0  0  0  0  0  0  0  0  0  0  0  0
    1.2494    0.8753   -0.0395 C   0  0  0  0  0  3  0  0  0  0  0  0
    0.8353    0.1277   -1.2662 C   0  0  0  0  0  0  0  0  0  0  0  0
    2.7374    0.8517    0.1041 C   0  0  0  0  0  0  0  0  0  0  0  0
    0.1810   -1.0299   -1.1670 C   0  0  0  0  0  0  0  0  0  0  0  0
    3.3133    0.1626    1.0896 C   0  0  0  0  0  0  0  0  0  0  0  0
   -2.0207   -0.1449   -1.0354 C   0  0  0  0  0  0  0  0  0  0  0  0
   -1.3236   -1.2401    0.9779 C   0  0  0  0  0  0  0  0  0  0  0  0
   -2.6719   -0.2593   -2.0439 C   0  0  0  0  0  0  0  0  0  0  0  0
   -1.4015   -2.2549    1.6247 C   0  0  0  0  0  0  0  0  0  0  0  0
    0.0049    0.1865   -0.1313 H   0  0  0  0  0  0  0  0  0  0  0  0
   -1.1016    1.2988    1.9271 H   0  0  0  0  0  0  0  0  0  0  0  0
   -1.6251    2.1212    0.4154 H   0  0  0  0  0  0  0  0  0  0  0  0
   -2.7826    1.0536    1.3056 H   0  0  0  0  0  0  0  0  0  0  0  0
    1.0870    0.5225   -2.2463 H   0  0  0  0  0  0  0  0  0  0  0  0
    0.8916    1.9245   -0.0971 H   0  0  0  0  0  0  0  0  0  0  0  0
    3.3546    1.3856   -0.6128 H   0  0  0  0  0  0  0  0  0  0  0  0
   -0.0708   -1.4467   -0.1962 H   0  0  0  0  0  0  0  0  0  0  0  0
   -0.1067   -1.5697   -2.0633 H   0  0  0  0  0  0  0  0  0  0  0  0
    2.7143   -0.3863    1.8103 H   0  0  0  0  0  0  0  0  0  0  0  0
    4.3945    0.1438    1.1795 H   0  0  0  0  0  0  0  0  0  0  0  0
   -3.2434   -0.3596   -2.9289 H   0  0  0  0  0  0  0  0  0  0  0  0
   -1.4701   -3.1454    2.1923 H   0  0  0  0  0  0  0  0  0  0  0  0
  1  2  1  0
  1  8  1  0
  1  9  1  0
  1 12  1  0
  2 13  1  0
  2 14  1  0
  2 15  1  0
  3  4  1  0
  3  5  1  0
  3 17  1  0
  4  6  2  3
  4 16  1  0
  5  7  2  3
  5 18  1  0
  6 19  1  0
  6 20  1  0
  7 21  1  0
  7 22  1  0
  8 10  3  0
  9 11  3  0
 10 23  1  0
 11 24  1  0
M  RAD  1   3   2
M  END
>  <reaction>  (17) 
rxn_1138

>  <mol_properties>  (17) 
{"1": {"label": "*4", "atom_type": "Ct"}, "2": {"label": "*3", "atom_type": "Cs"}, "12": {"label": "*0", "atom_type": "Cd"}, "13": {"label": "*1", "atom_type": "Cs"}, "19": {"label": "*2", "atom_type": "H0"}}

>  <type>  (17) 
unop_13

>  <geom_source>  (17) 
AutoTST

$$$$

     RDKit          3D

 24 22  0  0  0  0  0  0  0  0999 V2000
   -1.5574    0.4182   -2.6547 C   0  0  0  0  0  0  0  0  0  0  0  0
   -0.9508    0.7248   -1.6704 C   0  0  0  0  0  0  0  0  0  0  0  0
   -0.1739    1.1047   -0.4853 C   0  0  0  0  0  0  0  0  0  0  0  0
    1.0294    1.9847   -0.8664 C   0  0  0  0  0  0  0  0  0  0  0  0
   -1.0188    1.7646    0.5161 C   0  0  0  0  0  0  0  0  0  0  0  0
   -1.6817    2.3195    1.3429 C   0  0  0  0  0  0  0  0  0  0  0  0
   -2.0966    0.1457   -3.5299 H   0  0  0  0  0  0  0  0  0  0  0  0
    1.6620    1.4580   -1.5802 H   0  0  0  0  0  0  0  0  0  0  0  0
    0.6875    2.9144   -1.3193 H   0  0  0  0  0  0  0  0  0  0  0  0
    1.6121    2.2207    0.0234 H   0  0  0  0  0  0  0  0  0  0  0  0
   -2.2710    2.8128    2.0779 H   0  0  0  0  0  0  0  0  0  0  0  0
    0.0663   -2.2651   -1.1655 C   0  0  0  0  0  0  0  0  0  0  0  0
    0.0663   -2.2651    0.1578 C   0  0  0  0  0  0  0  0  0  0  0  0
    0.0663   -1.0393    1.0158 C   0  0  0  0  0  3  0  0  0  0  0  0
    1.2760   -0.8849    1.8970 C   0  0  0  0  0  0  0  0  0  0  0  0
    2.3871   -1.6006    1.8245 C   0  0  0  0  0  0  0  0  0  0  0  0
    0.0581   -3.1878   -1.7320 H   0  0  0  0  0  0  0  0  0  0  0  0
    0.0726   -1.3396   -1.7315 H   0  0  0  0  0  0  0  0  0  0  0  0
    0.0688   -3.2138    0.6883 H   0  0  0  0  0  0  0  0  0  0  0  0
   -0.0538    0.0327    0.2652 H   0  0  0  0  0  0  0  0  0  0  0  0
   -0.8217   -1.0528    1.6585 H   0  0  0  0  0  0  0  0  0  0  0  0
    1.2033   -0.0999    2.6447 H   0  0  0  0  0  0  0  0  0  0  0  0
    2.5126   -2.3875    1.0897 H   0  0  0  0  0  0  0  0  0  0  0  0
    3.2153   -1.4163    2.4969 H   0  0  0  0  0  0  0  0  0  0  0  0
  1  2  3  0
  1  7  1  0
  2  3  1  0
  3  4  1  0
  3  5  1  0
  3 20  1  0
  4  8  1  0
  4  9  1  0
  4 10  1  0
  5  6  3  0
  6 11  1  0
 12 13  2  3
 12 17  1  0
 12 18  1  0
 13 14  1  0
 13 19  1  0
 14 15  1  0
 14 21  1  0
 15 16  2  3
 15 22  1  0
 16 23  1  0
 16 24  1  0
M  RAD  1  14   2
M  END
>  <reaction>  (18) 
rxn_1138

>  <mol_properties>  (18) 
{"1": {"label": "*4", "atom_type": "Ct"}, "2": {"label": "*3", "atom_type": "Cs"}, "12": {"label": "*0", "atom_type": "Cd"}, "13": {"label": "*1", "atom_type": "Cs"}, "19": {"label": "*2", "atom_type": "H0"}}

>  <type>  (18) 
unop_14

>  <geom_source>  (18) 
gaussian_log

$$$$
