
     RDKit          3D

  5  4  0  0  0  0  0  0  0  0999 V2000
    0.0000    0.0000    0.0000 C   0  0  0  0  0  0  0  0  0  0  0  0
   -0.6486   -0.7720   -0.4113 H   0  0  0  0  0  0  0  0  0  0  0  0
   -0.3482    0.9787   -0.3267 H   0  0  0  0  0  0  0  0  0  0  0  0
   -0.0223   -0.0487    1.0876 H   0  0  0  0  0  0  0  0  0  0  0  0
    1.0191   -0.1580   -0.3496 H   0  0  0  0  0  0  0  0  0  0  0  0
  1  2  1  0
  1  3  1  0
  1  4  1  0
  1  5  1  0
M  END
>  <reaction>  (1) 
rxn_843

>  <mol_properties>  (1) 
{"0": {"label": "donator", "atom_type": "Cs"}, "1": {"label": "d_hydrogen", "atom_type": "H0"}}

>  <type>  (1) 
r1h

$$$$

     RDKit          3D

  8  7  0  0  0  0  0  0  0  0999 V2000
    1.4038   -0.4003    0.0140 C   0  0  0  0  0  0  0  0  0  0  0  0
    0.2804    0.0563    0.4920 C   0  0  0  0  0  3  0  0  0  0  0  0
   -1.0935    0.3323    0.0625 C   0  0  0  0  0  0  0  0  0  0  0  0
    1.4898   -0.7154   -1.0285 H   0  0  0  0  0  0  0  0  0  0  0  0
    2.2990   -0.4891    0.6210 H   0  0  0  0  0  0  0  0  0  0  0  0
   -1.3399    1.3883    0.1900 H   0  0  0  0  0  0  0  0  0  0  0  0
   -1.2285    0.0762   -0.9967 H   0  0  0  0  0  0  0  0  0  0  0  0
   -1.8111   -0.2482    0.6457 H   0  0  0  0  0  0  0  0  0  0  0  0
  1  2  2  3
  1  4  1  0
  1  5  1  0
  2  3  1  0
  3  6  1  0
  3  7  1  0
  3  8  1  0
M  RAD  1   2   2
M  END
>  <reaction>  (2) 
rxn_843

>  <mol_properties>  (2) 
{"1": {"label": "acceptor", "atom_type": "Cd"}}

>  <type>  (2) 
r2

$$$$

     RDKit          3D

  9  8  0  0  0  0  0  0  0  0999 V2000
    1.1303   -0.2933   -0.7510 C   0  0  0  0  0  0  0  0  0  0  0  0
    0.2866    0.4560   -0.0588 C   0  0  0  0  0  0  0  0  0  0  0  0
   -0.9719   -0.0331    0.5823 C   0  0  0  0  0  0  0  0  0  0  0  0
    2.0274    0.1230   -1.1916 H   0  0  0  0  0  0  0  0  0  0  0  0
    0.9532   -1.3530   -0.9023 H   0  0  0  0  0  0  0  0  0  0  0  0
    0.5065    1.5132    0.0659 H   0  0  0  0  0  0  0  0  0  0  0  0
   -0.9526    0.1426    1.6610 H   0  0  0  0  0  0  0  0  0  0  0  0
   -1.1182   -1.1002    0.4106 H   0  0  0  0  0  0  0  0  0  0  0  0
   -1.8412    0.5010    0.1901 H   0  0  0  0  0  0  0  0  0  0  0  0
  1  2  2  3
  1  4  1  0
  1  5  1  0
  2  3  1  0
  2  6  1  0
  3  7  1  0
  3  8  1  0
  3  9  1  0
M  END
>  <reaction>  (3) 
rxn_843

>  <mol_properties>  (3) 
{"1": {"label": "acceptor", "atom_type": "Cd"}, "8": {"label": "a_hydrogen", "atom_type": "H0"}}

>  <type>  (3) 
r2h

$$$$

     RDKit          3D

 13 11  0  0  0  0  0  0  0  0999 V2000
   -0.8099    1.2454   -0.6066 C   0  0  0  0  0  0  0  0  0  0  0  0
   -0.1047    0.4067    0.1204 C   0  0  0  0  0  3  0  0  0  0  0  0
    0.6464    0.6160    1.3815 C   0  0  0  0  0  0  0  0  0  0  0  0
   -0.9236    2.2898   -0.3222 H   0  0  0  0  0  0  0  0  0  0  0  0
   -1.3057    0.9293   -1.5177 H   0  0  0  0  0  0  0  0  0  0  0  0
    1.7036    0.3743    1.2483 H   0  0  0  0  0  0  0  0  0  0  0  0
    0.5702    1.6530    1.7209 H   0  0  0  0  0  0  0  0  0  0  0  0
    0.2653   -0.0340    2.1727 H   0  0  0  0  0  0  0  0  0  0  0  0
   -0.0044   -2.0893   -0.8262 C   0  0  0  0  0  0  0  0  0  0  0  0
   -0.0460   -0.8455   -0.3414 H   0  0  0  0  0  0  0  0  0  0  0  0
   -0.5986   -2.0534   -1.7349 H   0  0  0  0  0  0  0  0  0  0  0  0
    1.0468   -2.2944   -1.0079 H   0  0  0  0  0  0  0  0  0  0  0  0
   -0.4392   -2.7163   -0.0528 H   0  0  0  0  0  0  0  0  0  0  0  0
  1  2  2  3
  1  4  1  0
  1  5  1  0
  2  3  1  0
  3  6  1  0
  3  7  1  0
  3  8  1  0
  9 10  1  0
  9 11  1  0
  9 12  1  0
  9 13  1  0
M  RAD  1   2   2
M  END
>  <reaction>  (4) 
rxn_843

>  <mol_properties>  (4) 
{"0": {"label": "*4", "atom_type": "Cd"}, "1": {"label": "*3", "atom_type": "Cd"}, "8": {"label": "*1", "atom_type": "Cs"}, "9": {"label": "*2", "atom_type": "H0"}, "10": {"label": "*0", "atom_type": "H0"}}

>  <type>  (4) 
ts

$$$$

     RDKit          3D

 13 11  0  0  0  0  0  0  0  0999 V2000
   -1.1431    0.9092    0.7344 C   0  0  0  0  0  0  0  0  0  0  0  0
   -0.1385    0.5015   -0.0250 C   0  0  0  0  0  0  0  0  0  0  0  0
    1.3056    0.7915    0.2298 C   0  0  0  0  0  0  0  0  0  0  0  0
   -0.9737    1.5039    1.6259 H   0  0  0  0  0  0  0  0  0  0  0  0
   -2.1702    0.6646    0.4944 H   0  0  0  0  0  0  0  0  0  0  0  0
    1.7478    1.3324   -0.6108 H   0  0  0  0  0  0  0  0  0  0  0  0
    1.4389    1.3900    1.1318 H   0  0  0  0  0  0  0  0  0  0  0  0
    1.8740   -0.1351    0.3442 H   0  0  0  0  0  0  0  0  0  0  0  0
   -0.1385   -1.9603   -0.8953 C   0  0  0  0  0  3  0  0  0  0  0  0
   -0.1385   -0.7283   -0.4598 H   0  0  0  0  0  0  0  0  0  0  0  0
    0.7507   -2.4736   -0.5323 H   0  0  0  0  0  0  0  0  0  0  0  0
   -1.0276   -2.4736   -0.5323 H   0  0  0  0  0  0  0  0  0  0  0  0
   -0.1385   -1.9603   -1.9843 H   0  0  0  0  0  0  0  0  0  0  0  0
  1  2  2  3
  1  4  1  0
  1  5  1  0
  2  3  1  0
  2 10  1  0
  3  6  1  0
  3  7  1  0
  3  8  1  0
  9 11  1  0
  9 12  1  0
  9 13  1  0
M  RAD  1   9   2
M  END
>  <reaction>  (5) 
rxn_843

>  <mol_properties>  (5) 
{"0": {"label": "*4", "atom_type": "Cd"}, "1": {"label": "*3", "atom_type": "Cd"}, "8": {"label": "*1", "atom_type": "Cs"}, "9": {"label": "*2", "atom_type": "H0"}, "10": {"label": "*0", "atom_type": "H0"}}

>  <type>  (5) 
unop_1

>  <geom_source>  (5) 
Heuristics

$$$$

     RDKit          3D

 13 11  0  0  0  0  0  0  0  0999 V2000
   -0.5217    1.3445   -0.7022 C   0  0  0  0  0  0  0  0  0  0  0  0
    0.0584    0.4085    0.0325 C   0  0  0  0  0  0  0  0  0  0  0  0
    0.3927    0.5378    1.4836 C   0  0  0  0  0  0  0  0  0  0  0  0
   -0.8021    2.3034   -0.2791 H   0  0  0  0  0  0  0  0  0  0  0  0
   -0.7377    1.1881   -1.7516 H   0  0  0  0  0  0  0  0  0  0  0  0
    1.4658    0.4111    1.6483 H   0  0  0  0  0  0  0  0  0  0  0  0
    0.0977    1.5120    1.8755 H   0  0  0  0  0  0  0  0  0  0  0  0
   -0.1109   -0.2357    2.0692 H   0  0  0  0  0  0  0  0  0  0  0  0
    0.0584   -2.0533   -0.8378 C   0  0  0  0  0  3  0  0  0  0  0  0
    0.0584   -0.8213   -0.4023 H   0  0  0  0  0  0  0  0  0  0  0  0
    0.9475   -2.5666   -0.4749 H   0  0  0  0  0  0  0  0  0  0  0  0
   -0.8307   -2.5666   -0.4749 H   0  0  0  0  0  0  0  0  0  0  0  0
    0.0584   -2.0533   -1.9268 H   0  0  0  0  0  0  0  0  0  0  0  0
  1  2  2  3
  1  4  1  0
  1  5  1  0
  2  3  1  0
  2 10  1  0
  3  6  1  0
  3  7  1  0
  3  8  1  0
  9 11  1  0
  9 12  1  0
  9 13  1  0
M  RAD  1   9   2
M  END
>  <reaction>  (6) 
rxn_843

>  <mol_properties>  (6) 
{"0": {"label": "*4", "atom_type": "Cd"}, "1": {"label": "*3", "atom_type": "Cd"}, "8": {"label": "*1", "atom_type": "Cs"}, "9": {"label": "*2", "atom_type": "H0"}, "10": {"label": "*0", "atom_type": "H0"}}

>  <type>  (6) 
unop_2

>  <geom_source>  (6) 
Heuristics

$$$$

     RDKit          3D

 13 11  0  0  0  0  0  0  0  0999 V2000
   -0.7669    0.6956    1.2476 C   0  0  0  0  0  0  0  0  0  0  0  0
   -0.1869    0.4295    0.0879 C   0  0  0  0  0  0  0  0  0  0  0  0
    1.0329    1.1125   -0.4410 C   0  0  0  0  0  0  0  0  0  0  0  0
   -0.3767    1.4578    1.9139 H   0  0  0  0  0  0  0  0  0  0  0  0
   -1.6514    0.1632    1.5741 H   0  0  0  0  0  0  0  0  0  0  0  0
    0.8239    1.5946   -1.3995 H   0  0  0  0  0  0  0  0  0  0  0  0
    1.3975    1.8711    0.2528 H   0  0  0  0  0  0  0  0  0  0  0  0
    1.8362    0.3926   -0.6173 H   0  0  0  0  0  0  0  0  0  0  0  0
   -0.1869   -2.0323   -0.7825 C   0  0  0  0  0  3  0  0  0  0  0  0
   -0.1869   -0.8003   -0.3469 H   0  0  0  0  0  0  0  0  0  0  0  0
    0.7023   -2.5457   -0.4195 H   0  0  0  0  0  0  0  0  0  0  0  0
   -1.0760   -2.5457   -0.4195 H   0  0  0  0  0  0  0  0  0  0  0  0
   -0.1869   -2.0323   -1.8714 H   0  0  0  0  0  0  0  0  0  0  0  0
  1  2  2  3
  1  4  1  0
  1  5  1  0
  2  3  1  0
  2 10  1  0
  3  6  1  0
  3  7  1  0
  3  8  1  0
  9 11  1  0
  9 12  1  0
  9 13  1  0
M  RAD  1   9   2
M  END
>  <reaction>  (7) 
rxn_843

>  <mol_properties>  (7) 
{"0": {"label": "*4", "atom_type": "Cd"}, "1": {"label": "*3", "atom_type": "Cd"}, "8": {"label": "*1", "atom_type": "Cs"}, "9": {"label": "*2", "atom_type": "H0"}, "10": {"label": "*0", "atom_type": "H0"}}

>  <type>  (7) 
unop_3

>  <geom_source>  (7) 
Heuristics

$$$$

     RDKit          3D

 13 11  0  0  0  0  0  0  0  0999 V2000
    0.9540    1.2564   -0.3599 C   0  0  0  0  0  0  0  0  0  0  0  0
   -0.0507    0.4620   -0.0255 C   0  0  0  0  0  0  0  0  0  0  0  0
   -0.8118    0.5313    1.2591 C   0  0  0  0  0  0  0  0  0  0  0  0
    1.3018    2.0397    0.3054 H   0  0  0  0  0  0  0  0  0  0  0  0
    1.4655    1.1541   -1.3087 H   0  0  0  0  0  0  0  0  0  0  0  0
   -0.7413   -0.4134    1.8043 H   0  0  0  0  0  0  0  0  0  0  0  0
   -0.4364    1.3281    1.9024 H   0  0  0  0  0  0  0  0  0  0  0  0
   -1.8737    0.7108    1.0727 H   0  0  0  0  0  0  0  0  0  0  0  0
   -0.0507   -1.9998   -0.8959 C   0  0  0  0  0  3  0  0  0  0  0  0
   -0.0507   -0.7678   -0.4603 H   0  0  0  0  0  0  0  0  0  0  0  0
    0.8384   -2.5131   -0.5329 H   0  0  0  0  0  0  0  0  0  0  0  0
   -0.9398   -2.5131   -0.5329 H   0  0  0  0  0  0  0  0  0  0  0  0
   -0.0507   -1.9998   -1.9848 H   0  0  0  0  0  0  0  0  0  0  0  0
  1  2  2  3
  1  4  1  0
  1  5  1  0
  2  3  1  0
  2 10  1  0
  3  6  1  0
  3  7  1  0
  3  8  1  0
  9 11  1  0
  9 12  1  0
  9 13  1  0
M  RAD  1   9   2
M  END
>  <reaction>  (8) 
rxn_843

>  <mol_properties>  (8) 
{"0": {"label": "*4", "atom_type": "Cd"}, "1": {"label": "*3", "atom_type": "Cd"}, "8": {"label": "*1", "atom_type": "Cs"}, "9": {"label": "*2", "atom_type": "H0"}, "10": {"label": "*0", "atom_type": "H0"}}

>  <type>  (8) 
unop_4

>  <geom_source>  (8) 
Heuristics

$$$$

     RDKit          3D

 13 11  0  0  0  0  0  0  0  0999 V2000
    0.0000    0.5511    1.4995 C   0  0  0  0  0  0  0  0  0  0  0  0
    0.0000    0.3367    0.1932 C   0  0  0  0  0  0  0  0  0  0  0  0
   -0.0000    1.4034   -0.8538 C   0  0  0  0  0  0  0  0  0  0  0  0
   -0.0000    1.5561    1.9082 H   0  0  0  0  0  0  0  0  0  0  0  0
    0.0000   -0.2677    2.2080 H   0  0  0  0  0  0  0  0  0  0  0  0
   -0.8777    1.3148   -1.4992 H   0  0  0  0  0  0  0  0  0  0  0  0
   -0.0000    2.3991   -0.4086 H   0  0  0  0  0  0  0  0  0  0  0  0
    0.8777    1.3148   -1.4992 H   0  0  0  0  0  0  0  0  0  0  0  0
    0.0000   -2.1251   -0.6771 C   0  0  0  0  0  3  0  0  0  0  0  0
    0.0000   -0.8931   -0.2416 H   0  0  0  0  0  0  0  0  0  0  0  0
    0.8891   -2.6384   -0.3141 H   0  0  0  0  0  0  0  0  0  0  0  0
   -0.8891   -2.6384   -0.3141 H   0  0  0  0  0  0  0  0  0  0  0  0
    0.0000   -2.1251   -1.7661 H   0  0  0  0  0  0  0  0  0  0  0  0
  1  2  2  3
  1  4  1  0
  1  5  1  0
  2  3  1  0
  2 10  1  0
  3  6  1  0
  3  7  1  0
  3  8  1  0
  9 11  1  0
  9 12  1  0
  9 13  1  0
M  RAD  1   9   2
M  END
>  <reaction>  (9) 
rxn_843

>  <mol_properties>  (9) 
{"0": {"label": "*4", "atom_type": "Cd"}, "1": {"label": "*3", "atom_type": "Cd"}, "8": {"label": "*1", "atom_type": "Cs"}, "9": {"label": "*2", "atom_type": "H0"}, "10": {"label": "*0", "atom_type": "H0"}}

>  <type>  (9) 
unop_5

>  <geom_source>  (9) 
Heuristics

$$$$

     RDKit          3D

 13 11  0  0  0  0  0  0  0  0999 V2000
    1.1898    1.1046    0.1542 C   0  0  0  0  0  0  0  0  0  0  0  0
    0.0296    0.5035   -0.0584 C   0  0  0  0  0  0  0  0  0  0  0  0
   -1.1675    0.6046    0.8309 C   0  0  0  0  0  0  0  0  0  0  0  0
    1.3503    1.7341    1.0231 H   0  0  0  0  0  0  0  0  0  0  0  0
    2.0207    0.9905   -0.5306 H   0  0  0  0  0  0  0  0  0  0  0  0
   -1.4661   -0.3819    1.1948 H   0  0  0  0  0  0  0  0  0  0  0  0
   -0.9712    1.2437    1.6927 H   0  0  0  0  0  0  0  0  0  0  0  0
   -2.0228    1.0135    0.2867 H   0  0  0  0  0  0  0  0  0  0  0  0
    0.0296   -1.9583   -0.9287 C   0  0  0  0  0  3  0  0  0  0  0  0
    0.0296   -0.7263   -0.4932 H   0  0  0  0  0  0  0  0  0  0  0  0
    0.9188   -2.4716   -0.5658 H   0  0  0  0  0  0  0  0  0  0  0  0
   -0.8595   -2.4716   -0.5658 H   0  0  0  0  0  0  0  0  0  0  0  0
    0.0296   -1.9583   -2.0177 H   0  0  0  0  0  0  0  0  0  0  0  0
  1  2  2  3
  1  4  1  0
  1  5  1  0
  2  3  1  0
  2 10  1  0
  3  6  1  0
  3  7  1  0
  3  8  1  0
  9 11  1  0
  9 12  1  0
  9 13  1  0
M  RAD  1   9   2
M  END
>  <reaction>  (10) 
rxn_843

>  <mol_properties>  (10) 
{"0": {"label": "*4", "atom_type": "Cd"}, "1": {"label": "*3", "atom_type": "Cd"}, "8": {"label": "*1", "atom_type": "Cs"}, "9": {"label": "*2", "atom_type": "H0"}, "10": {"label": "*0", "atom_type": "H0"}}

>  <type>  (10) 
unop_6

>  <geom_source>  (10) 
Heuristics

$$$$

     RDKit          3D

 13 11  0  0  0  0  0  0  0  0999 V2000
    1.1431    0.9092    0.7344 C   0  0  0  0  0  0  0  0  0  0  0  0
    0.1385    0.5015   -0.0250 C   0  0  0  0  0  0  0  0  0  0  0  0
   -1.3056    0.7915    0.2298 C   0  0  0  0  0  0  0  0  0  0  0  0
    0.9737    1.5039    1.6259 H   0  0  0  0  0  0  0  0  0  0  0  0
    2.1702    0.6646    0.4944 H   0  0  0  0  0  0  0  0  0  0  0  0
   -1.8740   -0.1351    0.3442 H   0  0  0  0  0  0  0  0  0  0  0  0
   -1.4389    1.3900    1.1318 H   0  0  0  0  0  0  0  0  0  0  0  0
   -1.7478    1.3324   -0.6108 H   0  0  0  0  0  0  0  0  0  0  0  0
    0.1385   -1.9603   -0.8953 C   0  0  0  0  0  3  0  0  0  0  0  0
    0.1385   -0.7283   -0.4598 H   0  0  0  0  0  0  0  0  0  0  0  0
    1.0276   -2.4736   -0.5323 H   0  0  0  0  0  0  0  0  0  0  0  0
   -0.7507   -2.4736   -0.5323 H   0  0  0  0  0  0  0  0  0  0  0  0
    0.1385   -1.9603   -1.9843 H   0  0  0  0  0  0  0  0  0  0  0  0
  1  2  2  3
  1  4  1  0
  1  5  1  0
  2  3  1  0
  2 10  1  0
  3  6  1  0
  3  7  1  0
  3  8  1  0
  9 11  1  0
  9 12  1  0
  9 13  1  0
M  RAD  1   9   2
M  END
>  <reaction>  (11) 
rxn_843

>  <mol_properties>  (11) 
{"0": {"label": "*4", "atom_type": "Cd"}, "1": {"label": "*3", "atom_type": "Cd"}, "8": {"label": "*1", "atom_type": "Cs"}, "9": {"label": "*2", "atom_type": "H0"}, "10": {"label": "*0", "atom_type": "H0"}}

>  <type>  (11) 
unop_7

>  <geom_source>  (11) 
Heuristics

$$$$

     RDKit          3D

 13 11  0  0  0  0  0  0  0  0999 V2000
   -1.1898    1.1046    0.1542 C   0  0  0  0  0  0  0  0  0  0  0  0
   -0.0296    0.5035   -0.0584 C   0  0  0  0  0  0  0  0  0  0  0  0
    1.1675    0.6046    0.8309 C   0  0  0  0  0  0  0  0  0  0  0  0
   -1.3503    1.7341    1.0231 H   0  0  0  0  0  0  0  0  0  0  0  0
   -2.0207    0.9905   -0.5306 H   0  0  0  0  0  0  0  0  0  0  0  0
    2.0228    1.0135    0.2867 H   0  0  0  0  0  0  0  0  0  0  0  0
    0.9712    1.2437    1.6927 H   0  0  0  0  0  0  0  0  0  0  0  0
    1.4661   -0.3819    1.1948 H   0  0  0  0  0  0  0  0  0  0  0  0
   -0.0296   -1.9583   -0.9287 C   0  0  0  0  0  3  0  0  0  0  0  0
   -0.0296   -0.7263   -0.4932 H   0  0  0  0  0  0  0  0  0  0  0  0
    0.8595   -2.4716   -0.5658 H   0  0  0  0  0  0  0  0  0  0  0  0
   -0.9188   -2.4716   -0.5658 H   0  0  0  0  0  0  0  0  0  0  0  0
   -0.0296   -1.9583   -2.0177 H   0  0  0  0  0  0  0  0  0  0  0  0
  1  2  2  3
  1  4  1  0
  1  5  1  0
  2  3  1  0
  2 10  1  0
  3  6  1  0
  3  7  1  0
  3  8  1  0
  9 11  1  0
  9 12  1  0
  9 13  1  0
M  RAD  1   9   2
M  END
>  <reaction>  (12) 
rxn_843

>  <mol_properties>  (12) 
{"0": {"label": "*4", "atom_type": "Cd"}, "1": {"label": "*3", "atom_type": "Cd"}, "8": {"label": "*1", "atom_type": "Cs"}, "9": {"label": "*2", "atom_type": "H0"}, "10": {"label": "*0", "atom_type": "H0"}}

>  <type>  (12) 
unop_8

>  <geom_source>  (12) 
Heuristics

$$$$

     RDKit          3D

 13 11  0  0  0  0  0  0  0  0999 V2000
    0.5217    1.3445   -0.7022 C   0  0  0  0  0  0  0  0  0  0  0  0
   -0.0584    0.4085    0.0325 C   0  0  0  0  0  0  0  0  0  0  0  0
   -0.3927    0.5378    1.4837 C   0  0  0  0  0  0  0  0  0  0  0  0
    0.8021    2.3034   -0.2791 H   0  0  0  0  0  0  0  0  0  0  0  0
    0.7377    1.1881   -1.7516 H   0  0  0  0  0  0  0  0  0  0  0  0
    0.1109   -0.2357    2.0692 H   0  0  0  0  0  0  0  0  0  0  0  0
   -0.0977    1.5120    1.8755 H   0  0  0  0  0  0  0  0  0  0  0  0
   -1.4658    0.4111    1.6483 H   0  0  0  0  0  0  0  0  0  0  0  0
   -0.0584   -2.0533   -0.8378 C   0  0  0  0  0  3  0  0  0  0  0  0
   -0.0584   -0.8213   -0.4023 H   0  0  0  0  0  0  0  0  0  0  0  0
    0.8307   -2.5666   -0.4749 H   0  0  0  0  0  0  0  0  0  0  0  0
   -0.9475   -2.5666   -0.4749 H   0  0  0  0  0  0  0  0  0  0  0  0
   -0.0584   -2.0533   -1.9268 H   0  0  0  0  0  0  0  0  0  0  0  0
  1  2  2  3
  1  4  1  0
  1  5  1  0
  2  3  1  0
  2 10  1  0
  3  6  1  0
  3  7  1  0
  3  8  1  0
  9 11  1  0
  9 12  1  0
  9 13  1  0
M  RAD  1   9   2
M  END
>  <reaction>  (13) 
rxn_843

>  <mol_properties>  (13) 
{"0": {"label": "*4", "atom_type": "Cd"}, "1": {"label": "*3", "atom_type": "Cd"}, "8": {"label": "*1", "atom_type": "Cs"}, "9": {"label": "*2", "atom_type": "H0"}, "10": {"label": "*0", "atom_type": "H0"}}

>  <type>  (13) 
unop_9

>  <geom_source>  (13) 
Heuristics

$$$$

     RDKit          3D

 13 11  0  0  0  0  0  0  0  0999 V2000
   -0.9540    1.2564   -0.3599 C   0  0  0  0  0  0  0  0  0  0  0  0
    0.0507    0.4620   -0.0255 C   0  0  0  0  0  0  0  0  0  0  0  0
    0.8118    0.5313    1.2591 C   0  0  0  0  0  0  0  0  0  0  0  0
   -1.3018    2.0397    0.3054 H   0  0  0  0  0  0  0  0  0  0  0  0
   -1.4655    1.1541   -1.3087 H   0  0  0  0  0  0  0  0  0  0  0  0
    1.8737    0.7108    1.0727 H   0  0  0  0  0  0  0  0  0  0  0  0
    0.4364    1.3281    1.9024 H   0  0  0  0  0  0  0  0  0  0  0  0
    0.7413   -0.4134    1.8043 H   0  0  0  0  0  0  0  0  0  0  0  0
    0.0507   -1.9998   -0.8959 C   0  0  0  0  0  3  0  0  0  0  0  0
    0.0507   -0.7678   -0.4603 H   0  0  0  0  0  0  0  0  0  0  0  0
    0.9398   -2.5131   -0.5329 H   0  0  0  0  0  0  0  0  0  0  0  0
   -0.8384   -2.5131   -0.5329 H   0  0  0  0  0  0  0  0  0  0  0  0
    0.0507   -1.9998   -1.9848 H   0  0  0  0  0  0  0  0  0  0  0  0
  1  2  2  3
  1  4  1  0
  1  5  1  0
  2  3  1  0
  2 10  1  0
  3  6  1  0
  3  7  1  0
  3  8  1  0
  9 11  1  0
  9 12  1  0
  9 13  1  0
M  RAD  1   9   2
M  END
>  <reaction>  (14) 
rxn_843

>  <mol_properties>  (14) 
{"0": {"label": "*4", "atom_type": "Cd"}, "1": {"label": "*3", "atom_type": "Cd"}, "8": {"label": "*1", "atom_type": "Cs"}, "9": {"label": "*2", "atom_type": "H0"}, "10": {"label": "*0", "atom_type": "H0"}}

>  <type>  (14) 
unop_10

>  <geom_source>  (14) 
Heuristics

$$$$

     RDKit          3D

 13 11  0  0  0  0  0  0  0  0999 V2000
    0.7669    0.6956    1.2476 C   0  0  0  0  0  0  0  0  0  0  0  0
    0.1869    0.4295    0.0879 C   0  0  0  0  0  0  0  0  0  0  0  0
   -1.0329    1.1125   -0.4410 C   0  0  0  0  0  0  0  0  0  0  0  0
    0.3767    1.4578    1.9139 H   0  0  0  0  0  0  0  0  0  0  0  0
    1.6514    0.1632    1.5741 H   0  0  0  0  0  0  0  0  0  0  0  0
   -1.8362    0.3926   -0.6173 H   0  0  0  0  0  0  0  0  0  0  0  0
   -1.3975    1.8711    0.2528 H   0  0  0  0  0  0  0  0  0  0  0  0
   -0.8239    1.5946   -1.3995 H   0  0  0  0  0  0  0  0  0  0  0  0
    0.1869   -2.0323   -0.7825 C   0  0  0  0  0  3  0  0  0  0  0  0
    0.1869   -0.8003   -0.3469 H   0  0  0  0  0  0  0  0  0  0  0  0
    1.0760   -2.5457   -0.4195 H   0  0  0  0  0  0  0  0  0  0  0  0
   -0.7023   -2.5457   -0.4195 H   0  0  0  0  0  0  0  0  0  0  0  0
    0.1869   -2.0323   -1.8714 H   0  0  0  0  0  0  0  0  0  0  0  0
  1  2  2  3
  1  4  1  0
  1  5  1  0
  2  3  1  0
  2 10  1  0
  3  6  1  0
  3  7  1  0
  3  8  1  0
  9 11  1  0
  9 12  1  0
  9 13  1  0
M  RAD  1   9   2
M  END
>  <reaction>  (15) 
rxn_843

>  <mol_properties>  (15) 
{"0": {"label": "*4", "atom_type": "Cd"}, "1": {"label": "*3", "atom_type": "Cd"}, "8": {"label": "*1", "atom_type": "Cs"}, "9": {"label": "*2", "atom_type": "H0"}, "10": {"label": "*0", "atom_type": "H0"}}

>  <type>  (15) 
unop_11

>  <geom_source>  (15) 
Heuristics

$$$$

     RDKit          3D

 13 11  0  0  0  0  0  0  0  0999 V2000
   -0.0000    1.3711   -0.8199 C   0  0  0  0  0  0  0  0  0  0  0  0
   -0.0000    0.3833    0.0613 C   0  0  0  0  0  0  0  0  0  0  0  0
    0.0000    0.5549    1.5462 C   0  0  0  0  0  0  0  0  0  0  0  0
    0.0000    2.4097   -0.5060 H   0  0  0  0  0  0  0  0  0  0  0  0
   -0.0000    1.1796   -1.8856 H   0  0  0  0  0  0  0  0  0  0  0  0
    0.8777    0.0803    1.9925 H   0  0  0  0  0  0  0  0  0  0  0  0
    0.0000    1.6091    1.8257 H   0  0  0  0  0  0  0  0  0  0  0  0
   -0.8777    0.0803    1.9925 H   0  0  0  0  0  0  0  0  0  0  0  0
   -0.0000   -2.0784   -0.8090 C   0  0  0  0  0  3  0  0  0  0  0  0
   -0.0000   -0.8465   -0.3735 H   0  0  0  0  0  0  0  0  0  0  0  0
    0.8891   -2.5918   -0.4461 H   0  0  0  0  0  0  0  0  0  0  0  0
   -0.8891   -2.5918   -0.4461 H   0  0  0  0  0  0  0  0  0  0  0  0
   -0.0000   -2.0784   -1.8980 H   0  0  0  0  0  0  0  0  0  0  0  0
  1  2  2  3
  1  4  1  0
  1  5  1  0
  2  3  1  0
  2 10  1  0
  3  6  1  0
  3  7  1  0
  3  8  1  0
  9 11  1  0
  9 12  1  0
  9 13  1  0
M  RAD  1   9   2
M  END
>  <reaction>  (16) 
rxn_843

>  <mol_properties>  (16) 
{"0": {"label": "*4", "atom_type": "Cd"}, "1": {"label": "*3", "atom_type": "Cd"}, "8": {"label": "*1", "atom_type": "Cs"}, "9": {"label": "*2", "atom_type": "H0"}, "10": {"label": "*0", "atom_type": "H0"}}

>  <type>  (16) 
unop_12

>  <geom_source>  (16) 
Heuristics

$$$$

     RDKit          3D

 13 11  0  0  0  0  0  0  0  0999 V2000
    1.4665   -0.7338    0.0789 C   0  0  0  0  0  0  0  0  0  0  0  0
    0.4528    0.3603   -0.0373 C   0  0  0  0  0  0  0  0  0  0  0  0
    0.7934    1.5767   -0.4665 C   0  0  0  0  0  0  0  0  0  0  0  0
   -1.9682   -0.5591    0.1896 C   0  0  0  0  0  3  0  0  0  0  0  0
    2.2647   -0.4379    0.7921 H   0  0  0  0  0  0  0  0  0  0  0  0
    0.9737   -1.6553    0.4520 H   0  0  0  0  0  0  0  0  0  0  0  0
    1.9158   -0.9425   -0.9150 H   0  0  0  0  0  0  0  0  0  0  0  0
   -0.8120    0.1146    0.2939 H   0  0  0  0  0  0  0  0  0  0  0  0
    0.0395    2.3528   -0.5417 H   0  0  0  0  0  0  0  0  0  0  0  0
    1.8184    1.8051   -0.7434 H   0  0  0  0  0  0  0  0  0  0  0  0
   -1.9520   -1.2201    1.0805 H   0  0  0  0  0  0  0  0  0  0  0  0
   -2.4685    0.3970    0.4476 H   0  0  0  0  0  0  0  0  0  0  0  0
   -2.5241   -1.0577   -0.6308 H   0  0  0  0  0  0  0  0  0  0  0  0
  1  2  1  0
  1  5  1  0
  1  6  1  0
  1  7  1  0
  2  3  2  3
  2  8  1  0
  3  9  1  0
  3 10  1  0
  4 11  1  0
  4 12  1  0
  4 13  1  0
M  RAD  1   4   2
M  END
>  <reaction>  (17) 
rxn_843

>  <mol_properties>  (17) 
{"0": {"label": "*4", "atom_type": "Cd"}, "1": {"label": "*3", "atom_type": "Cd"}, "8": {"label": "*1", "atom_type": "Cs"}, "9": {"label": "*2", "atom_type": "H0"}, "10": {"label": "*0", "atom_type": "H0"}}

>  <type>  (17) 
unop_13

>  <geom_source>  (17) 
AutoTST

$$$$
