
     RDKit          3D

 10  9  0  0  0  0  0  0  0  0999 V2000
   -1.1508    0.0666    0.2839 C   0  0  0  0  0  0  0  0  0  0  0  0
    0.1022   -0.3749   -0.4771 C   0  0  0  0  0  0  0  0  0  0  0  0
    1.3428    0.1620    0.1542 C   0  0  0  0  0  0  0  0  0  0  0  0
    2.5613   -0.6971    0.7526 S   0  0  0  0  0  0  0  0  0  0  0  0
   -1.2137    1.1546    0.3481 H   0  0  0  0  0  0  0  0  0  0  0  0
   -2.0472   -0.2935   -0.2212 H   0  0  0  0  0  0  0  0  0  0  0  0
   -1.1467   -0.3334    1.2987 H   0  0  0  0  0  0  0  0  0  0  0  0
    0.1602   -1.4616   -0.5369 H   0  0  0  0  0  0  0  0  0  0  0  0
    0.0536    0.0174   -1.4997 H   0  0  0  0  0  0  0  0  0  0  0  0
    1.3824    1.2528    0.2110 H   0  0  0  0  0  0  0  0  0  0  0  0
  1  2  1  0
  1  5  1  0
  1  6  1  0
  1  7  1  0
  2  3  1  0
  2  8  1  0
  2  9  1  0
  3  4  2  0
  3 10  1  0
M  END
>  <reaction>  (1) 
rxn_2025

>  <mol_properties>  (1) 
{"1": {"label": "donator", "atom_type": "Cs"}, "7": {"label": "d_hydrogen", "atom_type": "H0"}}

>  <type>  (1) 
r1h

$$$$

     RDKit          3D

  9  8  0  0  0  0  0  0  0  0999 V2000
    2.3991   -0.1292   -0.2384 S   0  0  0  0  0  0  0  0  0  0  0  0
    0.7460    0.2807    0.0931 C   0  0  0  0  0  3  0  0  0  0  0  0
   -0.3131   -0.5719   -0.2043 C   0  0  0  0  0  0  0  0  0  0  0  0
   -0.2286   -1.8095   -0.7775 C   0  0  0  0  0  0  0  0  0  0  0  0
    2.9373    1.0009    0.2312 H   0  0  0  0  0  0  0  0  0  0  0  0
    0.5618    1.2421    0.5487 H   0  0  0  0  0  0  0  0  0  0  0  0
   -1.2978   -0.1954    0.0537 H   0  0  0  0  0  0  0  0  0  0  0  0
    0.7207   -2.2479   -1.0607 H   0  0  0  0  0  0  0  0  0  0  0  0
   -1.1177   -2.3938   -0.9670 H   0  0  0  0  0  0  0  0  0  0  0  0
  1  2  1  0
  1  5  1  0
  2  3  1  0
  2  6  1  0
  3  4  2  3
  3  7  1  0
  4  8  1  0
  4  9  1  0
M  RAD  1   2   2
M  END
>  <reaction>  (2) 
rxn_2025

>  <mol_properties>  (2) 
{"1": {"label": "acceptor", "atom_type": "Cs"}}

>  <type>  (2) 
r2

$$$$

     RDKit          3D

 10  9  0  0  0  0  0  0  0  0999 V2000
    2.2097   -0.5315    0.2575 S   0  0  0  0  0  0  0  0  0  0  0  0
    0.5401   -0.7188   -0.4494 C   0  0  0  0  0  0  0  0  0  0  0  0
   -0.5263   -0.1678    0.4365 C   0  0  0  0  0  0  0  0  0  0  0  0
   -1.3394    0.8185    0.0912 C   0  0  0  0  0  0  0  0  0  0  0  0
    2.1701    0.8016    0.3806 H   0  0  0  0  0  0  0  0  0  0  0  0
    0.4238   -1.7978   -0.5701 H   0  0  0  0  0  0  0  0  0  0  0  0
    0.5053   -0.2663   -1.4400 H   0  0  0  0  0  0  0  0  0  0  0  0
   -0.6005   -0.6141    1.4236 H   0  0  0  0  0  0  0  0  0  0  0  0
   -2.0960    1.1907    0.7700 H   0  0  0  0  0  0  0  0  0  0  0  0
   -1.2784    1.2877   -0.8850 H   0  0  0  0  0  0  0  0  0  0  0  0
  1  2  1  0
  1  5  1  0
  2  3  1  0
  2  6  1  0
  2  7  1  0
  3  4  2  3
  3  8  1  0
  4  9  1  0
  4 10  1  0
M  END
>  <reaction>  (3) 
rxn_2025

>  <mol_properties>  (3) 
{"1": {"label": "acceptor", "atom_type": "Cs"}, "9": {"label": "a_hydrogen", "atom_type": "H0"}}

>  <type>  (3) 
r2h

$$$$

     RDKit          3D

 19 17  0  0  0  0  0  0  0  0999 V2000
   -0.5406   -0.9267    1.8844 S   0  0  0  0  0  0  0  0  0  0  0  0
   -0.9313   -0.7876    0.1694 C   0  0  0  0  0  3  0  0  0  0  0  0
   -1.2639   -2.0276   -0.5122 C   0  0  0  0  0  0  0  0  0  0  0  0
   -2.0442   -2.0930   -1.5927 C   0  0  0  0  0  0  0  0  0  0  0  0
   -0.2050    0.3588    2.0663 H   0  0  0  0  0  0  0  0  0  0  0  0
   -1.5460    0.0721   -0.0889 H   0  0  0  0  0  0  0  0  0  0  0  0
   -0.8017   -2.9341   -0.1319 H   0  0  0  0  0  0  0  0  0  0  0  0
   -2.5242   -1.2098   -1.9986 H   0  0  0  0  0  0  0  0  0  0  0  0
   -2.2284   -3.0328   -2.0956 H   0  0  0  0  0  0  0  0  0  0  0  0
    0.5342    0.9245   -2.1623 C   0  0  0  0  0  0  0  0  0  0  0  0
    1.2431    0.2261   -1.0325 C   0  0  0  0  0  0  0  0  0  0  0  0
    1.8550    0.9658    0.0332 C   0  0  0  0  0  0  0  0  0  0  0  0
    1.5061    2.5066    0.4723 S   0  0  0  0  0  0  0  0  0  0  0  0
    1.2558    1.3880   -2.8387 H   0  0  0  0  0  0  0  0  0  0  0  0
   -0.0609    0.2126   -2.7364 H   0  0  0  0  0  0  0  0  0  0  0  0
   -0.1143    1.7153   -1.7860 H   0  0  0  0  0  0  0  0  0  0  0  0
    0.2526   -0.3580   -0.3931 H   0  0  0  0  0  0  0  0  0  0  0  0
    1.7977   -0.6666   -1.3224 H   0  0  0  0  0  0  0  0  0  0  0  0
    2.5692    0.4034    0.6334 H   0  0  0  0  0  0  0  0  0  0  0  0
  1  2  1  0
  1  5  1  0
  2  3  1  0
  2  6  1  0
  3  4  2  3
  3  7  1  0
  4  8  1  0
  4  9  1  0
 10 11  1  0
 10 14  1  0
 10 15  1  0
 10 16  1  0
 11 12  1  0
 11 17  1  0
 11 18  1  0
 12 13  2  0
 12 19  1  0
M  RAD  1   2   2
M  END
>  <reaction>  (4) 
rxn_2025

>  <mol_properties>  (4) 
{"0": {"label": "*4", "atom_type": "S2s"}, "1": {"label": "*3", "atom_type": "Cs"}, "10": {"label": "*1", "atom_type": "Cs"}, "11": {"label": "*0", "atom_type": "CS"}, "16": {"label": "*2", "atom_type": "H0"}}

>  <type>  (4) 
ts

$$$$

     RDKit          3D

 19 17  0  0  0  0  0  0  0  0999 V2000
    0.1523   -2.2810    1.0652 S   0  0  0  0  0  0  0  0  0  0  0  0
   -0.5950   -0.9406    0.0816 C   0  0  0  0  0  3  0  0  0  0  0  0
   -1.9819   -1.2588   -0.3666 C   0  0  0  0  0  0  0  0  0  0  0  0
   -3.0493   -0.5505   -0.0312 C   0  0  0  0  0  0  0  0  0  0  0  0
   -0.7882   -2.3078    2.0184 H   0  0  0  0  0  0  0  0  0  0  0  0
   -0.5646   -0.0081    0.6443 H   0  0  0  0  0  0  0  0  0  0  0  0
   -2.0883   -2.1414   -0.9900 H   0  0  0  0  0  0  0  0  0  0  0  0
   -2.9706    0.3290    0.5988 H   0  0  0  0  0  0  0  0  0  0  0  0
   -4.0387   -0.8226   -0.3757 H   0  0  0  0  0  0  0  0  0  0  0  0
    1.4622    0.3793   -2.3876 C   0  0  0  0  0  0  0  0  0  0  0  0
    1.4622    0.3793   -0.8566 C   0  0  0  0  0  0  0  0  0  0  0  0
    1.4622    1.7675   -0.3099 C   0  0  0  0  0  0  0  0  0  0  0  0
    0.3427    2.4232    0.6377 S   0  0  0  0  0  0  0  0  0  0  0  0
    2.3174    0.9295   -2.7848 H   0  0  0  0  0  0  0  0  0  0  0  0
    1.5130   -0.6416   -2.7663 H   0  0  0  0  0  0  0  0  0  0  0  0
    0.5527    0.8417   -2.7733 H   0  0  0  0  0  0  0  0  0  0  0  0
    0.4345   -0.2801   -0.3879 H   0  0  0  0  0  0  0  0  0  0  0  0
    2.3726   -0.1174   -0.5011 H   0  0  0  0  0  0  0  0  0  0  0  0
    2.3177    2.3727   -0.6202 H   0  0  0  0  0  0  0  0  0  0  0  0
  1  2  1  0
  1  5  1  0
  2  3  1  0
  2  6  1  0
  3  4  2  3
  3  7  1  0
  4  8  1  0
  4  9  1  0
 10 11  1  0
 10 14  1  0
 10 15  1  0
 10 16  1  0
 11 12  1  0
 11 17  1  0
 11 18  1  0
 12 13  2  0
 12 19  1  0
M  RAD  1   2   2
M  END
>  <reaction>  (5) 
rxn_2025

>  <mol_properties>  (5) 
{"0": {"label": "*4", "atom_type": "S2s"}, "1": {"label": "*3", "atom_type": "Cs"}, "10": {"label": "*1", "atom_type": "Cs"}, "11": {"label": "*0", "atom_type": "CS"}, "16": {"label": "*2", "atom_type": "H0"}}

>  <type>  (5) 
unop_1

>  <geom_source>  (5) 
Heuristics

$$$$

     RDKit          3D

 19 17  0  0  0  0  0  0  0  0999 V2000
   -0.7823   -2.3095   -0.9603 S   0  0  0  0  0  0  0  0  0  0  0  0
   -0.4514   -1.0466    0.3116 C   0  0  0  0  0  3  0  0  0  0  0  0
   -1.6986   -0.4314    0.8516 C   0  0  0  0  0  0  0  0  0  0  0  0
   -2.0647   -0.4935    2.1226 C   0  0  0  0  0  0  0  0  0  0  0  0
   -1.5480   -3.0960   -0.1929 H   0  0  0  0  0  0  0  0  0  0  0  0
    0.1563   -1.4747    1.1083 H   0  0  0  0  0  0  0  0  0  0  0  0
   -2.3298    0.0749    0.1275 H   0  0  0  0  0  0  0  0  0  0  0  0
   -1.4568   -1.0024    2.8631 H   0  0  0  0  0  0  0  0  0  0  0  0
   -2.9828   -0.0367    2.4688 H   0  0  0  0  0  0  0  0  0  0  0  0
    1.6059    0.2734   -2.1577 C   0  0  0  0  0  0  0  0  0  0  0  0
    1.6059    0.2734   -0.6266 C   0  0  0  0  0  0  0  0  0  0  0  0
    1.6059    1.6616   -0.0799 C   0  0  0  0  0  0  0  0  0  0  0  0
    0.4863    2.3173    0.8676 S   0  0  0  0  0  0  0  0  0  0  0  0
    2.4611    0.8236   -2.5548 H   0  0  0  0  0  0  0  0  0  0  0  0
    1.6567   -0.7475   -2.5363 H   0  0  0  0  0  0  0  0  0  0  0  0
    0.6964    0.7358   -2.5433 H   0  0  0  0  0  0  0  0  0  0  0  0
    0.5782   -0.3860   -0.1579 H   0  0  0  0  0  0  0  0  0  0  0  0
    2.5162   -0.2233   -0.2712 H   0  0  0  0  0  0  0  0  0  0  0  0
    2.4613    2.2668   -0.3902 H   0  0  0  0  0  0  0  0  0  0  0  0
  1  2  1  0
  1  5  1  0
  2  3  1  0
  2  6  1  0
  3  4  2  3
  3  7  1  0
  4  8  1  0
  4  9  1  0
 10 11  1  0
 10 14  1  0
 10 15  1  0
 10 16  1  0
 11 12  1  0
 11 17  1  0
 11 18  1  0
 12 13  2  0
 12 19  1  0
M  RAD  1   2   2
M  END
>  <reaction>  (6) 
rxn_2025

>  <mol_properties>  (6) 
{"0": {"label": "*4", "atom_type": "S2s"}, "1": {"label": "*3", "atom_type": "Cs"}, "10": {"label": "*1", "atom_type": "Cs"}, "11": {"label": "*0", "atom_type": "CS"}, "16": {"label": "*2", "atom_type": "H0"}}

>  <type>  (6) 
unop_2

>  <geom_source>  (6) 
Heuristics

$$$$

     RDKit          3D

 19 17  0  0  0  0  0  0  0  0999 V2000
   -0.0279   -1.6093    1.6462 S   0  0  0  0  0  0  0  0  0  0  0  0
   -0.6209   -0.9391    0.0582 C   0  0  0  0  0  3  0  0  0  0  0  0
   -1.5672   -1.8584   -0.6382 C   0  0  0  0  0  0  0  0  0  0  0  0
   -2.8205   -1.5476   -0.9314 C   0  0  0  0  0  0  0  0  0  0  0  0
   -1.2358   -1.7539    2.2066 H   0  0  0  0  0  0  0  0  0  0  0  0
   -1.0656    0.0432    0.2146 H   0  0  0  0  0  0  0  0  0  0  0  0
   -1.1768   -2.8399   -0.8895 H   0  0  0  0  0  0  0  0  0  0  0  0
   -3.2372   -0.5777   -0.6816 H   0  0  0  0  0  0  0  0  0  0  0  0
   -3.4739   -2.2498   -1.4331 H   0  0  0  0  0  0  0  0  0  0  0  0
    1.4364    0.3808   -2.4111 C   0  0  0  0  0  0  0  0  0  0  0  0
    1.4364    0.3808   -0.8800 C   0  0  0  0  0  0  0  0  0  0  0  0
    1.4364    1.7690   -0.3333 C   0  0  0  0  0  0  0  0  0  0  0  0
    0.3168    2.4247    0.6142 S   0  0  0  0  0  0  0  0  0  0  0  0
    2.2916    0.9310   -2.8082 H   0  0  0  0  0  0  0  0  0  0  0  0
    1.4872   -0.6401   -2.7897 H   0  0  0  0  0  0  0  0  0  0  0  0
    0.5269    0.8432   -2.7967 H   0  0  0  0  0  0  0  0  0  0  0  0
    0.4087   -0.2785   -0.4113 H   0  0  0  0  0  0  0  0  0  0  0  0
    2.3467   -0.1159   -0.5246 H   0  0  0  0  0  0  0  0  0  0  0  0
    2.2918    2.3743   -0.6436 H   0  0  0  0  0  0  0  0  0  0  0  0
  1  2  1  0
  1  5  1  0
  2  3  1  0
  2  6  1  0
  3  4  2  3
  3  7  1  0
  4  8  1  0
  4  9  1  0
 10 11  1  0
 10 14  1  0
 10 15  1  0
 10 16  1  0
 11 12  1  0
 11 17  1  0
 11 18  1  0
 12 13  2  0
 12 19  1  0
M  RAD  1   2   2
M  END
>  <reaction>  (7) 
rxn_2025

>  <mol_properties>  (7) 
{"0": {"label": "*4", "atom_type": "S2s"}, "1": {"label": "*3", "atom_type": "Cs"}, "10": {"label": "*1", "atom_type": "Cs"}, "11": {"label": "*0", "atom_type": "CS"}, "16": {"label": "*2", "atom_type": "H0"}}

>  <type>  (7) 
unop_3

>  <geom_source>  (7) 
Heuristics

$$$$

     RDKit          3D

 19 17  0  0  0  0  0  0  0  0999 V2000
   -1.9993   -0.5637   -0.6194 S   0  0  0  0  0  0  0  0  0  0  0  0
   -0.5589   -1.4594    0.0482 C   0  0  0  0  0  3  0  0  0  0  0  0
   -0.0883   -0.9051    1.3509 C   0  0  0  0  0  0  0  0  0  0  0  0
   -0.0570   -1.5946    2.4809 C   0  0  0  0  0  0  0  0  0  0  0  0
   -2.8004   -0.7639    0.4352 H   0  0  0  0  0  0  0  0  0  0  0  0
   -0.7892   -2.5213    0.1294 H   0  0  0  0  0  0  0  0  0  0  0  0
    0.2234    0.1349    1.3390 H   0  0  0  0  0  0  0  0  0  0  0  0
   -0.3730   -2.6316    2.5209 H   0  0  0  0  0  0  0  0  0  0  0  0
    0.2873   -1.1487    3.4051 H   0  0  0  0  0  0  0  0  0  0  0  0
    1.4983   -0.1395   -2.4211 C   0  0  0  0  0  0  0  0  0  0  0  0
    1.4983   -0.1395   -0.8900 C   0  0  0  0  0  0  0  0  0  0  0  0
    1.4983    1.2487   -0.3433 C   0  0  0  0  0  0  0  0  0  0  0  0
    0.3788    1.9044    0.6042 S   0  0  0  0  0  0  0  0  0  0  0  0
    2.3535    0.4107   -2.8182 H   0  0  0  0  0  0  0  0  0  0  0  0
    1.5491   -1.1604   -2.7997 H   0  0  0  0  0  0  0  0  0  0  0  0
    0.5888    0.3229   -2.8067 H   0  0  0  0  0  0  0  0  0  0  0  0
    0.4706   -0.7988   -0.4213 H   0  0  0  0  0  0  0  0  0  0  0  0
    2.4087   -0.6362   -0.5346 H   0  0  0  0  0  0  0  0  0  0  0  0
    2.3538    1.8540   -0.6536 H   0  0  0  0  0  0  0  0  0  0  0  0
  1  2  1  0
  1  5  1  0
  2  3  1  0
  2  6  1  0
  3  4  2  3
  3  7  1  0
  4  8  1  0
  4  9  1  0
 10 11  1  0
 10 14  1  0
 10 15  1  0
 10 16  1  0
 11 12  1  0
 11 17  1  0
 11 18  1  0
 12 13  2  0
 12 19  1  0
M  RAD  1   2   2
M  END
>  <reaction>  (8) 
rxn_2025

>  <mol_properties>  (8) 
{"0": {"label": "*4", "atom_type": "S2s"}, "1": {"label": "*3", "atom_type": "Cs"}, "10": {"label": "*1", "atom_type": "Cs"}, "11": {"label": "*0", "atom_type": "CS"}, "16": {"label": "*2", "atom_type": "H0"}}

>  <type>  (8) 
unop_4

>  <geom_source>  (8) 
Heuristics

$$$$

     RDKit          3D

 19 17  0  0  0  0  0  0  0  0999 V2000
   -0.5443   -0.8130    1.8165 S   0  0  0  0  0  0  0  0  0  0  0  0
   -0.7312   -0.9329    0.0073 C   0  0  0  0  0  3  0  0  0  0  0  0
   -0.7225   -2.3425   -0.4811 C   0  0  0  0  0  0  0  0  0  0  0  0
   -1.7323   -2.9102   -1.1224 C   0  0  0  0  0  0  0  0  0  0  0  0
   -1.6155   -1.5551    2.1259 H   0  0  0  0  0  0  0  0  0  0  0  0
   -1.6345   -0.4105   -0.3064 H   0  0  0  0  0  0  0  0  0  0  0  0
    0.1751   -2.9139   -0.2649 H   0  0  0  0  0  0  0  0  0  0  0  0
   -2.6436   -2.3639   -1.3410 H   0  0  0  0  0  0  0  0  0  0  0  0
   -1.6839   -3.9396   -1.4535 H   0  0  0  0  0  0  0  0  0  0  0  0
    1.3260    0.3871   -2.4620 C   0  0  0  0  0  0  0  0  0  0  0  0
    1.3260    0.3871   -0.9309 C   0  0  0  0  0  0  0  0  0  0  0  0
    1.3260    1.7752   -0.3842 C   0  0  0  0  0  0  0  0  0  0  0  0
    0.2065    2.4309    0.5633 S   0  0  0  0  0  0  0  0  0  0  0  0
    2.1812    0.9372   -2.8591 H   0  0  0  0  0  0  0  0  0  0  0  0
    1.3768   -0.6339   -2.8406 H   0  0  0  0  0  0  0  0  0  0  0  0
    0.4165    0.8494   -2.8476 H   0  0  0  0  0  0  0  0  0  0  0  0
    0.2983   -0.2723   -0.4622 H   0  0  0  0  0  0  0  0  0  0  0  0
    2.2364   -0.1096   -0.5755 H   0  0  0  0  0  0  0  0  0  0  0  0
    2.1815    2.3805   -0.6945 H   0  0  0  0  0  0  0  0  0  0  0  0
  1  2  1  0
  1  5  1  0
  2  3  1  0
  2  6  1  0
  3  4  2  3
  3  7  1  0
  4  8  1  0
  4  9  1  0
 10 11  1  0
 10 14  1  0
 10 15  1  0
 10 16  1  0
 11 12  1  0
 11 17  1  0
 11 18  1  0
 12 13  2  0
 12 19  1  0
M  RAD  1   2   2
M  END
>  <reaction>  (9) 
rxn_2025

>  <mol_properties>  (9) 
{"0": {"label": "*4", "atom_type": "S2s"}, "1": {"label": "*3", "atom_type": "Cs"}, "10": {"label": "*1", "atom_type": "Cs"}, "11": {"label": "*0", "atom_type": "CS"}, "16": {"label": "*2", "atom_type": "H0"}}

>  <type>  (9) 
unop_5

>  <geom_source>  (9) 
Heuristics

$$$$

     RDKit          3D

 19 17  0  0  0  0  0  0  0  0999 V2000
   -1.9963   -0.1374    0.0805 S   0  0  0  0  0  0  0  0  0  0  0  0
   -0.6947   -1.4036   -0.0775 C   0  0  0  0  0  3  0  0  0  0  0  0
    0.2510   -1.4055    1.0763 C   0  0  0  0  0  0  0  0  0  0  0  0
    0.4320   -2.4393    1.8837 C   0  0  0  0  0  0  0  0  0  0  0  0
   -2.4858   -0.5727    1.2488 H   0  0  0  0  0  0  0  0  0  0  0  0
   -1.1482   -2.3841   -0.2196 H   0  0  0  0  0  0  0  0  0  0  0  0
    0.7944   -0.4809    1.2458 H   0  0  0  0  0  0  0  0  0  0  0  0
   -0.1064   -3.3702    1.7417 H   0  0  0  0  0  0  0  0  0  0  0  0
    1.1257   -2.3932    2.7133 H   0  0  0  0  0  0  0  0  0  0  0  0
    1.3625   -0.0837   -2.5467 C   0  0  0  0  0  0  0  0  0  0  0  0
    1.3625   -0.0837   -1.0157 C   0  0  0  0  0  0  0  0  0  0  0  0
    1.3625    1.3045   -0.4690 C   0  0  0  0  0  0  0  0  0  0  0  0
    0.2430    1.9602    0.4786 S   0  0  0  0  0  0  0  0  0  0  0  0
    2.2177    0.4665   -2.9438 H   0  0  0  0  0  0  0  0  0  0  0  0
    1.4134   -1.1046   -2.9254 H   0  0  0  0  0  0  0  0  0  0  0  0
    0.4530    0.3787   -2.9324 H   0  0  0  0  0  0  0  0  0  0  0  0
    0.3349   -0.7430   -0.5470 H   0  0  0  0  0  0  0  0  0  0  0  0
    2.2729   -0.5804   -0.6602 H   0  0  0  0  0  0  0  0  0  0  0  0
    2.2180    1.9098   -0.7793 H   0  0  0  0  0  0  0  0  0  0  0  0
  1  2  1  0
  1  5  1  0
  2  3  1  0
  2  6  1  0
  3  4  2  3
  3  7  1  0
  4  8  1  0
  4  9  1  0
 10 11  1  0
 10 14  1  0
 10 15  1  0
 10 16  1  0
 11 12  1  0
 11 17  1  0
 11 18  1  0
 12 13  2  0
 12 19  1  0
M  RAD  1   2   2
M  END
>  <reaction>  (10) 
rxn_2025

>  <mol_properties>  (10) 
{"0": {"label": "*4", "atom_type": "S2s"}, "1": {"label": "*3", "atom_type": "Cs"}, "10": {"label": "*1", "atom_type": "Cs"}, "11": {"label": "*0", "atom_type": "CS"}, "16": {"label": "*2", "atom_type": "H0"}}

>  <type>  (10) 
unop_6

>  <geom_source>  (10) 
Heuristics

$$$$

     RDKit          3D

 19 17  0  0  0  0  0  0  0  0999 V2000
   -1.7147   -0.0161    0.8505 S   0  0  0  0  0  0  0  0  0  0  0  0
   -0.8077   -1.2540   -0.1331 C   0  0  0  0  0  3  0  0  0  0  0  0
    0.3186   -1.8770    0.6211 C   0  0  0  0  0  0  0  0  0  0  0  0
    0.4046   -3.1711    0.8884 C   0  0  0  0  0  0  0  0  0  0  0  0
   -2.0537   -0.8403    1.8504 H   0  0  0  0  0  0  0  0  0  0  0  0
   -1.4996   -2.0083   -0.5066 H   0  0  0  0  0  0  0  0  0  0  0  0
    1.0881   -1.1964    0.9726 H   0  0  0  0  0  0  0  0  0  0  0  0
   -0.3563   -3.8698    0.5574 H   0  0  0  0  0  0  0  0  0  0  0  0
    1.2387   -3.5786    1.4449 H   0  0  0  0  0  0  0  0  0  0  0  0
    1.2495    0.0660   -2.6023 C   0  0  0  0  0  0  0  0  0  0  0  0
    1.2495    0.0660   -1.0712 C   0  0  0  0  0  0  0  0  0  0  0  0
    1.2495    1.4541   -0.5246 C   0  0  0  0  0  0  0  0  0  0  0  0
    0.1299    2.1098    0.4230 S   0  0  0  0  0  0  0  0  0  0  0  0
    2.1047    0.6161   -2.9994 H   0  0  0  0  0  0  0  0  0  0  0  0
    1.3003   -0.9550   -2.9810 H   0  0  0  0  0  0  0  0  0  0  0  0
    0.3400    0.5283   -2.9880 H   0  0  0  0  0  0  0  0  0  0  0  0
    0.2218   -0.5934   -0.6026 H   0  0  0  0  0  0  0  0  0  0  0  0
    2.1598   -0.4308   -0.7158 H   0  0  0  0  0  0  0  0  0  0  0  0
    2.1049    2.0594   -0.8349 H   0  0  0  0  0  0  0  0  0  0  0  0
  1  2  1  0
  1  5  1  0
  2  3  1  0
  2  6  1  0
  3  4  2  3
  3  7  1  0
  4  8  1  0
  4  9  1  0
 10 11  1  0
 10 14  1  0
 10 15  1  0
 10 16  1  0
 11 12  1  0
 11 17  1  0
 11 18  1  0
 12 13  2  0
 12 19  1  0
M  RAD  1   2   2
M  END
>  <reaction>  (11) 
rxn_2025

>  <mol_properties>  (11) 
{"0": {"label": "*4", "atom_type": "S2s"}, "1": {"label": "*3", "atom_type": "Cs"}, "10": {"label": "*1", "atom_type": "Cs"}, "11": {"label": "*0", "atom_type": "CS"}, "16": {"label": "*2", "atom_type": "H0"}}

>  <type>  (11) 
unop_7

>  <geom_source>  (11) 
Heuristics

$$$$

     RDKit          3D

 19 17  0  0  0  0  0  0  0  0999 V2000
    0.0300   -2.6326    0.3012 S   0  0  0  0  0  0  0  0  0  0  0  0
   -0.5786   -0.9217    0.1432 C   0  0  0  0  0  3  0  0  0  0  0  0
   -2.0662   -0.8442    0.0610 C   0  0  0  0  0  0  0  0  0  0  0  0
   -2.8239   -0.2044    0.9384 C   0  0  0  0  0  0  0  0  0  0  0  0
   -0.6427   -2.9265    1.4215 H   0  0  0  0  0  0  0  0  0  0  0  0
   -0.1950   -0.3157    0.9635 H   0  0  0  0  0  0  0  0  0  0  0  0
   -2.5233   -1.3703   -0.7715 H   0  0  0  0  0  0  0  0  0  0  0  0
   -2.3920    0.3198    1.7842 H   0  0  0  0  0  0  0  0  0  0  0  0
   -3.9017   -0.1796    0.8419 H   0  0  0  0  0  0  0  0  0  0  0  0
    1.4787    0.3983   -2.3261 C   0  0  0  0  0  0  0  0  0  0  0  0
    1.4787    0.3983   -0.7950 C   0  0  0  0  0  0  0  0  0  0  0  0
    1.4787    1.7864   -0.2483 C   0  0  0  0  0  0  0  0  0  0  0  0
    0.3591    2.4421    0.6992 S   0  0  0  0  0  0  0  0  0  0  0  0
    2.3339    0.9484   -2.7232 H   0  0  0  0  0  0  0  0  0  0  0  0
    1.5295   -0.6227   -2.7047 H   0  0  0  0  0  0  0  0  0  0  0  0
    0.5692    0.8606   -2.7117 H   0  0  0  0  0  0  0  0  0  0  0  0
    0.4510   -0.2611   -0.3263 H   0  0  0  0  0  0  0  0  0  0  0  0
    2.3890   -0.0985   -0.4396 H   0  0  0  0  0  0  0  0  0  0  0  0
    2.3341    2.3917   -0.5586 H   0  0  0  0  0  0  0  0  0  0  0  0
  1  2  1  0
  1  5  1  0
  2  3  1  0
  2  6  1  0
  3  4  2  3
  3  7  1  0
  4  8  1  0
  4  9  1  0
 10 11  1  0
 10 14  1  0
 10 15  1  0
 10 16  1  0
 11 12  1  0
 11 17  1  0
 11 18  1  0
 12 13  2  0
 12 19  1  0
M  RAD  1   2   2
M  END
>  <reaction>  (12) 
rxn_2025

>  <mol_properties>  (12) 
{"0": {"label": "*4", "atom_type": "S2s"}, "1": {"label": "*3", "atom_type": "Cs"}, "10": {"label": "*1", "atom_type": "Cs"}, "11": {"label": "*0", "atom_type": "CS"}, "16": {"label": "*2", "atom_type": "H0"}}

>  <type>  (12) 
unop_8

>  <geom_source>  (12) 
Heuristics

$$$$

     RDKit          3D

 19 17  0  0  0  0  0  0  0  0999 V2000
   -1.7328   -1.1711   -1.0745 S   0  0  0  0  0  0  0  0  0  0  0  0
   -0.4468   -1.3967    0.1974 C   0  0  0  0  0  3  0  0  0  0  0  0
   -0.6396   -0.5038    1.3769 C   0  0  0  0  0  0  0  0  0  0  0  0
   -0.8354   -0.9401    2.6117 C   0  0  0  0  0  0  0  0  0  0  0  0
   -2.7758   -1.4509   -0.2823 H   0  0  0  0  0  0  0  0  0  0  0  0
   -0.4020   -2.4436    0.4961 H   0  0  0  0  0  0  0  0  0  0  0  0
   -0.6306    0.5623    1.1714 H   0  0  0  0  0  0  0  0  0  0  0  0
   -0.8591   -2.0001    2.8410 H   0  0  0  0  0  0  0  0  0  0  0  0
   -0.9767   -0.2544    3.4372 H   0  0  0  0  0  0  0  0  0  0  0  0
    1.6104   -0.0767   -2.2718 C   0  0  0  0  0  0  0  0  0  0  0  0
    1.6104   -0.0767   -0.7408 C   0  0  0  0  0  0  0  0  0  0  0  0
    1.6104    1.3114   -0.1941 C   0  0  0  0  0  0  0  0  0  0  0  0
    0.4909    1.9671    0.7534 S   0  0  0  0  0  0  0  0  0  0  0  0
    2.4656    0.4734   -2.6690 H   0  0  0  0  0  0  0  0  0  0  0  0
    1.6613   -1.0977   -2.6505 H   0  0  0  0  0  0  0  0  0  0  0  0
    0.7009    0.3856   -2.6575 H   0  0  0  0  0  0  0  0  0  0  0  0
    0.5828   -0.7361   -0.2721 H   0  0  0  0  0  0  0  0  0  0  0  0
    2.5208   -0.5734   -0.3853 H   0  0  0  0  0  0  0  0  0  0  0  0
    2.4659    1.9167   -0.5044 H   0  0  0  0  0  0  0  0  0  0  0  0
  1  2  1  0
  1  5  1  0
  2  3  1  0
  2  6  1  0
  3  4  2  3
  3  7  1  0
  4  8  1  0
  4  9  1  0
 10 11  1  0
 10 14  1  0
 10 15  1  0
 10 16  1  0
 11 12  1  0
 11 17  1  0
 11 18  1  0
 12 13  2  0
 12 19  1  0
M  RAD  1   2   2
M  END
>  <reaction>  (13) 
rxn_2025

>  <mol_properties>  (13) 
{"0": {"label": "*4", "atom_type": "S2s"}, "1": {"label": "*3", "atom_type": "Cs"}, "10": {"label": "*1", "atom_type": "Cs"}, "11": {"label": "*0", "atom_type": "CS"}, "16": {"label": "*2", "atom_type": "H0"}}

>  <type>  (13) 
unop_9

>  <geom_source>  (13) 
Heuristics

$$$$

     RDKit          3D

 19 17  0  0  0  0  0  0  0  0999 V2000
   -0.3141   -2.6238   -0.4308 S   0  0  0  0  0  0  0  0  0  0  0  0
   -0.5280   -0.9412    0.2367 C   0  0  0  0  0  3  0  0  0  0  0  0
   -1.9583   -0.5964    0.4834 C   0  0  0  0  0  0  0  0  0  0  0  0
   -2.4513   -0.2889    1.6733 C   0  0  0  0  0  0  0  0  0  0  0  0
   -0.9126   -3.2628    0.5827 H   0  0  0  0  0  0  0  0  0  0  0  0
    0.0695   -0.8233    1.1402 H   0  0  0  0  0  0  0  0  0  0  0  0
   -2.6101   -0.6263   -0.3845 H   0  0  0  0  0  0  0  0  0  0  0  0
   -1.8230   -0.2624    2.5573 H   0  0  0  0  0  0  0  0  0  0  0  0
   -3.4987   -0.0508    1.8063 H   0  0  0  0  0  0  0  0  0  0  0  0
    1.5292    0.3787   -2.2326 C   0  0  0  0  0  0  0  0  0  0  0  0
    1.5292    0.3787   -0.7015 C   0  0  0  0  0  0  0  0  0  0  0  0
    1.5292    1.7669   -0.1548 C   0  0  0  0  0  0  0  0  0  0  0  0
    0.4097    2.4226    0.7927 S   0  0  0  0  0  0  0  0  0  0  0  0
    2.3844    0.9289   -2.6297 H   0  0  0  0  0  0  0  0  0  0  0  0
    1.5800   -0.6422   -2.6112 H   0  0  0  0  0  0  0  0  0  0  0  0
    0.6197    0.8411   -2.6182 H   0  0  0  0  0  0  0  0  0  0  0  0
    0.5016   -0.2807   -0.2328 H   0  0  0  0  0  0  0  0  0  0  0  0
    2.4396   -0.1180   -0.3461 H   0  0  0  0  0  0  0  0  0  0  0  0
    2.3847    2.3721   -0.4651 H   0  0  0  0  0  0  0  0  0  0  0  0
  1  2  1  0
  1  5  1  0
  2  3  1  0
  2  6  1  0
  3  4  2  3
  3  7  1  0
  4  8  1  0
  4  9  1  0
 10 11  1  0
 10 14  1  0
 10 15  1  0
 10 16  1  0
 11 12  1  0
 11 17  1  0
 11 18  1  0
 12 13  2  0
 12 19  1  0
M  RAD  1   2   2
M  END
>  <reaction>  (14) 
rxn_2025

>  <mol_properties>  (14) 
{"0": {"label": "*4", "atom_type": "S2s"}, "1": {"label": "*3", "atom_type": "Cs"}, "10": {"label": "*1", "atom_type": "Cs"}, "11": {"label": "*0", "atom_type": "CS"}, "16": {"label": "*2", "atom_type": "H0"}}

>  <type>  (14) 
unop_10

>  <geom_source>  (14) 
Heuristics

$$$$

     RDKit          3D

 19 17  0  0  0  0  0  0  0  0999 V2000
   -1.1990   -0.2408    1.4941 S   0  0  0  0  0  0  0  0  0  0  0  0
   -0.8369   -1.0591   -0.0939 C   0  0  0  0  0  3  0  0  0  0  0  0
    0.0376   -2.2578    0.0614 C   0  0  0  0  0  0  0  0  0  0  0  0
   -0.3216   -3.4857   -0.2801 C   0  0  0  0  0  0  0  0  0  0  0  0
   -1.7523   -1.3065    2.0875 H   0  0  0  0  0  0  0  0  0  0  0  0
   -1.7680   -1.3110   -0.6006 H   0  0  0  0  0  0  0  0  0  0  0  0
    1.0143   -2.0787    0.5007 H   0  0  0  0  0  0  0  0  0  0  0  0
   -1.2955   -3.6920   -0.7109 H   0  0  0  0  0  0  0  0  0  0  0  0
    0.3449   -4.3276   -0.1435 H   0  0  0  0  0  0  0  0  0  0  0  0
    1.2203    0.2608   -2.5631 C   0  0  0  0  0  0  0  0  0  0  0  0
    1.2203    0.2608   -1.0320 C   0  0  0  0  0  0  0  0  0  0  0  0
    1.2203    1.6490   -0.4854 C   0  0  0  0  0  0  0  0  0  0  0  0
    0.1007    2.3047    0.4622 S   0  0  0  0  0  0  0  0  0  0  0  0
    2.0755    0.8110   -2.9602 H   0  0  0  0  0  0  0  0  0  0  0  0
    1.2711   -0.7601   -2.9418 H   0  0  0  0  0  0  0  0  0  0  0  0
    0.3108    0.7232   -2.9488 H   0  0  0  0  0  0  0  0  0  0  0  0
    0.1926   -0.3986   -0.5634 H   0  0  0  0  0  0  0  0  0  0  0  0
    2.1306   -0.2359   -0.6766 H   0  0  0  0  0  0  0  0  0  0  0  0
    2.0757    2.2542   -0.7957 H   0  0  0  0  0  0  0  0  0  0  0  0
  1  2  1  0
  1  5  1  0
  2  3  1  0
  2  6  1  0
  3  4  2  3
  3  7  1  0
  4  8  1  0
  4  9  1  0
 10 11  1  0
 10 14  1  0
 10 15  1  0
 10 16  1  0
 11 12  1  0
 11 17  1  0
 11 18  1  0
 12 13  2  0
 12 19  1  0
M  RAD  1   2   2
M  END
>  <reaction>  (15) 
rxn_2025

>  <mol_properties>  (15) 
{"0": {"label": "*4", "atom_type": "S2s"}, "1": {"label": "*3", "atom_type": "Cs"}, "10": {"label": "*1", "atom_type": "Cs"}, "11": {"label": "*0", "atom_type": "CS"}, "16": {"label": "*2", "atom_type": "H0"}}

>  <type>  (15) 
unop_11

>  <geom_source>  (15) 
Heuristics

$$$$

     RDKit          3D

 19 17  0  0  0  0  0  0  0  0999 V2000
   -1.2857   -1.7940   -1.1893 S   0  0  0  0  0  0  0  0  0  0  0  0
   -0.4057   -1.2294    0.3038 C   0  0  0  0  0  3  0  0  0  0  0  0
   -1.2455   -0.3530    1.1712 C   0  0  0  0  0  0  0  0  0  0  0  0
   -1.5713   -0.6422    2.4216 C   0  0  0  0  0  0  0  0  0  0  0  0
   -2.2995   -2.3895   -0.5479 H   0  0  0  0  0  0  0  0  0  0  0  0
   -0.0273   -2.0885    0.8569 H   0  0  0  0  0  0  0  0  0  0  0  0
   -1.6092    0.5610    0.7115 H   0  0  0  0  0  0  0  0  0  0  0  0
   -1.2293   -1.5539    2.8999 H   0  0  0  0  0  0  0  0  0  0  0  0
   -2.1890    0.0219    3.0124 H   0  0  0  0  0  0  0  0  0  0  0  0
    1.6515    0.0906   -2.1654 C   0  0  0  0  0  0  0  0  0  0  0  0
    1.6515    0.0906   -0.6343 C   0  0  0  0  0  0  0  0  0  0  0  0
    1.6515    1.4787   -0.0876 C   0  0  0  0  0  0  0  0  0  0  0  0
    0.5319    2.1344    0.8599 S   0  0  0  0  0  0  0  0  0  0  0  0
    2.5067    0.6407   -2.5625 H   0  0  0  0  0  0  0  0  0  0  0  0
    1.7023   -0.9304   -2.5441 H   0  0  0  0  0  0  0  0  0  0  0  0
    0.7420    0.5529   -2.5511 H   0  0  0  0  0  0  0  0  0  0  0  0
    0.6238   -0.5688   -0.1657 H   0  0  0  0  0  0  0  0  0  0  0  0
    2.5618   -0.4062   -0.2789 H   0  0  0  0  0  0  0  0  0  0  0  0
    2.5069    2.0840   -0.3980 H   0  0  0  0  0  0  0  0  0  0  0  0
  1  2  1  0
  1  5  1  0
  2  3  1  0
  2  6  1  0
  3  4  2  3
  3  7  1  0
  4  8  1  0
  4  9  1  0
 10 11  1  0
 10 14  1  0
 10 15  1  0
 10 16  1  0
 11 12  1  0
 11 17  1  0
 11 18  1  0
 12 13  2  0
 12 19  1  0
M  RAD  1   2   2
M  END
>  <reaction>  (16) 
rxn_2025

>  <mol_properties>  (16) 
{"0": {"label": "*4", "atom_type": "S2s"}, "1": {"label": "*3", "atom_type": "Cs"}, "10": {"label": "*1", "atom_type": "Cs"}, "11": {"label": "*0", "atom_type": "CS"}, "16": {"label": "*2", "atom_type": "H0"}}

>  <type>  (16) 
unop_12

>  <geom_source>  (16) 
Heuristics

$$$$

     RDKit          3D

 19 17  0  0  0  0  0  0  0  0999 V2000
   -1.5206    1.4245    1.6975 S   0  0  0  0  0  0  0  0  0  0  0  0
    2.6957    1.6975    0.9248 S   0  0  0  0  0  1  0  0  0  0  0  0
   -1.1162    0.1894    0.4250 C   0  0  0  0  0  0  0  0  0  0  0  0
    2.0877   -1.4327    0.1693 C   0  0  0  0  0  0  0  0  0  0  0  0
   -2.0346    0.3310   -0.7512 C   0  0  0  0  0  0  0  0  0  0  0  0
    1.3963   -0.1436   -0.2615 C   0  0  0  0  0  0  0  0  0  0  0  0
   -3.3330    0.0274   -0.6679 C   0  0  0  0  0  0  0  0  0  0  0  0
    2.3518    1.0109   -0.2881 C   0  0  0  0  0  0  0  0  0  0  0  0
   -1.1981   -0.8325    0.8530 H   0  0  0  0  0  0  0  0  0  0  0  0
    0.1521    0.3865    0.0205 H   0  0  0  0  0  0  0  0  0  0  0  0
    2.9163   -1.6784   -0.5289 H   0  0  0  0  0  0  0  0  0  0  0  0
    1.3522   -2.2639    0.1603 H   0  0  0  0  0  0  0  0  0  0  0  0
    2.4897   -1.3289    1.1992 H   0  0  0  0  0  0  0  0  0  0  0  0
   -1.6252    0.6613   -1.7008 H   0  0  0  0  0  0  0  0  0  0  0  0
    0.9567   -0.2847   -1.2721 H   0  0  0  0  0  0  0  0  0  0  0  0
   -3.7662   -0.3212    0.2648 H   0  0  0  0  0  0  0  0  0  0  0  0
   -3.9709    0.1266   -1.5401 H   0  0  0  0  0  0  0  0  0  0  0  0
    2.6439    1.4411   -1.2406 H   0  0  0  0  0  0  0  0  0  0  0  0
   -0.4776    0.9897    2.5368 H   0  0  0  0  0  0  0  0  0  0  0  0
  1  3  1  0
  1 19  1  0
  2  8  1  0
  3  5  1  0
  3  9  1  0
  3 10  1  0
  4  6  1  0
  4 11  1  0
  4 12  1  0
  4 13  1  0
  5  7  2  3
  5 14  1  0
  6  8  2  3
  6 15  1  0
  7 16  1  0
  7 17  1  0
  8 18  1  0
M  RAD  1   2   2
M  END
>  <reaction>  (17) 
rxn_2025

>  <mol_properties>  (17) 
{"0": {"label": "*4", "atom_type": "S2s"}, "1": {"label": "*3", "atom_type": "Cs"}, "10": {"label": "*1", "atom_type": "Cs"}, "11": {"label": "*0", "atom_type": "CS"}, "16": {"label": "*2", "atom_type": "H0"}}

>  <type>  (17) 
unop_13

>  <geom_source>  (17) 
AutoTST

$$$$
