
     RDKit          3D

  7  6  0  0  0  0  0  0  0  0999 V2000
   -0.6782    0.0507    0.0301 C   0  0  0  0  0  0  0  0  0  0  0  0
    0.8092    0.0996    0.0213 C   0  0  0  0  0  0  0  0  0  0  0  0
    1.7473    0.7521    1.1507 S   0  0  0  0  0  0  0  0  0  0  0  0
   -1.0667    0.5456   -0.8653 H   0  0  0  0  0  0  0  0  0  0  0  0
   -1.0112   -0.9904   -0.0239 H   0  0  0  0  0  0  0  0  0  0  0  0
   -1.0920    0.5225    0.9188 H   0  0  0  0  0  0  0  0  0  0  0  0
    1.2740   -0.3620   -0.8520 H   0  0  0  0  0  0  0  0  0  0  0  0
  1  2  1  0
  1  4  1  0
  1  5  1  0
  1  6  1  0
  2  3  2  0
  2  7  1  0
M  END
>  <reaction>  (1) 
rxn_1965

>  <mol_properties>  (1) 
{"0": {"label": "donator", "atom_type": "Cs"}, "3": {"label": "d_hydrogen", "atom_type": "H0"}}

>  <type>  (1) 
r1h

$$$$

     RDKit          3D

 11 10  0  0  0  0  0  0  0  0999 V2000
   -0.9580    1.1013   -2.2955 C   0  0  0  0  0  0  0  0  0  0  0  0
   -0.5129    0.5941   -1.2929 C   0  0  0  0  0  0  0  0  0  0  0  0
   -0.0301   -0.0160   -0.1357 C   0  0  0  0  0  3  0  0  0  0  0  0
   -0.6593   -1.2845    0.3661 C   0  0  0  0  0  0  0  0  0  0  0  0
    1.0691    0.5292    0.5269 C   0  0  0  0  0  0  0  0  0  0  0  0
    2.0168    0.9794    1.1266 C   0  0  0  0  0  0  0  0  0  0  0  0
   -1.3415    1.5561   -3.1769 H   0  0  0  0  0  0  0  0  0  0  0  0
   -1.7166   -1.3186    0.1054 H   0  0  0  0  0  0  0  0  0  0  0  0
   -0.1742   -2.1550   -0.0865 H   0  0  0  0  0  0  0  0  0  0  0  0
   -0.5505   -1.3663    1.4470 H   0  0  0  0  0  0  0  0  0  0  0  0
    2.8514    1.3842    1.6465 H   0  0  0  0  0  0  0  0  0  0  0  0
  1  2  3  0
  1  7  1  0
  2  3  1  0
  3  4  1  0
  3  5  1  0
  4  8  1  0
  4  9  1  0
  4 10  1  0
  5  6  3  0
  6 11  1  0
M  RAD  1   3   2
M  END
>  <reaction>  (2) 
rxn_1965

>  <mol_properties>  (2) 
{"2": {"label": "acceptor", "atom_type": "Cs"}}

>  <type>  (2) 
r2

$$$$

     RDKit          3D

 12 11  0  0  0  0  0  0  0  0999 V2000
    2.1696    0.6854    1.1310 C   0  0  0  0  0  0  0  0  0  0  0  0
    1.2518    0.4145    0.4134 C   0  0  0  0  0  0  0  0  0  0  0  0
    0.1391    0.0443   -0.4683 C   0  0  0  0  0  0  0  0  0  0  0  0
   -0.2054   -1.4492   -0.3339 C   0  0  0  0  0  0  0  0  0  0  0  0
   -1.0375    0.8853   -0.2222 C   0  0  0  0  0  0  0  0  0  0  0  0
   -2.0160    1.5463   -0.0311 C   0  0  0  0  0  0  0  0  0  0  0  0
    2.9819    0.9356    1.7702 H   0  0  0  0  0  0  0  0  0  0  0  0
    0.4629    0.2285   -1.4981 H   0  0  0  0  0  0  0  0  0  0  0  0
   -0.5327   -1.6703    0.6812 H   0  0  0  0  0  0  0  0  0  0  0  0
    0.6727   -2.0535   -0.5593 H   0  0  0  0  0  0  0  0  0  0  0  0
   -1.0064   -1.7081   -1.0256 H   0  0  0  0  0  0  0  0  0  0  0  0
   -2.8802    2.1413    0.1426 H   0  0  0  0  0  0  0  0  0  0  0  0
  1  2  3  0
  1  7  1  0
  2  3  1  0
  3  4  1  0
  3  5  1  0
  3  8  1  0
  4  9  1  0
  4 10  1  0
  4 11  1  0
  5  6  3  0
  6 12  1  0
M  END
>  <reaction>  (3) 
rxn_1965

>  <mol_properties>  (3) 
{"2": {"label": "acceptor", "atom_type": "Cs"}, "11": {"label": "a_hydrogen", "atom_type": "H0"}}

>  <type>  (3) 
r2h

$$$$

     RDKit          3D

 18 16  0  0  0  0  0  0  0  0999 V2000
   -1.8225   -1.7923    0.4113 C   0  0  0  0  0  0  0  0  0  0  0  0
   -1.3939   -0.7500    0.8241 C   0  0  0  0  0  0  0  0  0  0  0  0
   -0.8109    0.5010    1.2024 C   0  0  0  0  0  3  0  0  0  0  0  0
   -1.4728    1.7397    0.6210 C   0  0  0  0  0  0  0  0  0  0  0  0
   -0.3545    0.6009    2.5582 C   0  0  0  0  0  0  0  0  0  0  0  0
    0.0745    0.7162    3.6728 C   0  0  0  0  0  0  0  0  0  0  0  0
   -2.2249   -2.7133    0.0628 H   0  0  0  0  0  0  0  0  0  0  0  0
   -1.5645    1.6352   -0.4602 H   0  0  0  0  0  0  0  0  0  0  0  0
   -2.4683    1.8723    1.0479 H   0  0  0  0  0  0  0  0  0  0  0  0
   -0.8764    2.6227    0.8477 H   0  0  0  0  0  0  0  0  0  0  0  0
    0.4380    0.8101    4.6679 H   0  0  0  0  0  0  0  0  0  0  0  0
    1.4138    0.4842   -0.3095 C   0  0  0  0  0  0  0  0  0  0  0  0
    1.0891   -0.4109   -1.3678 C   0  0  0  0  0  0  0  0  0  0  0  0
    0.3077    0.0134   -2.7457 S   0  0  0  0  0  0  0  0  0  0  0  0
    0.3318    0.4453    0.4886 H   0  0  0  0  0  0  0  0  0  0  0  0
    2.1643    0.1636    0.4090 H   0  0  0  0  0  0  0  0  0  0  0  0
    1.4152    1.5440   -0.5485 H   0  0  0  0  0  0  0  0  0  0  0  0
    1.3404   -1.4580   -1.2067 H   0  0  0  0  0  0  0  0  0  0  0  0
  1  2  3  0
  1  7  1  0
  2  3  1  0
  3  4  1  0
  3  5  1  0
  4  8  1  0
  4  9  1  0
  4 10  1  0
  5  6  3  0
  6 11  1  0
 12 13  1  0
 12 15  1  0
 12 16  1  0
 12 17  1  0
 13 14  2  0
 13 18  1  0
M  RAD  1   3   2
M  END
>  <reaction>  (4) 
rxn_1965

>  <mol_properties>  (4) 
{"1": {"label": "*4", "atom_type": "Ct"}, "2": {"label": "*3", "atom_type": "Cs"}, "11": {"label": "*1", "atom_type": "Cs"}, "12": {"label": "*0", "atom_type": "CS"}, "14": {"label": "*2", "atom_type": "H0"}}

>  <type>  (4) 
ts

$$$$

     RDKit          3D

 18 16  0  0  0  0  0  0  0  0999 V2000
   -0.0269    0.0271    3.6555 C   0  0  0  0  0  0  0  0  0  0  0  0
   -0.4054    0.0665    2.5215 C   0  0  0  0  0  0  0  0  0  0  0  0
   -0.8935    0.0835    1.1381 C   0  0  0  0  0  3  0  0  0  0  0  0
   -2.3068   -0.5167    1.0384 C   0  0  0  0  0  0  0  0  0  0  0  0
   -0.8504    1.4376    0.5751 C   0  0  0  0  0  0  0  0  0  0  0  0
   -0.8405    2.5339    0.0967 C   0  0  0  0  0  0  0  0  0  0  0  0
    0.3097   -0.0080    4.6637 H   0  0  0  0  0  0  0  0  0  0  0  0
   -2.3048   -1.5350    1.4260 H   0  0  0  0  0  0  0  0  0  0  0  0
   -3.0106    0.0786    1.6186 H   0  0  0  0  0  0  0  0  0  0  0  0
   -2.6311   -0.5293   -0.0017 H   0  0  0  0  0  0  0  0  0  0  0  0
   -0.8317    3.5086   -0.3286 H   0  0  0  0  0  0  0  0  0  0  0  0
    1.2098    0.1481   -0.4349 C   0  0  0  0  0  0  0  0  0  0  0  0
    1.2098   -1.0504   -1.3171 C   0  0  0  0  0  0  0  0  0  0  0  0
    1.2098   -1.0504   -2.9238 S   0  0  0  0  0  0  0  0  0  0  0  0
    0.1585    0.1158    0.3513 H   0  0  0  0  0  0  0  0  0  0  0  0
    2.0860    0.1212    0.2203 H   0  0  0  0  0  0  0  0  0  0  0  0
    1.2098    1.0719   -1.0096 H   0  0  0  0  0  0  0  0  0  0  0  0
    1.2098   -2.0048   -0.7872 H   0  0  0  0  0  0  0  0  0  0  0  0
  1  2  3  0
  1  7  1  0
  2  3  1  0
  3  4  1  0
  3  5  1  0
  4  8  1  0
  4  9  1  0
  4 10  1  0
  5  6  3  0
  6 11  1  0
 12 13  1  0
 12 15  1  0
 12 16  1  0
 12 17  1  0
 13 14  2  0
 13 18  1  0
M  RAD  1   3   2
M  END
>  <reaction>  (5) 
rxn_1965

>  <mol_properties>  (5) 
{"1": {"label": "*4", "atom_type": "Ct"}, "2": {"label": "*3", "atom_type": "Cs"}, "11": {"label": "*1", "atom_type": "Cs"}, "12": {"label": "*0", "atom_type": "CS"}, "14": {"label": "*2", "atom_type": "H0"}}

>  <type>  (5) 
unop_1

>  <geom_source>  (5) 
Heuristics

$$$$

     RDKit          3D

 18 16  0  0  0  0  0  0  0  0999 V2000
   -1.5061   -2.0650    1.4298 C   0  0  0  0  0  0  0  0  0  0  0  0
   -1.2128   -0.9186    1.2551 C   0  0  0  0  0  0  0  0  0  0  0  0
   -0.8860    0.4919    1.0185 C   0  0  0  0  0  3  0  0  0  0  0  0
   -2.1533    1.3179    0.7369 C   0  0  0  0  0  0  0  0  0  0  0  0
   -0.1217    1.0560    2.1366 C   0  0  0  0  0  0  0  0  0  0  0  0
    0.4888    1.5453    3.0414 C   0  0  0  0  0  0  0  0  0  0  0  0
   -1.7669   -3.0842    1.5851 H   0  0  0  0  0  0  0  0  0  0  0  0
   -2.6823    0.9035   -0.1207 H   0  0  0  0  0  0  0  0  0  0  0  0
   -2.8156    1.2980    1.6014 H   0  0  0  0  0  0  0  0  0  0  0  0
   -1.8820    2.3518    0.5258 H   0  0  0  0  0  0  0  0  0  0  0  0
    1.0316    1.9803    3.8458 H   0  0  0  0  0  0  0  0  0  0  0  0
    1.2174    0.5565   -0.5545 C   0  0  0  0  0  0  0  0  0  0  0  0
    1.2174   -0.6420   -1.4367 C   0  0  0  0  0  0  0  0  0  0  0  0
    1.2174   -0.6420   -3.0434 S   0  0  0  0  0  0  0  0  0  0  0  0
    0.1660    0.5242    0.2318 H   0  0  0  0  0  0  0  0  0  0  0  0
    2.0935    0.5296    0.1007 H   0  0  0  0  0  0  0  0  0  0  0  0
    1.2174    1.4803   -1.1292 H   0  0  0  0  0  0  0  0  0  0  0  0
    1.2174   -1.5964   -0.9068 H   0  0  0  0  0  0  0  0  0  0  0  0
  1  2  3  0
  1  7  1  0
  2  3  1  0
  3  4  1  0
  3  5  1  0
  4  8  1  0
  4  9  1  0
  4 10  1  0
  5  6  3  0
  6 11  1  0
 12 13  1  0
 12 15  1  0
 12 16  1  0
 12 17  1  0
 13 14  2  0
 13 18  1  0
M  RAD  1   3   2
M  END
>  <reaction>  (6) 
rxn_1965

>  <mol_properties>  (6) 
{"1": {"label": "*4", "atom_type": "Ct"}, "2": {"label": "*3", "atom_type": "Cs"}, "11": {"label": "*1", "atom_type": "Cs"}, "12": {"label": "*0", "atom_type": "CS"}, "14": {"label": "*2", "atom_type": "H0"}}

>  <type>  (6) 
unop_2

>  <geom_source>  (6) 
Heuristics

$$$$

     RDKit          3D

 18 16  0  0  0  0  0  0  0  0999 V2000
   -0.0970    1.2902    3.5174 C   0  0  0  0  0  0  0  0  0  0  0  0
   -0.3883    0.7606    2.4852 C   0  0  0  0  0  0  0  0  0  0  0  0
   -0.7522    0.0769    1.2392 C   0  0  0  0  0  3  0  0  0  0  0  0
   -1.7049   -1.1012    1.5077 C   0  0  0  0  0  0  0  0  0  0  0  0
   -1.3259    1.0131    0.2663 C   0  0  0  0  0  0  0  0  0  0  0  0
   -1.8112    1.7520   -0.5396 C   0  0  0  0  0  0  0  0  0  0  0  0
    0.1621    1.7610    4.4351 H   0  0  0  0  0  0  0  0  0  0  0  0
   -1.2412   -1.8016    2.2016 H   0  0  0  0  0  0  0  0  0  0  0  0
   -2.6363   -0.7407    1.9423 H   0  0  0  0  0  0  0  0  0  0  0  0
   -1.9289   -1.6163    0.5741 H   0  0  0  0  0  0  0  0  0  0  0  0
   -2.2426    2.4088   -1.2561 H   0  0  0  0  0  0  0  0  0  0  0  0
    1.3512    0.1415   -0.3338 C   0  0  0  0  0  0  0  0  0  0  0  0
    1.3512   -1.0570   -1.2160 C   0  0  0  0  0  0  0  0  0  0  0  0
    1.3512   -1.0570   -2.8227 S   0  0  0  0  0  0  0  0  0  0  0  0
    0.2998    0.1092    0.4524 H   0  0  0  0  0  0  0  0  0  0  0  0
    2.2274    0.1146    0.3214 H   0  0  0  0  0  0  0  0  0  0  0  0
    1.3512    1.0652   -0.9085 H   0  0  0  0  0  0  0  0  0  0  0  0
    1.3512   -2.0114   -0.6861 H   0  0  0  0  0  0  0  0  0  0  0  0
  1  2  3  0
  1  7  1  0
  2  3  1  0
  3  4  1  0
  3  5  1  0
  4  8  1  0
  4  9  1  0
  4 10  1  0
  5  6  3  0
  6 11  1  0
 12 13  1  0
 12 15  1  0
 12 16  1  0
 12 17  1  0
 13 14  2  0
 13 18  1  0
M  RAD  1   3   2
M  END
>  <reaction>  (7) 
rxn_1965

>  <mol_properties>  (7) 
{"1": {"label": "*4", "atom_type": "Ct"}, "2": {"label": "*3", "atom_type": "Cs"}, "11": {"label": "*1", "atom_type": "Cs"}, "12": {"label": "*0", "atom_type": "CS"}, "14": {"label": "*2", "atom_type": "H0"}}

>  <type>  (7) 
unop_3

>  <geom_source>  (7) 
Heuristics

$$$$

     RDKit          3D

 18 16  0  0  0  0  0  0  0  0999 V2000
   -2.7480    0.4122   -0.3645 C   0  0  0  0  0  0  0  0  0  0  0  0
   -1.7877    0.3871    0.3483 C   0  0  0  0  0  0  0  0  0  0  0  0
   -0.5984    0.3916    1.2073 C   0  0  0  0  0  3  0  0  0  0  0  0
   -0.1193    1.8265    1.4883 C   0  0  0  0  0  0  0  0  0  0  0  0
   -0.8400   -0.3418    2.4548 C   0  0  0  0  0  0  0  0  0  0  0  0
   -1.0152   -0.9205    3.4868 C   0  0  0  0  0  0  0  0  0  0  0  0
   -3.6017    0.4344   -0.9982 H   0  0  0  0  0  0  0  0  0  0  0  0
    0.0908    2.3373    0.5491 H   0  0  0  0  0  0  0  0  0  0  0  0
   -0.8872    2.3814    2.0257 H   0  0  0  0  0  0  0  0  0  0  0  0
    0.7859    1.8027    2.0941 H   0  0  0  0  0  0  0  0  0  0  0  0
   -1.1710   -1.4350    4.4044 H   0  0  0  0  0  0  0  0  0  0  0  0
    1.5049    0.4562   -0.3658 C   0  0  0  0  0  0  0  0  0  0  0  0
    1.5049   -0.7423   -1.2480 C   0  0  0  0  0  0  0  0  0  0  0  0
    1.5049   -0.7423   -2.8546 S   0  0  0  0  0  0  0  0  0  0  0  0
    0.4536    0.4239    0.4205 H   0  0  0  0  0  0  0  0  0  0  0  0
    2.3811    0.4293    0.2894 H   0  0  0  0  0  0  0  0  0  0  0  0
    1.5049    1.3800   -0.9404 H   0  0  0  0  0  0  0  0  0  0  0  0
    1.5050   -1.6967   -0.7180 H   0  0  0  0  0  0  0  0  0  0  0  0
  1  2  3  0
  1  7  1  0
  2  3  1  0
  3  4  1  0
  3  5  1  0
  4  8  1  0
  4  9  1  0
  4 10  1  0
  5  6  3  0
  6 11  1  0
 12 13  1  0
 12 15  1  0
 12 16  1  0
 12 17  1  0
 13 14  2  0
 13 18  1  0
M  RAD  1   3   2
M  END
>  <reaction>  (8) 
rxn_1965

>  <mol_properties>  (8) 
{"1": {"label": "*4", "atom_type": "Ct"}, "2": {"label": "*3", "atom_type": "Cs"}, "11": {"label": "*1", "atom_type": "Cs"}, "12": {"label": "*0", "atom_type": "CS"}, "14": {"label": "*2", "atom_type": "H0"}}

>  <type>  (8) 
unop_4

>  <geom_source>  (8) 
Heuristics

$$$$

     RDKit          3D

 18 16  0  0  0  0  0  0  0  0999 V2000
   -0.5234    2.3583    2.8033 C   0  0  0  0  0  0  0  0  0  0  0  0
   -0.5790    1.3983    2.0919 C   0  0  0  0  0  0  0  0  0  0  0  0
   -0.6272    0.2000    1.2469 C   0  0  0  0  0  3  0  0  0  0  0  0
   -0.5533   -1.0825    2.0938 C   0  0  0  0  0  0  0  0  0  0  0  0
   -1.8166    0.2017    0.3880 C   0  0  0  0  0  0  0  0  0  0  0  0
   -2.7861    0.1705   -0.3119 C   0  0  0  0  0  0  0  0  0  0  0  0
   -0.4739    3.2117    3.4359 H   0  0  0  0  0  0  0  0  0  0  0  0
    0.3568   -1.0787    2.6928 H   0  0  0  0  0  0  0  0  0  0  0  0
   -1.4124   -1.1434    2.7606 H   0  0  0  0  0  0  0  0  0  0  0  0
   -0.5508   -1.9563    1.4431 H   0  0  0  0  0  0  0  0  0  0  0  0
   -3.6480    0.1427   -0.9342 H   0  0  0  0  0  0  0  0  0  0  0  0
    1.4762    0.2645   -0.3262 C   0  0  0  0  0  0  0  0  0  0  0  0
    1.4762   -0.9339   -1.2084 C   0  0  0  0  0  0  0  0  0  0  0  0
    1.4762   -0.9339   -2.8151 S   0  0  0  0  0  0  0  0  0  0  0  0
    0.4248    0.2323    0.4601 H   0  0  0  0  0  0  0  0  0  0  0  0
    2.3523    0.2377    0.3290 H   0  0  0  0  0  0  0  0  0  0  0  0
    1.4762    1.1883   -0.9009 H   0  0  0  0  0  0  0  0  0  0  0  0
    1.4762   -1.8884   -0.6785 H   0  0  0  0  0  0  0  0  0  0  0  0
  1  2  3  0
  1  7  1  0
  2  3  1  0
  3  4  1  0
  3  5  1  0
  4  8  1  0
  4  9  1  0
  4 10  1  0
  5  6  3  0
  6 11  1  0
 12 13  1  0
 12 15  1  0
 12 16  1  0
 12 17  1  0
 13 14  2  0
 13 18  1  0
M  RAD  1   3   2
M  END
>  <reaction>  (9) 
rxn_1965

>  <mol_properties>  (9) 
{"1": {"label": "*4", "atom_type": "Ct"}, "2": {"label": "*3", "atom_type": "Cs"}, "11": {"label": "*1", "atom_type": "Cs"}, "12": {"label": "*0", "atom_type": "CS"}, "14": {"label": "*2", "atom_type": "H0"}}

>  <type>  (9) 
unop_5

>  <geom_source>  (9) 
Heuristics

$$$$

     RDKit          3D

 18 16  0  0  0  0  0  0  0  0999 V2000
   -2.5662    1.6029   -0.0778 C   0  0  0  0  0  0  0  0  0  0  0  0
   -1.6981    1.0109    0.4937 C   0  0  0  0  0  0  0  0  0  0  0  0
   -0.6093    0.3163    1.1897 C   0  0  0  0  0  3  0  0  0  0  0  0
    0.3634    1.3156    1.8401 C   0  0  0  0  0  0  0  0  0  0  0  0
   -1.1303   -0.6366    2.1760 C   0  0  0  0  0  0  0  0  0  0  0  0
   -1.5281   -1.4092    2.9980 C   0  0  0  0  0  0  0  0  0  0  0  0
   -3.3380    2.1293   -0.5859 H   0  0  0  0  0  0  0  0  0  0  0  0
    0.7665    1.9866    1.0822 H   0  0  0  0  0  0  0  0  0  0  0  0
   -0.1535    1.9076    2.5942 H   0  0  0  0  0  0  0  0  0  0  0  0
    1.1829    0.7782    2.3161 H   0  0  0  0  0  0  0  0  0  0  0  0
   -1.8818   -2.0961    3.7288 H   0  0  0  0  0  0  0  0  0  0  0  0
    1.4941    0.3809   -0.3834 C   0  0  0  0  0  0  0  0  0  0  0  0
    1.4941   -0.8176   -1.2655 C   0  0  0  0  0  0  0  0  0  0  0  0
    1.4941   -0.8176   -2.8722 S   0  0  0  0  0  0  0  0  0  0  0  0
    0.4427    0.3486    0.4029 H   0  0  0  0  0  0  0  0  0  0  0  0
    2.3703    0.3540    0.2719 H   0  0  0  0  0  0  0  0  0  0  0  0
    1.4941    1.3047   -0.9580 H   0  0  0  0  0  0  0  0  0  0  0  0
    1.4941   -1.7720   -0.7356 H   0  0  0  0  0  0  0  0  0  0  0  0
  1  2  3  0
  1  7  1  0
  2  3  1  0
  3  4  1  0
  3  5  1  0
  4  8  1  0
  4  9  1  0
  4 10  1  0
  5  6  3  0
  6 11  1  0
 12 13  1  0
 12 15  1  0
 12 16  1  0
 12 17  1  0
 13 14  2  0
 13 18  1  0
M  RAD  1   3   2
M  END
>  <reaction>  (10) 
rxn_1965

>  <mol_properties>  (10) 
{"1": {"label": "*4", "atom_type": "Ct"}, "2": {"label": "*3", "atom_type": "Cs"}, "11": {"label": "*1", "atom_type": "Cs"}, "12": {"label": "*0", "atom_type": "CS"}, "14": {"label": "*2", "atom_type": "H0"}}

>  <type>  (10) 
unop_6

>  <geom_source>  (10) 
Heuristics

$$$$

     RDKit          3D

 18 16  0  0  0  0  0  0  0  0999 V2000
   -2.0383    2.4986    0.6650 C   0  0  0  0  0  0  0  0  0  0  0  0
   -1.4204    1.4983    0.8849 C   0  0  0  0  0  0  0  0  0  0  0  0
   -0.6298    0.2937    1.1611 C   0  0  0  0  0  3  0  0  0  0  0  0
    0.5572    0.6067    2.0887 C   0  0  0  0  0  0  0  0  0  0  0  0
   -1.4669   -0.7775    1.7124 C   0  0  0  0  0  0  0  0  0  0  0  0
   -2.1234   -1.6625    2.1780 C   0  0  0  0  0  0  0  0  0  0  0  0
   -2.5877    3.3880    0.4695 H   0  0  0  0  0  0  0  0  0  0  0  0
    1.1848    1.3761    1.6401 H   0  0  0  0  0  0  0  0  0  0  0  0
    0.1977    0.9646    3.0526 H   0  0  0  0  0  0  0  0  0  0  0  0
    1.1507   -0.2932    2.2471 H   0  0  0  0  0  0  0  0  0  0  0  0
   -2.7071   -2.4492    2.5919 H   0  0  0  0  0  0  0  0  0  0  0  0
    1.4736    0.3583   -0.4120 C   0  0  0  0  0  0  0  0  0  0  0  0
    1.4736   -0.8402   -1.2942 C   0  0  0  0  0  0  0  0  0  0  0  0
    1.4736   -0.8402   -2.9008 S   0  0  0  0  0  0  0  0  0  0  0  0
    0.4222    0.3260    0.3743 H   0  0  0  0  0  0  0  0  0  0  0  0
    2.3497    0.3314    0.2432 H   0  0  0  0  0  0  0  0  0  0  0  0
    1.4735    1.2821   -0.9866 H   0  0  0  0  0  0  0  0  0  0  0  0
    1.4736   -1.7946   -0.7642 H   0  0  0  0  0  0  0  0  0  0  0  0
  1  2  3  0
  1  7  1  0
  2  3  1  0
  3  4  1  0
  3  5  1  0
  4  8  1  0
  4  9  1  0
  4 10  1  0
  5  6  3  0
  6 11  1  0
 12 13  1  0
 12 15  1  0
 12 16  1  0
 12 17  1  0
 13 14  2  0
 13 18  1  0
M  RAD  1   3   2
M  END
>  <reaction>  (11) 
rxn_1965

>  <mol_properties>  (11) 
{"1": {"label": "*4", "atom_type": "Ct"}, "2": {"label": "*3", "atom_type": "Cs"}, "11": {"label": "*1", "atom_type": "Cs"}, "12": {"label": "*0", "atom_type": "CS"}, "14": {"label": "*2", "atom_type": "H0"}}

>  <type>  (11) 
unop_7

>  <geom_source>  (11) 
Heuristics

$$$$

     RDKit          3D

 18 16  0  0  0  0  0  0  0  0999 V2000
   -0.2948   -1.1229    3.2543 C   0  0  0  0  0  0  0  0  0  0  0  0
   -0.5841   -0.5204    2.2623 C   0  0  0  0  0  0  0  0  0  0  0  0
   -0.9718    0.1956    1.0419 C   0  0  0  0  0  3  0  0  0  0  0  0
   -2.4944    0.1453    0.8261 C   0  0  0  0  0  0  0  0  0  0  0  0
   -0.4829    1.5788    1.0583 C   0  0  0  0  0  0  0  0  0  0  0  0
   -0.1096    2.7152    1.0529 C   0  0  0  0  0  0  0  0  0  0  0  0
   -0.0375   -1.6585    4.1363 H   0  0  0  0  0  0  0  0  0  0  0  0
   -2.8275   -0.8910    0.7782 H   0  0  0  0  0  0  0  0  0  0  0  0
   -3.0079    0.6417    1.6484 H   0  0  0  0  0  0  0  0  0  0  0  0
   -2.7533    0.6487   -0.1048 H   0  0  0  0  0  0  0  0  0  0  0  0
    0.2222    3.7255    1.0482 H   0  0  0  0  0  0  0  0  0  0  0  0
    1.1316    0.2602   -0.5312 C   0  0  0  0  0  0  0  0  0  0  0  0
    1.1316   -0.9383   -1.4134 C   0  0  0  0  0  0  0  0  0  0  0  0
    1.1316   -0.9383   -3.0200 S   0  0  0  0  0  0  0  0  0  0  0  0
    0.0802    0.2279    0.2551 H   0  0  0  0  0  0  0  0  0  0  0  0
    2.0077    0.2333    0.1240 H   0  0  0  0  0  0  0  0  0  0  0  0
    1.1316    1.1840   -1.1058 H   0  0  0  0  0  0  0  0  0  0  0  0
    1.1316   -1.8927   -0.8834 H   0  0  0  0  0  0  0  0  0  0  0  0
  1  2  3  0
  1  7  1  0
  2  3  1  0
  3  4  1  0
  3  5  1  0
  4  8  1  0
  4  9  1  0
  4 10  1  0
  5  6  3  0
  6 11  1  0
 12 13  1  0
 12 15  1  0
 12 16  1  0
 12 17  1  0
 13 14  2  0
 13 18  1  0
M  RAD  1   3   2
M  END
>  <reaction>  (12) 
rxn_1965

>  <mol_properties>  (12) 
{"1": {"label": "*4", "atom_type": "Ct"}, "2": {"label": "*3", "atom_type": "Cs"}, "11": {"label": "*1", "atom_type": "Cs"}, "12": {"label": "*0", "atom_type": "CS"}, "14": {"label": "*2", "atom_type": "H0"}}

>  <type>  (12) 
unop_8

>  <geom_source>  (12) 
Heuristics

$$$$

     RDKit          3D

 18 16  0  0  0  0  0  0  0  0999 V2000
   -2.5775   -0.7617   -0.1540 C   0  0  0  0  0  0  0  0  0  0  0  0
   -1.7053   -0.2130    0.4534 C   0  0  0  0  0  0  0  0  0  0  0  0
   -0.6402    0.4923    1.1751 C   0  0  0  0  0  3  0  0  0  0  0  0
   -0.8299    2.0172    1.0977 C   0  0  0  0  0  0  0  0  0  0  0  0
   -0.5494    0.0381    2.5671 C   0  0  0  0  0  0  0  0  0  0  0  0
   -0.4641   -0.3028    3.7105 C   0  0  0  0  0  0  0  0  0  0  0  0
   -3.3529   -1.2496   -0.6940 H   0  0  0  0  0  0  0  0  0  0  0  0
   -0.8549    2.3348    0.0558 H   0  0  0  0  0  0  0  0  0  0  0  0
   -1.7656    2.3050    1.5752 H   0  0  0  0  0  0  0  0  0  0  0  0
   -0.0072    2.5189    1.6060 H   0  0  0  0  0  0  0  0  0  0  0  0
   -0.3883   -0.6058    4.7271 H   0  0  0  0  0  0  0  0  0  0  0  0
    1.4631    0.5568   -0.3980 C   0  0  0  0  0  0  0  0  0  0  0  0
    1.4631   -0.6416   -1.2802 C   0  0  0  0  0  0  0  0  0  0  0  0
    1.4631   -0.6416   -2.8869 S   0  0  0  0  0  0  0  0  0  0  0  0
    0.4118    0.5245    0.3883 H   0  0  0  0  0  0  0  0  0  0  0  0
    2.3393    0.5299    0.2572 H   0  0  0  0  0  0  0  0  0  0  0  0
    1.4631    1.4806   -0.9727 H   0  0  0  0  0  0  0  0  0  0  0  0
    1.4631   -1.5961   -0.7503 H   0  0  0  0  0  0  0  0  0  0  0  0
  1  2  3  0
  1  7  1  0
  2  3  1  0
  3  4  1  0
  3  5  1  0
  4  8  1  0
  4  9  1  0
  4 10  1  0
  5  6  3  0
  6 11  1  0
 12 13  1  0
 12 15  1  0
 12 16  1  0
 12 17  1  0
 13 14  2  0
 13 18  1  0
M  RAD  1   3   2
M  END
>  <reaction>  (13) 
rxn_1965

>  <mol_properties>  (13) 
{"1": {"label": "*4", "atom_type": "Ct"}, "2": {"label": "*3", "atom_type": "Cs"}, "11": {"label": "*1", "atom_type": "Cs"}, "12": {"label": "*0", "atom_type": "CS"}, "14": {"label": "*2", "atom_type": "H0"}}

>  <type>  (13) 
unop_9

>  <geom_source>  (13) 
Heuristics

$$$$

     RDKit          3D

 18 16  0  0  0  0  0  0  0  0999 V2000
   -0.8369   -1.8817    2.4393 C   0  0  0  0  0  0  0  0  0  0  0  0
   -0.8804   -0.8731    1.7977 C   0  0  0  0  0  0  0  0  0  0  0  0
   -0.9698    0.3530    0.9971 C   0  0  0  0  0  3  0  0  0  0  0  0
   -2.4353    0.7534    0.7527 C   0  0  0  0  0  0  0  0  0  0  0  0
   -0.2156    1.4488    1.6157 C   0  0  0  0  0  0  0  0  0  0  0  0
    0.3786    2.3636    2.1066 C   0  0  0  0  0  0  0  0  0  0  0  0
   -0.7983   -2.7785    3.0097 H   0  0  0  0  0  0  0  0  0  0  0  0
   -2.9639   -0.0606    0.2577 H   0  0  0  0  0  0  0  0  0  0  0  0
   -2.9295    0.9691    1.6991 H   0  0  0  0  0  0  0  0  0  0  0  0
   -2.4763    1.6425    0.1243 H   0  0  0  0  0  0  0  0  0  0  0  0
    0.9068    3.1769    2.5429 H   0  0  0  0  0  0  0  0  0  0  0  0
    1.1336    0.4176   -0.5760 C   0  0  0  0  0  0  0  0  0  0  0  0
    1.1336   -0.7809   -1.4582 C   0  0  0  0  0  0  0  0  0  0  0  0
    1.1336   -0.7809   -3.0648 S   0  0  0  0  0  0  0  0  0  0  0  0
    0.0822    0.3853    0.2103 H   0  0  0  0  0  0  0  0  0  0  0  0
    2.0097    0.3907    0.0792 H   0  0  0  0  0  0  0  0  0  0  0  0
    1.1335    1.3414   -1.1506 H   0  0  0  0  0  0  0  0  0  0  0  0
    1.1336   -1.7353   -0.9282 H   0  0  0  0  0  0  0  0  0  0  0  0
  1  2  3  0
  1  7  1  0
  2  3  1  0
  3  4  1  0
  3  5  1  0
  4  8  1  0
  4  9  1  0
  4 10  1  0
  5  6  3  0
  6 11  1  0
 12 13  1  0
 12 15  1  0
 12 16  1  0
 12 17  1  0
 13 14  2  0
 13 18  1  0
M  RAD  1   3   2
M  END
>  <reaction>  (14) 
rxn_1965

>  <mol_properties>  (14) 
{"1": {"label": "*4", "atom_type": "Ct"}, "2": {"label": "*3", "atom_type": "Cs"}, "11": {"label": "*1", "atom_type": "Cs"}, "12": {"label": "*0", "atom_type": "CS"}, "14": {"label": "*2", "atom_type": "H0"}}

>  <type>  (14) 
unop_10

>  <geom_source>  (14) 
Heuristics

$$$$

     RDKit          3D

 18 16  0  0  0  0  0  0  0  0999 V2000
   -1.2739    2.8147    1.7134 C   0  0  0  0  0  0  0  0  0  0  0  0
   -0.9970    1.6783    1.4629 C   0  0  0  0  0  0  0  0  0  0  0  0
   -0.6226    0.2893    1.1751 C   0  0  0  0  0  3  0  0  0  0  0  0
    0.3502   -0.2567    2.2348 C   0  0  0  0  0  0  0  0  0  0  0  0
   -1.8077   -0.5665    1.0505 C   0  0  0  0  0  0  0  0  0  0  0  0
   -2.7561   -1.2897    0.9593 C   0  0  0  0  0  0  0  0  0  0  0  0
   -1.5201    3.8250    1.9362 H   0  0  0  0  0  0  0  0  0  0  0  0
    1.2386    0.3724    2.2811 H   0  0  0  0  0  0  0  0  0  0  0  0
   -0.1259   -0.2648    3.2144 H   0  0  0  0  0  0  0  0  0  0  0  0
    0.6440   -1.2741    1.9786 H   0  0  0  0  0  0  0  0  0  0  0  0
   -3.5994   -1.9326    0.8783 H   0  0  0  0  0  0  0  0  0  0  0  0
    1.4808    0.3539   -0.3980 C   0  0  0  0  0  0  0  0  0  0  0  0
    1.4808   -0.8446   -1.2802 C   0  0  0  0  0  0  0  0  0  0  0  0
    1.4808   -0.8446   -2.8868 S   0  0  0  0  0  0  0  0  0  0  0  0
    0.4294    0.3216    0.3883 H   0  0  0  0  0  0  0  0  0  0  0  0
    2.3569    0.3270    0.2572 H   0  0  0  0  0  0  0  0  0  0  0  0
    1.4808    1.2777   -0.9727 H   0  0  0  0  0  0  0  0  0  0  0  0
    1.4808   -1.7990   -0.7502 H   0  0  0  0  0  0  0  0  0  0  0  0
  1  2  3  0
  1  7  1  0
  2  3  1  0
  3  4  1  0
  3  5  1  0
  4  8  1  0
  4  9  1  0
  4 10  1  0
  5  6  3  0
  6 11  1  0
 12 13  1  0
 12 15  1  0
 12 16  1  0
 12 17  1  0
 13 14  2  0
 13 18  1  0
M  RAD  1   3   2
M  END
>  <reaction>  (15) 
rxn_1965

>  <mol_properties>  (15) 
{"1": {"label": "*4", "atom_type": "Ct"}, "2": {"label": "*3", "atom_type": "Cs"}, "11": {"label": "*1", "atom_type": "Cs"}, "12": {"label": "*0", "atom_type": "CS"}, "14": {"label": "*2", "atom_type": "H0"}}

>  <type>  (15) 
unop_11

>  <geom_source>  (15) 
Heuristics

$$$$

     RDKit          3D

 18 16  0  0  0  0  0  0  0  0999 V2000
   -2.1297   -1.6517    0.4910 C   0  0  0  0  0  0  0  0  0  0  0  0
   -1.5010   -0.6742    0.7739 C   0  0  0  0  0  0  0  0  0  0  0  0
   -0.7517    0.5457    1.0945 C   0  0  0  0  0  3  0  0  0  0  0  0
   -1.5933    1.8046    0.8217 C   0  0  0  0  0  0  0  0  0  0  0  0
   -0.2635    0.5224    2.4778 C   0  0  0  0  0  0  0  0  0  0  0  0
    0.1330    0.5361    3.6063 C   0  0  0  0  0  0  0  0  0  0  0  0
   -2.6885   -2.5208    0.2394 H   0  0  0  0  0  0  0  0  0  0  0  0
   -1.9108    1.8189   -0.2204 H   0  0  0  0  0  0  0  0  0  0  0  0
   -2.4770    1.8120    1.4584 H   0  0  0  0  0  0  0  0  0  0  0  0
   -1.0032    2.6966    1.0293 H   0  0  0  0  0  0  0  0  0  0  0  0
    0.4856    0.5482    4.6095 H   0  0  0  0  0  0  0  0  0  0  0  0
    1.3517    0.6102   -0.4785 C   0  0  0  0  0  0  0  0  0  0  0  0
    1.3517   -0.5882   -1.3607 C   0  0  0  0  0  0  0  0  0  0  0  0
    1.3517   -0.5882   -2.9674 S   0  0  0  0  0  0  0  0  0  0  0  0
    0.3003    0.5780    0.3078 H   0  0  0  0  0  0  0  0  0  0  0  0
    2.2278    0.5833    0.1767 H   0  0  0  0  0  0  0  0  0  0  0  0
    1.3516    1.5340   -1.0532 H   0  0  0  0  0  0  0  0  0  0  0  0
    1.3517   -1.5427   -0.8308 H   0  0  0  0  0  0  0  0  0  0  0  0
  1  2  3  0
  1  7  1  0
  2  3  1  0
  3  4  1  0
  3  5  1  0
  4  8  1  0
  4  9  1  0
  4 10  1  0
  5  6  3  0
  6 11  1  0
 12 13  1  0
 12 15  1  0
 12 16  1  0
 12 17  1  0
 13 14  2  0
 13 18  1  0
M  RAD  1   3   2
M  END
>  <reaction>  (16) 
rxn_1965

>  <mol_properties>  (16) 
{"1": {"label": "*4", "atom_type": "Ct"}, "2": {"label": "*3", "atom_type": "Cs"}, "11": {"label": "*1", "atom_type": "Cs"}, "12": {"label": "*0", "atom_type": "CS"}, "14": {"label": "*2", "atom_type": "H0"}}

>  <type>  (16) 
unop_12

>  <geom_source>  (16) 
Heuristics

$$$$

     RDKit          3D

 18 16  0  0  0  0  0  0  0  0999 V2000
    2.5033   -1.5433    0.9429 S   0  0  0  0  0  0  0  0  0  0  0  0
   -0.7138    0.0783    0.1015 C   0  0  0  0  0  3  0  0  0  0  0  0
   -1.3146   -0.4253   -1.2088 C   0  0  0  0  0  0  0  0  0  0  0  0
    1.7335    0.1676   -0.7551 C   0  0  0  0  0  0  0  0  0  0  0  0
    2.8115   -0.4507    0.0677 C   0  0  0  0  0  0  0  0  0  0  0  0
   -1.2123    1.4245    0.4088 C   0  0  0  0  0  0  0  0  0  0  0  0
   -1.0547   -0.8302    1.2032 C   0  0  0  0  0  0  0  0  0  0  0  0
   -1.6202    2.5311    0.6603 C   0  0  0  0  0  0  0  0  0  0  0  0
   -1.3331   -1.5774    2.1077 C   0  0  0  0  0  0  0  0  0  0  0  0
    0.6415    0.1294   -0.0222 H   0  0  0  0  0  0  0  0  0  0  0  0
   -1.0362    0.2567   -2.0405 H   0  0  0  0  0  0  0  0  0  0  0  0
   -2.4235   -0.4795   -1.1425 H   0  0  0  0  0  0  0  0  0  0  0  0
   -0.9179   -1.4361   -1.4442 H   0  0  0  0  0  0  0  0  0  0  0  0
    3.8482   -0.1942   -0.1237 H   0  0  0  0  0  0  0  0  0  0  0  0
    1.8356    1.2725   -0.7352 H   0  0  0  0  0  0  0  0  0  0  0  0
    1.8088   -0.1922   -1.8025 H   0  0  0  0  0  0  0  0  0  0  0  0
   -1.9784    3.5021    0.8810 H   0  0  0  0  0  0  0  0  0  0  0  0
   -1.5776   -2.2332    2.9015 H   0  0  0  0  0  0  0  0  0  0  0  0
  1  5  2  0
  2  3  1  0
  2  6  1  0
  2  7  1  0
  3 11  1  0
  3 12  1  0
  3 13  1  0
  4  5  1  0
  4 10  1  0
  4 15  1  0
  4 16  1  0
  5 14  1  0
  6  8  3  0
  7  9  3  0
  8 17  1  0
  9 18  1  0
M  RAD  1   2   2
M  END
>  <reaction>  (17) 
rxn_1965

>  <mol_properties>  (17) 
{"1": {"label": "*4", "atom_type": "Ct"}, "2": {"label": "*3", "atom_type": "Cs"}, "11": {"label": "*1", "atom_type": "Cs"}, "12": {"label": "*0", "atom_type": "CS"}, "14": {"label": "*2", "atom_type": "H0"}}

>  <type>  (17) 
unop_13

>  <geom_source>  (17) 
AutoTST

$$$$
