
     RDKit          3D

 11 10  0  0  0  0  0  0  0  0999 V2000
   -1.2710    0.1907   -0.2084 C   0  0  0  0  0  0  0  0  0  0  0  0
    0.0202   -0.6130   -0.2928 C   0  0  0  0  0  0  0  0  0  0  0  0
    0.1086   -1.6953    0.7756 C   0  0  0  0  0  0  0  0  0  0  0  0
   -1.3607    0.6851    0.7620 H   0  0  0  0  0  0  0  0  0  0  0  0
   -2.1429   -0.4567   -0.3299 H   0  0  0  0  0  0  0  0  0  0  0  0
   -1.3158    0.9602   -0.9809 H   0  0  0  0  0  0  0  0  0  0  0  0
    0.8757    0.0616   -0.1992 H   0  0  0  0  0  0  0  0  0  0  0  0
    0.0997   -1.0712   -1.2825 H   0  0  0  0  0  0  0  0  0  0  0  0
   -0.7198   -2.4022    0.6850 H   0  0  0  0  0  0  0  0  0  0  0  0
    1.0395   -2.2596    0.6989 H   0  0  0  0  0  0  0  0  0  0  0  0
    0.0624   -1.2603    1.7770 H   0  0  0  0  0  0  0  0  0  0  0  0
  1  2  1  0
  1  4  1  0
  1  5  1  0
  1  6  1  0
  2  3  1  0
  2  7  1  0
  2  8  1  0
  3  9  1  0
  3 10  1  0
  3 11  1  0
M  END
>  <reaction>  (1) 
rxn_930

>  <mol_properties>  (1) 
{"1": {"label": "donator", "atom_type": "Cs"}, "6": {"label": "d_hydrogen", "atom_type": "H0"}}

>  <type>  (1) 
r1h

$$$$

     RDKit          3D

  5  4  0  0  0  0  0  0  0  0999 V2000
   -0.5642    0.0794    0.0348 C   0  0  0  0  0  3  0  0  0  0  0  0
    1.0624    0.5420    0.2853 S   0  0  0  0  0  0  0  0  0  0  0  0
   -1.3257    0.7631    0.3741 H   0  0  0  0  0  0  0  0  0  0  0  0
   -0.8236   -0.8519   -0.4401 H   0  0  0  0  0  0  0  0  0  0  0  0
    1.6511   -0.5325   -0.2540 H   0  0  0  0  0  0  0  0  0  0  0  0
  1  2  1  0
  1  3  1  0
  1  4  1  0
  2  5  1  0
M  RAD  1   1   2
M  END
>  <reaction>  (2) 
rxn_930

>  <mol_properties>  (2) 
{"0": {"label": "acceptor", "atom_type": "Cs"}}

>  <type>  (2) 
r2

$$$$

     RDKit          3D

  6  5  0  0  0  0  0  0  0  0999 V2000
   -0.5072   -0.0291   -0.0097 C   0  0  0  0  0  0  0  0  0  0  0  0
    1.1321   -0.1527   -0.7687 S   0  0  0  0  0  0  0  0  0  0  0  0
   -0.6174   -0.7330    0.8127 H   0  0  0  0  0  0  0  0  0  0  0  0
   -0.5863    0.9827    0.3845 H   0  0  0  0  0  0  0  0  0  0  0  0
   -1.2962   -0.1800   -0.7434 H   0  0  0  0  0  0  0  0  0  0  0  0
    1.0312   -1.4237   -1.1764 H   0  0  0  0  0  0  0  0  0  0  0  0
  1  2  1  0
  1  3  1  0
  1  4  1  0
  1  5  1  0
  2  6  1  0
M  END
>  <reaction>  (3) 
rxn_930

>  <mol_properties>  (3) 
{"0": {"label": "acceptor", "atom_type": "Cs"}, "5": {"label": "a_hydrogen", "atom_type": "H0"}}

>  <type>  (3) 
r2h

$$$$

     RDKit          3D

 16 14  0  0  0  0  0  0  0  0999 V2000
    0.4849   -0.7703    1.0948 C   0  0  0  0  0  3  0  0  0  0  0  0
    1.8725   -0.3829    0.0594 S   0  0  0  0  0  0  0  0  0  0  0  0
    0.6852   -0.4254    2.1064 H   0  0  0  0  0  0  0  0  0  0  0  0
    0.1855   -1.8151    1.0715 H   0  0  0  0  0  0  0  0  0  0  0  0
    1.4199   -0.9640   -1.0591 H   0  0  0  0  0  0  0  0  0  0  0  0
   -1.6609    0.4213   -1.2234 C   0  0  0  0  0  0  0  0  0  0  0  0
   -1.5848    0.7223    0.2498 C   0  0  0  0  0  0  0  0  0  0  0  0
   -1.1585    2.1195    0.6135 C   0  0  0  0  0  0  0  0  0  0  0  0
   -0.7135    0.6583   -1.7150 H   0  0  0  0  0  0  0  0  0  0  0  0
   -2.4384    1.0188   -1.7128 H   0  0  0  0  0  0  0  0  0  0  0  0
   -1.8886   -0.6302   -1.4091 H   0  0  0  0  0  0  0  0  0  0  0  0
   -0.5944   -0.0607    0.7064 H   0  0  0  0  0  0  0  0  0  0  0  0
   -2.4533    0.3713    0.8087 H   0  0  0  0  0  0  0  0  0  0  0  0
   -1.8683    2.8641    0.2355 H   0  0  0  0  0  0  0  0  0  0  0  0
   -1.0878    2.2497    1.6947 H   0  0  0  0  0  0  0  0  0  0  0  0
   -0.1815    2.3489    0.1799 H   0  0  0  0  0  0  0  0  0  0  0  0
  1  2  1  0
  1  3  1  0
  1  4  1  0
  2  5  1  0
  6  7  1  0
  6  9  1  0
  6 10  1  0
  6 11  1  0
  7  8  1  0
  7 12  1  0
  7 13  1  0
  8 14  1  0
  8 15  1  0
  8 16  1  0
M  RAD  1   1   2
M  END
>  <reaction>  (4) 
rxn_930

>  <mol_properties>  (4) 
{"0": {"label": "*3", "atom_type": "Cs"}, "1": {"label": "*4", "atom_type": "S2s"}, "5": {"label": "*0", "atom_type": "Cs"}, "6": {"label": "*1", "atom_type": "Cs"}, "11": {"label": "*2", "atom_type": "H0"}}

>  <type>  (4) 
ts

$$$$

     RDKit          3D

 16 14  0  0  0  0  0  0  0  0999 V2000
    0.6191   -1.2363    0.2149 C   0  0  0  0  0  0  0  0  0  0  0  0
    1.6825   -0.1789    1.2295 S   0  0  0  0  0  0  0  0  0  0  0  0
   -0.2154   -1.5300    0.8496 H   0  0  0  0  0  0  0  0  0  0  0  0
    1.1438   -2.1331   -0.1079 H   0  0  0  0  0  0  0  0  0  0  0  0
    2.6126    0.0645    0.2981 H   0  0  0  0  0  0  0  0  0  0  0  0
   -1.4744    0.0716   -2.1798 C   0  0  0  0  0  0  0  0  0  0  0  0
   -1.4744    0.0716   -0.6565 C   0  0  0  0  0  3  0  0  0  0  0  0
   -1.4744    1.4774   -0.0698 C   0  0  0  0  0  0  0  0  0  0  0  0
   -0.5930    0.5859   -2.5705 H   0  0  0  0  0  0  0  0  0  0  0  0
   -2.3559    0.5859   -2.5705 H   0  0  0  0  0  0  0  0  0  0  0  0
   -1.4744   -0.9433   -2.5810 H   0  0  0  0  0  0  0  0  0  0  0  0
   -0.4250   -0.5840   -0.2197 H   0  0  0  0  0  0  0  0  0  0  0  0
   -2.3490   -0.4748   -0.2925 H   0  0  0  0  0  0  0  0  0  0  0  0
   -2.3559    2.0360   -0.3939 H   0  0  0  0  0  0  0  0  0  0  0  0
   -1.4744    1.4567    1.0213 H   0  0  0  0  0  0  0  0  0  0  0  0
   -0.5930    2.0360   -0.3939 H   0  0  0  0  0  0  0  0  0  0  0  0
  1  2  1  0
  1  3  1  0
  1  4  1  0
  1 12  1  0
  2  5  1  0
  6  7  1  0
  6  9  1  0
  6 10  1  0
  6 11  1  0
  7  8  1  0
  7 13  1  0
  8 14  1  0
  8 15  1  0
  8 16  1  0
M  RAD  1   7   2
M  END
>  <reaction>  (5) 
rxn_930

>  <mol_properties>  (5) 
{"0": {"label": "*3", "atom_type": "Cs"}, "1": {"label": "*4", "atom_type": "S2s"}, "5": {"label": "*0", "atom_type": "Cs"}, "6": {"label": "*1", "atom_type": "Cs"}, "11": {"label": "*2", "atom_type": "H0"}}

>  <type>  (5) 
unop_1

>  <geom_source>  (5) 
Heuristics

$$$$

     RDKit          3D

 16 14  0  0  0  0  0  0  0  0999 V2000
    0.5121   -0.8968    0.9906 C   0  0  0  0  0  0  0  0  0  0  0  0
    1.8987   -0.7690   -0.1667 S   0  0  0  0  0  0  0  0  0  0  0  0
    0.7074   -0.1760    1.7829 H   0  0  0  0  0  0  0  0  0  0  0  0
    0.4528   -1.8903    1.4302 H   0  0  0  0  0  0  0  0  0  0  0  0
    1.4799   -1.7009   -1.0316 H   0  0  0  0  0  0  0  0  0  0  0  0
   -1.5815    0.4111   -1.4041 C   0  0  0  0  0  0  0  0  0  0  0  0
   -1.5815    0.4111    0.1192 C   0  0  0  0  0  3  0  0  0  0  0  0
   -1.5815    1.8170    0.7059 C   0  0  0  0  0  0  0  0  0  0  0  0
   -0.7001    0.9254   -1.7947 H   0  0  0  0  0  0  0  0  0  0  0  0
   -2.4630    0.9254   -1.7947 H   0  0  0  0  0  0  0  0  0  0  0  0
   -1.5815   -0.6038   -1.8053 H   0  0  0  0  0  0  0  0  0  0  0  0
   -0.5321   -0.2445    0.5560 H   0  0  0  0  0  0  0  0  0  0  0  0
   -2.4561   -0.1352    0.4832 H   0  0  0  0  0  0  0  0  0  0  0  0
   -2.4630    2.3755    0.3818 H   0  0  0  0  0  0  0  0  0  0  0  0
   -1.5815    1.7963    1.7970 H   0  0  0  0  0  0  0  0  0  0  0  0
   -0.7001    2.3755    0.3818 H   0  0  0  0  0  0  0  0  0  0  0  0
  1  2  1  0
  1  3  1  0
  1  4  1  0
  1 12  1  0
  2  5  1  0
  6  7  1  0
  6  9  1  0
  6 10  1  0
  6 11  1  0
  7  8  1  0
  7 13  1  0
  8 14  1  0
  8 15  1  0
  8 16  1  0
M  RAD  1   7   2
M  END
>  <reaction>  (6) 
rxn_930

>  <mol_properties>  (6) 
{"0": {"label": "*3", "atom_type": "Cs"}, "1": {"label": "*4", "atom_type": "S2s"}, "5": {"label": "*0", "atom_type": "Cs"}, "6": {"label": "*1", "atom_type": "Cs"}, "11": {"label": "*2", "atom_type": "H0"}}

>  <type>  (6) 
unop_2

>  <geom_source>  (6) 
Heuristics

$$$$

     RDKit          3D

 16 14  0  0  0  0  0  0  0  0999 V2000
    0.7970   -1.0932    0.0063 C   0  0  0  0  0  0  0  0  0  0  0  0
    1.3592   -0.4503    1.6029 S   0  0  0  0  0  0  0  0  0  0  0  0
    0.0641   -1.8669    0.2289 H   0  0  0  0  0  0  0  0  0  0  0  0
    1.6169   -1.5402   -0.5520 H   0  0  0  0  0  0  0  0  0  0  0  0
    2.2218    0.4542    1.1237 H   0  0  0  0  0  0  0  0  0  0  0  0
   -1.2965    0.2148   -2.3885 C   0  0  0  0  0  0  0  0  0  0  0  0
   -1.2965    0.2148   -0.8651 C   0  0  0  0  0  3  0  0  0  0  0  0
   -1.2965    1.6206   -0.2784 C   0  0  0  0  0  0  0  0  0  0  0  0
   -0.4151    0.7290   -2.7791 H   0  0  0  0  0  0  0  0  0  0  0  0
   -2.1780    0.7290   -2.7791 H   0  0  0  0  0  0  0  0  0  0  0  0
   -1.2965   -0.8001   -2.7896 H   0  0  0  0  0  0  0  0  0  0  0  0
   -0.2471   -0.4409   -0.4283 H   0  0  0  0  0  0  0  0  0  0  0  0
   -2.1711   -0.3316   -0.5011 H   0  0  0  0  0  0  0  0  0  0  0  0
   -2.1780    2.1791   -0.6026 H   0  0  0  0  0  0  0  0  0  0  0  0
   -1.2966    1.5999    0.8127 H   0  0  0  0  0  0  0  0  0  0  0  0
   -0.4151    2.1791   -0.6025 H   0  0  0  0  0  0  0  0  0  0  0  0
  1  2  1  0
  1  3  1  0
  1  4  1  0
  1 12  1  0
  2  5  1  0
  6  7  1  0
  6  9  1  0
  6 10  1  0
  6 11  1  0
  7  8  1  0
  7 13  1  0
  8 14  1  0
  8 15  1  0
  8 16  1  0
M  RAD  1   7   2
M  END
>  <reaction>  (7) 
rxn_930

>  <mol_properties>  (7) 
{"0": {"label": "*3", "atom_type": "Cs"}, "1": {"label": "*4", "atom_type": "S2s"}, "5": {"label": "*0", "atom_type": "Cs"}, "6": {"label": "*1", "atom_type": "Cs"}, "11": {"label": "*2", "atom_type": "H0"}}

>  <type>  (7) 
unop_3

>  <geom_source>  (7) 
Heuristics

$$$$

     RDKit          3D

 16 14  0  0  0  0  0  0  0  0999 V2000
    1.0226   -0.2446    0.7727 C   0  0  0  0  0  0  0  0  0  0  0  0
    1.0146   -1.9614    0.1974 S   0  0  0  0  0  0  0  0  0  0  0  0
    2.0687    0.0375    0.8793 H   0  0  0  0  0  0  0  0  0  0  0  0
    0.5355   -0.1486    1.7409 H   0  0  0  0  0  0  0  0  0  0  0  0
   -0.3143   -2.1090    0.1326 H   0  0  0  0  0  0  0  0  0  0  0  0
   -1.0710    1.0633   -1.6220 C   0  0  0  0  0  0  0  0  0  0  0  0
   -1.0710    1.0633   -0.0987 C   0  0  0  0  0  3  0  0  0  0  0  0
   -1.0710    2.4692    0.4880 C   0  0  0  0  0  0  0  0  0  0  0  0
   -0.1896    1.5776   -2.0126 H   0  0  0  0  0  0  0  0  0  0  0  0
   -1.9525    1.5776   -2.0126 H   0  0  0  0  0  0  0  0  0  0  0  0
   -1.0710    0.0484   -2.0232 H   0  0  0  0  0  0  0  0  0  0  0  0
   -0.0216    0.4077    0.3381 H   0  0  0  0  0  0  0  0  0  0  0  0
   -1.9456    0.5170    0.2653 H   0  0  0  0  0  0  0  0  0  0  0  0
   -1.9525    3.0277    0.1639 H   0  0  0  0  0  0  0  0  0  0  0  0
   -1.0710    2.4485    1.5791 H   0  0  0  0  0  0  0  0  0  0  0  0
   -0.1896    3.0277    0.1639 H   0  0  0  0  0  0  0  0  0  0  0  0
  1  2  1  0
  1  3  1  0
  1  4  1  0
  1 12  1  0
  2  5  1  0
  6  7  1  0
  6  9  1  0
  6 10  1  0
  6 11  1  0
  7  8  1  0
  7 13  1  0
  8 14  1  0
  8 15  1  0
  8 16  1  0
M  RAD  1   7   2
M  END
>  <reaction>  (8) 
rxn_930

>  <mol_properties>  (8) 
{"0": {"label": "*3", "atom_type": "Cs"}, "1": {"label": "*4", "atom_type": "S2s"}, "5": {"label": "*0", "atom_type": "Cs"}, "6": {"label": "*1", "atom_type": "Cs"}, "11": {"label": "*2", "atom_type": "H0"}}

>  <type>  (8) 
unop_4

>  <geom_source>  (8) 
Heuristics

$$$$

     RDKit          3D

 16 14  0  0  0  0  0  0  0  0999 V2000
    0.9822   -0.8600   -0.0738 C   0  0  0  0  0  0  0  0  0  0  0  0
    1.0339   -0.8923    1.7358 S   0  0  0  0  0  0  0  0  0  0  0  0
    0.9045   -1.8971   -0.3962 H   0  0  0  0  0  0  0  0  0  0  0  0
    1.8929   -0.4334   -0.4889 H   0  0  0  0  0  0  0  0  0  0  0  0
    1.1263    0.4299    1.9232 H   0  0  0  0  0  0  0  0  0  0  0  0
   -1.1114    0.4479   -2.4685 C   0  0  0  0  0  0  0  0  0  0  0  0
   -1.1114    0.4479   -0.9452 C   0  0  0  0  0  3  0  0  0  0  0  0
   -1.1114    1.8537   -0.3585 C   0  0  0  0  0  0  0  0  0  0  0  0
   -0.2299    0.9622   -2.8592 H   0  0  0  0  0  0  0  0  0  0  0  0
   -1.9929    0.9622   -2.8592 H   0  0  0  0  0  0  0  0  0  0  0  0
   -1.1114   -0.5670   -2.8697 H   0  0  0  0  0  0  0  0  0  0  0  0
   -0.0620   -0.2077   -0.5084 H   0  0  0  0  0  0  0  0  0  0  0  0
   -1.9859   -0.0984   -0.5812 H   0  0  0  0  0  0  0  0  0  0  0  0
   -1.9929    2.4123   -0.6826 H   0  0  0  0  0  0  0  0  0  0  0  0
   -1.1114    1.8330    0.7326 H   0  0  0  0  0  0  0  0  0  0  0  0
   -0.2299    2.4123   -0.6826 H   0  0  0  0  0  0  0  0  0  0  0  0
  1  2  1  0
  1  3  1  0
  1  4  1  0
  1 12  1  0
  2  5  1  0
  6  7  1  0
  6  9  1  0
  6 10  1  0
  6 11  1  0
  7  8  1  0
  7 13  1  0
  8 14  1  0
  8 15  1  0
  8 16  1  0
M  RAD  1   7   2
M  END
>  <reaction>  (9) 
rxn_930

>  <mol_properties>  (9) 
{"0": {"label": "*3", "atom_type": "Cs"}, "1": {"label": "*4", "atom_type": "S2s"}, "5": {"label": "*0", "atom_type": "Cs"}, "6": {"label": "*1", "atom_type": "Cs"}, "11": {"label": "*2", "atom_type": "H0"}}

>  <type>  (9) 
unop_5

>  <geom_source>  (9) 
Heuristics

$$$$

     RDKit          3D

 16 14  0  0  0  0  0  0  0  0999 V2000
    1.1497   -0.2351    0.4863 C   0  0  0  0  0  0  0  0  0  0  0  0
    0.7840   -1.9947    0.7059 S   0  0  0  0  0  0  0  0  0  0  0  0
    2.2300   -0.1588    0.3743 H   0  0  0  0  0  0  0  0  0  0  0  0
    0.8478    0.3442    1.3564 H   0  0  0  0  0  0  0  0  0  0  0  0
   -0.5443   -1.8755    0.8214 H   0  0  0  0  0  0  0  0  0  0  0  0
   -0.9439    1.0729   -1.9084 C   0  0  0  0  0  0  0  0  0  0  0  0
   -0.9439    1.0729   -0.3851 C   0  0  0  0  0  3  0  0  0  0  0  0
   -0.9439    2.4787    0.2016 C   0  0  0  0  0  0  0  0  0  0  0  0
   -0.0625    1.5871   -2.2991 H   0  0  0  0  0  0  0  0  0  0  0  0
   -1.8254    1.5871   -2.2991 H   0  0  0  0  0  0  0  0  0  0  0  0
   -0.9439    0.0580   -2.3096 H   0  0  0  0  0  0  0  0  0  0  0  0
    0.1055    0.4172    0.0517 H   0  0  0  0  0  0  0  0  0  0  0  0
   -1.8184    0.5265   -0.0211 H   0  0  0  0  0  0  0  0  0  0  0  0
   -1.8254    3.0372   -0.1225 H   0  0  0  0  0  0  0  0  0  0  0  0
   -0.9439    2.4580    1.2927 H   0  0  0  0  0  0  0  0  0  0  0  0
   -0.0625    3.0372   -0.1225 H   0  0  0  0  0  0  0  0  0  0  0  0
  1  2  1  0
  1  3  1  0
  1  4  1  0
  1 12  1  0
  2  5  1  0
  6  7  1  0
  6  9  1  0
  6 10  1  0
  6 11  1  0
  7  8  1  0
  7 13  1  0
  8 14  1  0
  8 15  1  0
  8 16  1  0
M  RAD  1   7   2
M  END
>  <reaction>  (10) 
rxn_930

>  <mol_properties>  (10) 
{"0": {"label": "*3", "atom_type": "Cs"}, "1": {"label": "*4", "atom_type": "S2s"}, "5": {"label": "*0", "atom_type": "Cs"}, "6": {"label": "*1", "atom_type": "Cs"}, "11": {"label": "*2", "atom_type": "H0"}}

>  <type>  (10) 
unop_6

>  <geom_source>  (10) 
Heuristics

$$$$

     RDKit          3D

 16 14  0  0  0  0  0  0  0  0999 V2000
    1.1886   -0.3624    0.2019 C   0  0  0  0  0  0  0  0  0  0  0  0
    0.7046   -1.7818    1.2165 S   0  0  0  0  0  0  0  0  0  0  0  0
    2.1970   -0.5695   -0.1527 H   0  0  0  0  0  0  0  0  0  0  0  0
    1.2063    0.5551    0.7863 H   0  0  0  0  0  0  0  0  0  0  0  0
   -0.5177   -1.3443    1.5425 H   0  0  0  0  0  0  0  0  0  0  0  0
   -0.9050    0.9455   -2.1928 C   0  0  0  0  0  0  0  0  0  0  0  0
   -0.9050    0.9455   -0.6695 C   0  0  0  0  0  3  0  0  0  0  0  0
   -0.9050    2.3513   -0.0828 C   0  0  0  0  0  0  0  0  0  0  0  0
   -0.0235    1.4597   -2.5835 H   0  0  0  0  0  0  0  0  0  0  0  0
   -1.7864    1.4597   -2.5835 H   0  0  0  0  0  0  0  0  0  0  0  0
   -0.9050   -0.0694   -2.5940 H   0  0  0  0  0  0  0  0  0  0  0  0
    0.1445    0.2899   -0.2327 H   0  0  0  0  0  0  0  0  0  0  0  0
   -1.7795    0.3991   -0.3055 H   0  0  0  0  0  0  0  0  0  0  0  0
   -1.7864    2.9099   -0.4069 H   0  0  0  0  0  0  0  0  0  0  0  0
   -0.9050    2.3306    1.0083 H   0  0  0  0  0  0  0  0  0  0  0  0
   -0.0235    2.9099   -0.4069 H   0  0  0  0  0  0  0  0  0  0  0  0
  1  2  1  0
  1  3  1  0
  1  4  1  0
  1 12  1  0
  2  5  1  0
  6  7  1  0
  6  9  1  0
  6 10  1  0
  6 11  1  0
  7  8  1  0
  7 13  1  0
  8 14  1  0
  8 15  1  0
  8 16  1  0
M  RAD  1   7   2
M  END
>  <reaction>  (11) 
rxn_930

>  <mol_properties>  (11) 
{"0": {"label": "*3", "atom_type": "Cs"}, "1": {"label": "*4", "atom_type": "S2s"}, "5": {"label": "*0", "atom_type": "Cs"}, "6": {"label": "*1", "atom_type": "Cs"}, "11": {"label": "*2", "atom_type": "H0"}}

>  <type>  (11) 
unop_7

>  <geom_source>  (11) 
Heuristics

$$$$

     RDKit          3D

 16 14  0  0  0  0  0  0  0  0999 V2000
    0.4931   -1.2489    0.4992 C   0  0  0  0  0  0  0  0  0  0  0  0
    1.9141   -0.1485    0.7188 S   0  0  0  0  0  0  0  0  0  0  0  0
   -0.1485   -1.0967    1.3656 H   0  0  0  0  0  0  0  0  0  0  0  0
    0.8001   -2.2923    0.4719 H   0  0  0  0  0  0  0  0  0  0  0  0
    2.5550   -0.4772   -0.4095 H   0  0  0  0  0  0  0  0  0  0  0  0
   -1.6005    0.0591   -1.8956 C   0  0  0  0  0  0  0  0  0  0  0  0
   -1.6005    0.0591   -0.3722 C   0  0  0  0  0  3  0  0  0  0  0  0
   -1.6005    1.4649    0.2145 C   0  0  0  0  0  0  0  0  0  0  0  0
   -0.7191    0.5733   -2.2862 H   0  0  0  0  0  0  0  0  0  0  0  0
   -2.4820    0.5733   -2.2862 H   0  0  0  0  0  0  0  0  0  0  0  0
   -1.6005   -0.9558   -2.2967 H   0  0  0  0  0  0  0  0  0  0  0  0
   -0.5511   -0.5965    0.0646 H   0  0  0  0  0  0  0  0  0  0  0  0
   -2.4751   -0.4873   -0.0082 H   0  0  0  0  0  0  0  0  0  0  0  0
   -2.4820    2.0235   -0.1097 H   0  0  0  0  0  0  0  0  0  0  0  0
   -1.6005    1.4442    1.3056 H   0  0  0  0  0  0  0  0  0  0  0  0
   -0.7191    2.0235   -0.1097 H   0  0  0  0  0  0  0  0  0  0  0  0
  1  2  1  0
  1  3  1  0
  1  4  1  0
  1 12  1  0
  2  5  1  0
  6  7  1  0
  6  9  1  0
  6 10  1  0
  6 11  1  0
  7  8  1  0
  7 13  1  0
  8 14  1  0
  8 15  1  0
  8 16  1  0
M  RAD  1   7   2
M  END
>  <reaction>  (12) 
rxn_930

>  <mol_properties>  (12) 
{"0": {"label": "*3", "atom_type": "Cs"}, "1": {"label": "*4", "atom_type": "S2s"}, "5": {"label": "*0", "atom_type": "Cs"}, "6": {"label": "*1", "atom_type": "Cs"}, "11": {"label": "*2", "atom_type": "H0"}}

>  <type>  (12) 
unop_8

>  <geom_source>  (12) 
Heuristics

$$$$

     RDKit          3D

 16 14  0  0  0  0  0  0  0  0999 V2000
    0.8414   -0.3879    0.9843 C   0  0  0  0  0  0  0  0  0  0  0  0
    1.3346   -1.6901   -0.1730 S   0  0  0  0  0  0  0  0  0  0  0  0
    1.7594    0.1060    1.2986 H   0  0  0  0  0  0  0  0  0  0  0  0
    0.3508   -0.8028    1.8624 H   0  0  0  0  0  0  0  0  0  0  0  0
    0.1070   -2.1578   -0.4302 H   0  0  0  0  0  0  0  0  0  0  0  0
   -1.2522    0.9200   -1.4104 C   0  0  0  0  0  0  0  0  0  0  0  0
   -1.2522    0.9200    0.1129 C   0  0  0  0  0  3  0  0  0  0  0  0
   -1.2522    2.3259    0.6997 C   0  0  0  0  0  0  0  0  0  0  0  0
   -0.3708    1.4343   -1.8010 H   0  0  0  0  0  0  0  0  0  0  0  0
   -2.1337    1.4343   -1.8010 H   0  0  0  0  0  0  0  0  0  0  0  0
   -1.2522   -0.0949   -1.8116 H   0  0  0  0  0  0  0  0  0  0  0  0
   -0.2028    0.2644    0.5497 H   0  0  0  0  0  0  0  0  0  0  0  0
   -2.1268    0.3737    0.4769 H   0  0  0  0  0  0  0  0  0  0  0  0
   -2.1337    2.8844    0.3755 H   0  0  0  0  0  0  0  0  0  0  0  0
   -1.2522    2.3052    1.7908 H   0  0  0  0  0  0  0  0  0  0  0  0
   -0.3708    2.8844    0.3755 H   0  0  0  0  0  0  0  0  0  0  0  0
  1  2  1  0
  1  3  1  0
  1  4  1  0
  1 12  1  0
  2  5  1  0
  6  7  1  0
  6  9  1  0
  6 10  1  0
  6 11  1  0
  7  8  1  0
  7 13  1  0
  8 14  1  0
  8 15  1  0
  8 16  1  0
M  RAD  1   7   2
M  END
>  <reaction>  (13) 
rxn_930

>  <mol_properties>  (13) 
{"0": {"label": "*3", "atom_type": "Cs"}, "1": {"label": "*4", "atom_type": "S2s"}, "5": {"label": "*0", "atom_type": "Cs"}, "6": {"label": "*1", "atom_type": "Cs"}, "11": {"label": "*2", "atom_type": "H0"}}

>  <type>  (13) 
unop_9

>  <geom_source>  (13) 
Heuristics

$$$$

     RDKit          3D

 16 14  0  0  0  0  0  0  0  0999 V2000
    0.4533   -1.1248    0.7834 C   0  0  0  0  0  0  0  0  0  0  0  0
    1.9927   -0.3648    0.2080 S   0  0  0  0  0  0  0  0  0  0  0  0
    0.1805   -0.6064    1.7011 H   0  0  0  0  0  0  0  0  0  0  0  0
    0.5920   -2.1804    1.0076 H   0  0  0  0  0  0  0  0  0  0  0  0
    2.1504   -1.1172   -0.8878 H   0  0  0  0  0  0  0  0  0  0  0  0
   -1.6402    0.1831   -1.6113 C   0  0  0  0  0  0  0  0  0  0  0  0
   -1.6402    0.1831   -0.0880 C   0  0  0  0  0  3  0  0  0  0  0  0
   -1.6402    1.5889    0.4987 C   0  0  0  0  0  0  0  0  0  0  0  0
   -0.7588    0.6974   -2.0020 H   0  0  0  0  0  0  0  0  0  0  0  0
   -2.5217    0.6974   -2.0020 H   0  0  0  0  0  0  0  0  0  0  0  0
   -1.6402   -0.8318   -2.0125 H   0  0  0  0  0  0  0  0  0  0  0  0
   -0.5908   -0.4725    0.3488 H   0  0  0  0  0  0  0  0  0  0  0  0
   -2.5148   -0.3633    0.2760 H   0  0  0  0  0  0  0  0  0  0  0  0
   -2.5217    2.1475    0.1746 H   0  0  0  0  0  0  0  0  0  0  0  0
   -1.6402    1.5682    1.5898 H   0  0  0  0  0  0  0  0  0  0  0  0
   -0.7588    2.1475    0.1746 H   0  0  0  0  0  0  0  0  0  0  0  0
  1  2  1  0
  1  3  1  0
  1  4  1  0
  1 12  1  0
  2  5  1  0
  6  7  1  0
  6  9  1  0
  6 10  1  0
  6 11  1  0
  7  8  1  0
  7 13  1  0
  8 14  1  0
  8 15  1  0
  8 16  1  0
M  RAD  1   7   2
M  END
>  <reaction>  (14) 
rxn_930

>  <mol_properties>  (14) 
{"0": {"label": "*3", "atom_type": "Cs"}, "1": {"label": "*4", "atom_type": "S2s"}, "5": {"label": "*0", "atom_type": "Cs"}, "6": {"label": "*1", "atom_type": "Cs"}, "11": {"label": "*2", "atom_type": "H0"}}

>  <type>  (14) 
unop_10

>  <geom_source>  (14) 
Heuristics

$$$$

     RDKit          3D

 16 14  0  0  0  0  0  0  0  0999 V2000
    1.1276   -0.5926   -0.0036 C   0  0  0  0  0  0  0  0  0  0  0  0
    0.7963   -1.3797    1.5930 S   0  0  0  0  0  0  0  0  0  0  0  0
    1.8219   -1.2464   -0.5288 H   0  0  0  0  0  0  0  0  0  0  0  0
    1.5950    0.3816    0.1240 H   0  0  0  0  0  0  0  0  0  0  0  0
   -0.0455   -0.4519    2.0645 H   0  0  0  0  0  0  0  0  0  0  0  0
   -0.9660    0.7154   -2.3983 C   0  0  0  0  0  0  0  0  0  0  0  0
   -0.9660    0.7154   -0.8750 C   0  0  0  0  0  3  0  0  0  0  0  0
   -0.9660    2.1212   -0.2882 C   0  0  0  0  0  0  0  0  0  0  0  0
   -0.0846    1.2296   -2.7889 H   0  0  0  0  0  0  0  0  0  0  0  0
   -1.8475    1.2296   -2.7889 H   0  0  0  0  0  0  0  0  0  0  0  0
   -0.9660   -0.2995   -2.7995 H   0  0  0  0  0  0  0  0  0  0  0  0
    0.0834    0.0598   -0.4382 H   0  0  0  0  0  0  0  0  0  0  0  0
   -1.8405    0.1690   -0.5110 H   0  0  0  0  0  0  0  0  0  0  0  0
   -1.8475    2.6798   -0.6124 H   0  0  0  0  0  0  0  0  0  0  0  0
   -0.9660    2.1005    0.8029 H   0  0  0  0  0  0  0  0  0  0  0  0
   -0.0846    2.6798   -0.6124 H   0  0  0  0  0  0  0  0  0  0  0  0
  1  2  1  0
  1  3  1  0
  1  4  1  0
  1 12  1  0
  2  5  1  0
  6  7  1  0
  6  9  1  0
  6 10  1  0
  6 11  1  0
  7  8  1  0
  7 13  1  0
  8 14  1  0
  8 15  1  0
  8 16  1  0
M  RAD  1   7   2
M  END
>  <reaction>  (15) 
rxn_930

>  <mol_properties>  (15) 
{"0": {"label": "*3", "atom_type": "Cs"}, "1": {"label": "*4", "atom_type": "S2s"}, "5": {"label": "*0", "atom_type": "Cs"}, "6": {"label": "*1", "atom_type": "Cs"}, "11": {"label": "*2", "atom_type": "H0"}}

>  <type>  (15) 
unop_11

>  <geom_source>  (15) 
Heuristics

$$$$

     RDKit          3D

 16 14  0  0  0  0  0  0  0  0999 V2000
    0.6543   -0.6266    1.0643 C   0  0  0  0  0  0  0  0  0  0  0  0
    1.6580   -1.2537   -0.3061 S   0  0  0  0  0  0  0  0  0  0  0  0
    1.2897    0.0620    1.6188 H   0  0  0  0  0  0  0  0  0  0  0  0
    0.3466   -1.4300    1.7304 H   0  0  0  0  0  0  0  0  0  0  0  0
    0.7270   -2.0519   -0.8426 H   0  0  0  0  0  0  0  0  0  0  0  0
   -1.4393    0.6813   -1.3305 C   0  0  0  0  0  0  0  0  0  0  0  0
   -1.4393    0.6813    0.1929 C   0  0  0  0  0  3  0  0  0  0  0  0
   -1.4393    2.0871    0.7796 C   0  0  0  0  0  0  0  0  0  0  0  0
   -0.5578    1.1956   -1.7211 H   0  0  0  0  0  0  0  0  0  0  0  0
   -2.3207    1.1956   -1.7211 H   0  0  0  0  0  0  0  0  0  0  0  0
   -1.4393   -0.3336   -1.7316 H   0  0  0  0  0  0  0  0  0  0  0  0
   -0.3898    0.0257    0.6297 H   0  0  0  0  0  0  0  0  0  0  0  0
   -2.3138    0.1350    0.5569 H   0  0  0  0  0  0  0  0  0  0  0  0
   -2.3207    2.6457    0.4554 H   0  0  0  0  0  0  0  0  0  0  0  0
   -1.4393    2.0664    1.8707 H   0  0  0  0  0  0  0  0  0  0  0  0
   -0.5578    2.6457    0.4554 H   0  0  0  0  0  0  0  0  0  0  0  0
  1  2  1  0
  1  3  1  0
  1  4  1  0
  1 12  1  0
  2  5  1  0
  6  7  1  0
  6  9  1  0
  6 10  1  0
  6 11  1  0
  7  8  1  0
  7 13  1  0
  8 14  1  0
  8 15  1  0
  8 16  1  0
M  RAD  1   7   2
M  END
>  <reaction>  (16) 
rxn_930

>  <mol_properties>  (16) 
{"0": {"label": "*3", "atom_type": "Cs"}, "1": {"label": "*4", "atom_type": "S2s"}, "5": {"label": "*0", "atom_type": "Cs"}, "6": {"label": "*1", "atom_type": "Cs"}, "11": {"label": "*2", "atom_type": "H0"}}

>  <type>  (16) 
unop_12

>  <geom_source>  (16) 
Heuristics

$$$$

     RDKit          3D

 16 14  0  0  0  0  0  0  0  0999 V2000
    3.0060    0.6130   -0.9012 S   0  0  0  0  0  0  0  0  0  0  0  0
   -1.0318    0.4290    1.3816 C   0  0  0  0  0  0  0  0  0  0  0  0
   -1.4734    0.1382   -1.0836 C   0  0  0  0  0  0  0  0  0  0  0  0
    1.8657   -0.6798   -0.3349 C   0  0  0  0  0  0  0  0  0  0  0  0
   -0.6601   -0.3331    0.1156 C   0  0  0  0  0  3  0  0  0  0  0  0
   -0.4066    0.0673    2.2242 H   0  0  0  0  0  0  0  0  0  0  0  0
   -2.1017    0.2650    1.6316 H   0  0  0  0  0  0  0  0  0  0  0  0
   -0.8460    1.5149    1.2428 H   0  0  0  0  0  0  0  0  0  0  0  0
   -2.5567   -0.0346   -0.9082 H   0  0  0  0  0  0  0  0  0  0  0  0
   -1.1605   -0.4291   -1.9847 H   0  0  0  0  0  0  0  0  0  0  0  0
   -1.2953    1.2191   -1.2655 H   0  0  0  0  0  0  0  0  0  0  0  0
    2.2262   -1.0989    0.6273 H   0  0  0  0  0  0  0  0  0  0  0  0
    1.8187   -1.4879   -1.0935 H   0  0  0  0  0  0  0  0  0  0  0  0
    0.6513   -0.1605   -0.1666 H   0  0  0  0  0  0  0  0  0  0  0  0
   -0.8141   -1.4225    0.2716 H   0  0  0  0  0  0  0  0  0  0  0  0
    2.7784    1.3998    0.2436 H   0  0  0  0  0  0  0  0  0  0  0  0
  1  4  1  0
  1 16  1  0
  2  5  1  0
  2  6  1  0
  2  7  1  0
  2  8  1  0
  3  5  1  0
  3  9  1  0
  3 10  1  0
  3 11  1  0
  4 12  1  0
  4 13  1  0
  4 14  1  0
  5 15  1  0
M  RAD  1   5   2
M  END
>  <reaction>  (17) 
rxn_930

>  <mol_properties>  (17) 
{"0": {"label": "*3", "atom_type": "Cs"}, "1": {"label": "*4", "atom_type": "S2s"}, "5": {"label": "*0", "atom_type": "Cs"}, "6": {"label": "*1", "atom_type": "Cs"}, "11": {"label": "*2", "atom_type": "H0"}}

>  <type>  (17) 
unop_13

>  <geom_source>  (17) 
AutoTST

$$$$
