
     RDKit          3D

 10  9  0  0  0  0  0  0  0  0999 V2000
   -1.1508    0.0666    0.2839 C   0  0  0  0  0  0  0  0  0  0  0  0
    0.1022   -0.3749   -0.4771 C   0  0  0  0  0  0  0  0  0  0  0  0
    1.3428    0.1620    0.1542 C   0  0  0  0  0  0  0  0  0  0  0  0
    2.5613   -0.6971    0.7526 S   0  0  0  0  0  0  0  0  0  0  0  0
   -1.2137    1.1546    0.3481 H   0  0  0  0  0  0  0  0  0  0  0  0
   -2.0472   -0.2935   -0.2212 H   0  0  0  0  0  0  0  0  0  0  0  0
   -1.1467   -0.3334    1.2987 H   0  0  0  0  0  0  0  0  0  0  0  0
    0.1602   -1.4616   -0.5369 H   0  0  0  0  0  0  0  0  0  0  0  0
    0.0536    0.0174   -1.4997 H   0  0  0  0  0  0  0  0  0  0  0  0
    1.3824    1.2528    0.2110 H   0  0  0  0  0  0  0  0  0  0  0  0
  1  2  1  0
  1  5  1  0
  1  6  1  0
  1  7  1  0
  2  3  1  0
  2  8  1  0
  2  9  1  0
  3  4  2  0
  3 10  1  0
M  END
>  <reaction>  (1) 
rxn_2021

>  <mol_properties>  (1) 
{"1": {"label": "donator", "atom_type": "Cs"}, "7": {"label": "d_hydrogen", "atom_type": "H0"}}

>  <type>  (1) 
r1h

$$$$

     RDKit          3D

  6  5  0  0  0  0  0  0  0  0999 V2000
   -0.7309   -0.0987    0.0327 C   0  0  0  0  0  0  0  0  0  0  0  0
    0.6208    0.0065   -0.0096 C   0  0  0  0  0  0  0  0  0  0  0  0
    1.6572   -1.2972    0.2837 S   0  0  0  0  0  1  0  0  0  0  0  0
   -1.3651    0.7588   -0.1608 H   0  0  0  0  0  0  0  0  0  0  0  0
   -1.2044   -1.0453    0.2616 H   0  0  0  0  0  0  0  0  0  0  0  0
    1.0609    0.9725   -0.2426 H   0  0  0  0  0  0  0  0  0  0  0  0
  1  2  2  3
  1  4  1  0
  1  5  1  0
  2  3  1  0
  2  6  1  0
M  RAD  1   3   2
M  END
>  <reaction>  (2) 
rxn_2021

>  <mol_properties>  (2) 
{"0": {"label": "acceptor", "atom_type": "Cs"}}

>  <type>  (2) 
r2

$$$$

     RDKit          3D

  7  6  0  0  0  0  0  0  0  0999 V2000
   -0.6782    0.0507    0.0301 C   0  0  0  0  0  0  0  0  0  0  0  0
    0.8092    0.0996    0.0213 C   0  0  0  0  0  0  0  0  0  0  0  0
    1.7473    0.7521    1.1507 S   0  0  0  0  0  0  0  0  0  0  0  0
   -1.0667    0.5456   -0.8653 H   0  0  0  0  0  0  0  0  0  0  0  0
   -1.0112   -0.9904   -0.0239 H   0  0  0  0  0  0  0  0  0  0  0  0
   -1.0920    0.5225    0.9188 H   0  0  0  0  0  0  0  0  0  0  0  0
    1.2740   -0.3620   -0.8520 H   0  0  0  0  0  0  0  0  0  0  0  0
  1  2  1  0
  1  4  1  0
  1  5  1  0
  1  6  1  0
  2  3  2  0
  2  7  1  0
M  END
>  <reaction>  (3) 
rxn_2021

>  <mol_properties>  (3) 
{"0": {"label": "acceptor", "atom_type": "Cs"}, "6": {"label": "a_hydrogen", "atom_type": "H0"}}

>  <type>  (3) 
r2h

$$$$

     RDKit          3D

 16 14  0  0  0  0  0  0  0  0999 V2000
   -0.5280   -1.4114   -0.3768 C   0  0  0  0  0  0  0  0  0  0  0  0
   -1.1131   -0.5417    0.5787 C   0  0  0  0  0  0  0  0  0  0  0  0
   -0.5214   -0.3083    2.0934 S   0  0  0  0  0  1  0  0  0  0  0  0
   -1.1093   -1.6642   -1.2595 H   0  0  0  0  0  0  0  0  0  0  0  0
    0.1221   -2.1944    0.0024 H   0  0  0  0  0  0  0  0  0  0  0  0
   -1.9639    0.0500    0.2463 H   0  0  0  0  0  0  0  0  0  0  0  0
    0.5589    0.5496   -2.7946 C   0  0  0  0  0  0  0  0  0  0  0  0
    1.3257    0.1551   -1.5605 C   0  0  0  0  0  0  0  0  0  0  0  0
    1.5796    1.0954   -0.5083 C   0  0  0  0  0  0  0  0  0  0  0  0
    0.7045    2.4444   -0.2100 S   0  0  0  0  0  0  0  0  0  0  0  0
    1.1676    1.2029   -3.4234 H   0  0  0  0  0  0  0  0  0  0  0  0
    0.2915   -0.3311   -3.3790 H   0  0  0  0  0  0  0  0  0  0  0  0
   -0.3460    1.0973   -2.5330 H   0  0  0  0  0  0  0  0  0  0  0  0
    0.4470   -0.6171   -0.9176 H   0  0  0  0  0  0  0  0  0  0  0  0
    2.1322   -0.5581   -1.7247 H   0  0  0  0  0  0  0  0  0  0  0  0
    2.3726    0.8208    0.1849 H   0  0  0  0  0  0  0  0  0  0  0  0
  1  2  2  3
  1  4  1  0
  1  5  1  0
  2  3  1  0
  2  6  1  0
  7  8  1  0
  7 11  1  0
  7 12  1  0
  7 13  1  0
  8  9  1  0
  8 14  1  0
  8 15  1  0
  9 10  2  0
  9 16  1  0
M  RAD  1   3   2
M  END
>  <reaction>  (4) 
rxn_2021

>  <mol_properties>  (4) 
{"0": {"label": "*3", "atom_type": "Cd"}, "1": {"label": "*4", "atom_type": "Cd"}, "7": {"label": "*1", "atom_type": "Cs"}, "8": {"label": "*0", "atom_type": "CS"}, "13": {"label": "*2", "atom_type": "H0"}}

>  <type>  (4) 
ts

$$$$

     RDKit          3D

 16 14  0  0  0  0  0  0  0  0999 V2000
   -0.8396   -0.6676   -0.0971 C   0  0  0  0  0  0  0  0  0  0  0  0
   -0.3644   -1.8054    0.7361 C   0  0  0  0  0  0  0  0  0  0  0  0
   -1.2144   -3.1054    1.1469 S   0  0  0  0  0  1  0  0  0  0  0  0
   -0.7520    0.2641    0.4702 H   0  0  0  0  0  0  0  0  0  0  0  0
   -1.8698   -0.8058   -0.4186 H   0  0  0  0  0  0  0  0  0  0  0  0
    0.6662   -1.7142    1.0845 H   0  0  0  0  0  0  0  0  0  0  0  0
    1.2199    0.6538   -2.5674 C   0  0  0  0  0  0  0  0  0  0  0  0
    1.2199    0.6538   -1.0364 C   0  0  0  0  0  0  0  0  0  0  0  0
    1.2199    2.0420   -0.4897 C   0  0  0  0  0  0  0  0  0  0  0  0
    0.1004    2.6977    0.4579 S   0  0  0  0  0  0  0  0  0  0  0  0
    2.0751    1.2040   -2.9645 H   0  0  0  0  0  0  0  0  0  0  0  0
    1.2708   -0.3671   -2.9461 H   0  0  0  0  0  0  0  0  0  0  0  0
    0.3105    1.1162   -2.9531 H   0  0  0  0  0  0  0  0  0  0  0  0
    0.1923   -0.0055   -0.5677 H   0  0  0  0  0  0  0  0  0  0  0  0
    2.1303    0.1571   -0.6809 H   0  0  0  0  0  0  0  0  0  0  0  0
    2.0754    2.6473   -0.8000 H   0  0  0  0  0  0  0  0  0  0  0  0
  1  2  2  3
  1  4  1  0
  1  5  1  0
  2  3  1  0
  2  6  1  0
  7  8  1  0
  7 11  1  0
  7 12  1  0
  7 13  1  0
  8  9  1  0
  8 14  1  0
  8 15  1  0
  9 10  2  0
  9 16  1  0
M  RAD  1   3   2
M  END
>  <reaction>  (5) 
rxn_2021

>  <mol_properties>  (5) 
{"0": {"label": "*3", "atom_type": "Cd"}, "1": {"label": "*4", "atom_type": "Cd"}, "7": {"label": "*1", "atom_type": "Cs"}, "8": {"label": "*0", "atom_type": "CS"}, "13": {"label": "*2", "atom_type": "H0"}}

>  <type>  (5) 
unop_1

>  <geom_source>  (5) 
Heuristics

$$$$

     RDKit          3D

 16 14  0  0  0  0  0  0  0  0999 V2000
   -0.3995   -0.8855    0.7004 C   0  0  0  0  0  0  0  0  0  0  0  0
   -0.7791   -1.9619   -0.2545 C   0  0  0  0  0  0  0  0  0  0  0  0
   -2.2731   -2.3996   -0.6516 S   0  0  0  0  0  1  0  0  0  0  0  0
    0.2153   -1.3063    1.5020 H   0  0  0  0  0  0  0  0  0  0  0  0
   -1.2737   -0.3976    1.1263 H   0  0  0  0  0  0  0  0  0  0  0  0
    0.0648   -2.4834   -0.7103 H   0  0  0  0  0  0  0  0  0  0  0  0
    1.6600    0.4360   -1.7699 C   0  0  0  0  0  0  0  0  0  0  0  0
    1.6600    0.4360   -0.2388 C   0  0  0  0  0  0  0  0  0  0  0  0
    1.6600    1.8241    0.3078 C   0  0  0  0  0  0  0  0  0  0  0  0
    0.5405    2.4798    1.2554 S   0  0  0  0  0  0  0  0  0  0  0  0
    2.5152    0.9861   -2.1670 H   0  0  0  0  0  0  0  0  0  0  0  0
    1.7109   -0.5850   -2.1486 H   0  0  0  0  0  0  0  0  0  0  0  0
    0.7505    0.8983   -2.1556 H   0  0  0  0  0  0  0  0  0  0  0  0
    0.6324   -0.2234    0.2298 H   0  0  0  0  0  0  0  0  0  0  0  0
    2.5704   -0.0607    0.1166 H   0  0  0  0  0  0  0  0  0  0  0  0
    2.5155    2.4294   -0.0025 H   0  0  0  0  0  0  0  0  0  0  0  0
  1  2  2  3
  1  4  1  0
  1  5  1  0
  2  3  1  0
  2  6  1  0
  7  8  1  0
  7 11  1  0
  7 12  1  0
  7 13  1  0
  8  9  1  0
  8 14  1  0
  8 15  1  0
  9 10  2  0
  9 16  1  0
M  RAD  1   3   2
M  END
>  <reaction>  (6) 
rxn_2021

>  <mol_properties>  (6) 
{"0": {"label": "*3", "atom_type": "Cd"}, "1": {"label": "*4", "atom_type": "Cd"}, "7": {"label": "*1", "atom_type": "Cs"}, "8": {"label": "*0", "atom_type": "CS"}, "13": {"label": "*2", "atom_type": "H0"}}

>  <type>  (6) 
unop_2

>  <geom_source>  (6) 
Heuristics

$$$$

     RDKit          3D

 16 14  0  0  0  0  0  0  0  0999 V2000
   -0.8566   -0.8327   -0.3038 C   0  0  0  0  0  0  0  0  0  0  0  0
   -0.5037   -1.4392    1.0085 C   0  0  0  0  0  0  0  0  0  0  0  0
   -1.0960   -2.8028    1.6177 S   0  0  0  0  0  1  0  0  0  0  0  0
   -1.2459    0.1781   -0.1479 H   0  0  0  0  0  0  0  0  0  0  0  0
   -1.5912   -1.4300   -0.8397 H   0  0  0  0  0  0  0  0  0  0  0  0
    0.2318   -0.8762    1.5863 H   0  0  0  0  0  0  0  0  0  0  0  0
    1.2030    0.4888   -2.7741 C   0  0  0  0  0  0  0  0  0  0  0  0
    1.2030    0.4888   -1.2431 C   0  0  0  0  0  0  0  0  0  0  0  0
    1.2030    1.8770   -0.6964 C   0  0  0  0  0  0  0  0  0  0  0  0
    0.0835    2.5326    0.2512 S   0  0  0  0  0  0  0  0  0  0  0  0
    2.0582    1.0389   -3.1712 H   0  0  0  0  0  0  0  0  0  0  0  0
    1.2538   -0.5321   -3.1528 H   0  0  0  0  0  0  0  0  0  0  0  0
    0.2935    0.9511   -3.1598 H   0  0  0  0  0  0  0  0  0  0  0  0
    0.1753   -0.1706   -0.7744 H   0  0  0  0  0  0  0  0  0  0  0  0
    2.1133   -0.0079   -0.8876 H   0  0  0  0  0  0  0  0  0  0  0  0
    2.0585    2.4822   -1.0067 H   0  0  0  0  0  0  0  0  0  0  0  0
  1  2  2  3
  1  4  1  0
  1  5  1  0
  2  3  1  0
  2  6  1  0
  7  8  1  0
  7 11  1  0
  7 12  1  0
  7 13  1  0
  8  9  1  0
  8 14  1  0
  8 15  1  0
  9 10  2  0
  9 16  1  0
M  RAD  1   3   2
M  END
>  <reaction>  (7) 
rxn_2021

>  <mol_properties>  (7) 
{"0": {"label": "*3", "atom_type": "Cd"}, "1": {"label": "*4", "atom_type": "Cd"}, "7": {"label": "*1", "atom_type": "Cs"}, "8": {"label": "*0", "atom_type": "CS"}, "13": {"label": "*2", "atom_type": "H0"}}

>  <type>  (7) 
unop_3

>  <geom_source>  (7) 
Heuristics

$$$$

     RDKit          3D

 16 14  0  0  0  0  0  0  0  0999 V2000
   -0.2584   -1.8450    0.2693 C   0  0  0  0  0  0  0  0  0  0  0  0
   -1.5175   -1.2101   -0.2065 C   0  0  0  0  0  0  0  0  0  0  0  0
   -2.3367   -0.0450    0.5370 S   0  0  0  0  0  1  0  0  0  0  0  0
   -0.4095   -2.9235    0.3770 H   0  0  0  0  0  0  0  0  0  0  0  0
    0.0723   -1.4245    1.2166 H   0  0  0  0  0  0  0  0  0  0  0  0
   -1.8917   -1.5983   -1.1557 H   0  0  0  0  0  0  0  0  0  0  0  0
    1.8011   -0.5235   -2.2011 C   0  0  0  0  0  0  0  0  0  0  0  0
    1.8011   -0.5235   -0.6700 C   0  0  0  0  0  0  0  0  0  0  0  0
    1.8011    0.8647   -0.1233 C   0  0  0  0  0  0  0  0  0  0  0  0
    0.6816    1.5204    0.8242 S   0  0  0  0  0  0  0  0  0  0  0  0
    2.6563    0.0267   -2.5982 H   0  0  0  0  0  0  0  0  0  0  0  0
    1.8520   -1.5444   -2.5797 H   0  0  0  0  0  0  0  0  0  0  0  0
    0.8916   -0.0611   -2.5867 H   0  0  0  0  0  0  0  0  0  0  0  0
    0.7735   -1.1829   -0.2013 H   0  0  0  0  0  0  0  0  0  0  0  0
    2.7115   -1.0202   -0.3146 H   0  0  0  0  0  0  0  0  0  0  0  0
    2.6566    1.4699   -0.4336 H   0  0  0  0  0  0  0  0  0  0  0  0
  1  2  2  3
  1  4  1  0
  1  5  1  0
  2  3  1  0
  2  6  1  0
  7  8  1  0
  7 11  1  0
  7 12  1  0
  7 13  1  0
  8  9  1  0
  8 14  1  0
  8 15  1  0
  9 10  2  0
  9 16  1  0
M  RAD  1   3   2
M  END
>  <reaction>  (8) 
rxn_2021

>  <mol_properties>  (8) 
{"0": {"label": "*3", "atom_type": "Cd"}, "1": {"label": "*4", "atom_type": "Cd"}, "7": {"label": "*1", "atom_type": "Cs"}, "8": {"label": "*0", "atom_type": "CS"}, "13": {"label": "*2", "atom_type": "H0"}}

>  <type>  (8) 
unop_4

>  <geom_source>  (8) 
Heuristics

$$$$

     RDKit          3D

 16 14  0  0  0  0  0  0  0  0999 V2000
   -0.8958   -1.0608   -0.4458 C   0  0  0  0  0  0  0  0  0  0  0  0
   -0.8648   -1.0410    1.0419 C   0  0  0  0  0  0  0  0  0  0  0  0
   -0.8252   -2.3219    2.0109 S   0  0  0  0  0  1  0  0  0  0  0  0
   -1.7876   -0.5353   -0.8012 H   0  0  0  0  0  0  0  0  0  0  0  0
   -0.8888   -2.0765   -0.8358 H   0  0  0  0  0  0  0  0  0  0  0  0
   -0.8705   -0.0425    1.4833 H   0  0  0  0  0  0  0  0  0  0  0  0
    1.1638    0.2606   -2.9161 C   0  0  0  0  0  0  0  0  0  0  0  0
    1.1638    0.2606   -1.3851 C   0  0  0  0  0  0  0  0  0  0  0  0
    1.1638    1.6488   -0.8384 C   0  0  0  0  0  0  0  0  0  0  0  0
    0.0442    2.3045    0.1092 S   0  0  0  0  0  0  0  0  0  0  0  0
    2.0190    0.8108   -3.3132 H   0  0  0  0  0  0  0  0  0  0  0  0
    1.2146   -0.7603   -3.2948 H   0  0  0  0  0  0  0  0  0  0  0  0
    0.2543    0.7230   -3.3018 H   0  0  0  0  0  0  0  0  0  0  0  0
    0.1361   -0.3987   -0.9164 H   0  0  0  0  0  0  0  0  0  0  0  0
    2.0741   -0.2361   -1.0296 H   0  0  0  0  0  0  0  0  0  0  0  0
    2.0192    2.2541   -1.1487 H   0  0  0  0  0  0  0  0  0  0  0  0
  1  2  2  3
  1  4  1  0
  1  5  1  0
  2  3  1  0
  2  6  1  0
  7  8  1  0
  7 11  1  0
  7 12  1  0
  7 13  1  0
  8  9  1  0
  8 14  1  0
  8 15  1  0
  9 10  2  0
  9 16  1  0
M  RAD  1   3   2
M  END
>  <reaction>  (9) 
rxn_2021

>  <mol_properties>  (9) 
{"0": {"label": "*3", "atom_type": "Cd"}, "1": {"label": "*4", "atom_type": "Cd"}, "7": {"label": "*1", "atom_type": "Cs"}, "8": {"label": "*0", "atom_type": "CS"}, "13": {"label": "*2", "atom_type": "H0"}}

>  <type>  (9) 
unop_5

>  <geom_source>  (9) 
Heuristics

$$$$

     RDKit          3D

 16 14  0  0  0  0  0  0  0  0999 V2000
   -0.4288   -1.8965   -0.0743 C   0  0  0  0  0  0  0  0  0  0  0  0
   -1.5779   -0.9679    0.1044 C   0  0  0  0  0  0  0  0  0  0  0  0
   -1.8363   -0.0035    1.3632 S   0  0  0  0  0  1  0  0  0  0  0  0
   -0.7995   -2.9180   -0.2042 H   0  0  0  0  0  0  0  0  0  0  0  0
    0.2551   -1.8592    0.7710 H   0  0  0  0  0  0  0  0  0  0  0  0
   -2.2947   -0.9681   -0.7189 H   0  0  0  0  0  0  0  0  0  0  0  0
    1.6307   -0.5751   -2.5446 C   0  0  0  0  0  0  0  0  0  0  0  0
    1.6307   -0.5751   -1.0136 C   0  0  0  0  0  0  0  0  0  0  0  0
    1.6307    0.8131   -0.4669 C   0  0  0  0  0  0  0  0  0  0  0  0
    0.5112    1.4688    0.4807 S   0  0  0  0  0  0  0  0  0  0  0  0
    2.4859   -0.0249   -2.9417 H   0  0  0  0  0  0  0  0  0  0  0  0
    1.6816   -1.5960   -2.9233 H   0  0  0  0  0  0  0  0  0  0  0  0
    0.7212   -0.1127   -2.9303 H   0  0  0  0  0  0  0  0  0  0  0  0
    0.6031   -1.2344   -0.5449 H   0  0  0  0  0  0  0  0  0  0  0  0
    2.5411   -1.0718   -0.6581 H   0  0  0  0  0  0  0  0  0  0  0  0
    2.4862    1.4184   -0.7772 H   0  0  0  0  0  0  0  0  0  0  0  0
  1  2  2  3
  1  4  1  0
  1  5  1  0
  2  3  1  0
  2  6  1  0
  7  8  1  0
  7 11  1  0
  7 12  1  0
  7 13  1  0
  8  9  1  0
  8 14  1  0
  8 15  1  0
  9 10  2  0
  9 16  1  0
M  RAD  1   3   2
M  END
>  <reaction>  (10) 
rxn_2021

>  <mol_properties>  (10) 
{"0": {"label": "*3", "atom_type": "Cd"}, "1": {"label": "*4", "atom_type": "Cd"}, "7": {"label": "*1", "atom_type": "Cs"}, "8": {"label": "*0", "atom_type": "CS"}, "13": {"label": "*2", "atom_type": "H0"}}

>  <type>  (10) 
unop_6

>  <geom_source>  (10) 
Heuristics

$$$$

     RDKit          3D

 16 14  0  0  0  0  0  0  0  0999 V2000
   -0.6549   -1.7491   -0.3619 C   0  0  0  0  0  0  0  0  0  0  0  0
   -1.4911   -0.8429    0.4713 C   0  0  0  0  0  0  0  0  0  0  0  0
   -1.2418   -0.4665    2.0132 S   0  0  0  0  0  1  0  0  0  0  0  0
   -1.2715   -2.5680   -0.7451 H   0  0  0  0  0  0  0  0  0  0  0  0
    0.1843   -2.1537    0.2000 H   0  0  0  0  0  0  0  0  0  0  0  0
   -2.3482   -0.4099   -0.0480 H   0  0  0  0  0  0  0  0  0  0  0  0
    1.4047   -0.4276   -2.8322 C   0  0  0  0  0  0  0  0  0  0  0  0
    1.4047   -0.4276   -1.3012 C   0  0  0  0  0  0  0  0  0  0  0  0
    1.4047    0.9606   -0.7545 C   0  0  0  0  0  0  0  0  0  0  0  0
    0.2851    1.6163    0.1930 S   0  0  0  0  0  0  0  0  0  0  0  0
    2.2599    0.1226   -3.2294 H   0  0  0  0  0  0  0  0  0  0  0  0
    1.4555   -1.4485   -3.2109 H   0  0  0  0  0  0  0  0  0  0  0  0
    0.4952    0.0348   -3.2179 H   0  0  0  0  0  0  0  0  0  0  0  0
    0.3770   -1.0870   -0.8325 H   0  0  0  0  0  0  0  0  0  0  0  0
    2.3150   -0.9243   -0.9457 H   0  0  0  0  0  0  0  0  0  0  0  0
    2.2601    1.5658   -1.0648 H   0  0  0  0  0  0  0  0  0  0  0  0
  1  2  2  3
  1  4  1  0
  1  5  1  0
  2  3  1  0
  2  6  1  0
  7  8  1  0
  7 11  1  0
  7 12  1  0
  7 13  1  0
  8  9  1  0
  8 14  1  0
  8 15  1  0
  9 10  2  0
  9 16  1  0
M  RAD  1   3   2
M  END
>  <reaction>  (11) 
rxn_2021

>  <mol_properties>  (11) 
{"0": {"label": "*3", "atom_type": "Cd"}, "1": {"label": "*4", "atom_type": "Cd"}, "7": {"label": "*1", "atom_type": "Cs"}, "8": {"label": "*0", "atom_type": "CS"}, "13": {"label": "*2", "atom_type": "H0"}}

>  <type>  (11) 
unop_7

>  <geom_source>  (11) 
Heuristics

$$$$

     RDKit          3D

 16 14  0  0  0  0  0  0  0  0999 V2000
   -0.7640   -0.5814    0.1902 C   0  0  0  0  0  0  0  0  0  0  0  0
   -0.3987   -2.0129    0.3689 C   0  0  0  0  0  0  0  0  0  0  0  0
   -1.4190   -3.2473    0.4978 S   0  0  0  0  0  1  0  0  0  0  0  0
   -0.3436    0.0095    1.0098 H   0  0  0  0  0  0  0  0  0  0  0  0
   -1.8423   -0.4420    0.1531 H   0  0  0  0  0  0  0  0  0  0  0  0
    0.6749   -2.2061    0.4124 H   0  0  0  0  0  0  0  0  0  0  0  0
    1.2956    0.7400   -2.2801 C   0  0  0  0  0  0  0  0  0  0  0  0
    1.2956    0.7400   -0.7490 C   0  0  0  0  0  0  0  0  0  0  0  0
    1.2956    2.1282   -0.2023 C   0  0  0  0  0  0  0  0  0  0  0  0
    0.1760    2.7839    0.7452 S   0  0  0  0  0  0  0  0  0  0  0  0
    2.1508    1.2902   -2.6772 H   0  0  0  0  0  0  0  0  0  0  0  0
    1.3464   -0.2809   -2.6588 H   0  0  0  0  0  0  0  0  0  0  0  0
    0.3861    1.2024   -2.6657 H   0  0  0  0  0  0  0  0  0  0  0  0
    0.2679    0.0807   -0.2804 H   0  0  0  0  0  0  0  0  0  0  0  0
    2.2059    0.2433   -0.3936 H   0  0  0  0  0  0  0  0  0  0  0  0
    2.1510    2.7335   -0.5127 H   0  0  0  0  0  0  0  0  0  0  0  0
  1  2  2  3
  1  4  1  0
  1  5  1  0
  2  3  1  0
  2  6  1  0
  7  8  1  0
  7 11  1  0
  7 12  1  0
  7 13  1  0
  8  9  1  0
  8 14  1  0
  8 15  1  0
  9 10  2  0
  9 16  1  0
M  RAD  1   3   2
M  END
>  <reaction>  (12) 
rxn_2021

>  <mol_properties>  (12) 
{"0": {"label": "*3", "atom_type": "Cd"}, "1": {"label": "*4", "atom_type": "Cd"}, "7": {"label": "*1", "atom_type": "Cs"}, "8": {"label": "*0", "atom_type": "CS"}, "13": {"label": "*2", "atom_type": "H0"}}

>  <type>  (12) 
unop_8

>  <geom_source>  (12) 
Heuristics

$$$$

     RDKit          3D

 16 14  0  0  0  0  0  0  0  0999 V2000
   -0.1866   -1.6097    0.5695 C   0  0  0  0  0  0  0  0  0  0  0  0
   -1.3233   -1.5060   -0.3854 C   0  0  0  0  0  0  0  0  0  0  0  0
   -2.6214   -0.5732   -0.2233 S   0  0  0  0  0  1  0  0  0  0  0  0
   -0.0797   -2.6471    0.9012 H   0  0  0  0  0  0  0  0  0  0  0  0
   -0.3242   -0.9611    1.4321 H   0  0  0  0  0  0  0  0  0  0  0  0
   -1.2328   -2.1391   -1.2702 H   0  0  0  0  0  0  0  0  0  0  0  0
    1.8729   -0.2882   -1.9008 C   0  0  0  0  0  0  0  0  0  0  0  0
    1.8729   -0.2882   -0.3698 C   0  0  0  0  0  0  0  0  0  0  0  0
    1.8729    1.1000    0.1769 C   0  0  0  0  0  0  0  0  0  0  0  0
    0.7534    1.7557    1.1245 S   0  0  0  0  0  0  0  0  0  0  0  0
    2.7281    0.2620   -2.2979 H   0  0  0  0  0  0  0  0  0  0  0  0
    1.9238   -1.3091   -2.2795 H   0  0  0  0  0  0  0  0  0  0  0  0
    0.9634    0.1742   -2.2865 H   0  0  0  0  0  0  0  0  0  0  0  0
    0.8453   -0.9476    0.0989 H   0  0  0  0  0  0  0  0  0  0  0  0
    2.7833   -0.7849   -0.0143 H   0  0  0  0  0  0  0  0  0  0  0  0
    2.7284    1.7052   -0.1334 H   0  0  0  0  0  0  0  0  0  0  0  0
  1  2  2  3
  1  4  1  0
  1  5  1  0
  2  3  1  0
  2  6  1  0
  7  8  1  0
  7 11  1  0
  7 12  1  0
  7 13  1  0
  8  9  1  0
  8 14  1  0
  8 15  1  0
  9 10  2  0
  9 16  1  0
M  RAD  1   3   2
M  END
>  <reaction>  (13) 
rxn_2021

>  <mol_properties>  (13) 
{"0": {"label": "*3", "atom_type": "Cd"}, "1": {"label": "*4", "atom_type": "Cd"}, "7": {"label": "*1", "atom_type": "Cs"}, "8": {"label": "*0", "atom_type": "CS"}, "13": {"label": "*2", "atom_type": "H0"}}

>  <type>  (13) 
unop_9

>  <geom_source>  (13) 
Heuristics

$$$$

     RDKit          3D

 16 14  0  0  0  0  0  0  0  0999 V2000
   -0.6035   -0.6453    0.4901 C   0  0  0  0  0  0  0  0  0  0  0  0
   -0.5511   -2.0544    0.0143 C   0  0  0  0  0  0  0  0  0  0  0  0
   -1.8046   -3.0394   -0.1855 S   0  0  0  0  0  1  0  0  0  0  0  0
    0.0094   -0.5392    1.3905 H   0  0  0  0  0  0  0  0  0  0  0  0
   -1.6228   -0.3284    0.7008 H   0  0  0  0  0  0  0  0  0  0  0  0
    0.4521   -2.4209   -0.2113 H   0  0  0  0  0  0  0  0  0  0  0  0
    1.4561    0.6761   -1.9802 C   0  0  0  0  0  0  0  0  0  0  0  0
    1.4561    0.6761   -0.4492 C   0  0  0  0  0  0  0  0  0  0  0  0
    1.4561    2.0643    0.0975 C   0  0  0  0  0  0  0  0  0  0  0  0
    0.3365    2.7200    1.0451 S   0  0  0  0  0  0  0  0  0  0  0  0
    2.3113    1.2263   -2.3773 H   0  0  0  0  0  0  0  0  0  0  0  0
    1.5069   -0.3448   -2.3589 H   0  0  0  0  0  0  0  0  0  0  0  0
    0.5466    1.1385   -2.3659 H   0  0  0  0  0  0  0  0  0  0  0  0
    0.4284    0.0168    0.0195 H   0  0  0  0  0  0  0  0  0  0  0  0
    2.3664    0.1794   -0.0937 H   0  0  0  0  0  0  0  0  0  0  0  0
    2.3115    2.6696   -0.2128 H   0  0  0  0  0  0  0  0  0  0  0  0
  1  2  2  3
  1  4  1  0
  1  5  1  0
  2  3  1  0
  2  6  1  0
  7  8  1  0
  7 11  1  0
  7 12  1  0
  7 13  1  0
  8  9  1  0
  8 14  1  0
  8 15  1  0
  9 10  2  0
  9 16  1  0
M  RAD  1   3   2
M  END
>  <reaction>  (14) 
rxn_2021

>  <mol_properties>  (14) 
{"0": {"label": "*3", "atom_type": "Cd"}, "1": {"label": "*4", "atom_type": "Cd"}, "7": {"label": "*1", "atom_type": "Cs"}, "8": {"label": "*0", "atom_type": "CS"}, "13": {"label": "*2", "atom_type": "H0"}}

>  <type>  (14) 
unop_10

>  <geom_source>  (14) 
Heuristics

$$$$

     RDKit          3D

 16 14  0  0  0  0  0  0  0  0999 V2000
   -0.8528   -1.4273   -0.5003 C   0  0  0  0  0  0  0  0  0  0  0  0
   -1.2571   -0.8537    0.8120 C   0  0  0  0  0  0  0  0  0  0  0  0
   -0.7838   -1.3631    2.2605 S   0  0  0  0  0  1  0  0  0  0  0  0
   -1.7429   -1.7494   -1.0496 H   0  0  0  0  0  0  0  0  0  0  0  0
   -0.1717   -2.2672   -0.3807 H   0  0  0  0  0  0  0  0  0  0  0  0
   -1.9421   -0.0063    0.7460 H   0  0  0  0  0  0  0  0  0  0  0  0
    1.2067   -0.1058   -2.9706 C   0  0  0  0  0  0  0  0  0  0  0  0
    1.2067   -0.1058   -1.4395 C   0  0  0  0  0  0  0  0  0  0  0  0
    1.2067    1.2823   -0.8929 C   0  0  0  0  0  0  0  0  0  0  0  0
    0.0872    1.9380    0.0547 S   0  0  0  0  0  0  0  0  0  0  0  0
    2.0619    0.4443   -3.3677 H   0  0  0  0  0  0  0  0  0  0  0  0
    1.2576   -1.1268   -3.3493 H   0  0  0  0  0  0  0  0  0  0  0  0
    0.2972    0.3565   -3.3563 H   0  0  0  0  0  0  0  0  0  0  0  0
    0.1791   -0.7652   -0.9709 H   0  0  0  0  0  0  0  0  0  0  0  0
    2.1171   -0.6025   -1.0841 H   0  0  0  0  0  0  0  0  0  0  0  0
    2.0622    1.8876   -1.2032 H   0  0  0  0  0  0  0  0  0  0  0  0
  1  2  2  3
  1  4  1  0
  1  5  1  0
  2  3  1  0
  2  6  1  0
  7  8  1  0
  7 11  1  0
  7 12  1  0
  7 13  1  0
  8  9  1  0
  8 14  1  0
  8 15  1  0
  9 10  2  0
  9 16  1  0
M  RAD  1   3   2
M  END
>  <reaction>  (15) 
rxn_2021

>  <mol_properties>  (15) 
{"0": {"label": "*3", "atom_type": "Cd"}, "1": {"label": "*4", "atom_type": "Cd"}, "7": {"label": "*1", "atom_type": "Cs"}, "8": {"label": "*0", "atom_type": "CS"}, "13": {"label": "*2", "atom_type": "H0"}}

>  <type>  (15) 
unop_11

>  <geom_source>  (15) 
Heuristics

$$$$

     RDKit          3D

 16 14  0  0  0  0  0  0  0  0999 V2000
   -0.2369   -1.2497    0.7332 C   0  0  0  0  0  0  0  0  0  0  0  0
   -1.0517   -1.7725   -0.3971 C   0  0  0  0  0  0  0  0  0  0  0  0
   -2.6030   -1.4615   -0.6767 S   0  0  0  0  0  1  0  0  0  0  0  0
    0.1701   -2.0862    1.3096 H   0  0  0  0  0  0  0  0  0  0  0  0
   -0.8203   -0.6039    1.3860 H   0  0  0  0  0  0  0  0  0  0  0  0
   -0.5105   -2.4274   -1.0827 H   0  0  0  0  0  0  0  0  0  0  0  0
    1.8226    0.0717   -1.7371 C   0  0  0  0  0  0  0  0  0  0  0  0
    1.8226    0.0717   -0.2061 C   0  0  0  0  0  0  0  0  0  0  0  0
    1.8226    1.4599    0.3406 C   0  0  0  0  0  0  0  0  0  0  0  0
    0.7031    2.1156    1.2882 S   0  0  0  0  0  0  0  0  0  0  0  0
    2.6778    0.6219   -2.1342 H   0  0  0  0  0  0  0  0  0  0  0  0
    1.8735   -0.9492   -2.1158 H   0  0  0  0  0  0  0  0  0  0  0  0
    0.9131    0.5341   -2.1228 H   0  0  0  0  0  0  0  0  0  0  0  0
    0.7950   -0.5876    0.2626 H   0  0  0  0  0  0  0  0  0  0  0  0
    2.7330   -0.4250    0.1494 H   0  0  0  0  0  0  0  0  0  0  0  0
    2.6781    2.0652    0.0303 H   0  0  0  0  0  0  0  0  0  0  0  0
  1  2  2  3
  1  4  1  0
  1  5  1  0
  2  3  1  0
  2  6  1  0
  7  8  1  0
  7 11  1  0
  7 12  1  0
  7 13  1  0
  8  9  1  0
  8 14  1  0
  8 15  1  0
  9 10  2  0
  9 16  1  0
M  RAD  1   3   2
M  END
>  <reaction>  (16) 
rxn_2021

>  <mol_properties>  (16) 
{"0": {"label": "*3", "atom_type": "Cd"}, "1": {"label": "*4", "atom_type": "Cd"}, "7": {"label": "*1", "atom_type": "Cs"}, "8": {"label": "*0", "atom_type": "CS"}, "13": {"label": "*2", "atom_type": "H0"}}

>  <type>  (16) 
unop_12

>  <geom_source>  (16) 
Heuristics

$$$$

     RDKit          3D

 16 14  0  0  0  0  0  0  0  0999 V2000
    3.1772    0.8236   -0.8410 S   0  0  0  0  0  0  0  0  0  0  0  0
   -1.2878   -2.0238    0.6095 S   0  0  0  0  0  1  0  0  0  0  0  0
   -1.9010    1.1560    0.1079 C   0  0  0  0  0  0  0  0  0  0  0  0
    1.4762   -0.5769    0.4341 C   0  0  0  0  0  0  0  0  0  0  0  0
   -0.8463    0.2307   -0.4894 C   0  0  0  0  0  0  0  0  0  0  0  0
    2.7134    0.2627    0.3961 C   0  0  0  0  0  0  0  0  0  0  0  0
   -1.3310   -1.1861   -0.5554 C   0  0  0  0  0  0  0  0  0  0  0  0
    1.2712   -0.8907    1.4790 H   0  0  0  0  0  0  0  0  0  0  0  0
    1.6092   -1.4859   -0.1908 H   0  0  0  0  0  0  0  0  0  0  0  0
    0.4683    0.1004   -0.0006 H   0  0  0  0  0  0  0  0  0  0  0  0
   -2.1356    0.8513    1.1496 H   0  0  0  0  0  0  0  0  0  0  0  0
   -2.8283    1.1300   -0.5035 H   0  0  0  0  0  0  0  0  0  0  0  0
   -1.5105    2.1948    0.1241 H   0  0  0  0  0  0  0  0  0  0  0  0
   -0.5879    0.5824   -1.5112 H   0  0  0  0  0  0  0  0  0  0  0  0
    3.2591    0.4644    1.3122 H   0  0  0  0  0  0  0  0  0  0  0  0
   -1.5462   -1.6329   -1.5207 H   0  0  0  0  0  0  0  0  0  0  0  0
  1  6  2  0
  2  7  1  0
  3  5  1  0
  3 11  1  0
  3 12  1  0
  3 13  1  0
  4  6  1  0
  4  8  1  0
  4  9  1  0
  4 10  1  0
  5  7  2  3
  5 14  1  0
  6 15  1  0
  7 16  1  0
M  RAD  1   2   2
M  END
>  <reaction>  (17) 
rxn_2021

>  <mol_properties>  (17) 
{"0": {"label": "*3", "atom_type": "Cd"}, "1": {"label": "*4", "atom_type": "Cd"}, "7": {"label": "*1", "atom_type": "Cs"}, "8": {"label": "*0", "atom_type": "CS"}, "13": {"label": "*2", "atom_type": "H0"}}

>  <type>  (17) 
unop_13

>  <geom_source>  (17) 
AutoTST

$$$$
