
     RDKit          3D

  9  8  0  0  0  0  0  0  0  0999 V2000
   -0.8818   -0.3578    0.1297 C   0  0  0  0  0  0  0  0  0  0  0  0
    0.6153   -0.3021   -0.1188 C   0  0  0  0  0  0  0  0  0  0  0  0
    1.5354   -1.7170    0.5545 S   0  0  0  0  0  0  0  0  0  0  0  0
   -1.1018   -0.3317    1.1984 H   0  0  0  0  0  0  0  0  0  0  0  0
   -1.3114   -1.2723   -0.2799 H   0  0  0  0  0  0  0  0  0  0  0  0
   -1.3767    0.4976   -0.3363 H   0  0  0  0  0  0  0  0  0  0  0  0
    1.0467    0.6194    0.2718 H   0  0  0  0  0  0  0  0  0  0  0  0
    0.8295   -0.3275   -1.1882 H   0  0  0  0  0  0  0  0  0  0  0  0
    1.2306   -1.5077    1.8423 H   0  0  0  0  0  0  0  0  0  0  0  0
  1  2  1  0
  1  4  1  0
  1  5  1  0
  1  6  1  0
  2  3  1  0
  2  7  1  0
  2  8  1  0
  3  9  1  0
M  END
>  <reaction>  (1) 
rxn_1900

>  <mol_properties>  (1) 
{"1": {"label": "donator", "atom_type": "Cs"}, "6": {"label": "d_hydrogen", "atom_type": "H0"}}

>  <type>  (1) 
r1h

$$$$

     RDKit          3D

 18 18  0  0  0  0  0  0  0  0999 V2000
    2.7512    0.0489   -0.5734 C   0  0  0  0  0  0  0  0  0  0  0  0
    1.4277   -0.4568   -0.0957 C   0  0  0  0  0  3  0  0  0  0  0  0
    0.5787   -1.2468   -0.9255 C   0  0  0  0  0  0  0  0  0  0  0  0
    0.9949   -1.6342   -2.2194 C   0  0  0  0  0  0  0  0  0  0  0  0
    0.1850   -2.4001   -3.0330 C   0  0  0  0  0  0  0  0  0  0  0  0
   -1.0677   -2.8151   -2.5986 C   0  0  0  0  0  0  0  0  0  0  0  0
   -1.4988   -2.4481   -1.3288 C   0  0  0  0  0  0  0  0  0  0  0  0
   -0.6986   -1.6827   -0.5072 C   0  0  0  0  0  0  0  0  0  0  0  0
    0.9655   -0.2084    1.5666 S   0  0  0  0  0  0  0  0  0  0  0  0
    3.1739    0.7873    0.1063 H   0  0  0  0  0  0  0  0  0  0  0  0
    3.4796   -0.7649   -0.6651 H   0  0  0  0  0  0  0  0  0  0  0  0
    2.6603    0.5178   -1.5558 H   0  0  0  0  0  0  0  0  0  0  0  0
    1.9693   -1.3375   -2.5829 H   0  0  0  0  0  0  0  0  0  0  0  0
    0.5357   -2.6808   -4.0185 H   0  0  0  0  0  0  0  0  0  0  0  0
   -1.6995   -3.4158   -3.2398 H   0  0  0  0  0  0  0  0  0  0  0  0
   -2.4742   -2.7614   -0.9778 H   0  0  0  0  0  0  0  0  0  0  0  0
   -1.0689   -1.4003    0.4702 H   0  0  0  0  0  0  0  0  0  0  0  0
    1.8478    0.7580    1.8433 H   0  0  0  0  0  0  0  0  0  0  0  0
  1  2  1  0
  1 10  1  0
  1 11  1  0
  1 12  1  0
  2  3  1  0
  2  9  1  0
  3  4  2  0
  3  8  1  0
  4  5  1  0
  4 13  1  0
  5  6  2  0
  5 14  1  0
  6  7  1  0
  6 15  1  0
  7  8  2  0
  7 16  1  0
  8 17  1  0
  9 18  1  0
M  RAD  1   2   2
M  END
>  <reaction>  (2) 
rxn_1900

>  <mol_properties>  (2) 
{"1": {"label": "acceptor", "atom_type": "Cs"}}

>  <type>  (2) 
r2

$$$$

     RDKit          3D

 19 19  0  0  0  0  0  0  0  0999 V2000
    2.2396    0.0552    0.8759 C   0  0  0  0  0  0  0  0  0  0  0  0
    1.4030   -0.9182    0.0491 C   0  0  0  0  0  0  0  0  0  0  0  0
    1.9465   -1.1096   -1.3460 C   0  0  0  0  0  0  0  0  0  0  0  0
    3.2062   -1.6607   -1.5671 C   0  0  0  0  0  0  0  0  0  0  0  0
    3.7015   -1.7950   -2.8519 C   0  0  0  0  0  0  0  0  0  0  0  0
    2.9436   -1.3845   -3.9410 C   0  0  0  0  0  0  0  0  0  0  0  0
    1.6880   -0.8403   -3.7327 C   0  0  0  0  0  0  0  0  0  0  0  0
    1.1950   -0.7046   -2.4420 C   0  0  0  0  0  0  0  0  0  0  0  0
    1.2970   -2.4864    0.9925 S   0  0  0  0  0  0  0  0  0  0  0  0
    2.2863    1.0196    0.3684 H   0  0  0  0  0  0  0  0  0  0  0  0
    1.8023    0.2034    1.8644 H   0  0  0  0  0  0  0  0  0  0  0  0
    3.2592   -0.3118    1.0018 H   0  0  0  0  0  0  0  0  0  0  0  0
    0.3897   -0.5237   -0.0274 H   0  0  0  0  0  0  0  0  0  0  0  0
    3.7943   -2.0027   -0.7240 H   0  0  0  0  0  0  0  0  0  0  0  0
    4.6828   -2.2258   -3.0068 H   0  0  0  0  0  0  0  0  0  0  0  0
    3.3313   -1.4930   -4.9459 H   0  0  0  0  0  0  0  0  0  0  0  0
    1.0868   -0.5204   -4.5746 H   0  0  0  0  0  0  0  0  0  0  0  0
    0.2111   -0.2764   -2.2859 H   0  0  0  0  0  0  0  0  0  0  0  0
    0.6371   -3.1863    0.0608 H   0  0  0  0  0  0  0  0  0  0  0  0
  1  2  1  0
  1 10  1  0
  1 11  1  0
  1 12  1  0
  2  3  1  0
  2  9  1  0
  2 13  1  0
  3  4  2  0
  3  8  1  0
  4  5  1  0
  4 14  1  0
  5  6  2  0
  5 15  1  0
  6  7  1  0
  6 16  1  0
  7  8  2  0
  7 17  1  0
  8 18  1  0
  9 19  1  0
M  END
>  <reaction>  (3) 
rxn_1900

>  <mol_properties>  (3) 
{"1": {"label": "acceptor", "atom_type": "Cs"}, "18": {"label": "a_hydrogen", "atom_type": "H0"}}

>  <type>  (3) 
r2h

$$$$

     RDKit          3D

 27 26  0  0  0  0  0  0  0  0999 V2000
   -0.0804   -2.1980    1.1822 C   0  0  0  0  0  0  0  0  0  0  0  0
    0.0994   -1.3163   -0.0328 C   0  0  0  0  0  0  0  0  0  0  0  0
    0.8201   -0.0292    0.1524 C   0  0  0  0  0  0  0  0  0  0  0  0
    1.1515    0.4366    1.4280 C   0  0  0  0  0  0  0  0  0  0  0  0
    1.7459    1.6763    1.6058 C   0  0  0  0  0  0  0  0  0  0  0  0
    2.0178    2.4876    0.5165 C   0  0  0  0  0  0  0  0  0  0  0  0
    1.6962    2.0401   -0.7577 C   0  0  0  0  0  0  0  0  0  0  0  0
    1.1101    0.8004   -0.9371 C   0  0  0  0  0  0  0  0  0  0  0  0
    0.4748   -2.2275   -1.5432 S   0  0  0  0  0  0  0  0  0  0  0  0
   -0.6544   -3.0843    0.9166 H   0  0  0  0  0  0  0  0  0  0  0  0
    0.8819   -2.5291    1.5846 H   0  0  0  0  0  0  0  0  0  0  0  0
   -0.6198   -1.6680    1.9706 H   0  0  0  0  0  0  0  0  0  0  0  0
    0.9452   -0.1709    2.2978 H   0  0  0  0  0  0  0  0  0  0  0  0
    1.9960    2.0081    2.6058 H   0  0  0  0  0  0  0  0  0  0  0  0
    2.4800    3.4563    0.6565 H   0  0  0  0  0  0  0  0  0  0  0  0
    1.9068    2.6609   -1.6198 H   0  0  0  0  0  0  0  0  0  0  0  0
    0.8729    0.4573   -1.9356 H   0  0  0  0  0  0  0  0  0  0  0  0
    1.8000   -2.3458   -1.3621 H   0  0  0  0  0  0  0  0  0  0  0  0
   -2.3816    0.2578   -1.8047 C   0  0  0  0  0  0  0  0  0  0  0  0
   -2.4050   -0.3953   -0.4497 C   0  0  0  0  0  3  0  0  0  0  0  0
   -2.6848    0.6280    0.9651 S   0  0  0  0  0  0  0  0  0  0  0  0
   -1.6562    1.0732   -1.8296 H   0  0  0  0  0  0  0  0  0  0  0  0
   -3.3607    0.6711   -2.0628 H   0  0  0  0  0  0  0  0  0  0  0  0
   -2.1010   -0.4676   -2.5709 H   0  0  0  0  0  0  0  0  0  0  0  0
   -1.1338   -0.9222   -0.2823 H   0  0  0  0  0  0  0  0  0  0  0  0
   -3.0454   -1.2726   -0.3750 H   0  0  0  0  0  0  0  0  0  0  0  0
   -1.7410    1.5414    0.6893 H   0  0  0  0  0  0  0  0  0  0  0  0
  1  2  1  0
  1 10  1  0
  1 11  1  0
  1 12  1  0
  2  3  1  0
  2  9  1  0
  2 25  1  0
  3  4  2  0
  3  8  1  0
  4  5  1  0
  4 13  1  0
  5  6  2  0
  5 14  1  0
  6  7  1  0
  6 15  1  0
  7  8  2  0
  7 16  1  0
  8 17  1  0
  9 18  1  0
 19 20  1  0
 19 22  1  0
 19 23  1  0
 19 24  1  0
 20 21  1  0
 20 26  1  0
 21 27  1  0
M  RAD  1  20   2
M  END
>  <reaction>  (4) 
rxn_1900

>  <mol_properties>  (4) 
{"1": {"label": "*1", "atom_type": "Cs"}, "2": {"label": "*0", "atom_type": "Cd"}, "19": {"label": "*3", "atom_type": "Cs"}, "20": {"label": "*4", "atom_type": "S2s"}, "24": {"label": "*2", "atom_type": "H0"}}

>  <type>  (4) 
ts

$$$$

     RDKit          3D

 27 26  0  0  0  0  0  0  0  0999 V2000
    1.0717    1.1490    1.2817 C   0  0  0  0  0  0  0  0  0  0  0  0
    0.2166    0.2124    0.4316 C   0  0  0  0  0  3  0  0  0  0  0  0
    0.9820   -0.9975   -0.0465 C   0  0  0  0  0  0  0  0  0  0  0  0
    1.5041   -1.9287    0.8479 C   0  0  0  0  0  0  0  0  0  0  0  0
    2.2335   -3.0123    0.3920 C   0  0  0  0  0  0  0  0  0  0  0  0
    2.4508   -3.1875   -0.9686 C   0  0  0  0  0  0  0  0  0  0  0  0
    1.9318   -2.2708   -1.8665 C   0  0  0  0  0  0  0  0  0  0  0  0
    1.2025   -1.1831   -1.4055 C   0  0  0  0  0  0  0  0  0  0  0  0
   -1.2625   -0.2271    1.4213 S   0  0  0  0  0  0  0  0  0  0  0  0
    0.5047    2.0318    1.5803 H   0  0  0  0  0  0  0  0  0  0  0  0
    1.4273    0.6470    2.1827 H   0  0  0  0  0  0  0  0  0  0  0  0
    1.9412    1.4722    0.7078 H   0  0  0  0  0  0  0  0  0  0  0  0
    1.3206   -1.8101    1.9090 H   0  0  0  0  0  0  0  0  0  0  0  0
    2.6323   -3.7275    1.1004 H   0  0  0  0  0  0  0  0  0  0  0  0
    3.0192   -4.0376   -1.3240 H   0  0  0  0  0  0  0  0  0  0  0  0
    2.0918   -2.3995   -2.9297 H   0  0  0  0  0  0  0  0  0  0  0  0
    0.7998   -0.4681   -2.1142 H   0  0  0  0  0  0  0  0  0  0  0  0
   -1.7823   -1.0996    0.5484 H   0  0  0  0  0  0  0  0  0  0  0  0
   -1.8075    1.5712   -2.0354 C   0  0  0  0  0  0  0  0  0  0  0  0
   -1.8075    1.5712   -0.5168 C   0  0  0  0  0  0  0  0  0  0  0  0
   -1.8075    3.2286    0.2282 S   0  0  0  0  0  0  0  0  0  0  0  0
   -0.9008    2.0366   -2.4262 H   0  0  0  0  0  0  0  0  0  0  0  0
   -2.6634    2.1224   -2.4255 H   0  0  0  0  0  0  0  0  0  0  0  0
   -1.8505    0.5479   -2.4157 H   0  0  0  0  0  0  0  0  0  0  0  0
   -0.7956    0.8919   -0.0426 H   0  0  0  0  0  0  0  0  0  0  0  0
   -2.7151    1.1042   -0.1316 H   0  0  0  0  0  0  0  0  0  0  0  0
   -0.6327    3.6303   -0.2753 H   0  0  0  0  0  0  0  0  0  0  0  0
  1  2  1  0
  1 10  1  0
  1 11  1  0
  1 12  1  0
  2  3  1  0
  2  9  1  0
  3  4  2  0
  3  8  1  0
  4  5  1  0
  4 13  1  0
  5  6  2  0
  5 14  1  0
  6  7  1  0
  6 15  1  0
  7  8  2  0
  7 16  1  0
  8 17  1  0
  9 18  1  0
 19 20  1  0
 19 22  1  0
 19 23  1  0
 19 24  1  0
 20 21  1  0
 20 25  1  0
 20 26  1  0
 21 27  1  0
M  RAD  1   2   2
M  END
>  <reaction>  (5) 
rxn_1900

>  <mol_properties>  (5) 
{"1": {"label": "*1", "atom_type": "Cs"}, "2": {"label": "*0", "atom_type": "Cd"}, "19": {"label": "*3", "atom_type": "Cs"}, "20": {"label": "*4", "atom_type": "S2s"}, "24": {"label": "*2", "atom_type": "H0"}}

>  <type>  (5) 
unop_1

>  <geom_source>  (5) 
Heuristics

$$$$

     RDKit          3D

 27 26  0  0  0  0  0  0  0  0999 V2000
    1.7702    0.2400   -1.2563 C   0  0  0  0  0  0  0  0  0  0  0  0
    0.6150    0.1433   -0.2626 C   0  0  0  0  0  3  0  0  0  0  0  0
    0.4533   -1.2459    0.3048 C   0  0  0  0  0  0  0  0  0  0  0  0
    1.4525   -1.8397    1.0720 C   0  0  0  0  0  0  0  0  0  0  0  0
    1.3003   -3.1278    1.5534 C   0  0  0  0  0  0  0  0  0  0  0  0
    0.1429   -3.8452    1.2802 C   0  0  0  0  0  0  0  0  0  0  0  0
   -0.8589   -3.2625    0.5232 C   0  0  0  0  0  0  0  0  0  0  0  0
   -0.7018   -1.9707    0.0395 C   0  0  0  0  0  0  0  0  0  0  0  0
    0.8983    1.4114    1.0304 S   0  0  0  0  0  0  0  0  0  0  0  0
    1.8388    1.2436   -1.6784 H   0  0  0  0  0  0  0  0  0  0  0  0
    2.7212    0.0018   -0.7777 H   0  0  0  0  0  0  0  0  0  0  0  0
    1.6128   -0.4692   -2.0701 H   0  0  0  0  0  0  0  0  0  0  0  0
    2.3489   -1.2785    1.3070 H   0  0  0  0  0  0  0  0  0  0  0  0
    2.0865   -3.5749    2.1488 H   0  0  0  0  0  0  0  0  0  0  0  0
    0.0239   -4.8519    1.6602 H   0  0  0  0  0  0  0  0  0  0  0  0
   -1.7671   -3.8111    0.3072 H   0  0  0  0  0  0  0  0  0  0  0  0
   -1.4899   -1.5207   -0.5539 H   0  0  0  0  0  0  0  0  0  0  0  0
   -0.1384    1.0764    1.8092 H   0  0  0  0  0  0  0  0  0  0  0  0
   -1.4091    1.5022   -2.7297 C   0  0  0  0  0  0  0  0  0  0  0  0
   -1.4091    1.5022   -1.2110 C   0  0  0  0  0  0  0  0  0  0  0  0
   -1.4091    3.1595   -0.4661 S   0  0  0  0  0  0  0  0  0  0  0  0
   -0.5024    1.9676   -3.1205 H   0  0  0  0  0  0  0  0  0  0  0  0
   -2.2650    2.0534   -3.1198 H   0  0  0  0  0  0  0  0  0  0  0  0
   -1.4522    0.4788   -3.1100 H   0  0  0  0  0  0  0  0  0  0  0  0
   -0.3972    0.8228   -0.7369 H   0  0  0  0  0  0  0  0  0  0  0  0
   -2.3167    1.0351   -0.8259 H   0  0  0  0  0  0  0  0  0  0  0  0
   -0.2343    3.5612   -0.9696 H   0  0  0  0  0  0  0  0  0  0  0  0
  1  2  1  0
  1 10  1  0
  1 11  1  0
  1 12  1  0
  2  3  1  0
  2  9  1  0
  3  4  2  0
  3  8  1  0
  4  5  1  0
  4 13  1  0
  5  6  2  0
  5 14  1  0
  6  7  1  0
  6 15  1  0
  7  8  2  0
  7 16  1  0
  8 17  1  0
  9 18  1  0
 19 20  1  0
 19 22  1  0
 19 23  1  0
 19 24  1  0
 20 21  1  0
 20 25  1  0
 20 26  1  0
 21 27  1  0
M  RAD  1   2   2
M  END
>  <reaction>  (6) 
rxn_1900

>  <mol_properties>  (6) 
{"1": {"label": "*1", "atom_type": "Cs"}, "2": {"label": "*0", "atom_type": "Cd"}, "19": {"label": "*3", "atom_type": "Cs"}, "20": {"label": "*4", "atom_type": "S2s"}, "24": {"label": "*2", "atom_type": "H0"}}

>  <type>  (6) 
unop_2

>  <geom_source>  (6) 
Heuristics

$$$$

     RDKit          3D

 27 26  0  0  0  0  0  0  0  0999 V2000
    0.3119    0.4809    2.0518 C   0  0  0  0  0  0  0  0  0  0  0  0
   -0.0881   -0.1227    0.7077 C   0  0  0  0  0  3  0  0  0  0  0  0
    1.0908   -0.6836   -0.0498 C   0  0  0  0  0  0  0  0  0  0  0  0
    1.8405   -1.7444    0.4523 C   0  0  0  0  0  0  0  0  0  0  0  0
    2.9394   -2.2212   -0.2400 C   0  0  0  0  0  0  0  0  0  0  0  0
    3.3066   -1.6485   -1.4508 C   0  0  0  0  0  0  0  0  0  0  0  0
    2.5651   -0.5971   -1.9616 C   0  0  0  0  0  0  0  0  0  0  0  0
    1.4645   -0.1194   -1.2630 C   0  0  0  0  0  0  0  0  0  0  0  0
   -1.3848   -1.3763    1.0353 S   0  0  0  0  0  0  0  0  0  0  0  0
   -0.5525    0.9121    2.5587 H   0  0  0  0  0  0  0  0  0  0  0  0
    0.7537   -0.2730    2.7051 H   0  0  0  0  0  0  0  0  0  0  0  0
    1.0505    1.2679    1.8939 H   0  0  0  0  0  0  0  0  0  0  0  0
    1.5475   -2.2100    1.3856 H   0  0  0  0  0  0  0  0  0  0  0  0
    3.5116   -3.0470    0.1639 H   0  0  0  0  0  0  0  0  0  0  0  0
    4.1649   -2.0247   -1.9929 H   0  0  0  0  0  0  0  0  0  0  0  0
    2.8399   -0.1454   -2.9065 H   0  0  0  0  0  0  0  0  0  0  0  0
    0.8887    0.7052   -1.6682 H   0  0  0  0  0  0  0  0  0  0  0  0
   -1.4936   -1.8227   -0.2226 H   0  0  0  0  0  0  0  0  0  0  0  0
   -2.1122    1.2362   -1.7594 C   0  0  0  0  0  0  0  0  0  0  0  0
   -2.1122    1.2362   -0.2407 C   0  0  0  0  0  0  0  0  0  0  0  0
   -2.1122    2.8935    0.5042 S   0  0  0  0  0  0  0  0  0  0  0  0
   -1.2056    1.7016   -2.1502 H   0  0  0  0  0  0  0  0  0  0  0  0
   -2.9682    1.7874   -2.1495 H   0  0  0  0  0  0  0  0  0  0  0  0
   -2.1553    0.2128   -2.1397 H   0  0  0  0  0  0  0  0  0  0  0  0
   -1.1003    0.5568    0.2334 H   0  0  0  0  0  0  0  0  0  0  0  0
   -3.0198    0.7691    0.1444 H   0  0  0  0  0  0  0  0  0  0  0  0
   -0.9374    3.2952    0.0007 H   0  0  0  0  0  0  0  0  0  0  0  0
  1  2  1  0
  1 10  1  0
  1 11  1  0
  1 12  1  0
  2  3  1  0
  2  9  1  0
  3  4  2  0
  3  8  1  0
  4  5  1  0
  4 13  1  0
  5  6  2  0
  5 14  1  0
  6  7  1  0
  6 15  1  0
  7  8  2  0
  7 16  1  0
  8 17  1  0
  9 18  1  0
 19 20  1  0
 19 22  1  0
 19 23  1  0
 19 24  1  0
 20 21  1  0
 20 25  1  0
 20 26  1  0
 21 27  1  0
M  RAD  1   2   2
M  END
>  <reaction>  (7) 
rxn_1900

>  <mol_properties>  (7) 
{"1": {"label": "*1", "atom_type": "Cs"}, "2": {"label": "*0", "atom_type": "Cd"}, "19": {"label": "*3", "atom_type": "Cs"}, "20": {"label": "*4", "atom_type": "S2s"}, "24": {"label": "*2", "atom_type": "H0"}}

>  <type>  (7) 
unop_3

>  <geom_source>  (7) 
Heuristics

$$$$

     RDKit          3D

 27 26  0  0  0  0  0  0  0  0999 V2000
    0.8075   -2.2548   -1.1620 C   0  0  0  0  0  0  0  0  0  0  0  0
    0.9147   -0.8160   -0.6623 C   0  0  0  0  0  3  0  0  0  0  0  0
    0.1673   -0.5940    0.6301 C   0  0  0  0  0  0  0  0  0  0  0  0
    0.5235   -1.2594    1.8004 C   0  0  0  0  0  0  0  0  0  0  0  0
   -0.1963   -1.0696    2.9666 C   0  0  0  0  0  0  0  0  0  0  0  0
   -1.2841   -0.2062    2.9853 C   0  0  0  0  0  0  0  0  0  0  0  0
   -1.6434    0.4644    1.8289 C   0  0  0  0  0  0  0  0  0  0  0  0
   -0.9205    0.2696    0.6597 C   0  0  0  0  0  0  0  0  0  0  0  0
    2.6984   -0.4141   -0.5306 S   0  0  0  0  0  0  0  0  0  0  0  0
    1.3237   -2.3762   -2.1153 H   0  0  0  0  0  0  0  0  0  0  0  0
    1.2406   -2.9531   -0.4443 H   0  0  0  0  0  0  0  0  0  0  0  0
   -0.2423   -2.5168   -1.2994 H   0  0  0  0  0  0  0  0  0  0  0  0
    1.3837   -1.9181    1.7988 H   0  0  0  0  0  0  0  0  0  0  0  0
    0.0939   -1.5943    3.8682 H   0  0  0  0  0  0  0  0  0  0  0  0
   -1.8444   -0.0563    3.8993 H   0  0  0  0  0  0  0  0  0  0  0  0
   -2.4874    1.1428    1.8328 H   0  0  0  0  0  0  0  0  0  0  0  0
   -1.2082    0.7971   -0.2429 H   0  0  0  0  0  0  0  0  0  0  0  0
    2.5461    0.8043    0.0038 H   0  0  0  0  0  0  0  0  0  0  0  0
   -1.1094    0.5429   -3.1294 C   0  0  0  0  0  0  0  0  0  0  0  0
   -1.1094    0.5429   -1.6107 C   0  0  0  0  0  0  0  0  0  0  0  0
   -1.1094    2.2002   -0.8657 S   0  0  0  0  0  0  0  0  0  0  0  0
   -0.2028    1.0083   -3.5201 H   0  0  0  0  0  0  0  0  0  0  0  0
   -1.9654    1.0941   -3.5195 H   0  0  0  0  0  0  0  0  0  0  0  0
   -1.1525   -0.4805   -3.5097 H   0  0  0  0  0  0  0  0  0  0  0  0
   -0.0975   -0.1365   -1.1366 H   0  0  0  0  0  0  0  0  0  0  0  0
   -2.0170    0.0758   -1.2256 H   0  0  0  0  0  0  0  0  0  0  0  0
    0.0654    2.6019   -1.3693 H   0  0  0  0  0  0  0  0  0  0  0  0
  1  2  1  0
  1 10  1  0
  1 11  1  0
  1 12  1  0
  2  3  1  0
  2  9  1  0
  3  4  2  0
  3  8  1  0
  4  5  1  0
  4 13  1  0
  5  6  2  0
  5 14  1  0
  6  7  1  0
  6 15  1  0
  7  8  2  0
  7 16  1  0
  8 17  1  0
  9 18  1  0
 19 20  1  0
 19 22  1  0
 19 23  1  0
 19 24  1  0
 20 21  1  0
 20 25  1  0
 20 26  1  0
 21 27  1  0
M  RAD  1   2   2
M  END
>  <reaction>  (8) 
rxn_1900

>  <mol_properties>  (8) 
{"1": {"label": "*1", "atom_type": "Cs"}, "2": {"label": "*0", "atom_type": "Cd"}, "19": {"label": "*3", "atom_type": "Cs"}, "20": {"label": "*4", "atom_type": "S2s"}, "24": {"label": "*2", "atom_type": "H0"}}

>  <type>  (8) 
unop_4

>  <geom_source>  (8) 
Heuristics

$$$$

     RDKit          3D

 27 26  0  0  0  0  0  0  0  0999 V2000
   -0.3515   -0.8332    2.1903 C   0  0  0  0  0  0  0  0  0  0  0  0
   -0.2895   -0.8748    0.6654 C   0  0  0  0  0  3  0  0  0  0  0  0
    0.9841   -0.2755    0.1204 C   0  0  0  0  0  0  0  0  0  0  0  0
    2.2295   -0.8298    0.4054 C   0  0  0  0  0  0  0  0  0  0  0  0
    3.3881   -0.2450   -0.0741 C   0  0  0  0  0  0  0  0  0  0  0  0
    3.3224    0.9035   -0.8523 C   0  0  0  0  0  0  0  0  0  0  0  0
    2.0893    1.4596   -1.1461 C   0  0  0  0  0  0  0  0  0  0  0  0
    0.9288    0.8717   -0.6612 C   0  0  0  0  0  0  0  0  0  0  0  0
   -0.5298   -2.6192    0.1556 S   0  0  0  0  0  0  0  0  0  0  0  0
   -1.2976   -1.2369    2.5536 H   0  0  0  0  0  0  0  0  0  0  0  0
    0.4618   -1.4106    2.6325 H   0  0  0  0  0  0  0  0  0  0  0  0
   -0.2599    0.1986    2.5320 H   0  0  0  0  0  0  0  0  0  0  0  0
    2.2873   -1.7375    0.9940 H   0  0  0  0  0  0  0  0  0  0  0  0
    4.3486   -0.6887    0.1563 H   0  0  0  0  0  0  0  0  0  0  0  0
    4.2296    1.3581   -1.2294 H   0  0  0  0  0  0  0  0  0  0  0  0
    2.0259    2.3527   -1.7551 H   0  0  0  0  0  0  0  0  0  0  0  0
   -0.0338    1.3131   -0.8941 H   0  0  0  0  0  0  0  0  0  0  0  0
   -0.3369   -2.4279   -1.1558 H   0  0  0  0  0  0  0  0  0  0  0  0
   -2.3136    0.4840   -1.8017 C   0  0  0  0  0  0  0  0  0  0  0  0
   -2.3136    0.4840   -0.2830 C   0  0  0  0  0  0  0  0  0  0  0  0
   -2.3136    2.1414    0.4619 S   0  0  0  0  0  0  0  0  0  0  0  0
   -1.4069    0.9495   -2.1925 H   0  0  0  0  0  0  0  0  0  0  0  0
   -3.1695    1.0352   -2.1918 H   0  0  0  0  0  0  0  0  0  0  0  0
   -2.3567   -0.5393   -2.1820 H   0  0  0  0  0  0  0  0  0  0  0  0
   -1.3017   -0.1953    0.1911 H   0  0  0  0  0  0  0  0  0  0  0  0
   -3.2212    0.0170    0.1021 H   0  0  0  0  0  0  0  0  0  0  0  0
   -1.1388    2.5431   -0.0416 H   0  0  0  0  0  0  0  0  0  0  0  0
  1  2  1  0
  1 10  1  0
  1 11  1  0
  1 12  1  0
  2  3  1  0
  2  9  1  0
  3  4  2  0
  3  8  1  0
  4  5  1  0
  4 13  1  0
  5  6  2  0
  5 14  1  0
  6  7  1  0
  6 15  1  0
  7  8  2  0
  7 16  1  0
  8 17  1  0
  9 18  1  0
 19 20  1  0
 19 22  1  0
 19 23  1  0
 19 24  1  0
 20 21  1  0
 20 25  1  0
 20 26  1  0
 21 27  1  0
M  RAD  1   2   2
M  END
>  <reaction>  (9) 
rxn_1900

>  <mol_properties>  (9) 
{"1": {"label": "*1", "atom_type": "Cs"}, "2": {"label": "*0", "atom_type": "Cd"}, "19": {"label": "*3", "atom_type": "Cs"}, "20": {"label": "*4", "atom_type": "S2s"}, "24": {"label": "*2", "atom_type": "H0"}}

>  <type>  (9) 
unop_5

>  <geom_source>  (9) 
Heuristics

$$$$

     RDKit          3D

 27 25  0  0  0  0  0  0  0  0999 V2000
    0.2745   -2.7000   -0.3680 C   0  0  0  0  0  0  0  0  0  0  0  0
    0.7078   -1.2465   -0.5433 C   0  0  0  0  0  3  0  0  0  0  0  0
    0.2614   -0.3667    0.5990 C   0  0  0  0  0  0  0  0  0  0  0  0
    0.7154   -0.5755    1.8990 C   0  0  0  0  0  0  0  0  0  0  0  0
    0.2668    0.2193    2.9388 C   0  0  0  0  0  0  0  0  0  0  0  0
   -0.6415    1.2418    2.6970 C   0  0  0  0  0  0  0  0  0  0  0  0
   -1.0951    1.4614    1.4078 C   0  0  0  0  0  0  0  0  0  0  0  0
   -0.6450    0.6603    0.3671 C   0  0  0  0  0  3  0  0  0  0  0  0
    2.5261   -1.2420   -0.7760 S   0  0  0  0  0  0  0  0  0  0  0  0
    0.5768   -3.3033   -1.2252 H   0  0  0  0  0  0  0  0  0  0  0  0
    0.7131   -3.1350    0.5312 H   0  0  0  0  0  0  0  0  0  0  0  0
   -0.8111   -2.7491   -0.2740 H   0  0  0  0  0  0  0  0  0  0  0  0
    1.4401   -1.3574    2.0917 H   0  0  0  0  0  0  0  0  0  0  0  0
    0.6299    0.0442    3.9438 H   0  0  0  0  0  0  0  0  0  0  0  0
   -0.9892    1.8649    3.5112 H   0  0  0  0  0  0  0  0  0  0  0  0
   -1.8005    2.2580    1.2070 H   0  0  0  0  0  0  0  0  0  0  0  0
   -1.0053    0.8369   -0.6403 H   0  0  0  0  0  0  0  0  0  0  0  0
    2.6784    0.0883   -0.7998 H   0  0  0  0  0  0  0  0  0  0  0  0
   -1.3163    0.1124   -3.0103 C   0  0  0  0  0  0  0  0  0  0  0  0
   -1.3163    0.1124   -1.4917 C   0  0  0  0  0  3  0  0  0  0  0  0
   -1.3163    1.7698   -0.7467 S   0  0  0  0  0  0  0  0  0  0  0  0
   -0.4097    0.5778   -3.4011 H   0  0  0  0  0  0  0  0  0  0  0  0
   -2.1723    0.6636   -3.4004 H   0  0  0  0  0  0  0  0  0  0  0  0
   -1.3594   -0.9109   -3.3906 H   0  0  0  0  0  0  0  0  0  0  0  0
   -0.3044   -0.5669   -1.0175 H   0  0  0  0  0  0  0  0  0  0  0  0
   -2.2239   -0.3546   -1.1065 H   0  0  0  0  0  0  0  0  0  0  0  0
   -0.1415    2.1715   -1.2502 H   0  0  0  0  0  0  0  0  0  0  0  0
  1  2  1  0
  1 10  1  0
  1 11  1  0
  1 12  1  0
  2  3  1  0
  2  9  1  0
  3  4  2  0
  3  8  1  0
  4  5  1  0
  4 13  1  0
  5  6  2  0
  5 14  1  0
  6  7  1  0
  6 15  1  0
  7  8  2  0
  7 16  1  0
  9 18  1  0
 17 21  1  0
 19 20  1  0
 19 22  1  0
 19 23  1  0
 19 24  1  0
 20 25  1  0
 20 26  1  0
 21 27  1  0
M  CHG  2   2   1   8  -1
M  RAD  1  20   2
M  END
>  <reaction>  (10) 
rxn_1900

>  <mol_properties>  (10) 
{"1": {"label": "*1", "atom_type": "Cs"}, "2": {"label": "*0", "atom_type": "Cd"}, "19": {"label": "*3", "atom_type": "Cs"}, "20": {"label": "*4", "atom_type": "S2s"}, "24": {"label": "*2", "atom_type": "H0"}}

>  <type>  (10) 
unop_6

>  <geom_source>  (10) 
Heuristics

$$$$

     RDKit          3D

 27 25  0  0  0  0  0  0  0  0999 V2000
   -0.1612   -2.6586    0.6125 C   0  0  0  0  0  0  0  0  0  0  0  0
    0.3819   -1.5126   -0.2376 C   0  0  0  0  0  3  0  0  0  0  0  0
    0.4158   -0.2018    0.5100 C   0  0  0  0  0  0  0  0  0  0  0  0
    1.2088   -0.0298    1.6419 C   0  0  0  0  0  0  0  0  0  0  0  0
    1.1990    1.1679    2.3344 C   0  0  0  0  0  0  0  0  0  0  0  0
    0.3988    2.2186    1.9047 C   0  0  0  0  0  0  0  0  0  0  0  0
   -0.3891    2.0601    0.7777 C   0  0  0  0  0  0  0  0  0  0  0  0
   -0.3789    0.8560    0.0866 C   0  0  0  0  0  3  0  0  0  0  0  0
    2.0311   -2.0227   -0.8541 S   0  0  0  0  0  0  0  0  0  0  0  0
   -0.2104   -3.5832    0.0355 H   0  0  0  0  0  0  0  0  0  0  0  0
    0.4678   -2.8314    1.4871 H   0  0  0  0  0  0  0  0  0  0  0  0
   -1.1653   -2.4121    0.9600 H   0  0  0  0  0  0  0  0  0  0  0  0
    1.8515   -0.8376    1.9707 H   0  0  0  0  0  0  0  0  0  0  0  0
    1.8217    1.2856    3.2125 H   0  0  0  0  0  0  0  0  0  0  0  0
    0.3946    3.1562    2.4458 H   0  0  0  0  0  0  0  0  0  0  0  0
   -1.0140    2.8738    0.4314 H   0  0  0  0  0  0  0  0  0  0  0  0
   -0.9995    0.7382   -0.7947 H   0  0  0  0  0  0  0  0  0  0  0  0
    2.3384   -0.8669   -1.4566 H   0  0  0  0  0  0  0  0  0  0  0  0
   -1.6422   -0.1537   -2.7047 C   0  0  0  0  0  0  0  0  0  0  0  0
   -1.6422   -0.1537   -1.1860 C   0  0  0  0  0  3  0  0  0  0  0  0
   -1.6422    1.5037   -0.4410 S   0  0  0  0  0  0  0  0  0  0  0  0
   -0.7356    0.3117   -3.0954 H   0  0  0  0  0  0  0  0  0  0  0  0
   -2.4982    0.3975   -3.0948 H   0  0  0  0  0  0  0  0  0  0  0  0
   -1.6853   -1.1771   -3.0849 H   0  0  0  0  0  0  0  0  0  0  0  0
   -0.6303   -0.8330   -0.7119 H   0  0  0  0  0  0  0  0  0  0  0  0
   -2.5498   -0.6207   -0.8009 H   0  0  0  0  0  0  0  0  0  0  0  0
   -0.4674    1.9053   -0.9445 H   0  0  0  0  0  0  0  0  0  0  0  0
  1  2  1  0
  1 10  1  0
  1 11  1  0
  1 12  1  0
  2  3  1  0
  2  9  1  0
  3  4  2  0
  3  8  1  0
  4  5  1  0
  4 13  1  0
  5  6  2  0
  5 14  1  0
  6  7  1  0
  6 15  1  0
  7  8  2  0
  7 16  1  0
  9 18  1  0
 17 21  1  0
 19 20  1  0
 19 22  1  0
 19 23  1  0
 19 24  1  0
 20 25  1  0
 20 26  1  0
 21 27  1  0
M  CHG  2   2   1   8  -1
M  RAD  1  20   2
M  END
>  <reaction>  (11) 
rxn_1900

>  <mol_properties>  (11) 
{"1": {"label": "*1", "atom_type": "Cs"}, "2": {"label": "*0", "atom_type": "Cd"}, "19": {"label": "*3", "atom_type": "Cs"}, "20": {"label": "*4", "atom_type": "S2s"}, "24": {"label": "*2", "atom_type": "H0"}}

>  <type>  (11) 
unop_7

>  <geom_source>  (11) 
Heuristics

$$$$

     RDKit          3D

 27 26  0  0  0  0  0  0  0  0999 V2000
    1.5779    1.2215    0.3042 C   0  0  0  0  0  0  0  0  0  0  0  0
    0.3967    0.2701    0.1290 C   0  0  0  0  0  3  0  0  0  0  0  0
    0.8242   -1.1747    0.0400 C   0  0  0  0  0  0  0  0  0  0  0  0
    1.4628   -1.8114    1.1013 C   0  0  0  0  0  0  0  0  0  0  0  0
    1.8791   -3.1259    0.9876 C   0  0  0  0  0  0  0  0  0  0  0  0
    1.6603   -3.8303   -0.1892 C   0  0  0  0  0  0  0  0  0  0  0  0
    1.0216   -3.2087   -1.2484 C   0  0  0  0  0  0  0  0  0  0  0  0
    0.6075   -1.8887   -1.1318 C   0  0  0  0  0  0  0  0  0  0  0  0
   -0.7677    0.5837    1.5097 S   0  0  0  0  0  0  0  0  0  0  0  0
    1.2430    2.2595    0.3265 H   0  0  0  0  0  0  0  0  0  0  0  0
    2.1162    1.0131    1.2300 H   0  0  0  0  0  0  0  0  0  0  0  0
    2.2730    1.0984   -0.5274 H   0  0  0  0  0  0  0  0  0  0  0  0
    1.6180   -1.2750    2.0297 H   0  0  0  0  0  0  0  0  0  0  0  0
    2.3739   -3.6066    1.8222 H   0  0  0  0  0  0  0  0  0  0  0  0
    1.9838   -4.8598   -0.2756 H   0  0  0  0  0  0  0  0  0  0  0  0
    0.8424   -3.7494   -2.1692 H   0  0  0  0  0  0  0  0  0  0  0  0
    0.1089   -1.4074   -1.9657 H   0  0  0  0  0  0  0  0  0  0  0  0
   -1.6300   -0.3974    1.2142 H   0  0  0  0  0  0  0  0  0  0  0  0
   -1.6274    1.6290   -2.3381 C   0  0  0  0  0  0  0  0  0  0  0  0
   -1.6274    1.6290   -0.8194 C   0  0  0  0  0  0  0  0  0  0  0  0
   -1.6274    3.2863   -0.0744 S   0  0  0  0  0  0  0  0  0  0  0  0
   -0.7208    2.0944   -2.7288 H   0  0  0  0  0  0  0  0  0  0  0  0
   -2.4834    2.1802   -2.7282 H   0  0  0  0  0  0  0  0  0  0  0  0
   -1.6705    0.6056   -2.7184 H   0  0  0  0  0  0  0  0  0  0  0  0
   -0.6155    0.9496   -0.3453 H   0  0  0  0  0  0  0  0  0  0  0  0
   -2.5350    1.1619   -0.4343 H   0  0  0  0  0  0  0  0  0  0  0  0
   -0.4526    3.6880   -0.5780 H   0  0  0  0  0  0  0  0  0  0  0  0
  1  2  1  0
  1 10  1  0
  1 11  1  0
  1 12  1  0
  2  3  1  0
  2  9  1  0
  3  4  2  0
  3  8  1  0
  4  5  1  0
  4 13  1  0
  5  6  2  0
  5 14  1  0
  6  7  1  0
  6 15  1  0
  7  8  2  0
  7 16  1  0
  8 17  1  0
  9 18  1  0
 19 20  1  0
 19 22  1  0
 19 23  1  0
 19 24  1  0
 20 21  1  0
 20 25  1  0
 20 26  1  0
 21 27  1  0
M  RAD  1   2   2
M  END
>  <reaction>  (12) 
rxn_1900

>  <mol_properties>  (12) 
{"1": {"label": "*1", "atom_type": "Cs"}, "2": {"label": "*0", "atom_type": "Cd"}, "19": {"label": "*3", "atom_type": "Cs"}, "20": {"label": "*4", "atom_type": "S2s"}, "24": {"label": "*2", "atom_type": "H0"}}

>  <type>  (12) 
unop_8

>  <geom_source>  (12) 
Heuristics

$$$$

     RDKit          3D

 27 26  0  0  0  0  0  0  0  0999 V2000
    1.2919   -1.4612   -1.5921 C   0  0  0  0  0  0  0  0  0  0  0  0
    0.9440   -0.3555   -0.5984 C   0  0  0  0  0  3  0  0  0  0  0  0
    0.1567   -0.8654    0.5841 C   0  0  0  0  0  0  0  0  0  0  0  0
    0.6946   -1.7952    1.4704 C   0  0  0  0  0  0  0  0  0  0  0  0
   -0.0558   -2.2774    2.5280 C   0  0  0  0  0  0  0  0  0  0  0  0
   -1.3579   -1.8349    2.7218 C   0  0  0  0  0  0  0  0  0  0  0  0
   -1.9005   -0.9068    1.8498 C   0  0  0  0  0  0  0  0  0  0  0  0
   -1.1456   -0.4269    0.7881 C   0  0  0  0  0  0  0  0  0  0  0  0
    2.5140    0.4558   -0.1111 S   0  0  0  0  0  0  0  0  0  0  0  0
    1.8262   -1.0579   -2.4535 H   0  0  0  0  0  0  0  0  0  0  0  0
    1.9159   -2.2256   -1.1267 H   0  0  0  0  0  0  0  0  0  0  0  0
    0.3762   -1.9384   -1.9435 H   0  0  0  0  0  0  0  0  0  0  0  0
    1.7168   -2.1290    1.3380 H   0  0  0  0  0  0  0  0  0  0  0  0
    0.3774   -2.9998    3.2084 H   0  0  0  0  0  0  0  0  0  0  0  0
   -1.9428   -2.2108    3.5516 H   0  0  0  0  0  0  0  0  0  0  0  0
   -2.9134   -0.5519    1.9935 H   0  0  0  0  0  0  0  0  0  0  0  0
   -1.5772    0.2991    0.1081 H   0  0  0  0  0  0  0  0  0  0  0  0
    1.9877    1.2806    0.8032 H   0  0  0  0  0  0  0  0  0  0  0  0
   -1.0801    1.0034   -3.0655 C   0  0  0  0  0  0  0  0  0  0  0  0
   -1.0801    1.0034   -1.5468 C   0  0  0  0  0  0  0  0  0  0  0  0
   -1.0801    2.6607   -0.8018 S   0  0  0  0  0  0  0  0  0  0  0  0
   -0.1734    1.4688   -3.4562 H   0  0  0  0  0  0  0  0  0  0  0  0
   -1.9360    1.5546   -3.4556 H   0  0  0  0  0  0  0  0  0  0  0  0
   -1.1231   -0.0200   -3.4457 H   0  0  0  0  0  0  0  0  0  0  0  0
   -0.0681    0.3240   -1.0727 H   0  0  0  0  0  0  0  0  0  0  0  0
   -1.9877    0.5363   -1.1617 H   0  0  0  0  0  0  0  0  0  0  0  0
    0.0948    3.0624   -1.3053 H   0  0  0  0  0  0  0  0  0  0  0  0
  1  2  1  0
  1 10  1  0
  1 11  1  0
  1 12  1  0
  2  3  1  0
  2  9  1  0
  3  4  2  0
  3  8  1  0
  4  5  1  0
  4 13  1  0
  5  6  2  0
  5 14  1  0
  6  7  1  0
  6 15  1  0
  7  8  2  0
  7 16  1  0
  8 17  1  0
  9 18  1  0
 19 20  1  0
 19 22  1  0
 19 23  1  0
 19 24  1  0
 20 21  1  0
 20 25  1  0
 20 26  1  0
 21 27  1  0
M  RAD  1   2   2
M  END
>  <reaction>  (13) 
rxn_1900

>  <mol_properties>  (13) 
{"1": {"label": "*1", "atom_type": "Cs"}, "2": {"label": "*0", "atom_type": "Cd"}, "19": {"label": "*3", "atom_type": "Cs"}, "20": {"label": "*4", "atom_type": "S2s"}, "24": {"label": "*2", "atom_type": "H0"}}

>  <type>  (13) 
unop_9

>  <geom_source>  (13) 
Heuristics

$$$$

     RDKit          3D

 27 26  0  0  0  0  0  0  0  0999 V2000
    1.7879    0.8663   -0.5981 C   0  0  0  0  0  0  0  0  0  0  0  0
    0.4969    0.2223   -0.0985 C   0  0  0  0  0  3  0  0  0  0  0  0
    0.6495   -1.2567    0.1612 C   0  0  0  0  0  0  0  0  0  0  0  0
    1.5246   -1.7388    1.1314 C   0  0  0  0  0  0  0  0  0  0  0  0
    1.6769   -3.0995    1.3300 C   0  0  0  0  0  0  0  0  0  0  0  0
    0.9529   -4.0042    0.5645 C   0  0  0  0  0  0  0  0  0  0  0  0
    0.0763   -3.5356   -0.3990 C   0  0  0  0  0  0  0  0  0  0  0  0
   -0.0723   -2.1696   -0.5975 C   0  0  0  0  0  0  0  0  0  0  0  0
   -0.0398    1.1536    1.3865 S   0  0  0  0  0  0  0  0  0  0  0  0
    1.6378    1.9251   -0.8138 H   0  0  0  0  0  0  0  0  0  0  0  0
    2.5844    0.7750    0.1418 H   0  0  0  0  0  0  0  0  0  0  0  0
    2.1149    0.3685   -1.5120 H   0  0  0  0  0  0  0  0  0  0  0  0
    2.0768   -1.0388    1.7468 H   0  0  0  0  0  0  0  0  0  0  0  0
    2.3612   -3.4581    2.0888 H   0  0  0  0  0  0  0  0  0  0  0  0
    1.0708   -5.0686    0.7232 H   0  0  0  0  0  0  0  0  0  0  0  0
   -0.4962   -4.2318   -0.9990 H   0  0  0  0  0  0  0  0  0  0  0  0
   -0.7597   -1.8093   -1.3546 H   0  0  0  0  0  0  0  0  0  0  0  0
   -1.0837    0.3729    1.6931 H   0  0  0  0  0  0  0  0  0  0  0  0
   -1.5272    1.5812   -2.5655 C   0  0  0  0  0  0  0  0  0  0  0  0
   -1.5272    1.5812   -1.0469 C   0  0  0  0  0  0  0  0  0  0  0  0
   -1.5272    3.2386   -0.3019 S   0  0  0  0  0  0  0  0  0  0  0  0
   -0.6206    2.0466   -2.9563 H   0  0  0  0  0  0  0  0  0  0  0  0
   -2.3832    2.1324   -2.9557 H   0  0  0  0  0  0  0  0  0  0  0  0
   -1.5703    0.5578   -2.9458 H   0  0  0  0  0  0  0  0  0  0  0  0
   -0.5153    0.9019   -0.5728 H   0  0  0  0  0  0  0  0  0  0  0  0
   -2.4348    1.1142   -0.6617 H   0  0  0  0  0  0  0  0  0  0  0  0
   -0.3524    3.6402   -0.8054 H   0  0  0  0  0  0  0  0  0  0  0  0
  1  2  1  0
  1 10  1  0
  1 11  1  0
  1 12  1  0
  2  3  1  0
  2  9  1  0
  3  4  2  0
  3  8  1  0
  4  5  1  0
  4 13  1  0
  5  6  2  0
  5 14  1  0
  6  7  1  0
  6 15  1  0
  7  8  2  0
  7 16  1  0
  8 17  1  0
  9 18  1  0
 19 20  1  0
 19 22  1  0
 19 23  1  0
 19 24  1  0
 20 21  1  0
 20 25  1  0
 20 26  1  0
 21 27  1  0
M  RAD  1   2   2
M  END
>  <reaction>  (14) 
rxn_1900

>  <mol_properties>  (14) 
{"1": {"label": "*1", "atom_type": "Cs"}, "2": {"label": "*0", "atom_type": "Cd"}, "19": {"label": "*3", "atom_type": "Cs"}, "20": {"label": "*4", "atom_type": "S2s"}, "24": {"label": "*2", "atom_type": "H0"}}

>  <type>  (14) 
unop_10

>  <geom_source>  (14) 
Heuristics

$$$$

     RDKit          3D

 27 26  0  0  0  0  0  0  0  0999 V2000
   -0.4227   -2.0629    1.5596 C   0  0  0  0  0  0  0  0  0  0  0  0
   -0.0155   -1.4641    0.2155 C   0  0  0  0  0  3  0  0  0  0  0  0
    0.6589   -0.1215    0.3594 C   0  0  0  0  0  0  0  0  0  0  0  0
    1.8682    0.0168    1.0362 C   0  0  0  0  0  0  0  0  0  0  0  0
    2.4528    1.2614    1.1885 C   0  0  0  0  0  0  0  0  0  0  0  0
    1.8407    2.3916    0.6622 C   0  0  0  0  0  0  0  0  0  0  0  0
    0.6412    2.2647   -0.0170 C   0  0  0  0  0  0  0  0  0  0  0  0
    0.0560    1.0146   -0.1657 C   0  0  0  0  0  0  0  0  0  0  0  0
    1.0353   -2.7001   -0.6381 S   0  0  0  0  0  0  0  0  0  0  0  0
   -0.9412   -3.0130    1.4226 H   0  0  0  0  0  0  0  0  0  0  0  0
    0.4486   -2.2343    2.1935 H   0  0  0  0  0  0  0  0  0  0  0  0
   -1.0903   -1.3745    2.0794 H   0  0  0  0  0  0  0  0  0  0  0  0
    2.3621   -0.8630    1.4310 H   0  0  0  0  0  0  0  0  0  0  0  0
    3.3935    1.3518    1.7171 H   0  0  0  0  0  0  0  0  0  0  0  0
    2.3009    3.3644    0.7795 H   0  0  0  0  0  0  0  0  0  0  0  0
    0.1570    3.1385   -0.4347 H   0  0  0  0  0  0  0  0  0  0  0  0
   -0.8843    0.9224   -0.6978 H   0  0  0  0  0  0  0  0  0  0  0  0
    1.3430   -1.9404   -1.6971 H   0  0  0  0  0  0  0  0  0  0  0  0
   -2.0396   -0.1052   -2.2516 C   0  0  0  0  0  0  0  0  0  0  0  0
   -2.0396   -0.1052   -0.7329 C   0  0  0  0  0  0  0  0  0  0  0  0
   -2.0396    1.5521    0.0121 S   0  0  0  0  0  0  0  0  0  0  0  0
   -1.1330    0.3602   -2.6423 H   0  0  0  0  0  0  0  0  0  0  0  0
   -2.8956    0.4460   -2.6417 H   0  0  0  0  0  0  0  0  0  0  0  0
   -2.0827   -1.1286   -2.6319 H   0  0  0  0  0  0  0  0  0  0  0  0
   -1.0277   -0.7846   -0.2588 H   0  0  0  0  0  0  0  0  0  0  0  0
   -2.9472   -0.5723   -0.3478 H   0  0  0  0  0  0  0  0  0  0  0  0
   -0.8648    1.9538   -0.4915 H   0  0  0  0  0  0  0  0  0  0  0  0
  1  2  1  0
  1 10  1  0
  1 11  1  0
  1 12  1  0
  2  3  1  0
  2  9  1  0
  3  4  2  0
  3  8  1  0
  4  5  1  0
  4 13  1  0
  5  6  2  0
  5 14  1  0
  6  7  1  0
  6 15  1  0
  7  8  2  0
  7 16  1  0
  8 17  1  0
  9 18  1  0
 19 20  1  0
 19 22  1  0
 19 23  1  0
 19 24  1  0
 20 21  1  0
 20 25  1  0
 20 26  1  0
 21 27  1  0
M  RAD  1   2   2
M  END
>  <reaction>  (15) 
rxn_1900

>  <mol_properties>  (15) 
{"1": {"label": "*1", "atom_type": "Cs"}, "2": {"label": "*0", "atom_type": "Cd"}, "19": {"label": "*3", "atom_type": "Cs"}, "20": {"label": "*4", "atom_type": "S2s"}, "24": {"label": "*2", "atom_type": "H0"}}

>  <type>  (15) 
unop_11

>  <geom_source>  (15) 
Heuristics

$$$$

     RDKit          3D

 27 26  0  0  0  0  0  0  0  0999 V2000
    1.6091   -0.5614   -1.6044 C   0  0  0  0  0  0  0  0  0  0  0  0
    0.7992   -0.0177   -0.4299 C   0  0  0  0  0  3  0  0  0  0  0  0
    0.2631   -1.1120    0.4606 C   0  0  0  0  0  0  0  0  0  0  0  0
    1.1144   -1.9655    1.1580 C   0  0  0  0  0  0  0  0  0  0  0  0
    0.6041   -2.9854    1.9412 C   0  0  0  0  0  0  0  0  0  0  0  0
   -0.7688   -3.1682    2.0454 C   0  0  0  0  0  0  0  0  0  0  0  0
   -1.6241   -2.3221    1.3607 C   0  0  0  0  0  0  0  0  0  0  0  0
   -1.1086   -1.3013    0.5736 C   0  0  0  0  0  0  0  0  0  0  0  0
    1.8679    1.1705    0.4681 S   0  0  0  0  0  0  0  0  0  0  0  0
    1.9506    0.2482   -2.2510 H   0  0  0  0  0  0  0  0  0  0  0  0
    2.4819   -1.1159   -1.2566 H   0  0  0  0  0  0  0  0  0  0  0  0
    0.9894   -1.2387   -2.1935 H   0  0  0  0  0  0  0  0  0  0  0  0
    2.1858   -1.8158    1.0985 H   0  0  0  0  0  0  0  0  0  0  0  0
    1.2796   -3.6401    2.4774 H   0  0  0  0  0  0  0  0  0  0  0  0
   -1.1667   -3.9647    2.6611 H   0  0  0  0  0  0  0  0  0  0  0  0
   -2.6962   -2.4530    1.4376 H   0  0  0  0  0  0  0  0  0  0  0  0
   -1.7842   -0.6430    0.0389 H   0  0  0  0  0  0  0  0  0  0  0  0
    1.0165    1.4213    1.4709 H   0  0  0  0  0  0  0  0  0  0  0  0
   -1.2249    1.3412   -2.8970 C   0  0  0  0  0  0  0  0  0  0  0  0
   -1.2249    1.3412   -1.3783 C   0  0  0  0  0  0  0  0  0  0  0  0
   -1.2249    2.9986   -0.6333 S   0  0  0  0  0  0  0  0  0  0  0  0
   -0.3183    1.8066   -3.2877 H   0  0  0  0  0  0  0  0  0  0  0  0
   -2.0809    1.8924   -3.2871 H   0  0  0  0  0  0  0  0  0  0  0  0
   -1.2680    0.3179   -3.2773 H   0  0  0  0  0  0  0  0  0  0  0  0
   -0.2130    0.6619   -0.9042 H   0  0  0  0  0  0  0  0  0  0  0  0
   -2.1325    0.8742   -0.9932 H   0  0  0  0  0  0  0  0  0  0  0  0
   -0.0501    3.4003   -1.1368 H   0  0  0  0  0  0  0  0  0  0  0  0
  1  2  1  0
  1 10  1  0
  1 11  1  0
  1 12  1  0
  2  3  1  0
  2  9  1  0
  3  4  2  0
  3  8  1  0
  4  5  1  0
  4 13  1  0
  5  6  2  0
  5 14  1  0
  6  7  1  0
  6 15  1  0
  7  8  2  0
  7 16  1  0
  8 17  1  0
  9 18  1  0
 19 20  1  0
 19 22  1  0
 19 23  1  0
 19 24  1  0
 20 21  1  0
 20 25  1  0
 20 26  1  0
 21 27  1  0
M  RAD  1   2   2
M  END
>  <reaction>  (16) 
rxn_1900

>  <mol_properties>  (16) 
{"1": {"label": "*1", "atom_type": "Cs"}, "2": {"label": "*0", "atom_type": "Cd"}, "19": {"label": "*3", "atom_type": "Cs"}, "20": {"label": "*4", "atom_type": "S2s"}, "24": {"label": "*2", "atom_type": "H0"}}

>  <type>  (16) 
unop_12

>  <geom_source>  (16) 
Heuristics

$$$$

     RDKit          3D

 27 26  0  0  0  0  0  0  0  0999 V2000
   -0.4814   -1.6958   -1.8896 S   0  0  0  0  0  0  0  0  0  0  0  0
   -4.1920   -0.6910   -0.2541 S   0  0  0  0  0  0  0  0  0  0  0  0
   -0.2761   -0.8240   -0.2976 C   0  0  0  0  0  0  0  0  0  0  0  0
   -0.3691   -1.7996    0.8770 C   0  0  0  0  0  0  0  0  0  0  0  0
   -2.5350    0.9721    1.1689 C   0  0  0  0  0  0  0  0  0  0  0  0
    1.0146   -0.0336   -0.2815 C   0  0  0  0  0  0  0  0  0  0  0  0
    2.2681   -0.6769   -0.2961 C   0  0  0  0  0  0  0  0  0  0  0  0
    0.9721    1.3721   -0.2707 C   0  0  0  0  0  0  0  0  0  0  0  0
    3.4483    0.0728   -0.2913 C   0  0  0  0  0  0  0  0  0  0  0  0
    3.3923    1.4681   -0.2754 C   0  0  0  0  0  0  0  0  0  0  0  0
    2.1557    2.1168   -0.2659 C   0  0  0  0  0  0  0  0  0  0  0  0
   -2.6450    0.2595   -0.1684 C   0  0  0  0  0  3  0  0  0  0  0  0
   -1.3022    0.0013   -0.1872 H   0  0  0  0  0  0  0  0  0  0  0  0
   -0.2507   -1.2502    1.8350 H   0  0  0  0  0  0  0  0  0  0  0  0
    0.4101   -2.5874    0.8131 H   0  0  0  0  0  0  0  0  0  0  0  0
   -1.3659   -2.2887    0.8763 H   0  0  0  0  0  0  0  0  0  0  0  0
   -1.5813    1.5384    1.2069 H   0  0  0  0  0  0  0  0  0  0  0  0
   -2.5429    0.2302    1.9948 H   0  0  0  0  0  0  0  0  0  0  0  0
   -3.3812    1.6798    1.2980 H   0  0  0  0  0  0  0  0  0  0  0  0
    2.3374   -1.7562   -0.3110 H   0  0  0  0  0  0  0  0  0  0  0  0
    4.4073   -0.4290   -0.3008 H   0  0  0  0  0  0  0  0  0  0  0  0
    4.3071    2.0465   -0.2721 H   0  0  0  0  0  0  0  0  0  0  0  0
    2.1136    3.1983   -0.2561 H   0  0  0  0  0  0  0  0  0  0  0  0
    0.0251    1.8966   -0.2667 H   0  0  0  0  0  0  0  0  0  0  0  0
   -2.6178    1.0000   -0.9957 H   0  0  0  0  0  0  0  0  0  0  0  0
    0.5605   -2.6144   -1.6656 H   0  0  0  0  0  0  0  0  0  0  0  0
   -3.8715   -1.2060   -1.5241 H   0  0  0  0  0  0  0  0  0  0  0  0
  1  3  1  0
  1 26  1  0
  2 12  1  0
  2 27  1  0
  3  4  1  0
  3  6  1  0
  3 13  1  0
  4 14  1  0
  4 15  1  0
  4 16  1  0
  5 12  1  0
  5 17  1  0
  5 18  1  0
  5 19  1  0
  6  7  2  0
  6  8  1  0
  7  9  1  0
  7 20  1  0
  8 11  2  0
  8 24  1  0
  9 10  2  0
  9 21  1  0
 10 11  1  0
 10 22  1  0
 11 23  1  0
 12 25  1  0
M  RAD  1  12   2
M  END
>  <reaction>  (17) 
rxn_1900

>  <mol_properties>  (17) 
{"1": {"label": "*1", "atom_type": "Cs"}, "2": {"label": "*0", "atom_type": "Cd"}, "19": {"label": "*3", "atom_type": "Cs"}, "20": {"label": "*4", "atom_type": "S2s"}, "24": {"label": "*2", "atom_type": "H0"}}

>  <type>  (17) 
unop_13

>  <geom_source>  (17) 
AutoTST

$$$$
