
     RDKit          3D

 15 15  0  0  0  0  0  0  0  0999 V2000
    2.2031   -0.2111   -0.1693 C   0  0  0  0  0  0  0  0  0  0  0  0
    0.7140   -0.0314   -0.0623 C   0  0  0  0  0  0  0  0  0  0  0  0
   -0.0114    0.5491   -1.0982 C   0  0  0  0  0  0  0  0  0  0  0  0
   -1.3882    0.6886   -1.0150 C   0  0  0  0  0  0  0  0  0  0  0  0
   -2.0661    0.2493    0.1118 C   0  0  0  0  0  0  0  0  0  0  0  0
   -1.3551   -0.3278    1.1528 C   0  0  0  0  0  0  0  0  0  0  0  0
    0.0216   -0.4648    1.0642 C   0  0  0  0  0  0  0  0  0  0  0  0
    2.6776   -0.1836    0.8122 H   0  0  0  0  0  0  0  0  0  0  0  0
    2.4446   -1.1749   -0.6249 H   0  0  0  0  0  0  0  0  0  0  0  0
    2.6532    0.5664   -0.7875 H   0  0  0  0  0  0  0  0  0  0  0  0
    0.5104    0.8989   -1.9819 H   0  0  0  0  0  0  0  0  0  0  0  0
   -1.9328    1.1452   -1.8322 H   0  0  0  0  0  0  0  0  0  0  0  0
   -3.1409    0.3597    0.1800 H   0  0  0  0  0  0  0  0  0  0  0  0
   -1.8736   -0.6702    2.0398 H   0  0  0  0  0  0  0  0  0  0  0  0
    0.5695   -0.9141    1.8849 H   0  0  0  0  0  0  0  0  0  0  0  0
  1  2  1  0
  1  8  1  0
  1  9  1  0
  1 10  1  0
  2  3  2  0
  2  7  1  0
  3  4  1  0
  3 11  1  0
  4  5  2  0
  4 12  1  0
  5  6  1  0
  5 13  1  0
  6  7  2  0
  6 14  1  0
  7 15  1  0
M  END
>  <reaction>  (1) 
rxn_1455

>  <mol_properties>  (1) 
{"0": {"label": "donator", "atom_type": "Cs"}, "7": {"label": "d_hydrogen", "atom_type": "H0"}}

>  <type>  (1) 
r1h

$$$$

     RDKit          3D

  5  4  0  0  0  0  0  0  0  0999 V2000
   -0.5642    0.0794    0.0348 C   0  0  0  0  0  3  0  0  0  0  0  0
    1.0624    0.5420    0.2853 S   0  0  0  0  0  0  0  0  0  0  0  0
   -1.3257    0.7631    0.3741 H   0  0  0  0  0  0  0  0  0  0  0  0
   -0.8236   -0.8519   -0.4401 H   0  0  0  0  0  0  0  0  0  0  0  0
    1.6511   -0.5325   -0.2540 H   0  0  0  0  0  0  0  0  0  0  0  0
  1  2  1  0
  1  3  1  0
  1  4  1  0
  2  5  1  0
M  RAD  1   1   2
M  END
>  <reaction>  (2) 
rxn_1455

>  <mol_properties>  (2) 
{"0": {"label": "acceptor", "atom_type": "Cs"}}

>  <type>  (2) 
r2

$$$$

     RDKit          3D

  6  5  0  0  0  0  0  0  0  0999 V2000
   -0.5072   -0.0291   -0.0097 C   0  0  0  0  0  0  0  0  0  0  0  0
    1.1321   -0.1527   -0.7687 S   0  0  0  0  0  0  0  0  0  0  0  0
   -0.6174   -0.7330    0.8127 H   0  0  0  0  0  0  0  0  0  0  0  0
   -0.5863    0.9827    0.3845 H   0  0  0  0  0  0  0  0  0  0  0  0
   -1.2962   -0.1800   -0.7434 H   0  0  0  0  0  0  0  0  0  0  0  0
    1.0312   -1.4237   -1.1764 H   0  0  0  0  0  0  0  0  0  0  0  0
  1  2  1  0
  1  3  1  0
  1  4  1  0
  1  5  1  0
  2  6  1  0
M  END
>  <reaction>  (3) 
rxn_1455

>  <mol_properties>  (3) 
{"0": {"label": "acceptor", "atom_type": "Cs"}, "5": {"label": "a_hydrogen", "atom_type": "H0"}}

>  <type>  (3) 
r2h

$$$$

     RDKit          3D

 20 19  0  0  0  0  0  0  0  0999 V2000
   -1.1829   -0.6296    2.3735 C   0  0  0  0  0  3  0  0  0  0  0  0
   -1.5051   -1.8162    1.1114 S   0  0  0  0  0  0  0  0  0  0  0  0
   -1.0299   -1.1232    3.3293 H   0  0  0  0  0  0  0  0  0  0  0  0
   -1.8924    0.1920    2.4283 H   0  0  0  0  0  0  0  0  0  0  0  0
   -1.6055   -0.9527    0.0906 H   0  0  0  0  0  0  0  0  0  0  0  0
    1.0817    0.6348    1.6405 C   0  0  0  0  0  0  0  0  0  0  0  0
    0.8743    0.7546    0.1966 C   0  0  0  0  0  0  0  0  0  0  0  0
    0.1018    1.7947   -0.3315 C   0  0  0  0  0  0  0  0  0  0  0  0
   -0.1736    1.8625   -1.6863 C   0  0  0  0  0  0  0  0  0  0  0  0
    0.3164    0.8912   -2.5489 C   0  0  0  0  0  0  0  0  0  0  0  0
    1.0861   -0.1465   -2.0415 C   0  0  0  0  0  0  0  0  0  0  0  0
    1.3580   -0.2162   -0.6863 C   0  0  0  0  0  0  0  0  0  0  0  0
    0.0086   -0.0016    2.0808 H   0  0  0  0  0  0  0  0  0  0  0  0
    1.8997   -0.0136    1.9445 H   0  0  0  0  0  0  0  0  0  0  0  0
    1.0569    1.5692    2.1966 H   0  0  0  0  0  0  0  0  0  0  0  0
   -0.2839    2.5578    0.3352 H   0  0  0  0  0  0  0  0  0  0  0  0
   -0.7717    2.6784   -2.0731 H   0  0  0  0  0  0  0  0  0  0  0  0
    0.1028    0.9449   -3.6087 H   0  0  0  0  0  0  0  0  0  0  0  0
    1.4741   -0.9081   -2.7065 H   0  0  0  0  0  0  0  0  0  0  0  0
    1.9488   -1.0366   -0.2965 H   0  0  0  0  0  0  0  0  0  0  0  0
  1  2  1  0
  1  3  1  0
  1  4  1  0
  2  5  1  0
  6  7  1  0
  6 13  1  0
  6 14  1  0
  6 15  1  0
  7  8  2  0
  7 12  1  0
  8  9  1  0
  8 16  1  0
  9 10  2  0
  9 17  1  0
 10 11  1  0
 10 18  1  0
 11 12  2  0
 11 19  1  0
 12 20  1  0
M  RAD  1   1   2
M  END
>  <reaction>  (4) 
rxn_1455

>  <mol_properties>  (4) 
{"0": {"label": "*3", "atom_type": "Cs"}, "1": {"label": "*4", "atom_type": "S2s"}, "5": {"label": "*1", "atom_type": "Cs"}, "6": {"label": "*0", "atom_type": "Cd"}, "12": {"label": "*2", "atom_type": "H0"}}

>  <type>  (4) 
ts

$$$$

     RDKit          3D

 20 19  0  0  0  0  0  0  0  0999 V2000
   -1.0569   -1.1732    2.0108 C   0  0  0  0  0  0  0  0  0  0  0  0
    0.0720   -2.1493    3.0361 S   0  0  0  0  0  0  0  0  0  0  0  0
   -1.3846   -0.3375    2.6269 H   0  0  0  0  0  0  0  0  0  0  0  0
   -1.9294   -1.7538    1.7185 H   0  0  0  0  0  0  0  0  0  0  0  0
    0.3498   -3.0917    2.1269 H   0  0  0  0  0  0  0  0  0  0  0  0
    0.1215    0.9578    1.0597 C   0  0  0  0  0  0  0  0  0  0  0  0
    0.1215    0.9578   -0.4440 C   0  0  0  0  0  0  0  0  0  0  0  0
    0.1215    2.1521   -1.1581 C   0  0  0  0  0  3  0  0  0  0  0  0
    0.1520    2.1554   -2.5441 C   0  0  0  0  0  0  0  0  0  0  0  0
    0.1815    0.9584   -3.2431 C   0  0  0  0  0  0  0  0  0  0  0  0
    0.1784   -0.2389   -2.5441 C   0  0  0  0  0  0  0  0  0  0  0  0
    0.1478   -0.2363   -1.1581 C   0  0  0  0  0  0  0  0  0  0  0  0
   -0.4684   -0.1090    1.5358 H   0  0  0  0  0  0  0  0  0  0  0  0
    1.1437    0.9690    1.4465 H   0  0  0  0  0  0  0  0  0  0  0  0
   -0.3895    1.8357    1.4564 H   0  0  0  0  0  0  0  0  0  0  0  0
    0.0949    3.0932   -0.6202 H   0  0  0  0  0  0  0  0  0  0  0  0
    0.1493    3.0966   -3.0798 H   0  0  0  0  0  0  0  0  0  0  0  0
    0.2026    0.9587   -4.3254 H   0  0  0  0  0  0  0  0  0  0  0  0
    0.1965   -1.1800   -3.0798 H   0  0  0  0  0  0  0  0  0  0  0  0
    0.1420   -1.1777   -0.6202 H   0  0  0  0  0  0  0  0  0  0  0  0
  1  2  1  0
  1  3  1  0
  1  4  1  0
  1 13  1  0
  2  5  1  0
  6  7  2  3
  6 14  1  0
  6 15  1  0
  7  8  1  0
  7 12  1  0
  8  9  1  0
  8 16  1  0
  9 10  2  0
  9 17  1  0
 10 11  1  0
 10 18  1  0
 11 12  2  0
 11 19  1  0
 12 20  1  0
M  RAD  1   8   2
M  END
>  <reaction>  (5) 
rxn_1455

>  <mol_properties>  (5) 
{"0": {"label": "*3", "atom_type": "Cs"}, "1": {"label": "*4", "atom_type": "S2s"}, "5": {"label": "*1", "atom_type": "Cs"}, "6": {"label": "*0", "atom_type": "Cd"}, "12": {"label": "*2", "atom_type": "H0"}}

>  <type>  (5) 
unop_1

>  <geom_source>  (5) 
Heuristics

$$$$

     RDKit          3D

 20 19  0  0  0  0  0  0  0  0999 V2000
   -0.8305   -1.0768    2.5126 C   0  0  0  0  0  0  0  0  0  0  0  0
   -0.6473   -2.4875    1.3925 S   0  0  0  0  0  0  0  0  0  0  0  0
   -0.0878   -1.2107    3.2974 H   0  0  0  0  0  0  0  0  0  0  0  0
   -1.8186   -1.0576    2.9677 H   0  0  0  0  0  0  0  0  0  0  0  0
   -1.6139   -2.1439    0.5326 H   0  0  0  0  0  0  0  0  0  0  0  0
    0.3479    1.0542    1.5616 C   0  0  0  0  0  0  0  0  0  0  0  0
    0.3479    1.0542    0.0578 C   0  0  0  0  0  0  0  0  0  0  0  0
    0.3479    2.2485   -0.6562 C   0  0  0  0  0  3  0  0  0  0  0  0
    0.3783    2.2519   -2.0422 C   0  0  0  0  0  0  0  0  0  0  0  0
    0.4078    1.0549   -2.7412 C   0  0  0  0  0  0  0  0  0  0  0  0
    0.4047   -0.1425   -2.0422 C   0  0  0  0  0  0  0  0  0  0  0  0
    0.3742   -0.1398   -0.6562 C   0  0  0  0  0  0  0  0  0  0  0  0
   -0.2420   -0.0125    2.0376 H   0  0  0  0  0  0  0  0  0  0  0  0
    1.3701    1.0655    1.9483 H   0  0  0  0  0  0  0  0  0  0  0  0
   -0.1632    1.9321    1.9583 H   0  0  0  0  0  0  0  0  0  0  0  0
    0.3212    3.1896   -0.1184 H   0  0  0  0  0  0  0  0  0  0  0  0
    0.3757    3.1931   -2.5779 H   0  0  0  0  0  0  0  0  0  0  0  0
    0.4290    1.0551   -3.8236 H   0  0  0  0  0  0  0  0  0  0  0  0
    0.4228   -1.0835   -2.5779 H   0  0  0  0  0  0  0  0  0  0  0  0
    0.3683   -1.0813   -0.1184 H   0  0  0  0  0  0  0  0  0  0  0  0
  1  2  1  0
  1  3  1  0
  1  4  1  0
  1 13  1  0
  2  5  1  0
  6  7  2  3
  6 14  1  0
  6 15  1  0
  7  8  1  0
  7 12  1  0
  8  9  1  0
  8 16  1  0
  9 10  2  0
  9 17  1  0
 10 11  1  0
 10 18  1  0
 11 12  2  0
 11 19  1  0
 12 20  1  0
M  RAD  1   8   2
M  END
>  <reaction>  (6) 
rxn_1455

>  <mol_properties>  (6) 
{"0": {"label": "*3", "atom_type": "Cs"}, "1": {"label": "*4", "atom_type": "S2s"}, "5": {"label": "*1", "atom_type": "Cs"}, "6": {"label": "*0", "atom_type": "Cd"}, "12": {"label": "*2", "atom_type": "H0"}}

>  <type>  (6) 
unop_2

>  <geom_source>  (6) 
Heuristics

$$$$

     RDKit          3D

 20 19  0  0  0  0  0  0  0  0999 V2000
   -0.9592   -1.2885    1.8759 C   0  0  0  0  0  0  0  0  0  0  0  0
   -0.2618   -1.7694    3.4761 S   0  0  0  0  0  0  0  0  0  0  0  0
   -1.7674   -0.5914    2.0914 H   0  0  0  0  0  0  0  0  0  0  0  0
   -1.3707   -2.1467    1.3486 H   0  0  0  0  0  0  0  0  0  0  0  0
    0.6798   -2.5964    3.0054 H   0  0  0  0  0  0  0  0  0  0  0  0
    0.2192    0.8425    0.9248 C   0  0  0  0  0  0  0  0  0  0  0  0
    0.2192    0.8425   -0.5789 C   0  0  0  0  0  0  0  0  0  0  0  0
    0.2192    2.0368   -1.2930 C   0  0  0  0  0  3  0  0  0  0  0  0
    0.2496    2.0402   -2.6790 C   0  0  0  0  0  0  0  0  0  0  0  0
    0.2791    0.8432   -3.3780 C   0  0  0  0  0  0  0  0  0  0  0  0
    0.2760   -0.3542   -2.6790 C   0  0  0  0  0  0  0  0  0  0  0  0
    0.2455   -0.3515   -1.2930 C   0  0  0  0  0  0  0  0  0  0  0  0
   -0.3707   -0.2242    1.4009 H   0  0  0  0  0  0  0  0  0  0  0  0
    1.2414    0.8538    1.3116 H   0  0  0  0  0  0  0  0  0  0  0  0
   -0.2919    1.7204    1.3215 H   0  0  0  0  0  0  0  0  0  0  0  0
    0.1925    2.9779   -0.7552 H   0  0  0  0  0  0  0  0  0  0  0  0
    0.2470    2.9814   -3.2147 H   0  0  0  0  0  0  0  0  0  0  0  0
    0.3003    0.8434   -4.4604 H   0  0  0  0  0  0  0  0  0  0  0  0
    0.2941   -1.2952   -3.2147 H   0  0  0  0  0  0  0  0  0  0  0  0
    0.2396   -1.2930   -0.7552 H   0  0  0  0  0  0  0  0  0  0  0  0
  1  2  1  0
  1  3  1  0
  1  4  1  0
  1 13  1  0
  2  5  1  0
  6  7  2  3
  6 14  1  0
  6 15  1  0
  7  8  1  0
  7 12  1  0
  8  9  1  0
  8 16  1  0
  9 10  2  0
  9 17  1  0
 10 11  1  0
 10 18  1  0
 11 12  2  0
 11 19  1  0
 12 20  1  0
M  RAD  1   8   2
M  END
>  <reaction>  (7) 
rxn_1455

>  <mol_properties>  (7) 
{"0": {"label": "*3", "atom_type": "Cs"}, "1": {"label": "*4", "atom_type": "S2s"}, "5": {"label": "*1", "atom_type": "Cs"}, "6": {"label": "*0", "atom_type": "Cd"}, "12": {"label": "*2", "atom_type": "H0"}}

>  <type>  (7) 
unop_3

>  <geom_source>  (7) 
Heuristics

$$$$

     RDKit          3D

 20 19  0  0  0  0  0  0  0  0999 V2000
   -0.3885   -1.3919    2.3719 C   0  0  0  0  0  0  0  0  0  0  0  0
   -2.1122   -1.4916    1.8266 S   0  0  0  0  0  0  0  0  0  0  0  0
   -0.0492   -2.4182    2.5027 H   0  0  0  0  0  0  0  0  0  0  0  0
   -0.3033   -0.8727    3.3242 H   0  0  0  0  0  0  0  0  0  0  0  0
   -2.3317   -0.1748    1.7273 H   0  0  0  0  0  0  0  0  0  0  0  0
    0.7899    0.7390    1.4208 C   0  0  0  0  0  0  0  0  0  0  0  0
    0.7899    0.7390   -0.0829 C   0  0  0  0  0  0  0  0  0  0  0  0
    0.7899    1.9334   -0.7969 C   0  0  0  0  0  3  0  0  0  0  0  0
    0.8203    1.9367   -2.1829 C   0  0  0  0  0  0  0  0  0  0  0  0
    0.8499    0.7397   -2.8820 C   0  0  0  0  0  0  0  0  0  0  0  0
    0.8467   -0.4577   -2.1829 C   0  0  0  0  0  0  0  0  0  0  0  0
    0.8162   -0.4550   -0.7969 C   0  0  0  0  0  0  0  0  0  0  0  0
    0.2000   -0.3277    1.8969 H   0  0  0  0  0  0  0  0  0  0  0  0
    1.8121    0.7503    1.8076 H   0  0  0  0  0  0  0  0  0  0  0  0
    0.2788    1.6169    1.8176 H   0  0  0  0  0  0  0  0  0  0  0  0
    0.7633    2.8745   -0.2591 H   0  0  0  0  0  0  0  0  0  0  0  0
    0.8177    2.8779   -2.7186 H   0  0  0  0  0  0  0  0  0  0  0  0
    0.8710    0.7399   -3.9643 H   0  0  0  0  0  0  0  0  0  0  0  0
    0.8648   -1.3987   -2.7186 H   0  0  0  0  0  0  0  0  0  0  0  0
    0.8103   -1.3964   -0.2591 H   0  0  0  0  0  0  0  0  0  0  0  0
  1  2  1  0
  1  3  1  0
  1  4  1  0
  1 13  1  0
  2  5  1  0
  6  7  2  3
  6 14  1  0
  6 15  1  0
  7  8  1  0
  7 12  1  0
  8  9  1  0
  8 16  1  0
  9 10  2  0
  9 17  1  0
 10 11  1  0
 10 18  1  0
 11 12  2  0
 11 19  1  0
 12 20  1  0
M  RAD  1   8   2
M  END
>  <reaction>  (8) 
rxn_1455

>  <mol_properties>  (8) 
{"0": {"label": "*3", "atom_type": "Cs"}, "1": {"label": "*4", "atom_type": "S2s"}, "5": {"label": "*1", "atom_type": "Cs"}, "6": {"label": "*0", "atom_type": "Cd"}, "12": {"label": "*2", "atom_type": "H0"}}

>  <type>  (8) 
unop_4

>  <geom_source>  (8) 
Heuristics

$$$$

     RDKit          3D

 20 19  0  0  0  0  0  0  0  0999 V2000
   -0.8012   -1.4029    1.8242 C   0  0  0  0  0  0  0  0  0  0  0  0
   -0.8017   -1.4040    3.6348 S   0  0  0  0  0  0  0  0  0  0  0  0
   -1.8459   -1.3896    1.5179 H   0  0  0  0  0  0  0  0  0  0  0  0
   -0.3331   -2.3013    1.4273 H   0  0  0  0  0  0  0  0  0  0  0  0
    0.5263   -1.4207    3.8016 H   0  0  0  0  0  0  0  0  0  0  0  0
    0.3772    0.7281    0.8731 C   0  0  0  0  0  0  0  0  0  0  0  0
    0.3772    0.7281   -0.6306 C   0  0  0  0  0  0  0  0  0  0  0  0
    0.3772    1.9224   -1.3447 C   0  0  0  0  0  3  0  0  0  0  0  0
    0.4077    1.9257   -2.7307 C   0  0  0  0  0  0  0  0  0  0  0  0
    0.4372    0.7287   -3.4297 C   0  0  0  0  0  0  0  0  0  0  0  0
    0.4341   -0.4686   -2.7307 C   0  0  0  0  0  0  0  0  0  0  0  0
    0.4036   -0.4660   -1.3447 C   0  0  0  0  0  0  0  0  0  0  0  0
   -0.2126   -0.3386    1.3492 H   0  0  0  0  0  0  0  0  0  0  0  0
    1.3995    0.7393    1.2599 H   0  0  0  0  0  0  0  0  0  0  0  0
   -0.1338    1.6060    1.2698 H   0  0  0  0  0  0  0  0  0  0  0  0
    0.3506    2.8635   -0.8068 H   0  0  0  0  0  0  0  0  0  0  0  0
    0.4050    2.8670   -3.2664 H   0  0  0  0  0  0  0  0  0  0  0  0
    0.4584    0.7290   -4.5120 H   0  0  0  0  0  0  0  0  0  0  0  0
    0.4522   -1.4097   -3.2664 H   0  0  0  0  0  0  0  0  0  0  0  0
    0.3977   -1.4074   -0.8068 H   0  0  0  0  0  0  0  0  0  0  0  0
  1  2  1  0
  1  3  1  0
  1  4  1  0
  1 13  1  0
  2  5  1  0
  6  7  2  3
  6 14  1  0
  6 15  1  0
  7  8  1  0
  7 12  1  0
  8  9  1  0
  8 16  1  0
  9 10  2  0
  9 17  1  0
 10 11  1  0
 10 18  1  0
 11 12  2  0
 11 19  1  0
 12 20  1  0
M  RAD  1   8   2
M  END
>  <reaction>  (9) 
rxn_1455

>  <mol_properties>  (9) 
{"0": {"label": "*3", "atom_type": "Cs"}, "1": {"label": "*4", "atom_type": "S2s"}, "5": {"label": "*1", "atom_type": "Cs"}, "6": {"label": "*0", "atom_type": "Cd"}, "12": {"label": "*2", "atom_type": "H0"}}

>  <type>  (9) 
unop_5

>  <geom_source>  (9) 
Heuristics

$$$$

     RDKit          3D

 20 19  0  0  0  0  0  0  0  0999 V2000
   -0.3809   -1.4801    2.1867 C   0  0  0  0  0  0  0  0  0  0  0  0
   -2.1538   -1.2020    2.4267 S   0  0  0  0  0  0  0  0  0  0  0  0
   -0.2487   -2.5576    2.1036 H   0  0  0  0  0  0  0  0  0  0  0  0
    0.1953   -1.1230    3.0377 H   0  0  0  0  0  0  0  0  0  0  0  0
   -2.1040    0.1335    2.5028 H   0  0  0  0  0  0  0  0  0  0  0  0
    0.7975    0.6509    1.2356 C   0  0  0  0  0  0  0  0  0  0  0  0
    0.7975    0.6509   -0.2681 C   0  0  0  0  0  0  0  0  0  0  0  0
    0.7975    1.8452   -0.9822 C   0  0  0  0  0  3  0  0  0  0  0  0
    0.8280    1.8485   -2.3682 C   0  0  0  0  0  0  0  0  0  0  0  0
    0.8575    0.6515   -3.0672 C   0  0  0  0  0  0  0  0  0  0  0  0
    0.8544   -0.5458   -2.3682 C   0  0  0  0  0  0  0  0  0  0  0  0
    0.8239   -0.5432   -0.9822 C   0  0  0  0  0  0  0  0  0  0  0  0
    0.2077   -0.4159    1.7117 H   0  0  0  0  0  0  0  0  0  0  0  0
    1.8198    0.6621    1.6224 H   0  0  0  0  0  0  0  0  0  0  0  0
    0.2865    1.5288    1.6323 H   0  0  0  0  0  0  0  0  0  0  0  0
    0.7709    2.7863   -0.4444 H   0  0  0  0  0  0  0  0  0  0  0  0
    0.8253    2.7898   -2.9039 H   0  0  0  0  0  0  0  0  0  0  0  0
    0.8787    0.6518   -4.1496 H   0  0  0  0  0  0  0  0  0  0  0  0
    0.8725   -1.4869   -2.9039 H   0  0  0  0  0  0  0  0  0  0  0  0
    0.8180   -1.4846   -0.4444 H   0  0  0  0  0  0  0  0  0  0  0  0
  1  2  1  0
  1  3  1  0
  1  4  1  0
  1 13  1  0
  2  5  1  0
  6  7  2  3
  6 14  1  0
  6 15  1  0
  7  8  1  0
  7 12  1  0
  8  9  1  0
  8 16  1  0
  9 10  2  0
  9 17  1  0
 10 11  1  0
 10 18  1  0
 11 12  2  0
 11 19  1  0
 12 20  1  0
M  RAD  1   8   2
M  END
>  <reaction>  (10) 
rxn_1455

>  <mol_properties>  (10) 
{"0": {"label": "*3", "atom_type": "Cs"}, "1": {"label": "*4", "atom_type": "S2s"}, "5": {"label": "*1", "atom_type": "Cs"}, "6": {"label": "*0", "atom_type": "Cd"}, "12": {"label": "*2", "atom_type": "H0"}}

>  <type>  (10) 
unop_6

>  <geom_source>  (10) 
Heuristics

$$$$

     RDKit          3D

 20 19  0  0  0  0  0  0  0  0999 V2000
   -0.4657   -1.5154    2.0027 C   0  0  0  0  0  0  0  0  0  0  0  0
   -1.8926   -1.0782    3.0280 S   0  0  0  0  0  0  0  0  0  0  0  0
   -0.6242   -2.5431    1.6801 H   0  0  0  0  0  0  0  0  0  0  0  0
    0.4606   -1.4675    2.5713 H   0  0  0  0  0  0  0  0  0  0  0  0
   -1.5159    0.1745    3.3120 H   0  0  0  0  0  0  0  0  0  0  0  0
    0.7127    0.6156    1.0516 C   0  0  0  0  0  0  0  0  0  0  0  0
    0.7127    0.6156   -0.4521 C   0  0  0  0  0  0  0  0  0  0  0  0
    0.7127    1.8099   -1.1661 C   0  0  0  0  0  3  0  0  0  0  0  0
    0.7431    1.8133   -2.5521 C   0  0  0  0  0  0  0  0  0  0  0  0
    0.7726    0.6163   -3.2512 C   0  0  0  0  0  0  0  0  0  0  0  0
    0.7695   -0.5811   -2.5521 C   0  0  0  0  0  0  0  0  0  0  0  0
    0.7390   -0.5784   -1.1661 C   0  0  0  0  0  0  0  0  0  0  0  0
    0.1228   -0.4511    1.5277 H   0  0  0  0  0  0  0  0  0  0  0  0
    1.7349    0.6269    1.4384 H   0  0  0  0  0  0  0  0  0  0  0  0
    0.2016    1.4935    1.4484 H   0  0  0  0  0  0  0  0  0  0  0  0
    0.6860    2.7510   -0.6283 H   0  0  0  0  0  0  0  0  0  0  0  0
    0.7405    2.7545   -3.0879 H   0  0  0  0  0  0  0  0  0  0  0  0
    0.7938    0.6165   -4.3335 H   0  0  0  0  0  0  0  0  0  0  0  0
    0.7876   -1.5221   -3.0879 H   0  0  0  0  0  0  0  0  0  0  0  0
    0.7331   -1.5199   -0.6283 H   0  0  0  0  0  0  0  0  0  0  0  0
  1  2  1  0
  1  3  1  0
  1  4  1  0
  1 13  1  0
  2  5  1  0
  6  7  2  3
  6 14  1  0
  6 15  1  0
  7  8  1  0
  7 12  1  0
  8  9  1  0
  8 16  1  0
  9 10  2  0
  9 17  1  0
 10 11  1  0
 10 18  1  0
 11 12  2  0
 11 19  1  0
 12 20  1  0
M  RAD  1   8   2
M  END
>  <reaction>  (11) 
rxn_1455

>  <mol_properties>  (11) 
{"0": {"label": "*3", "atom_type": "Cs"}, "1": {"label": "*4", "atom_type": "S2s"}, "5": {"label": "*1", "atom_type": "Cs"}, "6": {"label": "*0", "atom_type": "Cd"}, "12": {"label": "*2", "atom_type": "H0"}}

>  <type>  (11) 
unop_7

>  <geom_source>  (11) 
Heuristics

$$$$

     RDKit          3D

 20 19  0  0  0  0  0  0  0  0999 V2000
   -1.0665   -1.0859    2.1947 C   0  0  0  0  0  0  0  0  0  0  0  0
    0.1116   -2.4397    2.4347 S   0  0  0  0  0  0  0  0  0  0  0  0
   -0.9351   -0.4124    3.0400 H   0  0  0  0  0  0  0  0  0  0  0  0
   -2.0924   -1.4484    2.1942 H   0  0  0  0  0  0  0  0  0  0  0  0
   -0.2003   -3.1294    1.3307 H   0  0  0  0  0  0  0  0  0  0  0  0
    0.1119    1.0451    1.2436 C   0  0  0  0  0  0  0  0  0  0  0  0
    0.1119    1.0451   -0.2601 C   0  0  0  0  0  0  0  0  0  0  0  0
    0.1119    2.2394   -0.9742 C   0  0  0  0  0  3  0  0  0  0  0  0
    0.1423    2.2428   -2.3602 C   0  0  0  0  0  0  0  0  0  0  0  0
    0.1719    1.0458   -3.0592 C   0  0  0  0  0  0  0  0  0  0  0  0
    0.1687   -0.1516   -2.3602 C   0  0  0  0  0  0  0  0  0  0  0  0
    0.1382   -0.1489   -0.9742 C   0  0  0  0  0  0  0  0  0  0  0  0
   -0.4780   -0.0216    1.7197 H   0  0  0  0  0  0  0  0  0  0  0  0
    1.1341    1.0564    1.6304 H   0  0  0  0  0  0  0  0  0  0  0  0
   -0.3991    1.9230    1.6403 H   0  0  0  0  0  0  0  0  0  0  0  0
    0.0853    3.1805   -0.4364 H   0  0  0  0  0  0  0  0  0  0  0  0
    0.1397    3.1840   -2.8959 H   0  0  0  0  0  0  0  0  0  0  0  0
    0.1930    1.0460   -4.1416 H   0  0  0  0  0  0  0  0  0  0  0  0
    0.1868   -1.0926   -2.8959 H   0  0  0  0  0  0  0  0  0  0  0  0
    0.1324   -1.0904   -0.4364 H   0  0  0  0  0  0  0  0  0  0  0  0
  1  2  1  0
  1  3  1  0
  1  4  1  0
  1 13  1  0
  2  5  1  0
  6  7  2  3
  6 14  1  0
  6 15  1  0
  7  8  1  0
  7 12  1  0
  8  9  1  0
  8 16  1  0
  9 10  2  0
  9 17  1  0
 10 11  1  0
 10 18  1  0
 11 12  2  0
 11 19  1  0
 12 20  1  0
M  RAD  1   8   2
M  END
>  <reaction>  (12) 
rxn_1455

>  <mol_properties>  (12) 
{"0": {"label": "*3", "atom_type": "Cs"}, "1": {"label": "*4", "atom_type": "S2s"}, "5": {"label": "*1", "atom_type": "Cs"}, "6": {"label": "*0", "atom_type": "Cd"}, "12": {"label": "*2", "atom_type": "H0"}}

>  <type>  (12) 
unop_8

>  <geom_source>  (12) 
Heuristics

$$$$

     RDKit          3D

 20 19  0  0  0  0  0  0  0  0999 V2000
   -0.4864   -1.2745    2.5087 C   0  0  0  0  0  0  0  0  0  0  0  0
   -1.7786   -1.8692    1.3886 S   0  0  0  0  0  0  0  0  0  0  0  0
    0.0608   -2.1556    2.8398 H   0  0  0  0  0  0  0  0  0  0  0  0
   -0.9128   -0.7814    3.3798 H   0  0  0  0  0  0  0  0  0  0  0  0
   -2.3154   -0.6761    1.1053 H   0  0  0  0  0  0  0  0  0  0  0  0
    0.6920    0.8565    1.5577 C   0  0  0  0  0  0  0  0  0  0  0  0
    0.6920    0.8565    0.0539 C   0  0  0  0  0  0  0  0  0  0  0  0
    0.6920    2.0508   -0.6601 C   0  0  0  0  0  3  0  0  0  0  0  0
    0.7225    2.0542   -2.0461 C   0  0  0  0  0  0  0  0  0  0  0  0
    0.7520    0.8572   -2.7451 C   0  0  0  0  0  0  0  0  0  0  0  0
    0.7489   -0.3402   -2.0461 C   0  0  0  0  0  0  0  0  0  0  0  0
    0.7184   -0.3375   -0.6601 C   0  0  0  0  0  0  0  0  0  0  0  0
    0.1022   -0.2102    2.0337 H   0  0  0  0  0  0  0  0  0  0  0  0
    1.7143    0.8678    1.9444 H   0  0  0  0  0  0  0  0  0  0  0  0
    0.1810    1.7344    1.9544 H   0  0  0  0  0  0  0  0  0  0  0  0
    0.6654    2.9919   -0.1223 H   0  0  0  0  0  0  0  0  0  0  0  0
    0.7198    2.9954   -2.5818 H   0  0  0  0  0  0  0  0  0  0  0  0
    0.7732    0.8574   -3.8275 H   0  0  0  0  0  0  0  0  0  0  0  0
    0.7670   -1.2812   -2.5818 H   0  0  0  0  0  0  0  0  0  0  0  0
    0.7125   -1.2790   -0.1223 H   0  0  0  0  0  0  0  0  0  0  0  0
  1  2  1  0
  1  3  1  0
  1  4  1  0
  1 13  1  0
  2  5  1  0
  6  7  2  3
  6 14  1  0
  6 15  1  0
  7  8  1  0
  7 12  1  0
  8  9  1  0
  8 16  1  0
  9 10  2  0
  9 17  1  0
 10 11  1  0
 10 18  1  0
 11 12  2  0
 11 19  1  0
 12 20  1  0
M  RAD  1   8   2
M  END
>  <reaction>  (13) 
rxn_1455

>  <mol_properties>  (13) 
{"0": {"label": "*3", "atom_type": "Cs"}, "1": {"label": "*4", "atom_type": "S2s"}, "5": {"label": "*1", "atom_type": "Cs"}, "6": {"label": "*0", "atom_type": "Cd"}, "12": {"label": "*2", "atom_type": "H0"}}

>  <type>  (13) 
unop_9

>  <geom_source>  (13) 
Heuristics

$$$$

     RDKit          3D

 20 19  0  0  0  0  0  0  0  0999 V2000
   -0.9839   -1.0502    2.3785 C   0  0  0  0  0  0  0  0  0  0  0  0
   -0.1518   -2.5631    1.8333 S   0  0  0  0  0  0  0  0  0  0  0  0
   -0.4661   -0.7239    3.2790 H   0  0  0  0  0  0  0  0  0  0  0  0
   -2.0268   -1.2381    2.6249 H   0  0  0  0  0  0  0  0  0  0  0  0
   -0.9122   -2.7920    0.7556 H   0  0  0  0  0  0  0  0  0  0  0  0
    0.1945    1.0807    1.4275 C   0  0  0  0  0  0  0  0  0  0  0  0
    0.1945    1.0807   -0.0763 C   0  0  0  0  0  0  0  0  0  0  0  0
    0.1945    2.2751   -0.7903 C   0  0  0  0  0  3  0  0  0  0  0  0
    0.2250    2.2784   -2.1763 C   0  0  0  0  0  0  0  0  0  0  0  0
    0.2545    1.0814   -2.8753 C   0  0  0  0  0  0  0  0  0  0  0  0
    0.2514   -0.1160   -2.1763 C   0  0  0  0  0  0  0  0  0  0  0  0
    0.2209   -0.1133   -0.7903 C   0  0  0  0  0  0  0  0  0  0  0  0
   -0.3953    0.0140    1.9035 H   0  0  0  0  0  0  0  0  0  0  0  0
    1.2168    1.0920    1.8142 H   0  0  0  0  0  0  0  0  0  0  0  0
   -0.3165    1.9586    1.8242 H   0  0  0  0  0  0  0  0  0  0  0  0
    0.1679    3.2162   -0.2525 H   0  0  0  0  0  0  0  0  0  0  0  0
    0.2223    3.2196   -2.7120 H   0  0  0  0  0  0  0  0  0  0  0  0
    0.2757    1.0816   -3.9577 H   0  0  0  0  0  0  0  0  0  0  0  0
    0.2695   -1.0570   -2.7120 H   0  0  0  0  0  0  0  0  0  0  0  0
    0.2150   -1.0547   -0.2525 H   0  0  0  0  0  0  0  0  0  0  0  0
  1  2  1  0
  1  3  1  0
  1  4  1  0
  1 13  1  0
  2  5  1  0
  6  7  2  3
  6 14  1  0
  6 15  1  0
  7  8  1  0
  7 12  1  0
  8  9  1  0
  8 16  1  0
  9 10  2  0
  9 17  1  0
 10 11  1  0
 10 18  1  0
 11 12  2  0
 11 19  1  0
 12 20  1  0
M  RAD  1   8   2
M  END
>  <reaction>  (14) 
rxn_1455

>  <mol_properties>  (14) 
{"0": {"label": "*3", "atom_type": "Cs"}, "1": {"label": "*4", "atom_type": "S2s"}, "5": {"label": "*1", "atom_type": "Cs"}, "6": {"label": "*0", "atom_type": "Cd"}, "12": {"label": "*2", "atom_type": "H0"}}

>  <type>  (14) 
unop_10

>  <geom_source>  (14) 
Heuristics

$$$$

     RDKit          3D

 20 19  0  0  0  0  0  0  0  0999 V2000
   -0.6205   -1.4873    1.8697 C   0  0  0  0  0  0  0  0  0  0  0  0
   -1.3986   -1.1523    3.4700 S   0  0  0  0  0  0  0  0  0  0  0  0
   -1.2445   -2.2302    1.3756 H   0  0  0  0  0  0  0  0  0  0  0  0
    0.3792   -1.8986    1.9933 H   0  0  0  0  0  0  0  0  0  0  0  0
   -0.5097   -0.2492    3.9014 H   0  0  0  0  0  0  0  0  0  0  0  0
    0.5579    0.6437    0.9187 C   0  0  0  0  0  0  0  0  0  0  0  0
    0.5579    0.6437   -0.5850 C   0  0  0  0  0  0  0  0  0  0  0  0
    0.5579    1.8380   -1.2991 C   0  0  0  0  0  3  0  0  0  0  0  0
    0.5884    1.8413   -2.6851 C   0  0  0  0  0  0  0  0  0  0  0  0
    0.6179    0.6443   -3.3841 C   0  0  0  0  0  0  0  0  0  0  0  0
    0.6148   -0.5531   -2.6851 C   0  0  0  0  0  0  0  0  0  0  0  0
    0.5843   -0.5504   -1.2991 C   0  0  0  0  0  0  0  0  0  0  0  0
   -0.0320   -0.4231    1.3948 H   0  0  0  0  0  0  0  0  0  0  0  0
    1.5801    0.6549    1.3055 H   0  0  0  0  0  0  0  0  0  0  0  0
    0.0469    1.5215    1.3154 H   0  0  0  0  0  0  0  0  0  0  0  0
    0.5313    2.7791   -0.7613 H   0  0  0  0  0  0  0  0  0  0  0  0
    0.5857    2.7825   -3.2208 H   0  0  0  0  0  0  0  0  0  0  0  0
    0.6391    0.6445   -4.4665 H   0  0  0  0  0  0  0  0  0  0  0  0
    0.6329   -1.4941   -3.2208 H   0  0  0  0  0  0  0  0  0  0  0  0
    0.5784   -1.4918   -0.7613 H   0  0  0  0  0  0  0  0  0  0  0  0
  1  2  1  0
  1  3  1  0
  1  4  1  0
  1 13  1  0
  2  5  1  0
  6  7  2  3
  6 14  1  0
  6 15  1  0
  7  8  1  0
  7 12  1  0
  8  9  1  0
  8 16  1  0
  9 10  2  0
  9 17  1  0
 10 11  1  0
 10 18  1  0
 11 12  2  0
 11 19  1  0
 12 20  1  0
M  RAD  1   8   2
M  END
>  <reaction>  (15) 
rxn_1455

>  <mol_properties>  (15) 
{"0": {"label": "*3", "atom_type": "Cs"}, "1": {"label": "*4", "atom_type": "S2s"}, "5": {"label": "*1", "atom_type": "Cs"}, "6": {"label": "*0", "atom_type": "Cd"}, "12": {"label": "*2", "atom_type": "H0"}}

>  <type>  (15) 
unop_11

>  <geom_source>  (15) 
Heuristics

$$$$

     RDKit          3D

 20 19  0  0  0  0  0  0  0  0999 V2000
   -0.6482   -1.1590    2.5603 C   0  0  0  0  0  0  0  0  0  0  0  0
   -1.2424   -2.2336    1.2298 S   0  0  0  0  0  0  0  0  0  0  0  0
    0.0822   -1.7407    3.1203 H   0  0  0  0  0  0  0  0  0  0  0  0
   -1.4561   -0.8752    3.2315 H   0  0  0  0  0  0  0  0  0  0  0  0
   -2.0978   -1.3621    0.6815 H   0  0  0  0  0  0  0  0  0  0  0  0
    0.5302    0.9720    1.6093 C   0  0  0  0  0  0  0  0  0  0  0  0
    0.5302    0.9720    0.1055 C   0  0  0  0  0  0  0  0  0  0  0  0
    0.5302    2.1663   -0.6085 C   0  0  0  0  0  3  0  0  0  0  0  0
    0.5607    2.1697   -1.9945 C   0  0  0  0  0  0  0  0  0  0  0  0
    0.5902    0.9727   -2.6935 C   0  0  0  0  0  0  0  0  0  0  0  0
    0.5871   -0.2247   -1.9945 C   0  0  0  0  0  0  0  0  0  0  0  0
    0.5566   -0.2220   -0.6085 C   0  0  0  0  0  0  0  0  0  0  0  0
   -0.0596   -0.0947    2.0853 H   0  0  0  0  0  0  0  0  0  0  0  0
    1.5525    0.9833    1.9960 H   0  0  0  0  0  0  0  0  0  0  0  0
    0.0192    1.8499    2.0060 H   0  0  0  0  0  0  0  0  0  0  0  0
    0.5036    3.1074   -0.0707 H   0  0  0  0  0  0  0  0  0  0  0  0
    0.5581    3.1109   -2.5302 H   0  0  0  0  0  0  0  0  0  0  0  0
    0.6114    0.9729   -3.7759 H   0  0  0  0  0  0  0  0  0  0  0  0
    0.6052   -1.1657   -2.5302 H   0  0  0  0  0  0  0  0  0  0  0  0
    0.5507   -1.1635   -0.0707 H   0  0  0  0  0  0  0  0  0  0  0  0
  1  2  1  0
  1  3  1  0
  1  4  1  0
  1 13  1  0
  2  5  1  0
  6  7  2  3
  6 14  1  0
  6 15  1  0
  7  8  1  0
  7 12  1  0
  8  9  1  0
  8 16  1  0
  9 10  2  0
  9 17  1  0
 10 11  1  0
 10 18  1  0
 11 12  2  0
 11 19  1  0
 12 20  1  0
M  RAD  1   8   2
M  END
>  <reaction>  (16) 
rxn_1455

>  <mol_properties>  (16) 
{"0": {"label": "*3", "atom_type": "Cs"}, "1": {"label": "*4", "atom_type": "S2s"}, "5": {"label": "*1", "atom_type": "Cs"}, "6": {"label": "*0", "atom_type": "Cd"}, "12": {"label": "*2", "atom_type": "H0"}}

>  <type>  (16) 
unop_12

>  <geom_source>  (16) 
Heuristics

$$$$

     RDKit          3D

 20 19  0  0  0  0  0  0  0  0999 V2000
    3.4923    0.4139   -1.2771 S   0  0  0  0  0  0  0  0  0  0  0  0
    3.0892   -0.4498    0.2669 C   0  0  0  0  0  0  0  0  0  0  0  0
   -0.5630   -0.3433    0.3657 C   0  0  0  0  0  0  0  0  0  0  0  0
   -1.0719    0.8674    0.8625 C   0  0  0  0  0  3  0  0  0  0  0  0
   -1.1553   -0.9284   -0.7651 C   0  0  0  0  0  0  0  0  0  0  0  0
   -2.1795    1.4673    0.2543 C   0  0  0  0  0  0  0  0  0  0  0  0
   -2.7761    0.8699   -0.8597 C   0  0  0  0  0  0  0  0  0  0  0  0
   -2.2627   -0.3256   -1.3705 C   0  0  0  0  0  0  0  0  0  0  0  0
    0.6491   -0.9659    0.9906 C   0  0  0  0  0  0  0  0  0  0  0  0
    3.4056   -1.5103    0.1893 H   0  0  0  0  0  0  0  0  0  0  0  0
    3.6213    0.0320    1.1130 H   0  0  0  0  0  0  0  0  0  0  0  0
    1.7677   -0.3944    0.4797 H   0  0  0  0  0  0  0  0  0  0  0  0
   -0.6132    1.3456    1.7192 H   0  0  0  0  0  0  0  0  0  0  0  0
   -2.5729    2.3972    0.6443 H   0  0  0  0  0  0  0  0  0  0  0  0
   -0.7615   -1.8497   -1.1765 H   0  0  0  0  0  0  0  0  0  0  0  0
   -3.6323    1.3359   -1.3301 H   0  0  0  0  0  0  0  0  0  0  0  0
   -2.7205   -0.7833   -2.2380 H   0  0  0  0  0  0  0  0  0  0  0  0
    0.6982   -0.7352    2.0761 H   0  0  0  0  0  0  0  0  0  0  0  0
    0.6363   -2.0697    0.8666 H   0  0  0  0  0  0  0  0  0  0  0  0
    2.9492    1.6263   -0.8113 H   0  0  0  0  0  0  0  0  0  0  0  0
  1  2  1  0
  1 20  1  0
  2 10  1  0
  2 11  1  0
  2 12  1  0
  3  9  2  3
  3  4  1  0
  3  5  1  0
  4  6  1  0
  4 13  1  0
  5  8  2  0
  5 15  1  0
  6  7  2  0
  6 14  1  0
  7  8  1  0
  7 16  1  0
  8 17  1  0
  9 18  1  0
  9 19  1  0
M  RAD  1   4   2
M  END
>  <reaction>  (17) 
rxn_1455

>  <mol_properties>  (17) 
{"0": {"label": "*3", "atom_type": "Cs"}, "1": {"label": "*4", "atom_type": "S2s"}, "5": {"label": "*1", "atom_type": "Cs"}, "6": {"label": "*0", "atom_type": "Cd"}, "12": {"label": "*2", "atom_type": "H0"}}

>  <type>  (17) 
unop_13

>  <geom_source>  (17) 
AutoTST

$$$$

     RDKit          3D

 20 19  0  0  0  0  0  0  0  0999 V2000
   -0.8305   -1.0768    2.5126 C   0  0  0  0  0  0  0  0  0  0  0  0
   -0.6472   -2.4875    1.3925 S   0  0  0  0  0  0  0  0  0  0  0  0
   -0.0878   -1.2107    3.2973 H   0  0  0  0  0  0  0  0  0  0  0  0
   -1.8186   -1.0576    2.9677 H   0  0  0  0  0  0  0  0  0  0  0  0
   -1.6139   -2.1439    0.5326 H   0  0  0  0  0  0  0  0  0  0  0  0
    0.3479    1.0542    1.5616 C   0  0  0  0  0  0  0  0  0  0  0  0
    0.3479    1.0542    0.0578 C   0  0  0  0  0  0  0  0  0  0  0  0
    0.3479    2.2485   -0.6562 C   0  0  0  0  0  3  0  0  0  0  0  0
    0.3783    2.2519   -2.0422 C   0  0  0  0  0  0  0  0  0  0  0  0
    0.4078    1.0549   -2.7412 C   0  0  0  0  0  0  0  0  0  0  0  0
    0.4047   -0.1425   -2.0422 C   0  0  0  0  0  0  0  0  0  0  0  0
    0.3742   -0.1398   -0.6562 C   0  0  0  0  0  0  0  0  0  0  0  0
   -0.2420   -0.0125    2.0376 H   0  0  0  0  0  0  0  0  0  0  0  0
    1.3701    1.0655    1.9483 H   0  0  0  0  0  0  0  0  0  0  0  0
   -0.1632    1.9321    1.9583 H   0  0  0  0  0  0  0  0  0  0  0  0
    0.3212    3.1896   -0.1184 H   0  0  0  0  0  0  0  0  0  0  0  0
    0.3757    3.1931   -2.5779 H   0  0  0  0  0  0  0  0  0  0  0  0
    0.4290    1.0551   -3.8236 H   0  0  0  0  0  0  0  0  0  0  0  0
    0.4228   -1.0836   -2.5779 H   0  0  0  0  0  0  0  0  0  0  0  0
    0.3683   -1.0813   -0.1184 H   0  0  0  0  0  0  0  0  0  0  0  0
  1  2  1  0
  1  3  1  0
  1  4  1  0
  1 13  1  0
  2  5  1  0
  6  7  2  3
  6 14  1  0
  6 15  1  0
  7  8  1  0
  7 12  1  0
  8  9  1  0
  8 16  1  0
  9 10  2  0
  9 17  1  0
 10 11  1  0
 10 18  1  0
 11 12  2  0
 11 19  1  0
 12 20  1  0
M  RAD  1   8   2
M  END
>  <reaction>  (18) 
rxn_1455

>  <mol_properties>  (18) 
{"0": {"label": "*3", "atom_type": "Cs"}, "1": {"label": "*4", "atom_type": "S2s"}, "5": {"label": "*1", "atom_type": "Cs"}, "6": {"label": "*0", "atom_type": "Cd"}, "12": {"label": "*2", "atom_type": "H0"}}

>  <type>  (18) 
unop_14

>  <geom_source>  (18) 
gaussian_log

$$$$
