
     RDKit          3D

 10  9  0  0  0  0  0  0  0  0999 V2000
   -1.3430   -0.0068    0.1802 C   0  0  0  0  0  0  0  0  0  0  0  0
    0.0800   -0.1753   -0.3125 C   0  0  0  0  0  0  0  0  0  0  0  0
    0.4144    0.6817   -1.3880 O   0  0  0  0  0  0  0  0  0  0  0  0
    0.4868    2.0101   -0.8782 O   0  0  0  0  0  0  0  0  0  0  0  0
   -2.0531   -0.1437   -0.6372 H   0  0  0  0  0  0  0  0  0  0  0  0
   -1.5603   -0.7484    0.9509 H   0  0  0  0  0  0  0  0  0  0  0  0
   -1.4899    0.9815    0.6164 H   0  0  0  0  0  0  0  0  0  0  0  0
    0.2328   -1.1698   -0.7380 H   0  0  0  0  0  0  0  0  0  0  0  0
    0.8000   -0.0345    0.4993 H   0  0  0  0  0  0  0  0  0  0  0  0
   -0.2791    2.4184   -1.2952 H   0  0  0  0  0  0  0  0  0  0  0  0
  1  2  1  0
  1  5  1  0
  1  6  1  0
  1  7  1  0
  2  3  1  0
  2  8  1  0
  2  9  1  0
  3  4  1  0
  4 10  1  0
M  END
>  <reaction>  (1) 
rxn_456

>  <mol_properties>  (1) 
{"3": {"label": "donator", "atom_type": "O2s"}, "9": {"label": "d_hydrogen", "atom_type": "H0"}}

>  <type>  (1) 
r1h

$$$$

     RDKit          3D

  6  5  0  0  0  0  0  0  0  0999 V2000
   -0.4556    0.0419   -0.0850 C   0  0  0  0  0  0  0  0  0  0  0  0
    0.9351    0.2849    0.4399 C   0  0  0  0  0  3  0  0  0  0  0  0
    1.9128   -0.3354    0.2428 O   0  0  0  0  0  0  0  0  0  0  0  0
   -1.1294   -0.0755    0.7639 H   0  0  0  0  0  0  0  0  0  0  0  0
   -0.7760    0.9264   -0.6360 H   0  0  0  0  0  0  0  0  0  0  0  0
   -0.4869   -0.8422   -0.7256 H   0  0  0  0  0  0  0  0  0  0  0  0
  1  2  1  0
  1  4  1  0
  1  5  1  0
  1  6  1  0
  2  3  2  0
M  RAD  1   2   2
M  END
>  <reaction>  (2) 
rxn_456

>  <mol_properties>  (2) 
{"1": {"label": "acceptor", "atom_type": "CO"}}

>  <type>  (2) 
r2

$$$$

     RDKit          3D

  7  6  0  0  0  0  0  0  0  0999 V2000
   -0.6468   -0.0443   -0.0231 C   0  0  0  0  0  0  0  0  0  0  0  0
    0.8470    0.0371    0.0688 C   0  0  0  0  0  0  0  0  0  0  0  0
    1.4866   -0.2280    1.0479 O   0  0  0  0  0  0  0  0  0  0  0  0
   -1.0466    0.9363   -0.2943 H   0  0  0  0  0  0  0  0  0  0  0  0
   -0.9229   -0.7318   -0.8269 H   0  0  0  0  0  0  0  0  0  0  0  0
   -1.0759   -0.3772    0.9198 H   0  0  0  0  0  0  0  0  0  0  0  0
    1.3584    0.3712   -0.8589 H   0  0  0  0  0  0  0  0  0  0  0  0
  1  2  1  0
  1  4  1  0
  1  5  1  0
  1  6  1  0
  2  3  2  0
  2  7  1  0
M  END
>  <reaction>  (3) 
rxn_456

>  <mol_properties>  (3) 
{"0": {"label": "a_hydrogen", "atom_type": "H0"}, "2": {"label": "acceptor", "atom_type": "CO"}}

>  <type>  (3) 
r2h

$$$$

     RDKit          3D

 16 14  0  0  0  0  0  0  0  0999 V2000
    0.1378   -2.1046   -0.8282 C   0  0  0  0  0  0  0  0  0  0  0  0
    0.4352   -2.1766    0.6551 C   0  0  0  0  0  0  0  0  0  0  0  0
    0.7114   -0.9063    1.2354 O   0  0  0  0  0  0  0  0  0  0  0  0
   -0.4461   -0.1657    1.3007 O   0  0  0  0  0  0  0  0  0  0  0  0
    0.9579   -1.6266   -1.3677 H   0  0  0  0  0  0  0  0  0  0  0  0
    0.0133   -3.1126   -1.2273 H   0  0  0  0  0  0  0  0  0  0  0  0
   -0.7827   -1.5531   -1.0194 H   0  0  0  0  0  0  0  0  0  0  0  0
    1.3470   -2.7457    0.8468 H   0  0  0  0  0  0  0  0  0  0  0  0
   -0.3893   -2.6394    1.2029 H   0  0  0  0  0  0  0  0  0  0  0  0
   -0.4377    0.5485    0.2821 H   0  0  0  0  0  0  0  0  0  0  0  0
    1.1902    1.8350   -0.7121 C   0  0  0  0  0  0  0  0  0  0  0  0
   -0.2082    1.2932   -0.7628 C   0  0  0  0  0  3  0  0  0  0  0  0
   -1.0304    1.4627   -1.5945 O   0  0  0  0  0  0  0  0  0  0  0  0
    1.2567    2.5047    0.1476 H   0  0  0  0  0  0  0  0  0  0  0  0
    1.8782    1.0104   -0.5235 H   0  0  0  0  0  0  0  0  0  0  0  0
    1.4393    2.3618   -1.6320 H   0  0  0  0  0  0  0  0  0  0  0  0
  1  2  1  0
  1  5  1  0
  1  6  1  0
  1  7  1  0
  2  3  1  0
  2  8  1  0
  2  9  1  0
  3  4  1  0
  4 10  1  0
 11 12  1  0
 11 14  1  0
 11 15  1  0
 11 16  1  0
 12 13  2  0
M  RAD  1  12   2
M  END
>  <reaction>  (4) 
rxn_456

>  <mol_properties>  (4) 
{"2": {"label": "*0", "atom_type": "O2s"}, "3": {"label": "*1", "atom_type": "O2s"}, "9": {"label": "*2", "atom_type": "H0"}, "11": {"label": "*3", "atom_type": "CO"}, "12": {"label": "*4", "atom_type": "O2d"}}

>  <type>  (4) 
ts

$$$$

     RDKit          3D

 16 14  0  0  0  0  0  0  0  0999 V2000
    0.5679   -2.1419   -0.7848 C   0  0  0  0  0  0  0  0  0  0  0  0
    0.5679   -2.1419    0.7305 C   0  0  0  0  0  0  0  0  0  0  0  0
    0.5679   -0.8458    1.2990 O   0  0  0  0  0  0  0  0  0  0  0  0
   -0.7093   -0.2642    1.0535 O   0  0  0  0  0  0  0  0  0  0  0  0
    1.4123   -1.5681   -1.1706 H   0  0  0  0  0  0  0  0  0  0  0  0
    0.6497   -3.1647   -1.1569 H   0  0  0  0  0  0  0  0  0  0  0  0
   -0.3576   -1.7174   -1.1744 H   0  0  0  0  0  0  0  0  0  0  0  0
    1.4890   -2.5791    1.1229 H   0  0  0  0  0  0  0  0  0  0  0  0
   -0.2786   -2.7106    1.1271 H   0  0  0  0  0  0  0  0  0  0  0  0
   -0.4426    0.5690    0.2986 H   0  0  0  0  0  0  0  0  0  0  0  0
   -0.8121    1.4207   -1.9048 C   0  0  0  0  0  0  0  0  0  0  0  0
   -0.1349    1.5301   -0.5722 C   0  0  0  0  0  3  0  0  0  0  0  0
    0.0285    2.5547    0.0289 O   0  0  0  0  0  0  0  0  0  0  0  0
   -0.1235    0.9709   -2.6248 H   0  0  0  0  0  0  0  0  0  0  0  0
   -1.6680    0.7457   -1.8214 H   0  0  0  0  0  0  0  0  0  0  0  0
   -1.1373    2.3978   -2.2560 H   0  0  0  0  0  0  0  0  0  0  0  0
  1  2  1  0
  1  5  1  0
  1  6  1  0
  1  7  1  0
  2  3  1  0
  2  8  1  0
  2  9  1  0
  3  4  1  0
  4 10  1  0
 11 12  1  0
 11 14  1  0
 11 15  1  0
 11 16  1  0
 12 13  2  0
M  RAD  1  12   2
M  END
>  <reaction>  (5) 
rxn_456

>  <mol_properties>  (5) 
{"2": {"label": "*0", "atom_type": "O2s"}, "3": {"label": "*1", "atom_type": "O2s"}, "9": {"label": "*2", "atom_type": "H0"}, "11": {"label": "*3", "atom_type": "CO"}, "12": {"label": "*4", "atom_type": "O2d"}}

>  <type>  (5) 
unop_1

>  <geom_source>  (5) 
Heuristics

$$$$

     RDKit          3D

 16 14  0  0  0  0  0  0  0  0999 V2000
    0.4396   -2.0869   -0.7281 C   0  0  0  0  0  0  0  0  0  0  0  0
    0.4396   -2.0869    0.7871 C   0  0  0  0  0  0  0  0  0  0  0  0
    0.4396   -0.7908    1.3556 O   0  0  0  0  0  0  0  0  0  0  0  0
   -0.8376   -0.2091    1.1101 O   0  0  0  0  0  0  0  0  0  0  0  0
    1.2840   -1.5130   -1.1140 H   0  0  0  0  0  0  0  0  0  0  0  0
    0.5214   -3.1096   -1.1003 H   0  0  0  0  0  0  0  0  0  0  0  0
   -0.4859   -1.6624   -1.1178 H   0  0  0  0  0  0  0  0  0  0  0  0
    1.3607   -2.5240    1.1796 H   0  0  0  0  0  0  0  0  0  0  0  0
   -0.4069   -2.6555    1.1837 H   0  0  0  0  0  0  0  0  0  0  0  0
   -0.5709    0.6241    0.3552 H   0  0  0  0  0  0  0  0  0  0  0  0
    0.9158    1.2933   -1.3938 C   0  0  0  0  0  0  0  0  0  0  0  0
   -0.2632    1.5851   -0.5156 C   0  0  0  0  0  3  0  0  0  0  0  0
   -1.0880    2.4269   -0.7370 O   0  0  0  0  0  0  0  0  0  0  0  0
    1.8362    1.4186   -0.8174 H   0  0  0  0  0  0  0  0  0  0  0  0
    0.8809    0.2476   -1.7106 H   0  0  0  0  0  0  0  0  0  0  0  0
    0.9244    1.9487   -2.2622 H   0  0  0  0  0  0  0  0  0  0  0  0
  1  2  1  0
  1  5  1  0
  1  6  1  0
  1  7  1  0
  2  3  1  0
  2  8  1  0
  2  9  1  0
  3  4  1  0
  4 10  1  0
 11 12  1  0
 11 14  1  0
 11 15  1  0
 11 16  1  0
 12 13  2  0
M  RAD  1  12   2
M  END
>  <reaction>  (6) 
rxn_456

>  <mol_properties>  (6) 
{"2": {"label": "*0", "atom_type": "O2s"}, "3": {"label": "*1", "atom_type": "O2s"}, "9": {"label": "*2", "atom_type": "H0"}, "11": {"label": "*3", "atom_type": "CO"}, "12": {"label": "*4", "atom_type": "O2d"}}

>  <type>  (6) 
unop_2

>  <geom_source>  (6) 
Heuristics

$$$$

     RDKit          3D

 16 14  0  0  0  0  0  0  0  0999 V2000
    0.5297   -2.1716   -0.8093 C   0  0  0  0  0  0  0  0  0  0  0  0
    0.5297   -2.1716    0.7060 C   0  0  0  0  0  0  0  0  0  0  0  0
    0.5297   -0.8755    1.2744 O   0  0  0  0  0  0  0  0  0  0  0  0
   -0.7476   -0.2939    1.0289 O   0  0  0  0  0  0  0  0  0  0  0  0
    1.3740   -1.5978   -1.1952 H   0  0  0  0  0  0  0  0  0  0  0  0
    0.6114   -3.1944   -1.1815 H   0  0  0  0  0  0  0  0  0  0  0  0
   -0.3958   -1.7471   -1.1990 H   0  0  0  0  0  0  0  0  0  0  0  0
    1.4507   -2.6088    1.0984 H   0  0  0  0  0  0  0  0  0  0  0  0
   -0.3168   -2.7403    1.1026 H   0  0  0  0  0  0  0  0  0  0  0  0
   -0.4808    0.5393    0.2740 H   0  0  0  0  0  0  0  0  0  0  0  0
   -1.2562    1.8421   -1.5749 C   0  0  0  0  0  0  0  0  0  0  0  0
   -0.1732    1.5004   -0.5968 C   0  0  0  0  0  3  0  0  0  0  0  0
    0.6437    2.2752   -0.1839 O   0  0  0  0  0  0  0  0  0  0  0  0
   -1.1613    1.2039   -2.4574 H   0  0  0  0  0  0  0  0  0  0  0  0
   -2.2295    1.6220   -1.1286 H   0  0  0  0  0  0  0  0  0  0  0  0
   -1.2031    2.8902   -1.8620 H   0  0  0  0  0  0  0  0  0  0  0  0
  1  2  1  0
  1  5  1  0
  1  6  1  0
  1  7  1  0
  2  3  1  0
  2  8  1  0
  2  9  1  0
  3  4  1  0
  4 10  1  0
 11 12  1  0
 11 14  1  0
 11 15  1  0
 11 16  1  0
 12 13  2  0
M  RAD  1  12   2
M  END
>  <reaction>  (7) 
rxn_456

>  <mol_properties>  (7) 
{"2": {"label": "*0", "atom_type": "O2s"}, "3": {"label": "*1", "atom_type": "O2s"}, "9": {"label": "*2", "atom_type": "H0"}, "11": {"label": "*3", "atom_type": "CO"}, "12": {"label": "*4", "atom_type": "O2d"}}

>  <type>  (7) 
unop_3

>  <geom_source>  (7) 
Heuristics

$$$$

     RDKit          3D

 16 14  0  0  0  0  0  0  0  0999 V2000
    0.4782   -2.1895   -0.8484 C   0  0  0  0  0  0  0  0  0  0  0  0
    0.4782   -2.1895    0.6669 C   0  0  0  0  0  0  0  0  0  0  0  0
    0.4782   -0.8934    1.2353 O   0  0  0  0  0  0  0  0  0  0  0  0
   -0.7990   -0.3117    0.9899 O   0  0  0  0  0  0  0  0  0  0  0  0
    1.3226   -1.6156   -1.2342 H   0  0  0  0  0  0  0  0  0  0  0  0
    0.5599   -3.2122   -1.2205 H   0  0  0  0  0  0  0  0  0  0  0  0
   -0.4473   -1.7650   -1.2380 H   0  0  0  0  0  0  0  0  0  0  0  0
    1.3992   -2.6267    1.0593 H   0  0  0  0  0  0  0  0  0  0  0  0
   -0.3683   -2.7581    1.0635 H   0  0  0  0  0  0  0  0  0  0  0  0
   -0.5323    0.5215    0.2349 H   0  0  0  0  0  0  0  0  0  0  0  0
    0.7460    2.5082   -0.1334 C   0  0  0  0  0  0  0  0  0  0  0  0
   -0.2246    1.4825   -0.6358 C   0  0  0  0  0  3  0  0  0  0  0  0
   -1.0980    1.6991   -1.4285 O   0  0  0  0  0  0  0  0  0  0  0  0
    0.6696    2.5762    0.9549 H   0  0  0  0  0  0  0  0  0  0  0  0
    1.7650    2.1833   -0.3593 H   0  0  0  0  0  0  0  0  0  0  0  0
    0.5526    3.4792   -0.5849 H   0  0  0  0  0  0  0  0  0  0  0  0
  1  2  1  0
  1  5  1  0
  1  6  1  0
  1  7  1  0
  2  3  1  0
  2  8  1  0
  2  9  1  0
  3  4  1  0
  4 10  1  0
 11 12  1  0
 11 14  1  0
 11 15  1  0
 11 16  1  0
 12 13  2  0
M  RAD  1  12   2
M  END
>  <reaction>  (8) 
rxn_456

>  <mol_properties>  (8) 
{"2": {"label": "*0", "atom_type": "O2s"}, "3": {"label": "*1", "atom_type": "O2s"}, "9": {"label": "*2", "atom_type": "H0"}, "11": {"label": "*3", "atom_type": "CO"}, "12": {"label": "*4", "atom_type": "O2d"}}

>  <type>  (8) 
unop_4

>  <geom_source>  (8) 
Heuristics

$$$$

     RDKit          3D

 16 14  0  0  0  0  0  0  0  0999 V2000
    0.4926   -2.1500   -0.7694 C   0  0  0  0  0  0  0  0  0  0  0  0
    0.4926   -2.1500    0.7459 C   0  0  0  0  0  0  0  0  0  0  0  0
    0.4926   -0.8539    1.3143 O   0  0  0  0  0  0  0  0  0  0  0  0
   -0.7846   -0.2723    1.0688 O   0  0  0  0  0  0  0  0  0  0  0  0
    1.3370   -1.5762   -1.1553 H   0  0  0  0  0  0  0  0  0  0  0  0
    0.5744   -3.1727   -1.1416 H   0  0  0  0  0  0  0  0  0  0  0  0
   -0.4328   -1.7255   -1.1590 H   0  0  0  0  0  0  0  0  0  0  0  0
    1.4137   -2.5872    1.1383 H   0  0  0  0  0  0  0  0  0  0  0  0
   -0.3538   -2.7186    1.1425 H   0  0  0  0  0  0  0  0  0  0  0  0
   -0.5178    0.5609    0.3139 H   0  0  0  0  0  0  0  0  0  0  0  0
   -1.3695    2.3460   -1.0296 C   0  0  0  0  0  0  0  0  0  0  0  0
   -0.2102    1.5220   -0.5568 C   0  0  0  0  0  3  0  0  0  0  0  0
    0.9262    1.6776   -0.9068 O   0  0  0  0  0  0  0  0  0  0  0  0
   -2.1113    1.6926   -1.4964 H   0  0  0  0  0  0  0  0  0  0  0  0
   -1.8561    2.8131   -0.1694 H   0  0  0  0  0  0  0  0  0  0  0  0
   -1.0424    3.1070   -1.7352 H   0  0  0  0  0  0  0  0  0  0  0  0
  1  2  1  0
  1  5  1  0
  1  6  1  0
  1  7  1  0
  2  3  1  0
  2  8  1  0
  2  9  1  0
  3  4  1  0
  4 10  1  0
 11 12  1  0
 11 14  1  0
 11 15  1  0
 11 16  1  0
 12 13  2  0
M  RAD  1  12   2
M  END
>  <reaction>  (9) 
rxn_456

>  <mol_properties>  (9) 
{"2": {"label": "*0", "atom_type": "O2s"}, "3": {"label": "*1", "atom_type": "O2s"}, "9": {"label": "*2", "atom_type": "H0"}, "11": {"label": "*3", "atom_type": "CO"}, "12": {"label": "*4", "atom_type": "O2d"}}

>  <type>  (9) 
unop_5

>  <geom_source>  (9) 
Heuristics

$$$$

     RDKit          3D

 16 14  0  0  0  0  0  0  0  0999 V2000
    0.5382   -2.1796   -0.8336 C   0  0  0  0  0  0  0  0  0  0  0  0
    0.5382   -2.1796    0.6817 C   0  0  0  0  0  0  0  0  0  0  0  0
    0.5382   -0.8835    1.2501 O   0  0  0  0  0  0  0  0  0  0  0  0
   -0.7390   -0.3019    1.0046 O   0  0  0  0  0  0  0  0  0  0  0  0
    1.3825   -1.6058   -1.2195 H   0  0  0  0  0  0  0  0  0  0  0  0
    0.6199   -3.2024   -1.2058 H   0  0  0  0  0  0  0  0  0  0  0  0
   -0.3873   -1.7551   -1.2232 H   0  0  0  0  0  0  0  0  0  0  0  0
    1.4592   -2.6168    1.0741 H   0  0  0  0  0  0  0  0  0  0  0  0
   -0.3083   -2.7482    1.0783 H   0  0  0  0  0  0  0  0  0  0  0  0
   -0.4723    0.5313    0.2497 H   0  0  0  0  0  0  0  0  0  0  0  0
    0.1794    2.8171   -0.0100 C   0  0  0  0  0  0  0  0  0  0  0  0
   -0.1646    1.4924   -0.6210 C   0  0  0  0  0  3  0  0  0  0  0  0
   -0.8144    1.3484   -1.6185 O   0  0  0  0  0  0  0  0  0  0  0  0
   -0.1993    2.8521    1.0149 H   0  0  0  0  0  0  0  0  0  0  0  0
    1.2664    2.9161    0.0509 H   0  0  0  0  0  0  0  0  0  0  0  0
   -0.2400    3.6341   -0.5935 H   0  0  0  0  0  0  0  0  0  0  0  0
  1  2  1  0
  1  5  1  0
  1  6  1  0
  1  7  1  0
  2  3  1  0
  2  8  1  0
  2  9  1  0
  3  4  1  0
  4 10  1  0
 11 12  1  0
 11 14  1  0
 11 15  1  0
 11 16  1  0
 12 13  2  0
M  RAD  1  12   2
M  END
>  <reaction>  (10) 
rxn_456

>  <mol_properties>  (10) 
{"2": {"label": "*0", "atom_type": "O2s"}, "3": {"label": "*1", "atom_type": "O2s"}, "9": {"label": "*2", "atom_type": "H0"}, "11": {"label": "*3", "atom_type": "CO"}, "12": {"label": "*4", "atom_type": "O2d"}}

>  <type>  (10) 
unop_6

>  <geom_source>  (10) 
Heuristics

$$$$

     RDKit          3D

 16 14  0  0  0  0  0  0  0  0999 V2000
    0.5666   -2.1477   -0.7915 C   0  0  0  0  0  0  0  0  0  0  0  0
    0.5666   -2.1477    0.7237 C   0  0  0  0  0  0  0  0  0  0  0  0
    0.5666   -0.8516    1.2922 O   0  0  0  0  0  0  0  0  0  0  0  0
   -0.7106   -0.2699    1.0467 O   0  0  0  0  0  0  0  0  0  0  0  0
    1.4110   -1.5738   -1.1774 H   0  0  0  0  0  0  0  0  0  0  0  0
    0.6484   -3.1704   -1.1637 H   0  0  0  0  0  0  0  0  0  0  0  0
   -0.3589   -1.7232   -1.1812 H   0  0  0  0  0  0  0  0  0  0  0  0
    1.4877   -2.5848    1.1162 H   0  0  0  0  0  0  0  0  0  0  0  0
   -0.2799   -2.7163    1.1203 H   0  0  0  0  0  0  0  0  0  0  0  0
   -0.4439    0.5633    0.2918 H   0  0  0  0  0  0  0  0  0  0  0  0
   -0.4716    2.9158   -0.1343 C   0  0  0  0  0  0  0  0  0  0  0  0
   -0.1362    1.5243   -0.5790 C   0  0  0  0  0  3  0  0  0  0  0  0
   -0.3021    1.1035   -1.6896 O   0  0  0  0  0  0  0  0  0  0  0  0
   -1.1843    2.8693    0.6933 H   0  0  0  0  0  0  0  0  0  0  0  0
    0.4297    3.3996    0.2513 H   0  0  0  0  0  0  0  0  0  0  0  0
   -0.8871    3.4960   -0.9556 H   0  0  0  0  0  0  0  0  0  0  0  0
  1  2  1  0
  1  5  1  0
  1  6  1  0
  1  7  1  0
  2  3  1  0
  2  8  1  0
  2  9  1  0
  3  4  1  0
  4 10  1  0
 11 12  1  0
 11 14  1  0
 11 15  1  0
 11 16  1  0
 12 13  2  0
M  RAD  1  12   2
M  END
>  <reaction>  (11) 
rxn_456

>  <mol_properties>  (11) 
{"2": {"label": "*0", "atom_type": "O2s"}, "3": {"label": "*1", "atom_type": "O2s"}, "9": {"label": "*2", "atom_type": "H0"}, "11": {"label": "*3", "atom_type": "CO"}, "12": {"label": "*4", "atom_type": "O2d"}}

>  <type>  (11) 
unop_7

>  <geom_source>  (11) 
Heuristics

$$$$

     RDKit          3D

 16 14  0  0  0  0  0  0  0  0999 V2000
    0.5559   -2.1020   -0.7417 C   0  0  0  0  0  0  0  0  0  0  0  0
    0.5559   -2.1020    0.7736 C   0  0  0  0  0  0  0  0  0  0  0  0
    0.5559   -0.8059    1.3421 O   0  0  0  0  0  0  0  0  0  0  0  0
   -0.7213   -0.2242    1.0966 O   0  0  0  0  0  0  0  0  0  0  0  0
    1.4002   -1.5281   -1.1275 H   0  0  0  0  0  0  0  0  0  0  0  0
    0.6376   -3.1247   -1.1138 H   0  0  0  0  0  0  0  0  0  0  0  0
   -0.3696   -1.6775   -1.1313 H   0  0  0  0  0  0  0  0  0  0  0  0
    1.4769   -2.5392    1.1660 H   0  0  0  0  0  0  0  0  0  0  0  0
   -0.2906   -2.6706    1.1702 H   0  0  0  0  0  0  0  0  0  0  0  0
   -0.4546    0.6090    0.3417 H   0  0  0  0  0  0  0  0  0  0  0  0
   -0.1977    1.1617   -1.9703 C   0  0  0  0  0  0  0  0  0  0  0  0
   -0.1469    1.5700   -0.5291 C   0  0  0  0  0  3  0  0  0  0  0  0
   -0.5233    2.6266   -0.1049 O   0  0  0  0  0  0  0  0  0  0  0  0
    0.8116    0.9195   -2.3135 H   0  0  0  0  0  0  0  0  0  0  0  0
   -0.7921    0.2494   -2.0672 H   0  0  0  0  0  0  0  0  0  0  0  0
   -0.6228    1.9538   -2.5832 H   0  0  0  0  0  0  0  0  0  0  0  0
  1  2  1  0
  1  5  1  0
  1  6  1  0
  1  7  1  0
  2  3  1  0
  2  8  1  0
  2  9  1  0
  3  4  1  0
  4 10  1  0
 11 12  1  0
 11 14  1  0
 11 15  1  0
 11 16  1  0
 12 13  2  0
M  RAD  1  12   2
M  END
>  <reaction>  (12) 
rxn_456

>  <mol_properties>  (12) 
{"2": {"label": "*0", "atom_type": "O2s"}, "3": {"label": "*1", "atom_type": "O2s"}, "9": {"label": "*2", "atom_type": "H0"}, "11": {"label": "*3", "atom_type": "CO"}, "12": {"label": "*4", "atom_type": "O2d"}}

>  <type>  (12) 
unop_8

>  <geom_source>  (12) 
Heuristics

$$$$

     RDKit          3D

 16 14  0  0  0  0  0  0  0  0999 V2000
    0.4211   -2.1683   -0.8246 C   0  0  0  0  0  0  0  0  0  0  0  0
    0.4211   -2.1683    0.6907 C   0  0  0  0  0  0  0  0  0  0  0  0
    0.4211   -0.8722    1.2592 O   0  0  0  0  0  0  0  0  0  0  0  0
   -0.8561   -0.2906    1.0137 O   0  0  0  0  0  0  0  0  0  0  0  0
    1.2654   -1.5945   -1.2104 H   0  0  0  0  0  0  0  0  0  0  0  0
    0.5028   -3.1910   -1.1967 H   0  0  0  0  0  0  0  0  0  0  0  0
   -0.5044   -1.7438   -1.2142 H   0  0  0  0  0  0  0  0  0  0  0  0
    1.3421   -2.6055    1.0831 H   0  0  0  0  0  0  0  0  0  0  0  0
   -0.4254   -2.7369    1.0873 H   0  0  0  0  0  0  0  0  0  0  0  0
   -0.5894    0.5427    0.2588 H   0  0  0  0  0  0  0  0  0  0  0  0
    1.0946    2.0784   -0.4641 C   0  0  0  0  0  0  0  0  0  0  0  0
   -0.2817    1.5037   -0.6120 C   0  0  0  0  0  3  0  0  0  0  0  0
   -1.1793    2.0263   -1.2114 O   0  0  0  0  0  0  0  0  0  0  0  0
    1.3250    2.1971    0.5979 H   0  0  0  0  0  0  0  0  0  0  0  0
    1.8261    1.3744   -0.8696 H   0  0  0  0  0  0  0  0  0  0  0  0
    1.1721    3.0361   -0.9746 H   0  0  0  0  0  0  0  0  0  0  0  0
  1  2  1  0
  1  5  1  0
  1  6  1  0
  1  7  1  0
  2  3  1  0
  2  8  1  0
  2  9  1  0
  3  4  1  0
  4 10  1  0
 11 12  1  0
 11 14  1  0
 11 15  1  0
 11 16  1  0
 12 13  2  0
M  RAD  1  12   2
M  END
>  <reaction>  (13) 
rxn_456

>  <mol_properties>  (13) 
{"2": {"label": "*0", "atom_type": "O2s"}, "3": {"label": "*1", "atom_type": "O2s"}, "9": {"label": "*2", "atom_type": "H0"}, "11": {"label": "*3", "atom_type": "CO"}, "12": {"label": "*4", "atom_type": "O2d"}}

>  <type>  (13) 
unop_9

>  <geom_source>  (13) 
Heuristics

$$$$

     RDKit          3D

 16 14  0  0  0  0  0  0  0  0999 V2000
    0.5035   -2.0784   -0.7168 C   0  0  0  0  0  0  0  0  0  0  0  0
    0.5035   -2.0784    0.7984 C   0  0  0  0  0  0  0  0  0  0  0  0
    0.5035   -0.7823    1.3669 O   0  0  0  0  0  0  0  0  0  0  0  0
   -0.7737   -0.2007    1.1214 O   0  0  0  0  0  0  0  0  0  0  0  0
    1.3479   -1.5046   -1.1027 H   0  0  0  0  0  0  0  0  0  0  0  0
    0.5852   -3.1011   -1.0890 H   0  0  0  0  0  0  0  0  0  0  0  0
   -0.4220   -1.6539   -1.1065 H   0  0  0  0  0  0  0  0  0  0  0  0
    1.4245   -2.5156    1.1908 H   0  0  0  0  0  0  0  0  0  0  0  0
   -0.3430   -2.6470    1.1950 H   0  0  0  0  0  0  0  0  0  0  0  0
   -0.5070    0.6325    0.3665 H   0  0  0  0  0  0  0  0  0  0  0  0
    0.4294    1.1184   -1.7792 C   0  0  0  0  0  0  0  0  0  0  0  0
   -0.1993    1.5936   -0.5043 C   0  0  0  0  0  3  0  0  0  0  0  0
   -0.9017    2.5608   -0.4081 O   0  0  0  0  0  0  0  0  0  0  0  0
    1.5153    1.0871   -1.6574 H   0  0  0  0  0  0  0  0  0  0  0  0
    0.1044    0.0949   -1.9834 H   0  0  0  0  0  0  0  0  0  0  0  0
    0.1632    1.7696   -2.6092 H   0  0  0  0  0  0  0  0  0  0  0  0
  1  2  1  0
  1  5  1  0
  1  6  1  0
  1  7  1  0
  2  3  1  0
  2  8  1  0
  2  9  1  0
  3  4  1  0
  4 10  1  0
 11 12  1  0
 11 14  1  0
 11 15  1  0
 11 16  1  0
 12 13  2  0
M  RAD  1  12   2
M  END
>  <reaction>  (14) 
rxn_456

>  <mol_properties>  (14) 
{"2": {"label": "*0", "atom_type": "O2s"}, "3": {"label": "*1", "atom_type": "O2s"}, "9": {"label": "*2", "atom_type": "H0"}, "11": {"label": "*3", "atom_type": "CO"}, "12": {"label": "*4", "atom_type": "O2d"}}

>  <type>  (14) 
unop_10

>  <geom_source>  (14) 
Heuristics

$$$$

     RDKit          3D

 16 14  0  0  0  0  0  0  0  0999 V2000
    0.5409   -2.1223   -0.7510 C   0  0  0  0  0  0  0  0  0  0  0  0
    0.5409   -2.1223    0.7643 C   0  0  0  0  0  0  0  0  0  0  0  0
    0.5409   -0.8262    1.3328 O   0  0  0  0  0  0  0  0  0  0  0  0
   -0.7363   -0.2446    1.0873 O   0  0  0  0  0  0  0  0  0  0  0  0
    1.3852   -1.5485   -1.1368 H   0  0  0  0  0  0  0  0  0  0  0  0
    0.6226   -3.1451   -1.1231 H   0  0  0  0  0  0  0  0  0  0  0  0
   -0.3846   -1.6979   -1.1406 H   0  0  0  0  0  0  0  0  0  0  0  0
    1.4619   -2.5595    1.1567 H   0  0  0  0  0  0  0  0  0  0  0  0
   -0.3056   -2.6910    1.1609 H   0  0  0  0  0  0  0  0  0  0  0  0
   -0.4696    0.5886    0.3324 H   0  0  0  0  0  0  0  0  0  0  0  0
   -1.0476    2.7579   -0.4904 C   0  0  0  0  0  0  0  0  0  0  0  0
   -0.1619    1.5497   -0.5384 C   0  0  0  0  0  3  0  0  0  0  0  0
    0.3858    1.1430   -1.5246 O   0  0  0  0  0  0  0  0  0  0  0  0
   -2.0370    2.4671   -0.1278 H   0  0  0  0  0  0  0  0  0  0  0  0
   -0.6443    3.4737    0.2306 H   0  0  0  0  0  0  0  0  0  0  0  0
   -1.1281    3.2191   -1.4726 H   0  0  0  0  0  0  0  0  0  0  0  0
  1  2  1  0
  1  5  1  0
  1  6  1  0
  1  7  1  0
  2  3  1  0
  2  8  1  0
  2  9  1  0
  3  4  1  0
  4 10  1  0
 11 12  1  0
 11 14  1  0
 11 15  1  0
 11 16  1  0
 12 13  2  0
M  RAD  1  12   2
M  END
>  <reaction>  (15) 
rxn_456

>  <mol_properties>  (15) 
{"2": {"label": "*0", "atom_type": "O2s"}, "3": {"label": "*1", "atom_type": "O2s"}, "9": {"label": "*2", "atom_type": "H0"}, "11": {"label": "*3", "atom_type": "CO"}, "12": {"label": "*4", "atom_type": "O2d"}}

>  <type>  (15) 
unop_11

>  <geom_source>  (15) 
Heuristics

$$$$

     RDKit          3D

 16 14  0  0  0  0  0  0  0  0999 V2000
    0.4037   -2.1251   -0.7733 C   0  0  0  0  0  0  0  0  0  0  0  0
    0.4037   -2.1251    0.7420 C   0  0  0  0  0  0  0  0  0  0  0  0
    0.4037   -0.8290    1.3104 O   0  0  0  0  0  0  0  0  0  0  0  0
   -0.8736   -0.2473    1.0649 O   0  0  0  0  0  0  0  0  0  0  0  0
    1.2480   -1.5512   -1.1592 H   0  0  0  0  0  0  0  0  0  0  0  0
    0.4854   -3.1478   -1.1455 H   0  0  0  0  0  0  0  0  0  0  0  0
   -0.5218   -1.7006   -1.1630 H   0  0  0  0  0  0  0  0  0  0  0  0
    1.3247   -2.5623    1.1344 H   0  0  0  0  0  0  0  0  0  0  0  0
   -0.4428   -2.6937    1.1386 H   0  0  0  0  0  0  0  0  0  0  0  0
   -0.6068    0.5859    0.3100 H   0  0  0  0  0  0  0  0  0  0  0  0
    1.1535    1.6393   -0.9182 C   0  0  0  0  0  0  0  0  0  0  0  0
   -0.2992    1.5469   -0.5608 C   0  0  0  0  0  3  0  0  0  0  0  0
   -1.1571    2.2611   -0.9988 O   0  0  0  0  0  0  0  0  0  0  0  0
    1.7395    1.8060   -0.0106 H   0  0  0  0  0  0  0  0  0  0  0  0
    1.4843    0.6855   -1.3375 H   0  0  0  0  0  0  0  0  0  0  0  0
    1.3273    2.4432   -1.6305 H   0  0  0  0  0  0  0  0  0  0  0  0
  1  2  1  0
  1  5  1  0
  1  6  1  0
  1  7  1  0
  2  3  1  0
  2  8  1  0
  2  9  1  0
  3  4  1  0
  4 10  1  0
 11 12  1  0
 11 14  1  0
 11 15  1  0
 11 16  1  0
 12 13  2  0
M  RAD  1  12   2
M  END
>  <reaction>  (16) 
rxn_456

>  <mol_properties>  (16) 
{"2": {"label": "*0", "atom_type": "O2s"}, "3": {"label": "*1", "atom_type": "O2s"}, "9": {"label": "*2", "atom_type": "H0"}, "11": {"label": "*3", "atom_type": "CO"}, "12": {"label": "*4", "atom_type": "O2d"}}

>  <type>  (16) 
unop_12

>  <geom_source>  (16) 
Heuristics

$$$$

     RDKit          3D

 16 14  0  0  0  0  0  0  0  0999 V2000
   -1.1025   -1.3757    0.6666 O   0  0  0  0  0  0  0  0  0  0  0  0
    2.2233    0.2964   -1.6134 O   0  0  0  0  0  0  0  0  0  0  0  0
    0.0194   -1.0979    0.0289 O   0  0  0  0  0  1  0  0  0  0  0  0
   -2.1507   -1.0008   -0.1917 C   0  0  0  0  0  0  0  0  0  0  0  0
   -2.4084    0.4999   -0.1020 C   0  0  0  0  0  0  0  0  0  0  0  0
    2.9433    0.7717    0.5788 C   0  0  0  0  0  0  0  0  0  0  0  0
    2.1145    0.0411   -0.4251 C   0  0  0  0  0  0  0  0  0  0  0  0
   -3.0703   -1.5360    0.1261 H   0  0  0  0  0  0  0  0  0  0  0  0
   -1.9465   -1.2960   -1.2473 H   0  0  0  0  0  0  0  0  0  0  0  0
   -2.6314    0.7853    0.9480 H   0  0  0  0  0  0  0  0  0  0  0  0
   -3.2765    0.7688   -0.7399 H   0  0  0  0  0  0  0  0  0  0  0  0
   -1.5191    1.0648   -0.4530 H   0  0  0  0  0  0  0  0  0  0  0  0
    2.7262    1.8591    0.5249 H   0  0  0  0  0  0  0  0  0  0  0  0
    4.0205    0.5996    0.3729 H   0  0  0  0  0  0  0  0  0  0  0  0
    2.7054    0.4041    1.5986 H   0  0  0  0  0  0  0  0  0  0  0  0
    1.3527   -0.7843   -0.0725 H   0  0  0  0  0  0  0  0  0  0  0  0
  1  4  1  0
  1  3  1  0
  2  7  2  0
  4  5  1  0
  4  8  1  0
  4  9  1  0
  5 10  1  0
  5 11  1  0
  5 12  1  0
  6  7  1  0
  6 13  1  0
  6 14  1  0
  6 15  1  0
  7 16  1  0
M  RAD  1   3   2
M  END
>  <reaction>  (17) 
rxn_456

>  <mol_properties>  (17) 
{"2": {"label": "*0", "atom_type": "O2s"}, "3": {"label": "*1", "atom_type": "O2s"}, "9": {"label": "*2", "atom_type": "H0"}, "11": {"label": "*3", "atom_type": "CO"}, "12": {"label": "*4", "atom_type": "O2d"}}

>  <type>  (17) 
unop_13

>  <geom_source>  (17) 
AutoTST

$$$$
