
     RDKit          3D

 12 11  0  0  0  0  0  0  0  0999 V2000
    2.1696    0.6854    1.1310 C   0  0  0  0  0  0  0  0  0  0  0  0
    1.2518    0.4145    0.4134 C   0  0  0  0  0  0  0  0  0  0  0  0
    0.1391    0.0443   -0.4683 C   0  0  0  0  0  0  0  0  0  0  0  0
   -0.2054   -1.4492   -0.3339 C   0  0  0  0  0  0  0  0  0  0  0  0
   -1.0375    0.8853   -0.2222 C   0  0  0  0  0  0  0  0  0  0  0  0
   -2.0160    1.5463   -0.0311 C   0  0  0  0  0  0  0  0  0  0  0  0
    2.9819    0.9356    1.7702 H   0  0  0  0  0  0  0  0  0  0  0  0
    0.4629    0.2285   -1.4981 H   0  0  0  0  0  0  0  0  0  0  0  0
   -0.5327   -1.6703    0.6812 H   0  0  0  0  0  0  0  0  0  0  0  0
    0.6727   -2.0535   -0.5593 H   0  0  0  0  0  0  0  0  0  0  0  0
   -1.0064   -1.7081   -1.0256 H   0  0  0  0  0  0  0  0  0  0  0  0
   -2.8802    2.1413    0.1426 H   0  0  0  0  0  0  0  0  0  0  0  0
  1  2  3  0
  1  7  1  0
  2  3  1  0
  3  4  1  0
  3  5  1  0
  3  8  1  0
  4  9  1  0
  4 10  1  0
  4 11  1  0
  5  6  3  0
  6 12  1  0
M  END
>  <reaction>  (1) 
rxn_1429

>  <mol_properties>  (1) 
{"2": {"label": "donator", "atom_type": "Cs"}, "7": {"label": "d_hydrogen", "atom_type": "H0"}}

>  <type>  (1) 
r1h

$$$$

     RDKit          3D

  6  5  0  0  0  0  0  0  0  0999 V2000
   -0.5036    0.1196    0.0353 C   0  0  0  0  0  0  0  0  0  0  0  0
    0.9526    0.1121    0.2227 C   0  0  0  0  0  3  0  0  0  0  0  0
    2.2066   -0.6670   -0.2771 S   0  0  0  0  0  0  0  0  0  0  0  0
   -0.8527   -0.6450   -0.6655 H   0  0  0  0  0  0  0  0  0  0  0  0
   -0.8134    1.1060   -0.3189 H   0  0  0  0  0  0  0  0  0  0  0  0
   -0.9894   -0.0257    1.0035 H   0  0  0  0  0  0  0  0  0  0  0  0
  1  2  1  0
  1  4  1  0
  1  5  1  0
  1  6  1  0
  2  3  2  0
M  RAD  1   2   2
M  END
>  <reaction>  (2) 
rxn_1429

>  <mol_properties>  (2) 
{"1": {"label": "acceptor", "atom_type": "CS"}}

>  <type>  (2) 
r2

$$$$

     RDKit          3D

  7  6  0  0  0  0  0  0  0  0999 V2000
   -0.6782    0.0507    0.0301 C   0  0  0  0  0  0  0  0  0  0  0  0
    0.8092    0.0996    0.0213 C   0  0  0  0  0  0  0  0  0  0  0  0
    1.7473    0.7521    1.1507 S   0  0  0  0  0  0  0  0  0  0  0  0
   -1.0667    0.5456   -0.8653 H   0  0  0  0  0  0  0  0  0  0  0  0
   -1.0112   -0.9904   -0.0239 H   0  0  0  0  0  0  0  0  0  0  0  0
   -1.0920    0.5225    0.9188 H   0  0  0  0  0  0  0  0  0  0  0  0
    1.2740   -0.3620   -0.8520 H   0  0  0  0  0  0  0  0  0  0  0  0
  1  2  1  0
  1  4  1  0
  1  5  1  0
  1  6  1  0
  2  3  2  0
  2  7  1  0
M  END
>  <reaction>  (3) 
rxn_1429

>  <mol_properties>  (3) 
{"0": {"label": "a_hydrogen", "atom_type": "H0"}, "2": {"label": "acceptor", "atom_type": "CS"}}

>  <type>  (3) 
r2h

$$$$

     RDKit          3D

 18 16  0  0  0  0  0  0  0  0999 V2000
   -0.9244    0.6694   -3.1081 C   0  0  0  0  0  0  0  0  0  0  0  0
   -1.0390    0.4919   -1.9267 C   0  0  0  0  0  0  0  0  0  0  0  0
   -1.1031    0.3254   -0.4979 C   0  0  0  0  0  0  0  0  0  0  0  0
   -1.8011    1.4491    0.2571 C   0  0  0  0  0  0  0  0  0  0  0  0
   -1.4325   -1.0063   -0.0605 C   0  0  0  0  0  0  0  0  0  0  0  0
   -1.6545   -2.1104    0.3543 C   0  0  0  0  0  0  0  0  0  0  0  0
   -0.8495    0.8187   -4.1583 H   0  0  0  0  0  0  0  0  0  0  0  0
    0.1413    0.4732   -0.1169 H   0  0  0  0  0  0  0  0  0  0  0  0
   -2.8704    1.4580    0.0387 H   0  0  0  0  0  0  0  0  0  0  0  0
   -1.3772    2.4102   -0.0335 H   0  0  0  0  0  0  0  0  0  0  0  0
   -1.6647    1.3155    1.3301 H   0  0  0  0  0  0  0  0  0  0  0  0
   -1.8755   -3.0884    0.7084 H   0  0  0  0  0  0  0  0  0  0  0  0
    2.1968   -0.5080   -0.4713 C   0  0  0  0  0  0  0  0  0  0  0  0
    1.4930    0.5720    0.2474 C   0  0  0  0  0  3  0  0  0  0  0  0
    1.9365    1.7043    1.2500 S   0  0  0  0  0  0  0  0  0  0  0  0
    3.2667   -0.5285   -0.2622 H   0  0  0  0  0  0  0  0  0  0  0  0
    2.0238   -0.3842   -1.5443 H   0  0  0  0  0  0  0  0  0  0  0  0
    1.7402   -1.4641   -0.1993 H   0  0  0  0  0  0  0  0  0  0  0  0
  1  2  3  0
  1  7  1  0
  2  3  1  0
  3  4  1  0
  3  5  1  0
  3  8  1  0
  4  9  1  0
  4 10  1  0
  4 11  1  0
  5  6  3  0
  6 12  1  0
 13 14  1  0
 13 16  1  0
 13 17  1  0
 13 18  1  0
 14 15  2  0
M  RAD  1  14   2
M  END
>  <reaction>  (4) 
rxn_1429

>  <mol_properties>  (4) 
{"1": {"label": "*0", "atom_type": "Ct"}, "2": {"label": "*1", "atom_type": "Cs"}, "7": {"label": "*2", "atom_type": "H0"}, "13": {"label": "*3", "atom_type": "CS"}, "14": {"label": "*4", "atom_type": "S2d"}}

>  <type>  (4) 
ts

$$$$

     RDKit          3D

 18 16  0  0  0  0  0  0  0  0999 V2000
   -0.9758    0.3740   -2.9859 C   0  0  0  0  0  0  0  0  0  0  0  0
   -0.9758    0.3740   -1.7897 C   0  0  0  0  0  0  0  0  0  0  0  0
   -0.9758    0.4141   -0.3232 C   0  0  0  0  0  3  0  0  0  0  0  0
   -1.6139    1.7133    0.1988 C   0  0  0  0  0  0  0  0  0  0  0  0
   -1.6377   -0.7671    0.2416 C   0  0  0  0  0  0  0  0  0  0  0  0
   -2.1859   -1.7124    0.7281 C   0  0  0  0  0  0  0  0  0  0  0  0
   -0.9758    0.3740   -4.0493 H   0  0  0  0  0  0  0  0  0  0  0  0
    0.2778    0.3869    0.0700 H   0  0  0  0  0  0  0  0  0  0  0  0
   -2.6571    1.7706   -0.1089 H   0  0  0  0  0  0  0  0  0  0  0  0
   -1.0812    2.5748   -0.2028 H   0  0  0  0  0  0  0  0  0  0  0  0
   -1.5667    1.7378    1.2870 H   0  0  0  0  0  0  0  0  0  0  0  0
   -2.6733   -2.5528    1.1606 H   0  0  0  0  0  0  0  0  0  0  0  0
    1.9521    1.5414    1.2605 C   0  0  0  0  0  0  0  0  0  0  0  0
    1.5275    0.3597    0.4619 C   0  0  0  0  0  0  0  0  0  0  0  0
    1.9135   -1.1731    0.7499 S   0  0  0  0  0  0  0  0  0  0  0  0
    2.5809    1.2553    2.1010 H   0  0  0  0  0  0  0  0  0  0  0  0
    1.0686    2.0742    1.6254 H   0  0  0  0  0  0  0  0  0  0  0  0
    2.4923    2.2435    0.6179 H   0  0  0  0  0  0  0  0  0  0  0  0
  1  2  3  0
  1  7  1  0
  2  3  1  0
  3  4  1  0
  3  5  1  0
  4  9  1  0
  4 10  1  0
  4 11  1  0
  5  6  3  0
  6 12  1  0
  8 14  1  0
 13 14  1  0
 13 16  1  0
 13 17  1  0
 13 18  1  0
 14 15  2  0
M  RAD  1   3   2
M  END
>  <reaction>  (5) 
rxn_1429

>  <mol_properties>  (5) 
{"1": {"label": "*0", "atom_type": "Ct"}, "2": {"label": "*1", "atom_type": "Cs"}, "7": {"label": "*2", "atom_type": "H0"}, "13": {"label": "*3", "atom_type": "CS"}, "14": {"label": "*4", "atom_type": "S2d"}}

>  <type>  (5) 
unop_1

>  <geom_source>  (5) 
Heuristics

$$$$

     RDKit          3D

 18 16  0  0  0  0  0  0  0  0999 V2000
   -1.0091    0.1540   -3.0796 C   0  0  0  0  0  0  0  0  0  0  0  0
   -1.0091    0.1540   -1.8834 C   0  0  0  0  0  0  0  0  0  0  0  0
   -1.0091    0.1941   -0.4169 C   0  0  0  0  0  3  0  0  0  0  0  0
   -1.6471    1.4933    0.1051 C   0  0  0  0  0  0  0  0  0  0  0  0
   -1.6709   -0.9872    0.1479 C   0  0  0  0  0  0  0  0  0  0  0  0
   -2.2192   -1.9325    0.6344 C   0  0  0  0  0  0  0  0  0  0  0  0
   -1.0091    0.1540   -4.1430 H   0  0  0  0  0  0  0  0  0  0  0  0
    0.2445    0.1668   -0.0237 H   0  0  0  0  0  0  0  0  0  0  0  0
   -2.6904    1.5505   -0.2026 H   0  0  0  0  0  0  0  0  0  0  0  0
   -1.1145    2.3547   -0.2965 H   0  0  0  0  0  0  0  0  0  0  0  0
   -1.5999    1.5177    1.1934 H   0  0  0  0  0  0  0  0  0  0  0  0
   -2.7066   -2.7729    1.0669 H   0  0  0  0  0  0  0  0  0  0  0  0
    2.4553    0.7616   -0.5826 C   0  0  0  0  0  0  0  0  0  0  0  0
    1.4942    0.1397    0.3682 C   0  0  0  0  0  0  0  0  0  0  0  0
    1.7582   -0.1718    1.9221 S   0  0  0  0  0  0  0  0  0  0  0  0
    3.4024    0.9978   -0.1019 H   0  0  0  0  0  0  0  0  0  0  0  0
    2.0178    1.6723   -1.0031 H   0  0  0  0  0  0  0  0  0  0  0  0
    2.6279    0.0848   -1.4250 H   0  0  0  0  0  0  0  0  0  0  0  0
  1  2  3  0
  1  7  1  0
  2  3  1  0
  3  4  1  0
  3  5  1  0
  4  9  1  0
  4 10  1  0
  4 11  1  0
  5  6  3  0
  6 12  1  0
  8 14  1  0
 13 14  1  0
 13 16  1  0
 13 17  1  0
 13 18  1  0
 14 15  2  0
M  RAD  1   3   2
M  END
>  <reaction>  (6) 
rxn_1429

>  <mol_properties>  (6) 
{"1": {"label": "*0", "atom_type": "Ct"}, "2": {"label": "*1", "atom_type": "Cs"}, "7": {"label": "*2", "atom_type": "H0"}, "13": {"label": "*3", "atom_type": "CS"}, "14": {"label": "*4", "atom_type": "S2d"}}

>  <type>  (6) 
unop_2

>  <geom_source>  (6) 
Heuristics

$$$$

     RDKit          3D

 18 16  0  0  0  0  0  0  0  0999 V2000
   -1.0510    0.3705   -2.8439 C   0  0  0  0  0  0  0  0  0  0  0  0
   -1.0510    0.3705   -1.6478 C   0  0  0  0  0  0  0  0  0  0  0  0
   -1.0510    0.4106   -0.1812 C   0  0  0  0  0  3  0  0  0  0  0  0
   -1.6890    1.7098    0.3408 C   0  0  0  0  0  0  0  0  0  0  0  0
   -1.7128   -0.7706    0.3835 C   0  0  0  0  0  0  0  0  0  0  0  0
   -2.2611   -1.7159    0.8700 C   0  0  0  0  0  0  0  0  0  0  0  0
   -1.0510    0.3705   -3.9074 H   0  0  0  0  0  0  0  0  0  0  0  0
    0.2026    0.3833    0.2119 H   0  0  0  0  0  0  0  0  0  0  0  0
   -2.7323    1.7671    0.0330 H   0  0  0  0  0  0  0  0  0  0  0  0
   -1.1564    2.5712   -0.0609 H   0  0  0  0  0  0  0  0  0  0  0  0
   -1.6418    1.7342    1.4290 H   0  0  0  0  0  0  0  0  0  0  0  0
   -2.7485   -2.5564    1.3025 H   0  0  0  0  0  0  0  0  0  0  0  0
    1.7142    1.0604    1.8884 C   0  0  0  0  0  0  0  0  0  0  0  0
    1.4523    0.3562    0.6038 C   0  0  0  0  0  0  0  0  0  0  0  0
    2.2414   -0.9258    0.0424 S   0  0  0  0  0  0  0  0  0  0  0  0
    2.5323    0.6022    2.4400 H   0  0  0  0  0  0  0  0  0  0  0  0
    0.8075    1.0551    2.5011 H   0  0  0  0  0  0  0  0  0  0  0  0
    1.9462    2.1114    1.6898 H   0  0  0  0  0  0  0  0  0  0  0  0
  1  2  3  0
  1  7  1  0
  2  3  1  0
  3  4  1  0
  3  5  1  0
  4  9  1  0
  4 10  1  0
  4 11  1  0
  5  6  3  0
  6 12  1  0
  8 14  1  0
 13 14  1  0
 13 16  1  0
 13 17  1  0
 13 18  1  0
 14 15  2  0
M  RAD  1   3   2
M  END
>  <reaction>  (7) 
rxn_1429

>  <mol_properties>  (7) 
{"1": {"label": "*0", "atom_type": "Ct"}, "2": {"label": "*1", "atom_type": "Cs"}, "7": {"label": "*2", "atom_type": "H0"}, "13": {"label": "*3", "atom_type": "CS"}, "14": {"label": "*4", "atom_type": "S2d"}}

>  <type>  (7) 
unop_3

>  <geom_source>  (7) 
Heuristics

$$$$

     RDKit          3D

 18 16  0  0  0  0  0  0  0  0999 V2000
   -0.9770    0.0969   -3.0928 C   0  0  0  0  0  0  0  0  0  0  0  0
   -0.9770    0.0969   -1.8966 C   0  0  0  0  0  0  0  0  0  0  0  0
   -0.9770    0.1370   -0.4301 C   0  0  0  0  0  3  0  0  0  0  0  0
   -1.6151    1.4362    0.0919 C   0  0  0  0  0  0  0  0  0  0  0  0
   -1.6389   -1.0443    0.1347 C   0  0  0  0  0  0  0  0  0  0  0  0
   -2.1871   -1.9896    0.6212 C   0  0  0  0  0  0  0  0  0  0  0  0
   -0.9770    0.0969   -4.1562 H   0  0  0  0  0  0  0  0  0  0  0  0
    0.2765    0.1097   -0.0369 H   0  0  0  0  0  0  0  0  0  0  0  0
   -2.6583    1.4934   -0.2158 H   0  0  0  0  0  0  0  0  0  0  0  0
   -1.0825    2.2976   -0.3097 H   0  0  0  0  0  0  0  0  0  0  0  0
   -1.5679    1.4606    1.1802 H   0  0  0  0  0  0  0  0  0  0  0  0
   -2.6746   -2.8300    1.0537 H   0  0  0  0  0  0  0  0  0  0  0  0
    2.2837   -1.1249   -0.0729 C   0  0  0  0  0  0  0  0  0  0  0  0
    1.5263    0.0825    0.3550 C   0  0  0  0  0  0  0  0  0  0  0  0
    1.7532    0.9195    1.7076 S   0  0  0  0  0  0  0  0  0  0  0  0
    3.0447   -1.4020    0.6535 H   0  0  0  0  0  0  0  0  0  0  0  0
    2.7514   -0.9391   -1.0447 H   0  0  0  0  0  0  0  0  0  0  0  0
    1.5912   -1.9597   -0.2185 H   0  0  0  0  0  0  0  0  0  0  0  0
  1  2  3  0
  1  7  1  0
  2  3  1  0
  3  4  1  0
  3  5  1  0
  4  9  1  0
  4 10  1  0
  4 11  1  0
  5  6  3  0
  6 12  1  0
  8 14  1  0
 13 14  1  0
 13 16  1  0
 13 17  1  0
 13 18  1  0
 14 15  2  0
M  RAD  1   3   2
M  END
>  <reaction>  (8) 
rxn_1429

>  <mol_properties>  (8) 
{"1": {"label": "*0", "atom_type": "Ct"}, "2": {"label": "*1", "atom_type": "Cs"}, "7": {"label": "*2", "atom_type": "H0"}, "13": {"label": "*3", "atom_type": "CS"}, "14": {"label": "*4", "atom_type": "S2d"}}

>  <type>  (8) 
unop_4

>  <geom_source>  (8) 
Heuristics

$$$$

     RDKit          3D

 18 16  0  0  0  0  0  0  0  0999 V2000
   -1.1295    0.1642   -2.7390 C   0  0  0  0  0  0  0  0  0  0  0  0
   -1.1295    0.1642   -1.5429 C   0  0  0  0  0  0  0  0  0  0  0  0
   -1.1295    0.2043   -0.0763 C   0  0  0  0  0  3  0  0  0  0  0  0
   -1.7675    1.5035    0.4457 C   0  0  0  0  0  0  0  0  0  0  0  0
   -1.7914   -0.9769    0.4885 C   0  0  0  0  0  0  0  0  0  0  0  0
   -2.3396   -1.9222    0.9749 C   0  0  0  0  0  0  0  0  0  0  0  0
   -1.1295    0.1642   -3.8025 H   0  0  0  0  0  0  0  0  0  0  0  0
    0.1241    0.1771    0.3168 H   0  0  0  0  0  0  0  0  0  0  0  0
   -2.8108    1.5608    0.1379 H   0  0  0  0  0  0  0  0  0  0  0  0
   -1.2349    2.3649    0.0440 H   0  0  0  0  0  0  0  0  0  0  0  0
   -1.7204    1.5279    1.5339 H   0  0  0  0  0  0  0  0  0  0  0  0
   -2.8270   -2.7626    1.4075 H   0  0  0  0  0  0  0  0  0  0  0  0
    1.5611    0.1845    2.1846 C   0  0  0  0  0  0  0  0  0  0  0  0
    1.3738    0.1499    0.7087 C   0  0  0  0  0  0  0  0  0  0  0  0
    2.5369    0.0844   -0.3977 S   0  0  0  0  0  0  0  0  0  0  0  0
    2.6138    0.1601    2.4582 H   0  0  0  0  0  0  0  0  0  0  0  0
    1.0417   -0.6642    2.6403 H   0  0  0  0  0  0  0  0  0  0  0  0
    1.0948    1.0867    2.5925 H   0  0  0  0  0  0  0  0  0  0  0  0
  1  2  3  0
  1  7  1  0
  2  3  1  0
  3  4  1  0
  3  5  1  0
  4  9  1  0
  4 10  1  0
  4 11  1  0
  5  6  3  0
  6 12  1  0
  8 14  1  0
 13 14  1  0
 13 16  1  0
 13 17  1  0
 13 18  1  0
 14 15  2  0
M  RAD  1   3   2
M  END
>  <reaction>  (9) 
rxn_1429

>  <mol_properties>  (9) 
{"1": {"label": "*0", "atom_type": "Ct"}, "2": {"label": "*1", "atom_type": "Cs"}, "7": {"label": "*2", "atom_type": "H0"}, "13": {"label": "*3", "atom_type": "CS"}, "14": {"label": "*4", "atom_type": "S2d"}}

>  <type>  (9) 
unop_5

>  <geom_source>  (9) 
Heuristics

$$$$

     RDKit          3D

 18 16  0  0  0  0  0  0  0  0999 V2000
   -0.9636    0.0080   -3.0644 C   0  0  0  0  0  0  0  0  0  0  0  0
   -0.9636    0.0080   -1.8682 C   0  0  0  0  0  0  0  0  0  0  0  0
   -0.9636    0.0481   -0.4017 C   0  0  0  0  0  3  0  0  0  0  0  0
   -1.6017    1.3473    0.1203 C   0  0  0  0  0  0  0  0  0  0  0  0
   -1.6255   -1.1332    0.1631 C   0  0  0  0  0  0  0  0  0  0  0  0
   -2.1737   -2.0784    0.6496 C   0  0  0  0  0  0  0  0  0  0  0  0
   -0.9636    0.0080   -4.1278 H   0  0  0  0  0  0  0  0  0  0  0  0
    0.2900    0.0208   -0.0085 H   0  0  0  0  0  0  0  0  0  0  0  0
   -2.6449    1.4046   -0.1874 H   0  0  0  0  0  0  0  0  0  0  0  0
   -1.0691    2.2087   -0.2813 H   0  0  0  0  0  0  0  0  0  0  0  0
   -1.5545    1.3717    1.2086 H   0  0  0  0  0  0  0  0  0  0  0  0
   -2.6611   -2.9189    1.0821 H   0  0  0  0  0  0  0  0  0  0  0  0
    2.0897   -1.3711    0.6057 C   0  0  0  0  0  0  0  0  0  0  0  0
    1.5397   -0.0063    0.3834 C   0  0  0  0  0  0  0  0  0  0  0  0
    1.8114    1.2899    1.2930 S   0  0  0  0  0  0  0  0  0  0  0  0
    2.7259   -1.4108    1.4873 H   0  0  0  0  0  0  0  0  0  0  0  0
    2.6592   -1.6849   -0.2746 H   0  0  0  0  0  0  0  0  0  0  0  0
    1.2673   -2.0852    0.7117 H   0  0  0  0  0  0  0  0  0  0  0  0
  1  2  3  0
  1  7  1  0
  2  3  1  0
  3  4  1  0
  3  5  1  0
  4  9  1  0
  4 10  1  0
  4 11  1  0
  5  6  3  0
  6 12  1  0
  8 14  1  0
 13 14  1  0
 13 16  1  0
 13 17  1  0
 13 18  1  0
 14 15  2  0
M  RAD  1   3   2
M  END
>  <reaction>  (10) 
rxn_1429

>  <mol_properties>  (10) 
{"1": {"label": "*0", "atom_type": "Ct"}, "2": {"label": "*1", "atom_type": "Cs"}, "7": {"label": "*2", "atom_type": "H0"}, "13": {"label": "*3", "atom_type": "CS"}, "14": {"label": "*4", "atom_type": "S2d"}}

>  <type>  (10) 
unop_6

>  <geom_source>  (10) 
Heuristics

$$$$

     RDKit          3D

 18 16  0  0  0  0  0  0  0  0999 V2000
   -0.9892   -0.0677   -2.9738 C   0  0  0  0  0  0  0  0  0  0  0  0
   -0.9892   -0.0677   -1.7777 C   0  0  0  0  0  0  0  0  0  0  0  0
   -0.9892   -0.0276   -0.3111 C   0  0  0  0  0  3  0  0  0  0  0  0
   -1.6272    1.2716    0.2109 C   0  0  0  0  0  0  0  0  0  0  0  0
   -1.6511   -1.2088    0.2537 C   0  0  0  0  0  0  0  0  0  0  0  0
   -2.1993   -2.1541    0.7402 C   0  0  0  0  0  0  0  0  0  0  0  0
   -0.9892   -0.0677   -4.0373 H   0  0  0  0  0  0  0  0  0  0  0  0
    0.2644   -0.0548    0.0820 H   0  0  0  0  0  0  0  0  0  0  0  0
   -2.6705    1.3289   -0.0969 H   0  0  0  0  0  0  0  0  0  0  0  0
   -1.0946    2.1331   -0.1908 H   0  0  0  0  0  0  0  0  0  0  0  0
   -1.5801    1.2961    1.2991 H   0  0  0  0  0  0  0  0  0  0  0  0
   -2.6867   -2.9945    1.1727 H   0  0  0  0  0  0  0  0  0  0  0  0
    1.8678   -1.2419    1.3366 C   0  0  0  0  0  0  0  0  0  0  0  0
    1.5141   -0.0820    0.4739 C   0  0  0  0  0  0  0  0  0  0  0  0
    1.9926    1.4381    0.6785 S   0  0  0  0  0  0  0  0  0  0  0  0
    2.5141   -0.9489    2.1612 H   0  0  0  0  0  0  0  0  0  0  0  0
    2.3634   -2.0094    0.7341 H   0  0  0  0  0  0  0  0  0  0  0  0
    0.9542   -1.6996    1.7284 H   0  0  0  0  0  0  0  0  0  0  0  0
  1  2  3  0
  1  7  1  0
  2  3  1  0
  3  4  1  0
  3  5  1  0
  4  9  1  0
  4 10  1  0
  4 11  1  0
  5  6  3  0
  6 12  1  0
  8 14  1  0
 13 14  1  0
 13 16  1  0
 13 17  1  0
 13 18  1  0
 14 15  2  0
M  RAD  1   3   2
M  END
>  <reaction>  (11) 
rxn_1429

>  <mol_properties>  (11) 
{"1": {"label": "*0", "atom_type": "Ct"}, "2": {"label": "*1", "atom_type": "Cs"}, "7": {"label": "*2", "atom_type": "H0"}, "13": {"label": "*3", "atom_type": "CS"}, "14": {"label": "*4", "atom_type": "S2d"}}

>  <type>  (11) 
unop_7

>  <geom_source>  (11) 
Heuristics

$$$$

     RDKit          3D

 18 16  0  0  0  0  0  0  0  0999 V2000
   -0.9550    0.2921   -3.0721 C   0  0  0  0  0  0  0  0  0  0  0  0
   -0.9550    0.2921   -1.8760 C   0  0  0  0  0  0  0  0  0  0  0  0
   -0.9550    0.3322   -0.4094 C   0  0  0  0  0  3  0  0  0  0  0  0
   -1.5931    1.6314    0.1126 C   0  0  0  0  0  0  0  0  0  0  0  0
   -1.6169   -0.8490    0.1553 C   0  0  0  0  0  0  0  0  0  0  0  0
   -2.1651   -1.7943    0.6418 C   0  0  0  0  0  0  0  0  0  0  0  0
   -0.9550    0.2921   -4.1356 H   0  0  0  0  0  0  0  0  0  0  0  0
    0.2986    0.3050   -0.0163 H   0  0  0  0  0  0  0  0  0  0  0  0
   -2.6363    1.6887   -0.1952 H   0  0  0  0  0  0  0  0  0  0  0  0
   -1.0604    2.4928   -0.2891 H   0  0  0  0  0  0  0  0  0  0  0  0
   -1.5459    1.6558    1.2008 H   0  0  0  0  0  0  0  0  0  0  0  0
   -2.6525   -2.6347    1.0744 H   0  0  0  0  0  0  0  0  0  0  0  0
    2.1803    1.6169    0.5240 C   0  0  0  0  0  0  0  0  0  0  0  0
    1.5483    0.2778    0.3756 C   0  0  0  0  0  0  0  0  0  0  0  0
    1.7426   -0.9809    1.3550 S   0  0  0  0  0  0  0  0  0  0  0  0
    2.8192    1.6661    1.4033 H   0  0  0  0  0  0  0  0  0  0  0  0
    1.4027    2.3842    0.5896 H   0  0  0  0  0  0  0  0  0  0  0  0
    2.7662    1.8472   -0.3711 H   0  0  0  0  0  0  0  0  0  0  0  0
  1  2  3  0
  1  7  1  0
  2  3  1  0
  3  4  1  0
  3  5  1  0
  4  9  1  0
  4 10  1  0
  4 11  1  0
  5  6  3  0
  6 12  1  0
  8 14  1  0
 13 14  1  0
 13 16  1  0
 13 17  1  0
 13 18  1  0
 14 15  2  0
M  RAD  1   3   2
M  END
>  <reaction>  (12) 
rxn_1429

>  <mol_properties>  (12) 
{"1": {"label": "*0", "atom_type": "Ct"}, "2": {"label": "*1", "atom_type": "Cs"}, "7": {"label": "*2", "atom_type": "H0"}, "13": {"label": "*3", "atom_type": "CS"}, "14": {"label": "*4", "atom_type": "S2d"}}

>  <type>  (12) 
unop_8

>  <geom_source>  (12) 
Heuristics

$$$$

     RDKit          3D

 18 16  0  0  0  0  0  0  0  0999 V2000
   -1.0093    0.1486   -3.0794 C   0  0  0  0  0  0  0  0  0  0  0  0
   -1.0093    0.1486   -1.8832 C   0  0  0  0  0  0  0  0  0  0  0  0
   -1.0093    0.1886   -0.4167 C   0  0  0  0  0  3  0  0  0  0  0  0
   -1.6473    1.4879    0.1053 C   0  0  0  0  0  0  0  0  0  0  0  0
   -1.6711   -0.9926    0.1481 C   0  0  0  0  0  0  0  0  0  0  0  0
   -2.2193   -1.9379    0.6346 C   0  0  0  0  0  0  0  0  0  0  0  0
   -1.0093    0.1486   -4.1429 H   0  0  0  0  0  0  0  0  0  0  0  0
    0.2443    0.1614   -0.0236 H   0  0  0  0  0  0  0  0  0  0  0  0
   -2.6906    1.5451   -0.2025 H   0  0  0  0  0  0  0  0  0  0  0  0
   -1.1147    2.3493   -0.2964 H   0  0  0  0  0  0  0  0  0  0  0  0
   -1.6001    1.5123    1.1935 H   0  0  0  0  0  0  0  0  0  0  0  0
   -2.7068   -2.7783    1.0671 H   0  0  0  0  0  0  0  0  0  0  0  0
    2.4142   -0.5957   -0.5455 C   0  0  0  0  0  0  0  0  0  0  0  0
    1.4940    0.1342    0.3684 C   0  0  0  0  0  0  0  0  0  0  0  0
    1.7790    0.5135    1.9034 S   0  0  0  0  0  0  0  0  0  0  0  0
    3.3460   -0.8622   -0.0511 H   0  0  0  0  0  0  0  0  0  0  0  0
    2.6260    0.0225   -1.4233 H   0  0  0  0  0  0  0  0  0  0  0  0
    1.9217   -1.4999   -0.9165 H   0  0  0  0  0  0  0  0  0  0  0  0
  1  2  3  0
  1  7  1  0
  2  3  1  0
  3  4  1  0
  3  5  1  0
  4  9  1  0
  4 10  1  0
  4 11  1  0
  5  6  3  0
  6 12  1  0
  8 14  1  0
 13 14  1  0
 13 16  1  0
 13 17  1  0
 13 18  1  0
 14 15  2  0
M  RAD  1   3   2
M  END
>  <reaction>  (13) 
rxn_1429

>  <mol_properties>  (13) 
{"1": {"label": "*0", "atom_type": "Ct"}, "2": {"label": "*1", "atom_type": "Cs"}, "7": {"label": "*2", "atom_type": "H0"}, "13": {"label": "*3", "atom_type": "CS"}, "14": {"label": "*4", "atom_type": "S2d"}}

>  <type>  (13) 
unop_9

>  <geom_source>  (13) 
Heuristics

$$$$

     RDKit          3D

 18 16  0  0  0  0  0  0  0  0999 V2000
   -0.9738    0.2028   -3.0957 C   0  0  0  0  0  0  0  0  0  0  0  0
   -0.9738    0.2028   -1.8995 C   0  0  0  0  0  0  0  0  0  0  0  0
   -0.9738    0.2429   -0.4330 C   0  0  0  0  0  3  0  0  0  0  0  0
   -1.6119    1.5421    0.0890 C   0  0  0  0  0  0  0  0  0  0  0  0
   -1.6357   -0.9384    0.1318 C   0  0  0  0  0  0  0  0  0  0  0  0
   -2.1839   -1.8836    0.6183 C   0  0  0  0  0  0  0  0  0  0  0  0
   -0.9738    0.2028   -4.1591 H   0  0  0  0  0  0  0  0  0  0  0  0
    0.2798    0.2156   -0.0398 H   0  0  0  0  0  0  0  0  0  0  0  0
   -2.6551    1.5994   -0.2187 H   0  0  0  0  0  0  0  0  0  0  0  0
   -1.0793    2.4035   -0.3126 H   0  0  0  0  0  0  0  0  0  0  0  0
   -1.5647    1.5665    1.1773 H   0  0  0  0  0  0  0  0  0  0  0  0
   -2.6713   -2.7241    1.0508 H   0  0  0  0  0  0  0  0  0  0  0  0
    2.3578    1.3227   -0.1398 C   0  0  0  0  0  0  0  0  0  0  0  0
    1.5295    0.1885    0.3521 C   0  0  0  0  0  0  0  0  0  0  0  0
    1.7076   -0.5856    1.7487 S   0  0  0  0  0  0  0  0  0  0  0  0
    3.1355    1.5925    0.5716 H   0  0  0  0  0  0  0  0  0  0  0  0
    1.7169    2.1887   -0.3318 H   0  0  0  0  0  0  0  0  0  0  0  0
    2.8119    1.0562   -1.0993 H   0  0  0  0  0  0  0  0  0  0  0  0
  1  2  3  0
  1  7  1  0
  2  3  1  0
  3  4  1  0
  3  5  1  0
  4  9  1  0
  4 10  1  0
  4 11  1  0
  5  6  3  0
  6 12  1  0
  8 14  1  0
 13 14  1  0
 13 16  1  0
 13 17  1  0
 13 18  1  0
 14 15  2  0
M  RAD  1   3   2
M  END
>  <reaction>  (14) 
rxn_1429

>  <mol_properties>  (14) 
{"1": {"label": "*0", "atom_type": "Ct"}, "2": {"label": "*1", "atom_type": "Cs"}, "7": {"label": "*2", "atom_type": "H0"}, "13": {"label": "*3", "atom_type": "CS"}, "14": {"label": "*4", "atom_type": "S2d"}}

>  <type>  (14) 
unop_10

>  <geom_source>  (14) 
Heuristics

$$$$

     RDKit          3D

 18 16  0  0  0  0  0  0  0  0999 V2000
   -1.0638   -0.0519   -2.8324 C   0  0  0  0  0  0  0  0  0  0  0  0
   -1.0638   -0.0519   -1.6362 C   0  0  0  0  0  0  0  0  0  0  0  0
   -1.0638   -0.0118   -0.1697 C   0  0  0  0  0  3  0  0  0  0  0  0
   -1.7018    1.2874    0.3523 C   0  0  0  0  0  0  0  0  0  0  0  0
   -1.7256   -1.1930    0.3951 C   0  0  0  0  0  0  0  0  0  0  0  0
   -2.2739   -2.1383    0.8816 C   0  0  0  0  0  0  0  0  0  0  0  0
   -1.0638   -0.0519   -3.8959 H   0  0  0  0  0  0  0  0  0  0  0  0
    0.1898   -0.0390    0.2234 H   0  0  0  0  0  0  0  0  0  0  0  0
   -2.7451    1.3447    0.0445 H   0  0  0  0  0  0  0  0  0  0  0  0
   -1.1692    2.1489   -0.0494 H   0  0  0  0  0  0  0  0  0  0  0  0
   -1.6546    1.3119    1.4405 H   0  0  0  0  0  0  0  0  0  0  0  0
   -2.7613   -2.9787    1.3141 H   0  0  0  0  0  0  0  0  0  0  0  0
    1.6605   -0.7139    1.9368 C   0  0  0  0  0  0  0  0  0  0  0  0
    1.4395   -0.0662    0.6154 C   0  0  0  0  0  0  0  0  0  0  0  0
    2.3038    1.1331   -0.0139 S   0  0  0  0  0  0  0  0  0  0  0  0
    2.5057   -0.2765    2.4640 H   0  0  0  0  0  0  0  0  0  0  0  0
    1.8281   -1.7862    1.7963 H   0  0  0  0  0  0  0  0  0  0  0  0
    0.7567   -0.6203    2.5468 H   0  0  0  0  0  0  0  0  0  0  0  0
  1  2  3  0
  1  7  1  0
  2  3  1  0
  3  4  1  0
  3  5  1  0
  4  9  1  0
  4 10  1  0
  4 11  1  0
  5  6  3  0
  6 12  1  0
  8 14  1  0
 13 14  1  0
 13 16  1  0
 13 17  1  0
 13 18  1  0
 14 15  2  0
M  RAD  1   3   2
M  END
>  <reaction>  (15) 
rxn_1429

>  <mol_properties>  (15) 
{"1": {"label": "*0", "atom_type": "Ct"}, "2": {"label": "*1", "atom_type": "Cs"}, "7": {"label": "*2", "atom_type": "H0"}, "13": {"label": "*3", "atom_type": "CS"}, "14": {"label": "*4", "atom_type": "S2d"}}

>  <type>  (15) 
unop_11

>  <geom_source>  (15) 
Heuristics

$$$$

     RDKit          3D

 18 16  0  0  0  0  0  0  0  0999 V2000
   -1.0271    0.1522   -3.0663 C   0  0  0  0  0  0  0  0  0  0  0  0
   -1.0271    0.1522   -1.8701 C   0  0  0  0  0  0  0  0  0  0  0  0
   -1.0271    0.1923   -0.4036 C   0  0  0  0  0  3  0  0  0  0  0  0
   -1.6652    1.4915    0.1184 C   0  0  0  0  0  0  0  0  0  0  0  0
   -1.6890   -0.9890    0.1612 C   0  0  0  0  0  0  0  0  0  0  0  0
   -2.2372   -1.9343    0.6477 C   0  0  0  0  0  0  0  0  0  0  0  0
   -1.0271    0.1522   -4.1297 H   0  0  0  0  0  0  0  0  0  0  0  0
    0.2265    0.1650   -0.0104 H   0  0  0  0  0  0  0  0  0  0  0  0
   -2.7084    1.5487   -0.1893 H   0  0  0  0  0  0  0  0  0  0  0  0
   -1.1326    2.3529   -0.2832 H   0  0  0  0  0  0  0  0  0  0  0  0
   -1.6180    1.5159    1.2067 H   0  0  0  0  0  0  0  0  0  0  0  0
   -2.7246   -2.7747    1.0802 H   0  0  0  0  0  0  0  0  0  0  0  0
    2.4709    0.0775   -0.7237 C   0  0  0  0  0  0  0  0  0  0  0  0
    1.4762    0.1378    0.3815 C   0  0  0  0  0  0  0  0  0  0  0  0
    1.8011    0.1710    1.9546 S   0  0  0  0  0  0  0  0  0  0  0  0
    3.4914    0.0569   -0.3471 H   0  0  0  0  0  0  0  0  0  0  0  0
    2.3386    0.9404   -1.3837 H   0  0  0  0  0  0  0  0  0  0  0  0
    2.2855   -0.8105   -1.3359 H   0  0  0  0  0  0  0  0  0  0  0  0
  1  2  3  0
  1  7  1  0
  2  3  1  0
  3  4  1  0
  3  5  1  0
  4  9  1  0
  4 10  1  0
  4 11  1  0
  5  6  3  0
  6 12  1  0
  8 14  1  0
 13 14  1  0
 13 16  1  0
 13 17  1  0
 13 18  1  0
 14 15  2  0
M  RAD  1   3   2
M  END
>  <reaction>  (16) 
rxn_1429

>  <mol_properties>  (16) 
{"1": {"label": "*0", "atom_type": "Ct"}, "2": {"label": "*1", "atom_type": "Cs"}, "7": {"label": "*2", "atom_type": "H0"}, "13": {"label": "*3", "atom_type": "CS"}, "14": {"label": "*4", "atom_type": "S2d"}}

>  <type>  (16) 
unop_12

>  <geom_source>  (16) 
Heuristics

$$$$

     RDKit          3D

 18 16  0  0  0  0  0  0  0  0999 V2000
    2.2937   -1.8883    0.2989 S   0  0  0  0  0  0  0  0  0  0  0  0
   -1.1640   -0.3602    1.5757 C   0  0  0  0  0  0  0  0  0  0  0  0
    2.6601    0.5680   -0.2746 C   0  0  0  0  0  0  0  0  0  0  0  0
   -0.7907   -0.1611    0.1096 C   0  0  0  0  0  3  0  0  0  0  0  0
    1.7622   -0.6159   -0.1016 C   0  0  0  0  0  0  0  0  0  0  0  0
   -1.5538   -1.0748   -0.7493 C   0  0  0  0  0  0  0  0  0  0  0  0
   -1.0344    1.2259   -0.3047 C   0  0  0  0  0  0  0  0  0  0  0  0
   -2.1794   -1.8266   -1.4547 C   0  0  0  0  0  0  0  0  0  0  0  0
   -1.2330    2.3657   -0.6445 C   0  0  0  0  0  0  0  0  0  0  0  0
    2.0547    1.4448   -0.5849 H   0  0  0  0  0  0  0  0  0  0  0  0
    3.4197    0.3643   -1.0594 H   0  0  0  0  0  0  0  0  0  0  0  0
    3.1698    0.8084    0.6829 H   0  0  0  0  0  0  0  0  0  0  0  0
   -2.2430   -0.1489    1.7429 H   0  0  0  0  0  0  0  0  0  0  0  0
   -0.5591    0.3178    2.2149 H   0  0  0  0  0  0  0  0  0  0  0  0
   -0.9482   -1.4061    1.8818 H   0  0  0  0  0  0  0  0  0  0  0  0
    0.4815   -0.4926   -0.3167 H   0  0  0  0  0  0  0  0  0  0  0  0
   -2.7287   -2.4864   -2.0736 H   0  0  0  0  0  0  0  0  0  0  0  0
   -1.4075    3.3660   -0.9426 H   0  0  0  0  0  0  0  0  0  0  0  0
  1  5  2  0
  2  4  1  0
  2 13  1  0
  2 14  1  0
  2 15  1  0
  3  5  1  0
  3 10  1  0
  3 11  1  0
  3 12  1  0
  4  6  1  0
  4  7  1  0
  5 16  1  0
  6  8  3  0
  7  9  3  0
  8 17  1  0
  9 18  1  0
M  RAD  1   4   2
M  END
>  <reaction>  (17) 
rxn_1429

>  <mol_properties>  (17) 
{"1": {"label": "*0", "atom_type": "Ct"}, "2": {"label": "*1", "atom_type": "Cs"}, "7": {"label": "*2", "atom_type": "H0"}, "13": {"label": "*3", "atom_type": "CS"}, "14": {"label": "*4", "atom_type": "S2d"}}

>  <type>  (17) 
unop_13

>  <geom_source>  (17) 
AutoTST

$$$$
