
     RDKit          3D

 10  9  0  0  0  0  0  0  0  0999 V2000
   -1.1508    0.0666    0.2839 C   0  0  0  0  0  0  0  0  0  0  0  0
    0.1022   -0.3749   -0.4771 C   0  0  0  0  0  0  0  0  0  0  0  0
    1.3428    0.1620    0.1542 C   0  0  0  0  0  0  0  0  0  0  0  0
    2.5613   -0.6971    0.7526 S   0  0  0  0  0  0  0  0  0  0  0  0
   -1.2137    1.1546    0.3481 H   0  0  0  0  0  0  0  0  0  0  0  0
   -2.0472   -0.2935   -0.2212 H   0  0  0  0  0  0  0  0  0  0  0  0
   -1.1467   -0.3334    1.2987 H   0  0  0  0  0  0  0  0  0  0  0  0
    0.1602   -1.4616   -0.5369 H   0  0  0  0  0  0  0  0  0  0  0  0
    0.0536    0.0174   -1.4997 H   0  0  0  0  0  0  0  0  0  0  0  0
    1.3824    1.2528    0.2110 H   0  0  0  0  0  0  0  0  0  0  0  0
  1  2  1  0
  1  5  1  0
  1  6  1  0
  1  7  1  0
  2  3  1  0
  2  8  1  0
  2  9  1  0
  3  4  2  0
  3 10  1  0
M  END
>  <reaction>  (1) 
rxn_2003

>  <mol_properties>  (1) 
{"1": {"label": "donator", "atom_type": "Cs"}, "7": {"label": "d_hydrogen", "atom_type": "H0"}}

>  <type>  (1) 
r1h

$$$$

     RDKit          3D

 12 11  0  0  0  0  0  0  0  0999 V2000
   -2.3791    0.4612   -0.5870 C   0  0  0  0  0  0  0  0  0  0  0  0
   -1.3422   -0.3138   -0.1893 C   0  0  0  0  0  0  0  0  0  0  0  0
   -1.4723   -1.6058    0.3589 C   0  0  0  0  0  3  0  0  0  0  0  0
   -0.3798   -2.3973    0.7671 C   0  0  0  0  0  0  0  0  0  0  0  0
   -0.4849   -3.6397    1.2956 C   0  0  0  0  0  0  0  0  0  0  0  0
   -2.2205    1.4472   -1.0017 H   0  0  0  0  0  0  0  0  0  0  0  0
   -3.4026    0.1153   -0.5011 H   0  0  0  0  0  0  0  0  0  0  0  0
   -0.3330    0.0765   -0.2952 H   0  0  0  0  0  0  0  0  0  0  0  0
   -2.4723   -2.0151    0.4735 H   0  0  0  0  0  0  0  0  0  0  0  0
    0.6117   -1.9687    0.6436 H   0  0  0  0  0  0  0  0  0  0  0  0
    0.3893   -4.2030    1.5920 H   0  0  0  0  0  0  0  0  0  0  0  0
   -1.4516   -4.1084    1.4378 H   0  0  0  0  0  0  0  0  0  0  0  0
  1  2  2  3
  1  6  1  0
  1  7  1  0
  2  3  1  0
  2  8  1  0
  3  4  1  0
  3  9  1  0
  4  5  2  3
  4 10  1  0
  5 11  1  0
  5 12  1  0
M  RAD  1   3   2
M  END
>  <reaction>  (2) 
rxn_2003

>  <mol_properties>  (2) 
{"2": {"label": "acceptor", "atom_type": "Cs"}}

>  <type>  (2) 
r2

$$$$

     RDKit          3D

 13 12  0  0  0  0  0  0  0  0999 V2000
    3.0977   -0.3549   -0.5105 C   0  0  0  0  0  0  0  0  0  0  0  0
    2.0556    0.4221   -0.2627 C   0  0  0  0  0  0  0  0  0  0  0  0
    0.6313   -0.0354   -0.2366 C   0  0  0  0  0  0  0  0  0  0  0  0
   -0.2567    0.6038   -1.2694 C   0  0  0  0  0  0  0  0  0  0  0  0
    0.1459    1.3456   -2.2891 C   0  0  0  0  0  0  0  0  0  0  0  0
    4.1081    0.0344   -0.5074 H   0  0  0  0  0  0  0  0  0  0  0  0
    2.9777   -1.4116   -0.7243 H   0  0  0  0  0  0  0  0  0  0  0  0
    2.2171    1.4781   -0.0618 H   0  0  0  0  0  0  0  0  0  0  0  0
    0.5865   -1.1233   -0.3540 H   0  0  0  0  0  0  0  0  0  0  0  0
    0.2065    0.1743    0.7521 H   0  0  0  0  0  0  0  0  0  0  0  0
   -1.3190    0.4126   -1.1445 H   0  0  0  0  0  0  0  0  0  0  0  0
    1.1948    1.5564   -2.4628 H   0  0  0  0  0  0  0  0  0  0  0  0
   -0.5644    1.7621   -2.9918 H   0  0  0  0  0  0  0  0  0  0  0  0
  1  2  2  3
  1  6  1  0
  1  7  1  0
  2  3  1  0
  2  8  1  0
  3  4  1  0
  3  9  1  0
  3 10  1  0
  4  5  2  3
  4 11  1  0
  5 12  1  0
  5 13  1  0
M  END
>  <reaction>  (3) 
rxn_2003

>  <mol_properties>  (3) 
{"2": {"label": "acceptor", "atom_type": "Cs"}, "12": {"label": "a_hydrogen", "atom_type": "H0"}}

>  <type>  (3) 
r2h

$$$$

     RDKit          3D

 22 20  0  0  0  0  0  0  0  0999 V2000
   -2.5063   -0.9764   -0.7691 C   0  0  0  0  0  0  0  0  0  0  0  0
   -1.5743   -0.7332    0.1533 C   0  0  0  0  0  0  0  0  0  0  0  0
   -0.3644   -1.5330    0.3115 C   0  0  0  0  0  3  0  0  0  0  0  0
    0.3614   -1.5644    1.5818 C   0  0  0  0  0  0  0  0  0  0  0  0
    0.4106   -0.5771    2.4775 C   0  0  0  0  0  0  0  0  0  0  0  0
   -3.3803   -0.3463   -0.8654 H   0  0  0  0  0  0  0  0  0  0  0  0
   -2.4225   -1.8152   -1.4514 H   0  0  0  0  0  0  0  0  0  0  0  0
   -1.6969    0.1213    0.8091 H   0  0  0  0  0  0  0  0  0  0  0  0
   -0.3919   -2.4835   -0.2179 H   0  0  0  0  0  0  0  0  0  0  0  0
    0.9664   -2.4491    1.7541 H   0  0  0  0  0  0  0  0  0  0  0  0
    1.0150   -0.6707    3.3701 H   0  0  0  0  0  0  0  0  0  0  0  0
   -0.1411    0.3469    2.3578 H   0  0  0  0  0  0  0  0  0  0  0  0
    0.5265   -0.0086   -2.5089 C   0  0  0  0  0  0  0  0  0  0  0  0
    1.3295   -0.1074   -1.2420 C   0  0  0  0  0  0  0  0  0  0  0  0
    1.5216    1.0219   -0.3881 C   0  0  0  0  0  0  0  0  0  0  0  0
    0.5910    2.3737   -0.3494 S   0  0  0  0  0  0  0  0  0  0  0  0
    1.0813    0.5525   -3.2649 H   0  0  0  0  0  0  0  0  0  0  0  0
    0.3136   -1.0007   -2.9092 H   0  0  0  0  0  0  0  0  0  0  0  0
   -0.4135    0.5133   -2.3341 H   0  0  0  0  0  0  0  0  0  0  0  0
    0.5296   -0.8591   -0.4504 H   0  0  0  0  0  0  0  0  0  0  0  0
    2.1840   -0.7824   -1.2839 H   0  0  0  0  0  0  0  0  0  0  0  0
    2.3227    0.9214    0.3421 H   0  0  0  0  0  0  0  0  0  0  0  0
  1  2  2  3
  1  6  1  0
  1  7  1  0
  2  3  1  0
  2  8  1  0
  3  4  1  0
  3  9  1  0
  4  5  2  3
  4 10  1  0
  5 11  1  0
  5 12  1  0
 13 14  1  0
 13 17  1  0
 13 18  1  0
 13 19  1  0
 14 15  1  0
 14 20  1  0
 14 21  1  0
 15 16  2  0
 15 22  1  0
M  RAD  1   3   2
M  END
>  <reaction>  (4) 
rxn_2003

>  <mol_properties>  (4) 
{"1": {"label": "*4", "atom_type": "Cd"}, "2": {"label": "*3", "atom_type": "Cs"}, "13": {"label": "*1", "atom_type": "Cs"}, "14": {"label": "*0", "atom_type": "CS"}, "19": {"label": "*2", "atom_type": "H0"}}

>  <type>  (4) 
ts

$$$$

     RDKit          3D

 22 20  0  0  0  0  0  0  0  0999 V2000
    0.2657   -2.0023    2.1350 C   0  0  0  0  0  0  0  0  0  0  0  0
   -0.1107   -2.0954    0.8698 C   0  0  0  0  0  0  0  0  0  0  0  0
   -0.6020   -0.9553    0.0347 C   0  0  0  0  0  3  0  0  0  0  0  0
   -2.0176   -1.0953   -0.4555 C   0  0  0  0  0  0  0  0  0  0  0  0
   -2.8941   -2.0016   -0.0522 C   0  0  0  0  0  0  0  0  0  0  0  0
    0.6207   -2.8646    2.6854 H   0  0  0  0  0  0  0  0  0  0  0  0
    0.2341   -1.0573    2.6668 H   0  0  0  0  0  0  0  0  0  0  0  0
   -0.0726   -3.0624    0.3748 H   0  0  0  0  0  0  0  0  0  0  0  0
   -0.5105   -0.0174    0.5926 H   0  0  0  0  0  0  0  0  0  0  0  0
   -2.3206   -0.3653   -1.2011 H   0  0  0  0  0  0  0  0  0  0  0  0
   -3.8987   -2.0253   -0.4547 H   0  0  0  0  0  0  0  0  0  0  0  0
   -2.6439   -2.7442    0.6966 H   0  0  0  0  0  0  0  0  0  0  0  0
    1.4593    0.3673   -2.4364 C   0  0  0  0  0  0  0  0  0  0  0  0
    1.4593    0.3673   -0.9054 C   0  0  0  0  0  0  0  0  0  0  0  0
    1.4593    1.7555   -0.3587 C   0  0  0  0  0  0  0  0  0  0  0  0
    0.3398    2.4112    0.5889 S   0  0  0  0  0  0  0  0  0  0  0  0
    2.3145    0.9175   -2.8335 H   0  0  0  0  0  0  0  0  0  0  0  0
    1.5101   -0.6536   -2.8151 H   0  0  0  0  0  0  0  0  0  0  0  0
    0.5498    0.8297   -2.8221 H   0  0  0  0  0  0  0  0  0  0  0  0
    0.4317   -0.2920   -0.4367 H   0  0  0  0  0  0  0  0  0  0  0  0
    2.3697   -0.1294   -0.5499 H   0  0  0  0  0  0  0  0  0  0  0  0
    2.3148    2.3608   -0.6690 H   0  0  0  0  0  0  0  0  0  0  0  0
  1  2  2  3
  1  6  1  0
  1  7  1  0
  2  3  1  0
  2  8  1  0
  3  4  1  0
  3  9  1  0
  4  5  2  3
  4 10  1  0
  5 11  1  0
  5 12  1  0
 13 14  1  0
 13 17  1  0
 13 18  1  0
 13 19  1  0
 14 15  1  0
 14 20  1  0
 14 21  1  0
 15 16  2  0
 15 22  1  0
M  RAD  1   3   2
M  END
>  <reaction>  (5) 
rxn_2003

>  <mol_properties>  (5) 
{"1": {"label": "*4", "atom_type": "Cd"}, "2": {"label": "*3", "atom_type": "Cs"}, "13": {"label": "*1", "atom_type": "Cs"}, "14": {"label": "*0", "atom_type": "CS"}, "19": {"label": "*2", "atom_type": "H0"}}

>  <type>  (5) 
unop_1

>  <geom_source>  (5) 
Heuristics

$$$$

     RDKit          3D

 22 20  0  0  0  0  0  0  0  0999 V2000
   -0.5232   -3.4065   -0.4933 C   0  0  0  0  0  0  0  0  0  0  0  0
   -0.8082   -2.1228   -0.6411 C   0  0  0  0  0  0  0  0  0  0  0  0
   -0.4372   -1.0445    0.3277 C   0  0  0  0  0  3  0  0  0  0  0  0
   -1.6033   -0.3237    0.9477 C   0  0  0  0  0  0  0  0  0  0  0  0
   -2.8732   -0.6892    0.8710 C   0  0  0  0  0  0  0  0  0  0  0  0
   -0.8124   -4.1401   -1.2353 H   0  0  0  0  0  0  0  0  0  0  0  0
    0.0128   -3.7708    0.3767 H   0  0  0  0  0  0  0  0  0  0  0  0
   -1.3548   -1.7988   -1.5230 H   0  0  0  0  0  0  0  0  0  0  0  0
    0.1891   -1.4584    1.1250 H   0  0  0  0  0  0  0  0  0  0  0  0
   -1.3456    0.5691    1.5108 H   0  0  0  0  0  0  0  0  0  0  0  0
   -3.6508   -0.1129    1.3560 H   0  0  0  0  0  0  0  0  0  0  0  0
   -3.1802   -1.5770    0.3303 H   0  0  0  0  0  0  0  0  0  0  0  0
    1.6241    0.2781   -2.1435 C   0  0  0  0  0  0  0  0  0  0  0  0
    1.6241    0.2781   -0.6124 C   0  0  0  0  0  0  0  0  0  0  0  0
    1.6241    1.6663   -0.0657 C   0  0  0  0  0  0  0  0  0  0  0  0
    0.5046    2.3220    0.8818 S   0  0  0  0  0  0  0  0  0  0  0  0
    2.4793    0.8283   -2.5406 H   0  0  0  0  0  0  0  0  0  0  0  0
    1.6750   -0.7428   -2.5221 H   0  0  0  0  0  0  0  0  0  0  0  0
    0.7146    0.7405   -2.5291 H   0  0  0  0  0  0  0  0  0  0  0  0
    0.5965   -0.3813   -0.1437 H   0  0  0  0  0  0  0  0  0  0  0  0
    2.5345   -0.2186   -0.2570 H   0  0  0  0  0  0  0  0  0  0  0  0
    2.4796    2.2715   -0.3760 H   0  0  0  0  0  0  0  0  0  0  0  0
  1  2  2  3
  1  6  1  0
  1  7  1  0
  2  3  1  0
  2  8  1  0
  3  4  1  0
  3  9  1  0
  4  5  2  3
  4 10  1  0
  5 11  1  0
  5 12  1  0
 13 14  1  0
 13 17  1  0
 13 18  1  0
 13 19  1  0
 14 15  1  0
 14 20  1  0
 14 21  1  0
 15 16  2  0
 15 22  1  0
M  RAD  1   3   2
M  END
>  <reaction>  (6) 
rxn_2003

>  <mol_properties>  (6) 
{"1": {"label": "*4", "atom_type": "Cd"}, "2": {"label": "*3", "atom_type": "Cs"}, "13": {"label": "*1", "atom_type": "Cs"}, "14": {"label": "*0", "atom_type": "CS"}, "19": {"label": "*2", "atom_type": "H0"}}

>  <type>  (6) 
unop_2

>  <geom_source>  (6) 
Heuristics

$$$$

     RDKit          3D

 22 20  0  0  0  0  0  0  0  0999 V2000
   -0.4636   -1.0115    2.5056 C   0  0  0  0  0  0  0  0  0  0  0  0
   -0.2458   -1.5719    1.3268 C   0  0  0  0  0  0  0  0  0  0  0  0
   -0.6137   -0.9677    0.0084 C   0  0  0  0  0  3  0  0  0  0  0  0
   -1.6150   -1.7567   -0.7908 C   0  0  0  0  0  0  0  0  0  0  0  0
   -2.3237   -2.7848   -0.3516 C   0  0  0  0  0  0  0  0  0  0  0  0
   -0.1663   -1.4963    3.4270 H   0  0  0  0  0  0  0  0  0  0  0  0
   -0.9468   -0.0440    2.5917 H   0  0  0  0  0  0  0  0  0  0  0  0
    0.2333   -2.5467    1.2833 H   0  0  0  0  0  0  0  0  0  0  0  0
   -0.9982    0.0468    0.1571 H   0  0  0  0  0  0  0  0  0  0  0  0
   -1.7530   -1.4214   -1.8151 H   0  0  0  0  0  0  0  0  0  0  0  0
   -3.0306   -3.2921   -0.9957 H   0  0  0  0  0  0  0  0  0  0  0  0
   -2.2301   -3.1504    0.6645 H   0  0  0  0  0  0  0  0  0  0  0  0
    1.4477    0.3549   -2.4628 C   0  0  0  0  0  0  0  0  0  0  0  0
    1.4477    0.3549   -0.9317 C   0  0  0  0  0  0  0  0  0  0  0  0
    1.4477    1.7431   -0.3850 C   0  0  0  0  0  0  0  0  0  0  0  0
    0.3281    2.3988    0.5625 S   0  0  0  0  0  0  0  0  0  0  0  0
    2.3029    0.9050   -2.8599 H   0  0  0  0  0  0  0  0  0  0  0  0
    1.4985   -0.6660   -2.8414 H   0  0  0  0  0  0  0  0  0  0  0  0
    0.5382    0.8173   -2.8484 H   0  0  0  0  0  0  0  0  0  0  0  0
    0.4200   -0.3045   -0.4631 H   0  0  0  0  0  0  0  0  0  0  0  0
    2.3580   -0.1418   -0.5763 H   0  0  0  0  0  0  0  0  0  0  0  0
    2.3031    2.3483   -0.6954 H   0  0  0  0  0  0  0  0  0  0  0  0
  1  2  2  3
  1  6  1  0
  1  7  1  0
  2  3  1  0
  2  8  1  0
  3  4  1  0
  3  9  1  0
  4  5  2  3
  4 10  1  0
  5 11  1  0
  5 12  1  0
 13 14  1  0
 13 17  1  0
 13 18  1  0
 13 19  1  0
 14 15  1  0
 14 20  1  0
 14 21  1  0
 15 16  2  0
 15 22  1  0
M  RAD  1   3   2
M  END
>  <reaction>  (7) 
rxn_2003

>  <mol_properties>  (7) 
{"1": {"label": "*4", "atom_type": "Cd"}, "2": {"label": "*3", "atom_type": "Cs"}, "13": {"label": "*1", "atom_type": "Cs"}, "14": {"label": "*0", "atom_type": "CS"}, "19": {"label": "*2", "atom_type": "H0"}}

>  <type>  (7) 
unop_3

>  <geom_source>  (7) 
Heuristics

$$$$

     RDKit          3D

 22 20  0  0  0  0  0  0  0  0999 V2000
   -2.9219   -1.4988   -0.6158 C   0  0  0  0  0  0  0  0  0  0  0  0
   -1.7672   -0.8771   -0.4399 C   0  0  0  0  0  0  0  0  0  0  0  0
   -0.5090   -1.5252    0.0455 C   0  0  0  0  0  3  0  0  0  0  0  0
    0.0140   -0.9906    1.3511 C   0  0  0  0  0  0  0  0  0  0  0  0
   -0.6315   -0.1786    2.1733 C   0  0  0  0  0  0  0  0  0  0  0  0
   -3.7977   -0.9754   -0.9784 H   0  0  0  0  0  0  0  0  0  0  0  0
   -3.0328   -2.5572   -0.4048 H   0  0  0  0  0  0  0  0  0  0  0  0
   -1.6992    0.1864   -0.6543 H   0  0  0  0  0  0  0  0  0  0  0  0
   -0.6578   -2.6061    0.1385 H   0  0  0  0  0  0  0  0  0  0  0  0
    1.0114   -1.3277    1.6197 H   0  0  0  0  0  0  0  0  0  0  0  0
   -0.1805    0.1524    3.1001 H   0  0  0  0  0  0  0  0  0  0  0  0
   -1.6320    0.1772    1.9556 H   0  0  0  0  0  0  0  0  0  0  0  0
    1.5524   -0.2026   -2.4256 C   0  0  0  0  0  0  0  0  0  0  0  0
    1.5524   -0.2026   -0.8945 C   0  0  0  0  0  0  0  0  0  0  0  0
    1.5524    1.1856   -0.3479 C   0  0  0  0  0  0  0  0  0  0  0  0
    0.4329    1.8413    0.5997 S   0  0  0  0  0  0  0  0  0  0  0  0
    2.4076    0.3476   -2.8227 H   0  0  0  0  0  0  0  0  0  0  0  0
    1.6032   -1.2235   -2.8043 H   0  0  0  0  0  0  0  0  0  0  0  0
    0.6429    0.2598   -2.8113 H   0  0  0  0  0  0  0  0  0  0  0  0
    0.5247   -0.8619   -0.4259 H   0  0  0  0  0  0  0  0  0  0  0  0
    2.4628   -0.6993   -0.5391 H   0  0  0  0  0  0  0  0  0  0  0  0
    2.4079    1.7909   -0.6582 H   0  0  0  0  0  0  0  0  0  0  0  0
  1  2  2  3
  1  6  1  0
  1  7  1  0
  2  3  1  0
  2  8  1  0
  3  4  1  0
  3  9  1  0
  4  5  2  3
  4 10  1  0
  5 11  1  0
  5 12  1  0
 13 14  1  0
 13 17  1  0
 13 18  1  0
 13 19  1  0
 14 15  1  0
 14 20  1  0
 14 21  1  0
 15 16  2  0
 15 22  1  0
M  RAD  1   3   2
M  END
>  <reaction>  (8) 
rxn_2003

>  <mol_properties>  (8) 
{"1": {"label": "*4", "atom_type": "Cd"}, "2": {"label": "*3", "atom_type": "Cs"}, "13": {"label": "*1", "atom_type": "Cs"}, "14": {"label": "*0", "atom_type": "CS"}, "19": {"label": "*2", "atom_type": "H0"}}

>  <type>  (8) 
unop_4

>  <geom_source>  (8) 
Heuristics

$$$$

     RDKit          3D

 22 20  0  0  0  0  0  0  0  0999 V2000
   -1.6350   -0.4334    2.2307 C   0  0  0  0  0  0  0  0  0  0  0  0
   -0.6851   -0.9276    1.4532 C   0  0  0  0  0  0  0  0  0  0  0  0
   -0.7282   -0.9553   -0.0422 C   0  0  0  0  0  3  0  0  0  0  0  0
   -0.7137   -2.3319   -0.6493 C   0  0  0  0  0  0  0  0  0  0  0  0
   -0.8724   -3.4717    0.0047 C   0  0  0  0  0  0  0  0  0  0  0  0
   -1.5419   -0.4349    3.3095 H   0  0  0  0  0  0  0  0  0  0  0  0
   -2.5416   -0.0067    1.8151 H   0  0  0  0  0  0  0  0  0  0  0  0
    0.2047   -1.3546    1.9087 H   0  0  0  0  0  0  0  0  0  0  0  0
   -1.6133   -0.4187   -0.4000 H   0  0  0  0  0  0  0  0  0  0  0  0
   -0.5669   -2.3585   -1.7255 H   0  0  0  0  0  0  0  0  0  0  0  0
   -0.8552   -4.4212   -0.5151 H   0  0  0  0  0  0  0  0  0  0  0  0
   -1.0324   -3.4977    1.0764 H   0  0  0  0  0  0  0  0  0  0  0  0
    1.3331    0.3673   -2.5133 C   0  0  0  0  0  0  0  0  0  0  0  0
    1.3331    0.3673   -0.9823 C   0  0  0  0  0  0  0  0  0  0  0  0
    1.3331    1.7555   -0.4356 C   0  0  0  0  0  0  0  0  0  0  0  0
    0.2136    2.4112    0.5120 S   0  0  0  0  0  0  0  0  0  0  0  0
    2.1883    0.9175   -2.9104 H   0  0  0  0  0  0  0  0  0  0  0  0
    1.3839   -0.6536   -2.8920 H   0  0  0  0  0  0  0  0  0  0  0  0
    0.4236    0.8297   -2.8990 H   0  0  0  0  0  0  0  0  0  0  0  0
    0.3055   -0.2920   -0.5136 H   0  0  0  0  0  0  0  0  0  0  0  0
    2.2435   -0.1294   -0.6268 H   0  0  0  0  0  0  0  0  0  0  0  0
    2.1886    2.3608   -0.7459 H   0  0  0  0  0  0  0  0  0  0  0  0
  1  2  2  3
  1  6  1  0
  1  7  1  0
  2  3  1  0
  2  8  1  0
  3  4  1  0
  3  9  1  0
  4  5  2  3
  4 10  1  0
  5 11  1  0
  5 12  1  0
 13 14  1  0
 13 17  1  0
 13 18  1  0
 13 19  1  0
 14 15  1  0
 14 20  1  0
 14 21  1  0
 15 16  2  0
 15 22  1  0
M  RAD  1   3   2
M  END
>  <reaction>  (9) 
rxn_2003

>  <mol_properties>  (9) 
{"1": {"label": "*4", "atom_type": "Cd"}, "2": {"label": "*3", "atom_type": "Cs"}, "13": {"label": "*1", "atom_type": "Cs"}, "14": {"label": "*0", "atom_type": "CS"}, "19": {"label": "*2", "atom_type": "H0"}}

>  <type>  (9) 
unop_5

>  <geom_source>  (9) 
Heuristics

$$$$

     RDKit          3D

 22 20  0  0  0  0  0  0  0  0999 V2000
   -3.0768   -0.8945    0.1502 C   0  0  0  0  0  0  0  0  0  0  0  0
   -1.8056   -0.5369    0.0656 C   0  0  0  0  0  0  0  0  0  0  0  0
   -0.6584   -1.4813   -0.1092 C   0  0  0  0  0  3  0  0  0  0  0  0
    0.3351   -1.4846    1.0207 C   0  0  0  0  0  0  0  0  0  0  0  0
    0.1744   -0.9032    2.1989 C   0  0  0  0  0  0  0  0  0  0  0  0
   -3.8649   -0.1615    0.2686 H   0  0  0  0  0  0  0  0  0  0  0  0
   -3.3761   -1.9362    0.1021 H   0  0  0  0  0  0  0  0  0  0  0  0
   -1.5458    0.5168    0.1271 H   0  0  0  0  0  0  0  0  0  0  0  0
   -1.0326   -2.4999   -0.2561 H   0  0  0  0  0  0  0  0  0  0  0  0
    1.2538   -2.0303    0.8239 H   0  0  0  0  0  0  0  0  0  0  0  0
    0.9416   -0.9622    2.9605 H   0  0  0  0  0  0  0  0  0  0  0  0
   -0.7278   -0.3564    2.4476 H   0  0  0  0  0  0  0  0  0  0  0  0
    1.4030   -0.1587   -2.5804 C   0  0  0  0  0  0  0  0  0  0  0  0
    1.4030   -0.1587   -1.0493 C   0  0  0  0  0  0  0  0  0  0  0  0
    1.4030    1.2295   -0.5026 C   0  0  0  0  0  0  0  0  0  0  0  0
    0.2834    1.8852    0.4449 S   0  0  0  0  0  0  0  0  0  0  0  0
    2.2582    0.3915   -2.9775 H   0  0  0  0  0  0  0  0  0  0  0  0
    1.4538   -1.1796   -2.9590 H   0  0  0  0  0  0  0  0  0  0  0  0
    0.4935    0.3037   -2.9660 H   0  0  0  0  0  0  0  0  0  0  0  0
    0.3753   -0.8181   -0.5807 H   0  0  0  0  0  0  0  0  0  0  0  0
    2.3133   -0.6554   -0.6939 H   0  0  0  0  0  0  0  0  0  0  0  0
    2.2584    1.8347   -0.8130 H   0  0  0  0  0  0  0  0  0  0  0  0
  1  2  2  3
  1  6  1  0
  1  7  1  0
  2  3  1  0
  2  8  1  0
  3  4  1  0
  3  9  1  0
  4  5  2  3
  4 10  1  0
  5 11  1  0
  5 12  1  0
 13 14  1  0
 13 17  1  0
 13 18  1  0
 13 19  1  0
 14 15  1  0
 14 20  1  0
 14 21  1  0
 15 16  2  0
 15 22  1  0
M  RAD  1   3   2
M  END
>  <reaction>  (10) 
rxn_2003

>  <mol_properties>  (10) 
{"1": {"label": "*4", "atom_type": "Cd"}, "2": {"label": "*3", "atom_type": "Cs"}, "13": {"label": "*1", "atom_type": "Cs"}, "14": {"label": "*0", "atom_type": "CS"}, "19": {"label": "*2", "atom_type": "H0"}}

>  <type>  (10) 
unop_6

>  <geom_source>  (10) 
Heuristics

$$$$

     RDKit          3D

 22 20  0  0  0  0  0  0  0  0999 V2000
   -2.8982   -0.5983    0.9558 C   0  0  0  0  0  0  0  0  0  0  0  0
   -1.6267   -0.4022    0.6460 C   0  0  0  0  0  0  0  0  0  0  0  0
   -0.7951   -1.3240   -0.1892 C   0  0  0  0  0  3  0  0  0  0  0  0
    0.3876   -1.9253    0.5204 C   0  0  0  0  0  0  0  0  0  0  0  0
    0.6216   -1.8744    1.8222 C   0  0  0  0  0  0  0  0  0  0  0  0
   -3.4502    0.1114    1.5591 H   0  0  0  0  0  0  0  0  0  0  0  0
   -3.4348   -1.4772    0.6147 H   0  0  0  0  0  0  0  0  0  0  0  0
   -1.1219    0.4870    1.0147 H   0  0  0  0  0  0  0  0  0  0  0  0
   -1.4185   -2.1315   -0.5873 H   0  0  0  0  0  0  0  0  0  0  0  0
    1.0906   -2.4502   -0.1207 H   0  0  0  0  0  0  0  0  0  0  0  0
    1.4981   -2.3431    2.2511 H   0  0  0  0  0  0  0  0  0  0  0  0
   -0.0544   -1.3722    2.5047 H   0  0  0  0  0  0  0  0  0  0  0  0
    1.2663   -0.0014   -2.6603 C   0  0  0  0  0  0  0  0  0  0  0  0
    1.2663   -0.0014   -1.1292 C   0  0  0  0  0  0  0  0  0  0  0  0
    1.2663    1.3868   -0.5825 C   0  0  0  0  0  0  0  0  0  0  0  0
    0.1467    2.0425    0.3650 S   0  0  0  0  0  0  0  0  0  0  0  0
    2.1215    0.5488   -3.0574 H   0  0  0  0  0  0  0  0  0  0  0  0
    1.3171   -1.0223   -3.0390 H   0  0  0  0  0  0  0  0  0  0  0  0
    0.3568    0.4610   -3.0459 H   0  0  0  0  0  0  0  0  0  0  0  0
    0.2386   -0.6608   -0.6606 H   0  0  0  0  0  0  0  0  0  0  0  0
    2.1766   -0.4981   -0.7738 H   0  0  0  0  0  0  0  0  0  0  0  0
    2.1217    1.9920   -0.8929 H   0  0  0  0  0  0  0  0  0  0  0  0
  1  2  2  3
  1  6  1  0
  1  7  1  0
  2  3  1  0
  2  8  1  0
  3  4  1  0
  3  9  1  0
  4  5  2  3
  4 10  1  0
  5 11  1  0
  5 12  1  0
 13 14  1  0
 13 17  1  0
 13 18  1  0
 13 19  1  0
 14 15  1  0
 14 20  1  0
 14 21  1  0
 15 16  2  0
 15 22  1  0
M  RAD  1   3   2
M  END
>  <reaction>  (11) 
rxn_2003

>  <mol_properties>  (11) 
{"1": {"label": "*4", "atom_type": "Cd"}, "2": {"label": "*3", "atom_type": "Cs"}, "13": {"label": "*1", "atom_type": "Cs"}, "14": {"label": "*0", "atom_type": "CS"}, "19": {"label": "*2", "atom_type": "H0"}}

>  <type>  (11) 
unop_7

>  <geom_source>  (11) 
Heuristics

$$$$

     RDKit          3D

 22 20  0  0  0  0  0  0  0  0999 V2000
    0.4426   -2.8457    1.3318 C   0  0  0  0  0  0  0  0  0  0  0  0
   -0.2088   -2.3547    0.2899 C   0  0  0  0  0  0  0  0  0  0  0  0
   -0.5892   -0.9182    0.1151 C   0  0  0  0  0  3  0  0  0  0  0  0
   -2.0699   -0.6610    0.0429 C   0  0  0  0  0  0  0  0  0  0  0  0
   -3.0252   -1.5341    0.3208 C   0  0  0  0  0  0  0  0  0  0  0  0
    0.6970   -3.8961    1.3972 H   0  0  0  0  0  0  0  0  0  0  0  0
    0.7475   -2.2127    2.1583 H   0  0  0  0  0  0  0  0  0  0  0  0
   -0.5048   -3.0236   -0.5141 H   0  0  0  0  0  0  0  0  0  0  0  0
   -0.1636   -0.3180    0.9262 H   0  0  0  0  0  0  0  0  0  0  0  0
   -2.3479    0.3452   -0.2587 H   0  0  0  0  0  0  0  0  0  0  0  0
   -4.0702   -1.2607    0.2492 H   0  0  0  0  0  0  0  0  0  0  0  0
   -2.7995   -2.5464    0.6359 H   0  0  0  0  0  0  0  0  0  0  0  0
    1.4721    0.4044   -2.3561 C   0  0  0  0  0  0  0  0  0  0  0  0
    1.4721    0.4044   -0.8250 C   0  0  0  0  0  0  0  0  0  0  0  0
    1.4721    1.7926   -0.2783 C   0  0  0  0  0  0  0  0  0  0  0  0
    0.3526    2.4483    0.6692 S   0  0  0  0  0  0  0  0  0  0  0  0
    2.3273    0.9546   -2.7532 H   0  0  0  0  0  0  0  0  0  0  0  0
    1.5230   -0.6165   -2.7347 H   0  0  0  0  0  0  0  0  0  0  0  0
    0.5626    0.8668   -2.7417 H   0  0  0  0  0  0  0  0  0  0  0  0
    0.4445   -0.2549   -0.3563 H   0  0  0  0  0  0  0  0  0  0  0  0
    2.3825   -0.0923   -0.4696 H   0  0  0  0  0  0  0  0  0  0  0  0
    2.3276    2.3979   -0.5887 H   0  0  0  0  0  0  0  0  0  0  0  0
  1  2  2  3
  1  6  1  0
  1  7  1  0
  2  3  1  0
  2  8  1  0
  3  4  1  0
  3  9  1  0
  4  5  2  3
  4 10  1  0
  5 11  1  0
  5 12  1  0
 13 14  1  0
 13 17  1  0
 13 18  1  0
 13 19  1  0
 14 15  1  0
 14 20  1  0
 14 21  1  0
 15 16  2  0
 15 22  1  0
M  RAD  1   3   2
M  END
>  <reaction>  (12) 
rxn_2003

>  <mol_properties>  (12) 
{"1": {"label": "*4", "atom_type": "Cd"}, "2": {"label": "*3", "atom_type": "Cs"}, "13": {"label": "*1", "atom_type": "Cs"}, "14": {"label": "*0", "atom_type": "CS"}, "19": {"label": "*2", "atom_type": "H0"}}

>  <type>  (12) 
unop_8

>  <geom_source>  (12) 
Heuristics

$$$$

     RDKit          3D

 22 20  0  0  0  0  0  0  0  0999 V2000
   -2.3521   -2.3121   -1.0804 C   0  0  0  0  0  0  0  0  0  0  0  0
   -1.5339   -1.3251   -0.7525 C   0  0  0  0  0  0  0  0  0  0  0  0
   -0.3991   -1.4373    0.2162 C   0  0  0  0  0  3  0  0  0  0  0  0
   -0.5186   -0.5611    1.4335 C   0  0  0  0  0  0  0  0  0  0  0  0
   -1.5964    0.1120    1.8042 C   0  0  0  0  0  0  0  0  0  0  0  0
   -3.1522   -2.1706   -1.7961 H   0  0  0  0  0  0  0  0  0  0  0  0
   -2.2497   -3.3004   -0.6450 H   0  0  0  0  0  0  0  0  0  0  0  0
   -1.6751   -0.3466   -1.2044 H   0  0  0  0  0  0  0  0  0  0  0  0
   -0.2842   -2.4779    0.5375 H   0  0  0  0  0  0  0  0  0  0  0  0
    0.3752   -0.5040    2.0487 H   0  0  0  0  0  0  0  0  0  0  0  0
   -1.5968    0.7152    2.7032 H   0  0  0  0  0  0  0  0  0  0  0  0
   -2.5155    0.0793    1.2305 H   0  0  0  0  0  0  0  0  0  0  0  0
    1.6623   -0.1147   -2.2549 C   0  0  0  0  0  0  0  0  0  0  0  0
    1.6623   -0.1147   -0.7239 C   0  0  0  0  0  0  0  0  0  0  0  0
    1.6623    1.2735   -0.1772 C   0  0  0  0  0  0  0  0  0  0  0  0
    0.5427    1.9292    0.7704 S   0  0  0  0  0  0  0  0  0  0  0  0
    2.5175    0.4355   -2.6520 H   0  0  0  0  0  0  0  0  0  0  0  0
    1.7131   -1.1356   -2.6336 H   0  0  0  0  0  0  0  0  0  0  0  0
    0.7528    0.3477   -2.6406 H   0  0  0  0  0  0  0  0  0  0  0  0
    0.6346   -0.7741   -0.2552 H   0  0  0  0  0  0  0  0  0  0  0  0
    2.5726   -0.6114   -0.3684 H   0  0  0  0  0  0  0  0  0  0  0  0
    2.5177    1.8787   -0.4875 H   0  0  0  0  0  0  0  0  0  0  0  0
  1  2  2  3
  1  6  1  0
  1  7  1  0
  2  3  1  0
  2  8  1  0
  3  4  1  0
  3  9  1  0
  4  5  2  3
  4 10  1  0
  5 11  1  0
  5 12  1  0
 13 14  1  0
 13 17  1  0
 13 18  1  0
 13 19  1  0
 14 15  1  0
 14 20  1  0
 14 21  1  0
 15 16  2  0
 15 22  1  0
M  RAD  1   3   2
M  END
>  <reaction>  (13) 
rxn_2003

>  <mol_properties>  (13) 
{"1": {"label": "*4", "atom_type": "Cd"}, "2": {"label": "*3", "atom_type": "Cs"}, "13": {"label": "*1", "atom_type": "Cs"}, "14": {"label": "*0", "atom_type": "CS"}, "19": {"label": "*2", "atom_type": "H0"}}

>  <type>  (13) 
unop_9

>  <geom_source>  (13) 
Heuristics

$$$$

     RDKit          3D

 22 20  0  0  0  0  0  0  0  0999 V2000
    0.1530   -3.3345    0.3727 C   0  0  0  0  0  0  0  0  0  0  0  0
   -0.4650   -2.3453   -0.2522 C   0  0  0  0  0  0  0  0  0  0  0  0
   -0.5298   -0.9314    0.2332 C   0  0  0  0  0  3  0  0  0  0  0  0
   -1.9160   -0.4292    0.5331 C   0  0  0  0  0  0  0  0  0  0  0  0
   -3.0125   -1.1676    0.6020 C   0  0  0  0  0  0  0  0  0  0  0  0
    0.1715   -4.3378   -0.0343 H   0  0  0  0  0  0  0  0  0  0  0  0
    0.6656   -3.1758    1.3155 H   0  0  0  0  0  0  0  0  0  0  0  0
   -0.9750   -2.5470   -1.1907 H   0  0  0  0  0  0  0  0  0  0  0  0
    0.0913   -0.8151    1.1276 H   0  0  0  0  0  0  0  0  0  0  0  0
   -1.9890    0.6397    0.7140 H   0  0  0  0  0  0  0  0  0  0  0  0
   -3.9723   -0.7226    0.8318 H   0  0  0  0  0  0  0  0  0  0  0  0
   -2.9904   -2.2391    0.4400 H   0  0  0  0  0  0  0  0  0  0  0  0
    1.5316    0.3912   -2.2380 C   0  0  0  0  0  0  0  0  0  0  0  0
    1.5316    0.3912   -0.7069 C   0  0  0  0  0  0  0  0  0  0  0  0
    1.5316    1.7794   -0.1602 C   0  0  0  0  0  0  0  0  0  0  0  0
    0.4120    2.4351    0.7873 S   0  0  0  0  0  0  0  0  0  0  0  0
    2.3868    0.9414   -2.6351 H   0  0  0  0  0  0  0  0  0  0  0  0
    1.5824   -0.6297   -2.6166 H   0  0  0  0  0  0  0  0  0  0  0  0
    0.6221    0.8536   -2.6236 H   0  0  0  0  0  0  0  0  0  0  0  0
    0.5039   -0.2682   -0.2382 H   0  0  0  0  0  0  0  0  0  0  0  0
    2.4419   -0.1055   -0.3515 H   0  0  0  0  0  0  0  0  0  0  0  0
    2.3870    2.3846   -0.4705 H   0  0  0  0  0  0  0  0  0  0  0  0
  1  2  2  3
  1  6  1  0
  1  7  1  0
  2  3  1  0
  2  8  1  0
  3  4  1  0
  3  9  1  0
  4  5  2  3
  4 10  1  0
  5 11  1  0
  5 12  1  0
 13 14  1  0
 13 17  1  0
 13 18  1  0
 13 19  1  0
 14 15  1  0
 14 20  1  0
 14 21  1  0
 15 16  2  0
 15 22  1  0
M  RAD  1   3   2
M  END
>  <reaction>  (14) 
rxn_2003

>  <mol_properties>  (14) 
{"1": {"label": "*4", "atom_type": "Cd"}, "2": {"label": "*3", "atom_type": "Cs"}, "13": {"label": "*1", "atom_type": "Cs"}, "14": {"label": "*0", "atom_type": "CS"}, "19": {"label": "*2", "atom_type": "H0"}}

>  <type>  (14) 
unop_10

>  <geom_source>  (14) 
Heuristics

$$$$

     RDKit          3D

 22 20  0  0  0  0  0  0  0  0999 V2000
   -2.4751   -0.4791    1.6354 C   0  0  0  0  0  0  0  0  0  0  0  0
   -1.2401   -0.5163    1.1616 C   0  0  0  0  0  0  0  0  0  0  0  0
   -0.8442   -1.1025   -0.1568 C   0  0  0  0  0  3  0  0  0  0  0  0
    0.0979   -2.2725   -0.0707 C   0  0  0  0  0  0  0  0  0  0  0  0
    0.4234   -2.9291    1.0316 C   0  0  0  0  0  0  0  0  0  0  0  0
   -2.7002   -0.0328    2.5959 H   0  0  0  0  0  0  0  0  0  0  0  0
   -3.3081   -0.8933    1.0773 H   0  0  0  0  0  0  0  0  0  0  0  0
   -0.4313   -0.0983    1.7555 H   0  0  0  0  0  0  0  0  0  0  0  0
   -1.7371   -1.4058   -0.7136 H   0  0  0  0  0  0  0  0  0  0  0  0
    0.5262   -2.5889   -1.0178 H   0  0  0  0  0  0  0  0  0  0  0  0
    1.1068   -3.7681    1.0010 H   0  0  0  0  0  0  0  0  0  0  0  0
    0.0151   -2.6591    1.9987 H   0  0  0  0  0  0  0  0  0  0  0  0
    1.2171    0.2201   -2.6280 C   0  0  0  0  0  0  0  0  0  0  0  0
    1.2171    0.2201   -1.0969 C   0  0  0  0  0  0  0  0  0  0  0  0
    1.2171    1.6083   -0.5502 C   0  0  0  0  0  0  0  0  0  0  0  0
    0.0976    2.2640    0.3973 S   0  0  0  0  0  0  0  0  0  0  0  0
    2.0723    0.7702   -3.0251 H   0  0  0  0  0  0  0  0  0  0  0  0
    1.2680   -0.8008   -3.0066 H   0  0  0  0  0  0  0  0  0  0  0  0
    0.3076    0.6825   -3.0136 H   0  0  0  0  0  0  0  0  0  0  0  0
    0.1895   -0.4393   -0.6282 H   0  0  0  0  0  0  0  0  0  0  0  0
    2.1275   -0.2766   -0.7415 H   0  0  0  0  0  0  0  0  0  0  0  0
    2.0726    2.2135   -0.8606 H   0  0  0  0  0  0  0  0  0  0  0  0
  1  2  2  3
  1  6  1  0
  1  7  1  0
  2  3  1  0
  2  8  1  0
  3  4  1  0
  3  9  1  0
  4  5  2  3
  4 10  1  0
  5 11  1  0
  5 12  1  0
 13 14  1  0
 13 17  1  0
 13 18  1  0
 13 19  1  0
 14 15  1  0
 14 20  1  0
 14 21  1  0
 15 16  2  0
 15 22  1  0
M  RAD  1   3   2
M  END
>  <reaction>  (15) 
rxn_2003

>  <mol_properties>  (15) 
{"1": {"label": "*4", "atom_type": "Cd"}, "2": {"label": "*3", "atom_type": "Cs"}, "13": {"label": "*1", "atom_type": "Cs"}, "14": {"label": "*0", "atom_type": "CS"}, "19": {"label": "*2", "atom_type": "H0"}}

>  <type>  (15) 
unop_11

>  <geom_source>  (15) 
Heuristics

$$$$

     RDKit          3D

 22 20  0  0  0  0  0  0  0  0999 V2000
   -1.4528   -3.0410   -1.0386 C   0  0  0  0  0  0  0  0  0  0  0  0
   -1.1834   -1.7646   -0.8172 C   0  0  0  0  0  0  0  0  0  0  0  0
   -0.3734   -1.2448    0.3285 C   0  0  0  0  0  3  0  0  0  0  0  0
   -1.1188   -0.3372    1.2689 C   0  0  0  0  0  0  0  0  0  0  0  0
   -2.4274   -0.1388    1.2841 C   0  0  0  0  0  0  0  0  0  0  0  0
   -2.0396   -3.3564   -1.8923 H   0  0  0  0  0  0  0  0  0  0  0  0
   -1.0936   -3.8190   -0.3733 H   0  0  0  0  0  0  0  0  0  0  0  0
   -1.5693   -1.0143   -1.5025 H   0  0  0  0  0  0  0  0  0  0  0  0
    0.0454   -2.0806    0.8989 H   0  0  0  0  0  0  0  0  0  0  0  0
   -0.4993    0.1811    1.9957 H   0  0  0  0  0  0  0  0  0  0  0  0
   -2.8830    0.5295    2.0037 H   0  0  0  0  0  0  0  0  0  0  0  0
   -3.0891   -0.6400    0.5870 H   0  0  0  0  0  0  0  0  0  0  0  0
    1.6879    0.0778   -2.1427 C   0  0  0  0  0  0  0  0  0  0  0  0
    1.6879    0.0778   -0.6116 C   0  0  0  0  0  0  0  0  0  0  0  0
    1.6879    1.4659   -0.0649 C   0  0  0  0  0  0  0  0  0  0  0  0
    0.5684    2.1216    0.8826 S   0  0  0  0  0  0  0  0  0  0  0  0
    2.5431    0.6279   -2.5398 H   0  0  0  0  0  0  0  0  0  0  0  0
    1.7388   -0.9432   -2.5213 H   0  0  0  0  0  0  0  0  0  0  0  0
    0.7785    0.5401   -2.5283 H   0  0  0  0  0  0  0  0  0  0  0  0
    0.6603   -0.5816   -0.1429 H   0  0  0  0  0  0  0  0  0  0  0  0
    2.5983   -0.4189   -0.2562 H   0  0  0  0  0  0  0  0  0  0  0  0
    2.5434    2.0712   -0.3752 H   0  0  0  0  0  0  0  0  0  0  0  0
  1  2  2  3
  1  6  1  0
  1  7  1  0
  2  3  1  0
  2  8  1  0
  3  4  1  0
  3  9  1  0
  4  5  2  3
  4 10  1  0
  5 11  1  0
  5 12  1  0
 13 14  1  0
 13 17  1  0
 13 18  1  0
 13 19  1  0
 14 15  1  0
 14 20  1  0
 14 21  1  0
 15 16  2  0
 15 22  1  0
M  RAD  1   3   2
M  END
>  <reaction>  (16) 
rxn_2003

>  <mol_properties>  (16) 
{"1": {"label": "*4", "atom_type": "Cd"}, "2": {"label": "*3", "atom_type": "Cs"}, "13": {"label": "*1", "atom_type": "Cs"}, "14": {"label": "*0", "atom_type": "CS"}, "19": {"label": "*2", "atom_type": "H0"}}

>  <type>  (16) 
unop_12

>  <geom_source>  (16) 
Heuristics

$$$$

     RDKit          3D

 22 20  0  0  0  0  0  0  0  0999 V2000
    1.8749    2.6816   -0.7328 S   0  0  0  0  0  0  0  0  0  0  0  0
   -0.7611   -0.4195   -0.3451 C   0  0  0  0  0  3  0  0  0  0  0  0
    2.7713   -0.4632   -0.5197 C   0  0  0  0  0  0  0  0  0  0  0  0
   -1.4306   -1.4668    0.4990 C   0  0  0  0  0  0  0  0  0  0  0  0
   -1.6733    0.7493   -0.5862 C   0  0  0  0  0  0  0  0  0  0  0  0
    1.7127    0.3322    0.2366 C   0  0  0  0  0  0  0  0  0  0  0  0
   -2.4497   -2.1965    0.0359 C   0  0  0  0  0  0  0  0  0  0  0  0
   -1.9928    1.5973    0.3949 C   0  0  0  0  0  0  0  0  0  0  0  0
    2.0935    1.7767    0.3600 C   0  0  0  0  0  0  0  0  0  0  0  0
   -0.4590   -0.8647   -1.3176 H   0  0  0  0  0  0  0  0  0  0  0  0
    0.4014    0.0297    0.3059 H   0  0  0  0  0  0  0  0  0  0  0  0
    2.4604   -1.5272   -0.5750 H   0  0  0  0  0  0  0  0  0  0  0  0
    3.7488   -0.4012    0.0047 H   0  0  0  0  0  0  0  0  0  0  0  0
    2.8804   -0.0737   -1.5538 H   0  0  0  0  0  0  0  0  0  0  0  0
   -1.0642   -1.6419    1.5057 H   0  0  0  0  0  0  0  0  0  0  0  0
   -2.0674    0.9168   -1.5842 H   0  0  0  0  0  0  0  0  0  0  0  0
    1.5815   -0.1047    1.2497 H   0  0  0  0  0  0  0  0  0  0  0  0
   -2.8309   -2.0474   -0.9699 H   0  0  0  0  0  0  0  0  0  0  0  0
   -2.9088   -2.9505    0.6669 H   0  0  0  0  0  0  0  0  0  0  0  0
   -2.6477    2.4388    0.1936 H   0  0  0  0  0  0  0  0  0  0  0  0
   -1.6062    1.4588    1.4002 H   0  0  0  0  0  0  0  0  0  0  0  0
    2.3668    2.1763    1.3312 H   0  0  0  0  0  0  0  0  0  0  0  0
  1  9  2  0
  2  4  1  0
  2  5  1  0
  2 10  1  0
  3  6  1  0
  3 12  1  0
  3 13  1  0
  3 14  1  0
  4  7  2  3
  4 15  1  0
  5  8  2  3
  5 16  1  0
  6  9  1  0
  6 11  1  0
  6 17  1  0
  7 18  1  0
  7 19  1  0
  8 20  1  0
  8 21  1  0
  9 22  1  0
M  RAD  1   2   2
M  END
>  <reaction>  (17) 
rxn_2003

>  <mol_properties>  (17) 
{"1": {"label": "*4", "atom_type": "Cd"}, "2": {"label": "*3", "atom_type": "Cs"}, "13": {"label": "*1", "atom_type": "Cs"}, "14": {"label": "*0", "atom_type": "CS"}, "19": {"label": "*2", "atom_type": "H0"}}

>  <type>  (17) 
unop_13

>  <geom_source>  (17) 
AutoTST

$$$$
