
     RDKit          3D

  6  5  0  0  0  0  0  0  0  0999 V2000
   -0.3669    0.0060    0.0609 C   0  0  0  0  0  0  0  0  0  0  0  0
    0.9818   -0.0507    0.4695 O   0  0  0  0  0  0  0  0  0  0  0  0
   -0.6066    0.9462   -0.4488 H   0  0  0  0  0  0  0  0  0  0  0  0
   -0.5221   -0.8115   -0.6420 H   0  0  0  0  0  0  0  0  0  0  0  0
   -1.0602   -0.1268    0.8992 H   0  0  0  0  0  0  0  0  0  0  0  0
    1.1451    0.6595    1.0897 H   0  0  0  0  0  0  0  0  0  0  0  0
  1  2  1  0
  1  3  1  0
  1  4  1  0
  1  5  1  0
  2  6  1  0
M  END
>  <reaction>  (1) 
rxn_3128

>  <mol_properties>  (1) 
{"1": {"label": "donator", "atom_type": "O2s"}, "5": {"label": "d_hydrogen", "atom_type": "H0"}}

>  <type>  (1) 
r1h

$$$$

     RDKit          3D

  6  6  0  0  0  0  0  0  0  0999 V2000
    1.9594    0.0134   -0.3734 N   0  0  0  0  0  2  0  0  0  0  0  0
    0.7437    0.0051   -0.0788 C   0  0  0  0  0  0  0  0  0  0  0  0
   -0.0745    1.0868    0.0233 O   0  0  0  0  0  0  0  0  0  0  0  0
   -1.3223    0.5972    0.3682 N   0  0  0  0  0  0  0  0  0  0  0  0
   -1.2899   -0.6150    0.4676 N   0  0  0  0  0  0  0  0  0  0  0  0
   -0.0165   -1.0874    0.2015 O   0  0  0  0  0  0  0  0  0  0  0  0
  1  2  2  0
  2  3  1  0
  2  6  1  0
  3  4  1  0
  4  5  2  0
  5  6  1  0
M  RAD  1   1   2
M  END
>  <reaction>  (2) 
rxn_3128

>  <mol_properties>  (2) 
{"0": {"label": "acceptor", "atom_type": "N3d"}}

>  <type>  (2) 
r2

$$$$

     RDKit          3D

  7  7  0  0  0  0  0  0  0  0999 V2000
    1.6064   -0.4313    0.1905 N   0  0  0  0  0  0  0  0  0  0  0  0
    0.3982   -0.1725    0.0701 C   0  0  0  0  0  0  0  0  0  0  0  0
   -0.6051   -1.0481    0.3497 O   0  0  0  0  0  0  0  0  0  0  0  0
   -1.7906   -0.4044    0.0958 N   0  0  0  0  0  0  0  0  0  0  0  0
   -1.5819    0.7348   -0.2956 N   0  0  0  0  0  0  0  0  0  0  0  0
   -0.2229    0.9708   -0.3436 O   0  0  0  0  0  0  0  0  0  0  0  0
    2.1958    0.3506   -0.0669 H   0  0  0  0  0  0  0  0  0  0  0  0
  1  2  2  3
  1  7  1  0
  2  3  1  0
  2  6  1  0
  3  4  1  0
  4  5  2  0
  5  6  1  0
M  END
>  <reaction>  (3) 
rxn_3128

>  <mol_properties>  (3) 
{"0": {"label": "acceptor", "atom_type": "N3d"}, "6": {"label": "a_hydrogen", "atom_type": "H0"}}

>  <type>  (3) 
r2h

$$$$

     RDKit          3D

 12 11  0  0  0  0  0  0  0  0999 V2000
   -0.5174   -0.4296    1.1908 N   0  0  0  0  0  2  0  0  0  0  0  0
   -0.1438    0.4949    0.4437 C   0  0  0  0  0  0  0  0  0  0  0  0
   -0.5790    1.7820    0.5370 O   0  0  0  0  0  0  0  0  0  0  0  0
    0.0537    2.4920   -0.4592 N   0  0  0  0  0  0  0  0  0  0  0  0
    0.7894    1.7593   -1.0995 N   0  0  0  0  0  0  0  0  0  0  0  0
    0.7321    0.4735   -0.5990 O   0  0  0  0  0  0  0  0  0  0  0  0
   -0.1097   -2.8290   -0.6518 C   0  0  0  0  0  0  0  0  0  0  0  0
    0.6039   -2.3582    0.4464 O   0  0  0  0  0  0  0  0  0  0  0  0
    0.0221   -2.1931   -1.5347 H   0  0  0  0  0  0  0  0  0  0  0  0
    0.3124   -3.8119   -0.8902 H   0  0  0  0  0  0  0  0  0  0  0  0
   -1.1756   -2.9568   -0.4370 H   0  0  0  0  0  0  0  0  0  0  0  0
    0.0119   -1.5145    0.9869 H   0  0  0  0  0  0  0  0  0  0  0  0
  1  2  2  0
  2  3  1  0
  2  6  1  0
  3  4  1  0
  4  5  2  0
  5  6  1  0
  7  8  1  0
  7  9  1  0
  7 10  1  0
  7 11  1  0
  8 12  1  0
M  RAD  1   1   2
M  END
>  <reaction>  (4) 
rxn_3128

>  <mol_properties>  (4) 
{"0": {"label": "*3", "atom_type": "N3d"}, "1": {"label": "*4", "atom_type": "Cd"}, "6": {"label": "*0", "atom_type": "Cs"}, "7": {"label": "*1", "atom_type": "O2s"}, "11": {"label": "*2", "atom_type": "H0"}}

>  <type>  (4) 
ts

$$$$

     RDKit          3D

 12 11  0  0  0  0  0  0  0  0999 V2000
    1.1654    0.2650   -0.4628 N   0  0  0  0  0  2  0  0  0  0  0  0
    0.1713    0.5286    0.2325 C   0  0  0  0  0  0  0  0  0  0  0  0
    0.2114    1.2505    1.3852 O   0  0  0  0  0  0  0  0  0  0  0  0
   -1.0734    1.3293    1.8620 N   0  0  0  0  0  0  0  0  0  0  0  0
   -1.8415    0.7377    1.1174 N   0  0  0  0  0  0  0  0  0  0  0  0
   -1.1417    0.1981    0.0571 O   0  0  0  0  0  0  0  0  0  0  0  0
    1.1654   -1.9732   -2.6320 C   0  0  0  0  0  0  0  0  0  0  0  0
    1.1654   -1.9732   -1.2216 O   0  0  0  0  0  0  0  0  0  0  0  0
    2.0562   -1.4878   -3.0468 H   0  0  0  0  0  0  0  0  0  0  0  0
    1.1654   -3.0146   -2.9512 H   0  0  0  0  0  0  0  0  0  0  0  0
    0.2746   -1.4878   -3.0468 H   0  0  0  0  0  0  0  0  0  0  0  0
    1.1654   -0.8856   -0.8529 H   0  0  0  0  0  0  0  0  0  0  0  0
  1  2  2  0
  2  3  1  0
  2  6  1  0
  3  4  1  0
  4  5  2  0
  5  6  1  0
  7  8  1  0
  7  9  1  0
  7 10  1  0
  7 11  1  0
  8 12  1  0
M  RAD  1   1   2
M  END
>  <reaction>  (5) 
rxn_3128

>  <mol_properties>  (5) 
{"0": {"label": "*3", "atom_type": "N3d"}, "1": {"label": "*4", "atom_type": "Cd"}, "6": {"label": "*0", "atom_type": "Cs"}, "7": {"label": "*1", "atom_type": "O2s"}, "11": {"label": "*2", "atom_type": "H0"}}

>  <type>  (5) 
unop_1

>  <geom_source>  (5) 
Heuristics

$$$$

     RDKit          3D

 12 11  0  0  0  0  0  0  0  0999 V2000
    0.6894   -0.3430    1.3077 N   0  0  0  0  0  2  0  0  0  0  0  0
    0.1154    0.4240    0.5180 C   0  0  0  0  0  0  0  0  0  0  0  0
   -0.3533    1.6572    0.8511 O   0  0  0  0  0  0  0  0  0  0  0  0
   -0.9193    2.1967   -0.2772 N   0  0  0  0  0  0  0  0  0  0  0  0
   -0.8287    1.4168   -1.2142 N   0  0  0  0  0  0  0  0  0  0  0  0
   -0.1869    0.2659   -0.8040 O   0  0  0  0  0  0  0  0  0  0  0  0
    0.6894   -2.5813   -0.8615 C   0  0  0  0  0  0  0  0  0  0  0  0
    0.6894   -2.5813    0.5489 O   0  0  0  0  0  0  0  0  0  0  0  0
    1.5802   -2.0959   -1.2763 H   0  0  0  0  0  0  0  0  0  0  0  0
    0.6894   -3.6227   -1.1807 H   0  0  0  0  0  0  0  0  0  0  0  0
   -0.2014   -2.0959   -1.2763 H   0  0  0  0  0  0  0  0  0  0  0  0
    0.6894   -1.4936    0.9176 H   0  0  0  0  0  0  0  0  0  0  0  0
  1  2  2  0
  2  3  1  0
  2  6  1  0
  3  4  1  0
  4  5  2  0
  5  6  1  0
  7  8  1  0
  7  9  1  0
  7 10  1  0
  7 11  1  0
  8 12  1  0
M  RAD  1   1   2
M  END
>  <reaction>  (6) 
rxn_3128

>  <mol_properties>  (6) 
{"0": {"label": "*3", "atom_type": "N3d"}, "1": {"label": "*4", "atom_type": "Cd"}, "6": {"label": "*0", "atom_type": "Cs"}, "7": {"label": "*1", "atom_type": "O2s"}, "11": {"label": "*2", "atom_type": "H0"}}

>  <type>  (6) 
unop_2

>  <geom_source>  (6) 
Heuristics

$$$$

     RDKit          3D

 12 11  0  0  0  0  0  0  0  0999 V2000
    0.6620    0.4168   -0.9228 N   0  0  0  0  0  2  0  0  0  0  0  0
    0.0880    0.5455    0.1705 C   0  0  0  0  0  0  0  0  0  0  0  0
    0.4337    1.4622    1.1147 O   0  0  0  0  0  0  0  0  0  0  0  0
   -0.4234    1.2990    2.1745 N   0  0  0  0  0  0  0  0  0  0  0  0
   -1.2168    0.3975    1.9461 N   0  0  0  0  0  0  0  0  0  0  0  0
   -0.9687   -0.1387    0.6988 O   0  0  0  0  0  0  0  0  0  0  0  0
    0.6620   -1.8214   -3.0920 C   0  0  0  0  0  0  0  0  0  0  0  0
    0.6620   -1.8214   -1.6816 O   0  0  0  0  0  0  0  0  0  0  0  0
    1.5528   -1.3361   -3.5068 H   0  0  0  0  0  0  0  0  0  0  0  0
    0.6620   -2.8629   -3.4111 H   0  0  0  0  0  0  0  0  0  0  0  0
   -0.2288   -1.3361   -3.5068 H   0  0  0  0  0  0  0  0  0  0  0  0
    0.6620   -0.7338   -1.3129 H   0  0  0  0  0  0  0  0  0  0  0  0
  1  2  2  0
  2  3  1  0
  2  6  1  0
  3  4  1  0
  4  5  2  0
  5  6  1  0
  7  8  1  0
  7  9  1  0
  7 10  1  0
  7 11  1  0
  8 12  1  0
M  RAD  1   1   2
M  END
>  <reaction>  (7) 
rxn_3128

>  <mol_properties>  (7) 
{"0": {"label": "*3", "atom_type": "N3d"}, "1": {"label": "*4", "atom_type": "Cd"}, "6": {"label": "*0", "atom_type": "Cs"}, "7": {"label": "*1", "atom_type": "O2s"}, "11": {"label": "*2", "atom_type": "H0"}}

>  <type>  (7) 
unop_3

>  <geom_source>  (7) 
Heuristics

$$$$

     RDKit          3D

 12 11  0  0  0  0  0  0  0  0999 V2000
   -1.1874   -0.1763    0.8278 N   0  0  0  0  0  2  0  0  0  0  0  0
   -0.1933    0.4558    0.4361 C   0  0  0  0  0  0  0  0  0  0  0  0
    0.4204    1.4387    1.1494 O   0  0  0  0  0  0  0  0  0  0  0  0
    1.4716    1.8952    0.3938 N   0  0  0  0  0  0  0  0  0  0  0  0
    1.5298    1.2889   -0.6661 N   0  0  0  0  0  0  0  0  0  0  0  0
    0.5139    0.3565   -0.7275 O   0  0  0  0  0  0  0  0  0  0  0  0
   -1.1874   -2.4145   -1.3413 C   0  0  0  0  0  0  0  0  0  0  0  0
   -1.1874   -2.4145    0.0691 O   0  0  0  0  0  0  0  0  0  0  0  0
   -0.2966   -1.9291   -1.7561 H   0  0  0  0  0  0  0  0  0  0  0  0
   -1.1874   -3.4559   -1.6605 H   0  0  0  0  0  0  0  0  0  0  0  0
   -2.0782   -1.9292   -1.7561 H   0  0  0  0  0  0  0  0  0  0  0  0
   -1.1874   -1.3269    0.4378 H   0  0  0  0  0  0  0  0  0  0  0  0
  1  2  2  0
  2  3  1  0
  2  6  1  0
  3  4  1  0
  4  5  2  0
  5  6  1  0
  7  8  1  0
  7  9  1  0
  7 10  1  0
  7 11  1  0
  8 12  1  0
M  RAD  1   1   2
M  END
>  <reaction>  (8) 
rxn_3128

>  <mol_properties>  (8) 
{"0": {"label": "*3", "atom_type": "N3d"}, "1": {"label": "*4", "atom_type": "Cd"}, "6": {"label": "*0", "atom_type": "Cs"}, "7": {"label": "*1", "atom_type": "O2s"}, "11": {"label": "*2", "atom_type": "H0"}}

>  <type>  (8) 
unop_4

>  <geom_source>  (8) 
Heuristics

$$$$

     RDKit          3D

 12 11  0  0  0  0  0  0  0  0999 V2000
    0.0000    0.4662   -1.0853 N   0  0  0  0  0  2  0  0  0  0  0  0
    0.0000    0.5455    0.1536 C   0  0  0  0  0  0  0  0  0  0  0  0
   -0.0000    1.7163    0.8470 O   0  0  0  0  0  0  0  0  0  0  0  0
   -0.0000    1.3992    2.1826 N   0  0  0  0  0  0  0  0  0  0  0  0
   -0.0000    0.1860    2.3327 N   0  0  0  0  0  0  0  0  0  0  0  0
    0.0000   -0.4373    1.1012 O   0  0  0  0  0  0  0  0  0  0  0  0
    0.0000   -1.7720   -3.2545 C   0  0  0  0  0  0  0  0  0  0  0  0
    0.0000   -1.7720   -1.8441 O   0  0  0  0  0  0  0  0  0  0  0  0
    0.8908   -1.2867   -3.6692 H   0  0  0  0  0  0  0  0  0  0  0  0
    0.0000   -2.8135   -3.5736 H   0  0  0  0  0  0  0  0  0  0  0  0
   -0.8908   -1.2867   -3.6692 H   0  0  0  0  0  0  0  0  0  0  0  0
    0.0000   -0.6844   -1.4754 H   0  0  0  0  0  0  0  0  0  0  0  0
  1  2  2  0
  2  3  1  0
  2  6  1  0
  3  4  1  0
  4  5  2  0
  5  6  1  0
  7  8  1  0
  7  9  1  0
  7 10  1  0
  7 11  1  0
  8 12  1  0
M  RAD  1   1   2
M  END
>  <reaction>  (9) 
rxn_3128

>  <mol_properties>  (9) 
{"0": {"label": "*3", "atom_type": "N3d"}, "1": {"label": "*4", "atom_type": "Cd"}, "6": {"label": "*0", "atom_type": "Cs"}, "7": {"label": "*1", "atom_type": "O2s"}, "11": {"label": "*2", "atom_type": "H0"}}

>  <type>  (9) 
unop_5

>  <geom_source>  (9) 
Heuristics

$$$$

     RDKit          3D

 12 11  0  0  0  0  0  0  0  0999 V2000
   -1.3603    0.0471    0.1785 N   0  0  0  0  0  2  0  0  0  0  0  0
   -0.2124    0.4949    0.3303 C   0  0  0  0  0  0  0  0  0  0  0  0
    0.1767    1.2668    1.3812 O   0  0  0  0  0  0  0  0  0  0  0  0
    1.5047    1.5632    1.1996 N   0  0  0  0  0  0  0  0  0  0  0  0
    1.9187    1.0517    0.1695 N   0  0  0  0  0  0  0  0  0  0  0  0
    0.9002    0.3546   -0.4483 O   0  0  0  0  0  0  0  0  0  0  0  0
   -1.3603   -2.1912   -1.9906 C   0  0  0  0  0  0  0  0  0  0  0  0
   -1.3603   -2.1912   -0.5802 O   0  0  0  0  0  0  0  0  0  0  0  0
   -0.4695   -1.7058   -2.4054 H   0  0  0  0  0  0  0  0  0  0  0  0
   -1.3603   -3.2326   -2.3098 H   0  0  0  0  0  0  0  0  0  0  0  0
   -2.2511   -1.7058   -2.4054 H   0  0  0  0  0  0  0  0  0  0  0  0
   -1.3603   -1.1035   -0.2115 H   0  0  0  0  0  0  0  0  0  0  0  0
  1  2  2  0
  2  3  1  0
  2  6  1  0
  3  4  1  0
  4  5  2  0
  5  6  1  0
  7  8  1  0
  7  9  1  0
  7 10  1  0
  7 11  1  0
  8 12  1  0
M  RAD  1   1   2
M  END
>  <reaction>  (10) 
rxn_3128

>  <mol_properties>  (10) 
{"0": {"label": "*3", "atom_type": "N3d"}, "1": {"label": "*4", "atom_type": "Cd"}, "6": {"label": "*0", "atom_type": "Cs"}, "7": {"label": "*1", "atom_type": "O2s"}, "11": {"label": "*2", "atom_type": "H0"}}

>  <type>  (10) 
unop_6

>  <geom_source>  (10) 
Heuristics

$$$$

     RDKit          3D

 12 11  0  0  0  0  0  0  0  0999 V2000
   -1.1654    0.2650   -0.4628 N   0  0  0  0  0  2  0  0  0  0  0  0
   -0.1713    0.5286    0.2325 C   0  0  0  0  0  0  0  0  0  0  0  0
   -0.2114    1.2505    1.3852 O   0  0  0  0  0  0  0  0  0  0  0  0
    1.0734    1.3293    1.8620 N   0  0  0  0  0  0  0  0  0  0  0  0
    1.8415    0.7377    1.1174 N   0  0  0  0  0  0  0  0  0  0  0  0
    1.1417    0.1981    0.0571 O   0  0  0  0  0  0  0  0  0  0  0  0
   -1.1654   -1.9732   -2.6320 C   0  0  0  0  0  0  0  0  0  0  0  0
   -1.1654   -1.9732   -1.2216 O   0  0  0  0  0  0  0  0  0  0  0  0
   -0.2746   -1.4878   -3.0468 H   0  0  0  0  0  0  0  0  0  0  0  0
   -1.1654   -3.0146   -2.9512 H   0  0  0  0  0  0  0  0  0  0  0  0
   -2.0562   -1.4878   -3.0468 H   0  0  0  0  0  0  0  0  0  0  0  0
   -1.1654   -0.8856   -0.8529 H   0  0  0  0  0  0  0  0  0  0  0  0
  1  2  2  0
  2  3  1  0
  2  6  1  0
  3  4  1  0
  4  5  2  0
  5  6  1  0
  7  8  1  0
  7  9  1  0
  7 10  1  0
  7 11  1  0
  8 12  1  0
M  RAD  1   1   2
M  END
>  <reaction>  (11) 
rxn_3128

>  <mol_properties>  (11) 
{"0": {"label": "*3", "atom_type": "N3d"}, "1": {"label": "*4", "atom_type": "Cd"}, "6": {"label": "*0", "atom_type": "Cs"}, "7": {"label": "*1", "atom_type": "O2s"}, "11": {"label": "*2", "atom_type": "H0"}}

>  <type>  (11) 
unop_7

>  <geom_source>  (11) 
Heuristics

$$$$

     RDKit          3D

 12 11  0  0  0  0  0  0  0  0999 V2000
    1.3603    0.0471    0.1785 N   0  0  0  0  0  2  0  0  0  0  0  0
    0.2124    0.4949    0.3303 C   0  0  0  0  0  0  0  0  0  0  0  0
   -0.1767    1.2668    1.3812 O   0  0  0  0  0  0  0  0  0  0  0  0
   -1.5047    1.5632    1.1996 N   0  0  0  0  0  0  0  0  0  0  0  0
   -1.9187    1.0517    0.1695 N   0  0  0  0  0  0  0  0  0  0  0  0
   -0.9002    0.3546   -0.4483 O   0  0  0  0  0  0  0  0  0  0  0  0
    1.3603   -2.1912   -1.9906 C   0  0  0  0  0  0  0  0  0  0  0  0
    1.3603   -2.1912   -0.5802 O   0  0  0  0  0  0  0  0  0  0  0  0
    2.2511   -1.7058   -2.4054 H   0  0  0  0  0  0  0  0  0  0  0  0
    1.3603   -3.2326   -2.3098 H   0  0  0  0  0  0  0  0  0  0  0  0
    0.4695   -1.7058   -2.4054 H   0  0  0  0  0  0  0  0  0  0  0  0
    1.3603   -1.1035   -0.2115 H   0  0  0  0  0  0  0  0  0  0  0  0
  1  2  2  0
  2  3  1  0
  2  6  1  0
  3  4  1  0
  4  5  2  0
  5  6  1  0
  7  8  1  0
  7  9  1  0
  7 10  1  0
  7 11  1  0
  8 12  1  0
M  RAD  1   1   2
M  END
>  <reaction>  (12) 
rxn_3128

>  <mol_properties>  (12) 
{"0": {"label": "*3", "atom_type": "N3d"}, "1": {"label": "*4", "atom_type": "Cd"}, "6": {"label": "*0", "atom_type": "Cs"}, "7": {"label": "*1", "atom_type": "O2s"}, "11": {"label": "*2", "atom_type": "H0"}}

>  <type>  (12) 
unop_8

>  <geom_source>  (12) 
Heuristics

$$$$

     RDKit          3D

 12 11  0  0  0  0  0  0  0  0999 V2000
   -0.6894   -0.3430    1.3077 N   0  0  0  0  0  2  0  0  0  0  0  0
   -0.1154    0.4240    0.5180 C   0  0  0  0  0  0  0  0  0  0  0  0
    0.3533    1.6572    0.8511 O   0  0  0  0  0  0  0  0  0  0  0  0
    0.9193    2.1967   -0.2772 N   0  0  0  0  0  0  0  0  0  0  0  0
    0.8287    1.4168   -1.2142 N   0  0  0  0  0  0  0  0  0  0  0  0
    0.1869    0.2659   -0.8040 O   0  0  0  0  0  0  0  0  0  0  0  0
   -0.6894   -2.5813   -0.8615 C   0  0  0  0  0  0  0  0  0  0  0  0
   -0.6894   -2.5813    0.5489 O   0  0  0  0  0  0  0  0  0  0  0  0
    0.2014   -2.0959   -1.2763 H   0  0  0  0  0  0  0  0  0  0  0  0
   -0.6894   -3.6227   -1.1807 H   0  0  0  0  0  0  0  0  0  0  0  0
   -1.5802   -2.0959   -1.2763 H   0  0  0  0  0  0  0  0  0  0  0  0
   -0.6894   -1.4936    0.9176 H   0  0  0  0  0  0  0  0  0  0  0  0
  1  2  2  0
  2  3  1  0
  2  6  1  0
  3  4  1  0
  4  5  2  0
  5  6  1  0
  7  8  1  0
  7  9  1  0
  7 10  1  0
  7 11  1  0
  8 12  1  0
M  RAD  1   1   2
M  END
>  <reaction>  (13) 
rxn_3128

>  <mol_properties>  (13) 
{"0": {"label": "*3", "atom_type": "N3d"}, "1": {"label": "*4", "atom_type": "Cd"}, "6": {"label": "*0", "atom_type": "Cs"}, "7": {"label": "*1", "atom_type": "O2s"}, "11": {"label": "*2", "atom_type": "H0"}}

>  <type>  (13) 
unop_9

>  <geom_source>  (13) 
Heuristics

$$$$

     RDKit          3D

 12 11  0  0  0  0  0  0  0  0999 V2000
    1.1874   -0.1763    0.8278 N   0  0  0  0  0  2  0  0  0  0  0  0
    0.1933    0.4558    0.4361 C   0  0  0  0  0  0  0  0  0  0  0  0
   -0.4204    1.4387    1.1494 O   0  0  0  0  0  0  0  0  0  0  0  0
   -1.4716    1.8952    0.3938 N   0  0  0  0  0  0  0  0  0  0  0  0
   -1.5298    1.2889   -0.6661 N   0  0  0  0  0  0  0  0  0  0  0  0
   -0.5139    0.3565   -0.7275 O   0  0  0  0  0  0  0  0  0  0  0  0
    1.1874   -2.4145   -1.3413 C   0  0  0  0  0  0  0  0  0  0  0  0
    1.1874   -2.4145    0.0691 O   0  0  0  0  0  0  0  0  0  0  0  0
    2.0782   -1.9291   -1.7561 H   0  0  0  0  0  0  0  0  0  0  0  0
    1.1874   -3.4559   -1.6605 H   0  0  0  0  0  0  0  0  0  0  0  0
    0.2966   -1.9292   -1.7561 H   0  0  0  0  0  0  0  0  0  0  0  0
    1.1874   -1.3269    0.4378 H   0  0  0  0  0  0  0  0  0  0  0  0
  1  2  2  0
  2  3  1  0
  2  6  1  0
  3  4  1  0
  4  5  2  0
  5  6  1  0
  7  8  1  0
  7  9  1  0
  7 10  1  0
  7 11  1  0
  8 12  1  0
M  RAD  1   1   2
M  END
>  <reaction>  (14) 
rxn_3128

>  <mol_properties>  (14) 
{"0": {"label": "*3", "atom_type": "N3d"}, "1": {"label": "*4", "atom_type": "Cd"}, "6": {"label": "*0", "atom_type": "Cs"}, "7": {"label": "*1", "atom_type": "O2s"}, "11": {"label": "*2", "atom_type": "H0"}}

>  <type>  (14) 
unop_10

>  <geom_source>  (14) 
Heuristics

$$$$

     RDKit          3D

 12 11  0  0  0  0  0  0  0  0999 V2000
   -0.6620    0.4168   -0.9228 N   0  0  0  0  0  2  0  0  0  0  0  0
   -0.0880    0.5455    0.1705 C   0  0  0  0  0  0  0  0  0  0  0  0
   -0.4337    1.4622    1.1147 O   0  0  0  0  0  0  0  0  0  0  0  0
    0.4234    1.2990    2.1745 N   0  0  0  0  0  0  0  0  0  0  0  0
    1.2168    0.3975    1.9461 N   0  0  0  0  0  0  0  0  0  0  0  0
    0.9687   -0.1387    0.6988 O   0  0  0  0  0  0  0  0  0  0  0  0
   -0.6620   -1.8214   -3.0920 C   0  0  0  0  0  0  0  0  0  0  0  0
   -0.6620   -1.8214   -1.6816 O   0  0  0  0  0  0  0  0  0  0  0  0
    0.2288   -1.3361   -3.5068 H   0  0  0  0  0  0  0  0  0  0  0  0
   -0.6620   -2.8629   -3.4111 H   0  0  0  0  0  0  0  0  0  0  0  0
   -1.5528   -1.3361   -3.5068 H   0  0  0  0  0  0  0  0  0  0  0  0
   -0.6620   -0.7338   -1.3129 H   0  0  0  0  0  0  0  0  0  0  0  0
  1  2  2  0
  2  3  1  0
  2  6  1  0
  3  4  1  0
  4  5  2  0
  5  6  1  0
  7  8  1  0
  7  9  1  0
  7 10  1  0
  7 11  1  0
  8 12  1  0
M  RAD  1   1   2
M  END
>  <reaction>  (15) 
rxn_3128

>  <mol_properties>  (15) 
{"0": {"label": "*3", "atom_type": "N3d"}, "1": {"label": "*4", "atom_type": "Cd"}, "6": {"label": "*0", "atom_type": "Cs"}, "7": {"label": "*1", "atom_type": "O2s"}, "11": {"label": "*2", "atom_type": "H0"}}

>  <type>  (15) 
unop_11

>  <geom_source>  (15) 
Heuristics

$$$$

     RDKit          3D

 12 11  0  0  0  0  0  0  0  0999 V2000
   -0.0000   -0.4049    1.4844 N   0  0  0  0  0  2  0  0  0  0  0  0
   -0.0000    0.4114    0.5490 C   0  0  0  0  0  0  0  0  0  0  0  0
    0.0000    1.7625    0.7106 O   0  0  0  0  0  0  0  0  0  0  0  0
    0.0000    2.3230   -0.5425 N   0  0  0  0  0  0  0  0  0  0  0  0
    0.0000    1.4512   -1.3994 N   0  0  0  0  0  0  0  0  0  0  0  0
   -0.0000    0.2075   -0.8009 O   0  0  0  0  0  0  0  0  0  0  0  0
   -0.0000   -2.6432   -0.6848 C   0  0  0  0  0  0  0  0  0  0  0  0
   -0.0000   -2.6432    0.7256 O   0  0  0  0  0  0  0  0  0  0  0  0
    0.8908   -2.1578   -1.0995 H   0  0  0  0  0  0  0  0  0  0  0  0
    0.0000   -3.6846   -1.0039 H   0  0  0  0  0  0  0  0  0  0  0  0
   -0.8908   -2.1578   -1.0995 H   0  0  0  0  0  0  0  0  0  0  0  0
   -0.0000   -1.5555    1.0943 H   0  0  0  0  0  0  0  0  0  0  0  0
  1  2  2  0
  2  3  1  0
  2  6  1  0
  3  4  1  0
  4  5  2  0
  5  6  1  0
  7  8  1  0
  7  9  1  0
  7 10  1  0
  7 11  1  0
  8 12  1  0
M  RAD  1   1   2
M  END
>  <reaction>  (16) 
rxn_3128

>  <mol_properties>  (16) 
{"0": {"label": "*3", "atom_type": "N3d"}, "1": {"label": "*4", "atom_type": "Cd"}, "6": {"label": "*0", "atom_type": "Cs"}, "7": {"label": "*1", "atom_type": "O2s"}, "11": {"label": "*2", "atom_type": "H0"}}

>  <type>  (16) 
unop_12

>  <geom_source>  (16) 
Heuristics

$$$$

     RDKit          3D

 12 11  0  0  0  0  0  0  0  0999 V2000
    0.6894   -0.3430    1.3076 N   0  0  0  0  0  2  0  0  0  0  0  0
    0.1154    0.4240    0.5180 C   0  0  0  0  0  0  0  0  0  0  0  0
   -0.3533    1.6572    0.8511 O   0  0  0  0  0  0  0  0  0  0  0  0
   -0.9193    2.1967   -0.2772 N   0  0  0  0  0  0  0  0  0  0  0  0
   -0.8287    1.4168   -1.2142 N   0  0  0  0  0  0  0  0  0  0  0  0
   -0.1869    0.2658   -0.8040 O   0  0  0  0  0  0  0  0  0  0  0  0
    0.6894   -2.5813   -0.8615 C   0  0  0  0  0  0  0  0  0  0  0  0
    0.6894   -2.5813    0.5489 O   0  0  0  0  0  0  0  0  0  0  0  0
    1.5802   -2.0959   -1.2763 H   0  0  0  0  0  0  0  0  0  0  0  0
    0.6894   -3.6227   -1.1806 H   0  0  0  0  0  0  0  0  0  0  0  0
   -0.2014   -2.0959   -1.2763 H   0  0  0  0  0  0  0  0  0  0  0  0
    0.6894   -1.4936    0.9176 H   0  0  0  0  0  0  0  0  0  0  0  0
  1  2  2  0
  2  3  1  0
  2  6  1  0
  3  4  1  0
  4  5  2  0
  5  6  1  0
  7  8  1  0
  7  9  1  0
  7 10  1  0
  7 11  1  0
  8 12  1  0
M  RAD  1   1   2
M  END
>  <reaction>  (17) 
rxn_3128

>  <mol_properties>  (17) 
{"0": {"label": "*3", "atom_type": "N3d"}, "1": {"label": "*4", "atom_type": "Cd"}, "6": {"label": "*0", "atom_type": "Cs"}, "7": {"label": "*1", "atom_type": "O2s"}, "11": {"label": "*2", "atom_type": "H0"}}

>  <type>  (17) 
unop_13

>  <geom_source>  (17) 
gaussian_log

$$$$
