
     RDKit          3D

  8  7  0  0  0  0  0  0  0  0999 V2000
    0.7610    0.0250    0.0051 C   0  0  0  0  0  0  0  0  0  0  0  0
   -0.7610   -0.0250   -0.0051 C   0  0  0  0  0  0  0  0  0  0  0  0
    1.1904   -0.9237   -0.3217 H   0  0  0  0  0  0  0  0  0  0  0  0
    1.1359    0.8041   -0.6609 H   0  0  0  0  0  0  0  0  0  0  0  0
    1.1435    0.2336    1.0058 H   0  0  0  0  0  0  0  0  0  0  0  0
   -1.1435   -0.2336   -1.0058 H   0  0  0  0  0  0  0  0  0  0  0  0
   -1.1904    0.9237    0.3216 H   0  0  0  0  0  0  0  0  0  0  0  0
   -1.1359   -0.8041    0.6609 H   0  0  0  0  0  0  0  0  0  0  0  0
  1  2  1  0
  1  3  1  0
  1  4  1  0
  1  5  1  0
  2  6  1  0
  2  7  1  0
  2  8  1  0
M  END
>  <reaction>  (1) 
rxn_901

>  <mol_properties>  (1) 
{"1": {"label": "donator", "atom_type": "Cs"}, "5": {"label": "d_hydrogen", "atom_type": "H0"}}

>  <type>  (1) 
r1h

$$$$

     RDKit          3D

 10  9  0  0  0  0  0  0  0  0999 V2000
   -1.2648    0.1959    0.8197 C   0  0  0  0  0  0  0  0  0  0  0  0
   -0.2805    0.0995   -0.3030 C   0  0  0  0  0  3  0  0  0  0  0  0
   -0.0444    1.1347   -1.1797 C   0  0  0  0  0  0  0  0  0  0  0  0
    0.1640    2.0467   -1.9525 C   0  0  0  0  0  0  0  0  0  0  0  0
    0.5686   -1.4168   -0.4488 S   0  0  0  0  0  0  0  0  0  0  0  0
   -2.0466   -0.5638    0.7258 H   0  0  0  0  0  0  0  0  0  0  0  0
   -0.7765    0.0454    1.7871 H   0  0  0  0  0  0  0  0  0  0  0  0
   -1.7371    1.1762    0.8222 H   0  0  0  0  0  0  0  0  0  0  0  0
    0.3433    2.8484   -2.6273 H   0  0  0  0  0  0  0  0  0  0  0  0
    1.3075   -1.0953   -1.5176 H   0  0  0  0  0  0  0  0  0  0  0  0
  1  2  1  0
  1  6  1  0
  1  7  1  0
  1  8  1  0
  2  3  1  0
  2  5  1  0
  3  4  3  0
  4  9  1  0
  5 10  1  0
M  RAD  1   2   2
M  END
>  <reaction>  (2) 
rxn_901

>  <mol_properties>  (2) 
{"1": {"label": "acceptor", "atom_type": "Cs"}}

>  <type>  (2) 
r2

$$$$

     RDKit          3D

 11 10  0  0  0  0  0  0  0  0999 V2000
   -1.2582   -0.5130    0.2160 C   0  0  0  0  0  0  0  0  0  0  0  0
   -0.1109    0.0509   -0.6210 C   0  0  0  0  0  0  0  0  0  0  0  0
    1.1862   -0.2025   -0.0072 C   0  0  0  0  0  0  0  0  0  0  0  0
    2.2351   -0.4206    0.5274 C   0  0  0  0  0  0  0  0  0  0  0  0
   -0.3298    1.8272   -1.0120 S   0  0  0  0  0  0  0  0  0  0  0  0
   -1.2875   -0.0327    1.1945 H   0  0  0  0  0  0  0  0  0  0  0  0
   -2.2088   -0.3391   -0.2866 H   0  0  0  0  0  0  0  0  0  0  0  0
   -1.1220   -1.5854    0.3655 H   0  0  0  0  0  0  0  0  0  0  0  0
   -0.1222   -0.4181   -1.6078 H   0  0  0  0  0  0  0  0  0  0  0  0
    3.1729   -0.6098    0.9920 H   0  0  0  0  0  0  0  0  0  0  0  0
   -0.1942    2.2663    0.2466 H   0  0  0  0  0  0  0  0  0  0  0  0
  1  2  1  0
  1  6  1  0
  1  7  1  0
  1  8  1  0
  2  3  1  0
  2  5  1  0
  2  9  1  0
  3  4  3  0
  4 10  1  0
  5 11  1  0
M  END
>  <reaction>  (3) 
rxn_901

>  <mol_properties>  (3) 
{"1": {"label": "acceptor", "atom_type": "Cs"}, "10": {"label": "a_hydrogen", "atom_type": "H0"}}

>  <type>  (3) 
r2h

$$$$

     RDKit          3D

 18 16  0  0  0  0  0  0  0  0999 V2000
   -0.3668   -0.3095    1.8769 C   0  0  0  0  0  0  0  0  0  0  0  0
   -0.2215    0.3076    0.4994 C   0  0  0  0  0  0  0  0  0  0  0  0
    1.1235    0.6172    0.1147 C   0  0  0  0  0  0  0  0  0  0  0  0
    2.2569    0.8352   -0.2185 C   0  0  0  0  0  0  0  0  0  0  0  0
   -1.4165    1.6075    0.1090 S   0  0  0  0  0  0  0  0  0  0  0  0
   -0.1272    0.4166    2.6572 H   0  0  0  0  0  0  0  0  0  0  0  0
   -1.3912   -0.6501    2.0278 H   0  0  0  0  0  0  0  0  0  0  0  0
    0.3115   -1.1582    1.9828 H   0  0  0  0  0  0  0  0  0  0  0  0
    3.2574    1.0437   -0.5119 H   0  0  0  0  0  0  0  0  0  0  0  0
   -0.8817    2.5627    0.8847 H   0  0  0  0  0  0  0  0  0  0  0  0
    0.1604   -2.6801   -0.9647 C   0  0  0  0  0  0  0  0  0  0  0  0
   -0.9533   -1.6943   -1.1520 C   0  0  0  0  0  3  0  0  0  0  0  0
    1.1296   -2.2199   -1.1665 H   0  0  0  0  0  0  0  0  0  0  0  0
    0.1775   -3.0746    0.0528 H   0  0  0  0  0  0  0  0  0  0  0  0
    0.0535   -3.5328   -1.6437 H   0  0  0  0  0  0  0  0  0  0  0  0
   -0.6100   -0.6139   -0.3146 H   0  0  0  0  0  0  0  0  0  0  0  0
   -1.9320   -1.9890   -0.7811 H   0  0  0  0  0  0  0  0  0  0  0  0
   -0.9961   -1.1963   -2.1175 H   0  0  0  0  0  0  0  0  0  0  0  0
  1  2  1  0
  1  6  1  0
  1  7  1  0
  1  8  1  0
  2  3  1  0
  2  5  1  0
  2 16  1  0
  3  4  3  0
  4  9  1  0
  5 10  1  0
 11 12  1  0
 11 13  1  0
 11 14  1  0
 11 15  1  0
 12 17  1  0
 12 18  1  0
M  RAD  1  12   2
M  END
>  <reaction>  (4) 
rxn_901

>  <mol_properties>  (4) 
{"1": {"label": "*1", "atom_type": "Cs"}, "4": {"label": "*0", "atom_type": "S2s"}, "10": {"label": "*4", "atom_type": "Cs"}, "11": {"label": "*3", "atom_type": "Cs"}, "15": {"label": "*2", "atom_type": "H0"}}

>  <type>  (4) 
ts

$$$$

     RDKit          3D

 18 16  0  0  0  0  0  0  0  0999 V2000
   -1.5886    0.5797    1.1501 C   0  0  0  0  0  0  0  0  0  0  0  0
   -0.3388    0.3736    0.2956 C   0  0  0  0  0  3  0  0  0  0  0  0
    0.7145   -0.3159    1.0294 C   0  0  0  0  0  0  0  0  0  0  0  0
    1.5615   -0.8773    1.6628 C   0  0  0  0  0  0  0  0  0  0  0  0
    0.2738    1.9328   -0.4459 S   0  0  0  0  0  0  0  0  0  0  0  0
   -1.3608    1.2065    2.0129 H   0  0  0  0  0  0  0  0  0  0  0  0
   -2.3677    1.0643    0.5630 H   0  0  0  0  0  0  0  0  0  0  0  0
   -1.9577   -0.3809    1.5133 H   0  0  0  0  0  0  0  0  0  0  0  0
    2.3137   -1.3759    2.2253 H   0  0  0  0  0  0  0  0  0  0  0  0
    0.6380    2.5048    0.7097 H   0  0  0  0  0  0  0  0  0  0  0  0
   -0.3388   -2.0689   -2.1778 C   0  0  0  0  0  0  0  0  0  0  0  0
   -0.3388   -2.0689   -0.6550 C   0  0  0  0  0  0  0  0  0  0  0  0
   -1.2196   -1.5603   -2.5736 H   0  0  0  0  0  0  0  0  0  0  0  0
    0.5420   -1.5603   -2.5736 H   0  0  0  0  0  0  0  0  0  0  0  0
   -0.3388   -3.0860   -2.5736 H   0  0  0  0  0  0  0  0  0  0  0  0
   -0.3388   -0.8483   -0.1800 H   0  0  0  0  0  0  0  0  0  0  0  0
    0.5420   -2.5774   -0.2591 H   0  0  0  0  0  0  0  0  0  0  0  0
   -1.2196   -2.5774   -0.2591 H   0  0  0  0  0  0  0  0  0  0  0  0
  1  2  1  0
  1  6  1  0
  1  7  1  0
  1  8  1  0
  2  3  1  0
  2  5  1  0
  3  4  3  0
  4  9  1  0
  5 10  1  0
 11 12  1  0
 11 13  1  0
 11 14  1  0
 11 15  1  0
 12 16  1  0
 12 17  1  0
 12 18  1  0
M  RAD  1   2   2
M  END
>  <reaction>  (5) 
rxn_901

>  <mol_properties>  (5) 
{"1": {"label": "*1", "atom_type": "Cs"}, "4": {"label": "*0", "atom_type": "S2s"}, "10": {"label": "*4", "atom_type": "Cs"}, "11": {"label": "*3", "atom_type": "Cs"}, "15": {"label": "*2", "atom_type": "H0"}}

>  <type>  (5) 
unop_1

>  <geom_source>  (5) 
Heuristics

$$$$

     RDKit          3D

 18 16  0  0  0  0  0  0  0  0999 V2000
   -0.8098    1.3362   -0.9233 C   0  0  0  0  0  0  0  0  0  0  0  0
   -0.0883    0.4151    0.0594 C   0  0  0  0  0  3  0  0  0  0  0  0
   -0.9318    0.0618    1.1938 C   0  0  0  0  0  0  0  0  0  0  0  0
   -1.6483   -0.2031    2.1159 C   0  0  0  0  0  0  0  0  0  0  0  0
    1.5221    1.0934    0.6095 S   0  0  0  0  0  0  0  0  0  0  0  0
   -1.0751    2.2766   -0.4390 H   0  0  0  0  0  0  0  0  0  0  0  0
   -0.1665    1.5520   -1.7754 H   0  0  0  0  0  0  0  0  0  0  0  0
   -1.7274    0.8630   -1.2768 H   0  0  0  0  0  0  0  0  0  0  0  0
   -2.2846   -0.4383    2.9348 H   0  0  0  0  0  0  0  0  0  0  0  0
    1.0134    2.1284    1.2916 H   0  0  0  0  0  0  0  0  0  0  0  0
   -0.0883   -2.0274   -2.4140 C   0  0  0  0  0  0  0  0  0  0  0  0
   -0.0883   -2.0274   -0.8912 C   0  0  0  0  0  0  0  0  0  0  0  0
   -0.9691   -1.5188   -2.8099 H   0  0  0  0  0  0  0  0  0  0  0  0
    0.7926   -1.5188   -2.8099 H   0  0  0  0  0  0  0  0  0  0  0  0
   -0.0883   -3.0445   -2.8099 H   0  0  0  0  0  0  0  0  0  0  0  0
   -0.0883   -0.8068   -0.4162 H   0  0  0  0  0  0  0  0  0  0  0  0
    0.7926   -2.5359   -0.4954 H   0  0  0  0  0  0  0  0  0  0  0  0
   -0.9691   -2.5359   -0.4954 H   0  0  0  0  0  0  0  0  0  0  0  0
  1  2  1  0
  1  6  1  0
  1  7  1  0
  1  8  1  0
  2  3  1  0
  2  5  1  0
  3  4  3  0
  4  9  1  0
  5 10  1  0
 11 12  1  0
 11 13  1  0
 11 14  1  0
 11 15  1  0
 12 16  1  0
 12 17  1  0
 12 18  1  0
M  RAD  1   2   2
M  END
>  <reaction>  (6) 
rxn_901

>  <mol_properties>  (6) 
{"1": {"label": "*1", "atom_type": "Cs"}, "4": {"label": "*0", "atom_type": "S2s"}, "10": {"label": "*4", "atom_type": "Cs"}, "11": {"label": "*3", "atom_type": "Cs"}, "15": {"label": "*2", "atom_type": "H0"}}

>  <type>  (6) 
unop_2

>  <geom_source>  (6) 
Heuristics

$$$$

     RDKit          3D

 18 16  0  0  0  0  0  0  0  0999 V2000
   -0.9771    0.2778    1.8388 C   0  0  0  0  0  0  0  0  0  0  0  0
   -0.2555    0.2632    0.4921 C   0  0  0  0  0  3  0  0  0  0  0  0
    1.1801    0.0667    0.6459 C   0  0  0  0  0  0  0  0  0  0  0  0
    2.3563   -0.0890    0.8077 C   0  0  0  0  0  0  0  0  0  0  0  0
   -0.6225    1.7449   -0.5208 S   0  0  0  0  0  0  0  0  0  0  0  0
   -0.6222    1.1067    2.4520 H   0  0  0  0  0  0  0  0  0  0  0  0
   -2.0500    0.3901    1.6875 H   0  0  0  0  0  0  0  0  0  0  0  0
   -0.7859   -0.6520    2.3772 H   0  0  0  0  0  0  0  0  0  0  0  0
    3.4008   -0.2272    0.9514 H   0  0  0  0  0  0  0  0  0  0  0  0
   -0.0055    2.6215    0.2830 H   0  0  0  0  0  0  0  0  0  0  0  0
   -0.2555   -2.1793   -1.9813 C   0  0  0  0  0  0  0  0  0  0  0  0
   -0.2555   -2.1793   -0.4585 C   0  0  0  0  0  0  0  0  0  0  0  0
   -1.1364   -1.6707   -2.3772 H   0  0  0  0  0  0  0  0  0  0  0  0
    0.6253   -1.6707   -2.3772 H   0  0  0  0  0  0  0  0  0  0  0  0
   -0.2555   -3.1964   -2.3772 H   0  0  0  0  0  0  0  0  0  0  0  0
   -0.2555   -0.9587    0.0165 H   0  0  0  0  0  0  0  0  0  0  0  0
    0.6253   -2.6878   -0.0627 H   0  0  0  0  0  0  0  0  0  0  0  0
   -1.1364   -2.6878   -0.0627 H   0  0  0  0  0  0  0  0  0  0  0  0
  1  2  1  0
  1  6  1  0
  1  7  1  0
  1  8  1  0
  2  3  1  0
  2  5  1  0
  3  4  3  0
  4  9  1  0
  5 10  1  0
 11 12  1  0
 11 13  1  0
 11 14  1  0
 11 15  1  0
 12 16  1  0
 12 17  1  0
 12 18  1  0
M  RAD  1   2   2
M  END
>  <reaction>  (7) 
rxn_901

>  <mol_properties>  (7) 
{"1": {"label": "*1", "atom_type": "Cs"}, "4": {"label": "*0", "atom_type": "S2s"}, "10": {"label": "*4", "atom_type": "Cs"}, "11": {"label": "*3", "atom_type": "Cs"}, "15": {"label": "*2", "atom_type": "H0"}}

>  <type>  (7) 
unop_3

>  <geom_source>  (7) 
Heuristics

$$$$

     RDKit          3D

 18 16  0  0  0  0  0  0  0  0999 V2000
    1.3292    1.2661   -0.4801 C   0  0  0  0  0  0  0  0  0  0  0  0
    0.0794    0.5365    0.0103 C   0  0  0  0  0  3  0  0  0  0  0  0
   -1.0251    1.4546    0.2567 C   0  0  0  0  0  0  0  0  0  0  0  0
   -1.9097    2.2365    0.4564 C   0  0  0  0  0  0  0  0  0  0  0  0
    0.4072   -0.5217    1.4692 S   0  0  0  0  0  0  0  0  0  0  0  0
    1.6820    1.9677    0.2765 H   0  0  0  0  0  0  0  0  0  0  0  0
    2.1230    0.5499   -0.6889 H   0  0  0  0  0  0  0  0  0  0  0  0
    1.1041    1.8275   -1.3884 H   0  0  0  0  0  0  0  0  0  0  0  0
   -2.6953    2.9309    0.6337 H   0  0  0  0  0  0  0  0  0  0  0  0
    0.6729    0.4828    2.3152 H   0  0  0  0  0  0  0  0  0  0  0  0
    0.0794   -1.9060   -2.4631 C   0  0  0  0  0  0  0  0  0  0  0  0
    0.0794   -1.9060   -0.9403 C   0  0  0  0  0  0  0  0  0  0  0  0
   -0.8014   -1.3974   -2.8589 H   0  0  0  0  0  0  0  0  0  0  0  0
    0.9603   -1.3974   -2.8589 H   0  0  0  0  0  0  0  0  0  0  0  0
    0.0794   -2.9231   -2.8589 H   0  0  0  0  0  0  0  0  0  0  0  0
    0.0794   -0.6854   -0.4653 H   0  0  0  0  0  0  0  0  0  0  0  0
    0.9603   -2.4145   -0.5445 H   0  0  0  0  0  0  0  0  0  0  0  0
   -0.8014   -2.4145   -0.5445 H   0  0  0  0  0  0  0  0  0  0  0  0
  1  2  1  0
  1  6  1  0
  1  7  1  0
  1  8  1  0
  2  3  1  0
  2  5  1  0
  3  4  3  0
  4  9  1  0
  5 10  1  0
 11 12  1  0
 11 13  1  0
 11 14  1  0
 11 15  1  0
 12 16  1  0
 12 17  1  0
 12 18  1  0
M  RAD  1   2   2
M  END
>  <reaction>  (8) 
rxn_901

>  <mol_properties>  (8) 
{"1": {"label": "*1", "atom_type": "Cs"}, "4": {"label": "*0", "atom_type": "S2s"}, "10": {"label": "*4", "atom_type": "Cs"}, "11": {"label": "*3", "atom_type": "Cs"}, "15": {"label": "*2", "atom_type": "H0"}}

>  <type>  (8) 
unop_4

>  <geom_source>  (8) 
Heuristics

$$$$

     RDKit          3D

 18 16  0  0  0  0  0  0  0  0999 V2000
    0.0708    0.1548    2.1153 C   0  0  0  0  0  0  0  0  0  0  0  0
    0.0708    0.2104    0.5884 C   0  0  0  0  0  3  0  0  0  0  0  0
    1.2418    0.9050    0.0691 C   0  0  0  0  0  0  0  0  0  0  0  0
    2.2113    1.4873   -0.3243 C   0  0  0  0  0  0  0  0  0  0  0  0
   -1.4787    0.9119   -0.0919 S   0  0  0  0  0  0  0  0  0  0  0  0
    0.0354    1.1614    2.5330 H   0  0  0  0  0  0  0  0  0  0  0  0
   -0.7967   -0.4006    2.4697 H   0  0  0  0  0  0  0  0  0  0  0  0
    0.9795   -0.3320    2.4732 H   0  0  0  0  0  0  0  0  0  0  0  0
    3.0723    2.0044   -0.6736 H   0  0  0  0  0  0  0  0  0  0  0  0
   -1.2906    2.1521    0.3789 H   0  0  0  0  0  0  0  0  0  0  0  0
    0.0708   -2.2321   -1.8850 C   0  0  0  0  0  0  0  0  0  0  0  0
    0.0708   -2.2321   -0.3622 C   0  0  0  0  0  0  0  0  0  0  0  0
   -0.8101   -1.7236   -2.2808 H   0  0  0  0  0  0  0  0  0  0  0  0
    0.9516   -1.7236   -2.2808 H   0  0  0  0  0  0  0  0  0  0  0  0
    0.0708   -3.2493   -2.2808 H   0  0  0  0  0  0  0  0  0  0  0  0
    0.0708   -1.0116    0.1128 H   0  0  0  0  0  0  0  0  0  0  0  0
    0.9516   -2.7407    0.0336 H   0  0  0  0  0  0  0  0  0  0  0  0
   -0.8101   -2.7407    0.0336 H   0  0  0  0  0  0  0  0  0  0  0  0
  1  2  1  0
  1  6  1  0
  1  7  1  0
  1  8  1  0
  2  3  1  0
  2  5  1  0
  3  4  3  0
  4  9  1  0
  5 10  1  0
 11 12  1  0
 11 13  1  0
 11 14  1  0
 11 15  1  0
 12 16  1  0
 12 17  1  0
 12 18  1  0
M  RAD  1   2   2
M  END
>  <reaction>  (9) 
rxn_901

>  <mol_properties>  (9) 
{"1": {"label": "*1", "atom_type": "Cs"}, "4": {"label": "*0", "atom_type": "S2s"}, "10": {"label": "*4", "atom_type": "Cs"}, "11": {"label": "*3", "atom_type": "Cs"}, "15": {"label": "*2", "atom_type": "H0"}}

>  <type>  (9) 
unop_5

>  <geom_source>  (9) 
Heuristics

$$$$

     RDKit          3D

 18 16  0  0  0  0  0  0  0  0999 V2000
    1.6846    1.0191    0.2531 C   0  0  0  0  0  0  0  0  0  0  0  0
    0.2415    0.5513    0.0710 C   0  0  0  0  0  3  0  0  0  0  0  0
   -0.6868    1.6712   -0.0156 C   0  0  0  0  0  0  0  0  0  0  0  0
   -1.4233    2.6134   -0.0757 C   0  0  0  0  0  0  0  0  0  0  0  0
   -0.2778   -0.6496    1.3532 S   0  0  0  0  0  0  0  0  0  0  0  0
    1.7905    1.5728    1.1865 H   0  0  0  0  0  0  0  0  0  0  0  0
    2.3558    0.1616    0.2781 H   0  0  0  0  0  0  0  0  0  0  0  0
    1.9726    1.6767   -0.5689 H   0  0  0  0  0  0  0  0  0  0  0  0
   -2.0774    3.4502   -0.1291 H   0  0  0  0  0  0  0  0  0  0  0  0
   -0.2360    0.2119    2.3785 H   0  0  0  0  0  0  0  0  0  0  0  0
    0.2415   -1.8912   -2.4024 C   0  0  0  0  0  0  0  0  0  0  0  0
    0.2415   -1.8912   -0.8796 C   0  0  0  0  0  0  0  0  0  0  0  0
   -0.6394   -1.3826   -2.7982 H   0  0  0  0  0  0  0  0  0  0  0  0
    1.1223   -1.3826   -2.7982 H   0  0  0  0  0  0  0  0  0  0  0  0
    0.2415   -2.9083   -2.7982 H   0  0  0  0  0  0  0  0  0  0  0  0
    0.2415   -0.6706   -0.4046 H   0  0  0  0  0  0  0  0  0  0  0  0
    1.1223   -2.3997   -0.4837 H   0  0  0  0  0  0  0  0  0  0  0  0
   -0.6394   -2.3997   -0.4837 H   0  0  0  0  0  0  0  0  0  0  0  0
  1  2  1  0
  1  6  1  0
  1  7  1  0
  1  8  1  0
  2  3  1  0
  2  5  1  0
  3  4  3  0
  4  9  1  0
  5 10  1  0
 11 12  1  0
 11 13  1  0
 11 14  1  0
 11 15  1  0
 12 16  1  0
 12 17  1  0
 12 18  1  0
M  RAD  1   2   2
M  END
>  <reaction>  (10) 
rxn_901

>  <mol_properties>  (10) 
{"1": {"label": "*1", "atom_type": "Cs"}, "4": {"label": "*0", "atom_type": "S2s"}, "10": {"label": "*4", "atom_type": "Cs"}, "11": {"label": "*3", "atom_type": "Cs"}, "15": {"label": "*2", "atom_type": "H0"}}

>  <type>  (10) 
unop_6

>  <geom_source>  (10) 
Heuristics

$$$$

     RDKit          3D

 18 16  0  0  0  0  0  0  0  0999 V2000
    1.6184    0.6979    1.0780 C   0  0  0  0  0  0  0  0  0  0  0  0
    0.3686    0.4917    0.2235 C   0  0  0  0  0  3  0  0  0  0  0  0
   -0.1913    1.7563   -0.2357 C   0  0  0  0  0  0  0  0  0  0  0  0
   -0.6298    2.8126   -0.5900 C   0  0  0  0  0  0  0  0  0  0  0  0
   -0.8968   -0.5348    1.0606 S   0  0  0  0  0  0  0  0  0  0  0  0
    1.3757    1.2655    1.9769 H   0  0  0  0  0  0  0  0  0  0  0  0
    2.0321   -0.2652    1.3746 H   0  0  0  0  0  0  0  0  0  0  0  0
    2.3704    1.2537    0.5154 H   0  0  0  0  0  0  0  0  0  0  0  0
   -1.0192    3.7509   -0.9047 H   0  0  0  0  0  0  0  0  0  0  0  0
   -1.1818    0.3511    2.0245 H   0  0  0  0  0  0  0  0  0  0  0  0
    0.3686   -1.9508   -2.2499 C   0  0  0  0  0  0  0  0  0  0  0  0
    0.3686   -1.9508   -0.7271 C   0  0  0  0  0  0  0  0  0  0  0  0
   -0.5122   -1.4422   -2.6457 H   0  0  0  0  0  0  0  0  0  0  0  0
    1.2495   -1.4422   -2.6457 H   0  0  0  0  0  0  0  0  0  0  0  0
    0.3686   -2.9679   -2.6457 H   0  0  0  0  0  0  0  0  0  0  0  0
    0.3686   -0.7302   -0.2521 H   0  0  0  0  0  0  0  0  0  0  0  0
    1.2495   -2.4593   -0.3313 H   0  0  0  0  0  0  0  0  0  0  0  0
   -0.5122   -2.4593   -0.3313 H   0  0  0  0  0  0  0  0  0  0  0  0
  1  2  1  0
  1  6  1  0
  1  7  1  0
  1  8  1  0
  2  3  1  0
  2  5  1  0
  3  4  3  0
  4  9  1  0
  5 10  1  0
 11 12  1  0
 11 13  1  0
 11 14  1  0
 11 15  1  0
 12 16  1  0
 12 17  1  0
 12 18  1  0
M  RAD  1   2   2
M  END
>  <reaction>  (11) 
rxn_901

>  <mol_properties>  (11) 
{"1": {"label": "*1", "atom_type": "Cs"}, "4": {"label": "*0", "atom_type": "S2s"}, "10": {"label": "*4", "atom_type": "Cs"}, "11": {"label": "*3", "atom_type": "Cs"}, "15": {"label": "*2", "atom_type": "H0"}}

>  <type>  (11) 
unop_7

>  <geom_source>  (11) 
Heuristics

$$$$

     RDKit          3D

 18 16  0  0  0  0  0  0  0  0999 V2000
   -1.7138    0.9009    0.3253 C   0  0  0  0  0  0  0  0  0  0  0  0
   -0.2707    0.4331    0.1432 C   0  0  0  0  0  3  0  0  0  0  0  0
    0.1742   -0.4029    1.2507 C   0  0  0  0  0  0  0  0  0  0  0  0
    0.5105   -1.0800    2.1792 C   0  0  0  0  0  0  0  0  0  0  0  0
    0.8882    1.8202   -0.1547 S   0  0  0  0  0  0  0  0  0  0  0  0
   -1.8051    1.5137    1.2226 H   0  0  0  0  0  0  0  0  0  0  0  0
   -2.0269    1.4922   -0.5343 H   0  0  0  0  0  0  0  0  0  0  0  0
   -2.3770    0.0406    0.4299 H   0  0  0  0  0  0  0  0  0  0  0  0
    0.8092   -1.6814    3.0038 H   0  0  0  0  0  0  0  0  0  0  0  0
    0.7688    2.3676    1.0624 H   0  0  0  0  0  0  0  0  0  0  0  0
   -0.2707   -2.0094   -2.3302 C   0  0  0  0  0  0  0  0  0  0  0  0
   -0.2707   -2.0094   -0.8074 C   0  0  0  0  0  0  0  0  0  0  0  0
   -1.1515   -1.5008   -2.7260 H   0  0  0  0  0  0  0  0  0  0  0  0
    0.6102   -1.5008   -2.7260 H   0  0  0  0  0  0  0  0  0  0  0  0
   -0.2707   -3.0265   -2.7260 H   0  0  0  0  0  0  0  0  0  0  0  0
   -0.2707   -0.7889   -0.3324 H   0  0  0  0  0  0  0  0  0  0  0  0
    0.6102   -2.5180   -0.4116 H   0  0  0  0  0  0  0  0  0  0  0  0
   -1.1515   -2.5180   -0.4116 H   0  0  0  0  0  0  0  0  0  0  0  0
  1  2  1  0
  1  6  1  0
  1  7  1  0
  1  8  1  0
  2  3  1  0
  2  5  1  0
  3  4  3  0
  4  9  1  0
  5 10  1  0
 11 12  1  0
 11 13  1  0
 11 14  1  0
 11 15  1  0
 12 16  1  0
 12 17  1  0
 12 18  1  0
M  RAD  1   2   2
M  END
>  <reaction>  (12) 
rxn_901

>  <mol_properties>  (12) 
{"1": {"label": "*1", "atom_type": "Cs"}, "4": {"label": "*0", "atom_type": "S2s"}, "10": {"label": "*4", "atom_type": "Cs"}, "11": {"label": "*3", "atom_type": "Cs"}, "15": {"label": "*2", "atom_type": "H0"}}

>  <type>  (12) 
unop_8

>  <geom_source>  (12) 
Heuristics

$$$$

     RDKit          3D

 18 16  0  0  0  0  0  0  0  0999 V2000
    0.6861    1.3949   -0.9591 C   0  0  0  0  0  0  0  0  0  0  0  0
   -0.0355    0.4738    0.0235 C   0  0  0  0  0  3  0  0  0  0  0  0
   -1.2390    1.0916    0.5651 C   0  0  0  0  0  0  0  0  0  0  0  0
   -2.2173    1.6308    0.9963 C   0  0  0  0  0  0  0  0  0  0  0  0
    1.0629   -0.1329    1.3582 S   0  0  0  0  0  0  0  0  0  0  0  0
    1.0133    2.3059   -0.4569 H   0  0  0  0  0  0  0  0  0  0  0  0
    1.5593    0.8913   -1.3720 H   0  0  0  0  0  0  0  0  0  0  0  0
    0.0151    1.6753   -1.7728 H   0  0  0  0  0  0  0  0  0  0  0  0
   -3.0862    2.1096    1.3793 H   0  0  0  0  0  0  0  0  0  0  0  0
    1.2427    1.0581    1.9451 H   0  0  0  0  0  0  0  0  0  0  0  0
   -0.0355   -1.9687   -2.4499 C   0  0  0  0  0  0  0  0  0  0  0  0
   -0.0355   -1.9687   -0.9271 C   0  0  0  0  0  0  0  0  0  0  0  0
   -0.9163   -1.4601   -2.8457 H   0  0  0  0  0  0  0  0  0  0  0  0
    0.8454   -1.4601   -2.8457 H   0  0  0  0  0  0  0  0  0  0  0  0
   -0.0355   -2.9858   -2.8457 H   0  0  0  0  0  0  0  0  0  0  0  0
   -0.0355   -0.7481   -0.4521 H   0  0  0  0  0  0  0  0  0  0  0  0
    0.8454   -2.4772   -0.5312 H   0  0  0  0  0  0  0  0  0  0  0  0
   -0.9163   -2.4772   -0.5312 H   0  0  0  0  0  0  0  0  0  0  0  0
  1  2  1  0
  1  6  1  0
  1  7  1  0
  1  8  1  0
  2  3  1  0
  2  5  1  0
  3  4  3  0
  4  9  1  0
  5 10  1  0
 11 12  1  0
 11 13  1  0
 11 14  1  0
 11 15  1  0
 12 16  1  0
 12 17  1  0
 12 18  1  0
M  RAD  1   2   2
M  END
>  <reaction>  (13) 
rxn_901

>  <mol_properties>  (13) 
{"1": {"label": "*1", "atom_type": "Cs"}, "4": {"label": "*0", "atom_type": "S2s"}, "10": {"label": "*4", "atom_type": "Cs"}, "11": {"label": "*3", "atom_type": "Cs"}, "15": {"label": "*2", "atom_type": "H0"}}

>  <type>  (13) 
unop_9

>  <geom_source>  (13) 
Heuristics

$$$$

     RDKit          3D

 18 16  0  0  0  0  0  0  0  0999 V2000
   -1.4106    1.1672   -0.4197 C   0  0  0  0  0  0  0  0  0  0  0  0
   -0.1608    0.4377    0.0706 C   0  0  0  0  0  3  0  0  0  0  0  0
   -0.4028   -0.2799    1.3156 C   0  0  0  0  0  0  0  0  0  0  0  0
   -0.6329   -0.8520    2.3420 C   0  0  0  0  0  0  0  0  0  0  0  0
    1.2931    1.5436    0.2083 S   0  0  0  0  0  0  0  0  0  0  0  0
   -1.7227    1.9183    0.3066 H   0  0  0  0  0  0  0  0  0  0  0  0
   -1.2069    1.6626   -1.3682 H   0  0  0  0  0  0  0  0  0  0  0  0
   -2.2304    0.4593   -0.5532 H   0  0  0  0  0  0  0  0  0  0  0  0
   -0.8374   -1.3602    3.2535 H   0  0  0  0  0  0  0  0  0  0  0  0
    0.8111    2.2854    1.2146 H   0  0  0  0  0  0  0  0  0  0  0  0
   -0.1608   -2.0048   -2.4027 C   0  0  0  0  0  0  0  0  0  0  0  0
   -0.1608   -2.0048   -0.8800 C   0  0  0  0  0  0  0  0  0  0  0  0
   -1.0416   -1.4963   -2.7986 H   0  0  0  0  0  0  0  0  0  0  0  0
    0.7201   -1.4963   -2.7986 H   0  0  0  0  0  0  0  0  0  0  0  0
   -0.1608   -3.0219   -2.7986 H   0  0  0  0  0  0  0  0  0  0  0  0
   -0.1608   -0.7843   -0.4049 H   0  0  0  0  0  0  0  0  0  0  0  0
    0.7201   -2.5134   -0.4841 H   0  0  0  0  0  0  0  0  0  0  0  0
   -1.0416   -2.5134   -0.4841 H   0  0  0  0  0  0  0  0  0  0  0  0
  1  2  1  0
  1  6  1  0
  1  7  1  0
  1  8  1  0
  2  3  1  0
  2  5  1  0
  3  4  3  0
  4  9  1  0
  5 10  1  0
 11 12  1  0
 11 13  1  0
 11 14  1  0
 11 15  1  0
 12 16  1  0
 12 17  1  0
 12 18  1  0
M  RAD  1   2   2
M  END
>  <reaction>  (14) 
rxn_901

>  <mol_properties>  (14) 
{"1": {"label": "*1", "atom_type": "Cs"}, "4": {"label": "*0", "atom_type": "S2s"}, "10": {"label": "*4", "atom_type": "Cs"}, "11": {"label": "*3", "atom_type": "Cs"}, "15": {"label": "*2", "atom_type": "H0"}}

>  <type>  (14) 
unop_10

>  <geom_source>  (14) 
Heuristics

$$$$

     RDKit          3D

 18 16  0  0  0  0  0  0  0  0999 V2000
    1.0749    0.3651    1.7855 C   0  0  0  0  0  0  0  0  0  0  0  0
    0.3533    0.3506    0.4387 C   0  0  0  0  0  3  0  0  0  0  0  0
    0.5355    1.5994   -0.2898 C   0  0  0  0  0  0  0  0  0  0  0  0
    0.6988    2.6403   -0.8585 C   0  0  0  0  0  0  0  0  0  0  0  0
   -1.4205   -0.0803    0.5935 S   0  0  0  0  0  0  0  0  0  0  0  0
    0.6711    1.1504    2.4253 H   0  0  0  0  0  0  0  0  0  0  0  0
    0.9493   -0.5932    2.2878 H   0  0  0  0  0  0  0  0  0  0  0  0
    2.1392    0.5570    1.6391 H   0  0  0  0  0  0  0  0  0  0  0  0
    0.8438    3.5649   -1.3637 H   0  0  0  0  0  0  0  0  0  0  0  0
   -1.7776    1.0285    1.2555 H   0  0  0  0  0  0  0  0  0  0  0  0
    0.3533   -2.0919   -2.0347 C   0  0  0  0  0  0  0  0  0  0  0  0
    0.3533   -2.0919   -0.5119 C   0  0  0  0  0  0  0  0  0  0  0  0
   -0.5275   -1.5834   -2.4305 H   0  0  0  0  0  0  0  0  0  0  0  0
    1.2342   -1.5834   -2.4305 H   0  0  0  0  0  0  0  0  0  0  0  0
    0.3533   -3.1090   -2.4305 H   0  0  0  0  0  0  0  0  0  0  0  0
    0.3533   -0.8714   -0.0368 H   0  0  0  0  0  0  0  0  0  0  0  0
    1.2342   -2.6005   -0.1160 H   0  0  0  0  0  0  0  0  0  0  0  0
   -0.5275   -2.6005   -0.1160 H   0  0  0  0  0  0  0  0  0  0  0  0
  1  2  1  0
  1  6  1  0
  1  7  1  0
  1  8  1  0
  2  3  1  0
  2  5  1  0
  3  4  3  0
  4  9  1  0
  5 10  1  0
 11 12  1  0
 11 13  1  0
 11 14  1  0
 11 15  1  0
 12 16  1  0
 12 17  1  0
 12 18  1  0
M  RAD  1   2   2
M  END
>  <reaction>  (15) 
rxn_901

>  <mol_properties>  (15) 
{"1": {"label": "*1", "atom_type": "Cs"}, "4": {"label": "*0", "atom_type": "S2s"}, "10": {"label": "*4", "atom_type": "Cs"}, "11": {"label": "*3", "atom_type": "Cs"}, "15": {"label": "*2", "atom_type": "H0"}}

>  <type>  (15) 
unop_11

>  <geom_source>  (15) 
Heuristics

$$$$

     RDKit          3D

 18 16  0  0  0  0  0  0  0  0999 V2000
   -0.0708    1.4096   -1.1088 C   0  0  0  0  0  0  0  0  0  0  0  0
   -0.0708    0.4184    0.0540 C   0  0  0  0  0  3  0  0  0  0  0  0
   -1.2418    0.5792    0.9062 C   0  0  0  0  0  0  0  0  0  0  0  0
   -2.2113    0.7424    1.5897 C   0  0  0  0  0  0  0  0  0  0  0  0
    1.4787    0.4754    1.0295 S   0  0  0  0  0  0  0  0  0  0  0  0
   -0.0354    2.4337   -0.7361 H   0  0  0  0  0  0  0  0  0  0  0  0
    0.7967    1.2398   -1.7454 H   0  0  0  0  0  0  0  0  0  0  0  0
   -0.9795    1.2928   -1.7017 H   0  0  0  0  0  0  0  0  0  0  0  0
   -3.0723    0.8873    2.1967 H   0  0  0  0  0  0  0  0  0  0  0  0
    1.2906    1.7076    1.5209 H   0  0  0  0  0  0  0  0  0  0  0  0
   -0.0708   -2.0242   -2.4194 C   0  0  0  0  0  0  0  0  0  0  0  0
   -0.0708   -2.0242   -0.8966 C   0  0  0  0  0  0  0  0  0  0  0  0
   -0.9516   -1.5156   -2.8153 H   0  0  0  0  0  0  0  0  0  0  0  0
    0.8101   -1.5156   -2.8153 H   0  0  0  0  0  0  0  0  0  0  0  0
   -0.0708   -3.0413   -2.8153 H   0  0  0  0  0  0  0  0  0  0  0  0
   -0.0708   -0.8036   -0.4216 H   0  0  0  0  0  0  0  0  0  0  0  0
    0.8101   -2.5327   -0.5008 H   0  0  0  0  0  0  0  0  0  0  0  0
   -0.9516   -2.5327   -0.5008 H   0  0  0  0  0  0  0  0  0  0  0  0
  1  2  1  0
  1  6  1  0
  1  7  1  0
  1  8  1  0
  2  3  1  0
  2  5  1  0
  3  4  3  0
  4  9  1  0
  5 10  1  0
 11 12  1  0
 11 13  1  0
 11 14  1  0
 11 15  1  0
 12 16  1  0
 12 17  1  0
 12 18  1  0
M  RAD  1   2   2
M  END
>  <reaction>  (16) 
rxn_901

>  <mol_properties>  (16) 
{"1": {"label": "*1", "atom_type": "Cs"}, "4": {"label": "*0", "atom_type": "S2s"}, "10": {"label": "*4", "atom_type": "Cs"}, "11": {"label": "*3", "atom_type": "Cs"}, "15": {"label": "*2", "atom_type": "H0"}}

>  <type>  (16) 
unop_12

>  <geom_source>  (16) 
Heuristics

$$$$

     RDKit          3D

 18 16  0  0  0  0  0  0  0  0999 V2000
   -1.2035    0.4304    1.9298 S   0  0  0  0  0  0  0  0  0  0  0  0
   -0.9860    0.3571    0.1246 C   0  0  0  0  0  3  0  0  0  0  0  0
   -1.4767    1.6521   -0.5129 C   0  0  0  0  0  0  0  0  0  0  0  0
    2.4161   -0.9680    0.0680 C   0  0  0  0  0  0  0  0  0  0  0  0
    1.5992    0.3034    0.2054 C   0  0  0  0  0  0  0  0  0  0  0  0
   -1.7293   -0.7897   -0.4118 C   0  0  0  0  0  0  0  0  0  0  0  0
   -2.3385   -1.7321   -0.8528 C   0  0  0  0  0  0  0  0  0  0  0  0
    0.3578    0.1956   -0.1608 H   0  0  0  0  0  0  0  0  0  0  0  0
   -0.8973    2.5100   -0.1112 H   0  0  0  0  0  0  0  0  0  0  0  0
   -2.5553    1.8130   -0.2973 H   0  0  0  0  0  0  0  0  0  0  0  0
   -1.3271    1.6159   -1.6131 H   0  0  0  0  0  0  0  0  0  0  0  0
    3.4960   -0.7388    0.1873 H   0  0  0  0  0  0  0  0  0  0  0  0
    2.2439   -1.4145   -0.9334 H   0  0  0  0  0  0  0  0  0  0  0  0
    2.1067   -1.6950    0.8476 H   0  0  0  0  0  0  0  0  0  0  0  0
    1.8969    1.0329   -0.5770 H   0  0  0  0  0  0  0  0  0  0  0  0
    1.7594    0.7517    1.2085 H   0  0  0  0  0  0  0  0  0  0  0  0
   -0.4889   -0.7650    2.1390 H   0  0  0  0  0  0  0  0  0  0  0  0
   -2.8733   -2.5592   -1.2398 H   0  0  0  0  0  0  0  0  0  0  0  0
  1  2  1  0
  1 17  1  0
  2  3  1  0
  2  6  1  0
  3  9  1  0
  3 10  1  0
  3 11  1  0
  4  5  1  0
  4 12  1  0
  4 13  1  0
  4 14  1  0
  5  8  1  0
  5 15  1  0
  5 16  1  0
  6  7  3  0
  7 18  1  0
M  RAD  1   2   2
M  END
>  <reaction>  (17) 
rxn_901

>  <mol_properties>  (17) 
{"1": {"label": "*1", "atom_type": "Cs"}, "4": {"label": "*0", "atom_type": "S2s"}, "10": {"label": "*4", "atom_type": "Cs"}, "11": {"label": "*3", "atom_type": "Cs"}, "15": {"label": "*2", "atom_type": "H0"}}

>  <type>  (17) 
unop_13

>  <geom_source>  (17) 
AutoTST

$$$$
