
     RDKit          3D

  7  6  0  0  0  0  0  0  0  0999 V2000
    1.6964   -0.0938    0.0583 C   0  0  0  0  0  0  0  0  0  0  0  0
    0.5019   -0.0278    0.0173 C   0  0  0  0  0  0  0  0  0  0  0  0
   -0.9505    0.0525   -0.0327 C   0  0  0  0  0  0  0  0  0  0  0  0
    2.7574   -0.1524    0.0947 H   0  0  0  0  0  0  0  0  0  0  0  0
   -1.2692    0.9972   -0.4754 H   0  0  0  0  0  0  0  0  0  0  0  0
   -1.3749   -0.0147    0.9700 H   0  0  0  0  0  0  0  0  0  0  0  0
   -1.3610   -0.7611   -0.6323 H   0  0  0  0  0  0  0  0  0  0  0  0
  1  2  3  0
  1  4  1  0
  2  3  1  0
  3  5  1  0
  3  6  1  0
  3  7  1  0
M  END
>  <reaction>  (1) 
rxn_1233

>  <mol_properties>  (1) 
{"2": {"label": "donator", "atom_type": "Cs"}, "4": {"label": "d_hydrogen", "atom_type": "H0"}}

>  <type>  (1) 
r1h

$$$$

     RDKit          3D

 11 11  0  0  0  0  0  0  0  0999 V2000
    0.1524   -1.5397    0.0698 C   0  0  0  0  0  3  0  0  0  0  0  0
   -1.1218   -1.0406    0.0516 C   0  0  0  0  0  0  0  0  0  0  0  0
   -1.2464    0.3470   -0.0114 C   0  0  0  0  0  0  0  0  0  0  0  0
   -0.1137    1.1487   -0.0521 C   0  0  0  0  0  0  0  0  0  0  0  0
    1.1542    0.5837   -0.0308 C   0  0  0  0  0  0  0  0  0  0  0  0
    1.3041   -0.8014    0.0319 C   0  0  0  0  0  0  0  0  0  0  0  0
   -1.9955   -1.6793    0.0840 H   0  0  0  0  0  0  0  0  0  0  0  0
   -2.2319    0.7966   -0.0284 H   0  0  0  0  0  0  0  0  0  0  0  0
   -0.2203    2.2248   -0.1009 H   0  0  0  0  0  0  0  0  0  0  0  0
    2.0325    1.2173   -0.0630 H   0  0  0  0  0  0  0  0  0  0  0  0
    2.2862   -1.2570    0.0492 H   0  0  0  0  0  0  0  0  0  0  0  0
  1  2  2  0
  1  6  1  0
  2  3  1  0
  2  7  1  0
  3  4  2  0
  3  8  1  0
  4  5  1  0
  4  9  1  0
  5  6  2  0
  5 10  1  0
  6 11  1  0
M  RAD  1   1   2
M  END
>  <reaction>  (2) 
rxn_1233

>  <mol_properties>  (2) 
{"0": {"label": "acceptor", "atom_type": "Cd"}}

>  <type>  (2) 
r2

$$$$

     RDKit          3D

 12 12  0  0  0  0  0  0  0  0999 V2000
   -1.2385    0.6248   -0.0199 C   0  0  0  0  0  0  0  0  0  0  0  0
   -0.0779    1.3848   -0.0298 C   0  0  0  0  0  0  0  0  0  0  0  0
    1.1605    0.7600   -0.0100 C   0  0  0  0  0  0  0  0  0  0  0  0
    1.2385   -0.6248    0.0199 C   0  0  0  0  0  0  0  0  0  0  0  0
    0.0779   -1.3848    0.0298 C   0  0  0  0  0  0  0  0  0  0  0  0
   -1.1606   -0.7600    0.0100 C   0  0  0  0  0  0  0  0  0  0  0  0
   -2.2052    1.1125   -0.0354 H   0  0  0  0  0  0  0  0  0  0  0  0
   -0.1387    2.4657   -0.0531 H   0  0  0  0  0  0  0  0  0  0  0  0
    2.0664    1.3532   -0.0177 H   0  0  0  0  0  0  0  0  0  0  0  0
    2.2052   -1.1125    0.0354 H   0  0  0  0  0  0  0  0  0  0  0  0
    0.1387   -2.4657    0.0531 H   0  0  0  0  0  0  0  0  0  0  0  0
   -2.0664   -1.3532    0.0177 H   0  0  0  0  0  0  0  0  0  0  0  0
  1  2  2  0
  1  6  1  0
  1  7  1  0
  2  3  1  0
  2  8  1  0
  3  4  2  0
  3  9  1  0
  4  5  1  0
  4 10  1  0
  5  6  2  0
  5 11  1  0
  6 12  1  0
M  END
>  <reaction>  (3) 
rxn_1233

>  <mol_properties>  (3) 
{"0": {"label": "a_hydrogen", "atom_type": "H0"}, "1": {"label": "acceptor", "atom_type": "Cd"}}

>  <type>  (3) 
r2h

$$$$

     RDKit          3D

 18 17  0  0  0  0  0  0  0  0999 V2000
   -0.2094   -2.1913   -3.1121 C   0  0  0  0  0  0  0  0  0  0  0  0
   -0.2216   -2.3848   -1.9271 C   0  0  0  0  0  0  0  0  0  0  0  0
   -0.2307   -2.5569   -0.5048 C   0  0  0  0  0  0  0  0  0  0  0  0
   -0.2005   -2.0399   -4.1645 H   0  0  0  0  0  0  0  0  0  0  0  0
   -0.1280   -1.4320    0.0183 H   0  0  0  0  0  0  0  0  0  0  0  0
    0.6243   -3.1174   -0.1306 H   0  0  0  0  0  0  0  0  0  0  0  0
   -1.1682   -2.9574   -0.1228 H   0  0  0  0  0  0  0  0  0  0  0  0
   -0.0043   -0.0700    0.5208 C   0  0  0  0  0  3  0  0  0  0  0  0
    0.0784    0.9047   -0.4446 C   0  0  0  0  0  0  0  0  0  0  0  0
    0.1981    2.2260   -0.0249 C   0  0  0  0  0  0  0  0  0  0  0  0
    0.2307    2.5242    1.3305 C   0  0  0  0  0  0  0  0  0  0  0  0
    0.1446    1.5124    2.2769 C   0  0  0  0  0  0  0  0  0  0  0  0
    0.0245    0.1865    1.8714 C   0  0  0  0  0  0  0  0  0  0  0  0
    0.0510    0.6495   -1.4975 H   0  0  0  0  0  0  0  0  0  0  0  0
    0.2659    3.0211   -0.7575 H   0  0  0  0  0  0  0  0  0  0  0  0
    0.3240    3.5538    1.6522 H   0  0  0  0  0  0  0  0  0  0  0  0
    0.1707    1.7532    3.3328 H   0  0  0  0  0  0  0  0  0  0  0  0
   -0.0435   -0.6110    2.6014 H   0  0  0  0  0  0  0  0  0  0  0  0
  1  2  3  0
  1  4  1  0
  2  3  1  0
  3  5  1  0
  3  6  1  0
  3  7  1  0
  8  9  2  0
  8 13  1  0
  9 10  1  0
  9 14  1  0
 10 11  2  0
 10 15  1  0
 11 12  1  0
 11 16  1  0
 12 13  2  0
 12 17  1  0
 13 18  1  0
M  RAD  1   8   2
M  END
>  <reaction>  (4) 
rxn_1233

>  <mol_properties>  (4) 
{"1": {"label": "*0", "atom_type": "Ct"}, "2": {"label": "*1", "atom_type": "Cs"}, "4": {"label": "*2", "atom_type": "H0"}, "7": {"label": "*3", "atom_type": "Cd"}, "8": {"label": "*4", "atom_type": "Cd"}}

>  <type>  (4) 
ts

$$$$

     RDKit          3D

 18 17  0  0  0  0  0  0  0  0999 V2000
   -0.3733   -2.0719   -3.5905 C   0  0  0  0  0  0  0  0  0  0  0  0
   -0.3733   -2.0719   -2.3935 C   0  0  0  0  0  0  0  0  0  0  0  0
   -0.3733   -2.0719   -0.9381 C   0  0  0  0  0  3  0  0  0  0  0  0
   -0.3733   -2.0719   -4.6538 H   0  0  0  0  0  0  0  0  0  0  0  0
   -0.2619   -0.8524   -0.4756 H   0  0  0  0  0  0  0  0  0  0  0  0
    0.4604   -2.6605   -0.5527 H   0  0  0  0  0  0  0  0  0  0  0  0
   -1.2999   -2.4996   -0.5527 H   0  0  0  0  0  0  0  0  0  0  0  0
   -0.1512    0.3582   -0.0166 C   0  0  0  0  0  0  0  0  0  0  0  0
   -1.1477    0.8878    0.7904 C   0  0  0  0  0  0  0  0  0  0  0  0
   -0.8105    1.5873    1.9400 C   0  0  0  0  0  0  0  0  0  0  0  0
    0.5230    1.7571    2.2827 C   0  0  0  0  0  0  0  0  0  0  0  0
    1.5194    1.2275    1.4756 C   0  0  0  0  0  0  0  0  0  0  0  0
    1.1823    0.5281    0.3260 C   0  0  0  0  0  0  0  0  0  0  0  0
   -2.1886    0.7552    0.5230 H   0  0  0  0  0  0  0  0  0  0  0  0
   -1.5882    2.0006    2.5700 H   0  0  0  0  0  0  0  0  0  0  0  0
    0.7862    2.3031    3.1800 H   0  0  0  0  0  0  0  0  0  0  0  0
    2.5603    1.3601    1.7430 H   0  0  0  0  0  0  0  0  0  0  0  0
    1.9601    0.1147   -0.3040 H   0  0  0  0  0  0  0  0  0  0  0  0
  1  2  3  0
  1  4  1  0
  2  3  1  0
  3  6  1  0
  3  7  1  0
  5  8  1  0
  8  9  2  0
  8 13  1  0
  9 10  1  0
  9 14  1  0
 10 11  2  0
 10 15  1  0
 11 12  1  0
 11 16  1  0
 12 13  2  0
 12 17  1  0
 13 18  1  0
M  RAD  1   3   2
M  END
>  <reaction>  (5) 
rxn_1233

>  <mol_properties>  (5) 
{"1": {"label": "*0", "atom_type": "Ct"}, "2": {"label": "*1", "atom_type": "Cs"}, "4": {"label": "*2", "atom_type": "H0"}, "7": {"label": "*3", "atom_type": "Cd"}, "8": {"label": "*4", "atom_type": "Cd"}}

>  <type>  (5) 
unop_1

>  <geom_source>  (5) 
Heuristics

$$$$

     RDKit          3D

 18 17  0  0  0  0  0  0  0  0999 V2000
    0.0032   -2.4228   -3.2345 C   0  0  0  0  0  0  0  0  0  0  0  0
    0.0032   -2.4228   -2.0375 C   0  0  0  0  0  0  0  0  0  0  0  0
    0.0032   -2.4228   -0.5820 C   0  0  0  0  0  3  0  0  0  0  0  0
    0.0032   -2.4228   -4.2978 H   0  0  0  0  0  0  0  0  0  0  0  0
    0.1147   -1.2033   -0.1196 H   0  0  0  0  0  0  0  0  0  0  0  0
    0.8369   -3.0114   -0.1967 H   0  0  0  0  0  0  0  0  0  0  0  0
   -0.9234   -2.8505   -0.1967 H   0  0  0  0  0  0  0  0  0  0  0  0
    0.2253    0.0073    0.3394 C   0  0  0  0  0  0  0  0  0  0  0  0
   -0.2804    1.0743   -0.3890 C   0  0  0  0  0  0  0  0  0  0  0  0
   -0.5025    2.2948    0.2320 C   0  0  0  0  0  0  0  0  0  0  0  0
   -0.2188    2.4484    1.5812 C   0  0  0  0  0  0  0  0  0  0  0  0
    0.2869    1.3815    2.3096 C   0  0  0  0  0  0  0  0  0  0  0  0
    0.5090    0.1609    1.6887 C   0  0  0  0  0  0  0  0  0  0  0  0
   -0.5018    0.9544   -1.4421 H   0  0  0  0  0  0  0  0  0  0  0  0
   -0.8972    3.1276   -0.3365 H   0  0  0  0  0  0  0  0  0  0  0  0
   -0.3922    3.4011    2.0659 H   0  0  0  0  0  0  0  0  0  0  0  0
    0.5083    1.5014    3.3628 H   0  0  0  0  0  0  0  0  0  0  0  0
    0.9037   -0.6719    2.2572 H   0  0  0  0  0  0  0  0  0  0  0  0
  1  2  3  0
  1  4  1  0
  2  3  1  0
  3  6  1  0
  3  7  1  0
  5  8  1  0
  8  9  2  0
  8 13  1  0
  9 10  1  0
  9 14  1  0
 10 11  2  0
 10 15  1  0
 11 12  1  0
 11 16  1  0
 12 13  2  0
 12 17  1  0
 13 18  1  0
M  RAD  1   3   2
M  END
>  <reaction>  (6) 
rxn_1233

>  <mol_properties>  (6) 
{"1": {"label": "*0", "atom_type": "Ct"}, "2": {"label": "*1", "atom_type": "Cs"}, "4": {"label": "*2", "atom_type": "H0"}, "7": {"label": "*3", "atom_type": "Cd"}, "8": {"label": "*4", "atom_type": "Cd"}}

>  <type>  (6) 
unop_2

>  <geom_source>  (6) 
Heuristics

$$$$

     RDKit          3D

 18 17  0  0  0  0  0  0  0  0999 V2000
   -0.5752   -2.2072   -3.3831 C   0  0  0  0  0  0  0  0  0  0  0  0
   -0.5752   -2.2072   -2.1861 C   0  0  0  0  0  0  0  0  0  0  0  0
   -0.5752   -2.2072   -0.7307 C   0  0  0  0  0  3  0  0  0  0  0  0
   -0.5752   -2.2072   -4.4464 H   0  0  0  0  0  0  0  0  0  0  0  0
   -0.4637   -0.9876   -0.2683 H   0  0  0  0  0  0  0  0  0  0  0  0
    0.2585   -2.7958   -0.3453 H   0  0  0  0  0  0  0  0  0  0  0  0
   -1.5018   -2.6349   -0.3453 H   0  0  0  0  0  0  0  0  0  0  0  0
   -0.3531    0.2230    0.1908 C   0  0  0  0  0  0  0  0  0  0  0  0
   -0.9257    0.5578    1.4092 C   0  0  0  0  0  0  0  0  0  0  0  0
   -0.2888    1.4581    2.2508 C   0  0  0  0  0  0  0  0  0  0  0  0
    0.9207    2.0236    1.8741 C   0  0  0  0  0  0  0  0  0  0  0  0
    1.4933    1.6887    0.6556 C   0  0  0  0  0  0  0  0  0  0  0  0
    0.8564    0.7884   -0.1860 C   0  0  0  0  0  0  0  0  0  0  0  0
   -1.8698    0.1165    1.7033 H   0  0  0  0  0  0  0  0  0  0  0  0
   -0.7357    1.7195    3.2019 H   0  0  0  0  0  0  0  0  0  0  0  0
    1.4178    2.7264    2.5310 H   0  0  0  0  0  0  0  0  0  0  0  0
    2.4374    2.1301    0.3615 H   0  0  0  0  0  0  0  0  0  0  0  0
    1.3034    0.5270   -1.1371 H   0  0  0  0  0  0  0  0  0  0  0  0
  1  2  3  0
  1  4  1  0
  2  3  1  0
  3  6  1  0
  3  7  1  0
  5  8  1  0
  8  9  2  0
  8 13  1  0
  9 10  1  0
  9 14  1  0
 10 11  2  0
 10 15  1  0
 11 12  1  0
 11 16  1  0
 12 13  2  0
 12 17  1  0
 13 18  1  0
M  RAD  1   3   2
M  END
>  <reaction>  (7) 
rxn_1233

>  <mol_properties>  (7) 
{"1": {"label": "*0", "atom_type": "Ct"}, "2": {"label": "*1", "atom_type": "Cs"}, "4": {"label": "*2", "atom_type": "H0"}, "7": {"label": "*3", "atom_type": "Cd"}, "8": {"label": "*4", "atom_type": "Cd"}}

>  <type>  (7) 
unop_3

>  <geom_source>  (7) 
Heuristics

$$$$

     RDKit          3D

 18 17  0  0  0  0  0  0  0  0999 V2000
   -0.4740   -2.2260   -3.4285 C   0  0  0  0  0  0  0  0  0  0  0  0
   -0.4740   -2.2260   -2.2315 C   0  0  0  0  0  0  0  0  0  0  0  0
   -0.4740   -2.2260   -0.7760 C   0  0  0  0  0  3  0  0  0  0  0  0
   -0.4740   -2.2260   -4.4918 H   0  0  0  0  0  0  0  0  0  0  0  0
   -0.3625   -1.0064   -0.3136 H   0  0  0  0  0  0  0  0  0  0  0  0
    0.3597   -2.8145   -0.3907 H   0  0  0  0  0  0  0  0  0  0  0  0
   -1.4006   -2.6537   -0.3907 H   0  0  0  0  0  0  0  0  0  0  0  0
   -0.2519    0.2042    0.1454 C   0  0  0  0  0  0  0  0  0  0  0  0
    0.8627    0.9670   -0.1715 C   0  0  0  0  0  0  0  0  0  0  0  0
    1.3492    1.8952    0.7375 C   0  0  0  0  0  0  0  0  0  0  0  0
    0.7213    2.0606    1.9634 C   0  0  0  0  0  0  0  0  0  0  0  0
   -0.3932    1.2977    2.2803 C   0  0  0  0  0  0  0  0  0  0  0  0
   -0.8798    0.3695    1.3714 C   0  0  0  0  0  0  0  0  0  0  0  0
    1.3528    0.8380   -1.1285 H   0  0  0  0  0  0  0  0  0  0  0  0
    2.2192    2.4907    0.4901 H   0  0  0  0  0  0  0  0  0  0  0  0
    1.1011    2.7851    2.6729 H   0  0  0  0  0  0  0  0  0  0  0  0
   -0.8834    1.4268    3.2373 H   0  0  0  0  0  0  0  0  0  0  0  0
   -1.7498   -0.2259    1.6187 H   0  0  0  0  0  0  0  0  0  0  0  0
  1  2  3  0
  1  4  1  0
  2  3  1  0
  3  6  1  0
  3  7  1  0
  5  8  1  0
  8  9  2  0
  8 13  1  0
  9 10  1  0
  9 14  1  0
 10 11  2  0
 10 15  1  0
 11 12  1  0
 11 16  1  0
 12 13  2  0
 12 17  1  0
 13 18  1  0
M  RAD  1   3   2
M  END
>  <reaction>  (8) 
rxn_1233

>  <mol_properties>  (8) 
{"1": {"label": "*0", "atom_type": "Ct"}, "2": {"label": "*1", "atom_type": "Cs"}, "4": {"label": "*2", "atom_type": "H0"}, "7": {"label": "*3", "atom_type": "Cd"}, "8": {"label": "*4", "atom_type": "Cd"}}

>  <type>  (8) 
unop_4

>  <geom_source>  (8) 
Heuristics

$$$$

     RDKit          3D

 18 17  0  0  0  0  0  0  0  0999 V2000
   -0.2259   -2.4713   -3.1464 C   0  0  0  0  0  0  0  0  0  0  0  0
   -0.2259   -2.4713   -1.9494 C   0  0  0  0  0  0  0  0  0  0  0  0
   -0.2259   -2.4713   -0.4939 C   0  0  0  0  0  3  0  0  0  0  0  0
   -0.2259   -2.4713   -4.2097 H   0  0  0  0  0  0  0  0  0  0  0  0
   -0.1144   -1.2517   -0.0315 H   0  0  0  0  0  0  0  0  0  0  0  0
    0.6079   -3.0598   -0.1086 H   0  0  0  0  0  0  0  0  0  0  0  0
   -1.1524   -2.8990   -0.1086 H   0  0  0  0  0  0  0  0  0  0  0  0
   -0.0038   -0.0411    0.4275 C   0  0  0  0  0  0  0  0  0  0  0  0
    0.0167    0.1825    1.7965 C   0  0  0  0  0  0  0  0  0  0  0  0
    0.1348    1.4749    2.2866 C   0  0  0  0  0  0  0  0  0  0  0  0
    0.2325    2.5438    1.4077 C   0  0  0  0  0  0  0  0  0  0  0  0
    0.2121    2.3202    0.0387 C   0  0  0  0  0  0  0  0  0  0  0  0
    0.0939    1.0278   -0.4514 C   0  0  0  0  0  0  0  0  0  0  0  0
   -0.0596   -0.6519    2.4826 H   0  0  0  0  0  0  0  0  0  0  0  0
    0.1507    1.6495    3.3552 H   0  0  0  0  0  0  0  0  0  0  0  0
    0.3247    3.5527    1.7902 H   0  0  0  0  0  0  0  0  0  0  0  0
    0.2883    3.1545   -0.6474 H   0  0  0  0  0  0  0  0  0  0  0  0
    0.0780    0.8533   -1.5200 H   0  0  0  0  0  0  0  0  0  0  0  0
  1  2  3  0
  1  4  1  0
  2  3  1  0
  3  6  1  0
  3  7  1  0
  5  8  1  0
  8  9  2  0
  8 13  1  0
  9 10  1  0
  9 14  1  0
 10 11  2  0
 10 15  1  0
 11 12  1  0
 11 16  1  0
 12 13  2  0
 12 17  1  0
 13 18  1  0
M  RAD  1   3   2
M  END
>  <reaction>  (9) 
rxn_1233

>  <mol_properties>  (9) 
{"1": {"label": "*0", "atom_type": "Ct"}, "2": {"label": "*1", "atom_type": "Cs"}, "4": {"label": "*2", "atom_type": "H0"}, "7": {"label": "*3", "atom_type": "Cd"}, "8": {"label": "*4", "atom_type": "Cd"}}

>  <type>  (9) 
unop_5

>  <geom_source>  (9) 
Heuristics

$$$$

     RDKit          3D

 18 17  0  0  0  0  0  0  0  0999 V2000
   -0.2952   -2.1081   -3.5866 C   0  0  0  0  0  0  0  0  0  0  0  0
   -0.2952   -2.1081   -2.3896 C   0  0  0  0  0  0  0  0  0  0  0  0
   -0.2952   -2.1081   -0.9342 C   0  0  0  0  0  3  0  0  0  0  0  0
   -0.2952   -2.1081   -4.6499 H   0  0  0  0  0  0  0  0  0  0  0  0
   -0.1838   -0.8885   -0.4718 H   0  0  0  0  0  0  0  0  0  0  0  0
    0.5385   -2.6967   -0.5488 H   0  0  0  0  0  0  0  0  0  0  0  0
   -1.2218   -2.5358   -0.5488 H   0  0  0  0  0  0  0  0  0  0  0  0
   -0.0731    0.3221   -0.0127 C   0  0  0  0  0  0  0  0  0  0  0  0
    1.1824    0.8589    0.2323 C   0  0  0  0  0  0  0  0  0  0  0  0
    1.4035    1.6121    1.3762 C   0  0  0  0  0  0  0  0  0  0  0  0
    0.3691    1.8284    2.2750 C   0  0  0  0  0  0  0  0  0  0  0  0
   -0.8863    1.2915    2.0299 C   0  0  0  0  0  0  0  0  0  0  0  0
   -1.1075    0.5383    0.8861 C   0  0  0  0  0  0  0  0  0  0  0  0
    1.9898    0.6901   -0.4693 H   0  0  0  0  0  0  0  0  0  0  0  0
    2.3835    2.0311    1.5674 H   0  0  0  0  0  0  0  0  0  0  0  0
    0.5418    2.4163    3.1679 H   0  0  0  0  0  0  0  0  0  0  0  0
   -1.6937    1.4603    2.7315 H   0  0  0  0  0  0  0  0  0  0  0  0
   -2.0875    0.1193    0.6948 H   0  0  0  0  0  0  0  0  0  0  0  0
  1  2  3  0
  1  4  1  0
  2  3  1  0
  3  6  1  0
  3  7  1  0
  5  8  1  0
  8  9  2  0
  8 13  1  0
  9 10  1  0
  9 14  1  0
 10 11  2  0
 10 15  1  0
 11 12  1  0
 11 16  1  0
 12 13  2  0
 12 17  1  0
 13 18  1  0
M  RAD  1   3   2
M  END
>  <reaction>  (10) 
rxn_1233

>  <mol_properties>  (10) 
{"1": {"label": "*0", "atom_type": "Ct"}, "2": {"label": "*1", "atom_type": "Cs"}, "4": {"label": "*2", "atom_type": "H0"}, "7": {"label": "*3", "atom_type": "Cd"}, "8": {"label": "*4", "atom_type": "Cd"}}

>  <type>  (10) 
unop_6

>  <geom_source>  (10) 
Heuristics

$$$$

     RDKit          3D

 18 17  0  0  0  0  0  0  0  0999 V2000
   -0.0084   -2.1053   -3.5905 C   0  0  0  0  0  0  0  0  0  0  0  0
   -0.0084   -2.1053   -2.3935 C   0  0  0  0  0  0  0  0  0  0  0  0
   -0.0084   -2.1053   -0.9381 C   0  0  0  0  0  3  0  0  0  0  0  0
   -0.0084   -2.1053   -4.6538 H   0  0  0  0  0  0  0  0  0  0  0  0
    0.1030   -0.8857   -0.4756 H   0  0  0  0  0  0  0  0  0  0  0  0
    0.8253   -2.6939   -0.5527 H   0  0  0  0  0  0  0  0  0  0  0  0
   -0.9350   -2.5330   -0.5527 H   0  0  0  0  0  0  0  0  0  0  0  0
    0.2137    0.3249   -0.0166 C   0  0  0  0  0  0  0  0  0  0  0  0
    1.2896    0.6651    0.7904 C   0  0  0  0  0  0  0  0  0  0  0  0
    1.0848    1.4141    1.9400 C   0  0  0  0  0  0  0  0  0  0  0  0
   -0.1959    1.8228    2.2827 C   0  0  0  0  0  0  0  0  0  0  0  0
   -1.2717    1.4826    1.4756 C   0  0  0  0  0  0  0  0  0  0  0  0
   -1.0670    0.7337    0.3260 C   0  0  0  0  0  0  0  0  0  0  0  0
    2.2892    0.3460    0.5230 H   0  0  0  0  0  0  0  0  0  0  0  0
    1.9246    1.6796    2.5700 H   0  0  0  0  0  0  0  0  0  0  0  0
   -0.3557    2.4075    3.1800 H   0  0  0  0  0  0  0  0  0  0  0  0
   -2.2714    1.8017    1.7430 H   0  0  0  0  0  0  0  0  0  0  0  0
   -1.9068    0.4681   -0.3040 H   0  0  0  0  0  0  0  0  0  0  0  0
  1  2  3  0
  1  4  1  0
  2  3  1  0
  3  6  1  0
  3  7  1  0
  5  8  1  0
  8  9  2  0
  8 13  1  0
  9 10  1  0
  9 14  1  0
 10 11  2  0
 10 15  1  0
 11 12  1  0
 11 16  1  0
 12 13  2  0
 12 17  1  0
 13 18  1  0
M  RAD  1   3   2
M  END
>  <reaction>  (11) 
rxn_1233

>  <mol_properties>  (11) 
{"1": {"label": "*0", "atom_type": "Ct"}, "2": {"label": "*1", "atom_type": "Cs"}, "4": {"label": "*2", "atom_type": "H0"}, "7": {"label": "*3", "atom_type": "Cd"}, "8": {"label": "*4", "atom_type": "Cd"}}

>  <type>  (11) 
unop_7

>  <geom_source>  (11) 
Heuristics

$$$$

     RDKit          3D

 18 17  0  0  0  0  0  0  0  0999 V2000
   -0.0918   -2.1267   -3.5866 C   0  0  0  0  0  0  0  0  0  0  0  0
   -0.0918   -2.1267   -2.3896 C   0  0  0  0  0  0  0  0  0  0  0  0
   -0.0918   -2.1267   -0.9342 C   0  0  0  0  0  3  0  0  0  0  0  0
   -0.0918   -2.1267   -4.6499 H   0  0  0  0  0  0  0  0  0  0  0  0
    0.0197   -0.9071   -0.4718 H   0  0  0  0  0  0  0  0  0  0  0  0
    0.7419   -2.7153   -0.5488 H   0  0  0  0  0  0  0  0  0  0  0  0
   -1.0184   -2.5544   -0.5488 H   0  0  0  0  0  0  0  0  0  0  0  0
    0.1303    0.3035   -0.0127 C   0  0  0  0  0  0  0  0  0  0  0  0
   -1.0071    1.0590    0.2323 C   0  0  0  0  0  0  0  0  0  0  0  0
   -1.0880    1.8398    1.3762 C   0  0  0  0  0  0  0  0  0  0  0  0
   -0.0316    1.8650    2.2750 C   0  0  0  0  0  0  0  0  0  0  0  0
    1.1058    1.1094    2.0299 C   0  0  0  0  0  0  0  0  0  0  0  0
    1.1867    0.3287    0.8861 C   0  0  0  0  0  0  0  0  0  0  0  0
   -1.8317    1.0394   -0.4693 H   0  0  0  0  0  0  0  0  0  0  0  0
   -1.9758    2.4296    1.5674 H   0  0  0  0  0  0  0  0  0  0  0  0
   -0.0948    2.4744    3.1679 H   0  0  0  0  0  0  0  0  0  0  0  0
    1.9304    1.1291    2.7315 H   0  0  0  0  0  0  0  0  0  0  0  0
    2.0745   -0.2611    0.6948 H   0  0  0  0  0  0  0  0  0  0  0  0
  1  2  3  0
  1  4  1  0
  2  3  1  0
  3  6  1  0
  3  7  1  0
  5  8  1  0
  8  9  2  0
  8 13  1  0
  9 10  1  0
  9 14  1  0
 10 11  2  0
 10 15  1  0
 11 12  1  0
 11 16  1  0
 12 13  2  0
 12 17  1  0
 13 18  1  0
M  RAD  1   3   2
M  END
>  <reaction>  (12) 
rxn_1233

>  <mol_properties>  (12) 
{"1": {"label": "*0", "atom_type": "Ct"}, "2": {"label": "*1", "atom_type": "Cs"}, "4": {"label": "*2", "atom_type": "H0"}, "7": {"label": "*3", "atom_type": "Cd"}, "8": {"label": "*4", "atom_type": "Cd"}}

>  <type>  (12) 
unop_8

>  <geom_source>  (12) 
Heuristics

$$$$

     RDKit          3D

 18 17  0  0  0  0  0  0  0  0999 V2000
   -0.4424   -2.3821   -3.2345 C   0  0  0  0  0  0  0  0  0  0  0  0
   -0.4424   -2.3821   -2.0375 C   0  0  0  0  0  0  0  0  0  0  0  0
   -0.4424   -2.3821   -0.5820 C   0  0  0  0  0  3  0  0  0  0  0  0
   -0.4424   -2.3821   -4.2978 H   0  0  0  0  0  0  0  0  0  0  0  0
   -0.3309   -1.1625   -0.1196 H   0  0  0  0  0  0  0  0  0  0  0  0
    0.3913   -2.9707   -0.1967 H   0  0  0  0  0  0  0  0  0  0  0  0
   -1.3690   -2.8098   -0.1967 H   0  0  0  0  0  0  0  0  0  0  0  0
   -0.2203    0.0481    0.3394 C   0  0  0  0  0  0  0  0  0  0  0  0
    0.4705    1.0056   -0.3890 C   0  0  0  0  0  0  0  0  0  0  0  0
    0.9101    2.1657    0.2320 C   0  0  0  0  0  0  0  0  0  0  0  0
    0.6590    2.3682    1.5812 C   0  0  0  0  0  0  0  0  0  0  0  0
   -0.0317    1.4106    2.3096 C   0  0  0  0  0  0  0  0  0  0  0  0
   -0.4714    0.2505    1.6887 C   0  0  0  0  0  0  0  0  0  0  0  0
    0.6665    0.8476   -1.4421 H   0  0  0  0  0  0  0  0  0  0  0  0
    1.4493    2.9131   -0.3365 H   0  0  0  0  0  0  0  0  0  0  0  0
    1.0022    3.2737    2.0659 H   0  0  0  0  0  0  0  0  0  0  0  0
   -0.2277    1.5686    3.3628 H   0  0  0  0  0  0  0  0  0  0  0  0
   -1.0105   -0.4969    2.2572 H   0  0  0  0  0  0  0  0  0  0  0  0
  1  2  3  0
  1  4  1  0
  2  3  1  0
  3  6  1  0
  3  7  1  0
  5  8  1  0
  8  9  2  0
  8 13  1  0
  9 10  1  0
  9 14  1  0
 10 11  2  0
 10 15  1  0
 11 12  1  0
 11 16  1  0
 12 13  2  0
 12 17  1  0
 13 18  1  0
M  RAD  1   3   2
M  END
>  <reaction>  (13) 
rxn_1233

>  <mol_properties>  (13) 
{"1": {"label": "*0", "atom_type": "Ct"}, "2": {"label": "*1", "atom_type": "Cs"}, "4": {"label": "*2", "atom_type": "H0"}, "7": {"label": "*3", "atom_type": "Cd"}, "8": {"label": "*4", "atom_type": "Cd"}}

>  <type>  (13) 
unop_9

>  <geom_source>  (13) 
Heuristics

$$$$

     RDKit          3D

 18 17  0  0  0  0  0  0  0  0999 V2000
    0.0626   -2.2750   -3.4285 C   0  0  0  0  0  0  0  0  0  0  0  0
    0.0626   -2.2750   -2.2315 C   0  0  0  0  0  0  0  0  0  0  0  0
    0.0626   -2.2750   -0.7760 C   0  0  0  0  0  3  0  0  0  0  0  0
    0.0626   -2.2750   -4.4918 H   0  0  0  0  0  0  0  0  0  0  0  0
    0.1741   -1.0554   -0.3136 H   0  0  0  0  0  0  0  0  0  0  0  0
    0.8963   -2.8636   -0.3907 H   0  0  0  0  0  0  0  0  0  0  0  0
   -0.8640   -2.7027   -0.3907 H   0  0  0  0  0  0  0  0  0  0  0  0
    0.2847    0.1552    0.1454 C   0  0  0  0  0  0  0  0  0  0  0  0
   -0.6731    1.1074   -0.1715 C   0  0  0  0  0  0  0  0  0  0  0  0
   -0.9833    2.1084    0.7375 C   0  0  0  0  0  0  0  0  0  0  0  0
   -0.3358    2.1572    1.9634 C   0  0  0  0  0  0  0  0  0  0  0  0
    0.6219    1.2049    2.2803 C   0  0  0  0  0  0  0  0  0  0  0  0
    0.9322    0.2039    1.3714 C   0  0  0  0  0  0  0  0  0  0  0  0
   -1.1785    1.0693   -1.1285 H   0  0  0  0  0  0  0  0  0  0  0  0
   -1.7309    2.8517    0.4901 H   0  0  0  0  0  0  0  0  0  0  0  0
   -0.5780    2.9385    2.6729 H   0  0  0  0  0  0  0  0  0  0  0  0
    1.1274    1.2430    3.2373 H   0  0  0  0  0  0  0  0  0  0  0  0
    1.6798   -0.5394    1.6188 H   0  0  0  0  0  0  0  0  0  0  0  0
  1  2  3  0
  1  4  1  0
  2  3  1  0
  3  6  1  0
  3  7  1  0
  5  8  1  0
  8  9  2  0
  8 13  1  0
  9 10  1  0
  9 14  1  0
 10 11  2  0
 10 15  1  0
 11 12  1  0
 11 16  1  0
 12 13  2  0
 12 17  1  0
 13 18  1  0
M  RAD  1   3   2
M  END
>  <reaction>  (14) 
rxn_1233

>  <mol_properties>  (14) 
{"1": {"label": "*0", "atom_type": "Ct"}, "2": {"label": "*1", "atom_type": "Cs"}, "4": {"label": "*2", "atom_type": "H0"}, "7": {"label": "*3", "atom_type": "Cd"}, "8": {"label": "*4", "atom_type": "Cd"}}

>  <type>  (14) 
unop_10

>  <geom_source>  (14) 
Heuristics

$$$$

     RDKit          3D

 18 17  0  0  0  0  0  0  0  0999 V2000
    0.1656   -2.2749   -3.3831 C   0  0  0  0  0  0  0  0  0  0  0  0
    0.1656   -2.2749   -2.1861 C   0  0  0  0  0  0  0  0  0  0  0  0
    0.1656   -2.2749   -0.7307 C   0  0  0  0  0  3  0  0  0  0  0  0
    0.1656   -2.2749   -4.4464 H   0  0  0  0  0  0  0  0  0  0  0  0
    0.2770   -1.0553   -0.2683 H   0  0  0  0  0  0  0  0  0  0  0  0
    0.9993   -2.8635   -0.3453 H   0  0  0  0  0  0  0  0  0  0  0  0
   -0.7610   -2.7026   -0.3453 H   0  0  0  0  0  0  0  0  0  0  0  0
    0.3877    0.1553    0.1908 C   0  0  0  0  0  0  0  0  0  0  0  0
    1.0115    0.3808    1.4092 C   0  0  0  0  0  0  0  0  0  0  0  0
    0.5483    1.3816    2.2508 C   0  0  0  0  0  0  0  0  0  0  0  0
   -0.5386    2.1570    1.8741 C   0  0  0  0  0  0  0  0  0  0  0  0
   -1.1624    1.9314    0.6556 C   0  0  0  0  0  0  0  0  0  0  0  0
   -0.6993    0.9306   -0.1860 C   0  0  0  0  0  0  0  0  0  0  0  0
    1.8599   -0.2244    1.7033 H   0  0  0  0  0  0  0  0  0  0  0  0
    1.0353    1.5577    3.2019 H   0  0  0  0  0  0  0  0  0  0  0  0
   -0.9001    2.9382    2.5310 H   0  0  0  0  0  0  0  0  0  0  0  0
   -2.0109    2.5366    0.3615 H   0  0  0  0  0  0  0  0  0  0  0  0
   -1.1862    0.7546   -1.1371 H   0  0  0  0  0  0  0  0  0  0  0  0
  1  2  3  0
  1  4  1  0
  2  3  1  0
  3  6  1  0
  3  7  1  0
  5  8  1  0
  8  9  2  0
  8 13  1  0
  9 10  1  0
  9 14  1  0
 10 11  2  0
 10 15  1  0
 11 12  1  0
 11 16  1  0
 12 13  2  0
 12 17  1  0
 13 18  1  0
M  RAD  1   3   2
M  END
>  <reaction>  (15) 
rxn_1233

>  <mol_properties>  (15) 
{"1": {"label": "*0", "atom_type": "Ct"}, "2": {"label": "*1", "atom_type": "Cs"}, "4": {"label": "*2", "atom_type": "H0"}, "7": {"label": "*3", "atom_type": "Cd"}, "8": {"label": "*4", "atom_type": "Cd"}}

>  <type>  (15) 
unop_11

>  <geom_source>  (15) 
Heuristics

$$$$

     RDKit          3D

 18 17  0  0  0  0  0  0  0  0999 V2000
   -0.2259   -2.4713   -3.1464 C   0  0  0  0  0  0  0  0  0  0  0  0
   -0.2259   -2.4713   -1.9494 C   0  0  0  0  0  0  0  0  0  0  0  0
   -0.2259   -2.4713   -0.4939 C   0  0  0  0  0  3  0  0  0  0  0  0
   -0.2259   -2.4713   -4.2097 H   0  0  0  0  0  0  0  0  0  0  0  0
   -0.1144   -1.2517   -0.0315 H   0  0  0  0  0  0  0  0  0  0  0  0
    0.6079   -3.0598   -0.1086 H   0  0  0  0  0  0  0  0  0  0  0  0
   -1.1524   -2.8990   -0.1086 H   0  0  0  0  0  0  0  0  0  0  0  0
   -0.0038   -0.0411    0.4275 C   0  0  0  0  0  0  0  0  0  0  0  0
    0.0939    1.0278   -0.4514 C   0  0  0  0  0  0  0  0  0  0  0  0
    0.2121    2.3202    0.0387 C   0  0  0  0  0  0  0  0  0  0  0  0
    0.2325    2.5438    1.4077 C   0  0  0  0  0  0  0  0  0  0  0  0
    0.1348    1.4749    2.2866 C   0  0  0  0  0  0  0  0  0  0  0  0
    0.0167    0.1825    1.7965 C   0  0  0  0  0  0  0  0  0  0  0  0
    0.0780    0.8533   -1.5200 H   0  0  0  0  0  0  0  0  0  0  0  0
    0.2883    3.1545   -0.6474 H   0  0  0  0  0  0  0  0  0  0  0  0
    0.3247    3.5527    1.7902 H   0  0  0  0  0  0  0  0  0  0  0  0
    0.1507    1.6495    3.3552 H   0  0  0  0  0  0  0  0  0  0  0  0
   -0.0596   -0.6519    2.4826 H   0  0  0  0  0  0  0  0  0  0  0  0
  1  2  3  0
  1  4  1  0
  2  3  1  0
  3  6  1  0
  3  7  1  0
  5  8  1  0
  8  9  2  0
  8 13  1  0
  9 10  1  0
  9 14  1  0
 10 11  2  0
 10 15  1  0
 11 12  1  0
 11 16  1  0
 12 13  2  0
 12 17  1  0
 13 18  1  0
M  RAD  1   3   2
M  END
>  <reaction>  (16) 
rxn_1233

>  <mol_properties>  (16) 
{"1": {"label": "*0", "atom_type": "Ct"}, "2": {"label": "*1", "atom_type": "Cs"}, "4": {"label": "*2", "atom_type": "H0"}, "7": {"label": "*3", "atom_type": "Cd"}, "8": {"label": "*4", "atom_type": "Cd"}}

>  <type>  (16) 
unop_12

>  <geom_source>  (16) 
Heuristics

$$$$

     RDKit          3D

 18 17  0  0  0  0  0  0  0  0999 V2000
    0.5429    0.4943    1.2430 C   0  0  0  0  0  0  0  0  0  0  0  0
    1.8040    1.0991    1.2086 C   0  0  0  0  0  0  0  0  0  0  0  0
    0.2223   -0.5074    0.3210 C   0  0  0  0  0  0  0  0  0  0  0  0
    2.7443    0.7019    0.2517 C   0  0  0  0  0  0  0  0  0  0  0  0
    1.1620   -0.9047   -0.6356 C   0  0  0  0  0  0  0  0  0  0  0  0
    2.4232   -0.3001   -0.6705 C   0  0  0  0  0  0  0  0  0  0  0  0
   -2.3154   -0.8767    0.1771 C   0  0  0  0  0  3  0  0  0  0  0  0
   -2.9017    0.0830   -0.7589 C   0  0  0  0  0  0  0  0  0  0  0  0
   -3.3845    0.8737   -1.5300 C   0  0  0  0  0  0  0  0  0  0  0  0
   -0.1853    0.8005    1.9825 H   0  0  0  0  0  0  0  0  0  0  0  0
    2.0522    1.8743    1.9220 H   0  0  0  0  0  0  0  0  0  0  0  0
   -0.8920   -1.0416    0.3517 H   0  0  0  0  0  0  0  0  0  0  0  0
    3.7199    1.1697    0.2248 H   0  0  0  0  0  0  0  0  0  0  0  0
    0.9124   -1.6797   -1.3482 H   0  0  0  0  0  0  0  0  0  0  0  0
    3.1505   -0.6076   -1.4108 H   0  0  0  0  0  0  0  0  0  0  0  0
   -2.3707   -1.8968   -0.2555 H   0  0  0  0  0  0  0  0  0  0  0  0
   -2.8758   -0.8500    1.1342 H   0  0  0  0  0  0  0  0  0  0  0  0
   -3.8084    1.5680   -2.2071 H   0  0  0  0  0  0  0  0  0  0  0  0
  1  2  2  0
  1  3  1  0
  1 10  1  0
  2  4  1  0
  2 11  1  0
  3  5  2  0
  3 12  1  0
  4  6  2  0
  4 13  1  0
  5  6  1  0
  5 14  1  0
  6 15  1  0
  7  8  1  0
  7 16  1  0
  7 17  1  0
  8  9  3  0
  9 18  1  0
M  RAD  1   7   2
M  END
>  <reaction>  (17) 
rxn_1233

>  <mol_properties>  (17) 
{"1": {"label": "*0", "atom_type": "Ct"}, "2": {"label": "*1", "atom_type": "Cs"}, "4": {"label": "*2", "atom_type": "H0"}, "7": {"label": "*3", "atom_type": "Cd"}, "8": {"label": "*4", "atom_type": "Cd"}}

>  <type>  (17) 
unop_13

>  <geom_source>  (17) 
AutoTST

$$$$
