
     RDKit          3D

 25 26  0  0  0  0  0  0  0  0999 V2000
    2.0298   -1.1515    0.0571 C   0  0  0  0  0  0  0  0  0  0  0  0
    2.2278    0.2445    0.6528 C   0  0  0  0  0  0  0  0  0  0  0  0
    1.2292    1.2625    0.0947 C   0  0  0  0  0  0  0  0  0  0  0  0
   -0.1869    0.7454    0.2762 C   0  0  0  0  0  0  0  0  0  0  0  0
   -1.3415    1.5501   -0.3122 C   0  0  0  0  0  0  0  0  0  0  0  0
   -2.5060    0.5338   -0.4178 C   0  0  0  0  0  0  0  0  0  0  0  0
   -1.8709   -0.8658   -0.2234 C   0  0  0  0  0  0  0  0  0  0  0  0
   -0.3715   -0.6265   -0.3693 C   0  0  0  0  0  0  0  0  0  0  0  0
    0.5898   -1.6500    0.2086 C   0  0  0  0  0  0  0  0  0  0  0  0
    2.2820   -1.1226   -1.0088 H   0  0  0  0  0  0  0  0  0  0  0  0
    2.7243   -1.8549    0.5221 H   0  0  0  0  0  0  0  0  0  0  0  0
    2.1030    0.1885    1.7400 H   0  0  0  0  0  0  0  0  0  0  0  0
    3.2514    0.5819    0.4743 H   0  0  0  0  0  0  0  0  0  0  0  0
    1.3611    2.2304    0.5855 H   0  0  0  0  0  0  0  0  0  0  0  0
    1.4198    1.4194   -0.9737 H   0  0  0  0  0  0  0  0  0  0  0  0
   -0.3675    0.6209    1.3539 H   0  0  0  0  0  0  0  0  0  0  0  0
   -1.5992    2.4249    0.2862 H   0  0  0  0  0  0  0  0  0  0  0  0
   -1.0595    1.9116   -1.3055 H   0  0  0  0  0  0  0  0  0  0  0  0
   -3.2666    0.7244    0.3399 H   0  0  0  0  0  0  0  0  0  0  0  0
   -3.0030    0.6112   -1.3853 H   0  0  0  0  0  0  0  0  0  0  0  0
   -2.2549   -1.6039   -0.9288 H   0  0  0  0  0  0  0  0  0  0  0  0
   -2.0796   -1.2429    0.7821 H   0  0  0  0  0  0  0  0  0  0  0  0
   -0.1432   -0.5121   -1.4391 H   0  0  0  0  0  0  0  0  0  0  0  0
    0.4720   -2.6209   -0.2799 H   0  0  0  0  0  0  0  0  0  0  0  0
    0.3601   -1.7986    1.2704 H   0  0  0  0  0  0  0  0  0  0  0  0
  1  2  1  0
  1  9  1  0
  1 10  1  0
  1 11  1  0
  2  3  1  0
  2 12  1  0
  2 13  1  0
  3  4  1  0
  3 14  1  0
  3 15  1  0
  4  5  1  0
  4  8  1  0
  4 16  1  0
  5  6  1  0
  5 17  1  0
  5 18  1  0
  6  7  1  0
  6 19  1  0
  6 20  1  0
  7  8  1  0
  7 21  1  0
  7 22  1  0
  8  9  1  0
  8 23  1  0
  9 24  1  0
  9 25  1  0
M  END
>  <reaction>  (1) 
rxn_617

>  <mol_properties>  (1) 
{"5": {"label": "donator", "atom_type": "Cs"}, "18": {"label": "d_hydrogen", "atom_type": "H0"}}

>  <type>  (1) 
r1h

$$$$

     RDKit          3D

  8  7  0  0  0  0  0  0  0  0999 V2000
    1.4038   -0.4003    0.0140 C   0  0  0  0  0  0  0  0  0  0  0  0
    0.2804    0.0563    0.4920 C   0  0  0  0  0  3  0  0  0  0  0  0
   -1.0935    0.3323    0.0625 C   0  0  0  0  0  0  0  0  0  0  0  0
    1.4898   -0.7154   -1.0285 H   0  0  0  0  0  0  0  0  0  0  0  0
    2.2990   -0.4891    0.6210 H   0  0  0  0  0  0  0  0  0  0  0  0
   -1.3399    1.3883    0.1900 H   0  0  0  0  0  0  0  0  0  0  0  0
   -1.2285    0.0762   -0.9967 H   0  0  0  0  0  0  0  0  0  0  0  0
   -1.8111   -0.2482    0.6457 H   0  0  0  0  0  0  0  0  0  0  0  0
  1  2  2  3
  1  4  1  0
  1  5  1  0
  2  3  1  0
  3  6  1  0
  3  7  1  0
  3  8  1  0
M  RAD  1   2   2
M  END
>  <reaction>  (2) 
rxn_617

>  <mol_properties>  (2) 
{"1": {"label": "acceptor", "atom_type": "Cd"}}

>  <type>  (2) 
r2

$$$$

     RDKit          3D

  9  8  0  0  0  0  0  0  0  0999 V2000
    1.1303   -0.2933   -0.7510 C   0  0  0  0  0  0  0  0  0  0  0  0
    0.2866    0.4560   -0.0588 C   0  0  0  0  0  0  0  0  0  0  0  0
   -0.9719   -0.0331    0.5823 C   0  0  0  0  0  0  0  0  0  0  0  0
    2.0274    0.1230   -1.1916 H   0  0  0  0  0  0  0  0  0  0  0  0
    0.9532   -1.3530   -0.9023 H   0  0  0  0  0  0  0  0  0  0  0  0
    0.5065    1.5132    0.0659 H   0  0  0  0  0  0  0  0  0  0  0  0
   -0.9526    0.1426    1.6610 H   0  0  0  0  0  0  0  0  0  0  0  0
   -1.1182   -1.1002    0.4106 H   0  0  0  0  0  0  0  0  0  0  0  0
   -1.8412    0.5010    0.1901 H   0  0  0  0  0  0  0  0  0  0  0  0
  1  2  2  3
  1  4  1  0
  1  5  1  0
  2  3  1  0
  2  6  1  0
  3  7  1  0
  3  8  1  0
  3  9  1  0
M  END
>  <reaction>  (3) 
rxn_617

>  <mol_properties>  (3) 
{"1": {"label": "acceptor", "atom_type": "Cd"}, "8": {"label": "a_hydrogen", "atom_type": "H0"}}

>  <type>  (3) 
r2h

$$$$

     RDKit          3D

 33 33  0  0  0  0  0  0  0  0999 V2000
    0.2687    3.9317   -0.3452 C   0  0  0  0  0  0  0  0  0  0  0  0
    0.1741    3.0265    0.6031 C   0  0  0  0  0  3  0  0  0  0  0  0
   -0.7169    2.9431    1.7833 C   0  0  0  0  0  0  0  0  0  0  0  0
   -0.3668    4.8166   -0.3574 H   0  0  0  0  0  0  0  0  0  0  0  0
    0.9856    3.8359   -1.1539 H   0  0  0  0  0  0  0  0  0  0  0  0
   -0.1365    2.9190    2.7088 H   0  0  0  0  0  0  0  0  0  0  0  0
   -1.4011    3.7968    1.8291 H   0  0  0  0  0  0  0  0  0  0  0  0
   -1.3128    2.0271    1.7550 H   0  0  0  0  0  0  0  0  0  0  0  0
   -1.0765   -2.7168   -1.4963 C   0  0  0  0  0  0  0  0  0  0  0  0
   -1.6841   -2.5864   -0.0973 C   0  0  0  0  0  0  0  0  0  0  0  0
   -0.6688   -2.0903    0.9367 C   0  0  0  0  0  0  0  0  0  0  0  0
   -0.0374   -0.7988    0.4505 C   0  0  1  0  0  0  0  0  0  0  0  0
    1.0833   -0.1611    1.2629 C   0  0  0  0  0  0  0  0  0  0  0  0
    1.6837    0.8364    0.2773 C   0  0  0  0  0  0  0  0  0  0  0  0
    1.3525    0.3482   -1.1381 C   0  0  0  0  0  0  0  0  0  0  0  0
    0.6135   -0.9759   -0.9215 C   0  0  2  0  0  0  0  0  0  0  0  0
   -0.3976   -1.4251   -1.9614 C   0  0  0  0  0  0  0  0  0  0  0  0
   -0.3327   -3.5213   -1.4875 H   0  0  0  0  0  0  0  0  0  0  0  0
   -1.8489   -3.0155   -2.2086 H   0  0  0  0  0  0  0  0  0  0  0  0
   -2.5193   -1.8782   -0.1367 H   0  0  0  0  0  0  0  0  0  0  0  0
   -2.1039   -3.5453    0.2150 H   0  0  0  0  0  0  0  0  0  0  0  0
   -1.1536   -1.9517    1.9067 H   0  0  0  0  0  0  0  0  0  0  0  0
    0.1150   -2.8439    1.0774 H   0  0  0  0  0  0  0  0  0  0  0  0
   -0.8354   -0.0498    0.3363 H   0  0  0  0  0  0  0  0  0  0  0  0
    0.7389    0.3112    2.1861 H   0  0  0  0  0  0  0  0  0  0  0  0
    1.8178   -0.9245    1.5456 H   0  0  0  0  0  0  0  0  0  0  0  0
    1.0310    1.9154    0.4544 H   0  0  0  0  0  0  0  0  0  0  0  0
    2.7181    1.1216    0.4594 H   0  0  0  0  0  0  0  0  0  0  0  0
    2.2402    0.2349   -1.7626 H   0  0  0  0  0  0  0  0  0  0  0  0
    0.6953    1.0640   -1.6444 H   0  0  0  0  0  0  0  0  0  0  0  0
    1.3639   -1.7719   -0.8150 H   0  0  0  0  0  0  0  0  0  0  0  0
    0.0784   -1.5773   -2.9336 H   0  0  0  0  0  0  0  0  0  0  0  0
   -1.1488   -0.6378   -2.0949 H   0  0  0  0  0  0  0  0  0  0  0  0
  1  2  2  3
  1  4  1  0
  1  5  1  0
  2  3  1  0
  3  6  1  0
  3  7  1  0
  3  8  1  0
  9 10  1  0
  9 17  1  0
  9 18  1  0
  9 19  1  0
 10 11  1  0
 10 20  1  0
 10 21  1  0
 11 12  1  0
 11 22  1  0
 11 23  1  0
 12 13  1  0
 12 16  1  0
 12 24  1  6
 13 14  1  0
 13 25  1  0
 13 26  1  0
 14 15  1  0
 14 27  1  0
 14 28  1  0
 15 16  1  0
 15 29  1  0
 15 30  1  0
 16 17  1  0
 16 31  1  1
 17 32  1  0
 17 33  1  0
M  RAD  1   2   2
M  END
>  <reaction>  (4) 
rxn_617

>  <mol_properties>  (4) 
{"0": {"label": "*4", "atom_type": "Cd"}, "1": {"label": "*3", "atom_type": "Cd"}, "12": {"label": "*0", "atom_type": "Cs"}, "13": {"label": "*1", "atom_type": "Cs"}, "26": {"label": "*2", "atom_type": "H0"}}

>  <type>  (4) 
ts

$$$$

     RDKit          3D

 33 33  0  0  0  0  0  0  0  0999 V2000
    0.9548    4.4176    0.6487 C   0  0  0  0  0  0  0  0  0  0  0  0
    0.2069    3.3269    0.7069 C   0  0  0  0  0  0  0  0  0  0  0  0
   -1.2396    3.2546    0.3374 C   0  0  0  0  0  0  0  0  0  0  0  0
    0.5472    5.3662    0.3153 H   0  0  0  0  0  0  0  0  0  0  0  0
    1.9999    4.4036    0.9314 H   0  0  0  0  0  0  0  0  0  0  0  0
   -1.8419    2.9226    1.1869 H   0  0  0  0  0  0  0  0  0  0  0  0
   -1.6157    4.2238    0.0075 H   0  0  0  0  0  0  0  0  0  0  0  0
   -1.4000    2.5314   -0.4663 H   0  0  0  0  0  0  0  0  0  0  0  0
   -0.9792   -3.2058   -0.9456 C   0  0  0  0  0  0  0  0  0  0  0  0
   -0.9792   -3.2058    0.5850 C   0  0  0  0  0  0  0  0  0  0  0  0
    0.1639   -2.3694    1.1670 C   0  0  0  0  0  0  0  0  0  0  0  0
    0.1243   -0.9684    0.5829 C   0  0  0  0  0  0  0  0  0  0  0  0
    1.2433    0.0053    0.9383 C   0  0  0  0  0  0  0  0  0  0  0  0
    1.1933    1.0759   -0.1803 C   0  0  0  0  0  3  0  0  0  0  0  0
    0.2999    0.4841   -1.2989 C   0  0  0  0  0  0  0  0  0  0  0  0
    0.1748   -0.9941   -0.9435 C   0  0  0  0  0  0  0  0  0  0  0  0
   -0.9792   -1.7894   -1.5276 C   0  0  0  0  0  0  0  0  0  0  0  0
   -0.0868   -3.7326   -1.3015 H   0  0  0  0  0  0  0  0  0  0  0  0
   -1.8401   -3.7669   -1.3163 H   0  0  0  0  0  0  0  0  0  0  0  0
   -1.9314   -2.7967    0.9409 H   0  0  0  0  0  0  0  0  0  0  0  0
   -0.9237   -4.2319    0.9557 H   0  0  0  0  0  0  0  0  0  0  0  0
    0.0966   -2.3435    2.2578 H   0  0  0  0  0  0  0  0  0  0  0  0
    1.1254   -2.8345    0.9189 H   0  0  0  0  0  0  0  0  0  0  0  0
   -0.8345   -0.5096    0.8654 H   0  0  0  0  0  0  0  0  0  0  0  0
    1.1345    0.4333    1.9357 H   0  0  0  0  0  0  0  0  0  0  0  0
    2.2009   -0.5232    0.9179 H   0  0  0  0  0  0  0  0  0  0  0  0
    0.6994    2.2032    0.2640 H   0  0  0  0  0  0  0  0  0  0  0  0
    2.1945    1.2984   -0.5506 H   0  0  0  0  0  0  0  0  0  0  0  0
    0.7095    0.6489   -2.2964 H   0  0  0  0  0  0  0  0  0  0  0  0
   -0.6922    0.9448   -1.2785 H   0  0  0  0  0  0  0  0  0  0  0  0
    1.1112   -1.4969   -1.2260 H   0  0  0  0  0  0  0  0  0  0  0  0
   -0.9186   -1.8283   -2.6184 H   0  0  0  0  0  0  0  0  0  0  0  0
   -1.9224   -1.2880   -1.2796 H   0  0  0  0  0  0  0  0  0  0  0  0
  1  2  2  3
  1  4  1  0
  1  5  1  0
  2  3  1  0
  2 27  1  0
  3  6  1  0
  3  7  1  0
  3  8  1  0
  9 10  1  0
  9 17  1  0
  9 18  1  0
  9 19  1  0
 10 11  1  0
 10 20  1  0
 10 21  1  0
 11 12  1  0
 11 22  1  0
 11 23  1  0
 12 13  1  0
 12 16  1  0
 12 24  1  0
 13 14  1  0
 13 25  1  0
 13 26  1  0
 14 15  1  0
 14 28  1  0
 15 16  1  0
 15 29  1  0
 15 30  1  0
 16 17  1  0
 16 31  1  0
 17 32  1  0
 17 33  1  0
M  RAD  1  14   2
M  END
>  <reaction>  (5) 
rxn_617

>  <mol_properties>  (5) 
{"0": {"label": "*4", "atom_type": "Cd"}, "1": {"label": "*3", "atom_type": "Cd"}, "12": {"label": "*0", "atom_type": "Cs"}, "13": {"label": "*1", "atom_type": "Cs"}, "26": {"label": "*2", "atom_type": "H0"}}

>  <type>  (5) 
unop_1

>  <geom_source>  (5) 
Heuristics

$$$$

     RDKit          3D

 33 33  0  0  0  0  0  0  0  0999 V2000
    0.3364    3.6151    1.9277 C   0  0  0  0  0  0  0  0  0  0  0  0
    0.1566    3.2978    0.6552 C   0  0  0  0  0  0  0  0  0  0  0  0
   -0.2307    4.2565   -0.4242 C   0  0  0  0  0  0  0  0  0  0  0  0
    0.2085    4.6329    2.2808 H   0  0  0  0  0  0  0  0  0  0  0  0
    0.6176    2.8713    2.6627 H   0  0  0  0  0  0  0  0  0  0  0  0
   -1.1705    3.9546   -0.8936 H   0  0  0  0  0  0  0  0  0  0  0  0
   -0.3506    5.2682   -0.0348 H   0  0  0  0  0  0  0  0  0  0  0  0
    0.5247    4.2788   -1.2140 H   0  0  0  0  0  0  0  0  0  0  0  0
   -1.0295   -3.2349   -0.9973 C   0  0  0  0  0  0  0  0  0  0  0  0
   -1.0295   -3.2349    0.5333 C   0  0  0  0  0  0  0  0  0  0  0  0
    0.1136   -2.3985    1.1152 C   0  0  0  0  0  0  0  0  0  0  0  0
    0.0740   -0.9975    0.5311 C   0  0  0  0  0  0  0  0  0  0  0  0
    1.1930   -0.0238    0.8866 C   0  0  0  0  0  0  0  0  0  0  0  0
    1.1431    1.0468   -0.2320 C   0  0  0  0  0  3  0  0  0  0  0  0
    0.2496    0.4550   -1.3507 C   0  0  0  0  0  0  0  0  0  0  0  0
    0.1245   -1.0232   -0.9952 C   0  0  0  0  0  0  0  0  0  0  0  0
   -1.0295   -1.8185   -1.5793 C   0  0  0  0  0  0  0  0  0  0  0  0
   -0.1371   -3.7617   -1.3533 H   0  0  0  0  0  0  0  0  0  0  0  0
   -1.8904   -3.7960   -1.3681 H   0  0  0  0  0  0  0  0  0  0  0  0
   -1.9817   -2.8258    0.8892 H   0  0  0  0  0  0  0  0  0  0  0  0
   -0.9740   -4.2610    0.9040 H   0  0  0  0  0  0  0  0  0  0  0  0
    0.0463   -2.3726    2.2061 H   0  0  0  0  0  0  0  0  0  0  0  0
    1.0751   -2.8636    0.8672 H   0  0  0  0  0  0  0  0  0  0  0  0
   -0.8848   -0.5387    0.8137 H   0  0  0  0  0  0  0  0  0  0  0  0
    1.0842    0.4042    1.8840 H   0  0  0  0  0  0  0  0  0  0  0  0
    2.1507   -0.5523    0.8662 H   0  0  0  0  0  0  0  0  0  0  0  0
    0.6491    2.1741    0.2123 H   0  0  0  0  0  0  0  0  0  0  0  0
    2.1443    1.2693   -0.6023 H   0  0  0  0  0  0  0  0  0  0  0  0
    0.6592    0.6198   -2.3481 H   0  0  0  0  0  0  0  0  0  0  0  0
   -0.7424    0.9157   -1.3302 H   0  0  0  0  0  0  0  0  0  0  0  0
    1.0610   -1.5260   -1.2778 H   0  0  0  0  0  0  0  0  0  0  0  0
   -0.9689   -1.8574   -2.6702 H   0  0  0  0  0  0  0  0  0  0  0  0
   -1.9727   -1.3171   -1.3313 H   0  0  0  0  0  0  0  0  0  0  0  0
  1  2  2  3
  1  4  1  0
  1  5  1  0
  2  3  1  0
  2 27  1  0
  3  6  1  0
  3  7  1  0
  3  8  1  0
  9 10  1  0
  9 17  1  0
  9 18  1  0
  9 19  1  0
 10 11  1  0
 10 20  1  0
 10 21  1  0
 11 12  1  0
 11 22  1  0
 11 23  1  0
 12 13  1  0
 12 16  1  0
 12 24  1  0
 13 14  1  0
 13 25  1  0
 13 26  1  0
 14 15  1  0
 14 28  1  0
 15 16  1  0
 15 29  1  0
 15 30  1  0
 16 17  1  0
 16 31  1  0
 17 32  1  0
 17 33  1  0
M  RAD  1  14   2
M  END
>  <reaction>  (6) 
rxn_617

>  <mol_properties>  (6) 
{"0": {"label": "*4", "atom_type": "Cd"}, "1": {"label": "*3", "atom_type": "Cd"}, "12": {"label": "*0", "atom_type": "Cs"}, "13": {"label": "*1", "atom_type": "Cs"}, "26": {"label": "*2", "atom_type": "H0"}}

>  <type>  (6) 
unop_2

>  <geom_source>  (6) 
Heuristics

$$$$

     RDKit          3D

 33 33  0  0  0  0  0  0  0  0999 V2000
    0.6365    4.4754    0.1173 C   0  0  0  0  0  0  0  0  0  0  0  0
    0.2313    3.3413    0.6667 C   0  0  0  0  0  0  0  0  0  0  0  0
   -1.1479    3.0778    1.1791 C   0  0  0  0  0  0  0  0  0  0  0  0
   -0.0354    5.3192   -0.0001 H   0  0  0  0  0  0  0  0  0  0  0  0
    1.6523    4.6031   -0.2350 H   0  0  0  0  0  0  0  0  0  0  0  0
   -1.1262    2.8250    2.2422 H   0  0  0  0  0  0  0  0  0  0  0  0
   -1.7954    3.9454    1.0454 H   0  0  0  0  0  0  0  0  0  0  0  0
   -1.5996    2.2281    0.6608 H   0  0  0  0  0  0  0  0  0  0  0  0
   -0.9549   -3.1914   -0.9858 C   0  0  0  0  0  0  0  0  0  0  0  0
   -0.9549   -3.1914    0.5448 C   0  0  0  0  0  0  0  0  0  0  0  0
    0.1882   -2.3550    1.1268 C   0  0  0  0  0  0  0  0  0  0  0  0
    0.1486   -0.9540    0.5426 C   0  0  0  0  0  0  0  0  0  0  0  0
    1.2677    0.0197    0.8981 C   0  0  0  0  0  0  0  0  0  0  0  0
    1.2177    1.0903   -0.2205 C   0  0  0  0  0  3  0  0  0  0  0  0
    0.3242    0.4985   -1.3392 C   0  0  0  0  0  0  0  0  0  0  0  0
    0.1992   -0.9797   -0.9837 C   0  0  0  0  0  0  0  0  0  0  0  0
   -0.9549   -1.7750   -1.5678 C   0  0  0  0  0  0  0  0  0  0  0  0
   -0.0624   -3.7182   -1.3418 H   0  0  0  0  0  0  0  0  0  0  0  0
   -1.8158   -3.7525   -1.3566 H   0  0  0  0  0  0  0  0  0  0  0  0
   -1.9070   -2.7823    0.9007 H   0  0  0  0  0  0  0  0  0  0  0  0
   -0.8993   -4.2175    0.9155 H   0  0  0  0  0  0  0  0  0  0  0  0
    0.1210   -2.3291    2.2176 H   0  0  0  0  0  0  0  0  0  0  0  0
    1.1498   -2.8202    0.8787 H   0  0  0  0  0  0  0  0  0  0  0  0
   -0.8102   -0.4952    0.8252 H   0  0  0  0  0  0  0  0  0  0  0  0
    1.1589    0.4477    1.8955 H   0  0  0  0  0  0  0  0  0  0  0  0
    2.2253   -0.5088    0.8777 H   0  0  0  0  0  0  0  0  0  0  0  0
    0.7237    2.2176    0.2238 H   0  0  0  0  0  0  0  0  0  0  0  0
    2.2189    1.3128   -0.5908 H   0  0  0  0  0  0  0  0  0  0  0  0
    0.7339    0.6633   -2.3366 H   0  0  0  0  0  0  0  0  0  0  0  0
   -0.6678    0.9592   -1.3187 H   0  0  0  0  0  0  0  0  0  0  0  0
    1.1356   -1.4825   -1.2663 H   0  0  0  0  0  0  0  0  0  0  0  0
   -0.8942   -1.8139   -2.6587 H   0  0  0  0  0  0  0  0  0  0  0  0
   -1.8980   -1.2737   -1.3198 H   0  0  0  0  0  0  0  0  0  0  0  0
  1  2  2  3
  1  4  1  0
  1  5  1  0
  2  3  1  0
  2 27  1  0
  3  6  1  0
  3  7  1  0
  3  8  1  0
  9 10  1  0
  9 17  1  0
  9 18  1  0
  9 19  1  0
 10 11  1  0
 10 20  1  0
 10 21  1  0
 11 12  1  0
 11 22  1  0
 11 23  1  0
 12 13  1  0
 12 16  1  0
 12 24  1  0
 13 14  1  0
 13 25  1  0
 13 26  1  0
 14 15  1  0
 14 28  1  0
 15 16  1  0
 15 29  1  0
 15 30  1  0
 16 17  1  0
 16 31  1  0
 17 32  1  0
 17 33  1  0
M  RAD  1  14   2
M  END
>  <reaction>  (7) 
rxn_617

>  <mol_properties>  (7) 
{"0": {"label": "*4", "atom_type": "Cd"}, "1": {"label": "*3", "atom_type": "Cd"}, "12": {"label": "*0", "atom_type": "Cs"}, "13": {"label": "*1", "atom_type": "Cs"}, "26": {"label": "*2", "atom_type": "H0"}}

>  <type>  (7) 
unop_3

>  <geom_source>  (7) 
Heuristics

$$$$

     RDKit          3D

 33 33  0  0  0  0  0  0  0  0999 V2000
   -1.0448    3.3161    1.1822 C   0  0  0  0  0  0  0  0  0  0  0  0
    0.1844    3.3083    0.6910 C   0  0  0  0  0  0  0  0  0  0  0  0
    0.8309    4.4480   -0.0283 C   0  0  0  0  0  0  0  0  0  0  0  0
   -1.6860    4.1863    1.0893 H   0  0  0  0  0  0  0  0  0  0  0  0
   -1.4557    2.4551    1.6943 H   0  0  0  0  0  0  0  0  0  0  0  0
    1.1268    4.1528   -1.0383 H   0  0  0  0  0  0  0  0  0  0  0  0
    0.1595    5.3043   -0.1034 H   0  0  0  0  0  0  0  0  0  0  0  0
    1.7402    4.7676    0.4873 H   0  0  0  0  0  0  0  0  0  0  0  0
   -1.0018   -3.2244   -0.9616 C   0  0  0  0  0  0  0  0  0  0  0  0
   -1.0018   -3.2244    0.5691 C   0  0  0  0  0  0  0  0  0  0  0  0
    0.1414   -2.3880    1.1510 C   0  0  0  0  0  0  0  0  0  0  0  0
    0.1017   -0.9870    0.5669 C   0  0  0  0  0  0  0  0  0  0  0  0
    1.2208   -0.0132    0.9224 C   0  0  0  0  0  0  0  0  0  0  0  0
    1.1708    1.0573   -0.1962 C   0  0  0  0  0  3  0  0  0  0  0  0
    0.2774    0.4655   -1.3149 C   0  0  0  0  0  0  0  0  0  0  0  0
    0.1523   -1.0127   -0.9594 C   0  0  0  0  0  0  0  0  0  0  0  0
   -1.0018   -1.8080   -1.5435 C   0  0  0  0  0  0  0  0  0  0  0  0
   -0.1093   -3.7512   -1.3175 H   0  0  0  0  0  0  0  0  0  0  0  0
   -1.8626   -3.7855   -1.3323 H   0  0  0  0  0  0  0  0  0  0  0  0
   -1.9539   -2.8153    0.9250 H   0  0  0  0  0  0  0  0  0  0  0  0
   -0.9462   -4.2505    0.9398 H   0  0  0  0  0  0  0  0  0  0  0  0
    0.0741   -2.3621    2.2419 H   0  0  0  0  0  0  0  0  0  0  0  0
    1.1029   -2.8531    0.9030 H   0  0  0  0  0  0  0  0  0  0  0  0
   -0.8570   -0.5282    0.8495 H   0  0  0  0  0  0  0  0  0  0  0  0
    1.1120    0.4147    1.9198 H   0  0  0  0  0  0  0  0  0  0  0  0
    2.1784   -0.5418    0.9020 H   0  0  0  0  0  0  0  0  0  0  0  0
    0.6769    2.1846    0.2481 H   0  0  0  0  0  0  0  0  0  0  0  0
    2.1720    1.2798   -0.5665 H   0  0  0  0  0  0  0  0  0  0  0  0
    0.6870    0.6303   -2.3123 H   0  0  0  0  0  0  0  0  0  0  0  0
   -0.7147    0.9262   -1.2944 H   0  0  0  0  0  0  0  0  0  0  0  0
    1.0887   -1.5155   -1.2420 H   0  0  0  0  0  0  0  0  0  0  0  0
   -0.9411   -1.8469   -2.6344 H   0  0  0  0  0  0  0  0  0  0  0  0
   -1.9449   -1.3066   -1.2955 H   0  0  0  0  0  0  0  0  0  0  0  0
  1  2  2  3
  1  4  1  0
  1  5  1  0
  2  3  1  0
  2 27  1  0
  3  6  1  0
  3  7  1  0
  3  8  1  0
  9 10  1  0
  9 17  1  0
  9 18  1  0
  9 19  1  0
 10 11  1  0
 10 20  1  0
 10 21  1  0
 11 12  1  0
 11 22  1  0
 11 23  1  0
 12 13  1  0
 12 16  1  0
 12 24  1  0
 13 14  1  0
 13 25  1  0
 13 26  1  0
 14 15  1  0
 14 28  1  0
 15 16  1  0
 15 29  1  0
 15 30  1  0
 16 17  1  0
 16 31  1  0
 17 32  1  0
 17 33  1  0
M  RAD  1  14   2
M  END
>  <reaction>  (8) 
rxn_617

>  <mol_properties>  (8) 
{"0": {"label": "*4", "atom_type": "Cd"}, "1": {"label": "*3", "atom_type": "Cd"}, "12": {"label": "*0", "atom_type": "Cs"}, "13": {"label": "*1", "atom_type": "Cs"}, "26": {"label": "*2", "atom_type": "H0"}}

>  <type>  (8) 
unop_4

>  <geom_source>  (8) 
Heuristics

$$$$

     RDKit          3D

 33 33  0  0  0  0  0  0  0  0999 V2000
    0.0732    4.3452   -0.2318 C   0  0  0  0  0  0  0  0  0  0  0  0
    0.1838    3.3244    0.6036 C   0  0  0  0  0  0  0  0  0  0  0  0
   -0.2147    3.3442    2.0441 C   0  0  0  0  0  0  0  0  0  0  0  0
   -0.3303    5.2993    0.0906 H   0  0  0  0  0  0  0  0  0  0  0  0
    0.3811    4.2661   -1.2668 H   0  0  0  0  0  0  0  0  0  0  0  0
    0.6399    3.1186    2.6872 H   0  0  0  0  0  0  0  0  0  0  0  0
   -0.6153    4.3165    2.3336 H   0  0  0  0  0  0  0  0  0  0  0  0
   -0.9736    2.5845    2.2481 H   0  0  0  0  0  0  0  0  0  0  0  0
   -1.0023   -3.2083   -1.0489 C   0  0  0  0  0  0  0  0  0  0  0  0
   -1.0023   -3.2083    0.4817 C   0  0  0  0  0  0  0  0  0  0  0  0
    0.1408   -2.3719    1.0637 C   0  0  0  0  0  0  0  0  0  0  0  0
    0.1012   -0.9710    0.4795 C   0  0  0  0  0  0  0  0  0  0  0  0
    1.2202    0.0028    0.8350 C   0  0  0  0  0  0  0  0  0  0  0  0
    1.1703    1.0734   -0.2836 C   0  0  0  0  0  3  0  0  0  0  0  0
    0.2768    0.4815   -1.4023 C   0  0  0  0  0  0  0  0  0  0  0  0
    0.1517   -0.9966   -1.0468 C   0  0  0  0  0  0  0  0  0  0  0  0
   -1.0023   -1.7919   -1.6309 C   0  0  0  0  0  0  0  0  0  0  0  0
   -0.1099   -3.7351   -1.4049 H   0  0  0  0  0  0  0  0  0  0  0  0
   -1.8632   -3.7694   -1.4197 H   0  0  0  0  0  0  0  0  0  0  0  0
   -1.9545   -2.7992    0.8376 H   0  0  0  0  0  0  0  0  0  0  0  0
   -0.9468   -4.2344    0.8524 H   0  0  0  0  0  0  0  0  0  0  0  0
    0.0735   -2.3460    2.1545 H   0  0  0  0  0  0  0  0  0  0  0  0
    1.1023   -2.8371    0.8156 H   0  0  0  0  0  0  0  0  0  0  0  0
   -0.8576   -0.5121    0.7621 H   0  0  0  0  0  0  0  0  0  0  0  0
    1.1114    0.4308    1.8324 H   0  0  0  0  0  0  0  0  0  0  0  0
    2.1778   -0.5257    0.8146 H   0  0  0  0  0  0  0  0  0  0  0  0
    0.6763    2.2006    0.1607 H   0  0  0  0  0  0  0  0  0  0  0  0
    2.1715    1.2959   -0.6539 H   0  0  0  0  0  0  0  0  0  0  0  0
    0.6864    0.6464   -2.3997 H   0  0  0  0  0  0  0  0  0  0  0  0
   -0.7153    0.9423   -1.3818 H   0  0  0  0  0  0  0  0  0  0  0  0
    1.0881   -1.4994   -1.3293 H   0  0  0  0  0  0  0  0  0  0  0  0
   -0.9417   -1.8309   -2.7218 H   0  0  0  0  0  0  0  0  0  0  0  0
   -1.9455   -1.2906   -1.3829 H   0  0  0  0  0  0  0  0  0  0  0  0
  1  2  2  3
  1  4  1  0
  1  5  1  0
  2  3  1  0
  2 27  1  0
  3  6  1  0
  3  7  1  0
  3  8  1  0
  9 10  1  0
  9 17  1  0
  9 18  1  0
  9 19  1  0
 10 11  1  0
 10 20  1  0
 10 21  1  0
 11 12  1  0
 11 22  1  0
 11 23  1  0
 12 13  1  0
 12 16  1  0
 12 24  1  0
 13 14  1  0
 13 25  1  0
 13 26  1  0
 14 15  1  0
 14 28  1  0
 15 16  1  0
 15 29  1  0
 15 30  1  0
 16 17  1  0
 16 31  1  0
 17 32  1  0
 17 33  1  0
M  RAD  1  14   2
M  END
>  <reaction>  (9) 
rxn_617

>  <mol_properties>  (9) 
{"0": {"label": "*4", "atom_type": "Cd"}, "1": {"label": "*3", "atom_type": "Cd"}, "12": {"label": "*0", "atom_type": "Cs"}, "13": {"label": "*1", "atom_type": "Cs"}, "26": {"label": "*2", "atom_type": "H0"}}

>  <type>  (9) 
unop_5

>  <geom_source>  (9) 
Heuristics

$$$$

     RDKit          3D

 33 33  0  0  0  0  0  0  0  0999 V2000
   -1.1536    3.4983    0.6277 C   0  0  0  0  0  0  0  0  0  0  0  0
    0.1535    3.3020    0.7014 C   0  0  0  0  0  0  0  0  0  0  0  0
    1.1963    4.3308    0.4042 C   0  0  0  0  0  0  0  0  0  0  0  0
   -1.5662    4.4580    0.3349 H   0  0  0  0  0  0  0  0  0  0  0  0
   -1.8587    2.7092    0.8568 H   0  0  0  0  0  0  0  0  0  0  0  0
    1.8514    3.9980   -0.4050 H   0  0  0  0  0  0  0  0  0  0  0  0
    0.7471    5.2813    0.1137 H   0  0  0  0  0  0  0  0  0  0  0  0
    1.8325    4.5028    1.2762 H   0  0  0  0  0  0  0  0  0  0  0  0
   -1.0327   -3.2307   -0.9512 C   0  0  0  0  0  0  0  0  0  0  0  0
   -1.0327   -3.2307    0.5795 C   0  0  0  0  0  0  0  0  0  0  0  0
    0.1104   -2.3943    1.1614 C   0  0  0  0  0  0  0  0  0  0  0  0
    0.0708   -0.9934    0.5773 C   0  0  0  0  0  0  0  0  0  0  0  0
    1.1899   -0.0196    0.9328 C   0  0  0  0  0  0  0  0  0  0  0  0
    1.1399    1.0510   -0.1858 C   0  0  0  0  0  3  0  0  0  0  0  0
    0.2464    0.4591   -1.3045 C   0  0  0  0  0  0  0  0  0  0  0  0
    0.1214   -1.0190   -0.9490 C   0  0  0  0  0  0  0  0  0  0  0  0
   -1.0327   -1.8143   -1.5331 C   0  0  0  0  0  0  0  0  0  0  0  0
   -0.1402   -3.7576   -1.3071 H   0  0  0  0  0  0  0  0  0  0  0  0
   -1.8936   -3.7918   -1.3219 H   0  0  0  0  0  0  0  0  0  0  0  0
   -1.9848   -2.8216    0.9354 H   0  0  0  0  0  0  0  0  0  0  0  0
   -0.9771   -4.2568    0.9502 H   0  0  0  0  0  0  0  0  0  0  0  0
    0.0432   -2.3684    2.2523 H   0  0  0  0  0  0  0  0  0  0  0  0
    1.0720   -2.8595    0.9134 H   0  0  0  0  0  0  0  0  0  0  0  0
   -0.8880   -0.5345    0.8599 H   0  0  0  0  0  0  0  0  0  0  0  0
    1.0810    0.4084    1.9302 H   0  0  0  0  0  0  0  0  0  0  0  0
    2.1475   -0.5481    0.9124 H   0  0  0  0  0  0  0  0  0  0  0  0
    0.6459    2.1782    0.2585 H   0  0  0  0  0  0  0  0  0  0  0  0
    2.1411    1.2734   -0.5561 H   0  0  0  0  0  0  0  0  0  0  0  0
    0.6561    0.6240   -2.3019 H   0  0  0  0  0  0  0  0  0  0  0  0
   -0.7456    0.9199   -1.2840 H   0  0  0  0  0  0  0  0  0  0  0  0
    1.0578   -1.5218   -1.2316 H   0  0  0  0  0  0  0  0  0  0  0  0
   -0.9720   -1.8533   -2.6240 H   0  0  0  0  0  0  0  0  0  0  0  0
   -1.9758   -1.3130   -1.2851 H   0  0  0  0  0  0  0  0  0  0  0  0
  1  2  2  3
  1  4  1  0
  1  5  1  0
  2  3  1  0
  2 27  1  0
  3  6  1  0
  3  7  1  0
  3  8  1  0
  9 10  1  0
  9 17  1  0
  9 18  1  0
  9 19  1  0
 10 11  1  0
 10 20  1  0
 10 21  1  0
 11 12  1  0
 11 22  1  0
 11 23  1  0
 12 13  1  0
 12 16  1  0
 12 24  1  0
 13 14  1  0
 13 25  1  0
 13 26  1  0
 14 15  1  0
 14 28  1  0
 15 16  1  0
 15 29  1  0
 15 30  1  0
 16 17  1  0
 16 31  1  0
 17 32  1  0
 17 33  1  0
M  RAD  1  14   2
M  END
>  <reaction>  (10) 
rxn_617

>  <mol_properties>  (10) 
{"0": {"label": "*4", "atom_type": "Cd"}, "1": {"label": "*3", "atom_type": "Cd"}, "12": {"label": "*0", "atom_type": "Cs"}, "13": {"label": "*1", "atom_type": "Cs"}, "26": {"label": "*2", "atom_type": "H0"}}

>  <type>  (10) 
unop_6

>  <geom_source>  (10) 
Heuristics

$$$$

     RDKit          3D

 33 33  0  0  0  0  0  0  0  0999 V2000
   -0.9802    3.7772    0.1223 C   0  0  0  0  0  0  0  0  0  0  0  0
    0.1190    3.2978    0.6830 C   0  0  0  0  0  0  0  0  0  0  0  0
    1.3271    4.1041    1.0357 C   0  0  0  0  0  0  0  0  0  0  0  0
   -1.0763    4.8289   -0.1264 H   0  0  0  0  0  0  0  0  0  0  0  0
   -1.8232    3.1383   -0.1088 H   0  0  0  0  0  0  0  0  0  0  0  0
    2.2118    3.7268    0.5164 H   0  0  0  0  0  0  0  0  0  0  0  0
    1.1962    5.1545    0.7725 H   0  0  0  0  0  0  0  0  0  0  0  0
    1.5377    4.0412    2.1064 H   0  0  0  0  0  0  0  0  0  0  0  0
   -1.0672   -3.2349   -0.9695 C   0  0  0  0  0  0  0  0  0  0  0  0
   -1.0672   -3.2349    0.5611 C   0  0  0  0  0  0  0  0  0  0  0  0
    0.0759   -2.3985    1.1430 C   0  0  0  0  0  0  0  0  0  0  0  0
    0.0363   -0.9975    0.5589 C   0  0  0  0  0  0  0  0  0  0  0  0
    1.1554   -0.0238    0.9144 C   0  0  0  0  0  0  0  0  0  0  0  0
    1.1054    1.0468   -0.2042 C   0  0  0  0  0  3  0  0  0  0  0  0
    0.2119    0.4550   -1.3229 C   0  0  0  0  0  0  0  0  0  0  0  0
    0.0868   -1.0232   -0.9674 C   0  0  0  0  0  0  0  0  0  0  0  0
   -1.0672   -1.8185   -1.5515 C   0  0  0  0  0  0  0  0  0  0  0  0
   -0.1748   -3.7617   -1.3255 H   0  0  0  0  0  0  0  0  0  0  0  0
   -1.9281   -3.7960   -1.3403 H   0  0  0  0  0  0  0  0  0  0  0  0
   -2.0193   -2.8258    0.9170 H   0  0  0  0  0  0  0  0  0  0  0  0
   -1.0117   -4.2610    0.9318 H   0  0  0  0  0  0  0  0  0  0  0  0
    0.0087   -2.3726    2.2339 H   0  0  0  0  0  0  0  0  0  0  0  0
    1.0374   -2.8637    0.8950 H   0  0  0  0  0  0  0  0  0  0  0  0
   -0.9225   -0.5387    0.8415 H   0  0  0  0  0  0  0  0  0  0  0  0
    1.0465    0.4042    1.9118 H   0  0  0  0  0  0  0  0  0  0  0  0
    2.1130   -0.5523    0.8940 H   0  0  0  0  0  0  0  0  0  0  0  0
    0.6114    2.1741    0.2401 H   0  0  0  0  0  0  0  0  0  0  0  0
    2.1066    1.2693   -0.5745 H   0  0  0  0  0  0  0  0  0  0  0  0
    0.6216    0.6198   -2.3203 H   0  0  0  0  0  0  0  0  0  0  0  0
   -0.7801    0.9157   -1.3024 H   0  0  0  0  0  0  0  0  0  0  0  0
    1.0233   -1.5260   -1.2500 H   0  0  0  0  0  0  0  0  0  0  0  0
   -1.0066   -1.8574   -2.6424 H   0  0  0  0  0  0  0  0  0  0  0  0
   -2.0104   -1.3172   -1.3035 H   0  0  0  0  0  0  0  0  0  0  0  0
  1  2  2  3
  1  4  1  0
  1  5  1  0
  2  3  1  0
  2 27  1  0
  3  6  1  0
  3  7  1  0
  3  8  1  0
  9 10  1  0
  9 17  1  0
  9 18  1  0
  9 19  1  0
 10 11  1  0
 10 20  1  0
 10 21  1  0
 11 12  1  0
 11 22  1  0
 11 23  1  0
 12 13  1  0
 12 16  1  0
 12 24  1  0
 13 14  1  0
 13 25  1  0
 13 26  1  0
 14 15  1  0
 14 28  1  0
 15 16  1  0
 15 29  1  0
 15 30  1  0
 16 17  1  0
 16 31  1  0
 17 32  1  0
 17 33  1  0
M  RAD  1  14   2
M  END
>  <reaction>  (11) 
rxn_617

>  <mol_properties>  (11) 
{"0": {"label": "*4", "atom_type": "Cd"}, "1": {"label": "*3", "atom_type": "Cd"}, "12": {"label": "*0", "atom_type": "Cs"}, "13": {"label": "*1", "atom_type": "Cs"}, "26": {"label": "*2", "atom_type": "H0"}}

>  <type>  (11) 
unop_7

>  <geom_source>  (11) 
Heuristics

$$$$

     RDKit          3D

 33 33  0  0  0  0  0  0  0  0999 V2000
    0.9980    4.2104    1.2132 C   0  0  0  0  0  0  0  0  0  0  0  0
    0.1723    3.3082    0.7065 C   0  0  0  0  0  0  0  0  0  0  0  0
   -0.9857    3.6086   -0.1895 C   0  0  0  0  0  0  0  0  0  0  0  0
    0.8805    5.2678    1.0006 H   0  0  0  0  0  0  0  0  0  0  0  0
    1.8204    3.9269    1.8578 H   0  0  0  0  0  0  0  0  0  0  0  0
   -1.9217    3.2603    0.2547 H   0  0  0  0  0  0  0  0  0  0  0  0
   -1.0740    4.6786   -0.3818 H   0  0  0  0  0  0  0  0  0  0  0  0
   -0.8795    3.0941   -1.1480 H   0  0  0  0  0  0  0  0  0  0  0  0
   -1.0138   -3.2245   -0.9460 C   0  0  0  0  0  0  0  0  0  0  0  0
   -1.0138   -3.2245    0.5846 C   0  0  0  0  0  0  0  0  0  0  0  0
    0.1293   -2.3881    1.1666 C   0  0  0  0  0  0  0  0  0  0  0  0
    0.0897   -0.9871    0.5825 C   0  0  0  0  0  0  0  0  0  0  0  0
    1.2087   -0.0134    0.9379 C   0  0  0  0  0  0  0  0  0  0  0  0
    1.1588    1.0572   -0.1807 C   0  0  0  0  0  3  0  0  0  0  0  0
    0.2653    0.4654   -1.2993 C   0  0  0  0  0  0  0  0  0  0  0  0
    0.1402   -1.0128   -0.9439 C   0  0  0  0  0  0  0  0  0  0  0  0
   -1.0138   -1.8081   -1.5280 C   0  0  0  0  0  0  0  0  0  0  0  0
   -0.1214   -3.7513   -1.3019 H   0  0  0  0  0  0  0  0  0  0  0  0
   -1.8747   -3.7856   -1.3167 H   0  0  0  0  0  0  0  0  0  0  0  0
   -1.9660   -2.8154    0.9405 H   0  0  0  0  0  0  0  0  0  0  0  0
   -0.9583   -4.2506    0.9553 H   0  0  0  0  0  0  0  0  0  0  0  0
    0.0620   -2.3622    2.2574 H   0  0  0  0  0  0  0  0  0  0  0  0
    1.0908   -2.8533    0.9185 H   0  0  0  0  0  0  0  0  0  0  0  0
   -0.8691   -0.5283    0.8650 H   0  0  0  0  0  0  0  0  0  0  0  0
    1.0999    0.4146    1.9353 H   0  0  0  0  0  0  0  0  0  0  0  0
    2.1663   -0.5419    0.9175 H   0  0  0  0  0  0  0  0  0  0  0  0
    0.6648    2.1845    0.2636 H   0  0  0  0  0  0  0  0  0  0  0  0
    2.1599    1.2797   -0.5510 H   0  0  0  0  0  0  0  0  0  0  0  0
    0.6749    0.6302   -2.2968 H   0  0  0  0  0  0  0  0  0  0  0  0
   -0.7268    0.9261   -1.2789 H   0  0  0  0  0  0  0  0  0  0  0  0
    1.0766   -1.5156   -1.2264 H   0  0  0  0  0  0  0  0  0  0  0  0
   -0.9532   -1.8470   -2.6189 H   0  0  0  0  0  0  0  0  0  0  0  0
   -1.9570   -1.3068   -1.2800 H   0  0  0  0  0  0  0  0  0  0  0  0
  1  2  2  3
  1  4  1  0
  1  5  1  0
  2  3  1  0
  2 27  1  0
  3  6  1  0
  3  7  1  0
  3  8  1  0
  9 10  1  0
  9 17  1  0
  9 18  1  0
  9 19  1  0
 10 11  1  0
 10 20  1  0
 10 21  1  0
 11 12  1  0
 11 22  1  0
 11 23  1  0
 12 13  1  0
 12 16  1  0
 12 24  1  0
 13 14  1  0
 13 25  1  0
 13 26  1  0
 14 15  1  0
 14 28  1  0
 15 16  1  0
 15 29  1  0
 15 30  1  0
 16 17  1  0
 16 31  1  0
 17 32  1  0
 17 33  1  0
M  RAD  1  14   2
M  END
>  <reaction>  (12) 
rxn_617

>  <mol_properties>  (12) 
{"0": {"label": "*4", "atom_type": "Cd"}, "1": {"label": "*3", "atom_type": "Cd"}, "12": {"label": "*0", "atom_type": "Cs"}, "13": {"label": "*1", "atom_type": "Cs"}, "26": {"label": "*2", "atom_type": "H0"}}

>  <type>  (12) 
unop_8

>  <geom_source>  (12) 
Heuristics

$$$$

     RDKit          3D

 33 33  0  0  0  0  0  0  0  0999 V2000
   -0.6928    3.2744    1.6477 C   0  0  0  0  0  0  0  0  0  0  0  0
    0.1937    3.3101    0.6653 C   0  0  0  0  0  0  0  0  0  0  0  0
    0.4210    4.4721   -0.2469 C   0  0  0  0  0  0  0  0  0  0  0  0
   -1.3362    4.1217    1.8605 H   0  0  0  0  0  0  0  0  0  0  0  0
   -0.8087    2.3993    2.2746 H   0  0  0  0  0  0  0  0  0  0  0  0
    0.2506    4.1881   -1.2885 H   0  0  0  0  0  0  0  0  0  0  0  0
   -0.2412    5.3044   -0.0050 H   0  0  0  0  0  0  0  0  0  0  0  0
    1.4539    4.8232   -0.1795 H   0  0  0  0  0  0  0  0  0  0  0  0
   -0.9925   -3.2226   -0.9873 C   0  0  0  0  0  0  0  0  0  0  0  0
   -0.9925   -3.2226    0.5433 C   0  0  0  0  0  0  0  0  0  0  0  0
    0.1507   -2.3862    1.1253 C   0  0  0  0  0  0  0  0  0  0  0  0
    0.1110   -0.9853    0.5412 C   0  0  0  0  0  0  0  0  0  0  0  0
    1.2301   -0.0115    0.8967 C   0  0  0  0  0  0  0  0  0  0  0  0
    1.1801    1.0591   -0.2220 C   0  0  0  0  0  3  0  0  0  0  0  0
    0.2867    0.4672   -1.3406 C   0  0  0  0  0  0  0  0  0  0  0  0
    0.1616   -1.0109   -0.9851 C   0  0  0  0  0  0  0  0  0  0  0  0
   -0.9925   -1.8062   -1.5692 C   0  0  0  0  0  0  0  0  0  0  0  0
   -0.1000   -3.7494   -1.3432 H   0  0  0  0  0  0  0  0  0  0  0  0
   -1.8533   -3.7837   -1.3580 H   0  0  0  0  0  0  0  0  0  0  0  0
   -1.9446   -2.8135    0.8993 H   0  0  0  0  0  0  0  0  0  0  0  0
   -0.9369   -4.2487    0.9141 H   0  0  0  0  0  0  0  0  0  0  0  0
    0.0834   -2.3603    2.2162 H   0  0  0  0  0  0  0  0  0  0  0  0
    1.1122   -2.8514    0.8773 H   0  0  0  0  0  0  0  0  0  0  0  0
   -0.8477   -0.5264    0.8238 H   0  0  0  0  0  0  0  0  0  0  0  0
    1.1213    0.4165    1.8941 H   0  0  0  0  0  0  0  0  0  0  0  0
    2.1877   -0.5400    0.8762 H   0  0  0  0  0  0  0  0  0  0  0  0
    0.6862    2.1863    0.2224 H   0  0  0  0  0  0  0  0  0  0  0  0
    2.1813    1.2816   -0.5922 H   0  0  0  0  0  0  0  0  0  0  0  0
    0.6963    0.6321   -2.3380 H   0  0  0  0  0  0  0  0  0  0  0  0
   -0.7054    0.9280   -1.3202 H   0  0  0  0  0  0  0  0  0  0  0  0
    1.0980   -1.5137   -1.2677 H   0  0  0  0  0  0  0  0  0  0  0  0
   -0.9318   -1.8452   -2.6601 H   0  0  0  0  0  0  0  0  0  0  0  0
   -1.9356   -1.3049   -1.3212 H   0  0  0  0  0  0  0  0  0  0  0  0
  1  2  2  3
  1  4  1  0
  1  5  1  0
  2  3  1  0
  2 27  1  0
  3  6  1  0
  3  7  1  0
  3  8  1  0
  9 10  1  0
  9 17  1  0
  9 18  1  0
  9 19  1  0
 10 11  1  0
 10 20  1  0
 10 21  1  0
 11 12  1  0
 11 22  1  0
 11 23  1  0
 12 13  1  0
 12 16  1  0
 12 24  1  0
 13 14  1  0
 13 25  1  0
 13 26  1  0
 14 15  1  0
 14 28  1  0
 15 16  1  0
 15 29  1  0
 15 30  1  0
 16 17  1  0
 16 31  1  0
 17 32  1  0
 17 33  1  0
M  RAD  1  14   2
M  END
>  <reaction>  (13) 
rxn_617

>  <mol_properties>  (13) 
{"0": {"label": "*4", "atom_type": "Cd"}, "1": {"label": "*3", "atom_type": "Cd"}, "12": {"label": "*0", "atom_type": "Cs"}, "13": {"label": "*1", "atom_type": "Cs"}, "26": {"label": "*2", "atom_type": "H0"}}

>  <type>  (13) 
unop_9

>  <geom_source>  (13) 
Heuristics

$$$$

     RDKit          3D

 33 33  0  0  0  0  0  0  0  0999 V2000
    0.7700    3.9167    1.6759 C   0  0  0  0  0  0  0  0  0  0  0  0
    0.1522    3.2976    0.6822 C   0  0  0  0  0  0  0  0  0  0  0  0
   -0.6004    3.9743   -0.4177 C   0  0  0  0  0  0  0  0  0  0  0  0
    0.7682    4.9986    1.7570 H   0  0  0  0  0  0  0  0  0  0  0  0
    1.2994    3.3670    2.4439 H   0  0  0  0  0  0  0  0  0  0  0  0
   -1.6434    3.6477   -0.4334 H   0  0  0  0  0  0  0  0  0  0  0  0
   -0.5817    5.0590   -0.3051 H   0  0  0  0  0  0  0  0  0  0  0  0
   -0.1751    3.7219   -1.3925 H   0  0  0  0  0  0  0  0  0  0  0  0
   -1.0339   -3.2351   -0.9703 C   0  0  0  0  0  0  0  0  0  0  0  0
   -1.0339   -3.2351    0.5603 C   0  0  0  0  0  0  0  0  0  0  0  0
    0.1092   -2.3987    1.1423 C   0  0  0  0  0  0  0  0  0  0  0  0
    0.0696   -0.9977    0.5582 C   0  0  0  0  0  0  0  0  0  0  0  0
    1.1886   -0.0239    0.9136 C   0  0  0  0  0  0  0  0  0  0  0  0
    1.1387    1.0467   -0.2050 C   0  0  0  0  0  3  0  0  0  0  0  0
    0.2452    0.4548   -1.3236 C   0  0  0  0  0  0  0  0  0  0  0  0
    0.1201   -1.0233   -0.9682 C   0  0  0  0  0  0  0  0  0  0  0  0
   -1.0339   -1.8186   -1.5523 C   0  0  0  0  0  0  0  0  0  0  0  0
   -0.1415   -3.7619   -1.3262 H   0  0  0  0  0  0  0  0  0  0  0  0
   -1.8948   -3.7961   -1.3410 H   0  0  0  0  0  0  0  0  0  0  0  0
   -1.9861   -2.8259    0.9162 H   0  0  0  0  0  0  0  0  0  0  0  0
   -0.9784   -4.2611    0.9310 H   0  0  0  0  0  0  0  0  0  0  0  0
    0.0419   -2.3727    2.2331 H   0  0  0  0  0  0  0  0  0  0  0  0
    1.0707   -2.8638    0.8942 H   0  0  0  0  0  0  0  0  0  0  0  0
   -0.8892   -0.5388    0.8407 H   0  0  0  0  0  0  0  0  0  0  0  0
    1.0798    0.4040    1.9110 H   0  0  0  0  0  0  0  0  0  0  0  0
    2.1462   -0.5524    0.8932 H   0  0  0  0  0  0  0  0  0  0  0  0
    0.6447    2.1739    0.2393 H   0  0  0  0  0  0  0  0  0  0  0  0
    2.1399    1.2691   -0.5753 H   0  0  0  0  0  0  0  0  0  0  0  0
    0.6548    0.6197   -2.3211 H   0  0  0  0  0  0  0  0  0  0  0  0
   -0.7469    0.9156   -1.3032 H   0  0  0  0  0  0  0  0  0  0  0  0
    1.0565   -1.5262   -1.2507 H   0  0  0  0  0  0  0  0  0  0  0  0
   -0.9733   -1.8576   -2.6431 H   0  0  0  0  0  0  0  0  0  0  0  0
   -1.9771   -1.3173   -1.3043 H   0  0  0  0  0  0  0  0  0  0  0  0
  1  2  2  3
  1  4  1  0
  1  5  1  0
  2  3  1  0
  2 27  1  0
  3  6  1  0
  3  7  1  0
  3  8  1  0
  9 10  1  0
  9 17  1  0
  9 18  1  0
  9 19  1  0
 10 11  1  0
 10 20  1  0
 10 21  1  0
 11 12  1  0
 11 22  1  0
 11 23  1  0
 12 13  1  0
 12 16  1  0
 12 24  1  0
 13 14  1  0
 13 25  1  0
 13 26  1  0
 14 15  1  0
 14 28  1  0
 15 16  1  0
 15 29  1  0
 15 30  1  0
 16 17  1  0
 16 31  1  0
 17 32  1  0
 17 33  1  0
M  RAD  1  14   2
M  END
>  <reaction>  (14) 
rxn_617

>  <mol_properties>  (14) 
{"0": {"label": "*4", "atom_type": "Cd"}, "1": {"label": "*3", "atom_type": "Cd"}, "12": {"label": "*0", "atom_type": "Cs"}, "13": {"label": "*1", "atom_type": "Cs"}, "26": {"label": "*2", "atom_type": "H0"}}

>  <type>  (14) 
unop_10

>  <geom_source>  (14) 
Heuristics

$$$$

     RDKit          3D

 33 33  0  0  0  0  0  0  0  0999 V2000
   -0.5486    4.0832   -0.2051 C   0  0  0  0  0  0  0  0  0  0  0  0
    0.1126    3.3020    0.6344 C   0  0  0  0  0  0  0  0  0  0  0  0
    0.9758    3.7807    1.7569 C   0  0  0  0  0  0  0  0  0  0  0  0
   -0.5031    5.1644   -0.1273 H   0  0  0  0  0  0  0  0  0  0  0  0
   -1.1587    3.6727   -0.9998 H   0  0  0  0  0  0  0  0  0  0  0  0
    2.0009    3.4197    1.6405 H   0  0  0  0  0  0  0  0  0  0  0  0
    0.9986    4.8701    1.8056 H   0  0  0  0  0  0  0  0  0  0  0  0
    0.6133    3.4007    2.7155 H   0  0  0  0  0  0  0  0  0  0  0  0
   -1.0736   -3.2307   -1.0181 C   0  0  0  0  0  0  0  0  0  0  0  0
   -1.0736   -3.2307    0.5125 C   0  0  0  0  0  0  0  0  0  0  0  0
    0.0695   -2.3943    1.0945 C   0  0  0  0  0  0  0  0  0  0  0  0
    0.0299   -0.9933    0.5104 C   0  0  0  0  0  0  0  0  0  0  0  0
    1.1490   -0.0195    0.8658 C   0  0  0  0  0  0  0  0  0  0  0  0
    1.0990    1.0510   -0.2528 C   0  0  0  0  0  3  0  0  0  0  0  0
    0.2055    0.4592   -1.3715 C   0  0  0  0  0  0  0  0  0  0  0  0
    0.0805   -1.0190   -1.0160 C   0  0  0  0  0  0  0  0  0  0  0  0
   -1.0736   -1.8143   -1.6001 C   0  0  0  0  0  0  0  0  0  0  0  0
   -0.1811   -3.7575   -1.3741 H   0  0  0  0  0  0  0  0  0  0  0  0
   -1.9344   -3.7918   -1.3889 H   0  0  0  0  0  0  0  0  0  0  0  0
   -2.0257   -2.8215    0.8684 H   0  0  0  0  0  0  0  0  0  0  0  0
   -1.0180   -4.2568    0.8832 H   0  0  0  0  0  0  0  0  0  0  0  0
    0.0023   -2.3684    2.1853 H   0  0  0  0  0  0  0  0  0  0  0  0
    1.0311   -2.8594    0.8464 H   0  0  0  0  0  0  0  0  0  0  0  0
   -0.9288   -0.5345    0.7929 H   0  0  0  0  0  0  0  0  0  0  0  0
    1.0402    0.4084    1.8632 H   0  0  0  0  0  0  0  0  0  0  0  0
    2.1066   -0.5481    0.8454 H   0  0  0  0  0  0  0  0  0  0  0  0
    0.6050    2.1783    0.1915 H   0  0  0  0  0  0  0  0  0  0  0  0
    2.1002    1.2735   -0.6231 H   0  0  0  0  0  0  0  0  0  0  0  0
    0.6152    0.6240   -2.3689 H   0  0  0  0  0  0  0  0  0  0  0  0
   -0.7865    0.9199   -1.3510 H   0  0  0  0  0  0  0  0  0  0  0  0
    1.0169   -1.5218   -1.2985 H   0  0  0  0  0  0  0  0  0  0  0  0
   -1.0129   -1.8532   -2.6910 H   0  0  0  0  0  0  0  0  0  0  0  0
   -2.0167   -1.3129   -1.3521 H   0  0  0  0  0  0  0  0  0  0  0  0
  1  2  2  3
  1  4  1  0
  1  5  1  0
  2  3  1  0
  2 27  1  0
  3  6  1  0
  3  7  1  0
  3  8  1  0
  9 10  1  0
  9 17  1  0
  9 18  1  0
  9 19  1  0
 10 11  1  0
 10 20  1  0
 10 21  1  0
 11 12  1  0
 11 22  1  0
 11 23  1  0
 12 13  1  0
 12 16  1  0
 12 24  1  0
 13 14  1  0
 13 25  1  0
 13 26  1  0
 14 15  1  0
 14 28  1  0
 15 16  1  0
 15 29  1  0
 15 30  1  0
 16 17  1  0
 16 31  1  0
 17 32  1  0
 17 33  1  0
M  RAD  1  14   2
M  END
>  <reaction>  (15) 
rxn_617

>  <mol_properties>  (15) 
{"0": {"label": "*4", "atom_type": "Cd"}, "1": {"label": "*3", "atom_type": "Cd"}, "12": {"label": "*0", "atom_type": "Cs"}, "13": {"label": "*1", "atom_type": "Cs"}, "26": {"label": "*2", "atom_type": "H0"}}

>  <type>  (15) 
unop_11

>  <geom_source>  (15) 
Heuristics

$$$$

     RDKit          3D

 33 33  0  0  0  0  0  0  0  0999 V2000
   -0.1924    3.3823    1.9158 C   0  0  0  0  0  0  0  0  0  0  0  0
    0.1784    3.3047    0.6475 C   0  0  0  0  0  0  0  0  0  0  0  0
    0.0811    4.4163   -0.3471 C   0  0  0  0  0  0  0  0  0  0  0  0
   -0.6072    4.2956    2.3294 H   0  0  0  0  0  0  0  0  0  0  0  0
   -0.0956    2.5382    2.5870 H   0  0  0  0  0  0  0  0  0  0  0  0
   -0.5480    4.1274   -1.1930 H   0  0  0  0  0  0  0  0  0  0  0  0
   -0.3392    5.3172    0.1017 H   0  0  0  0  0  0  0  0  0  0  0  0
    1.0655    4.6614   -0.7539 H   0  0  0  0  0  0  0  0  0  0  0  0
   -1.0078   -3.2280   -1.0051 C   0  0  0  0  0  0  0  0  0  0  0  0
   -1.0078   -3.2280    0.5255 C   0  0  0  0  0  0  0  0  0  0  0  0
    0.1353   -2.3916    1.1075 C   0  0  0  0  0  0  0  0  0  0  0  0
    0.0957   -0.9906    0.5234 C   0  0  0  0  0  0  0  0  0  0  0  0
    1.2148   -0.0168    0.8788 C   0  0  0  0  0  0  0  0  0  0  0  0
    1.1648    1.0537   -0.2398 C   0  0  0  0  0  3  0  0  0  0  0  0
    0.2713    0.4619   -1.3584 C   0  0  0  0  0  0  0  0  0  0  0  0
    0.1463   -1.0163   -1.0030 C   0  0  0  0  0  0  0  0  0  0  0  0
   -1.0078   -1.8116   -1.5871 C   0  0  0  0  0  0  0  0  0  0  0  0
   -0.1153   -3.7548   -1.3610 H   0  0  0  0  0  0  0  0  0  0  0  0
   -1.8687   -3.7891   -1.3758 H   0  0  0  0  0  0  0  0  0  0  0  0
   -1.9599   -2.8188    0.8814 H   0  0  0  0  0  0  0  0  0  0  0  0
   -0.9522   -4.2541    0.8962 H   0  0  0  0  0  0  0  0  0  0  0  0
    0.0681   -2.3657    2.1983 H   0  0  0  0  0  0  0  0  0  0  0  0
    1.0969   -2.8567    0.8594 H   0  0  0  0  0  0  0  0  0  0  0  0
   -0.8630   -0.5318    0.8059 H   0  0  0  0  0  0  0  0  0  0  0  0
    1.1060    0.4111    1.8763 H   0  0  0  0  0  0  0  0  0  0  0  0
    2.1724   -0.5454    0.8584 H   0  0  0  0  0  0  0  0  0  0  0  0
    0.6708    2.1810    0.2045 H   0  0  0  0  0  0  0  0  0  0  0  0
    2.1660    1.2762   -0.6101 H   0  0  0  0  0  0  0  0  0  0  0  0
    0.6810    0.6267   -2.3558 H   0  0  0  0  0  0  0  0  0  0  0  0
   -0.7207    0.9226   -1.3380 H   0  0  0  0  0  0  0  0  0  0  0  0
    1.0827   -1.5191   -1.2855 H   0  0  0  0  0  0  0  0  0  0  0  0
   -0.9471   -1.8505   -2.6779 H   0  0  0  0  0  0  0  0  0  0  0  0
   -1.9509   -1.3102   -1.3390 H   0  0  0  0  0  0  0  0  0  0  0  0
  1  2  2  3
  1  4  1  0
  1  5  1  0
  2  3  1  0
  2 27  1  0
  3  6  1  0
  3  7  1  0
  3  8  1  0
  9 10  1  0
  9 17  1  0
  9 18  1  0
  9 19  1  0
 10 11  1  0
 10 20  1  0
 10 21  1  0
 11 12  1  0
 11 22  1  0
 11 23  1  0
 12 13  1  0
 12 16  1  0
 12 24  1  0
 13 14  1  0
 13 25  1  0
 13 26  1  0
 14 15  1  0
 14 28  1  0
 15 16  1  0
 15 29  1  0
 15 30  1  0
 16 17  1  0
 16 31  1  0
 17 32  1  0
 17 33  1  0
M  RAD  1  14   2
M  END
>  <reaction>  (16) 
rxn_617

>  <mol_properties>  (16) 
{"0": {"label": "*4", "atom_type": "Cd"}, "1": {"label": "*3", "atom_type": "Cd"}, "12": {"label": "*0", "atom_type": "Cs"}, "13": {"label": "*1", "atom_type": "Cs"}, "26": {"label": "*2", "atom_type": "H0"}}

>  <type>  (16) 
unop_12

>  <geom_source>  (16) 
Heuristics

$$$$

     RDKit          3D

 33 33  0  0  0  0  0  0  0  0999 V2000
   -1.3706   -0.3551    0.7589 C   0  0  0  0  0  0  0  0  0  0  0  0
   -0.7639   -0.0790   -0.6025 C   0  0  0  0  0  0  0  0  0  0  0  0
   -2.7175   -1.0910    0.6133 C   0  0  0  0  0  0  0  0  0  0  0  0
   -1.5973    0.9702   -1.3650 C   0  0  0  0  0  0  0  0  0  0  0  0
   -3.5067   -0.6079   -0.6328 C   0  0  0  0  0  0  0  0  0  0  0  0
   -3.1154    0.8190   -1.0796 C   0  0  0  0  0  0  0  0  0  0  0  0
   -0.2720   -1.0964    1.5059 C   0  0  0  0  0  0  0  0  0  0  0  0
    0.6779    0.2971   -0.2938 C   0  0  0  0  0  0  0  0  0  0  0  0
    3.5716    1.6002    0.4540 C   0  0  0  0  0  0  0  0  0  0  0  0
    1.0334   -0.5079    0.9602 C   0  0  0  0  0  3  0  0  0  0  0  0
    3.4637    0.1084    0.4096 C   0  0  0  0  0  0  0  0  0  0  0  0
    4.4189   -0.6379   -0.1480 C   0  0  0  0  0  0  0  0  0  0  0  0
   -1.5495    0.6141    1.2832 H   0  0  0  0  0  0  0  0  0  0  0  0
   -0.7524   -1.0242   -1.1961 H   0  0  0  0  0  0  0  0  0  0  0  0
   -2.5566   -2.1878    0.5275 H   0  0  0  0  0  0  0  0  0  0  0  0
   -3.3219   -0.9122    1.5290 H   0  0  0  0  0  0  0  0  0  0  0  0
   -3.3149   -1.3045   -1.4784 H   0  0  0  0  0  0  0  0  0  0  0  0
   -4.5964   -0.6422   -0.4173 H   0  0  0  0  0  0  0  0  0  0  0  0
   -3.4077    1.5301   -0.2758 H   0  0  0  0  0  0  0  0  0  0  0  0
   -3.6925    1.0931   -1.9889 H   0  0  0  0  0  0  0  0  0  0  0  0
   -1.4097    0.8509   -2.4542 H   0  0  0  0  0  0  0  0  0  0  0  0
   -1.2841    1.9988   -1.0822 H   0  0  0  0  0  0  0  0  0  0  0  0
   -0.3105   -2.1868    1.2889 H   0  0  0  0  0  0  0  0  0  0  0  0
   -0.3479   -0.9304    2.6014 H   0  0  0  0  0  0  0  0  0  0  0  0
    1.3497    0.0478   -1.1436 H   0  0  0  0  0  0  0  0  0  0  0  0
    0.7657    1.3787   -0.0550 H   0  0  0  0  0  0  0  0  0  0  0  0
    4.4781    1.8986    1.0219 H   0  0  0  0  0  0  0  0  0  0  0  0
    3.6296    2.0075   -0.5775 H   0  0  0  0  0  0  0  0  0  0  0  0
    2.6768    2.0212    0.9574 H   0  0  0  0  0  0  0  0  0  0  0  0
    1.7561   -1.3187    0.7219 H   0  0  0  0  0  0  0  0  0  0  0  0
    2.4462   -0.4556    0.9110 H   0  0  0  0  0  0  0  0  0  0  0  0
    4.3180   -1.7177   -0.1681 H   0  0  0  0  0  0  0  0  0  0  0  0
    5.3016   -0.1805   -0.5852 H   0  0  0  0  0  0  0  0  0  0  0  0
  1  3  1  0
  1  7  1  0
  1  2  1  0
  1 13  1  0
  2  4  1  0
  2  8  1  0
  2 14  1  0
  3  5  1  0
  3 15  1  0
  3 16  1  0
  4  6  1  0
  4 21  1  0
  4 22  1  0
  5  6  1  0
  5 17  1  0
  5 18  1  0
  6 19  1  0
  6 20  1  0
  7 10  1  0
  7 23  1  0
  7 24  1  0
  8 10  1  0
  8 25  1  0
  8 26  1  0
  9 11  1  0
  9 27  1  0
  9 28  1  0
  9 29  1  0
 10 30  1  0
 11 12  2  3
 11 31  1  0
 12 32  1  0
 12 33  1  0
M  RAD  1  10   2
M  END
>  <reaction>  (17) 
rxn_617

>  <mol_properties>  (17) 
{"0": {"label": "*4", "atom_type": "Cd"}, "1": {"label": "*3", "atom_type": "Cd"}, "12": {"label": "*0", "atom_type": "Cs"}, "13": {"label": "*1", "atom_type": "Cs"}, "26": {"label": "*2", "atom_type": "H0"}}

>  <type>  (17) 
unop_13

>  <geom_source>  (17) 
AutoTST

$$$$
