
     RDKit          3D

 15 14  0  0  0  0  0  0  0  0999 V2000
    2.1256    0.4849   -0.6284 C   0  0  0  0  0  0  0  0  0  0  0  0
    1.1128    0.2141    0.1794 C   0  0  0  0  0  0  0  0  0  0  0  0
   -0.3017   -0.0425   -0.2513 C   0  0  0  0  0  0  0  0  0  0  0  0
   -1.2427    1.0075    0.3423 C   0  0  0  0  0  0  0  0  0  0  0  0
   -0.7381   -1.4526    0.1504 C   0  0  0  0  0  0  0  0  0  0  0  0
    3.1243    0.6602   -0.2486 H   0  0  0  0  0  0  0  0  0  0  0  0
    1.9908    0.5411   -1.7036 H   0  0  0  0  0  0  0  0  0  0  0  0
    1.2888    0.1665    1.2533 H   0  0  0  0  0  0  0  0  0  0  0  0
   -0.3426    0.0343   -1.3424 H   0  0  0  0  0  0  0  0  0  0  0  0
   -0.9570    2.0133    0.0315 H   0  0  0  0  0  0  0  0  0  0  0  0
   -1.2189    0.9728    1.4350 H   0  0  0  0  0  0  0  0  0  0  0  0
   -2.2723    0.8287    0.0254 H   0  0  0  0  0  0  0  0  0  0  0  0
   -0.6964   -1.5744    1.2363 H   0  0  0  0  0  0  0  0  0  0  0  0
   -0.0911   -2.2079   -0.2978 H   0  0  0  0  0  0  0  0  0  0  0  0
   -1.7646   -1.6461   -0.1677 H   0  0  0  0  0  0  0  0  0  0  0  0
  1  2  2  3
  1  6  1  0
  1  7  1  0
  2  3  1  0
  2  8  1  0
  3  4  1  0
  3  5  1  0
  3  9  1  0
  4 10  1  0
  4 11  1  0
  4 12  1  0
  5 13  1  0
  5 14  1  0
  5 15  1  0
M  END
>  <reaction>  (1) 
rxn_1106

>  <mol_properties>  (1) 
{"2": {"label": "donator", "atom_type": "Cs"}, "8": {"label": "d_hydrogen", "atom_type": "H0"}}

>  <type>  (1) 
r1h

$$$$

     RDKit          3D

  6  5  0  0  0  0  0  0  0  0999 V2000
   -0.7309   -0.0987    0.0327 C   0  0  0  0  0  0  0  0  0  0  0  0
    0.6208    0.0065   -0.0096 C   0  0  0  0  0  0  0  0  0  0  0  0
    1.6572   -1.2972    0.2837 S   0  0  0  0  0  1  0  0  0  0  0  0
   -1.3651    0.7588   -0.1608 H   0  0  0  0  0  0  0  0  0  0  0  0
   -1.2044   -1.0453    0.2616 H   0  0  0  0  0  0  0  0  0  0  0  0
    1.0609    0.9725   -0.2426 H   0  0  0  0  0  0  0  0  0  0  0  0
  1  2  2  3
  1  4  1  0
  1  5  1  0
  2  3  1  0
  2  6  1  0
M  RAD  1   3   2
M  END
>  <reaction>  (2) 
rxn_1106

>  <mol_properties>  (2) 
{"0": {"label": "acceptor", "atom_type": "Cs"}}

>  <type>  (2) 
r2

$$$$

     RDKit          3D

  7  6  0  0  0  0  0  0  0  0999 V2000
   -0.6782    0.0507    0.0301 C   0  0  0  0  0  0  0  0  0  0  0  0
    0.8092    0.0996    0.0213 C   0  0  0  0  0  0  0  0  0  0  0  0
    1.7473    0.7521    1.1507 S   0  0  0  0  0  0  0  0  0  0  0  0
   -1.0667    0.5456   -0.8653 H   0  0  0  0  0  0  0  0  0  0  0  0
   -1.0112   -0.9904   -0.0239 H   0  0  0  0  0  0  0  0  0  0  0  0
   -1.0920    0.5225    0.9188 H   0  0  0  0  0  0  0  0  0  0  0  0
    1.2740   -0.3620   -0.8520 H   0  0  0  0  0  0  0  0  0  0  0  0
  1  2  1  0
  1  4  1  0
  1  5  1  0
  1  6  1  0
  2  3  2  0
  2  7  1  0
M  END
>  <reaction>  (3) 
rxn_1106

>  <mol_properties>  (3) 
{"0": {"label": "acceptor", "atom_type": "Cs"}, "6": {"label": "a_hydrogen", "atom_type": "H0"}}

>  <type>  (3) 
r2h

$$$$

     RDKit          3D

 21 19  0  0  0  0  0  0  0  0999 V2000
   -0.7336    1.4649    0.0821 C   0  0  0  0  0  0  0  0  0  0  0  0
   -0.1615    1.1205   -1.1746 C   0  0  0  0  0  0  0  0  0  0  0  0
    1.4214    1.3003   -1.5800 S   0  0  0  0  0  0  0  0  0  0  0  0
   -1.8113    1.6106    0.1094 H   0  0  0  0  0  0  0  0  0  0  0  0
   -0.1601    2.1452    0.7056 H   0  0  0  0  0  0  0  0  0  0  0  0
   -0.8348    0.6599   -1.8962 H   0  0  0  0  0  0  0  0  0  0  0  0
    0.1527   -2.2624   -0.3273 C   0  0  0  0  0  0  0  0  0  0  0  0
   -0.6911   -1.7825    0.5905 C   0  0  0  0  0  0  0  0  0  0  0  0
   -0.3890   -0.7433    1.5682 C   0  0  0  0  0  3  0  0  0  0  0  0
    1.0573   -0.4926    1.9153 C   0  0  0  0  0  0  0  0  0  0  0  0
   -1.3570   -0.6108    2.7180 C   0  0  0  0  0  0  0  0  0  0  0  0
   -0.1752   -2.9959   -1.0520 H   0  0  0  0  0  0  0  0  0  0  0  0
    1.1875   -1.9500   -0.3826 H   0  0  0  0  0  0  0  0  0  0  0  0
   -1.7211   -2.1300    0.5753 H   0  0  0  0  0  0  0  0  0  0  0  0
   -0.6459    0.3481    0.8047 H   0  0  0  0  0  0  0  0  0  0  0  0
    1.6586   -0.2843    1.0297 H   0  0  0  0  0  0  0  0  0  0  0  0
    1.4833   -1.3652    2.4194 H   0  0  0  0  0  0  0  0  0  0  0  0
    1.1473    0.3639    2.5845 H   0  0  0  0  0  0  0  0  0  0  0  0
   -1.1670   -1.3864    3.4670 H   0  0  0  0  0  0  0  0  0  0  0  0
   -2.3913   -0.7141    2.3860 H   0  0  0  0  0  0  0  0  0  0  0  0
   -1.2484    0.3558    3.2131 H   0  0  0  0  0  0  0  0  0  0  0  0
  1  2  1  0
  1  4  1  0
  1  5  1  0
  1 15  1  0
  2  3  2  0
  2  6  1  0
  7  8  2  3
  7 12  1  0
  7 13  1  0
  8  9  1  0
  8 14  1  0
  9 10  1  0
  9 11  1  0
 10 16  1  0
 10 17  1  0
 10 18  1  0
 11 19  1  0
 11 20  1  0
 11 21  1  0
M  RAD  1   9   2
M  END
>  <reaction>  (4) 
rxn_1106

>  <mol_properties>  (4) 
{"0": {"label": "*1", "atom_type": "Cs"}, "1": {"label": "*0", "atom_type": "CS"}, "7": {"label": "*4", "atom_type": "Cd"}, "8": {"label": "*3", "atom_type": "Cs"}, "14": {"label": "*2", "atom_type": "H0"}}

>  <type>  (4) 
ts

$$$$

     RDKit          3D

 21 19  0  0  0  0  0  0  0  0999 V2000
    0.5750    0.8309   -0.5809 C   0  0  0  0  0  0  0  0  0  0  0  0
   -0.6392    1.6486   -0.3134 C   0  0  0  0  0  0  0  0  0  0  0  0
   -1.2743    2.7575   -1.2873 S   0  0  0  0  0  0  0  0  0  0  0  0
    1.3119    0.9987    0.2106 H   0  0  0  0  0  0  0  0  0  0  0  0
    1.0150    1.0665   -1.5476 H   0  0  0  0  0  0  0  0  0  0  0  0
   -1.1190    1.4492    0.6467 H   0  0  0  0  0  0  0  0  0  0  0  0
    0.5750   -2.5032   -1.2157 C   0  0  0  0  0  0  0  0  0  0  0  0
    0.5750   -2.5032    0.1078 C   0  0  0  0  0  0  0  0  0  0  0  0
    0.5750   -1.2818    0.9799 C   0  0  0  0  0  3  0  0  0  0  0  0
    1.8343   -1.2413    1.8475 C   0  0  0  0  0  0  0  0  0  0  0  0
   -0.6843   -1.2413    1.8475 C   0  0  0  0  0  0  0  0  0  0  0  0
    0.5750   -3.4249   -1.7839 H   0  0  0  0  0  0  0  0  0  0  0  0
    0.5750   -1.5766   -1.7802 H   0  0  0  0  0  0  0  0  0  0  0  0
    0.5750   -3.4545    0.6384 H   0  0  0  0  0  0  0  0  0  0  0  0
    0.5750   -0.2254    0.1994 H   0  0  0  0  0  0  0  0  0  0  0  0
    2.7359   -1.2354    1.2333 H   0  0  0  0  0  0  0  0  0  0  0  0
    1.8789   -2.1152    2.5033 H   0  0  0  0  0  0  0  0  0  0  0  0
    1.8419   -0.3501    2.4785 H   0  0  0  0  0  0  0  0  0  0  0  0
   -0.7289   -2.1152    2.5033 H   0  0  0  0  0  0  0  0  0  0  0  0
   -1.5858   -1.2354    1.2333 H   0  0  0  0  0  0  0  0  0  0  0  0
   -0.6918   -0.3501    2.4785 H   0  0  0  0  0  0  0  0  0  0  0  0
  1  2  1  0
  1  4  1  0
  1  5  1  0
  1 15  1  0
  2  3  2  0
  2  6  1  0
  7  8  2  3
  7 12  1  0
  7 13  1  0
  8  9  1  0
  8 14  1  0
  9 10  1  0
  9 11  1  0
 10 16  1  0
 10 17  1  0
 10 18  1  0
 11 19  1  0
 11 20  1  0
 11 21  1  0
M  RAD  1   9   2
M  END
>  <reaction>  (5) 
rxn_1106

>  <mol_properties>  (5) 
{"0": {"label": "*1", "atom_type": "Cs"}, "1": {"label": "*0", "atom_type": "CS"}, "7": {"label": "*4", "atom_type": "Cd"}, "8": {"label": "*3", "atom_type": "Cs"}, "14": {"label": "*2", "atom_type": "H0"}}

>  <type>  (5) 
unop_1

>  <geom_source>  (5) 
Heuristics

$$$$

     RDKit          3D

 21 19  0  0  0  0  0  0  0  0999 V2000
    0.1412    1.3836    0.0808 C   0  0  0  0  0  0  0  0  0  0  0  0
   -0.5599    1.0632   -1.1922 C   0  0  0  0  0  0  0  0  0  0  0  0
   -0.1215    1.5321   -2.6651 S   0  0  0  0  0  0  0  0  0  0  0  0
   -0.5450    1.9032    0.7567 H   0  0  0  0  0  0  0  0  0  0  0  0
    1.0239    1.9967   -0.0882 H   0  0  0  0  0  0  0  0  0  0  0  0
   -1.4545    0.4484   -1.0761 H   0  0  0  0  0  0  0  0  0  0  0  0
    0.1412   -1.9505   -0.5540 C   0  0  0  0  0  0  0  0  0  0  0  0
    0.1412   -1.9505    0.7695 C   0  0  0  0  0  0  0  0  0  0  0  0
    0.1412   -0.7291    1.6416 C   0  0  0  0  0  3  0  0  0  0  0  0
    1.4005   -0.6887    2.5092 C   0  0  0  0  0  0  0  0  0  0  0  0
   -1.1182   -0.6887    2.5092 C   0  0  0  0  0  0  0  0  0  0  0  0
    0.1412   -2.8722   -1.1222 H   0  0  0  0  0  0  0  0  0  0  0  0
    0.1412   -1.0239   -1.1185 H   0  0  0  0  0  0  0  0  0  0  0  0
    0.1412   -2.9018    1.3001 H   0  0  0  0  0  0  0  0  0  0  0  0
    0.1412    0.3273    0.8611 H   0  0  0  0  0  0  0  0  0  0  0  0
    2.3020   -0.6828    1.8951 H   0  0  0  0  0  0  0  0  0  0  0  0
    1.4450   -1.5625    3.1650 H   0  0  0  0  0  0  0  0  0  0  0  0
    1.4080    0.2025    3.1402 H   0  0  0  0  0  0  0  0  0  0  0  0
   -1.1627   -1.5625    3.1650 H   0  0  0  0  0  0  0  0  0  0  0  0
   -2.0197   -0.6828    1.8951 H   0  0  0  0  0  0  0  0  0  0  0  0
   -1.1257    0.2025    3.1402 H   0  0  0  0  0  0  0  0  0  0  0  0
  1  2  1  0
  1  4  1  0
  1  5  1  0
  1 15  1  0
  2  3  2  0
  2  6  1  0
  7  8  2  3
  7 12  1  0
  7 13  1  0
  8  9  1  0
  8 14  1  0
  9 10  1  0
  9 11  1  0
 10 16  1  0
 10 17  1  0
 10 18  1  0
 11 19  1  0
 11 20  1  0
 11 21  1  0
M  RAD  1   9   2
M  END
>  <reaction>  (6) 
rxn_1106

>  <mol_properties>  (6) 
{"0": {"label": "*1", "atom_type": "Cs"}, "1": {"label": "*0", "atom_type": "CS"}, "7": {"label": "*4", "atom_type": "Cd"}, "8": {"label": "*3", "atom_type": "Cs"}, "14": {"label": "*2", "atom_type": "H0"}}

>  <type>  (6) 
unop_2

>  <geom_source>  (6) 
Heuristics

$$$$

     RDKit          3D

 21 19  0  0  0  0  0  0  0  0999 V2000
    0.4413    0.7087   -0.7853 C   0  0  0  0  0  0  0  0  0  0  0  0
   -0.2597    1.8313   -0.1050 C   0  0  0  0  0  0  0  0  0  0  0  0
   -1.0875    3.0092   -0.8183 S   0  0  0  0  0  0  0  0  0  0  0  0
    1.5023    0.7228   -0.5175 H   0  0  0  0  0  0  0  0  0  0  0  0
    0.3352    0.7631   -1.8667 H   0  0  0  0  0  0  0  0  0  0  0  0
   -0.1830    1.8218    0.9839 H   0  0  0  0  0  0  0  0  0  0  0  0
    0.4413   -2.6254   -1.4201 C   0  0  0  0  0  0  0  0  0  0  0  0
    0.4413   -2.6254   -0.0966 C   0  0  0  0  0  0  0  0  0  0  0  0
    0.4413   -1.4040    0.7754 C   0  0  0  0  0  3  0  0  0  0  0  0
    1.7006   -1.3636    1.6431 C   0  0  0  0  0  0  0  0  0  0  0  0
   -0.8180   -1.3636    1.6431 C   0  0  0  0  0  0  0  0  0  0  0  0
    0.4413   -3.5471   -1.9884 H   0  0  0  0  0  0  0  0  0  0  0  0
    0.4413   -1.6988   -1.9847 H   0  0  0  0  0  0  0  0  0  0  0  0
    0.4413   -3.5767    0.4339 H   0  0  0  0  0  0  0  0  0  0  0  0
    0.4413   -0.3476   -0.0050 H   0  0  0  0  0  0  0  0  0  0  0  0
    2.6022   -1.3577    1.0289 H   0  0  0  0  0  0  0  0  0  0  0  0
    1.7452   -2.2374    2.2989 H   0  0  0  0  0  0  0  0  0  0  0  0
    1.7081   -0.4724    2.2741 H   0  0  0  0  0  0  0  0  0  0  0  0
   -0.8626   -2.2374    2.2989 H   0  0  0  0  0  0  0  0  0  0  0  0
   -1.7196   -1.3577    1.0289 H   0  0  0  0  0  0  0  0  0  0  0  0
   -0.8255   -0.4724    2.2741 H   0  0  0  0  0  0  0  0  0  0  0  0
  1  2  1  0
  1  4  1  0
  1  5  1  0
  1 15  1  0
  2  3  2  0
  2  6  1  0
  7  8  2  3
  7 12  1  0
  7 13  1  0
  8  9  1  0
  8 14  1  0
  9 10  1  0
  9 11  1  0
 10 16  1  0
 10 17  1  0
 10 18  1  0
 11 19  1  0
 11 20  1  0
 11 21  1  0
M  RAD  1   9   2
M  END
>  <reaction>  (7) 
rxn_1106

>  <mol_properties>  (7) 
{"0": {"label": "*1", "atom_type": "Cs"}, "1": {"label": "*0", "atom_type": "CS"}, "7": {"label": "*4", "atom_type": "Cd"}, "8": {"label": "*3", "atom_type": "Cs"}, "14": {"label": "*2", "atom_type": "H0"}}

>  <type>  (7) 
unop_3

>  <geom_source>  (7) 
Heuristics

$$$$

     RDKit          3D

 21 19  0  0  0  0  0  0  0  0999 V2000
   -0.7696    1.2305   -0.5052 C   0  0  0  0  0  0  0  0  0  0  0  0
    0.4447    1.2150   -1.3654 C   0  0  0  0  0  0  0  0  0  0  0  0
    1.8677    1.8742   -1.0162 S   0  0  0  0  0  0  0  0  0  0  0  0
   -1.5958    1.7030   -1.0453 H   0  0  0  0  0  0  0  0  0  0  0  0
   -0.5943    1.7571    0.4305 H   0  0  0  0  0  0  0  0  0  0  0  0
    0.3201    0.6971   -2.3182 H   0  0  0  0  0  0  0  0  0  0  0  0
   -0.7696   -2.1036   -1.1399 C   0  0  0  0  0  0  0  0  0  0  0  0
   -0.7696   -2.1036    0.1836 C   0  0  0  0  0  0  0  0  0  0  0  0
   -0.7696   -0.8822    1.0556 C   0  0  0  0  0  3  0  0  0  0  0  0
    0.4897   -0.8418    1.9233 C   0  0  0  0  0  0  0  0  0  0  0  0
   -2.0289   -0.8418    1.9233 C   0  0  0  0  0  0  0  0  0  0  0  0
   -0.7696   -3.0253   -1.7082 H   0  0  0  0  0  0  0  0  0  0  0  0
   -0.7696   -1.1771   -1.7045 H   0  0  0  0  0  0  0  0  0  0  0  0
   -0.7696   -3.0549    0.7141 H   0  0  0  0  0  0  0  0  0  0  0  0
   -0.7696    0.1742    0.2752 H   0  0  0  0  0  0  0  0  0  0  0  0
    1.3913   -0.8359    1.3091 H   0  0  0  0  0  0  0  0  0  0  0  0
    0.5343   -1.7156    2.5791 H   0  0  0  0  0  0  0  0  0  0  0  0
    0.4973    0.0494    2.5543 H   0  0  0  0  0  0  0  0  0  0  0  0
   -2.0735   -1.7156    2.5791 H   0  0  0  0  0  0  0  0  0  0  0  0
   -2.9304   -0.8359    1.3091 H   0  0  0  0  0  0  0  0  0  0  0  0
   -2.0364    0.0494    2.5543 H   0  0  0  0  0  0  0  0  0  0  0  0
  1  2  1  0
  1  4  1  0
  1  5  1  0
  1 15  1  0
  2  3  2  0
  2  6  1  0
  7  8  2  3
  7 12  1  0
  7 13  1  0
  8  9  1  0
  8 14  1  0
  9 10  1  0
  9 11  1  0
 10 16  1  0
 10 17  1  0
 10 18  1  0
 11 19  1  0
 11 20  1  0
 11 21  1  0
M  RAD  1   9   2
M  END
>  <reaction>  (8) 
rxn_1106

>  <mol_properties>  (8) 
{"0": {"label": "*1", "atom_type": "Cs"}, "1": {"label": "*0", "atom_type": "CS"}, "7": {"label": "*4", "atom_type": "Cd"}, "8": {"label": "*3", "atom_type": "Cs"}, "14": {"label": "*2", "atom_type": "H0"}}

>  <type>  (8) 
unop_4

>  <geom_source>  (8) 
Heuristics

$$$$

     RDKit          3D

 21 19  0  0  0  0  0  0  0  0999 V2000
    0.2653    0.6719   -0.9998 C   0  0  0  0  0  0  0  0  0  0  0  0
    0.2653    1.9062   -0.1684 C   0  0  0  0  0  0  0  0  0  0  0  0
   -0.8342    3.0773   -0.2021 S   0  0  0  0  0  0  0  0  0  0  0  0
    1.1891    0.6235   -1.5844 H   0  0  0  0  0  0  0  0  0  0  0  0
   -0.5933    0.6351   -1.6669 H   0  0  0  0  0  0  0  0  0  0  0  0
    1.1087    1.9908    0.5195 H   0  0  0  0  0  0  0  0  0  0  0  0
    0.2652   -2.6621   -1.6345 C   0  0  0  0  0  0  0  0  0  0  0  0
    0.2652   -2.6621   -0.3110 C   0  0  0  0  0  0  0  0  0  0  0  0
    0.2652   -1.4407    0.5610 C   0  0  0  0  0  3  0  0  0  0  0  0
    1.5246   -1.4003    1.4287 C   0  0  0  0  0  0  0  0  0  0  0  0
   -0.9941   -1.4003    1.4287 C   0  0  0  0  0  0  0  0  0  0  0  0
    0.2652   -3.5838   -2.2028 H   0  0  0  0  0  0  0  0  0  0  0  0
    0.2652   -1.7356   -2.1991 H   0  0  0  0  0  0  0  0  0  0  0  0
    0.2652   -3.6134    0.2195 H   0  0  0  0  0  0  0  0  0  0  0  0
    0.2653   -0.3843   -0.2194 H   0  0  0  0  0  0  0  0  0  0  0  0
    2.4261   -1.3944    0.8145 H   0  0  0  0  0  0  0  0  0  0  0  0
    1.5691   -2.2741    2.0845 H   0  0  0  0  0  0  0  0  0  0  0  0
    1.5321   -0.5091    2.0597 H   0  0  0  0  0  0  0  0  0  0  0  0
   -1.0386   -2.2741    2.0845 H   0  0  0  0  0  0  0  0  0  0  0  0
   -1.8956   -1.3944    0.8145 H   0  0  0  0  0  0  0  0  0  0  0  0
   -1.0016   -0.5091    2.0597 H   0  0  0  0  0  0  0  0  0  0  0  0
  1  2  1  0
  1  4  1  0
  1  5  1  0
  1 15  1  0
  2  3  2  0
  2  6  1  0
  7  8  2  3
  7 12  1  0
  7 13  1  0
  8  9  1  0
  8 14  1  0
  9 10  1  0
  9 11  1  0
 10 16  1  0
 10 17  1  0
 10 18  1  0
 11 19  1  0
 11 20  1  0
 11 21  1  0
M  RAD  1   9   2
M  END
>  <reaction>  (9) 
rxn_1106

>  <mol_properties>  (9) 
{"0": {"label": "*1", "atom_type": "Cs"}, "1": {"label": "*0", "atom_type": "CS"}, "7": {"label": "*4", "atom_type": "Cd"}, "8": {"label": "*3", "atom_type": "Cs"}, "14": {"label": "*2", "atom_type": "H0"}}

>  <type>  (9) 
unop_5

>  <geom_source>  (9) 
Heuristics

$$$$

     RDKit          3D

 21 19  0  0  0  0  0  0  0  0999 V2000
   -0.7194    1.0269   -0.8444 C   0  0  0  0  0  0  0  0  0  0  0  0
    0.6826    1.4281   -1.1408 C   0  0  0  0  0  0  0  0  0  0  0  0
    1.6338    2.3261   -0.2079 S   0  0  0  0  0  0  0  0  0  0  0  0
   -1.3790    1.3821   -1.6423 H   0  0  0  0  0  0  0  0  0  0  0  0
   -1.0574    1.4190    0.1125 H   0  0  0  0  0  0  0  0  0  0  0  0
    1.0696    1.0587   -2.0924 H   0  0  0  0  0  0  0  0  0  0  0  0
   -0.7194   -2.3071   -1.4792 C   0  0  0  0  0  0  0  0  0  0  0  0
   -0.7194   -2.3071   -0.1557 C   0  0  0  0  0  0  0  0  0  0  0  0
   -0.7194   -1.0857    0.7164 C   0  0  0  0  0  3  0  0  0  0  0  0
    0.5399   -1.0453    1.5840 C   0  0  0  0  0  0  0  0  0  0  0  0
   -1.9788   -1.0453    1.5840 C   0  0  0  0  0  0  0  0  0  0  0  0
   -0.7194   -3.2288   -2.0474 H   0  0  0  0  0  0  0  0  0  0  0  0
   -0.7194   -1.3806   -2.0437 H   0  0  0  0  0  0  0  0  0  0  0  0
   -0.7194   -3.2584    0.3749 H   0  0  0  0  0  0  0  0  0  0  0  0
   -0.7194   -0.0293   -0.0641 H   0  0  0  0  0  0  0  0  0  0  0  0
    1.4414   -1.0394    0.9698 H   0  0  0  0  0  0  0  0  0  0  0  0
    0.5844   -1.9191    2.2398 H   0  0  0  0  0  0  0  0  0  0  0  0
    0.5474   -0.1541    2.2150 H   0  0  0  0  0  0  0  0  0  0  0  0
   -2.0233   -1.9191    2.2398 H   0  0  0  0  0  0  0  0  0  0  0  0
   -2.8803   -1.0394    0.9698 H   0  0  0  0  0  0  0  0  0  0  0  0
   -1.9863   -0.1541    2.2150 H   0  0  0  0  0  0  0  0  0  0  0  0
  1  2  1  0
  1  4  1  0
  1  5  1  0
  1 15  1  0
  2  3  2  0
  2  6  1  0
  7  8  2  3
  7 12  1  0
  7 13  1  0
  8  9  1  0
  8 14  1  0
  9 10  1  0
  9 11  1  0
 10 16  1  0
 10 17  1  0
 10 18  1  0
 11 19  1  0
 11 20  1  0
 11 21  1  0
M  RAD  1   9   2
M  END
>  <reaction>  (10) 
rxn_1106

>  <mol_properties>  (10) 
{"0": {"label": "*1", "atom_type": "Cs"}, "1": {"label": "*0", "atom_type": "CS"}, "7": {"label": "*4", "atom_type": "Cd"}, "8": {"label": "*3", "atom_type": "Cs"}, "14": {"label": "*2", "atom_type": "H0"}}

>  <type>  (10) 
unop_6

>  <geom_source>  (10) 
Heuristics

$$$$

     RDKit          3D

 21 19  0  0  0  0  0  0  0  0999 V2000
   -0.4657    0.8384   -1.1000 C   0  0  0  0  0  0  0  0  0  0  0  0
    0.7485    1.6561   -0.8325 C   0  0  0  0  0  0  0  0  0  0  0  0
    0.9307    2.7337    0.3452 S   0  0  0  0  0  0  0  0  0  0  0  0
   -0.8220    1.0325   -2.1164 H   0  0  0  0  0  0  0  0  0  0  0  0
   -1.2595    1.0497   -0.3865 H   0  0  0  0  0  0  0  0  0  0  0  0
    1.5758    1.4807   -1.5229 H   0  0  0  0  0  0  0  0  0  0  0  0
   -0.4657   -2.4956   -1.7347 C   0  0  0  0  0  0  0  0  0  0  0  0
   -0.4657   -2.4956   -0.4112 C   0  0  0  0  0  0  0  0  0  0  0  0
   -0.4657   -1.2742    0.4608 C   0  0  0  0  0  3  0  0  0  0  0  0
    0.7936   -1.2338    1.3285 C   0  0  0  0  0  0  0  0  0  0  0  0
   -1.7251   -1.2338    1.3285 C   0  0  0  0  0  0  0  0  0  0  0  0
   -0.4657   -3.4173   -2.3030 H   0  0  0  0  0  0  0  0  0  0  0  0
   -0.4657   -1.5691   -2.2993 H   0  0  0  0  0  0  0  0  0  0  0  0
   -0.4657   -3.4469    0.1193 H   0  0  0  0  0  0  0  0  0  0  0  0
   -0.4657   -0.2178   -0.3196 H   0  0  0  0  0  0  0  0  0  0  0  0
    1.6951   -1.2279    0.7143 H   0  0  0  0  0  0  0  0  0  0  0  0
    0.8381   -2.1076    1.9843 H   0  0  0  0  0  0  0  0  0  0  0  0
    0.8011   -0.3426    1.9594 H   0  0  0  0  0  0  0  0  0  0  0  0
   -1.7696   -2.1076    1.9843 H   0  0  0  0  0  0  0  0  0  0  0  0
   -2.6266   -1.2279    0.7143 H   0  0  0  0  0  0  0  0  0  0  0  0
   -1.7326   -0.3426    1.9594 H   0  0  0  0  0  0  0  0  0  0  0  0
  1  2  1  0
  1  4  1  0
  1  5  1  0
  1 15  1  0
  2  3  2  0
  2  6  1  0
  7  8  2  3
  7 12  1  0
  7 13  1  0
  8  9  1  0
  8 14  1  0
  9 10  1  0
  9 11  1  0
 10 16  1  0
 10 17  1  0
 10 18  1  0
 11 19  1  0
 11 20  1  0
 11 21  1  0
M  RAD  1   9   2
M  END
>  <reaction>  (11) 
rxn_1106

>  <mol_properties>  (11) 
{"0": {"label": "*1", "atom_type": "Cs"}, "1": {"label": "*0", "atom_type": "CS"}, "7": {"label": "*4", "atom_type": "Cd"}, "8": {"label": "*3", "atom_type": "Cs"}, "14": {"label": "*2", "atom_type": "H0"}}

>  <type>  (11) 
unop_7

>  <geom_source>  (11) 
Heuristics

$$$$

     RDKit          3D

 21 19  0  0  0  0  0  0  0  0999 V2000
    0.6077    1.0194   -0.3259 C   0  0  0  0  0  0  0  0  0  0  0  0
   -0.7944    1.4206   -0.6222 C   0  0  0  0  0  0  0  0  0  0  0  0
   -1.2823    2.3498   -1.8387 S   0  0  0  0  0  0  0  0  0  0  0  0
    0.8780    1.3483    0.6823 H   0  0  0  0  0  0  0  0  0  0  0  0
    1.3074    1.4358   -1.0474 H   0  0  0  0  0  0  0  0  0  0  0  0
   -1.5367    1.0272    0.0750 H   0  0  0  0  0  0  0  0  0  0  0  0
    0.6077   -2.3146   -0.9606 C   0  0  0  0  0  0  0  0  0  0  0  0
    0.6077   -2.3146    0.3629 C   0  0  0  0  0  0  0  0  0  0  0  0
    0.6077   -1.0933    1.2349 C   0  0  0  0  0  3  0  0  0  0  0  0
    1.8670   -1.0528    2.1026 C   0  0  0  0  0  0  0  0  0  0  0  0
   -0.6516   -1.0528    2.1026 C   0  0  0  0  0  0  0  0  0  0  0  0
    0.6077   -3.2364   -1.5289 H   0  0  0  0  0  0  0  0  0  0  0  0
    0.6077   -1.3881   -1.5252 H   0  0  0  0  0  0  0  0  0  0  0  0
    0.6077   -3.2660    0.8934 H   0  0  0  0  0  0  0  0  0  0  0  0
    0.6077   -0.0369    0.4545 H   0  0  0  0  0  0  0  0  0  0  0  0
    2.7685   -1.0469    1.4884 H   0  0  0  0  0  0  0  0  0  0  0  0
    1.9116   -1.9267    2.7584 H   0  0  0  0  0  0  0  0  0  0  0  0
    1.8745   -0.1616    2.7336 H   0  0  0  0  0  0  0  0  0  0  0  0
   -0.6962   -1.9267    2.7584 H   0  0  0  0  0  0  0  0  0  0  0  0
   -1.5532   -1.0469    1.4884 H   0  0  0  0  0  0  0  0  0  0  0  0
   -0.6591   -0.1616    2.7336 H   0  0  0  0  0  0  0  0  0  0  0  0
  1  2  1  0
  1  4  1  0
  1  5  1  0
  1 15  1  0
  2  3  2  0
  2  6  1  0
  7  8  2  3
  7 12  1  0
  7 13  1  0
  8  9  1  0
  8 14  1  0
  9 10  1  0
  9 11  1  0
 10 16  1  0
 10 17  1  0
 10 18  1  0
 11 19  1  0
 11 20  1  0
 11 21  1  0
M  RAD  1   9   2
M  END
>  <reaction>  (12) 
rxn_1106

>  <mol_properties>  (12) 
{"0": {"label": "*1", "atom_type": "Cs"}, "1": {"label": "*0", "atom_type": "CS"}, "7": {"label": "*4", "atom_type": "Cd"}, "8": {"label": "*3", "atom_type": "Cs"}, "14": {"label": "*2", "atom_type": "H0"}}

>  <type>  (12) 
unop_8

>  <geom_source>  (12) 
Heuristics

$$$$

     RDKit          3D

 21 19  0  0  0  0  0  0  0  0999 V2000
   -0.6054    1.3873   -0.1758 C   0  0  0  0  0  0  0  0  0  0  0  0
    0.0956    1.0669   -1.4488 C   0  0  0  0  0  0  0  0  0  0  0  0
    1.5817    1.5203   -1.8580 S   0  0  0  0  0  0  0  0  0  0  0  0
   -1.5363    1.9199   -0.3937 H   0  0  0  0  0  0  0  0  0  0  0  0
    0.0147    1.9883    0.4859 H   0  0  0  0  0  0  0  0  0  0  0  0
   -0.4861    0.4640   -2.1487 H   0  0  0  0  0  0  0  0  0  0  0  0
   -0.6054   -1.9467   -0.8106 C   0  0  0  0  0  0  0  0  0  0  0  0
   -0.6054   -1.9467    0.5129 C   0  0  0  0  0  0  0  0  0  0  0  0
   -0.6054   -0.7254    1.3849 C   0  0  0  0  0  3  0  0  0  0  0  0
    0.6539   -0.6849    2.2526 C   0  0  0  0  0  0  0  0  0  0  0  0
   -1.8647   -0.6849    2.2526 C   0  0  0  0  0  0  0  0  0  0  0  0
   -0.6054   -2.8685   -1.3789 H   0  0  0  0  0  0  0  0  0  0  0  0
   -0.6054   -1.0202   -1.3752 H   0  0  0  0  0  0  0  0  0  0  0  0
   -0.6054   -2.8981    1.0434 H   0  0  0  0  0  0  0  0  0  0  0  0
   -0.6054    0.3310    0.6045 H   0  0  0  0  0  0  0  0  0  0  0  0
    1.5554   -0.6790    1.6384 H   0  0  0  0  0  0  0  0  0  0  0  0
    0.6984   -1.5588    2.9084 H   0  0  0  0  0  0  0  0  0  0  0  0
    0.6614    0.2063    2.8836 H   0  0  0  0  0  0  0  0  0  0  0  0
   -1.9093   -1.5588    2.9084 H   0  0  0  0  0  0  0  0  0  0  0  0
   -2.7663   -0.6790    1.6384 H   0  0  0  0  0  0  0  0  0  0  0  0
   -1.8723    0.2063    2.8836 H   0  0  0  0  0  0  0  0  0  0  0  0
  1  2  1  0
  1  4  1  0
  1  5  1  0
  1 15  1  0
  2  3  2  0
  2  6  1  0
  7  8  2  3
  7 12  1  0
  7 13  1  0
  8  9  1  0
  8 14  1  0
  9 10  1  0
  9 11  1  0
 10 16  1  0
 10 17  1  0
 10 18  1  0
 11 19  1  0
 11 20  1  0
 11 21  1  0
M  RAD  1   9   2
M  END
>  <reaction>  (13) 
rxn_1106

>  <mol_properties>  (13) 
{"0": {"label": "*1", "atom_type": "Cs"}, "1": {"label": "*0", "atom_type": "CS"}, "7": {"label": "*4", "atom_type": "Cd"}, "8": {"label": "*3", "atom_type": "Cs"}, "14": {"label": "*2", "atom_type": "H0"}}

>  <type>  (13) 
unop_9

>  <geom_source>  (13) 
Heuristics

$$$$

     RDKit          3D

 21 19  0  0  0  0  0  0  0  0999 V2000
    0.4630    1.2242   -0.0723 C   0  0  0  0  0  0  0  0  0  0  0  0
   -0.7513    1.2087   -0.9325 C   0  0  0  0  0  0  0  0  0  0  0  0
   -0.9034    1.8940   -2.3777 S   0  0  0  0  0  0  0  0  0  0  0  0
    0.2213    1.6748    0.8953 H   0  0  0  0  0  0  0  0  0  0  0  0
    1.2801    1.7712   -0.5378 H   0  0  0  0  0  0  0  0  0  0  0  0
   -1.6015    0.6708   -0.5089 H   0  0  0  0  0  0  0  0  0  0  0  0
    0.4630   -2.1099   -0.7070 C   0  0  0  0  0  0  0  0  0  0  0  0
    0.4630   -2.1099    0.6165 C   0  0  0  0  0  0  0  0  0  0  0  0
    0.4630   -0.8885    1.4885 C   0  0  0  0  0  3  0  0  0  0  0  0
    1.7223   -0.8481    2.3562 C   0  0  0  0  0  0  0  0  0  0  0  0
   -0.7963   -0.8481    2.3562 C   0  0  0  0  0  0  0  0  0  0  0  0
    0.4630   -3.0316   -1.2753 H   0  0  0  0  0  0  0  0  0  0  0  0
    0.4630   -1.1833   -1.2716 H   0  0  0  0  0  0  0  0  0  0  0  0
    0.4630   -3.0612    1.1470 H   0  0  0  0  0  0  0  0  0  0  0  0
    0.4630    0.1679    0.7081 H   0  0  0  0  0  0  0  0  0  0  0  0
    2.6238   -0.8422    1.7420 H   0  0  0  0  0  0  0  0  0  0  0  0
    1.7669   -1.7219    3.0120 H   0  0  0  0  0  0  0  0  0  0  0  0
    1.7298    0.0431    2.9872 H   0  0  0  0  0  0  0  0  0  0  0  0
   -0.8409   -1.7219    3.0120 H   0  0  0  0  0  0  0  0  0  0  0  0
   -1.6979   -0.8422    1.7420 H   0  0  0  0  0  0  0  0  0  0  0  0
   -0.8039    0.0431    2.9872 H   0  0  0  0  0  0  0  0  0  0  0  0
  1  2  1  0
  1  4  1  0
  1  5  1  0
  1 15  1  0
  2  3  2  0
  2  6  1  0
  7  8  2  3
  7 12  1  0
  7 13  1  0
  8  9  1  0
  8 14  1  0
  9 10  1  0
  9 11  1  0
 10 16  1  0
 10 17  1  0
 10 18  1  0
 11 19  1  0
 11 20  1  0
 11 21  1  0
M  RAD  1   9   2
M  END
>  <reaction>  (14) 
rxn_1106

>  <mol_properties>  (14) 
{"0": {"label": "*1", "atom_type": "Cs"}, "1": {"label": "*0", "atom_type": "CS"}, "7": {"label": "*4", "atom_type": "Cd"}, "8": {"label": "*3", "atom_type": "Cs"}, "14": {"label": "*2", "atom_type": "H0"}}

>  <type>  (14) 
unop_10

>  <geom_source>  (14) 
Heuristics

$$$$

     RDKit          3D

 21 19  0  0  0  0  0  0  0  0999 V2000
   -0.0765    0.7143   -1.1705 C   0  0  0  0  0  0  0  0  0  0  0  0
    0.6245    1.8369   -0.4902 C   0  0  0  0  0  0  0  0  0  0  0  0
   -0.0597    2.9916    0.3930 S   0  0  0  0  0  0  0  0  0  0  0  0
    0.1330    0.7478   -2.2441 H   0  0  0  0  0  0  0  0  0  0  0  0
   -1.1512    0.7506   -1.0052 H   0  0  0  0  0  0  0  0  0  0  0  0
    1.7077    1.8452   -0.6259 H   0  0  0  0  0  0  0  0  0  0  0  0
   -0.0765   -2.6198   -1.8052 C   0  0  0  0  0  0  0  0  0  0  0  0
   -0.0765   -2.6198   -0.4817 C   0  0  0  0  0  0  0  0  0  0  0  0
   -0.0765   -1.3984    0.3903 C   0  0  0  0  0  3  0  0  0  0  0  0
    1.1828   -1.3580    1.2580 C   0  0  0  0  0  0  0  0  0  0  0  0
   -1.3358   -1.3580    1.2580 C   0  0  0  0  0  0  0  0  0  0  0  0
   -0.0765   -3.5415   -2.3735 H   0  0  0  0  0  0  0  0  0  0  0  0
   -0.0765   -1.6932   -2.3698 H   0  0  0  0  0  0  0  0  0  0  0  0
   -0.0765   -3.5711    0.0488 H   0  0  0  0  0  0  0  0  0  0  0  0
   -0.0765   -0.3420   -0.3901 H   0  0  0  0  0  0  0  0  0  0  0  0
    2.0843   -1.3521    0.6438 H   0  0  0  0  0  0  0  0  0  0  0  0
    1.2274   -2.2318    1.9138 H   0  0  0  0  0  0  0  0  0  0  0  0
    1.1903   -0.4668    1.8890 H   0  0  0  0  0  0  0  0  0  0  0  0
   -1.3804   -2.2318    1.9138 H   0  0  0  0  0  0  0  0  0  0  0  0
   -2.2374   -1.3521    0.6438 H   0  0  0  0  0  0  0  0  0  0  0  0
   -1.3434   -0.4668    1.8890 H   0  0  0  0  0  0  0  0  0  0  0  0
  1  2  1  0
  1  4  1  0
  1  5  1  0
  1 15  1  0
  2  3  2  0
  2  6  1  0
  7  8  2  3
  7 12  1  0
  7 13  1  0
  8  9  1  0
  8 14  1  0
  9 10  1  0
  9 11  1  0
 10 16  1  0
 10 17  1  0
 10 18  1  0
 11 19  1  0
 11 20  1  0
 11 21  1  0
M  RAD  1   9   2
M  END
>  <reaction>  (15) 
rxn_1106

>  <mol_properties>  (15) 
{"0": {"label": "*1", "atom_type": "Cs"}, "1": {"label": "*0", "atom_type": "CS"}, "7": {"label": "*4", "atom_type": "Cd"}, "8": {"label": "*3", "atom_type": "Cs"}, "14": {"label": "*2", "atom_type": "H0"}}

>  <type>  (15) 
unop_11

>  <geom_source>  (15) 
Heuristics

$$$$

     RDKit          3D

 21 19  0  0  0  0  0  0  0  0999 V2000
   -0.2652    1.4452    0.0470 C   0  0  0  0  0  0  0  0  0  0  0  0
   -0.2652    1.0133   -1.3771 C   0  0  0  0  0  0  0  0  0  0  0  0
    0.8342    1.3896   -2.4866 S   0  0  0  0  0  0  0  0  0  0  0  0
   -1.1891    1.9899    0.2651 H   0  0  0  0  0  0  0  0  0  0  0  0
    0.5934    2.0721    0.2783 H   0  0  0  0  0  0  0  0  0  0  0  0
   -1.1087    0.3806   -1.6601 H   0  0  0  0  0  0  0  0  0  0  0  0
   -0.2653   -1.8888   -0.5878 C   0  0  0  0  0  0  0  0  0  0  0  0
   -0.2653   -1.8888    0.7357 C   0  0  0  0  0  0  0  0  0  0  0  0
   -0.2653   -0.6674    1.6078 C   0  0  0  0  0  3  0  0  0  0  0  0
    0.9941   -0.6270    2.4754 C   0  0  0  0  0  0  0  0  0  0  0  0
   -1.5246   -0.6270    2.4754 C   0  0  0  0  0  0  0  0  0  0  0  0
   -0.2653   -2.8105   -1.1560 H   0  0  0  0  0  0  0  0  0  0  0  0
   -0.2653   -0.9623   -1.1523 H   0  0  0  0  0  0  0  0  0  0  0  0
   -0.2653   -2.8401    1.2663 H   0  0  0  0  0  0  0  0  0  0  0  0
   -0.2653    0.3890    0.8273 H   0  0  0  0  0  0  0  0  0  0  0  0
    1.8956   -0.6211    1.8612 H   0  0  0  0  0  0  0  0  0  0  0  0
    1.0386   -1.5008    3.1312 H   0  0  0  0  0  0  0  0  0  0  0  0
    1.0016    0.2642    3.1064 H   0  0  0  0  0  0  0  0  0  0  0  0
   -1.5691   -1.5008    3.1312 H   0  0  0  0  0  0  0  0  0  0  0  0
   -2.4261   -0.6211    1.8612 H   0  0  0  0  0  0  0  0  0  0  0  0
   -1.5321    0.2642    3.1064 H   0  0  0  0  0  0  0  0  0  0  0  0
  1  2  1  0
  1  4  1  0
  1  5  1  0
  1 15  1  0
  2  3  2  0
  2  6  1  0
  7  8  2  3
  7 12  1  0
  7 13  1  0
  8  9  1  0
  8 14  1  0
  9 10  1  0
  9 11  1  0
 10 16  1  0
 10 17  1  0
 10 18  1  0
 11 19  1  0
 11 20  1  0
 11 21  1  0
M  RAD  1   9   2
M  END
>  <reaction>  (16) 
rxn_1106

>  <mol_properties>  (16) 
{"0": {"label": "*1", "atom_type": "Cs"}, "1": {"label": "*0", "atom_type": "CS"}, "7": {"label": "*4", "atom_type": "Cd"}, "8": {"label": "*3", "atom_type": "Cs"}, "14": {"label": "*2", "atom_type": "H0"}}

>  <type>  (16) 
unop_12

>  <geom_source>  (16) 
Heuristics

$$$$

     RDKit          3D

 21 19  0  0  0  0  0  0  0  0999 V2000
   -3.0855   -1.0646   -1.3075 S   0  0  0  0  0  0  0  0  0  0  0  0
    0.2700   -0.9050   -1.2885 C   0  0  0  0  0  0  0  0  0  0  0  0
    2.1234   -0.8753    0.4271 C   0  0  0  0  0  0  0  0  0  0  0  0
   -1.7412    0.2714    0.3919 C   0  0  0  0  0  0  0  0  0  0  0  0
    0.7766   -0.2793    0.0118 C   0  0  0  0  0  3  0  0  0  0  0  0
    0.8573    1.2204   -0.0990 C   0  0  0  0  0  0  0  0  0  0  0  0
   -2.8175   -0.7120    0.0578 C   0  0  0  0  0  0  0  0  0  0  0  0
    0.8579    1.9888    0.9923 C   0  0  0  0  0  0  0  0  0  0  0  0
   -1.6707    0.3861    1.4938 H   0  0  0  0  0  0  0  0  0  0  0  0
   -1.9733    1.2618   -0.0550 H   0  0  0  0  0  0  0  0  0  0  0  0
   -0.5940   -0.1514   -0.0597 H   0  0  0  0  0  0  0  0  0  0  0  0
    0.1552   -2.0020   -1.1607 H   0  0  0  0  0  0  0  0  0  0  0  0
   -0.7231   -0.4814   -1.5489 H   0  0  0  0  0  0  0  0  0  0  0  0
    0.9790   -0.7088   -2.1217 H   0  0  0  0  0  0  0  0  0  0  0  0
    2.9019   -0.6502   -0.3336 H   0  0  0  0  0  0  0  0  0  0  0  0
    2.0323   -1.9763    0.5382 H   0  0  0  0  0  0  0  0  0  0  0  0
    2.4409   -0.4567    1.4053 H   0  0  0  0  0  0  0  0  0  0  0  0
    0.8884    1.6934   -1.0770 H   0  0  0  0  0  0  0  0  0  0  0  0
   -3.3916   -1.1771    0.8526 H   0  0  0  0  0  0  0  0  0  0  0  0
    0.9038    3.0687    0.8963 H   0  0  0  0  0  0  0  0  0  0  0  0
    0.8102    1.5496    1.9843 H   0  0  0  0  0  0  0  0  0  0  0  0
  1  7  2  0
  2  5  1  0
  2 12  1  0
  2 13  1  0
  2 14  1  0
  3  5  1  0
  3 15  1  0
  3 16  1  0
  3 17  1  0
  4  7  1  0
  4  9  1  0
  4 10  1  0
  4 11  1  0
  5  6  1  0
  6  8  2  3
  6 18  1  0
  7 19  1  0
  8 20  1  0
  8 21  1  0
M  RAD  1   5   2
M  END
>  <reaction>  (17) 
rxn_1106

>  <mol_properties>  (17) 
{"0": {"label": "*1", "atom_type": "Cs"}, "1": {"label": "*0", "atom_type": "CS"}, "7": {"label": "*4", "atom_type": "Cd"}, "8": {"label": "*3", "atom_type": "Cs"}, "14": {"label": "*2", "atom_type": "H0"}}

>  <type>  (17) 
unop_13

>  <geom_source>  (17) 
AutoTST

$$$$
