
     RDKit          3D

  5  4  0  0  0  0  0  0  0  0999 V2000
    0.0000    0.0000    0.0000 C   0  0  0  0  0  0  0  0  0  0  0  0
   -0.6486   -0.7720   -0.4113 H   0  0  0  0  0  0  0  0  0  0  0  0
   -0.3482    0.9787   -0.3267 H   0  0  0  0  0  0  0  0  0  0  0  0
   -0.0223   -0.0487    1.0876 H   0  0  0  0  0  0  0  0  0  0  0  0
    1.0191   -0.1580   -0.3496 H   0  0  0  0  0  0  0  0  0  0  0  0
  1  2  1  0
  1  3  1  0
  1  4  1  0
  1  5  1  0
M  END
>  <reaction>  (1) 
rxn_859

>  <mol_properties>  (1) 
{"0": {"label": "donator", "atom_type": "Cs"}, "1": {"label": "d_hydrogen", "atom_type": "H0"}}

>  <type>  (1) 
r1h

$$$$

     RDKit          3D

  7  6  0  0  0  0  0  0  0  0999 V2000
   -2.0652    0.3855   -0.2963 S   0  0  0  0  0  0  0  0  0  0  0  0
   -0.7169   -0.5853    0.1792 C   0  0  0  0  0  3  0  0  0  0  0  0
    0.5987   -0.2168    0.0254 C   0  0  0  0  0  0  0  0  0  0  0  0
    1.7547    0.1211   -0.1163 C   0  0  0  0  0  0  0  0  0  0  0  0
   -1.3643    1.4227   -0.7731 H   0  0  0  0  0  0  0  0  0  0  0  0
   -0.9781   -1.5363    0.6220 H   0  0  0  0  0  0  0  0  0  0  0  0
    2.7711    0.4089   -0.2366 H   0  0  0  0  0  0  0  0  0  0  0  0
  1  2  1  0
  1  5  1  0
  2  3  1  0
  2  6  1  0
  3  4  3  0
  4  7  1  0
M  RAD  1   2   2
M  END
>  <reaction>  (2) 
rxn_859

>  <mol_properties>  (2) 
{"1": {"label": "acceptor", "atom_type": "Cs"}}

>  <type>  (2) 
r2

$$$$

     RDKit          3D

  8  7  0  0  0  0  0  0  0  0999 V2000
   -0.7014    1.0753    1.5530 S   0  0  0  0  0  0  0  0  0  0  0  0
   -0.3105   -0.4583    0.6462 C   0  0  0  0  0  0  0  0  0  0  0  0
    0.0935   -0.2424   -0.7319 C   0  0  0  0  0  0  0  0  0  0  0  0
    0.4431   -0.0604   -1.8621 C   0  0  0  0  0  0  0  0  0  0  0  0
    0.4994    1.6466    1.3970 H   0  0  0  0  0  0  0  0  0  0  0  0
   -1.2277   -1.0477    0.6819 H   0  0  0  0  0  0  0  0  0  0  0  0
    0.4563   -1.0151    1.1841 H   0  0  0  0  0  0  0  0  0  0  0  0
    0.7474    0.1020   -2.8681 H   0  0  0  0  0  0  0  0  0  0  0  0
  1  2  1  0
  1  5  1  0
  2  3  1  0
  2  6  1  0
  2  7  1  0
  3  4  3  0
  4  8  1  0
M  END
>  <reaction>  (3) 
rxn_859

>  <mol_properties>  (3) 
{"1": {"label": "acceptor", "atom_type": "Cs"}, "7": {"label": "a_hydrogen", "atom_type": "H0"}}

>  <type>  (3) 
r2h

$$$$

     RDKit          3D

 12 10  0  0  0  0  0  0  0  0999 V2000
   -1.5409    0.3166   -0.1043 S   0  0  0  0  0  0  0  0  0  0  0  0
    0.0259   -0.2821    0.5594 C   0  0  0  0  0  0  0  0  0  0  0  0
    1.1580    0.5680    0.3674 C   0  0  0  0  0  0  0  0  0  0  0  0
    2.1222    1.2598    0.1857 C   0  0  0  0  0  0  0  0  0  0  0  0
   -1.5157    1.5236    0.4776 H   0  0  0  0  0  0  0  0  0  0  0  0
   -0.0654   -0.6544    1.5777 H   0  0  0  0  0  0  0  0  0  0  0  0
    2.9718    1.8800    0.0297 H   0  0  0  0  0  0  0  0  0  0  0  0
    0.4201   -2.5064   -0.9178 C   0  0  0  0  0  3  0  0  0  0  0  0
    0.2198   -1.3450   -0.1239 H   0  0  0  0  0  0  0  0  0  0  0  0
    0.4209   -2.0969   -1.9223 H   0  0  0  0  0  0  0  0  0  0  0  0
    1.3807   -2.8703   -0.5695 H   0  0  0  0  0  0  0  0  0  0  0  0
   -0.4278   -3.1397   -0.6797 H   0  0  0  0  0  0  0  0  0  0  0  0
  1  2  1  0
  1  5  1  0
  2  3  1  0
  2  6  1  0
  2  9  1  0
  3  4  3  0
  4  7  1  0
  8 10  1  0
  8 11  1  0
  8 12  1  0
M  RAD  1   8   2
M  END
>  <reaction>  (4) 
rxn_859

>  <mol_properties>  (4) 
{"0": {"label": "*0", "atom_type": "S2s"}, "1": {"label": "*1", "atom_type": "Cs"}, "7": {"label": "*3", "atom_type": "Cs"}, "8": {"label": "*2", "atom_type": "H0"}, "9": {"label": "*4", "atom_type": "H0"}}

>  <type>  (4) 
ts

$$$$

     RDKit          3D

 12 10  0  0  0  0  0  0  0  0999 V2000
   -1.1804    0.0100    0.9563 S   0  0  0  0  0  0  0  0  0  0  0  0
    0.3459   -0.1396   -0.0312 C   0  0  0  0  0  3  0  0  0  0  0  0
    0.8655    1.1289   -0.5105 C   0  0  0  0  0  0  0  0  0  0  0  0
    1.2939    2.1745   -0.9056 C   0  0  0  0  0  0  0  0  0  0  0  0
   -0.6669    0.8129    1.8967 H   0  0  0  0  0  0  0  0  0  0  0  0
    1.1069   -0.6603    0.5494 H   0  0  0  0  0  0  0  0  0  0  0  0
    1.6744    3.1034   -1.2566 H   0  0  0  0  0  0  0  0  0  0  0  0
    0.3459   -2.6058   -0.9031 C   0  0  0  0  0  0  0  0  0  0  0  0
    0.3459   -1.3738   -0.4676 H   0  0  0  0  0  0  0  0  0  0  0  0
    1.2350   -3.1191   -0.5402 H   0  0  0  0  0  0  0  0  0  0  0  0
   -0.5432   -3.1191   -0.5402 H   0  0  0  0  0  0  0  0  0  0  0  0
    0.3459   -2.6058   -1.9921 H   0  0  0  0  0  0  0  0  0  0  0  0
  1  2  1  0
  1  5  1  0
  2  3  1  0
  2  6  1  0
  3  4  3  0
  4  7  1  0
  8  9  1  0
  8 10  1  0
  8 11  1  0
  8 12  1  0
M  RAD  1   2   2
M  END
>  <reaction>  (5) 
rxn_859

>  <mol_properties>  (5) 
{"0": {"label": "*0", "atom_type": "S2s"}, "1": {"label": "*1", "atom_type": "Cs"}, "7": {"label": "*3", "atom_type": "Cs"}, "8": {"label": "*2", "atom_type": "H0"}, "9": {"label": "*4", "atom_type": "H0"}}

>  <type>  (5) 
unop_1

>  <geom_source>  (5) 
Heuristics

$$$$

     RDKit          3D

 12 10  0  0  0  0  0  0  0  0999 V2000
   -1.0245    0.7502   -0.8816 S   0  0  0  0  0  0  0  0  0  0  0  0
   -0.1433   -0.2019    0.4006 C   0  0  0  0  0  3  0  0  0  0  0  0
    1.0219    0.4749    0.9421 C   0  0  0  0  0  0  0  0  0  0  0  0
    1.9823    1.0327    1.3884 C   0  0  0  0  0  0  0  0  0  0  0  0
   -1.2839    1.8182   -0.1169 H   0  0  0  0  0  0  0  0  0  0  0  0
   -0.8336   -0.4588    1.2037 H   0  0  0  0  0  0  0  0  0  0  0  0
    2.8356    1.5283    1.7849 H   0  0  0  0  0  0  0  0  0  0  0  0
   -0.1433   -2.6681   -0.4713 C   0  0  0  0  0  0  0  0  0  0  0  0
   -0.1433   -1.4361   -0.0357 H   0  0  0  0  0  0  0  0  0  0  0  0
    0.7458   -3.1814   -0.1083 H   0  0  0  0  0  0  0  0  0  0  0  0
   -1.0325   -3.1814   -0.1083 H   0  0  0  0  0  0  0  0  0  0  0  0
   -0.1433   -2.6681   -1.5602 H   0  0  0  0  0  0  0  0  0  0  0  0
  1  2  1  0
  1  5  1  0
  2  3  1  0
  2  6  1  0
  3  4  3  0
  4  7  1  0
  8  9  1  0
  8 10  1  0
  8 11  1  0
  8 12  1  0
M  RAD  1   2   2
M  END
>  <reaction>  (6) 
rxn_859

>  <mol_properties>  (6) 
{"0": {"label": "*0", "atom_type": "S2s"}, "1": {"label": "*1", "atom_type": "Cs"}, "7": {"label": "*3", "atom_type": "Cs"}, "8": {"label": "*2", "atom_type": "H0"}, "9": {"label": "*4", "atom_type": "H0"}}

>  <type>  (6) 
unop_2

>  <geom_source>  (6) 
Heuristics

$$$$

     RDKit          3D

 12 10  0  0  0  0  0  0  0  0999 V2000
   -0.4781   -0.1155    1.4530 S   0  0  0  0  0  0  0  0  0  0  0  0
    0.4031   -0.0501   -0.1427 C   0  0  0  0  0  3  0  0  0  0  0  0
    0.1928    1.1814   -0.8831 C   0  0  0  0  0  0  0  0  0  0  0  0
    0.0195    2.1964   -1.4933 C   0  0  0  0  0  0  0  0  0  0  0  0
    0.0924    0.9757    1.9788 H   0  0  0  0  0  0  0  0  0  0  0  0
    1.4683   -0.2107    0.0216 H   0  0  0  0  0  0  0  0  0  0  0  0
   -0.1345    3.0982   -2.0355 H   0  0  0  0  0  0  0  0  0  0  0  0
    0.4031   -2.5163   -1.0146 C   0  0  0  0  0  0  0  0  0  0  0  0
    0.4031   -1.2843   -0.5790 H   0  0  0  0  0  0  0  0  0  0  0  0
    1.2922   -3.0296   -0.6516 H   0  0  0  0  0  0  0  0  0  0  0  0
   -0.4860   -3.0296   -0.6516 H   0  0  0  0  0  0  0  0  0  0  0  0
    0.4031   -2.5163   -2.1035 H   0  0  0  0  0  0  0  0  0  0  0  0
  1  2  1  0
  1  5  1  0
  2  3  1  0
  2  6  1  0
  3  4  3  0
  4  7  1  0
  8  9  1  0
  8 10  1  0
  8 11  1  0
  8 12  1  0
M  RAD  1   2   2
M  END
>  <reaction>  (7) 
rxn_859

>  <mol_properties>  (7) 
{"0": {"label": "*0", "atom_type": "S2s"}, "1": {"label": "*1", "atom_type": "Cs"}, "7": {"label": "*3", "atom_type": "Cs"}, "8": {"label": "*2", "atom_type": "H0"}, "9": {"label": "*4", "atom_type": "H0"}}

>  <type>  (7) 
unop_3

>  <geom_source>  (7) 
Heuristics

$$$$

     RDKit          3D

 12 10  0  0  0  0  0  0  0  0999 V2000
    0.8806    1.1619   -0.8116 S   0  0  0  0  0  0  0  0  0  0  0  0
   -0.6457    0.4248   -0.1375 C   0  0  0  0  0  3  0  0  0  0  0  0
   -0.4700   -0.2210    1.1513 C   0  0  0  0  0  0  0  0  0  0  0  0
   -0.3253   -0.7532    2.2136 C   0  0  0  0  0  0  0  0  0  0  0  0
    1.1106    1.9866    0.2178 H   0  0  0  0  0  0  0  0  0  0  0  0
   -1.4211    1.1874   -0.0713 H   0  0  0  0  0  0  0  0  0  0  0  0
   -0.1966   -1.2261    3.1574 H   0  0  0  0  0  0  0  0  0  0  0  0
   -0.6457   -2.0414   -1.0095 C   0  0  0  0  0  0  0  0  0  0  0  0
   -0.6457   -0.8094   -0.5739 H   0  0  0  0  0  0  0  0  0  0  0  0
    0.2434   -2.5547   -0.6465 H   0  0  0  0  0  0  0  0  0  0  0  0
   -1.5348   -2.5547   -0.6465 H   0  0  0  0  0  0  0  0  0  0  0  0
   -0.6457   -2.0414   -2.0984 H   0  0  0  0  0  0  0  0  0  0  0  0
  1  2  1  0
  1  5  1  0
  2  3  1  0
  2  6  1  0
  3  4  3  0
  4  7  1  0
  8  9  1  0
  8 10  1  0
  8 11  1  0
  8 12  1  0
M  RAD  1   2   2
M  END
>  <reaction>  (8) 
rxn_859

>  <mol_properties>  (8) 
{"0": {"label": "*0", "atom_type": "S2s"}, "1": {"label": "*1", "atom_type": "Cs"}, "7": {"label": "*3", "atom_type": "Cs"}, "8": {"label": "*2", "atom_type": "H0"}, "9": {"label": "*4", "atom_type": "H0"}}

>  <type>  (8) 
unop_4

>  <geom_source>  (8) 
Heuristics

$$$$

     RDKit          3D

 12 10  0  0  0  0  0  0  0  0999 V2000
    0.4678    0.0397    1.5141 S   0  0  0  0  0  0  0  0  0  0  0  0
    0.4678    0.1838   -0.3042 C   0  0  0  0  0  3  0  0  0  0  0  0
   -0.6737    0.9047   -0.8392 C   0  0  0  0  0  0  0  0  0  0  0  0
   -1.6146    1.4988   -1.2801 C   0  0  0  0  0  0  0  0  0  0  0  0
    0.4501    1.3549    1.7641 H   0  0  0  0  0  0  0  0  0  0  0  0
    1.3945    0.6532   -0.6333 H   0  0  0  0  0  0  0  0  0  0  0  0
   -2.4506    2.0267   -1.6719 H   0  0  0  0  0  0  0  0  0  0  0  0
    0.4678   -2.2824   -1.1761 C   0  0  0  0  0  0  0  0  0  0  0  0
    0.4678   -1.0504   -0.7406 H   0  0  0  0  0  0  0  0  0  0  0  0
    1.3569   -2.7957   -0.8131 H   0  0  0  0  0  0  0  0  0  0  0  0
   -0.4213   -2.7957   -0.8131 H   0  0  0  0  0  0  0  0  0  0  0  0
    0.4678   -2.2824   -2.2651 H   0  0  0  0  0  0  0  0  0  0  0  0
  1  2  1  0
  1  5  1  0
  2  3  1  0
  2  6  1  0
  3  4  3  0
  4  7  1  0
  8  9  1  0
  8 10  1  0
  8 11  1  0
  8 12  1  0
M  RAD  1   2   2
M  END
>  <reaction>  (9) 
rxn_859

>  <mol_properties>  (9) 
{"0": {"label": "*0", "atom_type": "S2s"}, "1": {"label": "*1", "atom_type": "Cs"}, "7": {"label": "*3", "atom_type": "Cs"}, "8": {"label": "*2", "atom_type": "H0"}, "9": {"label": "*4", "atom_type": "H0"}}

>  <type>  (9) 
unop_5

>  <geom_source>  (9) 
Heuristics

$$$$

     RDKit          3D

 12 10  0  0  0  0  0  0  0  0999 V2000
    1.3226    1.0203   -0.2285 S   0  0  0  0  0  0  0  0  0  0  0  0
   -0.4398    0.5769   -0.3852 C   0  0  0  0  0  3  0  0  0  0  0  0
   -0.9643   -0.1665    0.7467 C   0  0  0  0  0  0  0  0  0  0  0  0
   -1.3967   -0.7792    1.6796 C   0  0  0  0  0  0  0  0  0  0  0  0
    1.1967    1.7169    0.9080 H   0  0  0  0  0  0  0  0  0  0  0  0
   -1.0301    1.4784   -0.5467 H   0  0  0  0  0  0  0  0  0  0  0  0
   -1.7808   -1.3237    2.5085 H   0  0  0  0  0  0  0  0  0  0  0  0
   -0.4398   -1.8893   -1.2571 C   0  0  0  0  0  0  0  0  0  0  0  0
   -0.4398   -0.6573   -0.8216 H   0  0  0  0  0  0  0  0  0  0  0  0
    0.4494   -2.4026   -0.8942 H   0  0  0  0  0  0  0  0  0  0  0  0
   -1.3289   -2.4026   -0.8942 H   0  0  0  0  0  0  0  0  0  0  0  0
   -0.4398   -1.8893   -2.3461 H   0  0  0  0  0  0  0  0  0  0  0  0
  1  2  1  0
  1  5  1  0
  2  3  1  0
  2  6  1  0
  3  4  3  0
  4  7  1  0
  8  9  1  0
  8 10  1  0
  8 11  1  0
  8 12  1  0
M  RAD  1   2   2
M  END
>  <reaction>  (10) 
rxn_859

>  <mol_properties>  (10) 
{"0": {"label": "*0", "atom_type": "S2s"}, "1": {"label": "*1", "atom_type": "Cs"}, "7": {"label": "*3", "atom_type": "Cs"}, "8": {"label": "*2", "atom_type": "H0"}, "9": {"label": "*4", "atom_type": "H0"}}

>  <type>  (10) 
unop_6

>  <geom_source>  (10) 
Heuristics

$$$$

     RDKit          3D

 12 10  0  0  0  0  0  0  0  0999 V2000
    1.4257    0.7660    0.4625 S   0  0  0  0  0  0  0  0  0  0  0  0
   -0.1005    0.6163   -0.5250 C   0  0  0  0  0  3  0  0  0  0  0  0
   -1.2189    0.0403    0.2006 C   0  0  0  0  0  0  0  0  0  0  0  0
   -2.1407   -0.4345    0.7985 C   0  0  0  0  0  0  0  0  0  0  0  0
    0.9029    1.5402    1.4216 H   0  0  0  0  0  0  0  0  0  0  0  0
   -0.3755    1.5929   -0.9224 H   0  0  0  0  0  0  0  0  0  0  0  0
   -2.9597   -0.8563    1.3299 H   0  0  0  0  0  0  0  0  0  0  0  0
   -0.1005   -1.8499   -1.3969 C   0  0  0  0  0  0  0  0  0  0  0  0
   -0.1005   -0.6179   -0.9613 H   0  0  0  0  0  0  0  0  0  0  0  0
    0.7886   -2.3632   -1.0339 H   0  0  0  0  0  0  0  0  0  0  0  0
   -0.9896   -2.3632   -1.0339 H   0  0  0  0  0  0  0  0  0  0  0  0
   -0.1005   -1.8499   -2.4858 H   0  0  0  0  0  0  0  0  0  0  0  0
  1  2  1  0
  1  5  1  0
  2  3  1  0
  2  6  1  0
  3  4  3  0
  4  7  1  0
  8  9  1  0
  8 10  1  0
  8 11  1  0
  8 12  1  0
M  RAD  1   2   2
M  END
>  <reaction>  (11) 
rxn_859

>  <mol_properties>  (11) 
{"0": {"label": "*0", "atom_type": "S2s"}, "1": {"label": "*1", "atom_type": "Cs"}, "7": {"label": "*3", "atom_type": "Cs"}, "8": {"label": "*2", "atom_type": "H0"}, "9": {"label": "*4", "atom_type": "H0"}}

>  <type>  (11) 
unop_7

>  <geom_source>  (11) 
Heuristics

$$$$

     RDKit          3D

 12 10  0  0  0  0  0  0  0  0999 V2000
   -1.4722    0.2470    0.2766 S   0  0  0  0  0  0  0  0  0  0  0  0
    0.2901   -0.1963    0.1199 C   0  0  0  0  0  3  0  0  0  0  0  0
    1.1798    0.9471    0.0193 C   0  0  0  0  0  0  0  0  0  0  0  0
    1.9130    1.8895   -0.0637 C   0  0  0  0  0  0  0  0  0  0  0  0
   -1.3406    0.9728    1.3940 H   0  0  0  0  0  0  0  0  0  0  0  0
    0.5842   -0.8265    0.9588 H   0  0  0  0  0  0  0  0  0  0  0  0
    2.5645    2.7269   -0.1373 H   0  0  0  0  0  0  0  0  0  0  0  0
    0.2901   -2.6625   -0.7521 C   0  0  0  0  0  0  0  0  0  0  0  0
    0.2901   -1.4306   -0.3165 H   0  0  0  0  0  0  0  0  0  0  0  0
    1.1793   -3.1759   -0.3891 H   0  0  0  0  0  0  0  0  0  0  0  0
   -0.5990   -3.1759   -0.3891 H   0  0  0  0  0  0  0  0  0  0  0  0
    0.2901   -2.6625   -1.8410 H   0  0  0  0  0  0  0  0  0  0  0  0
  1  2  1  0
  1  5  1  0
  2  3  1  0
  2  6  1  0
  3  4  3  0
  4  7  1  0
  8  9  1  0
  8 10  1  0
  8 11  1  0
  8 12  1  0
M  RAD  1   2   2
M  END
>  <reaction>  (12) 
rxn_859

>  <mol_properties>  (12) 
{"0": {"label": "*0", "atom_type": "S2s"}, "1": {"label": "*1", "atom_type": "Cs"}, "7": {"label": "*3", "atom_type": "Cs"}, "8": {"label": "*2", "atom_type": "H0"}, "9": {"label": "*4", "atom_type": "H0"}}

>  <type>  (12) 
unop_8

>  <geom_source>  (12) 
Heuristics

$$$$

     RDKit          3D

 12 10  0  0  0  0  0  0  0  0999 V2000
    0.2180    1.1473   -1.1409 S   0  0  0  0  0  0  0  0  0  0  0  0
   -0.6632    0.1952    0.1412 C   0  0  0  0  0  3  0  0  0  0  0  0
    0.1396   -0.0970    1.3157 C   0  0  0  0  0  0  0  0  0  0  0  0
    0.8012   -0.3378    2.2836 C   0  0  0  0  0  0  0  0  0  0  0  0
    0.5079    2.2003   -0.3665 H   0  0  0  0  0  0  0  0  0  0  0  0
   -1.5704    0.7249    0.4305 H   0  0  0  0  0  0  0  0  0  0  0  0
    1.3891   -0.5518    3.1436 H   0  0  0  0  0  0  0  0  0  0  0  0
   -0.6632   -2.2710   -0.7307 C   0  0  0  0  0  0  0  0  0  0  0  0
   -0.6632   -1.0390   -0.2951 H   0  0  0  0  0  0  0  0  0  0  0  0
    0.2259   -2.7843   -0.3677 H   0  0  0  0  0  0  0  0  0  0  0  0
   -1.5523   -2.7843   -0.3677 H   0  0  0  0  0  0  0  0  0  0  0  0
   -0.6632   -2.2710   -1.8196 H   0  0  0  0  0  0  0  0  0  0  0  0
  1  2  1  0
  1  5  1  0
  2  3  1  0
  2  6  1  0
  3  4  3  0
  4  7  1  0
  8  9  1  0
  8 10  1  0
  8 11  1  0
  8 12  1  0
M  RAD  1   2   2
M  END
>  <reaction>  (13) 
rxn_859

>  <mol_properties>  (13) 
{"0": {"label": "*0", "atom_type": "S2s"}, "1": {"label": "*1", "atom_type": "Cs"}, "7": {"label": "*3", "atom_type": "Cs"}, "8": {"label": "*2", "atom_type": "H0"}, "9": {"label": "*4", "atom_type": "H0"}}

>  <type>  (13) 
unop_9

>  <geom_source>  (13) 
Heuristics

$$$$

     RDKit          3D

 12 10  0  0  0  0  0  0  0  0999 V2000
   -1.3882    0.5039   -0.3817 S   0  0  0  0  0  0  0  0  0  0  0  0
    0.1381   -0.2332    0.2923 C   0  0  0  0  0  3  0  0  0  0  0  0
    1.2011    0.7267    0.5323 C   0  0  0  0  0  0  0  0  0  0  0  0
    2.0772    1.5178    0.7301 C   0  0  0  0  0  0  0  0  0  0  0  0
   -1.5990    1.3534    0.6314 H   0  0  0  0  0  0  0  0  0  0  0  0
   -0.0920   -0.7740    1.2099 H   0  0  0  0  0  0  0  0  0  0  0  0
    2.8557    2.2208    0.9059 H   0  0  0  0  0  0  0  0  0  0  0  0
    0.1381   -2.6994   -0.5797 C   0  0  0  0  0  0  0  0  0  0  0  0
    0.1381   -1.4674   -0.1441 H   0  0  0  0  0  0  0  0  0  0  0  0
    1.0272   -3.2127   -0.2167 H   0  0  0  0  0  0  0  0  0  0  0  0
   -0.7511   -3.2127   -0.2167 H   0  0  0  0  0  0  0  0  0  0  0  0
    0.1381   -2.6994   -1.6686 H   0  0  0  0  0  0  0  0  0  0  0  0
  1  2  1  0
  1  5  1  0
  2  3  1  0
  2  6  1  0
  3  4  3  0
  4  7  1  0
  8  9  1  0
  8 10  1  0
  8 11  1  0
  8 12  1  0
M  RAD  1   2   2
M  END
>  <reaction>  (14) 
rxn_859

>  <mol_properties>  (14) 
{"0": {"label": "*0", "atom_type": "S2s"}, "1": {"label": "*1", "atom_type": "Cs"}, "7": {"label": "*3", "atom_type": "Cs"}, "8": {"label": "*2", "atom_type": "H0"}, "9": {"label": "*4", "atom_type": "H0"}}

>  <type>  (14) 
unop_10

>  <geom_source>  (14) 
Heuristics

$$$$

     RDKit          3D

 12 10  0  0  0  0  0  0  0  0999 V2000
    1.1563    0.4241    1.1006 S   0  0  0  0  0  0  0  0  0  0  0  0
    0.2752    0.4895   -0.4951 C   0  0  0  0  0  3  0  0  0  0  0  0
   -1.1696    0.4043   -0.3755 C   0  0  0  0  0  0  0  0  0  0  0  0
   -2.3605    0.3342   -0.2769 C   0  0  0  0  0  0  0  0  0  0  0  0
    0.5603    1.4949    1.6397 H   0  0  0  0  0  0  0  0  0  0  0  0
    0.5535    1.3976   -1.0290 H   0  0  0  0  0  0  0  0  0  0  0  0
   -3.4185    0.2718   -0.1893 H   0  0  0  0  0  0  0  0  0  0  0  0
    0.2752   -1.9767   -1.3671 C   0  0  0  0  0  0  0  0  0  0  0  0
    0.2752   -0.7448   -0.9315 H   0  0  0  0  0  0  0  0  0  0  0  0
    1.1643   -2.4901   -1.0041 H   0  0  0  0  0  0  0  0  0  0  0  0
   -0.6139   -2.4901   -1.0041 H   0  0  0  0  0  0  0  0  0  0  0  0
    0.2752   -1.9767   -2.4560 H   0  0  0  0  0  0  0  0  0  0  0  0
  1  2  1  0
  1  5  1  0
  2  3  1  0
  2  6  1  0
  3  4  3  0
  4  7  1  0
  8  9  1  0
  8 10  1  0
  8 11  1  0
  8 12  1  0
M  RAD  1   2   2
M  END
>  <reaction>  (15) 
rxn_859

>  <mol_properties>  (15) 
{"0": {"label": "*0", "atom_type": "S2s"}, "1": {"label": "*1", "atom_type": "Cs"}, "7": {"label": "*3", "atom_type": "Cs"}, "8": {"label": "*2", "atom_type": "H0"}, "9": {"label": "*4", "atom_type": "H0"}}

>  <type>  (15) 
unop_11

>  <geom_source>  (15) 
Heuristics

$$$$

     RDKit          3D

 12 10  0  0  0  0  0  0  0  0999 V2000
   -0.4678    0.9826   -1.1527 S   0  0  0  0  0  0  0  0  0  0  0  0
   -0.4678   -0.0483    0.3521 C   0  0  0  0  0  3  0  0  0  0  0  0
    0.6737    0.1762    1.2213 C   0  0  0  0  0  0  0  0  0  0  0  0
    1.6146    0.3611    1.9377 C   0  0  0  0  0  0  0  0  0  0  0  0
   -0.4501    2.1626   -0.5205 H   0  0  0  0  0  0  0  0  0  0  0  0
   -1.3945    0.1100    0.9031 H   0  0  0  0  0  0  0  0  0  0  0  0
    2.4506    0.5255    2.5743 H   0  0  0  0  0  0  0  0  0  0  0  0
   -0.4678   -2.5145   -0.5198 C   0  0  0  0  0  0  0  0  0  0  0  0
   -0.4678   -1.2825   -0.0842 H   0  0  0  0  0  0  0  0  0  0  0  0
    0.4213   -3.0278   -0.1568 H   0  0  0  0  0  0  0  0  0  0  0  0
   -1.3569   -3.0278   -0.1568 H   0  0  0  0  0  0  0  0  0  0  0  0
   -0.4678   -2.5145   -1.6088 H   0  0  0  0  0  0  0  0  0  0  0  0
  1  2  1  0
  1  5  1  0
  2  3  1  0
  2  6  1  0
  3  4  3  0
  4  7  1  0
  8  9  1  0
  8 10  1  0
  8 11  1  0
  8 12  1  0
M  RAD  1   2   2
M  END
>  <reaction>  (16) 
rxn_859

>  <mol_properties>  (16) 
{"0": {"label": "*0", "atom_type": "S2s"}, "1": {"label": "*1", "atom_type": "Cs"}, "7": {"label": "*3", "atom_type": "Cs"}, "8": {"label": "*2", "atom_type": "H0"}, "9": {"label": "*4", "atom_type": "H0"}}

>  <type>  (16) 
unop_12

>  <geom_source>  (16) 
Heuristics

$$$$

     RDKit          3D

 12 10  0  0  0  0  0  0  0  0999 V2000
    0.3753    2.0708   -0.0598 S   0  0  0  0  0  0  0  0  0  0  0  0
    0.4000    0.3973   -0.7647 C   0  0  0  0  0  3  0  0  0  0  0  0
   -1.8398   -0.3641    0.3335 C   0  0  0  0  0  0  0  0  0  0  0  0
    1.6176   -0.2996   -0.3458 C   0  0  0  0  0  0  0  0  0  0  0  0
    2.6195   -0.8745   -0.0010 C   0  0  0  0  0  0  0  0  0  0  0  0
    0.3789    0.4653   -1.8718 H   0  0  0  0  0  0  0  0  0  0  0  0
   -0.7599   -0.3384   -0.3079 H   0  0  0  0  0  0  0  0  0  0  0  0
   -1.7610   -1.1792    1.0820 H   0  0  0  0  0  0  0  0  0  0  0  0
   -2.1883    0.5635    0.8323 H   0  0  0  0  0  0  0  0  0  0  0  0
   -2.5643   -0.6547   -0.4548 H   0  0  0  0  0  0  0  0  0  0  0  0
    0.2229    1.5927    1.2560 H   0  0  0  0  0  0  0  0  0  0  0  0
    3.4991   -1.3791    0.3018 H   0  0  0  0  0  0  0  0  0  0  0  0
  1  2  1  0
  1 11  1  0
  2  4  1  0
  2  6  1  0
  3  7  1  0
  3  8  1  0
  3  9  1  0
  3 10  1  0
  4  5  3  0
  5 12  1  0
M  RAD  1   2   2
M  END
>  <reaction>  (17) 
rxn_859

>  <mol_properties>  (17) 
{"0": {"label": "*0", "atom_type": "S2s"}, "1": {"label": "*1", "atom_type": "Cs"}, "7": {"label": "*3", "atom_type": "Cs"}, "8": {"label": "*2", "atom_type": "H0"}, "9": {"label": "*4", "atom_type": "H0"}}

>  <type>  (17) 
unop_13

>  <geom_source>  (17) 
AutoTST

$$$$

     RDKit          3D

 12 10  0  0  0  0  0  0  0  0999 V2000
   -1.0245    0.7502   -0.8816 S   0  0  0  0  0  0  0  0  0  0  0  0
   -0.1434   -0.2019    0.4006 C   0  0  0  0  0  3  0  0  0  0  0  0
    1.0219    0.4749    0.9421 C   0  0  0  0  0  0  0  0  0  0  0  0
    1.9823    1.0327    1.3884 C   0  0  0  0  0  0  0  0  0  0  0  0
   -1.2839    1.8182   -0.1169 H   0  0  0  0  0  0  0  0  0  0  0  0
   -0.8336   -0.4588    1.2037 H   0  0  0  0  0  0  0  0  0  0  0  0
    2.8356    1.5283    1.7849 H   0  0  0  0  0  0  0  0  0  0  0  0
   -0.1434   -2.6681   -0.4713 C   0  0  0  0  0  0  0  0  0  0  0  0
   -0.1434   -1.4361   -0.0357 H   0  0  0  0  0  0  0  0  0  0  0  0
    0.7458   -3.1814   -0.1083 H   0  0  0  0  0  0  0  0  0  0  0  0
   -1.0325   -3.1814   -0.1083 H   0  0  0  0  0  0  0  0  0  0  0  0
   -0.1434   -2.6681   -1.5602 H   0  0  0  0  0  0  0  0  0  0  0  0
  1  2  1  0
  1  5  1  0
  2  3  1  0
  2  6  1  0
  3  4  3  0
  4  7  1  0
  8  9  1  0
  8 10  1  0
  8 11  1  0
  8 12  1  0
M  RAD  1   2   2
M  END
>  <reaction>  (18) 
rxn_859

>  <mol_properties>  (18) 
{"0": {"label": "*0", "atom_type": "S2s"}, "1": {"label": "*1", "atom_type": "Cs"}, "7": {"label": "*3", "atom_type": "Cs"}, "8": {"label": "*2", "atom_type": "H0"}, "9": {"label": "*4", "atom_type": "H0"}}

>  <type>  (18) 
unop_14

>  <geom_source>  (18) 
gaussian_log

$$$$
