
     RDKit          3D

  9  8  0  0  0  0  0  0  0  0999 V2000
    1.1303   -0.2933   -0.7510 C   0  0  0  0  0  0  0  0  0  0  0  0
    0.2866    0.4560   -0.0588 C   0  0  0  0  0  0  0  0  0  0  0  0
   -0.9719   -0.0331    0.5823 C   0  0  0  0  0  0  0  0  0  0  0  0
    2.0274    0.1230   -1.1916 H   0  0  0  0  0  0  0  0  0  0  0  0
    0.9532   -1.3530   -0.9023 H   0  0  0  0  0  0  0  0  0  0  0  0
    0.5065    1.5132    0.0659 H   0  0  0  0  0  0  0  0  0  0  0  0
   -0.9526    0.1426    1.6610 H   0  0  0  0  0  0  0  0  0  0  0  0
   -1.1182   -1.1002    0.4106 H   0  0  0  0  0  0  0  0  0  0  0  0
   -1.8412    0.5010    0.1901 H   0  0  0  0  0  0  0  0  0  0  0  0
  1  2  2  3
  1  4  1  0
  1  5  1  0
  2  3  1  0
  2  6  1  0
  3  7  1  0
  3  8  1  0
  3  9  1  0
M  END
>  <reaction>  (1) 
rxn_762

>  <mol_properties>  (1) 
{"1": {"label": "donator", "atom_type": "Cd"}, "5": {"label": "d_hydrogen", "atom_type": "H0"}}

>  <type>  (1) 
r1h

$$$$

     RDKit          3D

 10  9  0  0  0  0  0  0  0  0999 V2000
    1.2930    0.1441    0.3288 C   0  0  0  0  0  0  0  0  0  0  0  0
   -0.0374   -0.1647    0.9100 C   0  0  0  0  0  3  0  0  0  0  0  0
   -1.2664    0.4569    0.3567 C   0  0  0  0  0  0  0  0  0  0  0  0
    1.4384    1.2242    0.2174 H   0  0  0  0  0  0  0  0  0  0  0  0
    2.1077   -0.2477    0.9385 H   0  0  0  0  0  0  0  0  0  0  0  0
    1.4057   -0.2836   -0.6789 H   0  0  0  0  0  0  0  0  0  0  0  0
   -0.1309   -0.9912    1.6030 H   0  0  0  0  0  0  0  0  0  0  0  0
   -1.5005    0.0716   -0.6471 H   0  0  0  0  0  0  0  0  0  0  0  0
   -2.1382    0.2713    0.9849 H   0  0  0  0  0  0  0  0  0  0  0  0
   -1.1497    1.5406    0.2456 H   0  0  0  0  0  0  0  0  0  0  0  0
  1  2  1  0
  1  4  1  0
  1  5  1  0
  1  6  1  0
  2  3  1  0
  2  7  1  0
  3  8  1  0
  3  9  1  0
  3 10  1  0
M  RAD  1   2   2
M  END
>  <reaction>  (2) 
rxn_762

>  <mol_properties>  (2) 
{"1": {"label": "acceptor", "atom_type": "Cs"}}

>  <type>  (2) 
r2

$$$$

     RDKit          3D

 11 10  0  0  0  0  0  0  0  0999 V2000
   -1.2710    0.1907   -0.2084 C   0  0  0  0  0  0  0  0  0  0  0  0
    0.0202   -0.6130   -0.2928 C   0  0  0  0  0  0  0  0  0  0  0  0
    0.1086   -1.6953    0.7756 C   0  0  0  0  0  0  0  0  0  0  0  0
   -1.3607    0.6851    0.7620 H   0  0  0  0  0  0  0  0  0  0  0  0
   -2.1429   -0.4567   -0.3299 H   0  0  0  0  0  0  0  0  0  0  0  0
   -1.3158    0.9602   -0.9809 H   0  0  0  0  0  0  0  0  0  0  0  0
    0.8757    0.0616   -0.1992 H   0  0  0  0  0  0  0  0  0  0  0  0
    0.0997   -1.0712   -1.2825 H   0  0  0  0  0  0  0  0  0  0  0  0
   -0.7198   -2.4022    0.6850 H   0  0  0  0  0  0  0  0  0  0  0  0
    1.0395   -2.2596    0.6989 H   0  0  0  0  0  0  0  0  0  0  0  0
    0.0624   -1.2603    1.7770 H   0  0  0  0  0  0  0  0  0  0  0  0
  1  2  1  0
  1  4  1  0
  1  5  1  0
  1  6  1  0
  2  3  1  0
  2  7  1  0
  2  8  1  0
  3  9  1  0
  3 10  1  0
  3 11  1  0
M  END
>  <reaction>  (3) 
rxn_762

>  <mol_properties>  (3) 
{"0": {"label": "a_hydrogen", "atom_type": "H0"}, "2": {"label": "acceptor", "atom_type": "Cs"}}

>  <type>  (3) 
r2h

$$$$

     RDKit          3D

 19 17  0  0  0  0  0  0  0  0999 V2000
    0.2722    1.0893   -1.8779 C   0  0  0  0  0  0  0  0  0  0  0  0
    0.2362    1.1778   -0.5666 C   0  0  0  0  0  3  0  0  0  0  0  0
    0.1131    2.3566    0.3226 C   0  0  0  0  0  0  0  0  0  0  0  0
    0.3630    0.1334   -2.3824 H   0  0  0  0  0  0  0  0  0  0  0  0
    0.2129    1.9731   -2.5123 H   0  0  0  0  0  0  0  0  0  0  0  0
    0.3069   -0.0405    0.1202 H   0  0  0  0  0  0  0  0  0  0  0  0
   -0.7846    2.2826    0.9414 H   0  0  0  0  0  0  0  0  0  0  0  0
    0.0585    3.2869   -0.2519 H   0  0  0  0  0  0  0  0  0  0  0  0
    0.9665    2.4223    1.0018 H   0  0  0  0  0  0  0  0  0  0  0  0
    0.1689   -2.2146   -0.3758 C   0  0  0  0  0  0  0  0  0  0  0  0
    0.2677   -1.1790    0.7167 C   0  0  0  0  0  0  0  0  0  0  0  0
   -0.9157   -1.1075    1.6503 C   0  0  0  0  0  0  0  0  0  0  0  0
   -0.7303   -2.0594   -0.9775 H   0  0  0  0  0  0  0  0  0  0  0  0
    1.0329   -2.1773   -1.0415 H   0  0  0  0  0  0  0  0  0  0  0  0
    0.1138   -3.2265    0.0403 H   0  0  0  0  0  0  0  0  0  0  0  0
    1.2209   -1.2170    1.2468 H   0  0  0  0  0  0  0  0  0  0  0  0
   -1.0467   -2.0459    2.1994 H   0  0  0  0  0  0  0  0  0  0  0  0
   -0.7995   -0.3084    2.3849 H   0  0  0  0  0  0  0  0  0  0  0  0
   -1.8380   -0.9227    1.0933 H   0  0  0  0  0  0  0  0  0  0  0  0
  1  2  2  3
  1  4  1  0
  1  5  1  0
  2  3  1  0
  3  7  1  0
  3  8  1  0
  3  9  1  0
  6 11  1  0
 10 11  1  0
 10 13  1  0
 10 14  1  0
 10 15  1  0
 11 12  1  0
 11 16  1  0
 12 17  1  0
 12 18  1  0
 12 19  1  0
M  RAD  1   2   2
M  END
>  <reaction>  (4) 
rxn_762

>  <mol_properties>  (4) 
{"0": {"label": "*4", "atom_type": "Cd"}, "1": {"label": "*3", "atom_type": "Cd"}, "5": {"label": "*2", "atom_type": "H0"}, "9": {"label": "*0", "atom_type": "Cs"}, "10": {"label": "*1", "atom_type": "Cs"}}

>  <type>  (4) 
ts

$$$$

     RDKit          3D

 19 17  0  0  0  0  0  0  0  0999 V2000
   -0.1049    1.2098   -2.0146 C   0  0  0  0  0  0  0  0  0  0  0  0
   -0.1049    1.2098   -0.6908 C   0  0  0  0  0  0  0  0  0  0  0  0
   -0.1049    2.4319    0.1697 C   0  0  0  0  0  0  0  0  0  0  0  0
   -0.1049    0.2870   -2.5810 H   0  0  0  0  0  0  0  0  0  0  0  0
   -0.1049    2.1354   -2.5806 H   0  0  0  0  0  0  0  0  0  0  0  0
   -0.1049    0.0666   -0.0626 H   0  0  0  0  0  0  0  0  0  0  0  0
   -0.9826    2.4491    0.8209 H   0  0  0  0  0  0  0  0  0  0  0  0
   -0.1049    3.3424   -0.4309 H   0  0  0  0  0  0  0  0  0  0  0  0
    0.7728    2.4491    0.8209 H   0  0  0  0  0  0  0  0  0  0  0  0
    1.1391   -1.1819    1.4431 C   0  0  0  0  0  0  0  0  0  0  0  0
   -0.1049   -1.0834    0.5694 C   0  0  0  0  0  3  0  0  0  0  0  0
   -0.7378   -2.4415    0.2944 C   0  0  0  0  0  0  0  0  0  0  0  0
    1.9014   -1.8046    0.9686 H   0  0  0  0  0  0  0  0  0  0  0  0
    1.5777   -0.2000    1.6287 H   0  0  0  0  0  0  0  0  0  0  0  0
    0.9023   -1.6311    2.4107 H   0  0  0  0  0  0  0  0  0  0  0  0
   -0.8380   -0.4313    1.0521 H   0  0  0  0  0  0  0  0  0  0  0  0
   -1.0337   -2.9304    1.2258 H   0  0  0  0  0  0  0  0  0  0  0  0
   -1.6265   -2.3504   -0.3323 H   0  0  0  0  0  0  0  0  0  0  0  0
   -0.0346   -3.1039   -0.2163 H   0  0  0  0  0  0  0  0  0  0  0  0
  1  2  2  3
  1  4  1  0
  1  5  1  0
  2  3  1  0
  2  6  1  0
  3  7  1  0
  3  8  1  0
  3  9  1  0
 10 11  1  0
 10 13  1  0
 10 14  1  0
 10 15  1  0
 11 12  1  0
 11 16  1  0
 12 17  1  0
 12 18  1  0
 12 19  1  0
M  RAD  1  11   2
M  END
>  <reaction>  (5) 
rxn_762

>  <mol_properties>  (5) 
{"0": {"label": "*4", "atom_type": "Cd"}, "1": {"label": "*3", "atom_type": "Cd"}, "5": {"label": "*2", "atom_type": "H0"}, "9": {"label": "*0", "atom_type": "Cs"}, "10": {"label": "*1", "atom_type": "Cs"}}

>  <type>  (5) 
unop_1

>  <geom_source>  (5) 
Heuristics

$$$$

     RDKit          3D

 19 17  0  0  0  0  0  0  0  0999 V2000
    0.0882    1.2395   -1.8781 C   0  0  0  0  0  0  0  0  0  0  0  0
    0.0882    1.2395   -0.5544 C   0  0  0  0  0  0  0  0  0  0  0  0
    0.0882    2.4617    0.3061 C   0  0  0  0  0  0  0  0  0  0  0  0
    0.0882    0.3168   -2.4446 H   0  0  0  0  0  0  0  0  0  0  0  0
    0.0882    2.1651   -2.4441 H   0  0  0  0  0  0  0  0  0  0  0  0
    0.0882    0.0964    0.0738 H   0  0  0  0  0  0  0  0  0  0  0  0
   -0.7895    2.4788    0.9574 H   0  0  0  0  0  0  0  0  0  0  0  0
    0.0882    3.3722   -0.2945 H   0  0  0  0  0  0  0  0  0  0  0  0
    0.9659    2.4788    0.9574 H   0  0  0  0  0  0  0  0  0  0  0  0
    0.8064   -2.0972   -0.1402 C   0  0  0  0  0  0  0  0  0  0  0  0
    0.0882   -1.0536    0.7058 C   0  0  0  0  0  3  0  0  0  0  0  0
   -1.1484   -1.6107    1.3996 C   0  0  0  0  0  0  0  0  0  0  0  0
    0.1475   -2.4901   -0.9183 H   0  0  0  0  0  0  0  0  0  0  0  0
    1.6885   -1.6797   -0.6286 H   0  0  0  0  0  0  0  0  0  0  0  0
    1.1314   -2.9411    0.4732 H   0  0  0  0  0  0  0  0  0  0  0  0
    0.7777   -0.6554    1.4553 H   0  0  0  0  0  0  0  0  0  0  0  0
   -0.8850   -2.4392    2.0615 H   0  0  0  0  0  0  0  0  0  0  0  0
   -1.6487   -0.8491    2.0001 H   0  0  0  0  0  0  0  0  0  0  0  0
   -1.8689   -1.9882    0.6699 H   0  0  0  0  0  0  0  0  0  0  0  0
  1  2  2  3
  1  4  1  0
  1  5  1  0
  2  3  1  0
  2  6  1  0
  3  7  1  0
  3  8  1  0
  3  9  1  0
 10 11  1  0
 10 13  1  0
 10 14  1  0
 10 15  1  0
 11 12  1  0
 11 16  1  0
 12 17  1  0
 12 18  1  0
 12 19  1  0
M  RAD  1  11   2
M  END
>  <reaction>  (6) 
rxn_762

>  <mol_properties>  (6) 
{"0": {"label": "*4", "atom_type": "Cd"}, "1": {"label": "*3", "atom_type": "Cd"}, "5": {"label": "*2", "atom_type": "H0"}, "9": {"label": "*0", "atom_type": "Cs"}, "10": {"label": "*1", "atom_type": "Cs"}}

>  <type>  (6) 
unop_2

>  <geom_source>  (6) 
Heuristics

$$$$

     RDKit          3D

 19 17  0  0  0  0  0  0  0  0999 V2000
   -0.1459    1.1758   -2.0394 C   0  0  0  0  0  0  0  0  0  0  0  0
   -0.1459    1.1758   -0.7157 C   0  0  0  0  0  0  0  0  0  0  0  0
   -0.1459    2.3980    0.1448 C   0  0  0  0  0  0  0  0  0  0  0  0
   -0.1459    0.2531   -2.6059 H   0  0  0  0  0  0  0  0  0  0  0  0
   -0.1459    2.1014   -2.6054 H   0  0  0  0  0  0  0  0  0  0  0  0
   -0.1459    0.0326   -0.0875 H   0  0  0  0  0  0  0  0  0  0  0  0
   -1.0236    2.4151    0.7961 H   0  0  0  0  0  0  0  0  0  0  0  0
   -0.1459    3.3084   -0.4558 H   0  0  0  0  0  0  0  0  0  0  0  0
    0.7318    2.4151    0.7961 H   0  0  0  0  0  0  0  0  0  0  0  0
    0.5723   -0.9626    1.8790 C   0  0  0  0  0  0  0  0  0  0  0  0
   -0.1459   -1.1174    0.5445 C   0  0  0  0  0  3  0  0  0  0  0  0
   -0.0118   -2.5199   -0.0348 C   0  0  0  0  0  0  0  0  0  0  0  0
    1.6402   -1.1693    1.7741 H   0  0  0  0  0  0  0  0  0  0  0  0
    0.4650    0.0476    2.2776 H   0  0  0  0  0  0  0  0  0  0  0  0
    0.1733   -1.6591    2.6204 H   0  0  0  0  0  0  0  0  0  0  0  0
   -1.2048   -0.8754    0.6709 H   0  0  0  0  0  0  0  0  0  0  0  0
   -0.4292   -3.2654    0.6464 H   0  0  0  0  0  0  0  0  0  0  0  0
   -0.5323   -2.6110   -0.9896 H   0  0  0  0  0  0  0  0  0  0  0  0
    1.0376   -2.7756   -0.1999 H   0  0  0  0  0  0  0  0  0  0  0  0
  1  2  2  3
  1  4  1  0
  1  5  1  0
  2  3  1  0
  2  6  1  0
  3  7  1  0
  3  8  1  0
  3  9  1  0
 10 11  1  0
 10 13  1  0
 10 14  1  0
 10 15  1  0
 11 12  1  0
 11 16  1  0
 12 17  1  0
 12 18  1  0
 12 19  1  0
M  RAD  1  11   2
M  END
>  <reaction>  (7) 
rxn_762

>  <mol_properties>  (7) 
{"0": {"label": "*4", "atom_type": "Cd"}, "1": {"label": "*3", "atom_type": "Cd"}, "5": {"label": "*2", "atom_type": "H0"}, "9": {"label": "*0", "atom_type": "Cs"}, "10": {"label": "*1", "atom_type": "Cs"}}

>  <type>  (7) 
unop_3

>  <geom_source>  (7) 
Heuristics

$$$$

     RDKit          3D

 19 17  0  0  0  0  0  0  0  0999 V2000
    0.2627    0.9373   -2.0551 C   0  0  0  0  0  0  0  0  0  0  0  0
    0.2627    0.9373   -0.7313 C   0  0  0  0  0  0  0  0  0  0  0  0
    0.2627    2.1595    0.1292 C   0  0  0  0  0  0  0  0  0  0  0  0
    0.2627    0.0146   -2.6216 H   0  0  0  0  0  0  0  0  0  0  0  0
    0.2627    1.8629   -2.6211 H   0  0  0  0  0  0  0  0  0  0  0  0
    0.2627   -0.2058   -0.1031 H   0  0  0  0  0  0  0  0  0  0  0  0
   -0.6151    2.1766    0.7804 H   0  0  0  0  0  0  0  0  0  0  0  0
    0.2627    3.0700   -0.4714 H   0  0  0  0  0  0  0  0  0  0  0  0
    1.1404    2.1766    0.7804 H   0  0  0  0  0  0  0  0  0  0  0  0
   -0.9814   -2.1461    0.1437 C   0  0  0  0  0  0  0  0  0  0  0  0
    0.2627   -1.3558    0.5289 C   0  0  0  0  0  3  0  0  0  0  0  0
    0.0412   -0.4710    1.7490 C   0  0  0  0  0  0  0  0  0  0  0  0
   -1.8132   -1.4766   -0.0882 H   0  0  0  0  0  0  0  0  0  0  0  0
   -0.8032   -2.7733   -0.7315 H   0  0  0  0  0  0  0  0  0  0  0  0
   -1.3001   -2.7963    0.9620 H   0  0  0  0  0  0  0  0  0  0  0  0
    1.0868   -2.0472    0.7254 H   0  0  0  0  0  0  0  0  0  0  0  0
   -0.2453   -1.0684    2.6179 H   0  0  0  0  0  0  0  0  0  0  0  0
    0.9425    0.0865    2.0091 H   0  0  0  0  0  0  0  0  0  0  0  0
   -0.7585    0.2513    1.5677 H   0  0  0  0  0  0  0  0  0  0  0  0
  1  2  2  3
  1  4  1  0
  1  5  1  0
  2  3  1  0
  2  6  1  0
  3  7  1  0
  3  8  1  0
  3  9  1  0
 10 11  1  0
 10 13  1  0
 10 14  1  0
 10 15  1  0
 11 12  1  0
 11 16  1  0
 12 17  1  0
 12 18  1  0
 12 19  1  0
M  RAD  1  11   2
M  END
>  <reaction>  (8) 
rxn_762

>  <mol_properties>  (8) 
{"0": {"label": "*4", "atom_type": "Cd"}, "1": {"label": "*3", "atom_type": "Cd"}, "5": {"label": "*2", "atom_type": "H0"}, "9": {"label": "*0", "atom_type": "Cs"}, "10": {"label": "*1", "atom_type": "Cs"}}

>  <type>  (8) 
unop_4

>  <geom_source>  (8) 
Heuristics

$$$$

     RDKit          3D

 19 17  0  0  0  0  0  0  0  0999 V2000
   -0.2107    1.0611   -2.0885 C   0  0  0  0  0  0  0  0  0  0  0  0
   -0.2107    1.0611   -0.7647 C   0  0  0  0  0  0  0  0  0  0  0  0
   -0.2107    2.2832    0.0958 C   0  0  0  0  0  0  0  0  0  0  0  0
   -0.2107    0.1383   -2.6549 H   0  0  0  0  0  0  0  0  0  0  0  0
   -0.2107    1.9866   -2.6545 H   0  0  0  0  0  0  0  0  0  0  0  0
   -0.2107   -0.0821   -0.1365 H   0  0  0  0  0  0  0  0  0  0  0  0
   -1.0884    2.3003    0.7470 H   0  0  0  0  0  0  0  0  0  0  0  0
   -0.2107    3.1937   -0.5048 H   0  0  0  0  0  0  0  0  0  0  0  0
    0.6671    2.3003    0.7470 H   0  0  0  0  0  0  0  0  0  0  0  0
   -0.2107   -0.9847    1.9986 C   0  0  0  0  0  0  0  0  0  0  0  0
   -0.2107   -1.2321    0.4955 C   0  0  0  0  0  3  0  0  0  0  0  0
    0.9816   -2.0624    0.0376 C   0  0  0  0  0  0  0  0  0  0  0  0
    0.6925   -0.4525    2.3069 H   0  0  0  0  0  0  0  0  0  0  0  0
   -1.0714   -0.3889    2.3071 H   0  0  0  0  0  0  0  0  0  0  0  0
   -0.2415   -1.9277    2.5497 H   0  0  0  0  0  0  0  0  0  0  0  0
   -1.1374   -1.7375    0.2098 H   0  0  0  0  0  0  0  0  0  0  0  0
    0.9883   -3.0394    0.5269 H   0  0  0  0  0  0  0  0  0  0  0  0
    0.9641   -2.2288   -1.0408 H   0  0  0  0  0  0  0  0  0  0  0  0
    1.9224   -1.5641    0.2840 H   0  0  0  0  0  0  0  0  0  0  0  0
  1  2  2  3
  1  4  1  0
  1  5  1  0
  2  3  1  0
  2  6  1  0
  3  7  1  0
  3  8  1  0
  3  9  1  0
 10 11  1  0
 10 13  1  0
 10 14  1  0
 10 15  1  0
 11 12  1  0
 11 16  1  0
 12 17  1  0
 12 18  1  0
 12 19  1  0
M  RAD  1  11   2
M  END
>  <reaction>  (9) 
rxn_762

>  <mol_properties>  (9) 
{"0": {"label": "*4", "atom_type": "Cd"}, "1": {"label": "*3", "atom_type": "Cd"}, "5": {"label": "*2", "atom_type": "H0"}, "9": {"label": "*0", "atom_type": "Cs"}, "10": {"label": "*1", "atom_type": "Cs"}}

>  <type>  (9) 
unop_5

>  <geom_source>  (9) 
Heuristics

$$$$

     RDKit          3D

 19 17  0  0  0  0  0  0  0  0999 V2000
    0.1670    0.8568   -2.1383 C   0  0  0  0  0  0  0  0  0  0  0  0
    0.1670    0.8568   -0.8145 C   0  0  0  0  0  0  0  0  0  0  0  0
    0.1670    2.0790    0.0460 C   0  0  0  0  0  0  0  0  0  0  0  0
    0.1670   -0.0659   -2.7047 H   0  0  0  0  0  0  0  0  0  0  0  0
    0.1670    1.7824   -2.7043 H   0  0  0  0  0  0  0  0  0  0  0  0
    0.1670   -0.2863   -0.1863 H   0  0  0  0  0  0  0  0  0  0  0  0
   -0.7108    2.0961    0.6972 H   0  0  0  0  0  0  0  0  0  0  0  0
    0.1670    2.9895   -0.5546 H   0  0  0  0  0  0  0  0  0  0  0  0
    1.0447    2.0961    0.6972 H   0  0  0  0  0  0  0  0  0  0  0  0
   -1.2695   -1.8807    0.6899 C   0  0  0  0  0  0  0  0  0  0  0  0
    0.1670   -1.4363    0.4457 C   0  0  0  0  0  3  0  0  0  0  0  0
    0.6636   -0.4525    1.4974 C   0  0  0  0  0  0  0  0  0  0  0  0
   -1.9498   -1.0257    0.6809 H   0  0  0  0  0  0  0  0  0  0  0  0
   -1.6069   -2.5844   -0.0729 H   0  0  0  0  0  0  0  0  0  0  0  0
   -1.3673   -2.3691    1.6625 H   0  0  0  0  0  0  0  0  0  0  0  0
    0.8212   -2.3124    0.4291 H   0  0  0  0  0  0  0  0  0  0  0  0
    0.6267   -0.8959    2.4954 H   0  0  0  0  0  0  0  0  0  0  0  0
    1.6933   -0.1462    1.3056 H   0  0  0  0  0  0  0  0  0  0  0  0
    0.0442    0.4475    1.5138 H   0  0  0  0  0  0  0  0  0  0  0  0
  1  2  2  3
  1  4  1  0
  1  5  1  0
  2  3  1  0
  2  6  1  0
  3  7  1  0
  3  8  1  0
  3  9  1  0
 10 11  1  0
 10 13  1  0
 10 14  1  0
 10 15  1  0
 11 12  1  0
 11 16  1  0
 12 17  1  0
 12 18  1  0
 12 19  1  0
M  RAD  1  11   2
M  END
>  <reaction>  (10) 
rxn_762

>  <mol_properties>  (10) 
{"0": {"label": "*4", "atom_type": "Cd"}, "1": {"label": "*3", "atom_type": "Cd"}, "5": {"label": "*2", "atom_type": "H0"}, "9": {"label": "*0", "atom_type": "Cs"}, "10": {"label": "*1", "atom_type": "Cs"}}

>  <type>  (10) 
unop_6

>  <geom_source>  (10) 
Heuristics

$$$$

     RDKit          3D

 19 17  0  0  0  0  0  0  0  0999 V2000
    0.0175    0.8330   -2.1815 C   0  0  0  0  0  0  0  0  0  0  0  0
    0.0175    0.8330   -0.8578 C   0  0  0  0  0  0  0  0  0  0  0  0
    0.0175    2.0551    0.0027 C   0  0  0  0  0  0  0  0  0  0  0  0
    0.0175   -0.0898   -2.7480 H   0  0  0  0  0  0  0  0  0  0  0  0
    0.0175    1.7586   -2.7475 H   0  0  0  0  0  0  0  0  0  0  0  0
    0.0175   -0.3102   -0.2296 H   0  0  0  0  0  0  0  0  0  0  0  0
   -0.8602    2.0723    0.6539 H   0  0  0  0  0  0  0  0  0  0  0  0
    0.0175    2.9656   -0.5979 H   0  0  0  0  0  0  0  0  0  0  0  0
    0.8952    2.0723    0.6540 H   0  0  0  0  0  0  0  0  0  0  0  0
   -1.2265   -1.5587    1.2761 C   0  0  0  0  0  0  0  0  0  0  0  0
    0.0175   -1.4602    0.4024 C   0  0  0  0  0  3  0  0  0  0  0  0
    1.1452   -0.6857    1.0725 C   0  0  0  0  0  0  0  0  0  0  0  0
   -1.6139   -0.5659    1.5175 H   0  0  0  0  0  0  0  0  0  0  0  0
   -2.0223   -2.1164    0.7795 H   0  0  0  0  0  0  0  0  0  0  0  0
   -1.0026   -2.0631    2.2192 H   0  0  0  0  0  0  0  0  0  0  0  0
    0.3660   -2.4657    0.1506 H   0  0  0  0  0  0  0  0  0  0  0  0
    1.4439   -1.1626    2.0092 H   0  0  0  0  0  0  0  0  0  0  0  0
    2.0267   -0.6260    0.4319 H   0  0  0  0  0  0  0  0  0  0  0  0
    0.8325    0.3346    1.3074 H   0  0  0  0  0  0  0  0  0  0  0  0
  1  2  2  3
  1  4  1  0
  1  5  1  0
  2  3  1  0
  2  6  1  0
  3  7  1  0
  3  8  1  0
  3  9  1  0
 10 11  1  0
 10 13  1  0
 10 14  1  0
 10 15  1  0
 11 12  1  0
 11 16  1  0
 12 17  1  0
 12 18  1  0
 12 19  1  0
M  RAD  1  11   2
M  END
>  <reaction>  (11) 
rxn_762

>  <mol_properties>  (11) 
{"0": {"label": "*4", "atom_type": "Cd"}, "1": {"label": "*3", "atom_type": "Cd"}, "5": {"label": "*2", "atom_type": "H0"}, "9": {"label": "*0", "atom_type": "Cs"}, "10": {"label": "*1", "atom_type": "Cs"}}

>  <type>  (11) 
unop_7

>  <geom_source>  (11) 
Heuristics

$$$$

     RDKit          3D

 19 17  0  0  0  0  0  0  0  0999 V2000
   -0.0788    1.2335   -1.9713 C   0  0  0  0  0  0  0  0  0  0  0  0
   -0.0788    1.2335   -0.6476 C   0  0  0  0  0  0  0  0  0  0  0  0
   -0.0788    2.4557    0.2129 C   0  0  0  0  0  0  0  0  0  0  0  0
   -0.0788    0.3108   -2.5378 H   0  0  0  0  0  0  0  0  0  0  0  0
   -0.0788    2.1591   -2.5374 H   0  0  0  0  0  0  0  0  0  0  0  0
   -0.0788    0.0903   -0.0194 H   0  0  0  0  0  0  0  0  0  0  0  0
   -0.9565    2.4728    0.8641 H   0  0  0  0  0  0  0  0  0  0  0  0
   -0.0788    3.3661   -0.3877 H   0  0  0  0  0  0  0  0  0  0  0  0
    0.7989    2.4728    0.8641 H   0  0  0  0  0  0  0  0  0  0  0  0
    1.3577   -1.5041    0.8568 C   0  0  0  0  0  0  0  0  0  0  0  0
   -0.0788   -1.0597    0.6126 C   0  0  0  0  0  3  0  0  0  0  0  0
   -1.0744   -2.2077    0.7196 C   0  0  0  0  0  0  0  0  0  0  0  0
    1.6600   -2.2640    0.1321 H   0  0  0  0  0  0  0  0  0  0  0  0
    2.0552   -0.6687    0.7760 H   0  0  0  0  0  0  0  0  0  0  0  0
    1.4684   -1.9373    1.8539 H   0  0  0  0  0  0  0  0  0  0  0  0
   -0.3452   -0.2788    1.3302 H   0  0  0  0  0  0  0  0  0  0  0  0
   -1.0403   -2.6631    1.7123 H   0  0  0  0  0  0  0  0  0  0  0  0
   -2.0967   -1.8700    0.5417 H   0  0  0  0  0  0  0  0  0  0  0  0
   -0.8486   -2.9898   -0.0094 H   0  0  0  0  0  0  0  0  0  0  0  0
  1  2  2  3
  1  4  1  0
  1  5  1  0
  2  3  1  0
  2  6  1  0
  3  7  1  0
  3  8  1  0
  3  9  1  0
 10 11  1  0
 10 13  1  0
 10 14  1  0
 10 15  1  0
 11 12  1  0
 11 16  1  0
 12 17  1  0
 12 18  1  0
 12 19  1  0
M  RAD  1  11   2
M  END
>  <reaction>  (12) 
rxn_762

>  <mol_properties>  (12) 
{"0": {"label": "*4", "atom_type": "Cd"}, "1": {"label": "*3", "atom_type": "Cd"}, "5": {"label": "*2", "atom_type": "H0"}, "9": {"label": "*0", "atom_type": "Cs"}, "10": {"label": "*1", "atom_type": "Cs"}}

>  <type>  (12) 
unop_8

>  <geom_source>  (12) 
Heuristics

$$$$

     RDKit          3D

 19 17  0  0  0  0  0  0  0  0999 V2000
    0.2804    1.0529   -1.9608 C   0  0  0  0  0  0  0  0  0  0  0  0
    0.2804    1.0529   -0.6371 C   0  0  0  0  0  0  0  0  0  0  0  0
    0.2804    2.2751    0.2234 C   0  0  0  0  0  0  0  0  0  0  0  0
    0.2804    0.1302   -2.5273 H   0  0  0  0  0  0  0  0  0  0  0  0
    0.2804    1.9785   -2.5268 H   0  0  0  0  0  0  0  0  0  0  0  0
    0.2804   -0.0902   -0.0089 H   0  0  0  0  0  0  0  0  0  0  0  0
   -0.5973    2.2922    0.8747 H   0  0  0  0  0  0  0  0  0  0  0  0
    0.2804    3.1855   -0.3772 H   0  0  0  0  0  0  0  0  0  0  0  0
    1.1581    2.2922    0.8747 H   0  0  0  0  0  0  0  0  0  0  0  0
   -0.4379   -2.2838   -0.2229 C   0  0  0  0  0  0  0  0  0  0  0  0
    0.2804   -1.2403    0.6231 C   0  0  0  0  0  3  0  0  0  0  0  0
   -0.5691   -0.7410    1.7849 C   0  0  0  0  0  0  0  0  0  0  0  0
   -1.3591   -1.8765   -0.6465 H   0  0  0  0  0  0  0  0  0  0  0  0
    0.1859   -2.6289   -1.0492 H   0  0  0  0  0  0  0  0  0  0  0  0
   -0.7088   -3.1550    0.3784 H   0  0  0  0  0  0  0  0  0  0  0  0
    1.2122   -1.6630    1.0088 H   0  0  0  0  0  0  0  0  0  0  0  0
   -0.8442   -1.5637    2.4495 H   0  0  0  0  0  0  0  0  0  0  0  0
   -0.0381    0.0050    2.3786 H   0  0  0  0  0  0  0  0  0  0  0  0
   -1.4945   -0.2852    1.4246 H   0  0  0  0  0  0  0  0  0  0  0  0
  1  2  2  3
  1  4  1  0
  1  5  1  0
  2  3  1  0
  2  6  1  0
  3  7  1  0
  3  8  1  0
  3  9  1  0
 10 11  1  0
 10 13  1  0
 10 14  1  0
 10 15  1  0
 11 12  1  0
 11 16  1  0
 12 17  1  0
 12 18  1  0
 12 19  1  0
M  RAD  1  11   2
M  END
>  <reaction>  (13) 
rxn_762

>  <mol_properties>  (13) 
{"0": {"label": "*4", "atom_type": "Cd"}, "1": {"label": "*3", "atom_type": "Cd"}, "5": {"label": "*2", "atom_type": "H0"}, "9": {"label": "*0", "atom_type": "Cs"}, "10": {"label": "*1", "atom_type": "Cs"}}

>  <type>  (13) 
unop_9

>  <geom_source>  (13) 
Heuristics

$$$$

     RDKit          3D

 19 17  0  0  0  0  0  0  0  0999 V2000
   -0.0196    1.2520   -1.9157 C   0  0  0  0  0  0  0  0  0  0  0  0
   -0.0196    1.2520   -0.5919 C   0  0  0  0  0  0  0  0  0  0  0  0
   -0.0196    2.4741    0.2686 C   0  0  0  0  0  0  0  0  0  0  0  0
   -0.0196    0.3292   -2.4821 H   0  0  0  0  0  0  0  0  0  0  0  0
   -0.0196    2.1776   -2.4817 H   0  0  0  0  0  0  0  0  0  0  0  0
   -0.0196    0.1088    0.0363 H   0  0  0  0  0  0  0  0  0  0  0  0
   -0.8973    2.4913    0.9198 H   0  0  0  0  0  0  0  0  0  0  0  0
   -0.0196    3.3846   -0.3320 H   0  0  0  0  0  0  0  0  0  0  0  0
    0.8581    2.4913    0.9198 H   0  0  0  0  0  0  0  0  0  0  0  0
    1.2244   -1.8315    0.2831 C   0  0  0  0  0  0  0  0  0  0  0  0
   -0.0196   -1.0412    0.6683 C   0  0  0  0  0  3  0  0  0  0  0  0
   -1.1738   -1.9371    1.0993 C   0  0  0  0  0  0  0  0  0  0  0  0
    1.0142   -2.5109   -0.5465 H   0  0  0  0  0  0  0  0  0  0  0  0
    2.0393   -1.1731   -0.0224 H   0  0  0  0  0  0  0  0  0  0  0  0
    1.5787   -2.4356    1.1219 H   0  0  0  0  0  0  0  0  0  0  0  0
    0.2255   -0.3485    1.4782 H   0  0  0  0  0  0  0  0  0  0  0  0
   -0.8950   -2.5445    1.9638 H   0  0  0  0  0  0  0  0  0  0  0  0
   -2.0549   -1.3534    1.3711 H   0  0  0  0  0  0  0  0  0  0  0  0
   -1.4595   -2.6199    0.2954 H   0  0  0  0  0  0  0  0  0  0  0  0
  1  2  2  3
  1  4  1  0
  1  5  1  0
  2  3  1  0
  2  6  1  0
  3  7  1  0
  3  8  1  0
  3  9  1  0
 10 11  1  0
 10 13  1  0
 10 14  1  0
 10 15  1  0
 11 12  1  0
 11 16  1  0
 12 17  1  0
 12 18  1  0
 12 19  1  0
M  RAD  1  11   2
M  END
>  <reaction>  (14) 
rxn_762

>  <mol_properties>  (14) 
{"0": {"label": "*4", "atom_type": "Cd"}, "1": {"label": "*3", "atom_type": "Cd"}, "5": {"label": "*2", "atom_type": "H0"}, "9": {"label": "*0", "atom_type": "Cs"}, "10": {"label": "*1", "atom_type": "Cs"}}

>  <type>  (14) 
unop_10

>  <geom_source>  (14) 
Heuristics

$$$$

     RDKit          3D

 19 17  0  0  0  0  0  0  0  0999 V2000
   -0.1442    0.8965   -2.1632 C   0  0  0  0  0  0  0  0  0  0  0  0
   -0.1442    0.8965   -0.8394 C   0  0  0  0  0  0  0  0  0  0  0  0
   -0.1442    2.1187    0.0211 C   0  0  0  0  0  0  0  0  0  0  0  0
   -0.1442   -0.0262   -2.7297 H   0  0  0  0  0  0  0  0  0  0  0  0
   -0.1442    1.8221   -2.7292 H   0  0  0  0  0  0  0  0  0  0  0  0
   -0.1442   -0.2467   -0.2112 H   0  0  0  0  0  0  0  0  0  0  0  0
   -1.0219    2.1358    0.6723 H   0  0  0  0  0  0  0  0  0  0  0  0
   -0.1442    3.0291   -0.5795 H   0  0  0  0  0  0  0  0  0  0  0  0
    0.7335    2.1358    0.6723 H   0  0  0  0  0  0  0  0  0  0  0  0
   -0.8625   -1.2419    1.7552 C   0  0  0  0  0  0  0  0  0  0  0  0
   -0.1442   -1.3967    0.4208 C   0  0  0  0  0  3  0  0  0  0  0  0
    1.3638   -1.2184    0.5420 C   0  0  0  0  0  0  0  0  0  0  0  0
   -0.6864   -0.2511    2.1810 H   0  0  0  0  0  0  0  0  0  0  0  0
   -1.9406   -1.3729    1.6481 H   0  0  0  0  0  0  0  0  0  0  0  0
   -0.5060   -1.9793    2.4785 H   0  0  0  0  0  0  0  0  0  0  0  0
   -0.3617   -2.3834    0.0027 H   0  0  0  0  0  0  0  0  0  0  0  0
    1.7904   -1.9550    1.2271 H   0  0  0  0  0  0  0  0  0  0  0  0
    1.8601   -1.3327   -0.4232 H   0  0  0  0  0  0  0  0  0  0  0  0
    1.6100   -0.2268    0.9295 H   0  0  0  0  0  0  0  0  0  0  0  0
  1  2  2  3
  1  4  1  0
  1  5  1  0
  2  3  1  0
  2  6  1  0
  3  7  1  0
  3  8  1  0
  3  9  1  0
 10 11  1  0
 10 13  1  0
 10 14  1  0
 10 15  1  0
 11 12  1  0
 11 16  1  0
 12 17  1  0
 12 18  1  0
 12 19  1  0
M  RAD  1  11   2
M  END
>  <reaction>  (15) 
rxn_762

>  <mol_properties>  (15) 
{"0": {"label": "*4", "atom_type": "Cd"}, "1": {"label": "*3", "atom_type": "Cd"}, "5": {"label": "*2", "atom_type": "H0"}, "9": {"label": "*0", "atom_type": "Cs"}, "10": {"label": "*1", "atom_type": "Cs"}}

>  <type>  (15) 
unop_11

>  <geom_source>  (15) 
Heuristics

$$$$

     RDKit          3D

 19 17  0  0  0  0  0  0  0  0999 V2000
    0.2107    1.1692   -1.8917 C   0  0  0  0  0  0  0  0  0  0  0  0
    0.2107    1.1692   -0.5680 C   0  0  0  0  0  0  0  0  0  0  0  0
    0.2107    2.3913    0.2925 C   0  0  0  0  0  0  0  0  0  0  0  0
    0.2107    0.2464   -2.4582 H   0  0  0  0  0  0  0  0  0  0  0  0
    0.2107    2.0948   -2.4577 H   0  0  0  0  0  0  0  0  0  0  0  0
    0.2107    0.0260    0.0602 H   0  0  0  0  0  0  0  0  0  0  0  0
   -0.6671    2.4085    0.9438 H   0  0  0  0  0  0  0  0  0  0  0  0
    0.2107    3.3018   -0.3081 H   0  0  0  0  0  0  0  0  0  0  0  0
    1.0884    2.4085    0.9438 H   0  0  0  0  0  0  0  0  0  0  0  0
    0.2107   -2.2602   -0.3224 C   0  0  0  0  0  0  0  0  0  0  0  0
    0.2107   -1.1240    0.6922 C   0  0  0  0  0  3  0  0  0  0  0  0
   -0.9816   -1.1825    1.6386 C   0  0  0  0  0  0  0  0  0  0  0  0
   -0.6925   -2.2351   -0.9370 H   0  0  0  0  0  0  0  0  0  0  0  0
    1.0714   -2.2013   -0.9907 H   0  0  0  0  0  0  0  0  0  0  0  0
    0.2415   -3.2310    0.1782 H   0  0  0  0  0  0  0  0  0  0  0  0
    1.1374   -1.1537    1.2720 H   0  0  0  0  0  0  0  0  0  0  0  0
   -0.9883   -2.1194    2.2010 H   0  0  0  0  0  0  0  0  0  0  0  0
   -0.9641   -0.3614    2.3572 H   0  0  0  0  0  0  0  0  0  0  0  0
   -1.9224   -1.1235    1.0859 H   0  0  0  0  0  0  0  0  0  0  0  0
  1  2  2  3
  1  4  1  0
  1  5  1  0
  2  3  1  0
  2  6  1  0
  3  7  1  0
  3  8  1  0
  3  9  1  0
 10 11  1  0
 10 13  1  0
 10 14  1  0
 10 15  1  0
 11 12  1  0
 11 16  1  0
 12 17  1  0
 12 18  1  0
 12 19  1  0
M  RAD  1  11   2
M  END
>  <reaction>  (16) 
rxn_762

>  <mol_properties>  (16) 
{"0": {"label": "*4", "atom_type": "Cd"}, "1": {"label": "*3", "atom_type": "Cd"}, "5": {"label": "*2", "atom_type": "H0"}, "9": {"label": "*0", "atom_type": "Cs"}, "10": {"label": "*1", "atom_type": "Cs"}}

>  <type>  (16) 
unop_12

>  <geom_source>  (16) 
Heuristics

$$$$

     RDKit          3D

 19 17  0  0  0  0  0  0  0  0999 V2000
    1.0188   -0.3869    0.0389 C   0  0  0  0  0  3  0  0  0  0  0  0
    1.4479   -0.2211   -1.4146 C   0  0  0  0  0  0  0  0  0  0  0  0
    2.0629    0.1794    0.9945 C   0  0  0  0  0  0  0  0  0  0  0  0
   -2.2594   -0.6623   -0.5142 C   0  0  0  0  0  0  0  0  0  0  0  0
   -1.8079    1.2069    1.0379 C   0  0  0  0  0  0  0  0  0  0  0  0
   -1.4224    0.4654   -0.0012 C   0  0  0  0  0  0  0  0  0  0  0  0
    0.8662   -1.4659    0.2572 H   0  0  0  0  0  0  0  0  0  0  0  0
   -0.1868    0.2801    0.2358 H   0  0  0  0  0  0  0  0  0  0  0  0
    0.6641   -0.6393   -2.0800 H   0  0  0  0  0  0  0  0  0  0  0  0
    2.4007   -0.7610   -1.6009 H   0  0  0  0  0  0  0  0  0  0  0  0
    1.5801    0.8551   -1.6549 H   0  0  0  0  0  0  0  0  0  0  0  0
    2.2081    1.2640    0.8049 H   0  0  0  0  0  0  0  0  0  0  0  0
    1.7160    0.0456    2.0404 H   0  0  0  0  0  0  0  0  0  0  0  0
    3.0310   -0.3506    0.8683 H   0  0  0  0  0  0  0  0  0  0  0  0
   -3.2483   -0.2815   -0.8462 H   0  0  0  0  0  0  0  0  0  0  0  0
   -2.4021   -1.4229    0.2822 H   0  0  0  0  0  0  0  0  0  0  0  0
   -1.7456   -1.1342   -1.3768 H   0  0  0  0  0  0  0  0  0  0  0  0
   -2.7479    1.0122    1.5458 H   0  0  0  0  0  0  0  0  0  0  0  0
   -1.1752    2.0171    1.3829 H   0  0  0  0  0  0  0  0  0  0  0  0
  1  2  1  0
  1  3  1  0
  1  7  1  0
  2  9  1  0
  2 10  1  0
  2 11  1  0
  3 12  1  0
  3 13  1  0
  3 14  1  0
  4  6  1  0
  4 15  1  0
  4 16  1  0
  4 17  1  0
  5  6  2  3
  5 18  1  0
  5 19  1  0
  6  8  1  0
M  RAD  1   1   2
M  END
>  <reaction>  (17) 
rxn_762

>  <mol_properties>  (17) 
{"0": {"label": "*4", "atom_type": "Cd"}, "1": {"label": "*3", "atom_type": "Cd"}, "5": {"label": "*2", "atom_type": "H0"}, "9": {"label": "*0", "atom_type": "Cs"}, "10": {"label": "*1", "atom_type": "Cs"}}

>  <type>  (17) 
unop_13

>  <geom_source>  (17) 
AutoTST

$$$$
