
     RDKit          3D

  5  4  0  0  0  0  0  0  0  0999 V2000
    0.0000    0.0000    0.0000 C   0  0  0  0  0  0  0  0  0  0  0  0
   -0.6486   -0.7720   -0.4113 H   0  0  0  0  0  0  0  0  0  0  0  0
   -0.3482    0.9787   -0.3267 H   0  0  0  0  0  0  0  0  0  0  0  0
   -0.0223   -0.0487    1.0876 H   0  0  0  0  0  0  0  0  0  0  0  0
    1.0191   -0.1580   -0.3496 H   0  0  0  0  0  0  0  0  0  0  0  0
  1  2  1  0
  1  3  1  0
  1  4  1  0
  1  5  1  0
M  END
>  <reaction>  (1) 
rxn_846

>  <mol_properties>  (1) 
{"0": {"label": "donator", "atom_type": "Cs"}, "1": {"label": "d_hydrogen", "atom_type": "H0"}}

>  <type>  (1) 
r1h

$$$$

     RDKit          3D

  5  4  0  0  0  0  0  0  0  0999 V2000
   -0.5642    0.0794    0.0348 C   0  0  0  0  0  3  0  0  0  0  0  0
    1.0624    0.5420    0.2853 S   0  0  0  0  0  0  0  0  0  0  0  0
   -1.3257    0.7631    0.3741 H   0  0  0  0  0  0  0  0  0  0  0  0
   -0.8236   -0.8519   -0.4401 H   0  0  0  0  0  0  0  0  0  0  0  0
    1.6511   -0.5325   -0.2540 H   0  0  0  0  0  0  0  0  0  0  0  0
  1  2  1  0
  1  3  1  0
  1  4  1  0
  2  5  1  0
M  RAD  1   1   2
M  END
>  <reaction>  (2) 
rxn_846

>  <mol_properties>  (2) 
{"0": {"label": "acceptor", "atom_type": "Cs"}}

>  <type>  (2) 
r2

$$$$

     RDKit          3D

  6  5  0  0  0  0  0  0  0  0999 V2000
   -0.5072   -0.0291   -0.0097 C   0  0  0  0  0  0  0  0  0  0  0  0
    1.1321   -0.1527   -0.7687 S   0  0  0  0  0  0  0  0  0  0  0  0
   -0.6174   -0.7330    0.8127 H   0  0  0  0  0  0  0  0  0  0  0  0
   -0.5863    0.9827    0.3845 H   0  0  0  0  0  0  0  0  0  0  0  0
   -1.2962   -0.1800   -0.7434 H   0  0  0  0  0  0  0  0  0  0  0  0
    1.0312   -1.4237   -1.1764 H   0  0  0  0  0  0  0  0  0  0  0  0
  1  2  1  0
  1  3  1  0
  1  4  1  0
  1  5  1  0
  2  6  1  0
M  END
>  <reaction>  (3) 
rxn_846

>  <mol_properties>  (3) 
{"0": {"label": "acceptor", "atom_type": "Cs"}, "5": {"label": "a_hydrogen", "atom_type": "H0"}}

>  <type>  (3) 
r2h

$$$$

     RDKit          3D

 10  8  0  0  0  0  0  0  0  0999 V2000
   -0.6194    0.0852    0.6098 C   0  0  0  0  0  0  0  0  0  0  0  0
    0.5905    1.0222   -0.2918 S   0  0  0  0  0  0  0  0  0  0  0  0
   -1.5970    0.5409    0.4697 H   0  0  0  0  0  0  0  0  0  0  0  0
   -0.3863   -0.0460    1.6639 H   0  0  0  0  0  0  0  0  0  0  0  0
    1.6680    0.3292    0.0981 H   0  0  0  0  0  0  0  0  0  0  0  0
   -0.8520   -2.3860   -0.4276 C   0  0  0  0  0  3  0  0  0  0  0  0
   -0.7338   -1.1059    0.1190 H   0  0  0  0  0  0  0  0  0  0  0  0
   -0.0022   -2.9313   -0.0278 H   0  0  0  0  0  0  0  0  0  0  0  0
   -1.8145   -2.7571   -0.0891 H   0  0  0  0  0  0  0  0  0  0  0  0
   -0.7954   -2.1997   -1.4956 H   0  0  0  0  0  0  0  0  0  0  0  0
  1  2  1  0
  1  3  1  0
  1  4  1  0
  1  7  1  0
  2  5  1  0
  6  8  1  0
  6  9  1  0
  6 10  1  0
M  RAD  1   6   2
M  END
>  <reaction>  (4) 
rxn_846

>  <mol_properties>  (4) 
{"0": {"label": "*1", "atom_type": "Cs"}, "1": {"label": "*0", "atom_type": "S2s"}, "5": {"label": "*3", "atom_type": "Cs"}, "6": {"label": "*2", "atom_type": "H0"}, "7": {"label": "*4", "atom_type": "H0"}}

>  <type>  (4) 
ts

$$$$

     RDKit          3D

 10  8  0  0  0  0  0  0  0  0999 V2000
    0.7565    0.4283   -0.3008 C   0  0  0  0  0  0  0  0  0  0  0  0
   -0.7037    0.7693    0.7140 S   0  0  0  0  0  0  0  0  0  0  0  0
    1.4477   -0.1242    0.3336 H   0  0  0  0  0  0  0  0  0  0  0  0
    1.2391    1.3486   -0.6231 H   0  0  0  0  0  0  0  0  0  0  0  0
   -1.4029    1.4297   -0.2171 H   0  0  0  0  0  0  0  0  0  0  0  0
    0.7565   -2.0347   -1.1716 C   0  0  0  0  0  3  0  0  0  0  0  0
    0.7565   -0.8027   -0.7360 H   0  0  0  0  0  0  0  0  0  0  0  0
    1.6456   -2.5480   -0.8086 H   0  0  0  0  0  0  0  0  0  0  0  0
   -0.1326   -2.5480   -0.8086 H   0  0  0  0  0  0  0  0  0  0  0  0
    0.7565   -2.0347   -2.2605 H   0  0  0  0  0  0  0  0  0  0  0  0
  1  2  1  0
  1  3  1  0
  1  4  1  0
  1  7  1  0
  2  5  1  0
  6  8  1  0
  6  9  1  0
  6 10  1  0
M  RAD  1   6   2
M  END
>  <reaction>  (5) 
rxn_846

>  <mol_properties>  (5) 
{"0": {"label": "*1", "atom_type": "Cs"}, "1": {"label": "*0", "atom_type": "S2s"}, "5": {"label": "*3", "atom_type": "Cs"}, "6": {"label": "*2", "atom_type": "H0"}, "7": {"label": "*4", "atom_type": "H0"}}

>  <type>  (5) 
unop_1

>  <geom_source>  (5) 
Heuristics

$$$$

     RDKit          3D

 10  8  0  0  0  0  0  0  0  0999 V2000
    0.4224    0.0366    0.8198 C   0  0  0  0  0  0  0  0  0  0  0  0
   -0.4206    1.1454   -0.3370 S   0  0  0  0  0  0  0  0  0  0  0  0
   -0.2924   -0.1800    1.6120 H   0  0  0  0  0  0  0  0  0  0  0  0
    1.2964    0.5125    1.2596 H   0  0  0  0  0  0  0  0  0  0  0  0
    0.5916    1.2845   -1.2019 H   0  0  0  0  0  0  0  0  0  0  0  0
    0.4224   -2.4263   -0.0510 C   0  0  0  0  0  3  0  0  0  0  0  0
    0.4224   -1.1943    0.3846 H   0  0  0  0  0  0  0  0  0  0  0  0
    1.3115   -2.9397    0.3120 H   0  0  0  0  0  0  0  0  0  0  0  0
   -0.4667   -2.9397    0.3120 H   0  0  0  0  0  0  0  0  0  0  0  0
    0.4224   -2.4263   -1.1399 H   0  0  0  0  0  0  0  0  0  0  0  0
  1  2  1  0
  1  3  1  0
  1  4  1  0
  1  7  1  0
  2  5  1  0
  6  8  1  0
  6  9  1  0
  6 10  1  0
M  RAD  1   6   2
M  END
>  <reaction>  (6) 
rxn_846

>  <mol_properties>  (6) 
{"0": {"label": "*1", "atom_type": "Cs"}, "1": {"label": "*0", "atom_type": "S2s"}, "5": {"label": "*3", "atom_type": "Cs"}, "6": {"label": "*2", "atom_type": "H0"}, "7": {"label": "*4", "atom_type": "H0"}}

>  <type>  (6) 
unop_2

>  <geom_source>  (6) 
Heuristics

$$$$

     RDKit          3D

 10  8  0  0  0  0  0  0  0  0999 V2000
    0.4449    0.5368   -0.6021 C   0  0  0  0  0  0  0  0  0  0  0  0
   -0.3982    0.6721    0.9945 S   0  0  0  0  0  0  0  0  0  0  0  0
    1.4894    0.3250   -0.3796 H   0  0  0  0  0  0  0  0  0  0  0  0
    0.3896    1.4693   -1.1600 H   0  0  0  0  0  0  0  0  0  0  0  0
   -1.6223    0.9247    0.5154 H   0  0  0  0  0  0  0  0  0  0  0  0
    0.4449   -1.9261   -1.4729 C   0  0  0  0  0  3  0  0  0  0  0  0
    0.4449   -0.6941   -1.0373 H   0  0  0  0  0  0  0  0  0  0  0  0
    1.3340   -2.4395   -1.1099 H   0  0  0  0  0  0  0  0  0  0  0  0
   -0.4442   -2.4395   -1.1099 H   0  0  0  0  0  0  0  0  0  0  0  0
    0.4449   -1.9261   -2.5618 H   0  0  0  0  0  0  0  0  0  0  0  0
  1  2  1  0
  1  3  1  0
  1  4  1  0
  1  7  1  0
  2  5  1  0
  6  8  1  0
  6  9  1  0
  6 10  1  0
M  RAD  1   6   2
M  END
>  <reaction>  (7) 
rxn_846

>  <mol_properties>  (7) 
{"0": {"label": "*1", "atom_type": "Cs"}, "1": {"label": "*0", "atom_type": "S2s"}, "5": {"label": "*3", "atom_type": "Cs"}, "6": {"label": "*2", "atom_type": "H0"}, "7": {"label": "*4", "atom_type": "H0"}}

>  <type>  (7) 
unop_3

>  <geom_source>  (7) 
Heuristics

$$$$

     RDKit          3D

 10  8  0  0  0  0  0  0  0  0999 V2000
   -0.7675    0.1630    0.5050 C   0  0  0  0  0  0  0  0  0  0  0  0
    0.6927    1.0661   -0.0699 S   0  0  0  0  0  0  0  0  0  0  0  0
   -1.5610    0.9008    0.6119 H   0  0  0  0  0  0  0  0  0  0  0  0
   -0.5908   -0.3014    1.4729 H   0  0  0  0  0  0  0  0  0  0  0  0
    1.5220    0.0173   -0.1351 H   0  0  0  0  0  0  0  0  0  0  0  0
   -0.7675   -2.2999   -0.3658 C   0  0  0  0  0  3  0  0  0  0  0  0
   -0.7675   -1.0679    0.0698 H   0  0  0  0  0  0  0  0  0  0  0  0
    0.1216   -2.8132   -0.0028 H   0  0  0  0  0  0  0  0  0  0  0  0
   -1.6566   -2.8132   -0.0028 H   0  0  0  0  0  0  0  0  0  0  0  0
   -0.7675   -2.2999   -1.4547 H   0  0  0  0  0  0  0  0  0  0  0  0
  1  2  1  0
  1  3  1  0
  1  4  1  0
  1  7  1  0
  2  5  1  0
  6  8  1  0
  6  9  1  0
  6 10  1  0
M  RAD  1   6   2
M  END
>  <reaction>  (8) 
rxn_846

>  <mol_properties>  (8) 
{"0": {"label": "*1", "atom_type": "Cs"}, "1": {"label": "*0", "atom_type": "S2s"}, "5": {"label": "*3", "atom_type": "Cs"}, "6": {"label": "*2", "atom_type": "H0"}, "7": {"label": "*4", "atom_type": "H0"}}

>  <type>  (8) 
unop_4

>  <geom_source>  (8) 
Heuristics

$$$$

     RDKit          3D

 10  8  0  0  0  0  0  0  0  0999 V2000
    0.0175    0.5852   -0.7178 C   0  0  0  0  0  0  0  0  0  0  0  0
    0.0175    0.6453    1.0918 S   0  0  0  0  0  0  0  0  0  0  0  0
    0.9382    1.0690   -1.0400 H   0  0  0  0  0  0  0  0  0  0  0  0
   -0.8269    1.1318   -1.1326 H   0  0  0  0  0  0  0  0  0  0  0  0
   -1.1528    0.0230    1.2790 H   0  0  0  0  0  0  0  0  0  0  0  0
    0.0175   -1.8777   -1.5886 C   0  0  0  0  0  3  0  0  0  0  0  0
    0.0175   -0.6457   -1.1530 H   0  0  0  0  0  0  0  0  0  0  0  0
    0.9066   -2.3910   -1.2256 H   0  0  0  0  0  0  0  0  0  0  0  0
   -0.8716   -2.3910   -1.2256 H   0  0  0  0  0  0  0  0  0  0  0  0
    0.0175   -1.8777   -2.6775 H   0  0  0  0  0  0  0  0  0  0  0  0
  1  2  1  0
  1  3  1  0
  1  4  1  0
  1  7  1  0
  2  5  1  0
  6  8  1  0
  6  9  1  0
  6 10  1  0
M  RAD  1   6   2
M  END
>  <reaction>  (9) 
rxn_846

>  <mol_properties>  (9) 
{"0": {"label": "*1", "atom_type": "Cs"}, "1": {"label": "*0", "atom_type": "S2s"}, "5": {"label": "*3", "atom_type": "Cs"}, "6": {"label": "*2", "atom_type": "H0"}, "7": {"label": "*4", "atom_type": "H0"}}

>  <type>  (9) 
unop_5

>  <geom_source>  (9) 
Heuristics

$$$$

     RDKit          3D

 10  8  0  0  0  0  0  0  0  0999 V2000
   -0.8765    0.3117    0.0913 C   0  0  0  0  0  0  0  0  0  0  0  0
    0.8097    0.9338    0.3112 S   0  0  0  0  0  0  0  0  0  0  0  0
   -1.5136    1.1875   -0.0203 H   0  0  0  0  0  0  0  0  0  0  0  0
   -1.2078   -0.2517    0.9611 H   0  0  0  0  0  0  0  0  0  0  0  0
    1.4123   -0.2560    0.4261 H   0  0  0  0  0  0  0  0  0  0  0  0
   -0.8765   -2.1512   -0.7795 C   0  0  0  0  0  3  0  0  0  0  0  0
   -0.8765   -0.9192   -0.3439 H   0  0  0  0  0  0  0  0  0  0  0  0
    0.0127   -2.6646   -0.4165 H   0  0  0  0  0  0  0  0  0  0  0  0
   -1.7656   -2.6646   -0.4165 H   0  0  0  0  0  0  0  0  0  0  0  0
   -0.8765   -2.1512   -1.8684 H   0  0  0  0  0  0  0  0  0  0  0  0
  1  2  1  0
  1  3  1  0
  1  4  1  0
  1  7  1  0
  2  5  1  0
  6  8  1  0
  6  9  1  0
  6 10  1  0
M  RAD  1   6   2
M  END
>  <reaction>  (10) 
rxn_846

>  <mol_properties>  (10) 
{"0": {"label": "*1", "atom_type": "Cs"}, "1": {"label": "*0", "atom_type": "S2s"}, "5": {"label": "*3", "atom_type": "Cs"}, "6": {"label": "*2", "atom_type": "H0"}, "7": {"label": "*4", "atom_type": "H0"}}

>  <type>  (10) 
unop_6

>  <geom_source>  (10) 
Heuristics

$$$$

     RDKit          3D

 10  8  0  0  0  0  0  0  0  0999 V2000
   -0.7502    0.4571   -0.3196 C   0  0  0  0  0  0  0  0  0  0  0  0
    0.7100    0.7982    0.6952 S   0  0  0  0  0  0  0  0  0  0  0  0
   -1.1089    1.4222   -0.6737 H   0  0  0  0  0  0  0  0  0  0  0  0
   -1.5377   -0.0143    0.2647 H   0  0  0  0  0  0  0  0  0  0  0  0
    0.9866   -0.4705    1.0206 H   0  0  0  0  0  0  0  0  0  0  0  0
   -0.7502   -2.0058   -1.1903 C   0  0  0  0  0  3  0  0  0  0  0  0
   -0.7502   -0.7738   -0.7548 H   0  0  0  0  0  0  0  0  0  0  0  0
    0.1389   -2.5191   -0.8274 H   0  0  0  0  0  0  0  0  0  0  0  0
   -1.6393   -2.5191   -0.8274 H   0  0  0  0  0  0  0  0  0  0  0  0
   -0.7502   -2.0058   -2.2793 H   0  0  0  0  0  0  0  0  0  0  0  0
  1  2  1  0
  1  3  1  0
  1  4  1  0
  1  7  1  0
  2  5  1  0
  6  8  1  0
  6  9  1  0
  6 10  1  0
M  RAD  1   6   2
M  END
>  <reaction>  (11) 
rxn_846

>  <mol_properties>  (11) 
{"0": {"label": "*1", "atom_type": "Cs"}, "1": {"label": "*0", "atom_type": "S2s"}, "5": {"label": "*3", "atom_type": "Cs"}, "6": {"label": "*2", "atom_type": "H0"}, "7": {"label": "*4", "atom_type": "H0"}}

>  <type>  (11) 
unop_7

>  <geom_source>  (11) 
Heuristics

$$$$

     RDKit          3D

 10  8  0  0  0  0  0  0  0  0999 V2000
    0.8684    0.2832    0.1099 C   0  0  0  0  0  0  0  0  0  0  0  0
   -0.8178    0.9053    0.3298 S   0  0  0  0  0  0  0  0  0  0  0  0
    1.0792   -0.3420    0.9760 H   0  0  0  0  0  0  0  0  0  0  0  0
    1.5906    1.0964    0.0830 H   0  0  0  0  0  0  0  0  0  0  0  0
   -0.8786    1.6235   -0.7982 H   0  0  0  0  0  0  0  0  0  0  0  0
    0.8684   -2.1798   -0.7609 C   0  0  0  0  0  3  0  0  0  0  0  0
    0.8684   -0.9478   -0.3253 H   0  0  0  0  0  0  0  0  0  0  0  0
    1.7575   -2.6931   -0.3979 H   0  0  0  0  0  0  0  0  0  0  0  0
   -0.0208   -2.6931   -0.3979 H   0  0  0  0  0  0  0  0  0  0  0  0
    0.8684   -2.1798   -1.8498 H   0  0  0  0  0  0  0  0  0  0  0  0
  1  2  1  0
  1  3  1  0
  1  4  1  0
  1  7  1  0
  2  5  1  0
  6  8  1  0
  6  9  1  0
  6 10  1  0
M  RAD  1   6   2
M  END
>  <reaction>  (12) 
rxn_846

>  <mol_properties>  (12) 
{"0": {"label": "*1", "atom_type": "Cs"}, "1": {"label": "*0", "atom_type": "S2s"}, "5": {"label": "*3", "atom_type": "Cs"}, "6": {"label": "*2", "atom_type": "H0"}, "7": {"label": "*4", "atom_type": "H0"}}

>  <type>  (12) 
unop_8

>  <geom_source>  (12) 
Heuristics

$$$$

     RDKit          3D

 10  8  0  0  0  0  0  0  0  0999 V2000
   -0.4532    0.0505    0.8107 C   0  0  0  0  0  0  0  0  0  0  0  0
    0.3899    1.1594   -0.3461 S   0  0  0  0  0  0  0  0  0  0  0  0
   -1.3584    0.5673    1.1252 H   0  0  0  0  0  0  0  0  0  0  0  0
    0.1586   -0.1462    1.6886 H   0  0  0  0  0  0  0  0  0  0  0  0
    1.4370    0.3662   -0.6037 H   0  0  0  0  0  0  0  0  0  0  0  0
   -0.4532   -2.4124   -0.0601 C   0  0  0  0  0  3  0  0  0  0  0  0
   -0.4532   -1.1804    0.3755 H   0  0  0  0  0  0  0  0  0  0  0  0
    0.4359   -2.9257    0.3029 H   0  0  0  0  0  0  0  0  0  0  0  0
   -1.3423   -2.9257    0.3029 H   0  0  0  0  0  0  0  0  0  0  0  0
   -0.4532   -2.4124   -1.1490 H   0  0  0  0  0  0  0  0  0  0  0  0
  1  2  1  0
  1  3  1  0
  1  4  1  0
  1  7  1  0
  2  5  1  0
  6  8  1  0
  6  9  1  0
  6 10  1  0
M  RAD  1   6   2
M  END
>  <reaction>  (13) 
rxn_846

>  <mol_properties>  (13) 
{"0": {"label": "*1", "atom_type": "Cs"}, "1": {"label": "*0", "atom_type": "S2s"}, "5": {"label": "*3", "atom_type": "Cs"}, "6": {"label": "*2", "atom_type": "H0"}, "7": {"label": "*4", "atom_type": "H0"}}

>  <type>  (13) 
unop_9

>  <geom_source>  (13) 
Heuristics

$$$$

     RDKit          3D

 10  8  0  0  0  0  0  0  0  0999 V2000
    0.7468    0.1394    0.5204 C   0  0  0  0  0  0  0  0  0  0  0  0
   -0.7134    1.0425   -0.0545 S   0  0  0  0  0  0  0  0  0  0  0  0
    0.4517   -0.3672    1.4379 H   0  0  0  0  0  0  0  0  0  0  0  0
    1.5686    0.8161    0.7450 H   0  0  0  0  0  0  0  0  0  0  0  0
   -0.1588    1.5754   -1.1500 H   0  0  0  0  0  0  0  0  0  0  0  0
    0.7468   -2.3236   -0.3504 C   0  0  0  0  0  3  0  0  0  0  0  0
    0.7468   -1.0916    0.0852 H   0  0  0  0  0  0  0  0  0  0  0  0
    1.6359   -2.8369    0.0126 H   0  0  0  0  0  0  0  0  0  0  0  0
   -0.1423   -2.8369    0.0126 H   0  0  0  0  0  0  0  0  0  0  0  0
    0.7468   -2.3236   -1.4393 H   0  0  0  0  0  0  0  0  0  0  0  0
  1  2  1  0
  1  3  1  0
  1  4  1  0
  1  7  1  0
  2  5  1  0
  6  8  1  0
  6  9  1  0
  6 10  1  0
M  RAD  1   6   2
M  END
>  <reaction>  (14) 
rxn_846

>  <mol_properties>  (14) 
{"0": {"label": "*1", "atom_type": "Cs"}, "1": {"label": "*0", "atom_type": "S2s"}, "5": {"label": "*3", "atom_type": "Cs"}, "6": {"label": "*2", "atom_type": "H0"}, "7": {"label": "*4", "atom_type": "H0"}}

>  <type>  (14) 
unop_10

>  <geom_source>  (14) 
Heuristics

$$$$

     RDKit          3D

 10  8  0  0  0  0  0  0  0  0999 V2000
   -0.4215    0.5586   -0.6163 C   0  0  0  0  0  0  0  0  0  0  0  0
    0.4216    0.6939    0.9803 S   0  0  0  0  0  0  0  0  0  0  0  0
   -0.2349    1.4941   -1.1411 H   0  0  0  0  0  0  0  0  0  0  0  0
   -1.4954    0.4389   -0.4888 H   0  0  0  0  0  0  0  0  0  0  0  0
    0.0807   -0.5119    1.4512 H   0  0  0  0  0  0  0  0  0  0  0  0
   -0.4215   -1.9043   -1.4871 C   0  0  0  0  0  3  0  0  0  0  0  0
   -0.4215   -0.6723   -1.0515 H   0  0  0  0  0  0  0  0  0  0  0  0
    0.4676   -2.4177   -1.1241 H   0  0  0  0  0  0  0  0  0  0  0  0
   -1.3106   -2.4177   -1.1241 H   0  0  0  0  0  0  0  0  0  0  0  0
   -0.4215   -1.9043   -2.5760 H   0  0  0  0  0  0  0  0  0  0  0  0
  1  2  1  0
  1  3  1  0
  1  4  1  0
  1  7  1  0
  2  5  1  0
  6  8  1  0
  6  9  1  0
  6 10  1  0
M  RAD  1   6   2
M  END
>  <reaction>  (15) 
rxn_846

>  <mol_properties>  (15) 
{"0": {"label": "*1", "atom_type": "Cs"}, "1": {"label": "*0", "atom_type": "S2s"}, "5": {"label": "*3", "atom_type": "Cs"}, "6": {"label": "*2", "atom_type": "H0"}, "7": {"label": "*4", "atom_type": "H0"}}

>  <type>  (15) 
unop_11

>  <geom_source>  (15) 
Heuristics

$$$$

     RDKit          3D

 10  8  0  0  0  0  0  0  0  0999 V2000
   -0.0175    0.0040    0.9261 C   0  0  0  0  0  0  0  0  0  0  0  0
   -0.0175    1.1881   -0.4436 S   0  0  0  0  0  0  0  0  0  0  0  0
   -0.9382    0.1778    1.4808 H   0  0  0  0  0  0  0  0  0  0  0  0
    0.8269    0.1684    1.5923 H   0  0  0  0  0  0  0  0  0  0  0  0
    1.1528    0.8218   -0.9803 H   0  0  0  0  0  0  0  0  0  0  0  0
   -0.0175   -2.4589    0.0554 C   0  0  0  0  0  3  0  0  0  0  0  0
   -0.0175   -1.2269    0.4909 H   0  0  0  0  0  0  0  0  0  0  0  0
    0.8716   -2.9722    0.4183 H   0  0  0  0  0  0  0  0  0  0  0  0
   -0.9066   -2.9722    0.4183 H   0  0  0  0  0  0  0  0  0  0  0  0
   -0.0175   -2.4589   -1.0336 H   0  0  0  0  0  0  0  0  0  0  0  0
  1  2  1  0
  1  3  1  0
  1  4  1  0
  1  7  1  0
  2  5  1  0
  6  8  1  0
  6  9  1  0
  6 10  1  0
M  RAD  1   6   2
M  END
>  <reaction>  (16) 
rxn_846

>  <mol_properties>  (16) 
{"0": {"label": "*1", "atom_type": "Cs"}, "1": {"label": "*0", "atom_type": "S2s"}, "5": {"label": "*3", "atom_type": "Cs"}, "6": {"label": "*2", "atom_type": "H0"}, "7": {"label": "*4", "atom_type": "H0"}}

>  <type>  (16) 
unop_12

>  <geom_source>  (16) 
Heuristics

$$$$

     RDKit          3D

 10  8  0  0  0  0  0  0  0  0999 V2000
    2.1445    0.7190    0.4461 S   0  0  0  0  0  0  0  0  0  0  0  0
    1.0610   -0.5107   -0.3326 C   0  0  0  0  0  3  0  0  0  0  0  0
   -1.4272   -0.0038    0.2744 C   0  0  0  0  0  0  0  0  0  0  0  0
    0.9947   -0.3117   -1.4222 H   0  0  0  0  0  0  0  0  0  0  0  0
    1.4777   -1.5256   -0.1686 H   0  0  0  0  0  0  0  0  0  0  0  0
   -0.2119   -0.4355    0.2329 H   0  0  0  0  0  0  0  0  0  0  0  0
   -1.6847    0.6912   -0.5511 H   0  0  0  0  0  0  0  0  0  0  0  0
   -1.5965    0.4999    1.2483 H   0  0  0  0  0  0  0  0  0  0  0  0
   -2.0667   -0.9080    0.2096 H   0  0  0  0  0  0  0  0  0  0  0  0
    1.3092    1.7853    0.0631 H   0  0  0  0  0  0  0  0  0  0  0  0
  1  2  1  0
  1 10  1  0
  2  4  1  0
  2  5  1  0
  3  6  1  0
  3  7  1  0
  3  8  1  0
  3  9  1  0
M  RAD  1   2   2
M  END
>  <reaction>  (17) 
rxn_846

>  <mol_properties>  (17) 
{"0": {"label": "*1", "atom_type": "Cs"}, "1": {"label": "*0", "atom_type": "S2s"}, "5": {"label": "*3", "atom_type": "Cs"}, "6": {"label": "*2", "atom_type": "H0"}, "7": {"label": "*4", "atom_type": "H0"}}

>  <type>  (17) 
unop_13

>  <geom_source>  (17) 
AutoTST

$$$$
