
     RDKit          3D

  9  8  0  0  0  0  0  0  0  0999 V2000
   -2.1022   -0.6873    0.3932 C   0  0  0  0  0  0  0  0  0  0  0  0
   -1.2072   -0.1086   -0.1482 C   0  0  0  0  0  0  0  0  0  0  0  0
   -0.1242    0.6105   -0.8193 C   0  0  0  0  0  0  0  0  0  0  0  0
    1.2067    0.1106   -0.4741 C   0  0  0  0  0  0  0  0  0  0  0  0
    2.3005   -0.2875   -0.2012 C   0  0  0  0  0  0  0  0  0  0  0  0
   -2.8942   -1.2059    0.8778 H   0  0  0  0  0  0  0  0  0  0  0  0
   -0.1862    1.6723   -0.5649 H   0  0  0  0  0  0  0  0  0  0  0  0
   -0.2641    0.5418   -1.9017 H   0  0  0  0  0  0  0  0  0  0  0  0
    3.2709   -0.6459    0.0455 H   0  0  0  0  0  0  0  0  0  0  0  0
  1  2  3  0
  1  6  1  0
  2  3  1  0
  3  4  1  0
  3  7  1  0
  3  8  1  0
  4  5  3  0
  5  9  1  0
M  END
>  <reaction>  (1) 
rxn_1346

>  <mol_properties>  (1) 
{"2": {"label": "donator", "atom_type": "Cs"}, "6": {"label": "d_hydrogen", "atom_type": "H0"}}

>  <type>  (1) 
r1h

$$$$

     RDKit          3D

  4  3  0  0  0  0  0  0  0  0999 V2000
    0.0000    0.0000    0.0000 C   0  0  0  0  0  3  0  0  0  0  0  0
    1.0638   -0.1747    0.0540 H   0  0  0  0  0  0  0  0  0  0  0  0
   -0.6833   -0.8351   -0.0280 H   0  0  0  0  0  0  0  0  0  0  0  0
   -0.3805    1.0098   -0.0260 H   0  0  0  0  0  0  0  0  0  0  0  0
  1  2  1  0
  1  3  1  0
  1  4  1  0
M  RAD  1   1   2
M  END
>  <reaction>  (2) 
rxn_1346

>  <mol_properties>  (2) 
{"0": {"label": "acceptor", "atom_type": "Cs"}}

>  <type>  (2) 
r2

$$$$

     RDKit          3D

  5  4  0  0  0  0  0  0  0  0999 V2000
    0.0000    0.0000    0.0000 C   0  0  0  0  0  0  0  0  0  0  0  0
   -0.6486   -0.7720   -0.4113 H   0  0  0  0  0  0  0  0  0  0  0  0
   -0.3482    0.9787   -0.3267 H   0  0  0  0  0  0  0  0  0  0  0  0
   -0.0223   -0.0487    1.0876 H   0  0  0  0  0  0  0  0  0  0  0  0
    1.0191   -0.1580   -0.3496 H   0  0  0  0  0  0  0  0  0  0  0  0
  1  2  1  0
  1  3  1  0
  1  4  1  0
  1  5  1  0
M  END
>  <reaction>  (3) 
rxn_1346

>  <mol_properties>  (3) 
{"0": {"label": "a_hydrogen", "atom_type": "H0"}, "1": {"label": "acceptor", "atom_type": "Cs"}}

>  <type>  (3) 
r2h

$$$$

     RDKit          3D

 13 11  0  0  0  0  0  0  0  0999 V2000
    0.6408   -0.7857   -2.2940 C   0  0  0  0  0  0  0  0  0  0  0  0
    0.3826   -0.6923   -1.1276 C   0  0  0  0  0  0  0  0  0  0  0  0
    0.1293   -0.5482    0.2851 C   0  0  0  0  0  0  0  0  0  0  0  0
   -1.1782   -0.0596    0.6492 C   0  0  0  0  0  0  0  0  0  0  0  0
   -2.2401    0.3821    0.9855 C   0  0  0  0  0  0  0  0  0  0  0  0
    0.8541   -0.8772   -3.3317 H   0  0  0  0  0  0  0  0  0  0  0  0
    0.9525    0.2951    0.7079 H   0  0  0  0  0  0  0  0  0  0  0  0
    0.4007   -1.4455    0.8430 H   0  0  0  0  0  0  0  0  0  0  0  0
   -3.1907    0.7623    1.2728 H   0  0  0  0  0  0  0  0  0  0  0  0
    1.9055    1.3103    1.1827 C   0  0  0  0  0  3  0  0  0  0  0  0
    1.7168    1.3335    2.2500 H   0  0  0  0  0  0  0  0  0  0  0  0
    1.5712    2.1795    0.6279 H   0  0  0  0  0  0  0  0  0  0  0  0
    2.8608    0.8979    0.8785 H   0  0  0  0  0  0  0  0  0  0  0  0
  1  2  3  0
  1  6  1  0
  2  3  1  0
  3  4  1  0
  3  7  1  0
  3  8  1  0
  4  5  3  0
  5  9  1  0
 10 11  1  0
 10 12  1  0
 10 13  1  0
M  RAD  1  10   2
M  END
>  <reaction>  (4) 
rxn_1346

>  <mol_properties>  (4) 
{"1": {"label": "*0", "atom_type": "Ct"}, "2": {"label": "*1", "atom_type": "Cs"}, "6": {"label": "*2", "atom_type": "H0"}, "9": {"label": "*3", "atom_type": "Cs"}, "10": {"label": "*4", "atom_type": "H0"}}

>  <type>  (4) 
ts

$$$$

     RDKit          3D

 13 11  0  0  0  0  0  0  0  0999 V2000
    0.2565   -0.4698   -2.4390 C   0  0  0  0  0  0  0  0  0  0  0  0
    0.2565   -0.4698   -1.2435 C   0  0  0  0  0  0  0  0  0  0  0  0
    0.2565   -0.4698    0.2195 C   0  0  0  0  0  3  0  0  0  0  0  0
   -1.0575   -0.1942    0.8006 C   0  0  0  0  0  0  0  0  0  0  0  0
   -2.1313    0.0310    1.2755 C   0  0  0  0  0  0  0  0  0  0  0  0
    0.2565   -0.4698   -3.5025 H   0  0  0  0  0  0  0  0  0  0  0  0
    1.1146    0.4245    0.6505 H   0  0  0  0  0  0  0  0  0  0  0  0
    0.6119   -1.4397    0.5787 H   0  0  0  0  0  0  0  0  0  0  0  0
   -3.0865    0.2313    1.6980 H   0  0  0  0  0  0  0  0  0  0  0  0
    1.9691    1.3151    1.0797 C   0  0  0  0  0  0  0  0  0  0  0  0
    1.4482    2.0564    1.6838 H   0  0  0  0  0  0  0  0  0  0  0  0
    2.9103    1.7325    0.7249 H   0  0  0  0  0  0  0  0  0  0  0  0
    2.1042    0.5328    1.8250 H   0  0  0  0  0  0  0  0  0  0  0  0
  1  2  3  0
  1  6  1  0
  2  3  1  0
  3  4  1  0
  3  8  1  0
  4  5  3  0
  5  9  1  0
  7 10  1  0
 10 11  1  0
 10 12  1  0
 10 13  1  0
M  RAD  1   3   2
M  END
>  <reaction>  (5) 
rxn_1346

>  <mol_properties>  (5) 
{"1": {"label": "*0", "atom_type": "Ct"}, "2": {"label": "*1", "atom_type": "Cs"}, "6": {"label": "*2", "atom_type": "H0"}, "9": {"label": "*3", "atom_type": "Cs"}, "10": {"label": "*4", "atom_type": "H0"}}

>  <type>  (5) 
unop_1

>  <geom_source>  (5) 
Heuristics

$$$$

     RDKit          3D

 13 11  0  0  0  0  0  0  0  0999 V2000
    0.2581   -0.4690   -2.4326 C   0  0  0  0  0  0  0  0  0  0  0  0
    0.2581   -0.4690   -1.2371 C   0  0  0  0  0  0  0  0  0  0  0  0
    0.2581   -0.4690    0.2259 C   0  0  0  0  0  3  0  0  0  0  0  0
   -1.0559   -0.1934    0.8071 C   0  0  0  0  0  0  0  0  0  0  0  0
   -2.1297    0.0319    1.2820 C   0  0  0  0  0  0  0  0  0  0  0  0
    0.2581   -0.4690   -3.4961 H   0  0  0  0  0  0  0  0  0  0  0  0
    1.1162    0.4254    0.6569 H   0  0  0  0  0  0  0  0  0  0  0  0
    0.6135   -1.4388    0.5851 H   0  0  0  0  0  0  0  0  0  0  0  0
   -3.0849    0.2322    1.7044 H   0  0  0  0  0  0  0  0  0  0  0  0
    1.9707    1.3160    1.0861 C   0  0  0  0  0  0  0  0  0  0  0  0
    2.0398    2.1295    0.3656 H   0  0  0  0  0  0  0  0  0  0  0  0
    2.9667    1.0668    1.4489 H   0  0  0  0  0  0  0  0  0  0  0  0
    1.3366    1.0583    1.9330 H   0  0  0  0  0  0  0  0  0  0  0  0
  1  2  3  0
  1  6  1  0
  2  3  1  0
  3  4  1  0
  3  8  1  0
  4  5  3  0
  5  9  1  0
  7 10  1  0
 10 11  1  0
 10 12  1  0
 10 13  1  0
M  RAD  1   3   2
M  END
>  <reaction>  (6) 
rxn_1346

>  <mol_properties>  (6) 
{"1": {"label": "*0", "atom_type": "Ct"}, "2": {"label": "*1", "atom_type": "Cs"}, "6": {"label": "*2", "atom_type": "H0"}, "9": {"label": "*3", "atom_type": "Cs"}, "10": {"label": "*4", "atom_type": "H0"}}

>  <type>  (6) 
unop_2

>  <geom_source>  (6) 
Heuristics

$$$$

     RDKit          3D

 13 11  0  0  0  0  0  0  0  0999 V2000
    0.2534   -0.4705   -2.4382 C   0  0  0  0  0  0  0  0  0  0  0  0
    0.2534   -0.4705   -1.2427 C   0  0  0  0  0  0  0  0  0  0  0  0
    0.2534   -0.4705    0.2203 C   0  0  0  0  0  3  0  0  0  0  0  0
   -1.0607   -0.1949    0.8015 C   0  0  0  0  0  0  0  0  0  0  0  0
   -2.1344    0.0303    1.2764 C   0  0  0  0  0  0  0  0  0  0  0  0
    0.2534   -0.4705   -3.5016 H   0  0  0  0  0  0  0  0  0  0  0  0
    1.1115    0.4239    0.6514 H   0  0  0  0  0  0  0  0  0  0  0  0
    0.6087   -1.4403    0.5795 H   0  0  0  0  0  0  0  0  0  0  0  0
   -3.0896    0.2307    1.6989 H   0  0  0  0  0  0  0  0  0  0  0  0
    1.9660    1.3145    1.0806 C   0  0  0  0  0  0  0  0  0  0  0  0
    1.6307    1.7066    2.0396 H   0  0  0  0  0  0  0  0  0  0  0  0
    2.4971    2.0934    0.5356 H   0  0  0  0  0  0  0  0  0  0  0  0
    2.5725    0.5693    1.5930 H   0  0  0  0  0  0  0  0  0  0  0  0
  1  2  3  0
  1  6  1  0
  2  3  1  0
  3  4  1  0
  3  8  1  0
  4  5  3  0
  5  9  1  0
  7 10  1  0
 10 11  1  0
 10 12  1  0
 10 13  1  0
M  RAD  1   3   2
M  END
>  <reaction>  (7) 
rxn_1346

>  <mol_properties>  (7) 
{"1": {"label": "*0", "atom_type": "Ct"}, "2": {"label": "*1", "atom_type": "Cs"}, "6": {"label": "*2", "atom_type": "H0"}, "9": {"label": "*3", "atom_type": "Cs"}, "10": {"label": "*4", "atom_type": "H0"}}

>  <type>  (7) 
unop_3

>  <geom_source>  (7) 
Heuristics

$$$$

     RDKit          3D

 13 11  0  0  0  0  0  0  0  0999 V2000
    0.2583   -0.4682   -2.4356 C   0  0  0  0  0  0  0  0  0  0  0  0
    0.2583   -0.4682   -1.2401 C   0  0  0  0  0  0  0  0  0  0  0  0
    0.2583   -0.4682    0.2229 C   0  0  0  0  0  3  0  0  0  0  0  0
   -1.0557   -0.1926    0.8041 C   0  0  0  0  0  0  0  0  0  0  0  0
   -2.1295    0.0326    1.2790 C   0  0  0  0  0  0  0  0  0  0  0  0
    0.2583   -0.4682   -3.4991 H   0  0  0  0  0  0  0  0  0  0  0  0
    1.1164    0.4262    0.6539 H   0  0  0  0  0  0  0  0  0  0  0  0
    0.6137   -1.4380    0.5821 H   0  0  0  0  0  0  0  0  0  0  0  0
   -3.0847    0.2330    1.7014 H   0  0  0  0  0  0  0  0  0  0  0  0
    1.9709    1.3168    1.0831 C   0  0  0  0  0  0  0  0  0  0  0  0
    2.9666    1.0703    0.7175 H   0  0  0  0  0  0  0  0  0  0  0  0
    1.7955    0.8077    2.0296 H   0  0  0  0  0  0  0  0  0  0  0  0
    1.5653    2.3171    1.2272 H   0  0  0  0  0  0  0  0  0  0  0  0
  1  2  3  0
  1  6  1  0
  2  3  1  0
  3  4  1  0
  3  8  1  0
  4  5  3  0
  5  9  1  0
  7 10  1  0
 10 11  1  0
 10 12  1  0
 10 13  1  0
M  RAD  1   3   2
M  END
>  <reaction>  (8) 
rxn_1346

>  <mol_properties>  (8) 
{"1": {"label": "*0", "atom_type": "Ct"}, "2": {"label": "*1", "atom_type": "Cs"}, "6": {"label": "*2", "atom_type": "H0"}, "9": {"label": "*3", "atom_type": "Cs"}, "10": {"label": "*4", "atom_type": "H0"}}

>  <type>  (8) 
unop_4

>  <geom_source>  (8) 
Heuristics

$$$$

     RDKit          3D

 13 11  0  0  0  0  0  0  0  0999 V2000
    0.2537   -0.4746   -2.4364 C   0  0  0  0  0  0  0  0  0  0  0  0
    0.2537   -0.4746   -1.2409 C   0  0  0  0  0  0  0  0  0  0  0  0
    0.2537   -0.4746    0.2221 C   0  0  0  0  0  3  0  0  0  0  0  0
   -1.0603   -0.1990    0.8032 C   0  0  0  0  0  0  0  0  0  0  0  0
   -2.1341    0.0263    1.2781 C   0  0  0  0  0  0  0  0  0  0  0  0
    0.2537   -0.4746   -3.4999 H   0  0  0  0  0  0  0  0  0  0  0  0
    1.1118    0.4198    0.6531 H   0  0  0  0  0  0  0  0  0  0  0  0
    0.6091   -1.4444    0.5813 H   0  0  0  0  0  0  0  0  0  0  0  0
   -3.0893    0.2266    1.7006 H   0  0  0  0  0  0  0  0  0  0  0  0
    1.9663    1.3104    1.0823 C   0  0  0  0  0  0  0  0  0  0  0  0
    1.9702    1.3145    2.1712 H   0  0  0  0  0  0  0  0  0  0  0  0
    1.6788    2.2950    0.7167 H   0  0  0  0  0  0  0  0  0  0  0  0
    3.0259    1.0681    1.1487 H   0  0  0  0  0  0  0  0  0  0  0  0
  1  2  3  0
  1  6  1  0
  2  3  1  0
  3  4  1  0
  3  8  1  0
  4  5  3  0
  5  9  1  0
  7 10  1  0
 10 11  1  0
 10 12  1  0
 10 13  1  0
M  RAD  1   3   2
M  END
>  <reaction>  (9) 
rxn_1346

>  <mol_properties>  (9) 
{"1": {"label": "*0", "atom_type": "Ct"}, "2": {"label": "*1", "atom_type": "Cs"}, "6": {"label": "*2", "atom_type": "H0"}, "9": {"label": "*3", "atom_type": "Cs"}, "10": {"label": "*4", "atom_type": "H0"}}

>  <type>  (9) 
unop_5

>  <geom_source>  (9) 
Heuristics

$$$$

     RDKit          3D

 13 11  0  0  0  0  0  0  0  0999 V2000
    0.2582   -0.4700   -2.4376 C   0  0  0  0  0  0  0  0  0  0  0  0
    0.2582   -0.4700   -1.2421 C   0  0  0  0  0  0  0  0  0  0  0  0
    0.2582   -0.4700    0.2209 C   0  0  0  0  0  3  0  0  0  0  0  0
   -1.0558   -0.1944    0.8021 C   0  0  0  0  0  0  0  0  0  0  0  0
   -2.1295    0.0308    1.2770 C   0  0  0  0  0  0  0  0  0  0  0  0
    0.2582   -0.4700   -3.5011 H   0  0  0  0  0  0  0  0  0  0  0  0
    1.1164    0.4244    0.6520 H   0  0  0  0  0  0  0  0  0  0  0  0
    0.6136   -1.4399    0.5801 H   0  0  0  0  0  0  0  0  0  0  0  0
   -3.0847    0.2311    1.6994 H   0  0  0  0  0  0  0  0  0  0  0  0
    1.9708    1.3149    1.0812 C   0  0  0  0  0  0  0  0  0  0  0  0
    2.9490    0.8516    1.2004 H   0  0  0  0  0  0  0  0  0  0  0  0
    1.3534    1.0878    1.9489 H   0  0  0  0  0  0  0  0  0  0  0  0
    2.0302    2.3970    0.9741 H   0  0  0  0  0  0  0  0  0  0  0  0
  1  2  3  0
  1  6  1  0
  2  3  1  0
  3  4  1  0
  3  8  1  0
  4  5  3  0
  5  9  1  0
  7 10  1  0
 10 11  1  0
 10 12  1  0
 10 13  1  0
M  RAD  1   3   2
M  END
>  <reaction>  (10) 
rxn_1346

>  <mol_properties>  (10) 
{"1": {"label": "*0", "atom_type": "Ct"}, "2": {"label": "*1", "atom_type": "Cs"}, "6": {"label": "*2", "atom_type": "H0"}, "9": {"label": "*3", "atom_type": "Cs"}, "10": {"label": "*4", "atom_type": "H0"}}

>  <type>  (10) 
unop_6

>  <geom_source>  (10) 
Heuristics

$$$$

     RDKit          3D

 13 11  0  0  0  0  0  0  0  0999 V2000
    0.2586   -0.4726   -2.4386 C   0  0  0  0  0  0  0  0  0  0  0  0
    0.2586   -0.4726   -1.2431 C   0  0  0  0  0  0  0  0  0  0  0  0
    0.2586   -0.4726    0.2199 C   0  0  0  0  0  3  0  0  0  0  0  0
   -1.0554   -0.1970    0.8010 C   0  0  0  0  0  0  0  0  0  0  0  0
   -2.1292    0.0282    1.2759 C   0  0  0  0  0  0  0  0  0  0  0  0
    0.2586   -0.4726   -3.5021 H   0  0  0  0  0  0  0  0  0  0  0  0
    1.1167    0.4217    0.6509 H   0  0  0  0  0  0  0  0  0  0  0  0
    0.6139   -1.4425    0.5791 H   0  0  0  0  0  0  0  0  0  0  0  0
   -3.0844    0.2285    1.6984 H   0  0  0  0  0  0  0  0  0  0  0  0
    1.9712    1.3123    1.0801 C   0  0  0  0  0  0  0  0  0  0  0  0
    2.7334    0.8225    1.6842 H   0  0  0  0  0  0  0  0  0  0  0  0
    1.0792    1.4751    1.6832 H   0  0  0  0  0  0  0  0  0  0  0  0
    2.4949    2.2355    0.8366 H   0  0  0  0  0  0  0  0  0  0  0  0
  1  2  3  0
  1  6  1  0
  2  3  1  0
  3  4  1  0
  3  8  1  0
  4  5  3  0
  5  9  1  0
  7 10  1  0
 10 11  1  0
 10 12  1  0
 10 13  1  0
M  RAD  1   3   2
M  END
>  <reaction>  (11) 
rxn_1346

>  <mol_properties>  (11) 
{"1": {"label": "*0", "atom_type": "Ct"}, "2": {"label": "*1", "atom_type": "Cs"}, "6": {"label": "*2", "atom_type": "H0"}, "9": {"label": "*3", "atom_type": "Cs"}, "10": {"label": "*4", "atom_type": "H0"}}

>  <type>  (11) 
unop_7

>  <geom_source>  (11) 
Heuristics

$$$$

     RDKit          3D

 13 11  0  0  0  0  0  0  0  0999 V2000
    0.2586   -0.4707   -2.4374 C   0  0  0  0  0  0  0  0  0  0  0  0
    0.2586   -0.4707   -1.2419 C   0  0  0  0  0  0  0  0  0  0  0  0
    0.2586   -0.4707    0.2211 C   0  0  0  0  0  3  0  0  0  0  0  0
   -1.0554   -0.1951    0.8023 C   0  0  0  0  0  0  0  0  0  0  0  0
   -2.1292    0.0301    1.2772 C   0  0  0  0  0  0  0  0  0  0  0  0
    0.2586   -0.4707   -3.5009 H   0  0  0  0  0  0  0  0  0  0  0  0
    1.1167    0.4236    0.6521 H   0  0  0  0  0  0  0  0  0  0  0  0
    0.6140   -1.4406    0.5803 H   0  0  0  0  0  0  0  0  0  0  0  0
   -3.0844    0.2304    1.6996 H   0  0  0  0  0  0  0  0  0  0  0  0
    1.9712    1.3142    1.0813 C   0  0  0  0  0  0  0  0  0  0  0  0
    1.4677    2.2724    1.2006 H   0  0  0  0  0  0  0  0  0  0  0  0
    3.0443    1.4767    0.9921 H   0  0  0  0  0  0  0  0  0  0  0  0
    1.7930    0.6405    1.9180 H   0  0  0  0  0  0  0  0  0  0  0  0
  1  2  3  0
  1  6  1  0
  2  3  1  0
  3  4  1  0
  3  8  1  0
  4  5  3  0
  5  9  1  0
  7 10  1  0
 10 11  1  0
 10 12  1  0
 10 13  1  0
M  RAD  1   3   2
M  END
>  <reaction>  (12) 
rxn_1346

>  <mol_properties>  (12) 
{"1": {"label": "*0", "atom_type": "Ct"}, "2": {"label": "*1", "atom_type": "Cs"}, "6": {"label": "*2", "atom_type": "H0"}, "9": {"label": "*3", "atom_type": "Cs"}, "10": {"label": "*4", "atom_type": "H0"}}

>  <type>  (12) 
unop_8

>  <geom_source>  (12) 
Heuristics

$$$$

     RDKit          3D

 13 11  0  0  0  0  0  0  0  0999 V2000
    0.2584   -0.4669   -2.4337 C   0  0  0  0  0  0  0  0  0  0  0  0
    0.2584   -0.4669   -1.2382 C   0  0  0  0  0  0  0  0  0  0  0  0
    0.2584   -0.4669    0.2248 C   0  0  0  0  0  3  0  0  0  0  0  0
   -1.0556   -0.1913    0.8059 C   0  0  0  0  0  0  0  0  0  0  0  0
   -2.1294    0.0339    1.2808 C   0  0  0  0  0  0  0  0  0  0  0  0
    0.2584   -0.4669   -3.4972 H   0  0  0  0  0  0  0  0  0  0  0  0
    1.1166    0.4275    0.6558 H   0  0  0  0  0  0  0  0  0  0  0  0
    0.6138   -1.4367    0.5840 H   0  0  0  0  0  0  0  0  0  0  0  0
   -3.0845    0.2343    1.7033 H   0  0  0  0  0  0  0  0  0  0  0  0
    1.9710    1.3181    1.0850 C   0  0  0  0  0  0  0  0  0  0  0  0
    2.7810    1.4208    0.3645 H   0  0  0  0  0  0  0  0  0  0  0  0
    2.3052    0.7070    1.9220 H   0  0  0  0  0  0  0  0  0  0  0  0
    1.2321    1.9715    1.5462 H   0  0  0  0  0  0  0  0  0  0  0  0
  1  2  3  0
  1  6  1  0
  2  3  1  0
  3  4  1  0
  3  8  1  0
  4  5  3  0
  5  9  1  0
  7 10  1  0
 10 11  1  0
 10 12  1  0
 10 13  1  0
M  RAD  1   3   2
M  END
>  <reaction>  (13) 
rxn_1346

>  <mol_properties>  (13) 
{"1": {"label": "*0", "atom_type": "Ct"}, "2": {"label": "*1", "atom_type": "Cs"}, "6": {"label": "*2", "atom_type": "H0"}, "9": {"label": "*3", "atom_type": "Cs"}, "10": {"label": "*4", "atom_type": "H0"}}

>  <type>  (13) 
unop_9

>  <geom_source>  (13) 
Heuristics

$$$$

     RDKit          3D

 13 11  0  0  0  0  0  0  0  0999 V2000
    0.2588   -0.4707   -2.4346 C   0  0  0  0  0  0  0  0  0  0  0  0
    0.2588   -0.4707   -1.2391 C   0  0  0  0  0  0  0  0  0  0  0  0
    0.2588   -0.4707    0.2239 C   0  0  0  0  0  3  0  0  0  0  0  0
   -1.0552   -0.1951    0.8050 C   0  0  0  0  0  0  0  0  0  0  0  0
   -2.1290    0.0302    1.2799 C   0  0  0  0  0  0  0  0  0  0  0  0
    0.2588   -0.4707   -3.4981 H   0  0  0  0  0  0  0  0  0  0  0  0
    1.1169    0.4237    0.6549 H   0  0  0  0  0  0  0  0  0  0  0  0
    0.6141   -1.4405    0.5831 H   0  0  0  0  0  0  0  0  0  0  0  0
   -3.0842    0.2305    1.7024 H   0  0  0  0  0  0  0  0  0  0  0  0
    1.9714    1.3143    1.0841 C   0  0  0  0  0  0  0  0  0  0  0  0
    1.6839    2.2989    0.7185 H   0  0  0  0  0  0  0  0  0  0  0  0
    3.0499    1.2824    1.2312 H   0  0  0  0  0  0  0  0  0  0  0  0
    1.5582    0.8016    1.9514 H   0  0  0  0  0  0  0  0  0  0  0  0
  1  2  3  0
  1  6  1  0
  2  3  1  0
  3  4  1  0
  3  8  1  0
  4  5  3  0
  5  9  1  0
  7 10  1  0
 10 11  1  0
 10 12  1  0
 10 13  1  0
M  RAD  1   3   2
M  END
>  <reaction>  (14) 
rxn_1346

>  <mol_properties>  (14) 
{"1": {"label": "*0", "atom_type": "Ct"}, "2": {"label": "*1", "atom_type": "Cs"}, "6": {"label": "*2", "atom_type": "H0"}, "9": {"label": "*3", "atom_type": "Cs"}, "10": {"label": "*4", "atom_type": "H0"}}

>  <type>  (14) 
unop_10

>  <geom_source>  (14) 
Heuristics

$$$$

     RDKit          3D

 13 11  0  0  0  0  0  0  0  0999 V2000
    0.2576   -0.4755   -2.4377 C   0  0  0  0  0  0  0  0  0  0  0  0
    0.2576   -0.4755   -1.2422 C   0  0  0  0  0  0  0  0  0  0  0  0
    0.2576   -0.4755    0.2208 C   0  0  0  0  0  3  0  0  0  0  0  0
   -1.0564   -0.1998    0.8019 C   0  0  0  0  0  0  0  0  0  0  0  0
   -2.1302    0.0254    1.2768 C   0  0  0  0  0  0  0  0  0  0  0  0
    0.2576   -0.4755   -3.5012 H   0  0  0  0  0  0  0  0  0  0  0  0
    1.1157    0.4189    0.6518 H   0  0  0  0  0  0  0  0  0  0  0  0
    0.6130   -1.4453    0.5800 H   0  0  0  0  0  0  0  0  0  0  0  0
   -3.0854    0.2257    1.6993 H   0  0  0  0  0  0  0  0  0  0  0  0
    1.9702    1.3095    1.0810 C   0  0  0  0  0  0  0  0  0  0  0  0
    2.3758    0.9908    2.0400 H   0  0  0  0  0  0  0  0  0  0  0  0
    1.0981    1.9401    1.2472 H   0  0  0  0  0  0  0  0  0  0  0  0
    2.9068    1.8138    0.8483 H   0  0  0  0  0  0  0  0  0  0  0  0
  1  2  3  0
  1  6  1  0
  2  3  1  0
  3  4  1  0
  3  8  1  0
  4  5  3  0
  5  9  1  0
  7 10  1  0
 10 11  1  0
 10 12  1  0
 10 13  1  0
M  RAD  1   3   2
M  END
>  <reaction>  (15) 
rxn_1346

>  <mol_properties>  (15) 
{"1": {"label": "*0", "atom_type": "Ct"}, "2": {"label": "*1", "atom_type": "Cs"}, "6": {"label": "*2", "atom_type": "H0"}, "9": {"label": "*3", "atom_type": "Cs"}, "10": {"label": "*4", "atom_type": "H0"}}

>  <type>  (15) 
unop_11

>  <geom_source>  (15) 
Heuristics

$$$$

     RDKit          3D

 13 11  0  0  0  0  0  0  0  0999 V2000
    0.2581   -0.4671   -2.4324 C   0  0  0  0  0  0  0  0  0  0  0  0
    0.2581   -0.4671   -1.2369 C   0  0  0  0  0  0  0  0  0  0  0  0
    0.2581   -0.4671    0.2261 C   0  0  0  0  0  3  0  0  0  0  0  0
   -1.0560   -0.1915    0.8072 C   0  0  0  0  0  0  0  0  0  0  0  0
   -2.1297    0.0337    1.2821 C   0  0  0  0  0  0  0  0  0  0  0  0
    0.2581   -0.4671   -3.4959 H   0  0  0  0  0  0  0  0  0  0  0  0
    1.1162    0.4273    0.6571 H   0  0  0  0  0  0  0  0  0  0  0  0
    0.6134   -1.4369    0.5853 H   0  0  0  0  0  0  0  0  0  0  0  0
   -3.0849    0.2341    1.7046 H   0  0  0  0  0  0  0  0  0  0  0  0
    1.9707    1.3179    1.0863 C   0  0  0  0  0  0  0  0  0  0  0  0
    2.4415    1.8086    0.2358 H   0  0  0  0  0  0  0  0  0  0  0  0
    2.7329    0.8281    1.6904 H   0  0  0  0  0  0  0  0  0  0  0  0
    1.1726    1.4761    1.8101 H   0  0  0  0  0  0  0  0  0  0  0  0
  1  2  3  0
  1  6  1  0
  2  3  1  0
  3  4  1  0
  3  8  1  0
  4  5  3  0
  5  9  1  0
  7 10  1  0
 10 11  1  0
 10 12  1  0
 10 13  1  0
M  RAD  1   3   2
M  END
>  <reaction>  (16) 
rxn_1346

>  <mol_properties>  (16) 
{"1": {"label": "*0", "atom_type": "Ct"}, "2": {"label": "*1", "atom_type": "Cs"}, "6": {"label": "*2", "atom_type": "H0"}, "9": {"label": "*3", "atom_type": "Cs"}, "10": {"label": "*4", "atom_type": "H0"}}

>  <type>  (16) 
unop_12

>  <geom_source>  (16) 
Heuristics

$$$$

     RDKit          3D

 13 11  0  0  0  0  0  0  0  0999 V2000
    1.9573   -0.1109    0.3763 C   0  0  0  0  0  0  0  0  0  0  0  0
   -0.3632   -0.1195   -0.8226 C   0  0  0  0  0  3  0  0  0  0  0  0
   -0.6044    1.1162   -0.0751 C   0  0  0  0  0  0  0  0  0  0  0  0
   -1.3796   -1.1145   -0.4752 C   0  0  0  0  0  0  0  0  0  0  0  0
   -0.8014    2.1345    0.5397 C   0  0  0  0  0  0  0  0  0  0  0  0
   -2.2157   -1.9353   -0.1903 C   0  0  0  0  0  0  0  0  0  0  0  0
    1.5170   -0.4447    1.3383 H   0  0  0  0  0  0  0  0  0  0  0  0
    2.4394    0.8787    0.5138 H   0  0  0  0  0  0  0  0  0  0  0  0
    2.7155   -0.8482    0.0411 H   0  0  0  0  0  0  0  0  0  0  0  0
    1.0672   -0.0204   -0.4743 H   0  0  0  0  0  0  0  0  0  0  0  0
   -0.4081    0.0914   -1.9110 H   0  0  0  0  0  0  0  0  0  0  0  0
   -0.9745    3.0283    1.0794 H   0  0  0  0  0  0  0  0  0  0  0  0
   -2.9496   -2.6555    0.0599 H   0  0  0  0  0  0  0  0  0  0  0  0
  1  7  1  0
  1  8  1  0
  1  9  1  0
  1 10  1  0
  2  3  1  0
  2  4  1  0
  2 11  1  0
  3  5  3  0
  4  6  3  0
  5 12  1  0
  6 13  1  0
M  RAD  1   2   2
M  END
>  <reaction>  (17) 
rxn_1346

>  <mol_properties>  (17) 
{"1": {"label": "*0", "atom_type": "Ct"}, "2": {"label": "*1", "atom_type": "Cs"}, "6": {"label": "*2", "atom_type": "H0"}, "9": {"label": "*3", "atom_type": "Cs"}, "10": {"label": "*4", "atom_type": "H0"}}

>  <type>  (17) 
unop_13

>  <geom_source>  (17) 
AutoTST

$$$$
