
     RDKit          3D

  7  6  0  0  0  0  0  0  0  0999 V2000
    1.6964   -0.0938    0.0583 C   0  0  0  0  0  0  0  0  0  0  0  0
    0.5019   -0.0278    0.0173 C   0  0  0  0  0  0  0  0  0  0  0  0
   -0.9505    0.0525   -0.0327 C   0  0  0  0  0  0  0  0  0  0  0  0
    2.7574   -0.1524    0.0947 H   0  0  0  0  0  0  0  0  0  0  0  0
   -1.2692    0.9972   -0.4754 H   0  0  0  0  0  0  0  0  0  0  0  0
   -1.3749   -0.0147    0.9700 H   0  0  0  0  0  0  0  0  0  0  0  0
   -1.3610   -0.7611   -0.6323 H   0  0  0  0  0  0  0  0  0  0  0  0
  1  2  3  0
  1  4  1  0
  2  3  1  0
  3  5  1  0
  3  6  1  0
  3  7  1  0
M  END
>  <reaction>  (1) 
rxn_1229

>  <mol_properties>  (1) 
{"2": {"label": "donator", "atom_type": "Cs"}, "4": {"label": "d_hydrogen", "atom_type": "H0"}}

>  <type>  (1) 
r1h

$$$$

     RDKit          3D

 20 20  0  0  0  0  0  0  0  0999 V2000
   -2.4774    0.8083    0.1488 C   0  0  0  0  0  0  0  0  0  0  0  0
   -1.4172   -0.1696   -0.2476 C   0  0  0  0  0  3  0  0  0  0  0  0
   -0.2904    0.2932   -1.1156 C   0  0  0  0  0  0  0  0  0  0  0  0
   -1.4797   -1.5204    0.1947 C   0  0  0  0  0  0  0  0  0  0  0  0
   -0.4907   -2.4664   -0.1650 C   0  0  0  0  0  0  0  0  0  0  0  0
   -0.5559   -3.7750    0.2665 C   0  0  0  0  0  0  0  0  0  0  0  0
   -1.6038   -4.2041    1.0733 C   0  0  0  0  0  0  0  0  0  0  0  0
   -2.5899   -3.2959    1.4424 C   0  0  0  0  0  0  0  0  0  0  0  0
   -2.5339   -1.9852    1.0162 C   0  0  0  0  0  0  0  0  0  0  0  0
   -3.4697    0.4933   -0.1924 H   0  0  0  0  0  0  0  0  0  0  0  0
   -2.5434    0.9184    1.2368 H   0  0  0  0  0  0  0  0  0  0  0  0
   -2.2829    1.7944   -0.2706 H   0  0  0  0  0  0  0  0  0  0  0  0
   -0.2452   -0.2661   -2.0565 H   0  0  0  0  0  0  0  0  0  0  0  0
   -0.3905    1.3487   -1.3647 H   0  0  0  0  0  0  0  0  0  0  0  0
    0.6811    0.1589   -0.6274 H   0  0  0  0  0  0  0  0  0  0  0  0
    0.3373   -2.1635   -0.7918 H   0  0  0  0  0  0  0  0  0  0  0  0
    0.2187   -4.4725   -0.0281 H   0  0  0  0  0  0  0  0  0  0  0  0
   -1.6513   -5.2316    1.4097 H   0  0  0  0  0  0  0  0  0  0  0  0
   -3.4116   -3.6175    2.0706 H   0  0  0  0  0  0  0  0  0  0  0  0
   -3.3164   -1.3029    1.3205 H   0  0  0  0  0  0  0  0  0  0  0  0
  1  2  1  0
  1 10  1  0
  1 11  1  0
  1 12  1  0
  2  3  1  0
  2  4  1  0
  3 13  1  0
  3 14  1  0
  3 15  1  0
  4  5  2  0
  4  9  1  0
  5  6  1  0
  5 16  1  0
  6  7  2  0
  6 17  1  0
  7  8  1  0
  7 18  1  0
  8  9  2  0
  8 19  1  0
  9 20  1  0
M  RAD  1   2   2
M  END
>  <reaction>  (2) 
rxn_1229

>  <mol_properties>  (2) 
{"1": {"label": "acceptor", "atom_type": "Cs"}}

>  <type>  (2) 
r2

$$$$

     RDKit          3D

 21 21  0  0  0  0  0  0  0  0999 V2000
   -1.3695    1.3367   -1.0719 C   0  0  0  0  0  0  0  0  0  0  0  0
   -1.4091   -0.0981   -0.5428 C   0  0  0  0  0  0  0  0  0  0  0  0
   -0.1819   -0.3999    0.3191 C   0  0  0  0  0  0  0  0  0  0  0  0
   -1.5636   -1.1028   -1.6652 C   0  0  0  0  0  0  0  0  0  0  0  0
   -0.5920   -1.2314   -2.6553 C   0  0  0  0  0  0  0  0  0  0  0  0
   -0.7353   -2.1509   -3.6809 C   0  0  0  0  0  0  0  0  0  0  0  0
   -1.8582   -2.9642   -3.7377 C   0  0  0  0  0  0  0  0  0  0  0  0
   -2.8325   -2.8475   -2.7602 C   0  0  0  0  0  0  0  0  0  0  0  0
   -2.6828   -1.9241   -1.7351 C   0  0  0  0  0  0  0  0  0  0  0  0
   -0.4920    1.4974   -1.7025 H   0  0  0  0  0  0  0  0  0  0  0  0
   -2.2553    1.5607   -1.6679 H   0  0  0  0  0  0  0  0  0  0  0  0
   -1.3211    2.0496   -0.2461 H   0  0  0  0  0  0  0  0  0  0  0  0
   -2.2930   -0.1918    0.0948 H   0  0  0  0  0  0  0  0  0  0  0  0
   -0.1215    0.2955    1.1588 H   0  0  0  0  0  0  0  0  0  0  0  0
   -0.2200   -1.4155    0.7159 H   0  0  0  0  0  0  0  0  0  0  0  0
    0.7383   -0.3016   -0.2615 H   0  0  0  0  0  0  0  0  0  0  0  0
    0.2915   -0.6040   -2.6263 H   0  0  0  0  0  0  0  0  0  0  0  0
    0.0326   -2.2338   -4.4401 H   0  0  0  0  0  0  0  0  0  0  0  0
   -1.9712   -3.6833   -4.5391 H   0  0  0  0  0  0  0  0  0  0  0  0
   -3.7135   -3.4765   -2.7932 H   0  0  0  0  0  0  0  0  0  0  0  0
   -3.4509   -1.8400   -0.9743 H   0  0  0  0  0  0  0  0  0  0  0  0
  1  2  1  0
  1 10  1  0
  1 11  1  0
  1 12  1  0
  2  3  1  0
  2  4  1  0
  2 13  1  0
  3 14  1  0
  3 15  1  0
  3 16  1  0
  4  5  2  0
  4  9  1  0
  5  6  1  0
  5 17  1  0
  6  7  2  0
  6 18  1  0
  7  8  1  0
  7 19  1  0
  8  9  2  0
  8 20  1  0
  9 21  1  0
M  END
>  <reaction>  (3) 
rxn_1229

>  <mol_properties>  (3) 
{"0": {"label": "a_hydrogen", "atom_type": "H0"}, "2": {"label": "acceptor", "atom_type": "Cs"}}

>  <type>  (3) 
r2h

$$$$

     RDKit          3D

 27 26  0  0  0  0  0  0  0  0999 V2000
    0.0117   -3.1928   -2.1568 C   0  0  0  0  0  0  0  0  0  0  0  0
   -0.8124   -2.6235   -1.4877 C   0  0  0  0  0  0  0  0  0  0  0  0
   -1.7180   -1.9216   -0.6557 C   0  0  0  0  0  3  0  0  0  0  0  0
    0.7153   -3.7089   -2.7642 H   0  0  0  0  0  0  0  0  0  0  0  0
   -0.9610   -1.2663    0.2991 H   0  0  0  0  0  0  0  0  0  0  0  0
   -2.3740   -2.5424   -0.0513 H   0  0  0  0  0  0  0  0  0  0  0  0
   -2.2245   -1.0815   -1.1235 H   0  0  0  0  0  0  0  0  0  0  0  0
   -1.1092   -0.5889    2.4087 C   0  0  0  0  0  0  0  0  0  0  0  0
   -0.2111   -0.6766    1.1973 C   0  0  0  0  0  0  0  0  0  0  0  0
    0.9175   -1.6727    1.3620 C   0  0  0  0  0  0  0  0  0  0  0  0
    0.1580    0.6052    0.5360 C   0  0  0  0  0  0  0  0  0  0  0  0
   -0.1659    1.8478    1.0815 C   0  0  0  0  0  0  0  0  0  0  0  0
    0.1734    3.0253    0.4318 C   0  0  0  0  0  0  0  0  0  0  0  0
    0.8326    2.9884   -0.7857 C   0  0  0  0  0  0  0  0  0  0  0  0
    1.1505    1.7603   -1.3491 C   0  0  0  0  0  0  0  0  0  0  0  0
    0.8197    0.5866   -0.6965 C   0  0  0  0  0  0  0  0  0  0  0  0
   -2.0009    0.0089    2.2133 H   0  0  0  0  0  0  0  0  0  0  0  0
   -1.4307   -1.5873    2.7099 H   0  0  0  0  0  0  0  0  0  0  0  0
   -0.5853   -0.1445    3.2616 H   0  0  0  0  0  0  0  0  0  0  0  0
    1.6268   -1.3204    2.1181 H   0  0  0  0  0  0  0  0  0  0  0  0
    0.5308   -2.6409    1.6861 H   0  0  0  0  0  0  0  0  0  0  0  0
    1.4666   -1.8289    0.4343 H   0  0  0  0  0  0  0  0  0  0  0  0
   -0.6788    1.9046    2.0325 H   0  0  0  0  0  0  0  0  0  0  0  0
   -0.0809    3.9767    0.8825 H   0  0  0  0  0  0  0  0  0  0  0  0
    1.0941    3.9076   -1.2944 H   0  0  0  0  0  0  0  0  0  0  0  0
    1.6561    1.7167   -2.3057 H   0  0  0  0  0  0  0  0  0  0  0  0
    1.0579   -0.3632   -1.1601 H   0  0  0  0  0  0  0  0  0  0  0  0
  1  2  3  0
  1  4  1  0
  2  3  1  0
  3  6  1  0
  3  7  1  0
  5  9  1  0
  8  9  1  0
  8 17  1  0
  8 18  1  0
  8 19  1  0
  9 10  1  0
  9 11  1  0
 10 20  1  0
 10 21  1  0
 10 22  1  0
 11 12  2  0
 11 16  1  0
 12 13  1  0
 12 23  1  0
 13 14  2  0
 13 24  1  0
 14 15  1  0
 14 25  1  0
 15 16  2  0
 15 26  1  0
 16 27  1  0
M  RAD  1   3   2
M  END
>  <reaction>  (4) 
rxn_1229

>  <mol_properties>  (4) 
{"1": {"label": "*4", "atom_type": "Ct"}, "2": {"label": "*3", "atom_type": "Cs"}, "4": {"label": "*2", "atom_type": "H0"}, "8": {"label": "*1", "atom_type": "Cs"}, "10": {"label": "*0", "atom_type": "Cd"}}

>  <type>  (4) 
ts

$$$$

     RDKit          3D

 27 26  0  0  0  0  0  0  0  0999 V2000
   -0.7311   -2.9765   -2.6755 C   0  0  0  0  0  0  0  0  0  0  0  0
   -0.7311   -2.9765   -1.4784 C   0  0  0  0  0  0  0  0  0  0  0  0
   -0.7311   -2.9765   -0.0230 C   0  0  0  0  0  0  0  0  0  0  0  0
   -0.7311   -2.9765   -3.7387 H   0  0  0  0  0  0  0  0  0  0  0  0
   -0.6196   -1.7570    0.4394 H   0  0  0  0  0  0  0  0  0  0  0  0
    0.1026   -3.5651    0.3624 H   0  0  0  0  0  0  0  0  0  0  0  0
   -1.6577   -3.4042    0.3624 H   0  0  0  0  0  0  0  0  0  0  0  0
   -1.7491   -0.2438    1.7488 C   0  0  0  0  0  0  0  0  0  0  0  0
   -0.5079   -0.5340    0.9031 C   0  0  0  0  0  3  0  0  0  0  0  0
    0.5059   -1.3715    1.6847 C   0  0  0  0  0  0  0  0  0  0  0  0
    0.1137    0.7393    0.3689 C   0  0  0  0  0  0  0  0  0  0  0  0
    0.6229    1.7085    1.2305 C   0  0  0  0  0  0  0  0  0  0  0  0
    1.1909    2.8724    0.7399 C   0  0  0  0  0  0  0  0  0  0  0  0
    1.2618    3.0918   -0.6285 C   0  0  0  0  0  0  0  0  0  0  0  0
    0.7597    2.1370   -1.4972 C   0  0  0  0  0  0  0  0  0  0  0  0
    0.1917    0.9730   -0.9990 C   0  0  0  0  0  0  0  0  0  0  0  0
   -2.4829    0.3340    1.1849 H   0  0  0  0  0  0  0  0  0  0  0  0
   -2.2195   -1.1745    2.0728 H   0  0  0  0  0  0  0  0  0  0  0  0
   -1.4890    0.3270    2.6432 H   0  0  0  0  0  0  0  0  0  0  0  0
    0.8472   -0.8413    2.5768 H   0  0  0  0  0  0  0  0  0  0  0  0
    0.0583   -2.3135    2.0081 H   0  0  0  0  0  0  0  0  0  0  0  0
    1.3818   -1.5986    1.0751 H   0  0  0  0  0  0  0  0  0  0  0  0
    0.5757    1.5534    2.3023 H   0  0  0  0  0  0  0  0  0  0  0  0
    1.5805    3.6123    1.4281 H   0  0  0  0  0  0  0  0  0  0  0  0
    1.7057    4.0013   -1.0130 H   0  0  0  0  0  0  0  0  0  0  0  0
    0.8090    2.2964   -2.5672 H   0  0  0  0  0  0  0  0  0  0  0  0
   -0.1988    0.2312   -1.6869 H   0  0  0  0  0  0  0  0  0  0  0  0
  1  2  3  0
  1  4  1  0
  2  3  1  0
  3  5  1  0
  3  6  1  0
  3  7  1  0
  8  9  1  0
  8 17  1  0
  8 18  1  0
  8 19  1  0
  9 10  1  0
  9 11  1  0
 10 20  1  0
 10 21  1  0
 10 22  1  0
 11 12  2  0
 11 16  1  0
 12 13  1  0
 12 23  1  0
 13 14  2  0
 13 24  1  0
 14 15  1  0
 14 25  1  0
 15 16  2  0
 15 26  1  0
 16 27  1  0
M  RAD  1   9   2
M  END
>  <reaction>  (5) 
rxn_1229

>  <mol_properties>  (5) 
{"1": {"label": "*4", "atom_type": "Ct"}, "2": {"label": "*3", "atom_type": "Cs"}, "4": {"label": "*2", "atom_type": "H0"}, "8": {"label": "*1", "atom_type": "Cs"}, "10": {"label": "*0", "atom_type": "Cd"}}

>  <type>  (5) 
unop_1

>  <geom_source>  (5) 
Heuristics

$$$$

     RDKit          3D

 27 26  0  0  0  0  0  0  0  0999 V2000
   -1.2626   -2.3983   -3.4988 C   0  0  0  0  0  0  0  0  0  0  0  0
   -1.2626   -2.3983   -2.3017 C   0  0  0  0  0  0  0  0  0  0  0  0
   -1.2626   -2.3983   -0.8463 C   0  0  0  0  0  0  0  0  0  0  0  0
   -1.2626   -2.3983   -4.5620 H   0  0  0  0  0  0  0  0  0  0  0  0
   -1.1512   -1.1787   -0.3839 H   0  0  0  0  0  0  0  0  0  0  0  0
   -0.4289   -2.9869   -0.4609 H   0  0  0  0  0  0  0  0  0  0  0  0
   -2.1892   -2.8260   -0.4609 H   0  0  0  0  0  0  0  0  0  0  0  0
   -1.6853    0.9864   -0.9376 C   0  0  0  0  0  0  0  0  0  0  0  0
   -1.0394    0.0442    0.0798 C   0  0  0  0  0  3  0  0  0  0  0  0
   -1.9936   -0.2507    1.2385 C   0  0  0  0  0  0  0  0  0  0  0  0
    0.2882    0.5805    0.5728 C   0  0  0  0  0  0  0  0  0  0  0  0
    0.3646    1.7851    1.2685 C   0  0  0  0  0  0  0  0  0  0  0  0
    1.5798    2.2737    1.7185 C   0  0  0  0  0  0  0  0  0  0  0  0
    2.7487    1.5646    1.4809 C   0  0  0  0  0  0  0  0  0  0  0  0
    2.6881    0.3654    0.7906 C   0  0  0  0  0  0  0  0  0  0  0  0
    1.4672   -0.1187    0.3424 C   0  0  0  0  0  0  0  0  0  0  0  0
   -1.0144    1.1796   -1.7760 H   0  0  0  0  0  0  0  0  0  0  0  0
   -2.6091    0.5550   -1.3285 H   0  0  0  0  0  0  0  0  0  0  0  0
   -1.9338    1.9466   -0.4795 H   0  0  0  0  0  0  0  0  0  0  0  0
   -2.2532    0.6649    1.7749 H   0  0  0  0  0  0  0  0  0  0  0  0
   -2.9205   -0.6946    0.8695 H   0  0  0  0  0  0  0  0  0  0  0  0
   -1.5428   -0.9406    1.9534 H   0  0  0  0  0  0  0  0  0  0  0  0
   -0.5387    2.3520    1.4628 H   0  0  0  0  0  0  0  0  0  0  0  0
    1.6157    3.2125    2.2573 H   0  0  0  0  0  0  0  0  0  0  0  0
    3.6991    1.9457    1.8323 H   0  0  0  0  0  0  0  0  0  0  0  0
    3.5932   -0.1976    0.5988 H   0  0  0  0  0  0  0  0  0  0  0  0
    1.4297   -1.0585   -0.1972 H   0  0  0  0  0  0  0  0  0  0  0  0
  1  2  3  0
  1  4  1  0
  2  3  1  0
  3  5  1  0
  3  6  1  0
  3  7  1  0
  8  9  1  0
  8 17  1  0
  8 18  1  0
  8 19  1  0
  9 10  1  0
  9 11  1  0
 10 20  1  0
 10 21  1  0
 10 22  1  0
 11 12  2  0
 11 16  1  0
 12 13  1  0
 12 23  1  0
 13 14  2  0
 13 24  1  0
 14 15  1  0
 14 25  1  0
 15 16  2  0
 15 26  1  0
 16 27  1  0
M  RAD  1   9   2
M  END
>  <reaction>  (6) 
rxn_1229

>  <mol_properties>  (6) 
{"1": {"label": "*4", "atom_type": "Ct"}, "2": {"label": "*3", "atom_type": "Cs"}, "4": {"label": "*2", "atom_type": "H0"}, "8": {"label": "*1", "atom_type": "Cs"}, "10": {"label": "*0", "atom_type": "Cd"}}

>  <type>  (6) 
unop_2

>  <geom_source>  (6) 
Heuristics

$$$$

     RDKit          3D

 27 26  0  0  0  0  0  0  0  0999 V2000
   -0.0878   -3.0168   -2.4399 C   0  0  0  0  0  0  0  0  0  0  0  0
   -0.0878   -3.0168   -1.2429 C   0  0  0  0  0  0  0  0  0  0  0  0
   -0.0878   -3.0168    0.2125 C   0  0  0  0  0  0  0  0  0  0  0  0
   -0.0878   -3.0168   -3.5032 H   0  0  0  0  0  0  0  0  0  0  0  0
    0.0237   -1.7972    0.6750 H   0  0  0  0  0  0  0  0  0  0  0  0
    0.7459   -3.6053    0.5979 H   0  0  0  0  0  0  0  0  0  0  0  0
   -1.0144   -3.4445    0.5979 H   0  0  0  0  0  0  0  0  0  0  0  0
   -0.5916   -0.5203    2.4835 C   0  0  0  0  0  0  0  0  0  0  0  0
    0.1354   -0.5742    1.1387 C   0  0  0  0  0  3  0  0  0  0  0  0
    1.6092   -0.9391    1.3250 C   0  0  0  0  0  0  0  0  0  0  0  0
   -0.0262    0.7172    0.3646 C   0  0  0  0  0  0  0  0  0  0  0  0
    0.4654    1.9218    0.8631 C   0  0  0  0  0  0  0  0  0  0  0  0
    0.3165    3.1018    0.1536 C   0  0  0  0  0  0  0  0  0  0  0  0
   -0.3299    3.1014   -1.0743 C   0  0  0  0  0  0  0  0  0  0  0  0
   -0.8238    1.9114   -1.5824 C   0  0  0  0  0  0  0  0  0  0  0  0
   -0.6713    0.7324   -0.8664 C   0  0  0  0  0  0  0  0  0  0  0  0
   -1.6480   -0.2826    2.3503 H   0  0  0  0  0  0  0  0  0  0  0  0
   -0.5173   -1.4799    2.9993 H   0  0  0  0  0  0  0  0  0  0  0  0
   -0.1562    0.2419    3.1338 H   0  0  0  0  0  0  0  0  0  0  0  0
    2.1238   -0.1920    1.9336 H   0  0  0  0  0  0  0  0  0  0  0  0
    1.7057   -1.9030    1.8291 H   0  0  0  0  0  0  0  0  0  0  0  0
    2.1238   -1.0004    0.3650 H   0  0  0  0  0  0  0  0  0  0  0  0
    0.9730    1.9402    1.8207 H   0  0  0  0  0  0  0  0  0  0  0  0
    0.7066    4.0267    0.5603 H   0  0  0  0  0  0  0  0  0  0  0  0
   -0.4468    4.0233   -1.6297 H   0  0  0  0  0  0  0  0  0  0  0  0
   -1.3303    1.8978   -2.5396 H   0  0  0  0  0  0  0  0  0  0  0  0
   -1.0614   -0.1944   -1.2723 H   0  0  0  0  0  0  0  0  0  0  0  0
  1  2  3  0
  1  4  1  0
  2  3  1  0
  3  5  1  0
  3  6  1  0
  3  7  1  0
  8  9  1  0
  8 17  1  0
  8 18  1  0
  8 19  1  0
  9 10  1  0
  9 11  1  0
 10 20  1  0
 10 21  1  0
 10 22  1  0
 11 12  2  0
 11 16  1  0
 12 13  1  0
 12 23  1  0
 13 14  2  0
 13 24  1  0
 14 15  1  0
 14 25  1  0
 15 16  2  0
 15 26  1  0
 16 27  1  0
M  RAD  1   9   2
M  END
>  <reaction>  (7) 
rxn_1229

>  <mol_properties>  (7) 
{"1": {"label": "*4", "atom_type": "Ct"}, "2": {"label": "*3", "atom_type": "Cs"}, "4": {"label": "*2", "atom_type": "H0"}, "8": {"label": "*1", "atom_type": "Cs"}, "10": {"label": "*0", "atom_type": "Cd"}}

>  <type>  (7) 
unop_3

>  <geom_source>  (7) 
Heuristics

$$$$

     RDKit          3D

 27 25  0  0  0  0  0  0  0  0999 V2000
   -0.3815   -1.2424   -4.1873 C   0  0  0  0  0  0  0  0  0  0  0  0
   -0.3815   -1.2424   -2.9903 C   0  0  0  0  0  3  0  0  0  0  0  0
   -0.3815   -1.2424   -1.5349 C   0  0  0  0  0  3  0  0  0  0  0  0
   -0.3815   -1.2424   -5.2506 H   0  0  0  0  0  0  0  0  0  0  0  0
   -0.2700   -0.0229   -1.0725 H   0  0  0  0  0  0  0  0  0  0  0  0
    0.4522   -1.8310   -1.1495 H   0  0  0  0  0  0  0  0  0  0  0  0
   -1.3081   -1.6701   -1.1495 H   0  0  0  0  0  0  0  0  0  0  0  0
    1.1619    1.7733   -1.1270 C   0  0  0  0  0  0  0  0  0  0  0  0
   -0.1582    1.2001   -0.6087 C   0  0  0  0  0  3  0  0  0  0  0  0
   -1.2024    2.3031   -0.4266 C   0  0  0  0  0  0  0  0  0  0  0  0
    0.0404    0.4039    0.6639 C   0  0  0  0  0  0  0  0  0  0  0  0
    0.5195    1.0084    1.8241 C   0  0  0  0  0  0  0  0  0  0  0  0
    0.7004    0.2784    2.9870 C   0  0  0  0  0  0  0  0  0  0  0  0
    0.4046   -1.0771    3.0136 C   0  0  0  0  0  0  0  0  0  0  0  0
   -0.0726   -1.6917    1.8678 C   0  0  0  0  0  0  0  0  0  0  0  0
   -0.2516   -0.9544    0.7057 C   0  0  0  0  0  0  0  0  0  0  0  0
    1.9004    0.9848   -1.2791 H   0  0  0  0  0  0  0  0  0  0  0  0
    1.0099    2.2902   -2.0768 H   0  0  0  0  0  0  0  0  0  0  0  0
    1.5810    2.4927   -0.4196 H   0  0  0  0  0  0  0  0  0  0  0  0
   -0.8683    3.0415    0.3060 H   0  0  0  0  0  0  0  0  0  0  0  0
   -1.3782    2.8254   -1.3693 H   0  0  0  0  0  0  0  0  0  0  0  0
   -2.1515    1.8928   -0.0788 H   0  0  0  0  0  0  0  0  0  0  0  0
    0.7556    2.0663    1.8210 H   0  0  0  0  0  0  0  0  0  0  0  0
    1.0741    0.7690    3.8773 H   0  0  0  0  0  0  0  0  0  0  0  0
    0.5457   -1.6487    3.9222 H   0  0  0  0  0  0  0  0  0  0  0  0
   -0.3071   -2.7489    1.8756 H   0  0  0  0  0  0  0  0  0  0  0  0
   -0.6257   -1.4443   -0.1864 H   0  0  0  0  0  0  0  0  0  0  0  0
  1  2  3  0
  1  4  1  0
  3  5  1  0
  3  6  1  0
  3  7  1  0
  8  9  1  0
  8 17  1  0
  8 18  1  0
  8 19  1  0
  9 10  1  0
  9 11  1  0
 10 20  1  0
 10 21  1  0
 10 22  1  0
 11 12  2  0
 11 16  1  0
 12 13  1  0
 12 23  1  0
 13 14  2  0
 13 24  1  0
 14 15  1  0
 14 25  1  0
 15 16  2  0
 15 26  1  0
 16 27  1  0
M  RAD  3   2   2   3   2   9   2
M  END
>  <reaction>  (8) 
rxn_1229

>  <mol_properties>  (8) 
{"1": {"label": "*4", "atom_type": "Ct"}, "2": {"label": "*3", "atom_type": "Cs"}, "4": {"label": "*2", "atom_type": "H0"}, "8": {"label": "*1", "atom_type": "Cs"}, "10": {"label": "*0", "atom_type": "Cd"}}

>  <type>  (8) 
unop_4

>  <geom_source>  (8) 
Heuristics

$$$$

     RDKit          3D

 27 26  0  0  0  0  0  0  0  0999 V2000
    0.8228   -2.6151   -2.6260 C   0  0  0  0  0  0  0  0  0  0  0  0
    0.8228   -2.6151   -1.4289 C   0  0  0  0  0  0  0  0  0  0  0  0
    0.8228   -2.6151    0.0265 C   0  0  0  0  0  0  0  0  0  0  0  0
    0.8228   -2.6151   -3.6892 H   0  0  0  0  0  0  0  0  0  0  0  0
    0.9343   -1.3955    0.4889 H   0  0  0  0  0  0  0  0  0  0  0  0
    1.6565   -3.2037    0.4119 H   0  0  0  0  0  0  0  0  0  0  0  0
   -0.1038   -3.0428    0.4119 H   0  0  0  0  0  0  0  0  0  0  0  0
    1.0386   -0.2537    2.4802 C   0  0  0  0  0  0  0  0  0  0  0  0
    1.0460   -0.1726    0.9526 C   0  0  0  0  0  3  0  0  0  0  0  0
    2.3689    0.3986    0.4391 C   0  0  0  0  0  0  0  0  0  0  0  0
   -0.1402    0.6099    0.4295 C   0  0  0  0  0  0  0  0  0  0  0  0
   -0.3121    1.9553    0.7475 C   0  0  0  0  0  0  0  0  0  0  0  0
   -1.3977    2.6691    0.2681 C   0  0  0  0  0  0  0  0  0  0  0  0
   -2.3379    2.0493   -0.5428 C   0  0  0  0  0  0  0  0  0  0  0  0
   -2.1801    0.7121   -0.8673 C   0  0  0  0  0  0  0  0  0  0  0  0
   -1.0900    0.0025   -0.3836 C   0  0  0  0  0  0  0  0  0  0  0  0
    0.1047   -0.6821    2.8468 H   0  0  0  0  0  0  0  0  0  0  0  0
    1.8644   -0.8732    2.8361 H   0  0  0  0  0  0  0  0  0  0  0  0
    1.1499    0.7376    2.9256 H   0  0  0  0  0  0  0  0  0  0  0  0
    2.5280    1.4134    0.8111 H   0  0  0  0  0  0  0  0  0  0  0  0
    3.2081   -0.2143    0.7745 H   0  0  0  0  0  0  0  0  0  0  0  0
    2.3845    0.4358   -0.6511 H   0  0  0  0  0  0  0  0  0  0  0  0
    0.4127    2.4553    1.3797 H   0  0  0  0  0  0  0  0  0  0  0  0
   -1.5114    3.7143    0.5280 H   0  0  0  0  0  0  0  0  0  0  0  0
   -3.1869    2.6064   -0.9181 H   0  0  0  0  0  0  0  0  0  0  0  0
   -2.9068    0.2168   -1.4993 H   0  0  0  0  0  0  0  0  0  0  0  0
   -0.9748   -1.0440   -0.6431 H   0  0  0  0  0  0  0  0  0  0  0  0
  1  2  3  0
  1  4  1  0
  2  3  1  0
  3  5  1  0
  3  6  1  0
  3  7  1  0
  8  9  1  0
  8 17  1  0
  8 18  1  0
  8 19  1  0
  9 10  1  0
  9 11  1  0
 10 20  1  0
 10 21  1  0
 10 22  1  0
 11 12  2  0
 11 16  1  0
 12 13  1  0
 12 23  1  0
 13 14  2  0
 13 24  1  0
 14 15  1  0
 14 25  1  0
 15 16  2  0
 15 26  1  0
 16 27  1  0
M  RAD  1   9   2
M  END
>  <reaction>  (9) 
rxn_1229

>  <mol_properties>  (9) 
{"1": {"label": "*4", "atom_type": "Ct"}, "2": {"label": "*3", "atom_type": "Cs"}, "4": {"label": "*2", "atom_type": "H0"}, "8": {"label": "*1", "atom_type": "Cs"}, "10": {"label": "*0", "atom_type": "Cd"}}

>  <type>  (9) 
unop_5

>  <geom_source>  (9) 
Heuristics

$$$$

     RDKit          3D

 27 25  0  0  0  0  0  0  0  0999 V2000
    0.2623   -1.1824   -4.0924 C   0  0  0  0  0  0  0  0  0  0  0  0
    0.2623   -1.1824   -2.8953 C   0  0  0  0  0  3  0  0  0  0  0  0
    0.2623   -1.1824   -1.4399 C   0  0  0  0  0  2  0  0  0  0  0  0
    0.2623   -1.1824   -5.1557 H   0  0  0  0  0  0  0  0  0  0  0  0
    0.3738    0.0372   -0.9775 H   0  0  0  0  0  0  0  0  0  0  0  0
    1.0960   -1.7709   -1.0546 H   0  0  0  0  0  0  0  0  0  0  0  0
   -0.6643   -1.6101   -1.0546 H   0  0  0  0  0  0  0  0  0  0  0  0
    1.9768    1.5592   -0.3501 C   0  0  0  0  0  0  0  0  0  0  0  0
    0.4856    1.2602   -0.5138 C   0  0  0  0  0  0  0  0  0  0  0  0
   -0.3197    2.5512   -0.6715 C   0  0  0  0  0  0  0  0  0  0  0  0
   -0.0411    0.4092    0.6227 C   0  0  0  0  0  0  0  0  0  0  0  0
   -0.0248    0.8725    1.9365 C   0  0  0  0  0  0  0  0  0  0  0  0
   -0.5069    0.0926    2.9745 C   0  0  0  0  0  0  0  0  0  0  0  0
   -1.0175   -1.1722    2.7187 C   0  0  0  0  0  0  0  0  0  0  0  0
   -1.0400   -1.6460    1.4174 C   0  0  0  0  0  0  0  0  0  0  0  0
   -0.5554   -0.8595    0.3819 C   0  0  0  0  0  0  0  0  0  0  0  0
    2.5551    0.6385   -0.2604 H   0  0  0  0  0  0  0  0  0  0  0  0
    2.3529    2.1194   -1.2086 H   0  0  0  0  0  0  0  0  0  0  0  0
    2.1602    2.1583    0.5448 H   0  0  0  0  0  0  0  0  0  0  0  0
   -0.2189    3.1860    0.2119 H   0  0  0  0  0  0  0  0  0  0  0  0
    0.0333    3.1214   -1.5332 H   0  0  0  0  0  0  0  0  0  0  0  0
   -1.3805    2.3385   -0.8112 H   0  0  0  0  0  0  0  0  0  0  0  0
    0.3705    1.8581    2.1543 H   0  0  0  0  0  0  0  0  0  0  0  0
   -0.4845    0.4730    3.9882 H   0  0  0  0  0  0  0  0  0  0  0  0
   -1.3946   -1.7825    3.5294 H   0  0  0  0  0  0  0  0  0  0  0  0
   -1.4359   -2.6313    1.2047 H   0  0  0  0  0  0  0  0  0  0  0  0
   -0.5772   -1.2390   -0.6337 H   0  0  0  0  0  0  0  0  0  0  0  0
  1  2  3  0
  1  4  1  0
  3  6  1  0
  3  7  1  0
  5  9  1  0
  8  9  1  0
  8 17  1  0
  8 18  1  0
  8 19  1  0
  9 10  1  0
  9 11  1  0
 10 20  1  0
 10 21  1  0
 10 22  1  0
 11 12  2  0
 11 16  1  0
 12 13  1  0
 12 23  1  0
 13 14  2  0
 13 24  1  0
 14 15  1  0
 14 25  1  0
 15 16  2  0
 15 26  1  0
 16 27  1  0
M  RAD  2   2   2   3   3
M  END
>  <reaction>  (10) 
rxn_1229

>  <mol_properties>  (10) 
{"1": {"label": "*4", "atom_type": "Ct"}, "2": {"label": "*3", "atom_type": "Cs"}, "4": {"label": "*2", "atom_type": "H0"}, "8": {"label": "*1", "atom_type": "Cs"}, "10": {"label": "*0", "atom_type": "Cd"}}

>  <type>  (10) 
unop_6

>  <geom_source>  (10) 
Heuristics

$$$$

     RDKit          3D

 27 25  0  0  0  0  0  0  0  0999 V2000
    0.8236   -1.3664   -3.7664 C   0  0  0  0  0  0  0  0  0  0  0  0
    0.8236   -1.3664   -2.5693 C   0  0  0  0  0  3  0  0  0  0  0  0
    0.8236   -1.3664   -1.1139 C   0  0  0  0  0  2  0  0  0  0  0  0
    0.8236   -1.3664   -4.8297 H   0  0  0  0  0  0  0  0  0  0  0  0
    0.9351   -0.1469   -0.6515 H   0  0  0  0  0  0  0  0  0  0  0  0
    1.6573   -1.9550   -0.7285 H   0  0  0  0  0  0  0  0  0  0  0  0
   -0.1030   -1.7941   -0.7285 H   0  0  0  0  0  0  0  0  0  0  0  0
    2.3201    1.1365    0.6578 C   0  0  0  0  0  0  0  0  0  0  0  0
    1.0468    1.0761   -0.1878 C   0  0  0  0  0  0  0  0  0  0  0  0
    0.6689    2.4627   -0.7118 C   0  0  0  0  0  0  0  0  0  0  0  0
   -0.0967    0.4352    0.5703 C   0  0  0  0  0  0  0  0  0  0  0  0
   -0.6006    1.0104    1.7348 C   0  0  0  0  0  0  0  0  0  0  0  0
   -1.6465    0.4226    2.4266 C   0  0  0  0  0  0  0  0  0  0  0  0
   -2.2124   -0.7577    1.9659 C   0  0  0  0  0  0  0  0  0  0  0  0
   -1.7218   -1.3411    0.8095 C   0  0  0  0  0  0  0  0  0  0  0  0
   -0.6735   -0.7470    0.1210 C   0  0  0  0  0  0  0  0  0  0  0  0
    2.6036    0.1448    1.0133 H   0  0  0  0  0  0  0  0  0  0  0  0
    3.1494    1.5432    0.0753 H   0  0  0  0  0  0  0  0  0  0  0  0
    2.1803    1.7779    1.5310 H   0  0  0  0  0  0  0  0  0  0  0  0
    0.4697    3.1518    0.1122 H   0  0  0  0  0  0  0  0  0  0  0  0
    1.4815    2.8828   -1.3081 H   0  0  0  0  0  0  0  0  0  0  0  0
   -0.2262    2.4176   -1.3338 H   0  0  0  0  0  0  0  0  0  0  0  0
   -0.1704    1.9324    2.1088 H   0  0  0  0  0  0  0  0  0  0  0  0
   -2.0224    0.8873    3.3297 H   0  0  0  0  0  0  0  0  0  0  0  0
   -3.0301   -1.2180    2.5060 H   0  0  0  0  0  0  0  0  0  0  0  0
   -2.1548   -2.2622    0.4396 H   0  0  0  0  0  0  0  0  0  0  0  0
   -0.2961   -1.2111   -0.7834 H   0  0  0  0  0  0  0  0  0  0  0  0
  1  2  3  0
  1  4  1  0
  3  6  1  0
  3  7  1  0
  5  9  1  0
  8  9  1  0
  8 17  1  0
  8 18  1  0
  8 19  1  0
  9 10  1  0
  9 11  1  0
 10 20  1  0
 10 21  1  0
 10 22  1  0
 11 12  2  0
 11 16  1  0
 12 13  1  0
 12 23  1  0
 13 14  2  0
 13 24  1  0
 14 15  1  0
 14 25  1  0
 15 16  2  0
 15 26  1  0
 16 27  1  0
M  RAD  2   2   2   3   3
M  END
>  <reaction>  (11) 
rxn_1229

>  <mol_properties>  (11) 
{"1": {"label": "*4", "atom_type": "Ct"}, "2": {"label": "*3", "atom_type": "Cs"}, "4": {"label": "*2", "atom_type": "H0"}, "8": {"label": "*1", "atom_type": "Cs"}, "10": {"label": "*0", "atom_type": "Cd"}}

>  <type>  (11) 
unop_7

>  <geom_source>  (11) 
Heuristics

$$$$

     RDKit          3D

 27 26  0  0  0  0  0  0  0  0999 V2000
   -1.0309   -2.8323   -2.9915 C   0  0  0  0  0  0  0  0  0  0  0  0
   -1.0309   -2.8323   -1.7945 C   0  0  0  0  0  0  0  0  0  0  0  0
   -1.0309   -2.8323   -0.3391 C   0  0  0  0  0  0  0  0  0  0  0  0
   -1.0309   -2.8323   -4.0548 H   0  0  0  0  0  0  0  0  0  0  0  0
   -0.9195   -1.6128    0.1234 H   0  0  0  0  0  0  0  0  0  0  0  0
   -0.1972   -3.4209    0.0463 H   0  0  0  0  0  0  0  0  0  0  0  0
   -1.9575   -3.2600    0.0463 H   0  0  0  0  0  0  0  0  0  0  0  0
   -2.2200    0.1746    0.7508 C   0  0  0  0  0  0  0  0  0  0  0  0
   -0.8077   -0.3898    0.5871 C   0  0  0  0  0  3  0  0  0  0  0  0
   -0.4503   -1.3210    1.7468 C   0  0  0  0  0  0  0  0  0  0  0  0
    0.2177    0.7119    0.4195 C   0  0  0  0  0  0  0  0  0  0  0  0
    0.4408    1.6473    1.4276 C   0  0  0  0  0  0  0  0  0  0  0  0
    1.3790    2.6540    1.2724 C   0  0  0  0  0  0  0  0  0  0  0  0
    2.1166    2.7464    0.1006 C   0  0  0  0  0  0  0  0  0  0  0  0
    1.9056    1.8235   -0.9103 C   0  0  0  0  0  0  0  0  0  0  0  0
    0.9639    0.8171   -0.7484 C   0  0  0  0  0  0  0  0  0  0  0  0
   -2.4849    0.8209   -0.0872 H   0  0  0  0  0  0  0  0  0  0  0  0
   -2.9526   -0.6333    0.8071 H   0  0  0  0  0  0  0  0  0  0  0  0
   -2.3026    0.7636    1.6671 H   0  0  0  0  0  0  0  0  0  0  0  0
   -0.4692   -0.7858    2.6990 H   0  0  0  0  0  0  0  0  0  0  0  0
   -1.1650   -2.1440    1.8132 H   0  0  0  0  0  0  0  0  0  0  0  0
    0.5481   -1.7422    1.6198 H   0  0  0  0  0  0  0  0  0  0  0  0
   -0.1266    1.5899    2.3495 H   0  0  0  0  0  0  0  0  0  0  0  0
    1.5359    3.3704    2.0693 H   0  0  0  0  0  0  0  0  0  0  0  0
    2.8502    3.5331   -0.0217 H   0  0  0  0  0  0  0  0  0  0  0  0
    2.4748    1.8848   -1.8296 H   0  0  0  0  0  0  0  0  0  0  0  0
    0.8057    0.0991   -1.5454 H   0  0  0  0  0  0  0  0  0  0  0  0
  1  2  3  0
  1  4  1  0
  2  3  1  0
  3  5  1  0
  3  6  1  0
  3  7  1  0
  8  9  1  0
  8 17  1  0
  8 18  1  0
  8 19  1  0
  9 10  1  0
  9 11  1  0
 10 20  1  0
 10 21  1  0
 10 22  1  0
 11 12  2  0
 11 16  1  0
 12 13  1  0
 12 23  1  0
 13 14  2  0
 13 24  1  0
 14 15  1  0
 14 25  1  0
 15 16  2  0
 15 26  1  0
 16 27  1  0
M  RAD  1   9   2
M  END
>  <reaction>  (12) 
rxn_1229

>  <mol_properties>  (12) 
{"1": {"label": "*4", "atom_type": "Ct"}, "2": {"label": "*3", "atom_type": "Cs"}, "4": {"label": "*2", "atom_type": "H0"}, "8": {"label": "*1", "atom_type": "Cs"}, "10": {"label": "*0", "atom_type": "Cd"}}

>  <type>  (12) 
unop_8

>  <geom_source>  (12) 
Heuristics

$$$$

     RDKit          3D

 27 26  0  0  0  0  0  0  0  0999 V2000
   -0.9444   -1.5390   -4.0519 C   0  0  0  0  0  0  0  0  0  0  0  0
   -0.9444   -1.5390   -2.8548 C   0  0  0  0  0  0  0  0  0  0  0  0
   -0.9444   -1.5390   -1.3994 C   0  0  0  0  0  0  0  0  0  0  0  0
   -0.9444   -1.5390   -5.1151 H   0  0  0  0  0  0  0  0  0  0  0  0
   -0.8329   -0.3194   -0.9370 H   0  0  0  0  0  0  0  0  0  0  0  0
   -0.1107   -2.1276   -1.0140 H   0  0  0  0  0  0  0  0  0  0  0  0
   -1.8710   -1.9667   -1.0140 H   0  0  0  0  0  0  0  0  0  0  0  0
    0.0848    1.7131   -1.4907 C   0  0  0  0  0  0  0  0  0  0  0  0
   -0.7211    0.9035   -0.4733 C   0  0  0  0  0  3  0  0  0  0  0  0
   -1.9321    1.6952    0.0235 C   0  0  0  0  0  0  0  0  0  0  0  0
    0.1450    0.4296    0.6749 C   0  0  0  0  0  0  0  0  0  0  0  0
    0.7746    1.3370    1.5242 C   0  0  0  0  0  0  0  0  0  0  0  0
    1.5663    0.9014    2.5736 C   0  0  0  0  0  0  0  0  0  0  0  0
    1.7455   -0.4565    2.7963 C   0  0  0  0  0  0  0  0  0  0  0  0
    1.1258   -1.3703    1.9601 C   0  0  0  0  0  0  0  0  0  0  0  0
    0.3337   -0.9272    0.9102 C   0  0  0  0  0  0  0  0  0  0  0  0
    0.9360    1.1411   -1.8630 H   0  0  0  0  0  0  0  0  0  0  0  0
   -0.5403    1.9926   -2.3413 H   0  0  0  0  0  0  0  0  0  0  0  0
    0.4692    2.6326   -1.0434 H   0  0  0  0  0  0  0  0  0  0  0  0
   -1.6203    2.6141    0.5253 H   0  0  0  0  0  0  0  0  0  0  0  0
   -2.5776    1.9746   -0.8118 H   0  0  0  0  0  0  0  0  0  0  0  0
   -2.5206    1.1105    0.7320 H   0  0  0  0  0  0  0  0  0  0  0  0
    0.6454    2.4014    1.3647 H   0  0  0  0  0  0  0  0  0  0  0  0
    2.0462    1.6246    3.2214 H   0  0  0  0  0  0  0  0  0  0  0  0
    2.3642   -0.7980    3.6164 H   0  0  0  0  0  0  0  0  0  0  0  0
    1.2577   -2.4327    2.1233 H   0  0  0  0  0  0  0  0  0  0  0  0
   -0.1474   -1.6502    0.2609 H   0  0  0  0  0  0  0  0  0  0  0  0
  1  2  3  0
  1  4  1  0
  2  3  1  0
  3  5  1  0
  3  6  1  0
  3  7  1  0
  8  9  1  0
  8 17  1  0
  8 18  1  0
  8 19  1  0
  9 10  1  0
  9 11  1  0
 10 20  1  0
 10 21  1  0
 10 22  1  0
 11 12  2  0
 11 16  1  0
 12 13  1  0
 12 23  1  0
 13 14  2  0
 13 24  1  0
 14 15  1  0
 14 25  1  0
 15 16  2  0
 15 26  1  0
 16 27  1  0
M  RAD  1   9   2
M  END
>  <reaction>  (13) 
rxn_1229

>  <mol_properties>  (13) 
{"1": {"label": "*4", "atom_type": "Ct"}, "2": {"label": "*3", "atom_type": "Cs"}, "4": {"label": "*2", "atom_type": "H0"}, "8": {"label": "*1", "atom_type": "Cs"}, "10": {"label": "*0", "atom_type": "Cd"}}

>  <type>  (13) 
unop_9

>  <geom_source>  (13) 
Heuristics

$$$$

     RDKit          3D

 27 26  0  0  0  0  0  0  0  0999 V2000
   -1.1712   -2.6581   -3.2610 C   0  0  0  0  0  0  0  0  0  0  0  0
   -1.1712   -2.6581   -2.0640 C   0  0  0  0  0  0  0  0  0  0  0  0
   -1.1712   -2.6581   -0.6085 C   0  0  0  0  0  0  0  0  0  0  0  0
   -1.1712   -2.6581   -4.3243 H   0  0  0  0  0  0  0  0  0  0  0  0
   -1.0597   -1.4385   -0.1461 H   0  0  0  0  0  0  0  0  0  0  0  0
   -0.3374   -3.2467   -0.2232 H   0  0  0  0  0  0  0  0  0  0  0  0
   -2.0978   -3.0858   -0.2232 H   0  0  0  0  0  0  0  0  0  0  0  0
   -2.1423    0.5875   -0.2006 C   0  0  0  0  0  0  0  0  0  0  0  0
   -0.9479   -0.2156    0.3176 C   0  0  0  0  0  3  0  0  0  0  0  0
   -1.3022   -0.9562    1.6083 C   0  0  0  0  0  0  0  0  0  0  0  0
    0.2773    0.6568    0.4930 C   0  0  0  0  0  0  0  0  0  0  0  0
    0.2826    1.7178    1.3959 C   0  0  0  0  0  0  0  0  0  0  0  0
    1.4042    2.5144    1.5547 C   0  0  0  0  0  0  0  0  0  0  0  0
    2.5487    2.2653    0.8106 C   0  0  0  0  0  0  0  0  0  0  0  0
    2.5581    1.2139   -0.0909 C   0  0  0  0  0  0  0  0  0  0  0  0
    1.4308    0.4194   -0.2453 C   0  0  0  0  0  0  0  0  0  0  0  0
   -1.8982    1.0980   -1.1334 H   0  0  0  0  0  0  0  0  0  0  0  0
   -2.9970   -0.0679   -0.3806 H   0  0  0  0  0  0  0  0  0  0  0  0
   -2.4498    1.3443    0.5247 H   0  0  0  0  0  0  0  0  0  0  0  0
   -1.5794   -0.2549    2.3988 H   0  0  0  0  0  0  0  0  0  0  0  0
   -2.1484   -1.6271    1.4466 H   0  0  0  0  0  0  0  0  0  0  0  0
   -0.4583   -1.5475    1.9668 H   0  0  0  0  0  0  0  0  0  0  0  0
   -0.6029    1.9266    1.9853 H   0  0  0  0  0  0  0  0  0  0  0  0
    1.3859    3.3340    2.2626 H   0  0  0  0  0  0  0  0  0  0  0  0
    3.4260    2.8875    0.9341 H   0  0  0  0  0  0  0  0  0  0  0  0
    3.4451    1.0091   -0.6776 H   0  0  0  0  0  0  0  0  0  0  0  0
    1.4477   -0.4015   -0.9537 H   0  0  0  0  0  0  0  0  0  0  0  0
  1  2  3  0
  1  4  1  0
  2  3  1  0
  3  5  1  0
  3  6  1  0
  3  7  1  0
  8  9  1  0
  8 17  1  0
  8 18  1  0
  8 19  1  0
  9 10  1  0
  9 11  1  0
 10 20  1  0
 10 21  1  0
 10 22  1  0
 11 12  2  0
 11 16  1  0
 12 13  1  0
 12 23  1  0
 13 14  2  0
 13 24  1  0
 14 15  1  0
 14 25  1  0
 15 16  2  0
 15 26  1  0
 16 27  1  0
M  RAD  1   9   2
M  END
>  <reaction>  (14) 
rxn_1229

>  <mol_properties>  (14) 
{"1": {"label": "*4", "atom_type": "Ct"}, "2": {"label": "*3", "atom_type": "Cs"}, "4": {"label": "*2", "atom_type": "H0"}, "8": {"label": "*1", "atom_type": "Cs"}, "10": {"label": "*0", "atom_type": "Cd"}}

>  <type>  (14) 
unop_10

>  <geom_source>  (14) 
Heuristics

$$$$

     RDKit          3D

 27 26  0  0  0  0  0  0  0  0999 V2000
    1.1389   -1.8509   -3.2356 C   0  0  0  0  0  0  0  0  0  0  0  0
    1.1389   -1.8509   -2.0386 C   0  0  0  0  0  0  0  0  0  0  0  0
    1.1389   -1.8509   -0.5832 C   0  0  0  0  0  0  0  0  0  0  0  0
    1.1389   -1.8509   -4.2989 H   0  0  0  0  0  0  0  0  0  0  0  0
    1.2504   -0.6313   -0.1207 H   0  0  0  0  0  0  0  0  0  0  0  0
    1.9726   -2.4394   -0.1978 H   0  0  0  0  0  0  0  0  0  0  0  0
    0.2123   -2.2786   -0.1978 H   0  0  0  0  0  0  0  0  0  0  0  0
    2.0869    0.5129    1.6878 C   0  0  0  0  0  0  0  0  0  0  0  0
    1.3622    0.5917    0.3430 C   0  0  0  0  0  3  0  0  0  0  0  0
    1.7607    1.8544   -0.4229 C   0  0  0  0  0  0  0  0  0  0  0  0
   -0.1394    0.4917    0.5115 C   0  0  0  0  0  0  0  0  0  0  0  0
   -0.8487    1.4511    1.2309 C   0  0  0  0  0  0  0  0  0  0  0  0
   -2.2219    1.3578    1.3838 C   0  0  0  0  0  0  0  0  0  0  0  0
   -2.9171    0.2985    0.8180 C   0  0  0  0  0  0  0  0  0  0  0  0
   -2.2253   -0.6628    0.1000 C   0  0  0  0  0  0  0  0  0  0  0  0
   -0.8492   -0.5635   -0.0495 C   0  0  0  0  0  0  0  0  0  0  0  0
    1.8211   -0.3986    2.2251 H   0  0  0  0  0  0  0  0  0  0  0  0
    3.1691    0.5232    1.5423 H   0  0  0  0  0  0  0  0  0  0  0  0
    1.8280    1.3634    2.3226 H   0  0  0  0  0  0  0  0  0  0  0  0
    1.4901    2.7532    0.1360 H   0  0  0  0  0  0  0  0  0  0  0  0
    2.8396    1.8783   -0.5896 H   0  0  0  0  0  0  0  0  0  0  0  0
    1.2620    1.9005   -1.3921 H   0  0  0  0  0  0  0  0  0  0  0  0
   -0.3214    2.2852    1.6796 H   0  0  0  0  0  0  0  0  0  0  0  0
   -2.7530    2.1151    1.9472 H   0  0  0  0  0  0  0  0  0  0  0  0
   -3.9907    0.2247    0.9370 H   0  0  0  0  0  0  0  0  0  0  0  0
   -2.7563   -1.4944   -0.3465 H   0  0  0  0  0  0  0  0  0  0  0  0
   -0.3162   -1.3210   -0.6133 H   0  0  0  0  0  0  0  0  0  0  0  0
  1  2  3  0
  1  4  1  0
  2  3  1  0
  3  5  1  0
  3  6  1  0
  3  7  1  0
  8  9  1  0
  8 17  1  0
  8 18  1  0
  8 19  1  0
  9 10  1  0
  9 11  1  0
 10 20  1  0
 10 21  1  0
 10 22  1  0
 11 12  2  0
 11 16  1  0
 12 13  1  0
 12 23  1  0
 13 14  2  0
 13 24  1  0
 14 15  1  0
 14 25  1  0
 15 16  2  0
 15 26  1  0
 16 27  1  0
M  RAD  1   9   2
M  END
>  <reaction>  (15) 
rxn_1229

>  <mol_properties>  (15) 
{"1": {"label": "*4", "atom_type": "Ct"}, "2": {"label": "*3", "atom_type": "Cs"}, "4": {"label": "*2", "atom_type": "H0"}, "8": {"label": "*1", "atom_type": "Cs"}, "10": {"label": "*0", "atom_type": "Cd"}}

>  <type>  (15) 
unop_11

>  <geom_source>  (15) 
Heuristics

$$$$

     RDKit          3D

 27 26  0  0  0  0  0  0  0  0999 V2000
   -1.2438   -1.9911   -3.7735 C   0  0  0  0  0  0  0  0  0  0  0  0
   -1.2438   -1.9911   -2.5765 C   0  0  0  0  0  0  0  0  0  0  0  0
   -1.2438   -1.9911   -1.1210 C   0  0  0  0  0  0  0  0  0  0  0  0
   -1.2438   -1.9911   -4.8368 H   0  0  0  0  0  0  0  0  0  0  0  0
   -1.1323   -0.7716   -0.6586 H   0  0  0  0  0  0  0  0  0  0  0  0
   -0.4101   -2.5797   -0.7357 H   0  0  0  0  0  0  0  0  0  0  0  0
   -2.1704   -2.4188   -0.7357 H   0  0  0  0  0  0  0  0  0  0  0  0
   -0.9342    1.3960   -1.3950 C   0  0  0  0  0  0  0  0  0  0  0  0
   -1.0206    0.4514   -0.1949 C   0  0  0  0  0  3  0  0  0  0  0  0
   -2.2645    0.7436    0.6460 C   0  0  0  0  0  0  0  0  0  0  0  0
    0.2412    0.4947    0.6413 C   0  0  0  0  0  0  0  0  0  0  0  0
    0.6432    1.6669    1.2780 C   0  0  0  0  0  0  0  0  0  0  0  0
    1.7974    1.7044    2.0423 C   0  0  0  0  0  0  0  0  0  0  0  0
    2.5768    0.5653    2.1862 C   0  0  0  0  0  0  0  0  0  0  0  0
    2.1896   -0.6073    1.5591 C   0  0  0  0  0  0  0  0  0  0  0  0
    1.0319   -0.6381    0.7946 C   0  0  0  0  0  0  0  0  0  0  0  0
   -0.0597    1.1738   -2.0083 H   0  0  0  0  0  0  0  0  0  0  0  0
   -1.8249    1.3054   -2.0202 H   0  0  0  0  0  0  0  0  0  0  0  0
   -0.8598    2.4363   -1.0701 H   0  0  0  0  0  0  0  0  0  0  0  0
   -2.2380    1.7605    1.0444 H   0  0  0  0  0  0  0  0  0  0  0  0
   -3.1686    0.6465    0.0414 H   0  0  0  0  0  0  0  0  0  0  0  0
   -2.3396    0.0559    1.4895 H   0  0  0  0  0  0  0  0  0  0  0  0
    0.0462    2.5660    1.1762 H   0  0  0  0  0  0  0  0  0  0  0  0
    2.0909    2.6266    2.5283 H   0  0  0  0  0  0  0  0  0  0  0  0
    3.4793    0.5936    2.7835 H   0  0  0  0  0  0  0  0  0  0  0  0
    2.7893   -1.5031    1.6636 H   0  0  0  0  0  0  0  0  0  0  0  0
    0.7368   -1.5608    0.3074 H   0  0  0  0  0  0  0  0  0  0  0  0
  1  2  3  0
  1  4  1  0
  2  3  1  0
  3  5  1  0
  3  6  1  0
  3  7  1  0
  8  9  1  0
  8 17  1  0
  8 18  1  0
  8 19  1  0
  9 10  1  0
  9 11  1  0
 10 20  1  0
 10 21  1  0
 10 22  1  0
 11 12  2  0
 11 16  1  0
 12 13  1  0
 12 23  1  0
 13 14  2  0
 13 24  1  0
 14 15  1  0
 14 25  1  0
 15 16  2  0
 15 26  1  0
 16 27  1  0
M  RAD  1   9   2
M  END
>  <reaction>  (16) 
rxn_1229

>  <mol_properties>  (16) 
{"1": {"label": "*4", "atom_type": "Ct"}, "2": {"label": "*3", "atom_type": "Cs"}, "4": {"label": "*2", "atom_type": "H0"}, "8": {"label": "*1", "atom_type": "Cs"}, "10": {"label": "*0", "atom_type": "Cd"}}

>  <type>  (16) 
unop_12

>  <geom_source>  (16) 
Heuristics

$$$$

     RDKit          3D

 27 26  0  0  0  0  0  0  0  0999 V2000
    0.3951   -0.2529    0.3443 C   0  0  0  0  0  3  0  0  0  0  0  0
    0.7425   -1.7441    0.3999 C   0  0  0  0  0  0  0  0  0  0  0  0
    0.7632    0.4502    1.6548 C   0  0  0  0  0  0  0  0  0  0  0  0
   -1.0663   -0.0434    0.0020 C   0  0  0  0  0  0  0  0  0  0  0  0
   -1.4194    0.6348   -1.1780 C   0  0  0  0  0  0  0  0  0  0  0  0
   -2.0883   -0.5176    0.8481 C   0  0  0  0  0  0  0  0  0  0  0  0
   -2.7645    0.8341   -1.5044 C   0  0  0  0  0  0  0  0  0  0  0  0
   -3.7693    0.3596   -0.6582 C   0  0  0  0  0  0  0  0  0  0  0  0
   -3.4314   -0.3155    0.5168 C   0  0  0  0  0  0  0  0  0  0  0  0
    2.3327    0.7837   -1.0537 C   0  0  0  0  0  0  0  0  0  0  0  0
    3.6698    0.4283   -0.5776 C   0  0  0  0  0  0  0  0  0  0  0  0
    4.7712    0.1353   -0.1853 C   0  0  0  0  0  0  0  0  0  0  0  0
    1.1707    0.2940   -0.6248 H   0  0  0  0  0  0  0  0  0  0  0  0
    1.8350   -1.8708    0.5537 H   0  0  0  0  0  0  0  0  0  0  0  0
    0.4690   -2.2322   -0.5596 H   0  0  0  0  0  0  0  0  0  0  0  0
    0.2060   -2.2514    1.2296 H   0  0  0  0  0  0  0  0  0  0  0  0
    0.5044    1.5285    1.5912 H   0  0  0  0  0  0  0  0  0  0  0  0
    0.2272   -0.0001    2.5171 H   0  0  0  0  0  0  0  0  0  0  0  0
    1.8561    0.3664    1.8332 H   0  0  0  0  0  0  0  0  0  0  0  0
   -0.6575    1.0111   -1.8486 H   0  0  0  0  0  0  0  0  0  0  0  0
   -3.0278    1.3572   -2.4147 H   0  0  0  0  0  0  0  0  0  0  0  0
   -1.8481   -1.0432    1.7631 H   0  0  0  0  0  0  0  0  0  0  0  0
   -4.8097    0.5151   -0.9130 H   0  0  0  0  0  0  0  0  0  0  0  0
   -4.2109   -0.6828    1.1718 H   0  0  0  0  0  0  0  0  0  0  0  0
    2.2325    0.5003   -2.1217 H   0  0  0  0  0  0  0  0  0  0  0  0
    2.1796    1.8772   -0.9453 H   0  0  0  0  0  0  0  0  0  0  0  0
    5.7383   -0.1219    0.1592 H   0  0  0  0  0  0  0  0  0  0  0  0
  1  2  1  0
  1  3  1  0
  1  4  1  0
  2 14  1  0
  2 15  1  0
  2 16  1  0
  3 17  1  0
  3 18  1  0
  3 19  1  0
  4  5  2  0
  4  6  1  0
  5  7  1  0
  5 20  1  0
  6  9  2  0
  6 22  1  0
  7  8  2  0
  7 21  1  0
  8  9  1  0
  8 23  1  0
  9 24  1  0
 10 11  1  0
 10 13  1  0
 10 25  1  0
 10 26  1  0
 11 12  3  0
 12 27  1  0
M  RAD  1   1   2
M  END
>  <reaction>  (17) 
rxn_1229

>  <mol_properties>  (17) 
{"1": {"label": "*4", "atom_type": "Ct"}, "2": {"label": "*3", "atom_type": "Cs"}, "4": {"label": "*2", "atom_type": "H0"}, "8": {"label": "*1", "atom_type": "Cs"}, "10": {"label": "*0", "atom_type": "Cd"}}

>  <type>  (17) 
unop_13

>  <geom_source>  (17) 
AutoTST

$$$$
