
     RDKit          3D

  6  5  0  0  0  0  0  0  0  0999 V2000
   -0.3669    0.0060    0.0609 C   0  0  0  0  0  0  0  0  0  0  0  0
    0.9818   -0.0507    0.4695 O   0  0  0  0  0  0  0  0  0  0  0  0
   -0.6066    0.9462   -0.4488 H   0  0  0  0  0  0  0  0  0  0  0  0
   -0.5221   -0.8115   -0.6420 H   0  0  0  0  0  0  0  0  0  0  0  0
   -1.0602   -0.1268    0.8992 H   0  0  0  0  0  0  0  0  0  0  0  0
    1.1451    0.6595    1.0897 H   0  0  0  0  0  0  0  0  0  0  0  0
  1  2  1  0
  1  3  1  0
  1  4  1  0
  1  5  1  0
  2  6  1  0
M  END
>  <reaction>  (1) 
rxn_193

>  <mol_properties>  (1) 
{"0": {"label": "donator", "atom_type": "Cs"}, "2": {"label": "d_hydrogen", "atom_type": "H0"}}

>  <type>  (1) 
r1h

$$$$

     RDKit          3D

  1  0  0  0  0  0  0  0  0  0999 V2000
    0.0000    0.0000    0.0000 O   0  0  0  0  0 15  0  0  0  0  0  0
M  END
>  <reaction>  (2) 
rxn_193

>  <mol_properties>  (2) 
{"0": {"label": "acceptor", "atom_type": "O2s"}}

>  <type>  (2) 
r2

$$$$

     RDKit          3D

  2  1  0  0  0  0  0  0  0  0999 V2000
    0.0000    0.0000    0.4855 O   0  0  0  0  0  1  0  0  0  0  0  0
    0.0000    0.0000   -0.4855 H   0  0  0  0  0  0  0  0  0  0  0  0
  1  2  1  0
M  RAD  1   1   2
M  END
>  <reaction>  (3) 
rxn_193

>  <mol_properties>  (3) 
{"0": {"label": "a_hydrogen", "atom_type": "H0"}, "1": {"label": "acceptor", "atom_type": "O2s"}}

>  <type>  (3) 
r2h

$$$$

     RDKit          3D

  7  5  0  0  0  0  0  0  0  0999 V2000
   -0.0303   -0.7931    0.1444 C   0  0  0  0  0  0  0  0  0  0  0  0
   -0.0381   -0.7193   -1.2270 O   0  0  0  0  0  0  0  0  0  0  0  0
   -0.0530    0.3206    0.6348 H   0  0  0  0  0  0  0  0  0  0  0  0
   -0.9436   -1.2731    0.4888 H   0  0  0  0  0  0  0  0  0  0  0  0
    0.8678   -1.2456    0.5757 H   0  0  0  0  0  0  0  0  0  0  0  0
    0.8102   -0.3986   -1.5389 H   0  0  0  0  0  0  0  0  0  0  0  0
    0.0131    1.5662    1.1358 O   0  0  0  0  0 15  0  0  0  0  0  0
  1  2  1  0
  1  3  1  0
  1  4  1  0
  1  5  1  0
  2  6  1  0
M  END
>  <reaction>  (4) 
rxn_193

>  <mol_properties>  (4) 
{"0": {"label": "*1", "atom_type": "Cs"}, "1": {"label": "*0", "atom_type": "O2s"}, "2": {"label": "*2", "atom_type": "H0"}, "6": {"label": "*3", "atom_type": "O2s"}}

>  <type>  (4) 
ts

$$$$

     RDKit          3D

  7  5  0  0  0  0  0  0  0  0999 V2000
   -0.0154   -0.7773    0.1673 C   0  0  0  0  0  3  0  0  0  0  0  0
   -0.0154   -0.7773   -1.2431 O   0  0  0  0  0  0  0  0  0  0  0  0
   -0.0154    0.4400    0.6650 H   0  0  0  0  0  0  0  0  0  0  0  0
   -0.9299   -1.2756    0.4865 H   0  0  0  0  0  0  0  0  0  0  0  0
    0.8370   -1.3273    0.5821 H   0  0  0  0  0  0  0  0  0  0  0  0
    0.7805   -0.3437   -1.5503 H   0  0  0  0  0  0  0  0  0  0  0  0
   -0.0154    1.5185    1.1060 O   0  0  0  0  0  1  0  0  0  0  0  0
  1  2  1  0
  1  4  1  0
  1  5  1  0
  2  6  1  0
  3  7  1  0
M  RAD  2   1   2   7   2
M  END
>  <reaction>  (5) 
rxn_193

>  <mol_properties>  (5) 
{"0": {"label": "*1", "atom_type": "Cs"}, "1": {"label": "*0", "atom_type": "O2s"}, "2": {"label": "*2", "atom_type": "H0"}, "6": {"label": "*3", "atom_type": "O2s"}}

>  <type>  (5) 
unop_1

>  <geom_source>  (5) 
Heuristics

$$$$

     RDKit          3D

  7  5  0  0  0  0  0  0  0  0999 V2000
   -1.1865    0.5680   -0.1642 O   0  0  0  0  0  0  0  0  0  0  0  0
    1.8018    0.7184    0.2740 O   0  0  0  0  0  1  0  0  0  0  0  0
   -0.2302   -0.4439   -0.0849 C   0  0  0  0  0  3  0  0  0  0  0  0
   -0.4448   -1.2159   -0.8523 H   0  0  0  0  0  0  0  0  0  0  0  0
   -0.2622   -0.9087    0.9228 H   0  0  0  0  0  0  0  0  0  0  0  0
   -0.7005    1.3933    0.0892 H   0  0  0  0  0  0  0  0  0  0  0  0
    1.0225   -0.1113   -0.1846 H   0  0  0  0  0  0  0  0  0  0  0  0
  1  3  1  0
  1  6  1  0
  2  7  1  0
  3  4  1  0
  3  5  1  0
M  RAD  2   2   2   3   2
M  END
>  <reaction>  (6) 
rxn_193

>  <mol_properties>  (6) 
{"0": {"label": "*1", "atom_type": "Cs"}, "1": {"label": "*0", "atom_type": "O2s"}, "2": {"label": "*2", "atom_type": "H0"}, "6": {"label": "*3", "atom_type": "O2s"}}

>  <type>  (6) 
unop_2

>  <geom_source>  (6) 
AutoTST

$$$$
