
     RDKit          3D

 10  9  0  0  0  0  0  0  0  0999 V2000
   -1.1508    0.0666    0.2839 C   0  0  0  0  0  0  0  0  0  0  0  0
    0.1022   -0.3749   -0.4771 C   0  0  0  0  0  0  0  0  0  0  0  0
    1.3428    0.1620    0.1542 C   0  0  0  0  0  0  0  0  0  0  0  0
    2.5613   -0.6971    0.7526 S   0  0  0  0  0  0  0  0  0  0  0  0
   -1.2137    1.1546    0.3481 H   0  0  0  0  0  0  0  0  0  0  0  0
   -2.0472   -0.2935   -0.2212 H   0  0  0  0  0  0  0  0  0  0  0  0
   -1.1467   -0.3334    1.2987 H   0  0  0  0  0  0  0  0  0  0  0  0
    0.1602   -1.4616   -0.5369 H   0  0  0  0  0  0  0  0  0  0  0  0
    0.0536    0.0174   -1.4997 H   0  0  0  0  0  0  0  0  0  0  0  0
    1.3824    1.2528    0.2110 H   0  0  0  0  0  0  0  0  0  0  0  0
  1  2  1  0
  1  5  1  0
  1  6  1  0
  1  7  1  0
  2  3  1  0
  2  8  1  0
  2  9  1  0
  3  4  2  0
  3 10  1  0
M  END
>  <reaction>  (1) 
rxn_2023

>  <mol_properties>  (1) 
{"1": {"label": "donator", "atom_type": "Cs"}, "7": {"label": "d_hydrogen", "atom_type": "H0"}}

>  <type>  (1) 
r1h

$$$$

     RDKit          3D

  6  5  0  0  0  0  0  0  0  0999 V2000
    1.7035    0.4954    0.0162 S   0  0  0  0  0  0  0  0  0  0  0  0
    0.1927   -0.1841   -0.3584 C   0  0  0  0  0  3  0  0  0  0  0  0
   -1.0558    0.0577   -0.0460 C   0  0  0  0  0  0  0  0  0  0  0  0
    2.3611   -0.6557    0.2254 H   0  0  0  0  0  0  0  0  0  0  0  0
   -1.8677   -0.4245   -0.5802 H   0  0  0  0  0  0  0  0  0  0  0  0
   -1.3294    0.7333    0.7635 H   0  0  0  0  0  0  0  0  0  0  0  0
  1  2  1  0
  1  4  1  0
  2  3  2  3
  3  5  1  0
  3  6  1  0
M  RAD  1   2   2
M  END
>  <reaction>  (2) 
rxn_2023

>  <mol_properties>  (2) 
{"1": {"label": "acceptor", "atom_type": "Cd"}}

>  <type>  (2) 
r2

$$$$

     RDKit          3D

  7  6  0  0  0  0  0  0  0  0999 V2000
    1.2020   -0.5069    1.0970 S   0  0  0  0  0  0  0  0  0  0  0  0
    0.2449    0.0208   -0.2711 C   0  0  0  0  0  0  0  0  0  0  0  0
    0.6491    0.2538   -1.5108 C   0  0  0  0  0  0  0  0  0  0  0  0
    2.3807   -0.5751    0.4630 H   0  0  0  0  0  0  0  0  0  0  0  0
   -0.7959    0.1526    0.0036 H   0  0  0  0  0  0  0  0  0  0  0  0
    1.6808    0.1320   -1.8181 H   0  0  0  0  0  0  0  0  0  0  0  0
   -0.0586    0.5786   -2.2618 H   0  0  0  0  0  0  0  0  0  0  0  0
  1  2  1  0
  1  4  1  0
  2  3  2  3
  2  5  1  0
  3  6  1  0
  3  7  1  0
M  END
>  <reaction>  (3) 
rxn_2023

>  <mol_properties>  (3) 
{"1": {"label": "acceptor", "atom_type": "Cd"}, "6": {"label": "a_hydrogen", "atom_type": "H0"}}

>  <type>  (3) 
r2h

$$$$

     RDKit          3D

 16 14  0  0  0  0  0  0  0  0999 V2000
   -1.9584   -0.9564    0.0097 S   0  0  0  0  0  0  0  0  0  0  0  0
   -0.4352   -1.4716    0.6076 C   0  0  0  0  0  3  0  0  0  0  0  0
   -0.0678   -2.4617    1.3893 C   0  0  0  0  0  0  0  0  0  0  0  0
   -1.6996    0.3614    0.0453 H   0  0  0  0  0  0  0  0  0  0  0  0
    0.9814   -2.6994    1.5244 H   0  0  0  0  0  0  0  0  0  0  0  0
   -0.7893   -3.0685    1.9301 H   0  0  0  0  0  0  0  0  0  0  0  0
    1.2021   -0.2525   -2.0681 C   0  0  0  0  0  0  0  0  0  0  0  0
    1.5241   -0.0033   -0.6146 C   0  0  0  0  0  0  0  0  0  0  0  0
    1.3537    1.3366   -0.0655 C   0  0  0  0  0  0  0  0  0  0  0  0
    0.4745    2.5474   -0.6973 S   0  0  0  0  0  0  0  0  0  0  0  0
    1.8797    0.3074   -2.7160 H   0  0  0  0  0  0  0  0  0  0  0  0
    1.2971   -1.3136   -2.2992 H   0  0  0  0  0  0  0  0  0  0  0  0
    0.1865    0.0646   -2.3042 H   0  0  0  0  0  0  0  0  0  0  0  0
    0.6970   -0.6528    0.0211 H   0  0  0  0  0  0  0  0  0  0  0  0
    2.4605   -0.4566   -0.2832 H   0  0  0  0  0  0  0  0  0  0  0  0
    1.8380    1.4938    0.8992 H   0  0  0  0  0  0  0  0  0  0  0  0
  1  2  1  0
  1  4  1  0
  2  3  2  3
  3  5  1  0
  3  6  1  0
  7  8  1  0
  7 11  1  0
  7 12  1  0
  7 13  1  0
  8  9  1  0
  8 14  1  0
  8 15  1  0
  9 10  2  0
  9 16  1  0
M  RAD  1   2   2
M  END
>  <reaction>  (4) 
rxn_2023

>  <mol_properties>  (4) 
{"0": {"label": "*4", "atom_type": "S2s"}, "1": {"label": "*3", "atom_type": "Cd"}, "7": {"label": "*1", "atom_type": "Cs"}, "8": {"label": "*0", "atom_type": "CS"}, "13": {"label": "*2", "atom_type": "H0"}}

>  <type>  (4) 
ts

$$$$

     RDKit          3D

 16 14  0  0  0  0  0  0  0  0999 V2000
   -0.3748   -2.4659    0.9990 S   0  0  0  0  0  0  0  0  0  0  0  0
   -0.8840   -1.1139    0.0095 C   0  0  0  0  0  0  0  0  0  0  0  0
   -1.8910   -0.2796    0.2203 C   0  0  0  0  0  0  0  0  0  0  0  0
   -1.3069   -2.3379    1.9534 H   0  0  0  0  0  0  0  0  0  0  0  0
   -2.0922    0.5186   -0.4817 H   0  0  0  0  0  0  0  0  0  0  0  0
   -2.5403   -0.3591    1.0838 H   0  0  0  0  0  0  0  0  0  0  0  0
    1.1662    0.2015   -2.4566 C   0  0  0  0  0  0  0  0  0  0  0  0
    1.1662    0.2015   -0.9255 C   0  0  0  0  0  0  0  0  0  0  0  0
    1.1662    1.5897   -0.3788 C   0  0  0  0  0  0  0  0  0  0  0  0
    0.0467    2.2454    0.5687 S   0  0  0  0  0  1  0  0  0  0  0  0
    2.0214    0.7517   -2.8537 H   0  0  0  0  0  0  0  0  0  0  0  0
    1.2171   -0.8194   -2.8352 H   0  0  0  0  0  0  0  0  0  0  0  0
    0.2567    0.6639   -2.8422 H   0  0  0  0  0  0  0  0  0  0  0  0
    0.1386   -0.4578   -0.4568 H   0  0  0  0  0  0  0  0  0  0  0  0
    2.0766   -0.2952   -0.5701 H   0  0  0  0  0  0  0  0  0  0  0  0
    2.0217    2.1950   -0.6891 H   0  0  0  0  0  0  0  0  0  0  0  0
  1  2  1  0
  1  4  1  0
  2  3  2  3
  2 14  1  0
  3  5  1  0
  3  6  1  0
  7  8  1  0
  7 11  1  0
  7 12  1  0
  7 13  1  0
  8  9  2  3
  8 15  1  0
  9 10  1  0
  9 16  1  0
M  RAD  1  10   2
M  END
>  <reaction>  (5) 
rxn_2023

>  <mol_properties>  (5) 
{"0": {"label": "*4", "atom_type": "S2s"}, "1": {"label": "*3", "atom_type": "Cd"}, "7": {"label": "*1", "atom_type": "Cs"}, "8": {"label": "*0", "atom_type": "CS"}, "13": {"label": "*2", "atom_type": "H0"}}

>  <type>  (5) 
unop_1

>  <geom_source>  (5) 
Heuristics

$$$$

     RDKit          3D

 16 14  0  0  0  0  0  0  0  0999 V2000
   -1.2034   -2.3283   -0.6851 S   0  0  0  0  0  0  0  0  0  0  0  0
   -0.7180   -1.0477    0.4060 C   0  0  0  0  0  0  0  0  0  0  0  0
   -1.0188   -0.9079    1.6884 C   0  0  0  0  0  0  0  0  0  0  0  0
   -1.9235   -3.0371    0.1953 H   0  0  0  0  0  0  0  0  0  0  0  0
   -0.6461   -0.0585    2.2451 H   0  0  0  0  0  0  0  0  0  0  0  0
   -1.6360   -1.6210    2.2214 H   0  0  0  0  0  0  0  0  0  0  0  0
    1.3322    0.2678   -2.0601 C   0  0  0  0  0  0  0  0  0  0  0  0
    1.3322    0.2678   -0.5290 C   0  0  0  0  0  0  0  0  0  0  0  0
    1.3322    1.6560    0.0177 C   0  0  0  0  0  0  0  0  0  0  0  0
    0.2127    2.3117    0.9652 S   0  0  0  0  0  1  0  0  0  0  0  0
    2.1874    0.8180   -2.4572 H   0  0  0  0  0  0  0  0  0  0  0  0
    1.3831   -0.7531   -2.4387 H   0  0  0  0  0  0  0  0  0  0  0  0
    0.4227    0.7302   -2.4457 H   0  0  0  0  0  0  0  0  0  0  0  0
    0.3046   -0.3916   -0.0603 H   0  0  0  0  0  0  0  0  0  0  0  0
    2.2426   -0.2289   -0.1736 H   0  0  0  0  0  0  0  0  0  0  0  0
    2.1877    2.2612   -0.2926 H   0  0  0  0  0  0  0  0  0  0  0  0
  1  2  1  0
  1  4  1  0
  2  3  2  3
  2 14  1  0
  3  5  1  0
  3  6  1  0
  7  8  1  0
  7 11  1  0
  7 12  1  0
  7 13  1  0
  8  9  2  3
  8 15  1  0
  9 10  1  0
  9 16  1  0
M  RAD  1  10   2
M  END
>  <reaction>  (6) 
rxn_2023

>  <mol_properties>  (6) 
{"0": {"label": "*4", "atom_type": "S2s"}, "1": {"label": "*3", "atom_type": "Cd"}, "7": {"label": "*1", "atom_type": "Cs"}, "8": {"label": "*0", "atom_type": "CS"}, "13": {"label": "*2", "atom_type": "H0"}}

>  <type>  (6) 
unop_2

>  <geom_source>  (6) 
Heuristics

$$$$

     RDKit          3D

 16 14  0  0  0  0  0  0  0  0999 V2000
   -0.4609   -1.9536    1.4955 S   0  0  0  0  0  0  0  0  0  0  0  0
   -0.8277   -1.2198   -0.0515 C   0  0  0  0  0  0  0  0  0  0  0  0
   -2.0017   -0.8023   -0.5008 C   0  0  0  0  0  0  0  0  0  0  0  0
   -1.7047   -1.9293    1.9938 H   0  0  0  0  0  0  0  0  0  0  0  0
   -2.0823   -0.3640   -1.4866 H   0  0  0  0  0  0  0  0  0  0  0  0
   -2.9093   -0.8801    0.0855 H   0  0  0  0  0  0  0  0  0  0  0  0
    1.2225    0.0957   -2.5175 C   0  0  0  0  0  0  0  0  0  0  0  0
    1.2225    0.0957   -0.9864 C   0  0  0  0  0  0  0  0  0  0  0  0
    1.2225    1.4839   -0.4398 C   0  0  0  0  0  0  0  0  0  0  0  0
    0.1030    2.1396    0.5078 S   0  0  0  0  0  1  0  0  0  0  0  0
    2.0777    0.6459   -2.9146 H   0  0  0  0  0  0  0  0  0  0  0  0
    1.2734   -0.9252   -2.8962 H   0  0  0  0  0  0  0  0  0  0  0  0
    0.3130    0.5581   -2.9032 H   0  0  0  0  0  0  0  0  0  0  0  0
    0.1949   -0.5637   -0.5178 H   0  0  0  0  0  0  0  0  0  0  0  0
    2.1329   -0.4010   -0.6310 H   0  0  0  0  0  0  0  0  0  0  0  0
    2.0780    2.0891   -0.7501 H   0  0  0  0  0  0  0  0  0  0  0  0
  1  2  1  0
  1  4  1  0
  2  3  2  3
  2 14  1  0
  3  5  1  0
  3  6  1  0
  7  8  1  0
  7 11  1  0
  7 12  1  0
  7 13  1  0
  8  9  2  3
  8 15  1  0
  9 10  1  0
  9 16  1  0
M  RAD  1  10   2
M  END
>  <reaction>  (7) 
rxn_2023

>  <mol_properties>  (7) 
{"0": {"label": "*4", "atom_type": "S2s"}, "1": {"label": "*3", "atom_type": "Cd"}, "7": {"label": "*1", "atom_type": "Cs"}, "8": {"label": "*0", "atom_type": "CS"}, "13": {"label": "*2", "atom_type": "H0"}}

>  <type>  (7) 
unop_3

>  <geom_source>  (7) 
Heuristics

$$$$

     RDKit          3D

 16 14  0  0  0  0  0  0  0  0999 V2000
   -2.0348   -0.7479   -0.2514 S   0  0  0  0  0  0  0  0  0  0  0  0
   -0.5259   -1.4585    0.2823 C   0  0  0  0  0  0  0  0  0  0  0  0
   -0.2752   -2.0859    1.4216 C   0  0  0  0  0  0  0  0  0  0  0  0
   -2.7599   -1.0561    0.8327 H   0  0  0  0  0  0  0  0  0  0  0  0
    0.7132   -2.4783    1.6204 H   0  0  0  0  0  0  0  0  0  0  0  0
   -1.0309   -2.2292    2.1844 H   0  0  0  0  0  0  0  0  0  0  0  0
    1.5243   -0.1430   -2.1838 C   0  0  0  0  0  0  0  0  0  0  0  0
    1.5243   -0.1430   -0.6527 C   0  0  0  0  0  0  0  0  0  0  0  0
    1.5243    1.2451   -0.1060 C   0  0  0  0  0  0  0  0  0  0  0  0
    0.4047    1.9008    0.8415 S   0  0  0  0  0  1  0  0  0  0  0  0
    2.3795    0.4071   -2.5809 H   0  0  0  0  0  0  0  0  0  0  0  0
    1.5751   -1.1640   -2.5624 H   0  0  0  0  0  0  0  0  0  0  0  0
    0.6148    0.3193   -2.5694 H   0  0  0  0  0  0  0  0  0  0  0  0
    0.4966   -0.8024   -0.1841 H   0  0  0  0  0  0  0  0  0  0  0  0
    2.4346   -0.6398   -0.2973 H   0  0  0  0  0  0  0  0  0  0  0  0
    2.3797    1.8504   -0.4164 H   0  0  0  0  0  0  0  0  0  0  0  0
  1  2  1  0
  1  4  1  0
  2  3  2  3
  2 14  1  0
  3  5  1  0
  3  6  1  0
  7  8  1  0
  7 11  1  0
  7 12  1  0
  7 13  1  0
  8  9  2  3
  8 15  1  0
  9 10  1  0
  9 16  1  0
M  RAD  1  10   2
M  END
>  <reaction>  (8) 
rxn_2023

>  <mol_properties>  (8) 
{"0": {"label": "*4", "atom_type": "S2s"}, "1": {"label": "*3", "atom_type": "Cd"}, "7": {"label": "*1", "atom_type": "Cs"}, "8": {"label": "*0", "atom_type": "CS"}, "13": {"label": "*2", "atom_type": "H0"}}

>  <type>  (8) 
unop_4

>  <geom_source>  (8) 
Heuristics

$$$$

     RDKit          3D

 16 14  0  0  0  0  0  0  0  0999 V2000
   -0.7772   -1.2905    1.6934 S   0  0  0  0  0  0  0  0  0  0  0  0
   -0.7694   -1.2855   -0.0577 C   0  0  0  0  0  0  0  0  0  0  0  0
   -1.6427   -1.8459   -0.8811 C   0  0  0  0  0  0  0  0  0  0  0  0
   -1.8968   -2.0089    1.8558 H   0  0  0  0  0  0  0  0  0  0  0  0
   -1.5121   -1.7621   -1.9517 H   0  0  0  0  0  0  0  0  0  0  0  0
   -2.5041   -2.3985   -0.5259 H   0  0  0  0  0  0  0  0  0  0  0  0
    1.2808    0.0299   -2.5238 C   0  0  0  0  0  0  0  0  0  0  0  0
    1.2808    0.0299   -0.9927 C   0  0  0  0  0  0  0  0  0  0  0  0
    1.2808    1.4181   -0.4460 C   0  0  0  0  0  0  0  0  0  0  0  0
    0.1613    2.0738    0.5015 S   0  0  0  0  0  1  0  0  0  0  0  0
    2.1360    0.5801   -2.9209 H   0  0  0  0  0  0  0  0  0  0  0  0
    1.3317   -0.9910   -2.9024 H   0  0  0  0  0  0  0  0  0  0  0  0
    0.3713    0.4923   -2.9094 H   0  0  0  0  0  0  0  0  0  0  0  0
    0.2532   -0.6294   -0.5240 H   0  0  0  0  0  0  0  0  0  0  0  0
    2.1912   -0.4668   -0.6373 H   0  0  0  0  0  0  0  0  0  0  0  0
    2.1363    2.0234   -0.7563 H   0  0  0  0  0  0  0  0  0  0  0  0
  1  2  1  0
  1  4  1  0
  2  3  2  3
  2 14  1  0
  3  5  1  0
  3  6  1  0
  7  8  1  0
  7 11  1  0
  7 12  1  0
  7 13  1  0
  8  9  2  3
  8 15  1  0
  9 10  1  0
  9 16  1  0
M  RAD  1  10   2
M  END
>  <reaction>  (9) 
rxn_2023

>  <mol_properties>  (9) 
{"0": {"label": "*4", "atom_type": "S2s"}, "1": {"label": "*3", "atom_type": "Cd"}, "7": {"label": "*1", "atom_type": "Cs"}, "8": {"label": "*0", "atom_type": "CS"}, "13": {"label": "*2", "atom_type": "H0"}}

>  <type>  (9) 
unop_5

>  <geom_source>  (9) 
Heuristics

$$$$

     RDKit          3D

 16 14  0  0  0  0  0  0  0  0999 V2000
   -1.9590   -0.4490    0.3610 S   0  0  0  0  0  0  0  0  0  0  0  0
   -0.5782   -1.5014    0.1330 C   0  0  0  0  0  0  0  0  0  0  0  0
   -0.1640   -2.4880    0.9139 C   0  0  0  0  0  0  0  0  0  0  0  0
   -2.3871   -0.9787    1.5151 H   0  0  0  0  0  0  0  0  0  0  0  0
    0.7140   -3.0609    0.6471 H   0  0  0  0  0  0  0  0  0  0  0  0
   -0.6747   -2.7567    1.8308 H   0  0  0  0  0  0  0  0  0  0  0  0
    1.4721   -0.1860   -2.3330 C   0  0  0  0  0  0  0  0  0  0  0  0
    1.4721   -0.1860   -0.8019 C   0  0  0  0  0  0  0  0  0  0  0  0
    1.4721    1.2022   -0.2553 C   0  0  0  0  0  0  0  0  0  0  0  0
    0.3525    1.8579    0.6923 S   0  0  0  0  0  1  0  0  0  0  0  0
    2.3273    0.3642   -2.7301 H   0  0  0  0  0  0  0  0  0  0  0  0
    1.5229   -1.2069   -2.7117 H   0  0  0  0  0  0  0  0  0  0  0  0
    0.5626    0.2764   -2.7187 H   0  0  0  0  0  0  0  0  0  0  0  0
    0.4444   -0.8453   -0.3333 H   0  0  0  0  0  0  0  0  0  0  0  0
    2.3824   -0.6827   -0.4465 H   0  0  0  0  0  0  0  0  0  0  0  0
    2.3275    1.8075   -0.5656 H   0  0  0  0  0  0  0  0  0  0  0  0
  1  2  1  0
  1  4  1  0
  2  3  2  3
  2 14  1  0
  3  5  1  0
  3  6  1  0
  7  8  1  0
  7 11  1  0
  7 12  1  0
  7 13  1  0
  8  9  2  3
  8 15  1  0
  9 10  1  0
  9 16  1  0
M  RAD  1  10   2
M  END
>  <reaction>  (10) 
rxn_2023

>  <mol_properties>  (10) 
{"0": {"label": "*4", "atom_type": "S2s"}, "1": {"label": "*3", "atom_type": "Cd"}, "7": {"label": "*1", "atom_type": "Cs"}, "8": {"label": "*0", "atom_type": "CS"}, "13": {"label": "*2", "atom_type": "H0"}}

>  <type>  (10) 
unop_6

>  <geom_source>  (10) 
Heuristics

$$$$

     RDKit          3D

 16 14  0  0  0  0  0  0  0  0999 V2000
   -1.6779   -0.4349    0.9990 S   0  0  0  0  0  0  0  0  0  0  0  0
   -0.6611   -1.4612    0.0095 C   0  0  0  0  0  0  0  0  0  0  0  0
   -0.3224   -2.7243    0.2203 C   0  0  0  0  0  0  0  0  0  0  0  0
   -1.9501   -1.3355    1.9534 H   0  0  0  0  0  0  0  0  0  0  0  0
    0.3193   -3.2399   -0.4817 H   0  0  0  0  0  0  0  0  0  0  0  0
   -0.6653   -3.2814    1.0838 H   0  0  0  0  0  0  0  0  0  0  0  0
    1.3891   -0.1458   -2.4566 C   0  0  0  0  0  0  0  0  0  0  0  0
    1.3891   -0.1458   -0.9255 C   0  0  0  0  0  0  0  0  0  0  0  0
    1.3891    1.2424   -0.3788 C   0  0  0  0  0  0  0  0  0  0  0  0
    0.2695    1.8981    0.5687 S   0  0  0  0  0  1  0  0  0  0  0  0
    2.2443    0.4044   -2.8537 H   0  0  0  0  0  0  0  0  0  0  0  0
    1.4399   -1.1667   -2.8352 H   0  0  0  0  0  0  0  0  0  0  0  0
    0.4796    0.3166   -2.8422 H   0  0  0  0  0  0  0  0  0  0  0  0
    0.3614   -0.8051   -0.4568 H   0  0  0  0  0  0  0  0  0  0  0  0
    2.2994   -0.6425   -0.5701 H   0  0  0  0  0  0  0  0  0  0  0  0
    2.2445    1.8477   -0.6891 H   0  0  0  0  0  0  0  0  0  0  0  0
  1  2  1  0
  1  4  1  0
  2  3  2  3
  2 14  1  0
  3  5  1  0
  3  6  1  0
  7  8  1  0
  7 11  1  0
  7 12  1  0
  7 13  1  0
  8  9  2  3
  8 15  1  0
  9 10  1  0
  9 16  1  0
M  RAD  1  10   2
M  END
>  <reaction>  (11) 
rxn_2023

>  <mol_properties>  (11) 
{"0": {"label": "*4", "atom_type": "S2s"}, "1": {"label": "*3", "atom_type": "Cd"}, "7": {"label": "*1", "atom_type": "Cs"}, "8": {"label": "*0", "atom_type": "CS"}, "13": {"label": "*2", "atom_type": "H0"}}

>  <type>  (11) 
unop_7

>  <geom_source>  (11) 
Heuristics

$$$$

     RDKit          3D

 16 14  0  0  0  0  0  0  0  0999 V2000
   -0.5047   -2.7156    0.3610 S   0  0  0  0  0  0  0  0  0  0  0  0
   -0.8859   -1.0217    0.1330 C   0  0  0  0  0  0  0  0  0  0  0  0
   -1.6102   -0.2341    0.9139 C   0  0  0  0  0  0  0  0  0  0  0  0
   -1.1647   -2.8839    1.5151 H   0  0  0  0  0  0  0  0  0  0  0  0
   -1.7650    0.8028    0.6471 H   0  0  0  0  0  0  0  0  0  0  0  0
   -2.0672   -0.5863    1.8308 H   0  0  0  0  0  0  0  0  0  0  0  0
    1.1643    0.2937   -2.3330 C   0  0  0  0  0  0  0  0  0  0  0  0
    1.1643    0.2937   -0.8019 C   0  0  0  0  0  0  0  0  0  0  0  0
    1.1643    1.6819   -0.2553 C   0  0  0  0  0  0  0  0  0  0  0  0
    0.0448    2.3376    0.6923 S   0  0  0  0  0  1  0  0  0  0  0  0
    2.0195    0.8439   -2.7301 H   0  0  0  0  0  0  0  0  0  0  0  0
    1.2151   -0.7272   -2.7117 H   0  0  0  0  0  0  0  0  0  0  0  0
    0.2548    0.7561   -2.7187 H   0  0  0  0  0  0  0  0  0  0  0  0
    0.1366   -0.3657   -0.3333 H   0  0  0  0  0  0  0  0  0  0  0  0
    2.0746   -0.2030   -0.4465 H   0  0  0  0  0  0  0  0  0  0  0  0
    2.0197    2.2872   -0.5656 H   0  0  0  0  0  0  0  0  0  0  0  0
  1  2  1  0
  1  4  1  0
  2  3  2  3
  2 14  1  0
  3  5  1  0
  3  6  1  0
  7  8  1  0
  7 11  1  0
  7 12  1  0
  7 13  1  0
  8  9  2  3
  8 15  1  0
  9 10  1  0
  9 16  1  0
M  RAD  1  10   2
M  END
>  <reaction>  (12) 
rxn_2023

>  <mol_properties>  (12) 
{"0": {"label": "*4", "atom_type": "S2s"}, "1": {"label": "*3", "atom_type": "Cd"}, "7": {"label": "*1", "atom_type": "Cs"}, "8": {"label": "*0", "atom_type": "CS"}, "13": {"label": "*2", "atom_type": "H0"}}

>  <type>  (12) 
unop_8

>  <geom_source>  (12) 
Heuristics

$$$$

     RDKit          3D

 16 14  0  0  0  0  0  0  0  0999 V2000
   -1.8982   -1.2455   -0.6851 S   0  0  0  0  0  0  0  0  0  0  0  0
   -0.5317   -1.3379    0.4060 C   0  0  0  0  0  0  0  0  0  0  0  0
   -0.5301   -1.6696    1.6884 C   0  0  0  0  0  0  0  0  0  0  0  0
   -2.8426   -1.6046    0.1953 H   0  0  0  0  0  0  0  0  0  0  0  0
    0.3974   -1.6848    2.2451 H   0  0  0  0  0  0  0  0  0  0  0  0
   -1.4356   -1.9335    2.2214 H   0  0  0  0  0  0  0  0  0  0  0  0
    1.5185   -0.0225   -2.0601 C   0  0  0  0  0  0  0  0  0  0  0  0
    1.5185   -0.0225   -0.5290 C   0  0  0  0  0  0  0  0  0  0  0  0
    1.5185    1.3657    0.0177 C   0  0  0  0  0  0  0  0  0  0  0  0
    0.3989    2.0214    0.9652 S   0  0  0  0  0  1  0  0  0  0  0  0
    2.3737    0.5277   -2.4572 H   0  0  0  0  0  0  0  0  0  0  0  0
    1.5693   -1.0434   -2.4387 H   0  0  0  0  0  0  0  0  0  0  0  0
    0.6090    0.4399   -2.4457 H   0  0  0  0  0  0  0  0  0  0  0  0
    0.4908   -0.6819   -0.0603 H   0  0  0  0  0  0  0  0  0  0  0  0
    2.4288   -0.5192   -0.1736 H   0  0  0  0  0  0  0  0  0  0  0  0
    2.3739    1.9709   -0.2926 H   0  0  0  0  0  0  0  0  0  0  0  0
  1  2  1  0
  1  4  1  0
  2  3  2  3
  2 14  1  0
  3  5  1  0
  3  6  1  0
  7  8  1  0
  7 11  1  0
  7 12  1  0
  7 13  1  0
  8  9  2  3
  8 15  1  0
  9 10  1  0
  9 16  1  0
M  RAD  1  10   2
M  END
>  <reaction>  (13) 
rxn_2023

>  <mol_properties>  (13) 
{"0": {"label": "*4", "atom_type": "S2s"}, "1": {"label": "*3", "atom_type": "Cd"}, "7": {"label": "*1", "atom_type": "Cs"}, "8": {"label": "*0", "atom_type": "CS"}, "13": {"label": "*2", "atom_type": "H0"}}

>  <type>  (13) 
unop_9

>  <geom_source>  (13) 
Heuristics

$$$$

     RDKit          3D

 16 14  0  0  0  0  0  0  0  0999 V2000
   -0.8080   -2.6599   -0.2514 S   0  0  0  0  0  0  0  0  0  0  0  0
   -0.8252   -0.9922    0.2823 C   0  0  0  0  0  0  0  0  0  0  0  0
   -1.2909   -0.5027    1.4216 C   0  0  0  0  0  0  0  0  0  0  0  0
   -1.3904   -3.1906    0.8327 H   0  0  0  0  0  0  0  0  0  0  0  0
   -1.2357    0.5593    1.6204 H   0  0  0  0  0  0  0  0  0  0  0  0
   -1.7362   -1.1299    2.1844 H   0  0  0  0  0  0  0  0  0  0  0  0
    1.2251    0.3233   -2.1838 C   0  0  0  0  0  0  0  0  0  0  0  0
    1.2251    0.3233   -0.6527 C   0  0  0  0  0  0  0  0  0  0  0  0
    1.2251    1.7115   -0.1060 C   0  0  0  0  0  0  0  0  0  0  0  0
    0.1055    2.3672    0.8415 S   0  0  0  0  0  1  0  0  0  0  0  0
    2.0803    0.8735   -2.5809 H   0  0  0  0  0  0  0  0  0  0  0  0
    1.2759   -0.6976   -2.5624 H   0  0  0  0  0  0  0  0  0  0  0  0
    0.3156    0.7857   -2.5694 H   0  0  0  0  0  0  0  0  0  0  0  0
    0.1974   -0.3361   -0.1841 H   0  0  0  0  0  0  0  0  0  0  0  0
    2.1354   -0.1734   -0.2973 H   0  0  0  0  0  0  0  0  0  0  0  0
    2.0805    2.3167   -0.4164 H   0  0  0  0  0  0  0  0  0  0  0  0
  1  2  1  0
  1  4  1  0
  2  3  2  3
  2 14  1  0
  3  5  1  0
  3  6  1  0
  7  8  1  0
  7 11  1  0
  7 12  1  0
  7 13  1  0
  8  9  2  3
  8 15  1  0
  9 10  1  0
  9 16  1  0
M  RAD  1  10   2
M  END
>  <reaction>  (14) 
rxn_2023

>  <mol_properties>  (14) 
{"0": {"label": "*4", "atom_type": "S2s"}, "1": {"label": "*3", "atom_type": "Cd"}, "7": {"label": "*1", "atom_type": "Cs"}, "8": {"label": "*0", "atom_type": "CS"}, "13": {"label": "*2", "atom_type": "H0"}}

>  <type>  (14) 
unop_10

>  <geom_source>  (14) 
Heuristics

$$$$

     RDKit          3D

 16 14  0  0  0  0  0  0  0  0999 V2000
   -1.2481   -0.7267    1.4955 S   0  0  0  0  0  0  0  0  0  0  0  0
   -0.7339   -1.3659   -0.0515 C   0  0  0  0  0  0  0  0  0  0  0  0
   -0.8437   -2.6071   -0.5008 C   0  0  0  0  0  0  0  0  0  0  0  0
   -1.7444   -1.8675    1.9938 H   0  0  0  0  0  0  0  0  0  0  0  0
   -0.4789   -2.8630   -1.4866 H   0  0  0  0  0  0  0  0  0  0  0  0
   -1.2927   -3.3997    0.0855 H   0  0  0  0  0  0  0  0  0  0  0  0
    1.3163   -0.0505   -2.5175 C   0  0  0  0  0  0  0  0  0  0  0  0
    1.3163   -0.0505   -0.9864 C   0  0  0  0  0  0  0  0  0  0  0  0
    1.3163    1.3377   -0.4398 C   0  0  0  0  0  0  0  0  0  0  0  0
    0.1968    1.9934    0.5078 S   0  0  0  0  0  1  0  0  0  0  0  0
    2.1715    0.4997   -2.9146 H   0  0  0  0  0  0  0  0  0  0  0  0
    1.3672   -1.0714   -2.8962 H   0  0  0  0  0  0  0  0  0  0  0  0
    0.4068    0.4119   -2.9032 H   0  0  0  0  0  0  0  0  0  0  0  0
    0.2887   -0.7098   -0.5178 H   0  0  0  0  0  0  0  0  0  0  0  0
    2.2267   -0.5472   -0.6310 H   0  0  0  0  0  0  0  0  0  0  0  0
    2.1718    1.9430   -0.7501 H   0  0  0  0  0  0  0  0  0  0  0  0
  1  2  1  0
  1  4  1  0
  2  3  2  3
  2 14  1  0
  3  5  1  0
  3  6  1  0
  7  8  1  0
  7 11  1  0
  7 12  1  0
  7 13  1  0
  8  9  2  3
  8 15  1  0
  9 10  1  0
  9 16  1  0
M  RAD  1  10   2
M  END
>  <reaction>  (15) 
rxn_2023

>  <mol_properties>  (15) 
{"0": {"label": "*4", "atom_type": "S2s"}, "1": {"label": "*3", "atom_type": "Cd"}, "7": {"label": "*1", "atom_type": "Cs"}, "8": {"label": "*0", "atom_type": "CS"}, "13": {"label": "*2", "atom_type": "H0"}}

>  <type>  (15) 
unop_11

>  <geom_source>  (15) 
Heuristics

$$$$

     RDKit          3D

 16 14  0  0  0  0  0  0  0  0999 V2000
   -1.5957   -1.8157   -0.8404 S   0  0  0  0  0  0  0  0  0  0  0  0
   -0.6038   -1.1793    0.4547 C   0  0  0  0  0  0  0  0  0  0  0  0
   -0.7892   -1.2982    1.7609 C   0  0  0  0  0  0  0  0  0  0  0  0
   -2.5193   -2.4083   -0.0711 H   0  0  0  0  0  0  0  0  0  0  0  0
   -0.0892   -0.8491    2.4528 H   0  0  0  0  0  0  0  0  0  0  0  0
   -1.6294   -1.8373    2.1818 H   0  0  0  0  0  0  0  0  0  0  0  0
    1.4464    0.1361   -2.0113 C   0  0  0  0  0  0  0  0  0  0  0  0
    1.4464    0.1361   -0.4802 C   0  0  0  0  0  0  0  0  0  0  0  0
    1.4464    1.5243    0.0665 C   0  0  0  0  0  0  0  0  0  0  0  0
    0.3268    2.1800    1.0140 S   0  0  0  0  0  1  0  0  0  0  0  0
    2.3016    0.6863   -2.4084 H   0  0  0  0  0  0  0  0  0  0  0  0
    1.4972   -0.8848   -2.3900 H   0  0  0  0  0  0  0  0  0  0  0  0
    0.5369    0.5985   -2.3970 H   0  0  0  0  0  0  0  0  0  0  0  0
    0.4187   -0.5232   -0.0116 H   0  0  0  0  0  0  0  0  0  0  0  0
    2.3567   -0.3606   -0.1248 H   0  0  0  0  0  0  0  0  0  0  0  0
    2.3018    2.1296   -0.2439 H   0  0  0  0  0  0  0  0  0  0  0  0
  1  2  1  0
  1  4  1  0
  2  3  2  3
  2 14  1  0
  3  5  1  0
  3  6  1  0
  7  8  1  0
  7 11  1  0
  7 12  1  0
  7 13  1  0
  8  9  2  3
  8 15  1  0
  9 10  1  0
  9 16  1  0
M  RAD  1  10   2
M  END
>  <reaction>  (16) 
rxn_2023

>  <mol_properties>  (16) 
{"0": {"label": "*4", "atom_type": "S2s"}, "1": {"label": "*3", "atom_type": "Cd"}, "7": {"label": "*1", "atom_type": "Cs"}, "8": {"label": "*0", "atom_type": "CS"}, "13": {"label": "*2", "atom_type": "H0"}}

>  <type>  (16) 
unop_12

>  <geom_source>  (16) 
Heuristics

$$$$

     RDKit          3D

 16 14  0  0  0  0  0  0  0  0999 V2000
    2.4964    1.4972    0.4413 S   0  0  0  0  0  0  0  0  0  0  0  0
   -1.1194    2.6867   -0.5696 S   0  0  0  0  0  1  0  0  0  0  0  0
   -1.6030   -0.9729    0.4910 C   0  0  0  0  0  0  0  0  0  0  0  0
   -1.0244    0.1578   -0.3498 C   0  0  0  0  0  0  0  0  0  0  0  0
    1.5702    0.0743   -0.1314 C   0  0  0  0  0  0  0  0  0  0  0  0
   -1.6487    1.4777   -0.0081 C   0  0  0  0  0  0  0  0  0  0  0  0
    2.1721   -0.8958   -0.8173 C   0  0  0  0  0  0  0  0  0  0  0  0
   -2.6927   -1.0770    0.3012 H   0  0  0  0  0  0  0  0  0  0  0  0
   -1.0990   -1.9246    0.2226 H   0  0  0  0  0  0  0  0  0  0  0  0
   -1.4315   -0.7724    1.5698 H   0  0  0  0  0  0  0  0  0  0  0  0
   -1.1701   -0.0659   -1.4293 H   0  0  0  0  0  0  0  0  0  0  0  0
    0.3767   -0.0016    0.1108 H   0  0  0  0  0  0  0  0  0  0  0  0
    1.6007   -1.7521   -1.1591 H   0  0  0  0  0  0  0  0  0  0  0  0
    3.2330   -0.8422   -1.0405 H   0  0  0  0  0  0  0  0  0  0  0  0
   -2.4657    1.5394    0.7049 H   0  0  0  0  0  0  0  0  0  0  0  0
    2.8055    0.8713    1.6635 H   0  0  0  0  0  0  0  0  0  0  0  0
  1  5  1  0
  1 16  1  0
  2  6  1  0
  3  4  1  0
  3  8  1  0
  3  9  1  0
  3 10  1  0
  4  6  2  3
  4 11  1  0
  5  7  2  3
  5 12  1  0
  6 15  1  0
  7 13  1  0
  7 14  1  0
M  RAD  1   2   2
M  END
>  <reaction>  (17) 
rxn_2023

>  <mol_properties>  (17) 
{"0": {"label": "*4", "atom_type": "S2s"}, "1": {"label": "*3", "atom_type": "Cd"}, "7": {"label": "*1", "atom_type": "Cs"}, "8": {"label": "*0", "atom_type": "CS"}, "13": {"label": "*2", "atom_type": "H0"}}

>  <type>  (17) 
unop_13

>  <geom_source>  (17) 
AutoTST

$$$$
