
     RDKit          3D

  9  8  0  0  0  0  0  0  0  0999 V2000
   -2.1022   -0.6873    0.3932 C   0  0  0  0  0  0  0  0  0  0  0  0
   -1.2072   -0.1086   -0.1482 C   0  0  0  0  0  0  0  0  0  0  0  0
   -0.1242    0.6105   -0.8193 C   0  0  0  0  0  0  0  0  0  0  0  0
    1.2067    0.1106   -0.4741 C   0  0  0  0  0  0  0  0  0  0  0  0
    2.3005   -0.2875   -0.2012 C   0  0  0  0  0  0  0  0  0  0  0  0
   -2.8942   -1.2059    0.8778 H   0  0  0  0  0  0  0  0  0  0  0  0
   -0.1862    1.6723   -0.5649 H   0  0  0  0  0  0  0  0  0  0  0  0
   -0.2641    0.5418   -1.9017 H   0  0  0  0  0  0  0  0  0  0  0  0
    3.2709   -0.6459    0.0455 H   0  0  0  0  0  0  0  0  0  0  0  0
  1  2  3  0
  1  6  1  0
  2  3  1  0
  3  4  1  0
  3  7  1  0
  3  8  1  0
  4  5  3  0
  5  9  1  0
M  END
>  <reaction>  (1) 
rxn_1380

>  <mol_properties>  (1) 
{"2": {"label": "donator", "atom_type": "Cs"}, "6": {"label": "d_hydrogen", "atom_type": "H0"}}

>  <type>  (1) 
r1h

$$$$

     RDKit          3D

  7  6  0  0  0  0  0  0  0  0999 V2000
   -2.0652    0.3855   -0.2963 S   0  0  0  0  0  0  0  0  0  0  0  0
   -0.7169   -0.5853    0.1792 C   0  0  0  0  0  3  0  0  0  0  0  0
    0.5987   -0.2168    0.0254 C   0  0  0  0  0  0  0  0  0  0  0  0
    1.7547    0.1211   -0.1163 C   0  0  0  0  0  0  0  0  0  0  0  0
   -1.3643    1.4227   -0.7731 H   0  0  0  0  0  0  0  0  0  0  0  0
   -0.9781   -1.5363    0.6220 H   0  0  0  0  0  0  0  0  0  0  0  0
    2.7711    0.4089   -0.2366 H   0  0  0  0  0  0  0  0  0  0  0  0
  1  2  1  0
  1  5  1  0
  2  3  1  0
  2  6  1  0
  3  4  3  0
  4  7  1  0
M  RAD  1   2   2
M  END
>  <reaction>  (2) 
rxn_1380

>  <mol_properties>  (2) 
{"1": {"label": "acceptor", "atom_type": "Cs"}}

>  <type>  (2) 
r2

$$$$

     RDKit          3D

  8  7  0  0  0  0  0  0  0  0999 V2000
   -0.7014    1.0753    1.5530 S   0  0  0  0  0  0  0  0  0  0  0  0
   -0.3105   -0.4583    0.6462 C   0  0  0  0  0  0  0  0  0  0  0  0
    0.0935   -0.2424   -0.7319 C   0  0  0  0  0  0  0  0  0  0  0  0
    0.4431   -0.0604   -1.8621 C   0  0  0  0  0  0  0  0  0  0  0  0
    0.4994    1.6466    1.3970 H   0  0  0  0  0  0  0  0  0  0  0  0
   -1.2277   -1.0477    0.6819 H   0  0  0  0  0  0  0  0  0  0  0  0
    0.4563   -1.0151    1.1841 H   0  0  0  0  0  0  0  0  0  0  0  0
    0.7474    0.1020   -2.8681 H   0  0  0  0  0  0  0  0  0  0  0  0
  1  2  1  0
  1  5  1  0
  2  3  1  0
  2  6  1  0
  2  7  1  0
  3  4  3  0
  4  8  1  0
M  END
>  <reaction>  (3) 
rxn_1380

>  <mol_properties>  (3) 
{"0": {"label": "a_hydrogen", "atom_type": "H0"}, "2": {"label": "acceptor", "atom_type": "Cs"}}

>  <type>  (3) 
r2h

$$$$

     RDKit          3D

 16 14  0  0  0  0  0  0  0  0999 V2000
   -0.0723   -1.2464   -2.2466 C   0  0  0  0  0  0  0  0  0  0  0  0
   -0.5630   -1.2091   -1.1513 C   0  0  0  0  0  0  0  0  0  0  0  0
   -1.0780   -1.1121    0.1785 C   0  0  0  0  0  0  0  0  0  0  0  0
   -2.4179   -0.6407    0.3428 C   0  0  0  0  0  0  0  0  0  0  0  0
   -3.5181   -0.1960    0.5229 C   0  0  0  0  0  0  0  0  0  0  0  0
    0.3393   -1.3024   -3.2256 H   0  0  0  0  0  0  0  0  0  0  0  0
   -0.3138   -0.1553    0.7292 H   0  0  0  0  0  0  0  0  0  0  0  0
   -0.8207   -1.9594    0.8130 H   0  0  0  0  0  0  0  0  0  0  0  0
   -4.5009    0.1837    0.6667 H   0  0  0  0  0  0  0  0  0  0  0  0
    0.3378    2.1510    0.0032 S   0  0  0  0  0  0  0  0  0  0  0  0
    0.4883    0.8438    1.1898 C   0  0  0  0  0  3  0  0  0  0  0  0
    1.7555    0.2269    1.3678 C   0  0  0  0  0  0  0  0  0  0  0  0
    2.7992   -0.3593    1.4722 C   0  0  0  0  0  0  0  0  0  0  0  0
    1.0568    1.5561   -0.9586 H   0  0  0  0  0  0  0  0  0  0  0  0
   -0.0265    1.1176    2.1082 H   0  0  0  0  0  0  0  0  0  0  0  0
    3.7309   -0.8614    1.5768 H   0  0  0  0  0  0  0  0  0  0  0  0
  1  2  3  0
  1  6  1  0
  2  3  1  0
  3  4  1  0
  3  7  1  0
  3  8  1  0
  4  5  3  0
  5  9  1  0
 10 11  1  0
 10 14  1  0
 11 12  1  0
 11 15  1  0
 12 13  3  0
 13 16  1  0
M  RAD  1  11   2
M  END
>  <reaction>  (4) 
rxn_1380

>  <mol_properties>  (4) 
{"1": {"label": "*0", "atom_type": "Ct"}, "2": {"label": "*1", "atom_type": "Cs"}, "6": {"label": "*2", "atom_type": "H0"}, "9": {"label": "*4", "atom_type": "S2s"}, "10": {"label": "*3", "atom_type": "Cs"}}

>  <type>  (4) 
ts

$$$$

     RDKit          3D

 16 14  0  0  0  0  0  0  0  0999 V2000
   -0.6599   -1.4429   -3.0007 C   0  0  0  0  0  0  0  0  0  0  0  0
   -0.6599   -1.4429   -1.8052 C   0  0  0  0  0  0  0  0  0  0  0  0
   -0.6599   -1.4429   -0.3422 C   0  0  0  0  0  3  0  0  0  0  0  0
   -1.9740   -1.1673    0.2389 C   0  0  0  0  0  0  0  0  0  0  0  0
   -3.0477   -0.9421    0.7138 C   0  0  0  0  0  0  0  0  0  0  0  0
   -0.6599   -1.4429   -4.0642 H   0  0  0  0  0  0  0  0  0  0  0  0
    0.1982   -0.5485    0.0888 H   0  0  0  0  0  0  0  0  0  0  0  0
   -0.3046   -2.4128    0.0170 H   0  0  0  0  0  0  0  0  0  0  0  0
   -4.0029   -0.7418    1.1363 H   0  0  0  0  0  0  0  0  0  0  0  0
    0.0600    1.5120    1.5055 S   0  0  0  0  0  0  0  0  0  0  0  0
    1.0542    0.3437    0.5188 C   0  0  0  0  0  0  0  0  0  0  0  0
    2.3057    0.8974    0.0329 C   0  0  0  0  0  0  0  0  0  0  0  0
    3.3372    1.3539   -0.3675 C   0  0  0  0  0  0  0  0  0  0  0  0
    0.9898    1.7393    2.4418 H   0  0  0  0  0  0  0  0  0  0  0  0
    1.2449   -0.5567    1.1021 H   0  0  0  0  0  0  0  0  0  0  0  0
    4.2537    1.7594   -0.7234 H   0  0  0  0  0  0  0  0  0  0  0  0
  1  2  3  0
  1  6  1  0
  2  3  1  0
  3  4  1  0
  3  8  1  0
  4  5  3  0
  5  9  1  0
  7 11  1  0
 10 11  1  0
 10 14  1  0
 11 12  1  0
 11 15  1  0
 12 13  3  0
 13 16  1  0
M  RAD  1   3   2
M  END
>  <reaction>  (5) 
rxn_1380

>  <mol_properties>  (5) 
{"1": {"label": "*0", "atom_type": "Ct"}, "2": {"label": "*1", "atom_type": "Cs"}, "6": {"label": "*2", "atom_type": "H0"}, "9": {"label": "*4", "atom_type": "S2s"}, "10": {"label": "*3", "atom_type": "Cs"}}

>  <type>  (5) 
unop_1

>  <geom_source>  (5) 
Heuristics

$$$$

     RDKit          3D

 16 14  0  0  0  0  0  0  0  0999 V2000
   -0.9142   -1.2526   -2.7222 C   0  0  0  0  0  0  0  0  0  0  0  0
   -0.9142   -1.2526   -1.5267 C   0  0  0  0  0  0  0  0  0  0  0  0
   -0.9142   -1.2526   -0.0637 C   0  0  0  0  0  3  0  0  0  0  0  0
   -2.2283   -0.9770    0.5175 C   0  0  0  0  0  0  0  0  0  0  0  0
   -3.3020   -0.7517    0.9924 C   0  0  0  0  0  0  0  0  0  0  0  0
   -0.9142   -1.2526   -3.7857 H   0  0  0  0  0  0  0  0  0  0  0  0
   -0.0561   -0.3582    0.3674 H   0  0  0  0  0  0  0  0  0  0  0  0
   -0.5589   -2.2224    0.2955 H   0  0  0  0  0  0  0  0  0  0  0  0
   -4.2572   -0.5514    1.4148 H   0  0  0  0  0  0  0  0  0  0  0  0
    0.8186    1.8263   -0.4898 S   0  0  0  0  0  0  0  0  0  0  0  0
    0.7999    0.5340    0.7973 C   0  0  0  0  0  0  0  0  0  0  0  0
    2.1112    0.2177    1.3353 C   0  0  0  0  0  0  0  0  0  0  0  0
    3.1920   -0.0431    1.7787 C   0  0  0  0  0  0  0  0  0  0  0  0
    1.3736    2.7794    0.2693 H   0  0  0  0  0  0  0  0  0  0  0  0
    0.1269    0.8295    1.6017 H   0  0  0  0  0  0  0  0  0  0  0  0
    4.1523   -0.2747    2.1726 H   0  0  0  0  0  0  0  0  0  0  0  0
  1  2  3  0
  1  6  1  0
  2  3  1  0
  3  4  1  0
  3  8  1  0
  4  5  3  0
  5  9  1  0
  7 11  1  0
 10 11  1  0
 10 14  1  0
 11 12  1  0
 11 15  1  0
 12 13  3  0
 13 16  1  0
M  RAD  1   3   2
M  END
>  <reaction>  (6) 
rxn_1380

>  <mol_properties>  (6) 
{"1": {"label": "*0", "atom_type": "Ct"}, "2": {"label": "*1", "atom_type": "Cs"}, "6": {"label": "*2", "atom_type": "H0"}, "9": {"label": "*4", "atom_type": "S2s"}, "10": {"label": "*3", "atom_type": "Cs"}}

>  <type>  (6) 
unop_2

>  <geom_source>  (6) 
Heuristics

$$$$

     RDKit          3D

 16 14  0  0  0  0  0  0  0  0999 V2000
   -0.5936   -1.4271   -3.0728 C   0  0  0  0  0  0  0  0  0  0  0  0
   -0.5936   -1.4271   -1.8773 C   0  0  0  0  0  0  0  0  0  0  0  0
   -0.5936   -1.4271   -0.4143 C   0  0  0  0  0  3  0  0  0  0  0  0
   -1.9077   -1.1515    0.1668 C   0  0  0  0  0  0  0  0  0  0  0  0
   -2.9814   -0.9263    0.6417 C   0  0  0  0  0  0  0  0  0  0  0  0
   -0.5936   -1.4271   -4.1363 H   0  0  0  0  0  0  0  0  0  0  0  0
    0.2645   -0.5327    0.0167 H   0  0  0  0  0  0  0  0  0  0  0  0
   -0.2383   -2.3970   -0.0551 H   0  0  0  0  0  0  0  0  0  0  0  0
   -3.9366   -0.7260    1.0642 H   0  0  0  0  0  0  0  0  0  0  0  0
    0.4451    0.9283    2.0427 S   0  0  0  0  0  0  0  0  0  0  0  0
    1.1205    0.3595    0.4467 C   0  0  0  0  0  0  0  0  0  0  0  0
    1.8187    1.3909   -0.3001 C   0  0  0  0  0  0  0  0  0  0  0  0
    2.3942    2.2411   -0.9156 C   0  0  0  0  0  0  0  0  0  0  0  0
    1.6141    1.3227    2.5629 H   0  0  0  0  0  0  0  0  0  0  0  0
    1.7785   -0.4932    0.6117 H   0  0  0  0  0  0  0  0  0  0  0  0
    2.9055    2.9964   -1.4624 H   0  0  0  0  0  0  0  0  0  0  0  0
  1  2  3  0
  1  6  1  0
  2  3  1  0
  3  4  1  0
  3  8  1  0
  4  5  3  0
  5  9  1  0
  7 11  1  0
 10 11  1  0
 10 14  1  0
 11 12  1  0
 11 15  1  0
 12 13  3  0
 13 16  1  0
M  RAD  1   3   2
M  END
>  <reaction>  (7) 
rxn_1380

>  <mol_properties>  (7) 
{"1": {"label": "*0", "atom_type": "Ct"}, "2": {"label": "*1", "atom_type": "Cs"}, "6": {"label": "*2", "atom_type": "H0"}, "9": {"label": "*4", "atom_type": "S2s"}, "10": {"label": "*3", "atom_type": "Cs"}}

>  <type>  (7) 
unop_3

>  <geom_source>  (7) 
Heuristics

$$$$

     RDKit          3D

 16 14  0  0  0  0  0  0  0  0999 V2000
   -0.8695   -0.7383   -3.0711 C   0  0  0  0  0  0  0  0  0  0  0  0
   -0.8695   -0.7383   -1.8756 C   0  0  0  0  0  0  0  0  0  0  0  0
   -0.8695   -0.7383   -0.4126 C   0  0  0  0  0  3  0  0  0  0  0  0
   -2.1835   -0.4627    0.1685 C   0  0  0  0  0  0  0  0  0  0  0  0
   -3.2573   -0.2374    0.6434 C   0  0  0  0  0  0  0  0  0  0  0  0
   -0.8695   -0.7383   -4.1346 H   0  0  0  0  0  0  0  0  0  0  0  0
   -0.0113    0.1561    0.0184 H   0  0  0  0  0  0  0  0  0  0  0  0
   -0.5141   -1.7081   -0.0534 H   0  0  0  0  0  0  0  0  0  0  0  0
   -4.2124   -0.0371    1.0659 H   0  0  0  0  0  0  0  0  0  0  0  0
    2.4539    0.5210   -0.2294 S   0  0  0  0  0  0  0  0  0  0  0  0
    0.8447    1.0483    0.4484 C   0  0  0  0  0  0  0  0  0  0  0  0
    0.5289    0.4656    1.7406 C   0  0  0  0  0  0  0  0  0  0  0  0
    0.2687   -0.0148    2.8056 C   0  0  0  0  0  0  0  0  0  0  0  0
    3.1945    0.9607    0.7957 H   0  0  0  0  0  0  0  0  0  0  0  0
    0.8133    2.1357    0.5107 H   0  0  0  0  0  0  0  0  0  0  0  0
    0.0375   -0.4415    3.7518 H   0  0  0  0  0  0  0  0  0  0  0  0
  1  2  3  0
  1  6  1  0
  2  3  1  0
  3  4  1  0
  3  8  1  0
  4  5  3  0
  5  9  1  0
  7 11  1  0
 10 11  1  0
 10 14  1  0
 11 12  1  0
 11 15  1  0
 12 13  3  0
 13 16  1  0
M  RAD  1   3   2
M  END
>  <reaction>  (8) 
rxn_1380

>  <mol_properties>  (8) 
{"1": {"label": "*0", "atom_type": "Ct"}, "2": {"label": "*1", "atom_type": "Cs"}, "6": {"label": "*2", "atom_type": "H0"}, "9": {"label": "*4", "atom_type": "S2s"}, "10": {"label": "*3", "atom_type": "Cs"}}

>  <type>  (8) 
unop_4

>  <geom_source>  (8) 
Heuristics

$$$$

     RDKit          3D

 16 14  0  0  0  0  0  0  0  0999 V2000
   -0.4595   -1.3476   -3.1777 C   0  0  0  0  0  0  0  0  0  0  0  0
   -0.4595   -1.3476   -1.9822 C   0  0  0  0  0  0  0  0  0  0  0  0
   -0.4595   -1.3476   -0.5192 C   0  0  0  0  0  3  0  0  0  0  0  0
   -1.7736   -1.0720    0.0619 C   0  0  0  0  0  0  0  0  0  0  0  0
   -2.8473   -0.8468    0.5368 C   0  0  0  0  0  0  0  0  0  0  0  0
   -0.4595   -1.3476   -4.2412 H   0  0  0  0  0  0  0  0  0  0  0  0
    0.3986   -0.4532   -0.0882 H   0  0  0  0  0  0  0  0  0  0  0  0
   -0.1042   -2.3175   -0.1600 H   0  0  0  0  0  0  0  0  0  0  0  0
   -3.8025   -0.6464    0.9593 H   0  0  0  0  0  0  0  0  0  0  0  0
    1.1614    0.3418    2.1608 S   0  0  0  0  0  0  0  0  0  0  0  0
    1.2546    0.4390    0.3418 C   0  0  0  0  0  0  0  0  0  0  0  0
    0.9280    1.7475   -0.1969 C   0  0  0  0  0  0  0  0  0  0  0  0
    0.6589    2.8260   -0.6409 C   0  0  0  0  0  0  0  0  0  0  0  0
    2.0600    1.3040    2.4040 H   0  0  0  0  0  0  0  0  0  0  0  0
    2.2471    0.1350    0.0103 H   0  0  0  0  0  0  0  0  0  0  0  0
    0.4197    3.7842   -1.0355 H   0  0  0  0  0  0  0  0  0  0  0  0
  1  2  3  0
  1  6  1  0
  2  3  1  0
  3  4  1  0
  3  8  1  0
  4  5  3  0
  5  9  1  0
  7 11  1  0
 10 11  1  0
 10 14  1  0
 11 12  1  0
 11 15  1  0
 12 13  3  0
 13 16  1  0
M  RAD  1   3   2
M  END
>  <reaction>  (9) 
rxn_1380

>  <mol_properties>  (9) 
{"1": {"label": "*0", "atom_type": "Ct"}, "2": {"label": "*1", "atom_type": "Cs"}, "6": {"label": "*2", "atom_type": "H0"}, "9": {"label": "*4", "atom_type": "S2s"}, "10": {"label": "*3", "atom_type": "Cs"}}

>  <type>  (9) 
unop_5

>  <geom_source>  (9) 
Heuristics

$$$$

     RDKit          3D

 16 14  0  0  0  0  0  0  0  0999 V2000
   -0.7064   -0.7600   -3.2312 C   0  0  0  0  0  0  0  0  0  0  0  0
   -0.7064   -0.7600   -2.0357 C   0  0  0  0  0  0  0  0  0  0  0  0
   -0.7064   -0.7600   -0.5727 C   0  0  0  0  0  3  0  0  0  0  0  0
   -2.0204   -0.4844    0.0084 C   0  0  0  0  0  0  0  0  0  0  0  0
   -3.0942   -0.2592    0.4833 C   0  0  0  0  0  0  0  0  0  0  0  0
   -0.7064   -0.7600   -4.2947 H   0  0  0  0  0  0  0  0  0  0  0  0
    0.1517    0.1344   -0.1417 H   0  0  0  0  0  0  0  0  0  0  0  0
   -0.3510   -1.7299   -0.2136 H   0  0  0  0  0  0  0  0  0  0  0  0
   -4.0494   -0.0588    0.9058 H   0  0  0  0  0  0  0  0  0  0  0  0
    2.5869    0.1270    0.4427 S   0  0  0  0  0  0  0  0  0  0  0  0
    1.0077    1.0266    0.2883 C   0  0  0  0  0  0  0  0  0  0  0  0
    0.1186    0.8576    1.4240 C   0  0  0  0  0  0  0  0  0  0  0  0
   -0.6143    0.7182    2.3600 C   0  0  0  0  0  0  0  0  0  0  0  0
    2.9824    0.7210    1.5756 H   0  0  0  0  0  0  0  0  0  0  0  0
    1.2053    2.0852    0.1221 H   0  0  0  0  0  0  0  0  0  0  0  0
   -1.2654    0.5944    3.1917 H   0  0  0  0  0  0  0  0  0  0  0  0
  1  2  3  0
  1  6  1  0
  2  3  1  0
  3  4  1  0
  3  8  1  0
  4  5  3  0
  5  9  1  0
  7 11  1  0
 10 11  1  0
 10 14  1  0
 11 12  1  0
 11 15  1  0
 12 13  3  0
 13 16  1  0
M  RAD  1   3   2
M  END
>  <reaction>  (10) 
rxn_1380

>  <mol_properties>  (10) 
{"1": {"label": "*0", "atom_type": "Ct"}, "2": {"label": "*1", "atom_type": "Cs"}, "6": {"label": "*2", "atom_type": "H0"}, "9": {"label": "*4", "atom_type": "S2s"}, "10": {"label": "*3", "atom_type": "Cs"}}

>  <type>  (10) 
unop_6

>  <geom_source>  (10) 
Heuristics

$$$$

     RDKit          3D

 16 14  0  0  0  0  0  0  0  0999 V2000
   -0.5314   -0.8934   -3.3215 C   0  0  0  0  0  0  0  0  0  0  0  0
   -0.5314   -0.8934   -2.1260 C   0  0  0  0  0  0  0  0  0  0  0  0
   -0.5314   -0.8934   -0.6630 C   0  0  0  0  0  3  0  0  0  0  0  0
   -1.8454   -0.6178   -0.0818 C   0  0  0  0  0  0  0  0  0  0  0  0
   -2.9192   -0.3926    0.3931 C   0  0  0  0  0  0  0  0  0  0  0  0
   -0.5314   -0.8934   -4.3849 H   0  0  0  0  0  0  0  0  0  0  0  0
    0.3267    0.0010   -0.2319 H   0  0  0  0  0  0  0  0  0  0  0  0
   -0.1760   -1.8633   -0.3038 H   0  0  0  0  0  0  0  0  0  0  0  0
   -3.8744   -0.1922    0.8156 H   0  0  0  0  0  0  0  0  0  0  0  0
    2.3912   -0.0518    1.1848 S   0  0  0  0  0  0  0  0  0  0  0  0
    1.1828    0.8932    0.1980 C   0  0  0  0  0  0  0  0  0  0  0  0
   -0.0204    1.2546    0.9266 C   0  0  0  0  0  0  0  0  0  0  0  0
   -1.0121    1.5524    1.5270 C   0  0  0  0  0  0  0  0  0  0  0  0
    2.5535    0.8724    2.1398 H   0  0  0  0  0  0  0  0  0  0  0  0
    1.6590    1.7868   -0.2044 H   0  0  0  0  0  0  0  0  0  0  0  0
   -1.8932    1.8171    2.0605 H   0  0  0  0  0  0  0  0  0  0  0  0
  1  2  3  0
  1  6  1  0
  2  3  1  0
  3  4  1  0
  3  8  1  0
  4  5  3  0
  5  9  1  0
  7 11  1  0
 10 11  1  0
 10 14  1  0
 11 12  1  0
 11 15  1  0
 12 13  3  0
 13 16  1  0
M  RAD  1   3   2
M  END
>  <reaction>  (11) 
rxn_1380

>  <mol_properties>  (11) 
{"1": {"label": "*0", "atom_type": "Ct"}, "2": {"label": "*1", "atom_type": "Cs"}, "6": {"label": "*2", "atom_type": "H0"}, "9": {"label": "*4", "atom_type": "S2s"}, "10": {"label": "*3", "atom_type": "Cs"}}

>  <type>  (11) 
unop_7

>  <geom_source>  (11) 
Heuristics

$$$$

     RDKit          3D

 16 14  0  0  0  0  0  0  0  0999 V2000
   -0.7108   -1.4441   -2.9031 C   0  0  0  0  0  0  0  0  0  0  0  0
   -0.7108   -1.4441   -1.7076 C   0  0  0  0  0  0  0  0  0  0  0  0
   -0.7108   -1.4441   -0.2446 C   0  0  0  0  0  3  0  0  0  0  0  0
   -2.0248   -1.1685    0.3365 C   0  0  0  0  0  0  0  0  0  0  0  0
   -3.0986   -0.9433    0.8114 C   0  0  0  0  0  0  0  0  0  0  0  0
   -0.7108   -1.4441   -3.9666 H   0  0  0  0  0  0  0  0  0  0  0  0
    0.1473   -0.5497    0.1864 H   0  0  0  0  0  0  0  0  0  0  0  0
   -0.3555   -2.4139    0.1146 H   0  0  0  0  0  0  0  0  0  0  0  0
   -4.0538   -0.7429    1.2339 H   0  0  0  0  0  0  0  0  0  0  0  0
    0.0392    1.8831    0.7708 S   0  0  0  0  0  0  0  0  0  0  0  0
    1.0033    0.3425    0.6164 C   0  0  0  0  0  0  0  0  0  0  0  0
    2.4365    0.5513    0.5099 C   0  0  0  0  0  0  0  0  0  0  0  0
    3.6178    0.7234    0.4221 C   0  0  0  0  0  0  0  0  0  0  0  0
    0.6406    2.3199    1.8844 H   0  0  0  0  0  0  0  0  0  0  0  0
    0.7822   -0.3126    1.4585 H   0  0  0  0  0  0  0  0  0  0  0  0
    4.6674    0.8762    0.3441 H   0  0  0  0  0  0  0  0  0  0  0  0
  1  2  3  0
  1  6  1  0
  2  3  1  0
  3  4  1  0
  3  8  1  0
  4  5  3  0
  5  9  1  0
  7 11  1  0
 10 11  1  0
 10 14  1  0
 11 12  1  0
 11 15  1  0
 12 13  3  0
 13 16  1  0
M  RAD  1   3   2
M  END
>  <reaction>  (12) 
rxn_1380

>  <mol_properties>  (12) 
{"1": {"label": "*0", "atom_type": "Ct"}, "2": {"label": "*1", "atom_type": "Cs"}, "6": {"label": "*2", "atom_type": "H0"}, "9": {"label": "*4", "atom_type": "S2s"}, "10": {"label": "*3", "atom_type": "Cs"}}

>  <type>  (12) 
unop_8

>  <geom_source>  (12) 
Heuristics

$$$$

     RDKit          3D

 16 14  0  0  0  0  0  0  0  0999 V2000
   -0.9794   -0.8366   -2.8907 C   0  0  0  0  0  0  0  0  0  0  0  0
   -0.9794   -0.8366   -1.6952 C   0  0  0  0  0  0  0  0  0  0  0  0
   -0.9794   -0.8366   -0.2322 C   0  0  0  0  0  3  0  0  0  0  0  0
   -2.2934   -0.5610    0.3490 C   0  0  0  0  0  0  0  0  0  0  0  0
   -3.3672   -0.3357    0.8239 C   0  0  0  0  0  0  0  0  0  0  0  0
   -0.9794   -0.8366   -3.9542 H   0  0  0  0  0  0  0  0  0  0  0  0
   -0.1213    0.0578    0.1989 H   0  0  0  0  0  0  0  0  0  0  0  0
   -0.6240   -1.8064    0.1270 H   0  0  0  0  0  0  0  0  0  0  0  0
   -4.3224   -0.1354    1.2463 H   0  0  0  0  0  0  0  0  0  0  0  0
    2.0252    1.0222   -0.6583 S   0  0  0  0  0  0  0  0  0  0  0  0
    0.7347    0.9500    0.6288 C   0  0  0  0  0  0  0  0  0  0  0  0
    1.1159    0.1878    1.8047 C   0  0  0  0  0  0  0  0  0  0  0  0
    1.4301   -0.4404    2.7739 C   0  0  0  0  0  0  0  0  0  0  0  0
    2.9661    1.5842    0.1107 H   0  0  0  0  0  0  0  0  0  0  0  0
    0.4478    1.9614    0.9154 H   0  0  0  0  0  0  0  0  0  0  0  0
    1.7092   -0.9986    3.6351 H   0  0  0  0  0  0  0  0  0  0  0  0
  1  2  3  0
  1  6  1  0
  2  3  1  0
  3  4  1  0
  3  8  1  0
  4  5  3  0
  5  9  1  0
  7 11  1  0
 10 11  1  0
 10 14  1  0
 11 12  1  0
 11 15  1  0
 12 13  3  0
 13 16  1  0
M  RAD  1   3   2
M  END
>  <reaction>  (13) 
rxn_1380

>  <mol_properties>  (13) 
{"1": {"label": "*0", "atom_type": "Ct"}, "2": {"label": "*1", "atom_type": "Cs"}, "6": {"label": "*2", "atom_type": "H0"}, "9": {"label": "*4", "atom_type": "S2s"}, "10": {"label": "*3", "atom_type": "Cs"}}

>  <type>  (13) 
unop_9

>  <geom_source>  (13) 
Heuristics

$$$$

     RDKit          3D

 16 14  0  0  0  0  0  0  0  0999 V2000
   -0.7976   -1.3930   -2.7919 C   0  0  0  0  0  0  0  0  0  0  0  0
   -0.7976   -1.3930   -1.5964 C   0  0  0  0  0  0  0  0  0  0  0  0
   -0.7976   -1.3930   -0.1334 C   0  0  0  0  0  3  0  0  0  0  0  0
   -2.1116   -1.1174    0.4478 C   0  0  0  0  0  0  0  0  0  0  0  0
   -3.1854   -0.8921    0.9227 C   0  0  0  0  0  0  0  0  0  0  0  0
   -0.7976   -1.3930   -3.8554 H   0  0  0  0  0  0  0  0  0  0  0  0
    0.0605   -0.4986    0.2976 H   0  0  0  0  0  0  0  0  0  0  0  0
   -0.4422   -2.3628    0.2258 H   0  0  0  0  0  0  0  0  0  0  0  0
   -4.1406   -0.6918    1.3451 H   0  0  0  0  0  0  0  0  0  0  0  0
    0.3231    1.9797    0.0498 S   0  0  0  0  0  0  0  0  0  0  0  0
    0.9165    0.3936    0.7276 C   0  0  0  0  0  0  0  0  0  0  0  0
    2.3490    0.3512    0.9627 C   0  0  0  0  0  0  0  0  0  0  0  0
    3.5297    0.3162    1.1564 C   0  0  0  0  0  0  0  0  0  0  0  0
    0.7628    2.7424    1.0585 H   0  0  0  0  0  0  0  0  0  0  0  0
    0.3795    0.1661    1.6480 H   0  0  0  0  0  0  0  0  0  0  0  0
    4.5787    0.2852    1.3285 H   0  0  0  0  0  0  0  0  0  0  0  0
  1  2  3  0
  1  6  1  0
  2  3  1  0
  3  4  1  0
  3  8  1  0
  4  5  3  0
  5  9  1  0
  7 11  1  0
 10 11  1  0
 10 14  1  0
 11 12  1  0
 11 15  1  0
 12 13  3  0
 13 16  1  0
M  RAD  1   3   2
M  END
>  <reaction>  (14) 
rxn_1380

>  <mol_properties>  (14) 
{"1": {"label": "*0", "atom_type": "Ct"}, "2": {"label": "*1", "atom_type": "Cs"}, "6": {"label": "*2", "atom_type": "H0"}, "9": {"label": "*4", "atom_type": "S2s"}, "10": {"label": "*3", "atom_type": "Cs"}}

>  <type>  (14) 
unop_10

>  <geom_source>  (14) 
Heuristics

$$$$

     RDKit          3D

 16 14  0  0  0  0  0  0  0  0999 V2000
   -0.4132   -1.1199   -3.3018 C   0  0  0  0  0  0  0  0  0  0  0  0
   -0.4132   -1.1199   -2.1063 C   0  0  0  0  0  0  0  0  0  0  0  0
   -0.4132   -1.1199   -0.6433 C   0  0  0  0  0  3  0  0  0  0  0  0
   -1.7272   -0.8443   -0.0621 C   0  0  0  0  0  0  0  0  0  0  0  0
   -2.8010   -0.6191    0.4128 C   0  0  0  0  0  0  0  0  0  0  0  0
   -0.4132   -1.1199   -4.3653 H   0  0  0  0  0  0  0  0  0  0  0  0
    0.4449   -0.2256   -0.2123 H   0  0  0  0  0  0  0  0  0  0  0  0
   -0.0578   -2.0898   -0.2841 H   0  0  0  0  0  0  0  0  0  0  0  0
   -3.7562   -0.4188    0.8352 H   0  0  0  0  0  0  0  0  0  0  0  0
    1.8973    0.0154    1.8137 S   0  0  0  0  0  0  0  0  0  0  0  0
    1.3010    0.6667    0.2177 C   0  0  0  0  0  0  0  0  0  0  0  0
    0.1999    1.6059    0.3378 C   0  0  0  0  0  0  0  0  0  0  0  0
   -0.7076    2.3801    0.4368 C   0  0  0  0  0  0  0  0  0  0  0  0
    2.2104    1.2027    2.3473 H   0  0  0  0  0  0  0  0  0  0  0  0
    2.1286    1.1273   -0.3209 H   0  0  0  0  0  0  0  0  0  0  0  0
   -1.5139    3.0680    0.5247 H   0  0  0  0  0  0  0  0  0  0  0  0
  1  2  3  0
  1  6  1  0
  2  3  1  0
  3  4  1  0
  3  8  1  0
  4  5  3  0
  5  9  1  0
  7 11  1  0
 10 11  1  0
 10 14  1  0
 11 12  1  0
 11 15  1  0
 12 13  3  0
 13 16  1  0
M  RAD  1   3   2
M  END
>  <reaction>  (15) 
rxn_1380

>  <mol_properties>  (15) 
{"1": {"label": "*0", "atom_type": "Ct"}, "2": {"label": "*1", "atom_type": "Cs"}, "6": {"label": "*2", "atom_type": "H0"}, "9": {"label": "*4", "atom_type": "S2s"}, "10": {"label": "*3", "atom_type": "Cs"}}

>  <type>  (15) 
unop_11

>  <geom_source>  (15) 
Heuristics

$$$$

     RDKit          3D

 16 14  0  0  0  0  0  0  0  0999 V2000
   -0.9967   -1.0365   -2.7539 C   0  0  0  0  0  0  0  0  0  0  0  0
   -0.9967   -1.0365   -1.5585 C   0  0  0  0  0  0  0  0  0  0  0  0
   -0.9967   -1.0365   -0.0955 C   0  0  0  0  0  3  0  0  0  0  0  0
   -2.3107   -0.7608    0.4857 C   0  0  0  0  0  0  0  0  0  0  0  0
   -3.3845   -0.5356    0.9606 C   0  0  0  0  0  0  0  0  0  0  0  0
   -0.9967   -1.0365   -3.8174 H   0  0  0  0  0  0  0  0  0  0  0  0
   -0.1386   -0.1421    0.3356 H   0  0  0  0  0  0  0  0  0  0  0  0
   -0.6414   -2.0063    0.2637 H   0  0  0  0  0  0  0  0  0  0  0  0
   -4.3397   -0.3353    1.3831 H   0  0  0  0  0  0  0  0  0  0  0  0
    1.4257    1.4884   -0.7446 S   0  0  0  0  0  0  0  0  0  0  0  0
    0.7174    0.7501    0.7656 C   0  0  0  0  0  0  0  0  0  0  0  0
    1.6996    0.1250    1.6336 C   0  0  0  0  0  0  0  0  0  0  0  0
    2.5092   -0.3903    2.3490 C   0  0  0  0  0  0  0  0  0  0  0  0
    2.2577    2.3300   -0.1184 H   0  0  0  0  0  0  0  0  0  0  0  0
    0.1603    1.5079    1.3157 H   0  0  0  0  0  0  0  0  0  0  0  0
    3.2284   -0.8481    2.9847 H   0  0  0  0  0  0  0  0  0  0  0  0
  1  2  3  0
  1  6  1  0
  2  3  1  0
  3  4  1  0
  3  8  1  0
  4  5  3  0
  5  9  1  0
  7 11  1  0
 10 11  1  0
 10 14  1  0
 11 12  1  0
 11 15  1  0
 12 13  3  0
 13 16  1  0
M  RAD  1   3   2
M  END
>  <reaction>  (16) 
rxn_1380

>  <mol_properties>  (16) 
{"1": {"label": "*0", "atom_type": "Ct"}, "2": {"label": "*1", "atom_type": "Cs"}, "6": {"label": "*2", "atom_type": "H0"}, "9": {"label": "*4", "atom_type": "S2s"}, "10": {"label": "*3", "atom_type": "Cs"}}

>  <type>  (16) 
unop_12

>  <geom_source>  (16) 
Heuristics

$$$$

     RDKit          3D

 16 14  0  0  0  0  0  0  0  0999 V2000
    2.3750   -0.9346   -1.3301 S   0  0  0  0  0  0  0  0  0  0  0  0
    1.5611    0.4786   -0.5307 C   0  0  0  0  0  0  0  0  0  0  0  0
   -0.8959   -0.2019    0.1346 C   0  0  0  0  0  3  0  0  0  0  0  0
    2.0684    0.6367    0.8336 C   0  0  0  0  0  0  0  0  0  0  0  0
   -1.4677   -1.2277   -0.7398 C   0  0  0  0  0  0  0  0  0  0  0  0
   -1.8451    0.9023    0.2885 C   0  0  0  0  0  0  0  0  0  0  0  0
    2.4850    0.7674    1.9573 C   0  0  0  0  0  0  0  0  0  0  0  0
   -1.9368   -2.0735   -1.4598 C   0  0  0  0  0  0  0  0  0  0  0  0
   -2.6253    1.8127    0.4163 C   0  0  0  0  0  0  0  0  0  0  0  0
    1.7746    1.4003   -1.1102 H   0  0  0  0  0  0  0  0  0  0  0  0
    0.2317    0.2732   -0.4956 H   0  0  0  0  0  0  0  0  0  0  0  0
   -0.6766   -0.6430    1.1288 H   0  0  0  0  0  0  0  0  0  0  0  0
    1.7598   -1.8682   -0.4737 H   0  0  0  0  0  0  0  0  0  0  0  0
    2.8507    0.8820    2.9438 H   0  0  0  0  0  0  0  0  0  0  0  0
   -2.3487   -2.8158   -2.0917 H   0  0  0  0  0  0  0  0  0  0  0  0
   -3.3103    2.6116    0.5284 H   0  0  0  0  0  0  0  0  0  0  0  0
  1  2  1  0
  1 13  1  0
  2  4  1  0
  2 10  1  0
  2 11  1  0
  3  5  1  0
  3  6  1  0
  3 12  1  0
  4  7  3  0
  5  8  3  0
  6  9  3  0
  7 14  1  0
  8 15  1  0
  9 16  1  0
M  RAD  1   3   2
M  END
>  <reaction>  (17) 
rxn_1380

>  <mol_properties>  (17) 
{"1": {"label": "*0", "atom_type": "Ct"}, "2": {"label": "*1", "atom_type": "Cs"}, "6": {"label": "*2", "atom_type": "H0"}, "9": {"label": "*4", "atom_type": "S2s"}, "10": {"label": "*3", "atom_type": "Cs"}}

>  <type>  (17) 
unop_13

>  <geom_source>  (17) 
AutoTST

$$$$

     RDKit          3D

 16 14  0  0  0  0  0  0  0  0999 V2000
   -0.9143   -1.2526   -2.7222 C   0  0  0  0  0  0  0  0  0  0  0  0
   -0.9143   -1.2526   -1.5267 C   0  0  0  0  0  0  0  0  0  0  0  0
   -0.9143   -1.2526   -0.0637 C   0  0  0  0  0  3  0  0  0  0  0  0
   -2.2283   -0.9770    0.5175 C   0  0  0  0  0  0  0  0  0  0  0  0
   -3.3020   -0.7518    0.9924 C   0  0  0  0  0  0  0  0  0  0  0  0
   -0.9143   -1.2526   -3.7856 H   0  0  0  0  0  0  0  0  0  0  0  0
   -0.0561   -0.3582    0.3674 H   0  0  0  0  0  0  0  0  0  0  0  0
   -0.5589   -2.2224    0.2955 H   0  0  0  0  0  0  0  0  0  0  0  0
   -4.2572   -0.5514    1.4148 H   0  0  0  0  0  0  0  0  0  0  0  0
    0.8186    1.8263   -0.4898 S   0  0  0  0  0  0  0  0  0  0  0  0
    0.7999    0.5340    0.7973 C   0  0  0  0  0  0  0  0  0  0  0  0
    2.1112    0.2177    1.3353 C   0  0  0  0  0  0  0  0  0  0  0  0
    3.1920   -0.0431    1.7787 C   0  0  0  0  0  0  0  0  0  0  0  0
    1.3736    2.7794    0.2693 H   0  0  0  0  0  0  0  0  0  0  0  0
    0.1269    0.8295    1.6017 H   0  0  0  0  0  0  0  0  0  0  0  0
    4.1523   -0.2747    2.1726 H   0  0  0  0  0  0  0  0  0  0  0  0
  1  2  3  0
  1  6  1  0
  2  3  1  0
  3  4  1  0
  3  8  1  0
  4  5  3  0
  5  9  1  0
  7 11  1  0
 10 11  1  0
 10 14  1  0
 11 12  1  0
 11 15  1  0
 12 13  3  0
 13 16  1  0
M  RAD  1   3   2
M  END
>  <reaction>  (18) 
rxn_1380

>  <mol_properties>  (18) 
{"1": {"label": "*0", "atom_type": "Ct"}, "2": {"label": "*1", "atom_type": "Cs"}, "6": {"label": "*2", "atom_type": "H0"}, "9": {"label": "*4", "atom_type": "S2s"}, "10": {"label": "*3", "atom_type": "Cs"}}

>  <type>  (18) 
unop_14

>  <geom_source>  (18) 
gaussian_log

$$$$
