
     RDKit          3D

  7  6  0  0  0  0  0  0  0  0999 V2000
    1.6964   -0.0938    0.0583 C   0  0  0  0  0  0  0  0  0  0  0  0
    0.5019   -0.0278    0.0173 C   0  0  0  0  0  0  0  0  0  0  0  0
   -0.9505    0.0525   -0.0327 C   0  0  0  0  0  0  0  0  0  0  0  0
    2.7574   -0.1524    0.0947 H   0  0  0  0  0  0  0  0  0  0  0  0
   -1.2692    0.9972   -0.4754 H   0  0  0  0  0  0  0  0  0  0  0  0
   -1.3749   -0.0147    0.9700 H   0  0  0  0  0  0  0  0  0  0  0  0
   -1.3610   -0.7611   -0.6323 H   0  0  0  0  0  0  0  0  0  0  0  0
  1  2  3  0
  1  4  1  0
  2  3  1  0
  3  5  1  0
  3  6  1  0
  3  7  1  0
M  END
>  <reaction>  (1) 
rxn_1224

>  <mol_properties>  (1) 
{"2": {"label": "donator", "atom_type": "Cs"}, "4": {"label": "d_hydrogen", "atom_type": "H0"}}

>  <type>  (1) 
r1h

$$$$

     RDKit          3D

 12 11  0  0  0  0  0  0  0  0999 V2000
    2.5164   -0.5559   -0.0242 C   0  0  0  0  0  0  0  0  0  0  0  0
    1.3287   -0.2938   -0.0132 C   0  0  0  0  0  0  0  0  0  0  0  0
   -0.0146    0.0027   -0.0006 C   0  0  0  0  0  3  0  0  0  0  0  0
   -1.0396   -1.0729   -0.1642 C   0  0  0  0  0  0  0  0  0  0  0  0
   -0.4887    1.4091    0.1769 C   0  0  0  0  0  0  0  0  0  0  0  0
    3.5543   -0.7850   -0.0339 H   0  0  0  0  0  0  0  0  0  0  0  0
   -1.7064   -1.1056    0.7044 H   0  0  0  0  0  0  0  0  0  0  0  0
   -0.5831   -2.0533   -0.2854 H   0  0  0  0  0  0  0  0  0  0  0  0
   -1.6716   -0.8741   -1.0367 H   0  0  0  0  0  0  0  0  0  0  0  0
   -1.0951    1.7228   -0.6798 H   0  0  0  0  0  0  0  0  0  0  0  0
    0.3401    2.1059    0.2861 H   0  0  0  0  0  0  0  0  0  0  0  0
   -1.1300    1.4913    1.0613 H   0  0  0  0  0  0  0  0  0  0  0  0
  1  2  3  0
  1  6  1  0
  2  3  1  0
  3  4  1  0
  3  5  1  0
  4  7  1  0
  4  8  1  0
  4  9  1  0
  5 10  1  0
  5 11  1  0
  5 12  1  0
M  RAD  1   3   2
M  END
>  <reaction>  (2) 
rxn_1224

>  <mol_properties>  (2) 
{"2": {"label": "acceptor", "atom_type": "Cs"}}

>  <type>  (2) 
r2

$$$$

     RDKit          3D

 13 12  0  0  0  0  0  0  0  0999 V2000
    2.2975   -0.6134    0.7685 C   0  0  0  0  0  0  0  0  0  0  0  0
    1.1676   -0.5248    0.3802 C   0  0  0  0  0  0  0  0  0  0  0  0
   -0.2109   -0.3926   -0.0948 C   0  0  0  0  0  0  0  0  0  0  0  0
   -0.2501    0.2584   -1.4808 C   0  0  0  0  0  0  0  0  0  0  0  0
   -1.0633    0.3831    0.9141 C   0  0  0  0  0  0  0  0  0  0  0  0
    3.2999   -0.6974    1.1133 H   0  0  0  0  0  0  0  0  0  0  0  0
   -0.6209   -1.4038   -0.1814 H   0  0  0  0  0  0  0  0  0  0  0  0
    0.3402   -0.3102   -2.1992 H   0  0  0  0  0  0  0  0  0  0  0  0
    0.1511    1.2724   -1.4369 H   0  0  0  0  0  0  0  0  0  0  0  0
   -1.2791    0.3109   -1.8407 H   0  0  0  0  0  0  0  0  0  0  0  0
   -0.6861    1.4008    1.0287 H   0  0  0  0  0  0  0  0  0  0  0  0
   -1.0492   -0.0971    1.8924 H   0  0  0  0  0  0  0  0  0  0  0  0
   -2.0971    0.4363    0.5680 H   0  0  0  0  0  0  0  0  0  0  0  0
  1  2  3  0
  1  6  1  0
  2  3  1  0
  3  4  1  0
  3  5  1  0
  3  7  1  0
  4  8  1  0
  4  9  1  0
  4 10  1  0
  5 11  1  0
  5 12  1  0
  5 13  1  0
M  END
>  <reaction>  (3) 
rxn_1224

>  <mol_properties>  (3) 
{"0": {"label": "a_hydrogen", "atom_type": "H0"}, "3": {"label": "acceptor", "atom_type": "Cs"}}

>  <type>  (3) 
r2h

$$$$

     RDKit          3D

 19 17  0  0  0  0  0  0  0  0999 V2000
   -1.3969   -2.9864    0.0009 C   0  0  0  0  0  0  0  0  0  0  0  0
   -0.5576   -2.2585   -0.4647 C   0  0  0  0  0  0  0  0  0  0  0  0
    0.4089   -1.3486   -0.9543 C   0  0  0  0  0  3  0  0  0  0  0  0
   -2.1311   -3.6490    0.3914 H   0  0  0  0  0  0  0  0  0  0  0  0
    0.3413   -0.2221   -0.1488 H   0  0  0  0  0  0  0  0  0  0  0  0
    0.2030   -0.9209   -1.9317 H   0  0  0  0  0  0  0  0  0  0  0  0
    1.4461   -1.6423   -0.8184 H   0  0  0  0  0  0  0  0  0  0  0  0
    1.9324    2.5568   -0.1248 C   0  0  0  0  0  0  0  0  0  0  0  0
    1.1221    1.7578    0.2624 C   0  0  0  0  0  0  0  0  0  0  0  0
    0.1724    0.7706    0.6832 C   0  0  0  0  0  0  0  0  0  0  0  0
   -1.2804    1.1412    0.4624 C   0  0  0  0  0  0  0  0  0  0  0  0
    0.4642    0.1288    2.0247 C   0  0  0  0  0  0  0  0  0  0  0  0
    2.6453    3.2722   -0.4572 H   0  0  0  0  0  0  0  0  0  0  0  0
   -1.9118    0.2605    0.5955 H   0  0  0  0  0  0  0  0  0  0  0  0
   -1.4390    1.5368   -0.5407 H   0  0  0  0  0  0  0  0  0  0  0  0
   -1.5968    1.9015    1.1819 H   0  0  0  0  0  0  0  0  0  0  0  0
    0.2538    0.8276    2.8391 H   0  0  0  0  0  0  0  0  0  0  0  0
    1.5086   -0.1737    2.0989 H   0  0  0  0  0  0  0  0  0  0  0  0
   -0.1661   -0.7526    2.1587 H   0  0  0  0  0  0  0  0  0  0  0  0
  1  2  3  0
  1  4  1  0
  2  3  1  0
  3  6  1  0
  3  7  1  0
  5 10  1  0
  8  9  3  0
  8 13  1  0
  9 10  1  0
 10 11  1  0
 10 12  1  0
 11 14  1  0
 11 15  1  0
 11 16  1  0
 12 17  1  0
 12 18  1  0
 12 19  1  0
M  RAD  1   3   2
M  END
>  <reaction>  (4) 
rxn_1224

>  <mol_properties>  (4) 
{"1": {"label": "*4", "atom_type": "Ct"}, "2": {"label": "*3", "atom_type": "Cs"}, "4": {"label": "*2", "atom_type": "H0"}, "8": {"label": "*0", "atom_type": "Ct"}, "9": {"label": "*1", "atom_type": "Cs"}}

>  <type>  (4) 
ts

$$$$

     RDKit          3D

 19 17  0  0  0  0  0  0  0  0999 V2000
    0.0228   -1.6945   -3.0653 C   0  0  0  0  0  0  0  0  0  0  0  0
    0.0228   -1.6945   -1.8682 C   0  0  0  0  0  0  0  0  0  0  0  0
    0.0228   -1.6945   -0.4128 C   0  0  0  0  0  0  0  0  0  0  0  0
    0.0228   -1.6945   -4.1286 H   0  0  0  0  0  0  0  0  0  0  0  0
    0.1343   -0.4749    0.0496 H   0  0  0  0  0  0  0  0  0  0  0  0
    0.8565   -2.2831   -0.0274 H   0  0  0  0  0  0  0  0  0  0  0  0
   -0.9038   -2.1222   -0.0275 H   0  0  0  0  0  0  0  0  0  0  0  0
   -1.9106    1.2433    1.9936 C   0  0  0  0  0  0  0  0  0  0  0  0
   -0.9460    1.0153    1.3205 C   0  0  0  0  0  0  0  0  0  0  0  0
    0.2461    0.7489    0.5136 C   0  0  0  0  0  3  0  0  0  0  0  0
    1.2660   -0.0769    1.3037 C   0  0  0  0  0  0  0  0  0  0  0  0
    0.8592    2.0547   -0.0013 C   0  0  0  0  0  0  0  0  0  0  0  0
   -2.7667    1.4456    2.5910 H   0  0  0  0  0  0  0  0  0  0  0  0
    2.1295   -0.3049    0.6764 H   0  0  0  0  0  0  0  0  0  0  0  0
    0.8303   -1.0147    1.6484 H   0  0  0  0  0  0  0  0  0  0  0  0
    1.6122    0.4792    2.1766 H   0  0  0  0  0  0  0  0  0  0  0  0
    1.1934    2.6737    0.8332 H   0  0  0  0  0  0  0  0  0  0  0  0
    0.1354    2.6272   -0.5811 H   0  0  0  0  0  0  0  0  0  0  0  0
    1.7204    1.8391   -0.6361 H   0  0  0  0  0  0  0  0  0  0  0  0
  1  2  3  0
  1  4  1  0
  2  3  1  0
  3  5  1  0
  3  6  1  0
  3  7  1  0
  8  9  3  0
  8 13  1  0
  9 10  1  0
 10 11  1  0
 10 12  1  0
 11 14  1  0
 11 15  1  0
 11 16  1  0
 12 17  1  0
 12 18  1  0
 12 19  1  0
M  RAD  1  10   2
M  END
>  <reaction>  (5) 
rxn_1224

>  <mol_properties>  (5) 
{"1": {"label": "*4", "atom_type": "Ct"}, "2": {"label": "*3", "atom_type": "Cs"}, "4": {"label": "*2", "atom_type": "H0"}, "8": {"label": "*0", "atom_type": "Ct"}, "9": {"label": "*1", "atom_type": "Cs"}}

>  <type>  (5) 
unop_1

>  <geom_source>  (5) 
Heuristics

$$$$

     RDKit          3D

 19 17  0  0  0  0  0  0  0  0999 V2000
    0.0161   -1.8799   -2.6619 C   0  0  0  0  0  0  0  0  0  0  0  0
    0.0161   -1.8799   -1.4648 C   0  0  0  0  0  0  0  0  0  0  0  0
    0.0161   -1.8799   -0.0094 C   0  0  0  0  0  0  0  0  0  0  0  0
    0.0161   -1.8799   -3.7252 H   0  0  0  0  0  0  0  0  0  0  0  0
    0.1276   -0.6603    0.4530 H   0  0  0  0  0  0  0  0  0  0  0  0
    0.8498   -2.4685    0.3759 H   0  0  0  0  0  0  0  0  0  0  0  0
   -0.9105   -2.3076    0.3759 H   0  0  0  0  0  0  0  0  0  0  0  0
   -0.8907    2.1996   -0.8528 C   0  0  0  0  0  0  0  0  0  0  0  0
   -0.3814    1.4556   -0.0638 C   0  0  0  0  0  0  0  0  0  0  0  0
    0.2394    0.5635    0.9170 C   0  0  0  0  0  3  0  0  0  0  0  0
   -0.7177    0.2798    2.0788 C   0  0  0  0  0  0  0  0  0  0  0  0
    1.5693    1.1393    1.4130 C   0  0  0  0  0  0  0  0  0  0  0  0
   -1.3427    2.8599   -1.5530 H   0  0  0  0  0  0  0  0  0  0  0  0
   -0.2588   -0.4200    2.7795 H   0  0  0  0  0  0  0  0  0  0  0  0
   -1.6533   -0.1502    1.7216 H   0  0  0  0  0  0  0  0  0  0  0  0
   -0.9493    1.2015    2.6153 H   0  0  0  0  0  0  0  0  0  0  0  0
    1.4052    2.0864    1.9299 H   0  0  0  0  0  0  0  0  0  0  0  0
    2.2540    1.3183    0.5841 H   0  0  0  0  0  0  0  0  0  0  0  0
    2.0414    0.4445    2.1098 H   0  0  0  0  0  0  0  0  0  0  0  0
  1  2  3  0
  1  4  1  0
  2  3  1  0
  3  5  1  0
  3  6  1  0
  3  7  1  0
  8  9  3  0
  8 13  1  0
  9 10  1  0
 10 11  1  0
 10 12  1  0
 11 14  1  0
 11 15  1  0
 11 16  1  0
 12 17  1  0
 12 18  1  0
 12 19  1  0
M  RAD  1  10   2
M  END
>  <reaction>  (6) 
rxn_1224

>  <mol_properties>  (6) 
{"1": {"label": "*4", "atom_type": "Ct"}, "2": {"label": "*3", "atom_type": "Cs"}, "4": {"label": "*2", "atom_type": "H0"}, "8": {"label": "*0", "atom_type": "Ct"}, "9": {"label": "*1", "atom_type": "Cs"}}

>  <type>  (6) 
unop_2

>  <geom_source>  (6) 
Heuristics

$$$$

     RDKit          3D

 19 17  0  0  0  0  0  0  0  0999 V2000
   -0.0971   -1.6907   -3.1038 C   0  0  0  0  0  0  0  0  0  0  0  0
   -0.0971   -1.6907   -1.9068 C   0  0  0  0  0  0  0  0  0  0  0  0
   -0.0971   -1.6907   -0.4514 C   0  0  0  0  0  0  0  0  0  0  0  0
   -0.0971   -1.6907   -4.1671 H   0  0  0  0  0  0  0  0  0  0  0  0
    0.0144   -0.4712    0.0111 H   0  0  0  0  0  0  0  0  0  0  0  0
    0.7367   -2.2793   -0.0660 H   0  0  0  0  0  0  0  0  0  0  0  0
   -1.0237   -2.1184   -0.0660 H   0  0  0  0  0  0  0  0  0  0  0  0
   -1.1327    0.8396    2.8190 C   0  0  0  0  0  0  0  0  0  0  0  0
   -0.5725    0.7924    1.7610 C   0  0  0  0  0  0  0  0  0  0  0  0
    0.1262    0.7526    0.4751 C   0  0  0  0  0  3  0  0  0  0  0  0
    1.6050    0.4031    0.6685 C   0  0  0  0  0  0  0  0  0  0  0  0
   -0.0441    2.0748   -0.2792 C   0  0  0  0  0  0  0  0  0  0  0  0
   -1.6298    0.8815    3.7580 H   0  0  0  0  0  0  0  0  0  0  0  0
    2.1031    0.3342   -0.3002 H   0  0  0  0  0  0  0  0  0  0  0  0
    1.7196   -0.5493    1.1861 H   0  0  0  0  0  0  0  0  0  0  0  0
    2.1046    1.1736    1.2582 H   0  0  0  0  0  0  0  0  0  0  0  0
    0.4069    2.8947    0.2825 H   0  0  0  0  0  0  0  0  0  0  0  0
   -1.0978    2.3070   -0.4331 H   0  0  0  0  0  0  0  0  0  0  0  0
    0.4445    2.0157   -1.2534 H   0  0  0  0  0  0  0  0  0  0  0  0
  1  2  3  0
  1  4  1  0
  2  3  1  0
  3  5  1  0
  3  6  1  0
  3  7  1  0
  8  9  3  0
  8 13  1  0
  9 10  1  0
 10 11  1  0
 10 12  1  0
 11 14  1  0
 11 15  1  0
 11 16  1  0
 12 17  1  0
 12 18  1  0
 12 19  1  0
M  RAD  1  10   2
M  END
>  <reaction>  (7) 
rxn_1224

>  <mol_properties>  (7) 
{"1": {"label": "*4", "atom_type": "Ct"}, "2": {"label": "*3", "atom_type": "Cs"}, "4": {"label": "*2", "atom_type": "H0"}, "8": {"label": "*0", "atom_type": "Ct"}, "9": {"label": "*1", "atom_type": "Cs"}}

>  <type>  (7) 
unop_3

>  <geom_source>  (7) 
Heuristics

$$$$

     RDKit          3D

 19 17  0  0  0  0  0  0  0  0999 V2000
   -0.4501   -1.7651   -2.7991 C   0  0  0  0  0  0  0  0  0  0  0  0
   -0.4501   -1.7651   -1.6021 C   0  0  0  0  0  0  0  0  0  0  0  0
   -0.4501   -1.7651   -0.1467 C   0  0  0  0  0  0  0  0  0  0  0  0
   -0.4501   -1.7651   -3.8624 H   0  0  0  0  0  0  0  0  0  0  0  0
   -0.3386   -0.5455    0.3158 H   0  0  0  0  0  0  0  0  0  0  0  0
    0.3836   -2.3537    0.2387 H   0  0  0  0  0  0  0  0  0  0  0  0
   -1.3767   -2.1928    0.2387 H   0  0  0  0  0  0  0  0  0  0  0  0
    2.0765    1.6673   -0.1164 C   0  0  0  0  0  0  0  0  0  0  0  0
    1.0389    1.2163    0.2780 C   0  0  0  0  0  0  0  0  0  0  0  0
   -0.2268    0.6783    0.7798 C   0  0  0  0  0  3  0  0  0  0  0  0
   -1.2590    1.7948    0.9645 C   0  0  0  0  0  0  0  0  0  0  0  0
   -0.0097   -0.1059    2.0775 C   0  0  0  0  0  0  0  0  0  0  0  0
    2.9973    2.0676   -0.4664 H   0  0  0  0  0  0  0  0  0  0  0  0
   -2.2097    1.3743    1.2969 H   0  0  0  0  0  0  0  0  0  0  0  0
   -1.4254    2.3347    0.0324 H   0  0  0  0  0  0  0  0  0  0  0  0
   -0.9173    2.5090    1.7156 H   0  0  0  0  0  0  0  0  0  0  0  0
    0.3689    0.5523    2.8615 H   0  0  0  0  0  0  0  0  0  0  0  0
    0.7091   -0.9126    1.9341 H   0  0  0  0  0  0  0  0  0  0  0  0
   -0.9532   -0.5373    2.4165 H   0  0  0  0  0  0  0  0  0  0  0  0
  1  2  3  0
  1  4  1  0
  2  3  1  0
  3  5  1  0
  3  6  1  0
  3  7  1  0
  8  9  3  0
  8 13  1  0
  9 10  1  0
 10 11  1  0
 10 12  1  0
 11 14  1  0
 11 15  1  0
 11 16  1  0
 12 17  1  0
 12 18  1  0
 12 19  1  0
M  RAD  1  10   2
M  END
>  <reaction>  (8) 
rxn_1224

>  <mol_properties>  (8) 
{"1": {"label": "*4", "atom_type": "Ct"}, "2": {"label": "*3", "atom_type": "Cs"}, "4": {"label": "*2", "atom_type": "H0"}, "8": {"label": "*0", "atom_type": "Ct"}, "9": {"label": "*1", "atom_type": "Cs"}}

>  <type>  (8) 
unop_4

>  <geom_source>  (8) 
Heuristics

$$$$

     RDKit          3D

 19 17  0  0  0  0  0  0  0  0999 V2000
   -0.1562   -1.7095   -3.0971 C   0  0  0  0  0  0  0  0  0  0  0  0
   -0.1562   -1.7095   -1.9001 C   0  0  0  0  0  0  0  0  0  0  0  0
   -0.1562   -1.7095   -0.4447 C   0  0  0  0  0  0  0  0  0  0  0  0
   -0.1562   -1.7095   -4.1604 H   0  0  0  0  0  0  0  0  0  0  0  0
   -0.0448   -0.4899    0.0178 H   0  0  0  0  0  0  0  0  0  0  0  0
    0.6775   -2.2981   -0.0593 H   0  0  0  0  0  0  0  0  0  0  0  0
   -1.0828   -2.1372   -0.0593 H   0  0  0  0  0  0  0  0  0  0  0  0
    0.0539    0.5900    3.1399 C   0  0  0  0  0  0  0  0  0  0  0  0
    0.0589    0.6440    1.9430 C   0  0  0  0  0  0  0  0  0  0  0  0
    0.0671    0.7339    0.4818 C   0  0  0  0  0  3  0  0  0  0  0  0
    1.3916    1.3157   -0.0214 C   0  0  0  0  0  0  0  0  0  0  0  0
   -1.1301    1.5462   -0.0214 C   0  0  0  0  0  0  0  0  0  0  0  0
    0.0495    0.5420    4.2021 H   0  0  0  0  0  0  0  0  0  0  0  0
    1.4009    1.3364   -1.1126 H   0  0  0  0  0  0  0  0  0  0  0  0
    2.2381    0.7208    0.3216 H   0  0  0  0  0  0  0  0  0  0  0  0
    1.5224    2.3361    0.3431 H   0  0  0  0  0  0  0  0  0  0  0  0
   -1.0737    2.5734    0.3431 H   0  0  0  0  0  0  0  0  0  0  0  0
   -2.0703    1.1146    0.3216 H   0  0  0  0  0  0  0  0  0  0  0  0
   -1.1354    1.5682   -1.1126 H   0  0  0  0  0  0  0  0  0  0  0  0
  1  2  3  0
  1  4  1  0
  2  3  1  0
  3  5  1  0
  3  6  1  0
  3  7  1  0
  8  9  3  0
  8 13  1  0
  9 10  1  0
 10 11  1  0
 10 12  1  0
 11 14  1  0
 11 15  1  0
 11 16  1  0
 12 17  1  0
 12 18  1  0
 12 19  1  0
M  RAD  1  10   2
M  END
>  <reaction>  (9) 
rxn_1224

>  <mol_properties>  (9) 
{"1": {"label": "*4", "atom_type": "Ct"}, "2": {"label": "*3", "atom_type": "Cs"}, "4": {"label": "*2", "atom_type": "H0"}, "8": {"label": "*0", "atom_type": "Ct"}, "9": {"label": "*1", "atom_type": "Cs"}}

>  <type>  (9) 
unop_5

>  <geom_source>  (9) 
Heuristics

$$$$

     RDKit          3D

 19 17  0  0  0  0  0  0  0  0999 V2000
   -0.4316   -1.6944   -2.9529 C   0  0  0  0  0  0  0  0  0  0  0  0
   -0.4316   -1.6944   -1.7558 C   0  0  0  0  0  0  0  0  0  0  0  0
   -0.4316   -1.6944   -0.3004 C   0  0  0  0  0  0  0  0  0  0  0  0
   -0.4316   -1.6944   -4.0162 H   0  0  0  0  0  0  0  0  0  0  0  0
   -0.3201   -0.4749    0.1620 H   0  0  0  0  0  0  0  0  0  0  0  0
    0.4021   -2.2830    0.0849 H   0  0  0  0  0  0  0  0  0  0  0  0
   -1.3582   -2.1221    0.0849 H   0  0  0  0  0  0  0  0  0  0  0  0
    2.3879    1.2586    0.9200 C   0  0  0  0  0  0  0  0  0  0  0  0
    1.2216    1.0239    0.7786 C   0  0  0  0  0  0  0  0  0  0  0  0
   -0.2083    0.7489    0.6260 C   0  0  0  0  0  3  0  0  0  0  0  0
   -1.0008    2.0509    0.4745 C   0  0  0  0  0  0  0  0  0  0  0  0
   -0.7295   -0.0929    1.7948 C   0  0  0  0  0  0  0  0  0  0  0  0
    3.4230    1.4669    1.0454 H   0  0  0  0  0  0  0  0  0  0  0  0
   -2.0581    1.8295    0.3183 H   0  0  0  0  0  0  0  0  0  0  0  0
   -0.6399    2.6349   -0.3720 H   0  0  0  0  0  0  0  0  0  0  0  0
   -0.9066    2.6611    1.3744 H   0  0  0  0  0  0  0  0  0  0  0  0
   -0.6272    0.4542    2.7336 H   0  0  0  0  0  0  0  0  0  0  0  0
   -0.1762   -1.0277    1.8837 H   0  0  0  0  0  0  0  0  0  0  0  0
   -1.7852   -0.3267    1.6461 H   0  0  0  0  0  0  0  0  0  0  0  0
  1  2  3  0
  1  4  1  0
  2  3  1  0
  3  5  1  0
  3  6  1  0
  3  7  1  0
  8  9  3  0
  8 13  1  0
  9 10  1  0
 10 11  1  0
 10 12  1  0
 11 14  1  0
 11 15  1  0
 11 16  1  0
 12 17  1  0
 12 18  1  0
 12 19  1  0
M  RAD  1  10   2
M  END
>  <reaction>  (10) 
rxn_1224

>  <mol_properties>  (10) 
{"1": {"label": "*4", "atom_type": "Ct"}, "2": {"label": "*3", "atom_type": "Cs"}, "4": {"label": "*2", "atom_type": "H0"}, "8": {"label": "*0", "atom_type": "Ct"}, "9": {"label": "*1", "atom_type": "Cs"}}

>  <type>  (10) 
unop_6

>  <geom_source>  (10) 
Heuristics

$$$$

     RDKit          3D

 19 17  0  0  0  0  0  0  0  0999 V2000
   -0.3296   -1.6623   -3.0653 C   0  0  0  0  0  0  0  0  0  0  0  0
   -0.3296   -1.6623   -1.8682 C   0  0  0  0  0  0  0  0  0  0  0  0
   -0.3296   -1.6623   -0.4128 C   0  0  0  0  0  0  0  0  0  0  0  0
   -0.3296   -1.6623   -4.1286 H   0  0  0  0  0  0  0  0  0  0  0  0
   -0.2181   -0.4427    0.0496 H   0  0  0  0  0  0  0  0  0  0  0  0
    0.5041   -2.2509   -0.0274 H   0  0  0  0  0  0  0  0  0  0  0  0
   -1.2562   -2.0900   -0.0275 H   0  0  0  0  0  0  0  0  0  0  0  0
    2.1043    0.8764    1.9936 C   0  0  0  0  0  0  0  0  0  0  0  0
    1.1144    0.8270    1.3205 C   0  0  0  0  0  0  0  0  0  0  0  0
   -0.1063    0.7811    0.5136 C   0  0  0  0  0  3  0  0  0  0  0  0
   -0.4725    2.1764   -0.0013 C   0  0  0  0  0  0  0  0  0  0  0  0
   -1.2589    0.1538    1.3037 C   0  0  0  0  0  0  0  0  0  0  0  0
    2.9829    0.9202    2.5910 H   0  0  0  0  0  0  0  0  0  0  0  0
   -1.3585    2.1205   -0.6361 H   0  0  0  0  0  0  0  0  0  0  0  0
    0.3431    2.6082   -0.5811 H   0  0  0  0  0  0  0  0  0  0  0  0
   -0.6889    2.8457    0.8332 H   0  0  0  0  0  0  0  0  0  0  0  0
   -1.4986    0.7635    2.1766 H   0  0  0  0  0  0  0  0  0  0  0  0
   -1.0005   -0.8473    1.6484 H   0  0  0  0  0  0  0  0  0  0  0  0
   -2.1495    0.0862    0.6764 H   0  0  0  0  0  0  0  0  0  0  0  0
  1  2  3  0
  1  4  1  0
  2  3  1  0
  3  5  1  0
  3  6  1  0
  3  7  1  0
  8  9  3  0
  8 13  1  0
  9 10  1  0
 10 11  1  0
 10 12  1  0
 11 14  1  0
 11 15  1  0
 11 16  1  0
 12 17  1  0
 12 18  1  0
 12 19  1  0
M  RAD  1  10   2
M  END
>  <reaction>  (11) 
rxn_1224

>  <mol_properties>  (11) 
{"1": {"label": "*4", "atom_type": "Ct"}, "2": {"label": "*3", "atom_type": "Cs"}, "4": {"label": "*2", "atom_type": "H0"}, "8": {"label": "*0", "atom_type": "Ct"}, "9": {"label": "*1", "atom_type": "Cs"}}

>  <type>  (11) 
unop_7

>  <geom_source>  (11) 
Heuristics

$$$$

     RDKit          3D

 19 17  0  0  0  0  0  0  0  0999 V2000
    0.1173   -1.7446   -2.9529 C   0  0  0  0  0  0  0  0  0  0  0  0
    0.1173   -1.7446   -1.7558 C   0  0  0  0  0  0  0  0  0  0  0  0
    0.1173   -1.7446   -0.3004 C   0  0  0  0  0  0  0  0  0  0  0  0
    0.1173   -1.7446   -4.0162 H   0  0  0  0  0  0  0  0  0  0  0  0
    0.2287   -0.5250    0.1620 H   0  0  0  0  0  0  0  0  0  0  0  0
    0.9510   -2.3332    0.0849 H   0  0  0  0  0  0  0  0  0  0  0  0
   -0.8093   -2.1723    0.0849 H   0  0  0  0  0  0  0  0  0  0  0  0
   -2.1202    1.6706    0.9200 C   0  0  0  0  0  0  0  0  0  0  0  0
   -1.0157    1.2283    0.7786 C   0  0  0  0  0  0  0  0  0  0  0  0
    0.3406    0.6988    0.6260 C   0  0  0  0  0  3  0  0  0  0  0  0
    0.7005   -0.2235    1.7948 C   0  0  0  0  0  0  0  0  0  0  0  0
    1.3560    1.8355    0.4745 C   0  0  0  0  0  0  0  0  0  0  0  0
   -3.1004    2.0631    1.0454 H   0  0  0  0  0  0  0  0  0  0  0  0
    1.6964   -0.6449    1.6461 H   0  0  0  0  0  0  0  0  0  0  0  0
   -0.0130   -1.0426    1.8837 H   0  0  0  0  0  0  0  0  0  0  0  0
    0.6991    0.3329    2.7336 H   0  0  0  0  0  0  0  0  0  0  0  0
    1.3740    2.4527    1.3744 H   0  0  0  0  0  0  0  0  0  0  0  0
    1.1069    2.4752   -0.3720 H   0  0  0  0  0  0  0  0  0  0  0  0
    2.3556    1.4261    0.3183 H   0  0  0  0  0  0  0  0  0  0  0  0
  1  2  3  0
  1  4  1  0
  2  3  1  0
  3  5  1  0
  3  6  1  0
  3  7  1  0
  8  9  3  0
  8 13  1  0
  9 10  1  0
 10 11  1  0
 10 12  1  0
 11 14  1  0
 11 15  1  0
 11 16  1  0
 12 17  1  0
 12 18  1  0
 12 19  1  0
M  RAD  1  10   2
M  END
>  <reaction>  (12) 
rxn_1224

>  <mol_properties>  (12) 
{"1": {"label": "*4", "atom_type": "Ct"}, "2": {"label": "*3", "atom_type": "Cs"}, "4": {"label": "*2", "atom_type": "H0"}, "8": {"label": "*0", "atom_type": "Ct"}, "9": {"label": "*1", "atom_type": "Cs"}}

>  <type>  (12) 
unop_8

>  <geom_source>  (12) 
Heuristics

$$$$

     RDKit          3D

 19 17  0  0  0  0  0  0  0  0999 V2000
   -0.3566   -1.8458   -2.6619 C   0  0  0  0  0  0  0  0  0  0  0  0
   -0.3566   -1.8458   -1.4648 C   0  0  0  0  0  0  0  0  0  0  0  0
   -0.3566   -1.8458   -0.0094 C   0  0  0  0  0  0  0  0  0  0  0  0
   -0.3566   -1.8458   -3.7252 H   0  0  0  0  0  0  0  0  0  0  0  0
   -0.2452   -0.6263    0.4530 H   0  0  0  0  0  0  0  0  0  0  0  0
    0.4771   -2.4344    0.3759 H   0  0  0  0  0  0  0  0  0  0  0  0
   -1.2832   -2.2735    0.3759 H   0  0  0  0  0  0  0  0  0  0  0  0
    1.2747    2.0017   -0.8528 C   0  0  0  0  0  0  0  0  0  0  0  0
    0.6389    1.3623   -0.0638 C   0  0  0  0  0  0  0  0  0  0  0  0
   -0.1333    0.5975    0.9170 C   0  0  0  0  0  3  0  0  0  0  0  0
   -1.3368    1.4049    1.4130 C   0  0  0  0  0  0  0  0  0  0  0  0
    0.7565    0.1451    2.0788 C   0  0  0  0  0  0  0  0  0  0  0  0
    1.8389    2.5691   -1.5530 H   0  0  0  0  0  0  0  0  0  0  0  0
   -1.9270    0.8072    2.1098 H   0  0  0  0  0  0  0  0  0  0  0  0
   -1.9777    1.7050    0.5841 H   0  0  0  0  0  0  0  0  0  0  0  0
   -1.0037    2.3066    1.9299 H   0  0  0  0  0  0  0  0  0  0  0  0
    1.1513    1.0096    2.6153 H   0  0  0  0  0  0  0  0  0  0  0  0
    1.5987   -0.4474    1.7216 H   0  0  0  0  0  0  0  0  0  0  0  0
    0.1784   -0.4600    2.7795 H   0  0  0  0  0  0  0  0  0  0  0  0
  1  2  3  0
  1  4  1  0
  2  3  1  0
  3  5  1  0
  3  6  1  0
  3  7  1  0
  8  9  3  0
  8 13  1  0
  9 10  1  0
 10 11  1  0
 10 12  1  0
 11 14  1  0
 11 15  1  0
 11 16  1  0
 12 17  1  0
 12 18  1  0
 12 19  1  0
M  RAD  1  10   2
M  END
>  <reaction>  (13) 
rxn_1224

>  <mol_properties>  (13) 
{"1": {"label": "*4", "atom_type": "Ct"}, "2": {"label": "*3", "atom_type": "Cs"}, "4": {"label": "*2", "atom_type": "H0"}, "8": {"label": "*0", "atom_type": "Ct"}, "9": {"label": "*1", "atom_type": "Cs"}}

>  <type>  (13) 
unop_9

>  <geom_source>  (13) 
Heuristics

$$$$

     RDKit          3D

 19 17  0  0  0  0  0  0  0  0999 V2000
    0.1226   -1.8175   -2.7991 C   0  0  0  0  0  0  0  0  0  0  0  0
    0.1226   -1.8175   -1.6021 C   0  0  0  0  0  0  0  0  0  0  0  0
    0.1226   -1.8175   -0.1467 C   0  0  0  0  0  0  0  0  0  0  0  0
    0.1226   -1.8175   -3.8624 H   0  0  0  0  0  0  0  0  0  0  0  0
    0.2341   -0.5979    0.3158 H   0  0  0  0  0  0  0  0  0  0  0  0
    0.9564   -2.4060    0.2387 H   0  0  0  0  0  0  0  0  0  0  0  0
   -0.8039   -2.2452    0.2387 H   0  0  0  0  0  0  0  0  0  0  0  0
   -1.7398    2.0161   -0.1164 C   0  0  0  0  0  0  0  0  0  0  0  0
   -0.8012    1.3845    0.2780 C   0  0  0  0  0  0  0  0  0  0  0  0
    0.3460    0.6259    0.7798 C   0  0  0  0  0  3  0  0  0  0  0  0
   -0.0097   -0.1059    2.0775 C   0  0  0  0  0  0  0  0  0  0  0  0
    1.5635    1.5368    0.9645 C   0  0  0  0  0  0  0  0  0  0  0  0
   -2.5728    2.5767   -0.4664 H   0  0  0  0  0  0  0  0  0  0  0  0
    0.8400   -0.7012    2.4165 H   0  0  0  0  0  0  0  0  0  0  0  0
   -0.8627   -0.7690    1.9341 H   0  0  0  0  0  0  0  0  0  0  0  0
   -0.2626    0.6100    2.8615 H   0  0  0  0  0  0  0  0  0  0  0  0
    1.3569    2.3012    1.7156 H   0  0  0  0  0  0  0  0  0  0  0  0
    1.8250    2.0376    0.0324 H   0  0  0  0  0  0  0  0  0  0  0  0
    2.4222    0.9510    1.2969 H   0  0  0  0  0  0  0  0  0  0  0  0
  1  2  3  0
  1  4  1  0
  2  3  1  0
  3  5  1  0
  3  6  1  0
  3  7  1  0
  8  9  3  0
  8 13  1  0
  9 10  1  0
 10 11  1  0
 10 12  1  0
 11 14  1  0
 11 15  1  0
 11 16  1  0
 12 17  1  0
 12 18  1  0
 12 19  1  0
M  RAD  1  10   2
M  END
>  <reaction>  (14) 
rxn_1224

>  <mol_properties>  (14) 
{"1": {"label": "*4", "atom_type": "Ct"}, "2": {"label": "*3", "atom_type": "Cs"}, "4": {"label": "*2", "atom_type": "H0"}, "8": {"label": "*0", "atom_type": "Ct"}, "9": {"label": "*1", "atom_type": "Cs"}}

>  <type>  (14) 
unop_10

>  <geom_source>  (14) 
Heuristics

$$$$

     RDKit          3D

 19 17  0  0  0  0  0  0  0  0999 V2000
   -0.2110   -1.6803   -3.1038 C   0  0  0  0  0  0  0  0  0  0  0  0
   -0.2110   -1.6803   -1.9068 C   0  0  0  0  0  0  0  0  0  0  0  0
   -0.2110   -1.6803   -0.4514 C   0  0  0  0  0  0  0  0  0  0  0  0
   -0.2110   -1.6803   -4.1671 H   0  0  0  0  0  0  0  0  0  0  0  0
   -0.0996   -0.4608    0.0111 H   0  0  0  0  0  0  0  0  0  0  0  0
    0.6227   -2.2689   -0.0660 H   0  0  0  0  0  0  0  0  0  0  0  0
   -1.1376   -2.1080   -0.0660 H   0  0  0  0  0  0  0  0  0  0  0  0
    1.2661    0.6204    2.8190 C   0  0  0  0  0  0  0  0  0  0  0  0
    0.7066    0.6755    1.7610 C   0  0  0  0  0  0  0  0  0  0  0  0
    0.0123    0.7630    0.4751 C   0  0  0  0  0  3  0  0  0  0  0  0
    0.4195    2.0325   -0.2792 C   0  0  0  0  0  0  0  0  0  0  0  0
   -1.5053    0.6873    0.6685 C   0  0  0  0  0  0  0  0  0  0  0  0
    1.7626    0.5714    3.7580 H   0  0  0  0  0  0  0  0  0  0  0  0
   -0.0718    2.0628   -1.2534 H   0  0  0  0  0  0  0  0  0  0  0  0
    1.4978    2.0697   -0.4331 H   0  0  0  0  0  0  0  0  0  0  0  0
    0.1246    2.9205    0.2825 H   0  0  0  0  0  0  0  0  0  0  0  0
   -1.8570    1.5357    1.2582 H   0  0  0  0  0  0  0  0  0  0  0  0
   -1.7906   -0.2285    1.1861 H   0  0  0  0  0  0  0  0  0  0  0  0
   -2.0077    0.7099   -0.3002 H   0  0  0  0  0  0  0  0  0  0  0  0
  1  2  3  0
  1  4  1  0
  2  3  1  0
  3  5  1  0
  3  6  1  0
  3  7  1  0
  8  9  3  0
  8 13  1  0
  9 10  1  0
 10 11  1  0
 10 12  1  0
 11 14  1  0
 11 15  1  0
 11 16  1  0
 12 17  1  0
 12 18  1  0
 12 19  1  0
M  RAD  1  10   2
M  END
>  <reaction>  (15) 
rxn_1224

>  <mol_properties>  (15) 
{"1": {"label": "*4", "atom_type": "Ct"}, "2": {"label": "*3", "atom_type": "Cs"}, "4": {"label": "*2", "atom_type": "H0"}, "8": {"label": "*0", "atom_type": "Ct"}, "9": {"label": "*1", "atom_type": "Cs"}}

>  <type>  (15) 
unop_11

>  <geom_source>  (15) 
Heuristics

$$$$

     RDKit          3D

 19 17  0  0  0  0  0  0  0  0999 V2000
   -0.1731   -1.8944   -2.6055 C   0  0  0  0  0  0  0  0  0  0  0  0
   -0.1731   -1.8944   -1.4084 C   0  0  0  0  0  0  0  0  0  0  0  0
   -0.1731   -1.8944    0.0470 C   0  0  0  0  0  0  0  0  0  0  0  0
   -0.1731   -1.8944   -3.6687 H   0  0  0  0  0  0  0  0  0  0  0  0
   -0.0617   -0.6748    0.5094 H   0  0  0  0  0  0  0  0  0  0  0  0
    0.6606   -2.4829    0.4324 H   0  0  0  0  0  0  0  0  0  0  0  0
   -1.0997   -2.3221    0.4324 H   0  0  0  0  0  0  0  0  0  0  0  0
    0.2002    2.1906   -1.1167 C   0  0  0  0  0  0  0  0  0  0  0  0
    0.1319    1.4434   -0.1827 C   0  0  0  0  0  0  0  0  0  0  0  0
    0.0502    0.5490    0.9735 C   0  0  0  0  0  3  0  0  0  0  0  0
   -1.1932    0.8561    1.8137 C   0  0  0  0  0  0  0  0  0  0  0  0
    1.3286    0.6257    1.8137 C   0  0  0  0  0  0  0  0  0  0  0  0
    0.2608    2.8538   -1.9457 H   0  0  0  0  0  0  0  0  0  0  0  0
   -1.2646    0.1546    2.6467 H   0  0  0  0  0  0  0  0  0  0  0  0
   -2.1010    0.7784    1.2157 H   0  0  0  0  0  0  0  0  0  0  0  0
   -1.1382    1.8677    2.2197 H   0  0  0  0  0  0  0  0  0  0  0  0
    1.4579    1.6304    2.2197 H   0  0  0  0  0  0  0  0  0  0  0  0
    2.2073    0.3846    1.2157 H   0  0  0  0  0  0  0  0  0  0  0  0
    1.2717   -0.0772    2.6467 H   0  0  0  0  0  0  0  0  0  0  0  0
  1  2  3  0
  1  4  1  0
  2  3  1  0
  3  5  1  0
  3  6  1  0
  3  7  1  0
  8  9  3  0
  8 13  1  0
  9 10  1  0
 10 11  1  0
 10 12  1  0
 11 14  1  0
 11 15  1  0
 11 16  1  0
 12 17  1  0
 12 18  1  0
 12 19  1  0
M  RAD  1  10   2
M  END
>  <reaction>  (16) 
rxn_1224

>  <mol_properties>  (16) 
{"1": {"label": "*4", "atom_type": "Ct"}, "2": {"label": "*3", "atom_type": "Cs"}, "4": {"label": "*2", "atom_type": "H0"}, "8": {"label": "*0", "atom_type": "Ct"}, "9": {"label": "*1", "atom_type": "Cs"}}

>  <type>  (16) 
unop_12

>  <geom_source>  (16) 
Heuristics

$$$$

     RDKit          3D

 19 17  0  0  0  0  0  0  0  0999 V2000
   -0.8014    0.1449    0.1492 C   0  0  0  0  0  3  0  0  0  0  0  0
   -1.2772   -0.6333   -1.0780 C   0  0  0  0  0  0  0  0  0  0  0  0
   -0.5389   -0.7944    1.3269 C   0  0  0  0  0  0  0  0  0  0  0  0
    1.6086    0.7090   -0.6286 C   0  0  0  0  0  0  0  0  0  0  0  0
   -1.8005    1.1573    0.5238 C   0  0  0  0  0  0  0  0  0  0  0  0
    2.7000   -0.2449   -0.4293 C   0  0  0  0  0  0  0  0  0  0  0  0
   -2.6188    1.9880    0.8307 C   0  0  0  0  0  0  0  0  0  0  0  0
    3.5990   -1.0309   -0.2650 C   0  0  0  0  0  0  0  0  0  0  0  0
    0.3556    0.7801   -0.1634 H   0  0  0  0  0  0  0  0  0  0  0  0
   -0.5070   -1.3749   -1.3785 H   0  0  0  0  0  0  0  0  0  0  0  0
   -2.2280   -1.1680   -0.8631 H   0  0  0  0  0  0  0  0  0  0  0  0
   -1.4382    0.0613   -1.9301 H   0  0  0  0  0  0  0  0  0  0  0  0
   -0.1701   -0.2155    2.2005 H   0  0  0  0  0  0  0  0  0  0  0  0
   -1.4667   -1.3342    1.6166 H   0  0  0  0  0  0  0  0  0  0  0  0
    0.2393   -1.5378    1.0525 H   0  0  0  0  0  0  0  0  0  0  0  0
    1.9068    1.7011   -0.2315 H   0  0  0  0  0  0  0  0  0  0  0  0
    1.3861    0.7959   -1.7121 H   0  0  0  0  0  0  0  0  0  0  0  0
   -3.3371    2.7170    1.1000 H   0  0  0  0  0  0  0  0  0  0  0  0
    4.3884   -1.7209   -0.1207 H   0  0  0  0  0  0  0  0  0  0  0  0
  1  2  1  0
  1  3  1  0
  1  5  1  0
  2 10  1  0
  2 11  1  0
  2 12  1  0
  3 13  1  0
  3 14  1  0
  3 15  1  0
  4  6  1  0
  4  9  1  0
  4 16  1  0
  4 17  1  0
  5  7  3  0
  6  8  3  0
  7 18  1  0
  8 19  1  0
M  RAD  1   1   2
M  END
>  <reaction>  (17) 
rxn_1224

>  <mol_properties>  (17) 
{"1": {"label": "*4", "atom_type": "Ct"}, "2": {"label": "*3", "atom_type": "Cs"}, "4": {"label": "*2", "atom_type": "H0"}, "8": {"label": "*0", "atom_type": "Ct"}, "9": {"label": "*1", "atom_type": "Cs"}}

>  <type>  (17) 
unop_13

>  <geom_source>  (17) 
AutoTST

$$$$
