
     RDKit          3D

 13 12  0  0  0  0  0  0  0  0999 V2000
    3.0977   -0.3549   -0.5105 C   0  0  0  0  0  0  0  0  0  0  0  0
    2.0556    0.4221   -0.2627 C   0  0  0  0  0  0  0  0  0  0  0  0
    0.6313   -0.0354   -0.2366 C   0  0  0  0  0  0  0  0  0  0  0  0
   -0.2567    0.6038   -1.2694 C   0  0  0  0  0  0  0  0  0  0  0  0
    0.1459    1.3456   -2.2891 C   0  0  0  0  0  0  0  0  0  0  0  0
    4.1081    0.0344   -0.5074 H   0  0  0  0  0  0  0  0  0  0  0  0
    2.9777   -1.4116   -0.7243 H   0  0  0  0  0  0  0  0  0  0  0  0
    2.2171    1.4781   -0.0618 H   0  0  0  0  0  0  0  0  0  0  0  0
    0.5865   -1.1233   -0.3540 H   0  0  0  0  0  0  0  0  0  0  0  0
    0.2065    0.1743    0.7521 H   0  0  0  0  0  0  0  0  0  0  0  0
   -1.3190    0.4126   -1.1445 H   0  0  0  0  0  0  0  0  0  0  0  0
    1.1948    1.5564   -2.4628 H   0  0  0  0  0  0  0  0  0  0  0  0
   -0.5644    1.7621   -2.9918 H   0  0  0  0  0  0  0  0  0  0  0  0
  1  2  2  3
  1  6  1  0
  1  7  1  0
  2  3  1  0
  2  8  1  0
  3  4  1  0
  3  9  1  0
  3 10  1  0
  4  5  2  3
  4 11  1  0
  5 12  1  0
  5 13  1  0
M  END
>  <reaction>  (1) 
rxn_1133

>  <mol_properties>  (1) 
{"2": {"label": "donator", "atom_type": "Cs"}, "8": {"label": "d_hydrogen", "atom_type": "H0"}}

>  <type>  (1) 
r1h

$$$$

     RDKit          3D

 15 14  0  0  0  0  0  0  0  0999 V2000
    2.4381    0.5770   -0.2356 C   0  0  0  0  0  0  0  0  0  0  0  0
    1.4430   -0.3367   -0.1409 C   0  0  0  0  0  0  0  0  0  0  0  0
    0.0521   -0.0957   -0.0045 C   0  0  0  0  0  3  0  0  0  0  0  0
   -0.5167    1.2867    0.0548 C   0  0  0  0  0  0  0  0  0  0  0  0
   -0.8226   -1.2147    0.0778 C   0  0  0  0  0  0  0  0  0  0  0  0
   -2.1666   -1.1669    0.2092 C   0  0  0  0  0  0  0  0  0  0  0  0
    3.4666    0.2585   -0.3369 H   0  0  0  0  0  0  0  0  0  0  0  0
    2.2594    1.6438   -0.2152 H   0  0  0  0  0  0  0  0  0  0  0  0
    1.7306   -1.3845   -0.1719 H   0  0  0  0  0  0  0  0  0  0  0  0
   -1.2300    1.4469   -0.7583 H   0  0  0  0  0  0  0  0  0  0  0  0
    0.2481    2.0557   -0.0178 H   0  0  0  0  0  0  0  0  0  0  0  0
   -1.0592    1.4421    0.9914 H   0  0  0  0  0  0  0  0  0  0  0  0
   -0.3519   -2.1929    0.0292 H   0  0  0  0  0  0  0  0  0  0  0  0
   -2.7080   -0.2310    0.2646 H   0  0  0  0  0  0  0  0  0  0  0  0
   -2.7513   -2.0751    0.2638 H   0  0  0  0  0  0  0  0  0  0  0  0
  1  2  2  3
  1  7  1  0
  1  8  1  0
  2  3  1  0
  2  9  1  0
  3  4  1  0
  3  5  1  0
  4 10  1  0
  4 11  1  0
  4 12  1  0
  5  6  2  3
  5 13  1  0
  6 14  1  0
  6 15  1  0
M  RAD  1   3   2
M  END
>  <reaction>  (2) 
rxn_1133

>  <mol_properties>  (2) 
{"2": {"label": "acceptor", "atom_type": "Cs"}}

>  <type>  (2) 
r2

$$$$

     RDKit          3D

 16 15  0  0  0  0  0  0  0  0999 V2000
    1.7961   -0.3807    1.6176 C   0  0  0  0  0  0  0  0  0  0  0  0
    0.8562   -0.8708    0.8256 C   0  0  0  0  0  0  0  0  0  0  0  0
    0.0895   -0.0826   -0.2048 C   0  0  0  0  0  0  0  0  0  0  0  0
   -1.4061   -0.1111    0.0982 C   0  0  0  0  0  0  0  0  0  0  0  0
    0.4476   -0.5902   -1.5797 C   0  0  0  0  0  0  0  0  0  0  0  0
   -0.3793   -1.1113   -2.4728 C   0  0  0  0  0  0  0  0  0  0  0  0
    2.3110   -1.0032    2.3386 H   0  0  0  0  0  0  0  0  0  0  0  0
    2.0846    0.6643    1.5737 H   0  0  0  0  0  0  0  0  0  0  0  0
    0.5921   -1.9241    0.8925 H   0  0  0  0  0  0  0  0  0  0  0  0
    0.4358    0.9557   -0.1462 H   0  0  0  0  0  0  0  0  0  0  0  0
   -1.5968    0.3080    1.0865 H   0  0  0  0  0  0  0  0  0  0  0  0
   -1.9674    0.4693   -0.6359 H   0  0  0  0  0  0  0  0  0  0  0  0
   -1.7902   -1.1338    0.0883 H   0  0  0  0  0  0  0  0  0  0  0  0
    1.5049   -0.5197   -1.8214 H   0  0  0  0  0  0  0  0  0  0  0  0
   -1.4421   -1.2131   -2.2889 H   0  0  0  0  0  0  0  0  0  0  0  0
   -0.0162   -1.4558   -3.4328 H   0  0  0  0  0  0  0  0  0  0  0  0
  1  2  2  3
  1  7  1  0
  1  8  1  0
  2  3  1  0
  2  9  1  0
  3  4  1  0
  3  5  1  0
  3 10  1  0
  4 11  1  0
  4 12  1  0
  4 13  1  0
  5  6  2  3
  5 14  1  0
  6 15  1  0
  6 16  1  0
M  END
>  <reaction>  (3) 
rxn_1133

>  <mol_properties>  (3) 
{"0": {"label": "a_hydrogen", "atom_type": "H0"}, "3": {"label": "acceptor", "atom_type": "Cs"}}

>  <type>  (3) 
r2h

$$$$

     RDKit          3D

 28 26  0  0  0  0  0  0  0  0999 V2000
   -0.8830   -2.3359   -0.3887 C   0  0  0  0  0  0  0  0  0  0  0  0
   -0.7492   -1.8013    0.8281 C   0  0  0  0  0  0  0  0  0  0  0  0
    0.3333   -0.9326    1.2871 C   0  0  0  0  0  3  0  0  0  0  0  0
    1.7492   -1.1632    1.0054 C   0  0  0  0  0  0  0  0  0  0  0  0
    2.3038   -2.1138    0.2504 C   0  0  0  0  0  0  0  0  0  0  0  0
   -1.7502   -2.9356   -0.6344 H   0  0  0  0  0  0  0  0  0  0  0  0
   -0.1547   -2.1752   -1.1723 H   0  0  0  0  0  0  0  0  0  0  0  0
   -1.5534   -1.9566    1.5409 H   0  0  0  0  0  0  0  0  0  0  0  0
    0.0795    0.2302    0.5943 H   0  0  0  0  0  0  0  0  0  0  0  0
    0.1697   -0.5343    2.2870 H   0  0  0  0  0  0  0  0  0  0  0  0
    2.4143   -0.4504    1.4860 H   0  0  0  0  0  0  0  0  0  0  0  0
    1.7192   -2.8832   -0.2352 H   0  0  0  0  0  0  0  0  0  0  0  0
    3.3782   -2.1584    0.1286 H   0  0  0  0  0  0  0  0  0  0  0  0
   -2.6501    1.2404    0.2455 C   0  0  0  0  0  0  0  0  0  0  0  0
   -1.4479    1.7609    0.4886 C   0  0  0  0  0  0  0  0  0  0  0  0
   -0.1627    1.3418   -0.1015 C   0  0  0  0  0  0  0  0  0  0  0  0
    1.0273    2.1953    0.2810 C   0  0  0  0  0  0  0  0  0  0  0  0
   -0.1863    0.8147   -1.4703 C   0  0  0  0  0  0  0  0  0  0  0  0
    0.8636    0.7046   -2.2862 C   0  0  0  0  0  0  0  0  0  0  0  0
   -3.5237    1.6006    0.7726 H   0  0  0  0  0  0  0  0  0  0  0  0
   -2.8074    0.4458   -0.4733 H   0  0  0  0  0  0  0  0  0  0  0  0
   -1.3743    2.5328    1.2504 H   0  0  0  0  0  0  0  0  0  0  0  0
    1.9670    1.6688    0.1100 H   0  0  0  0  0  0  0  0  0  0  0  0
    0.9848    2.4604    1.3386 H   0  0  0  0  0  0  0  0  0  0  0  0
    1.0518    3.1193   -0.3030 H   0  0  0  0  0  0  0  0  0  0  0  0
   -1.1461    0.4596   -1.8280 H   0  0  0  0  0  0  0  0  0  0  0  0
    1.8574    1.0291   -2.0061 H   0  0  0  0  0  0  0  0  0  0  0  0
    0.7505    0.2826   -3.2764 H   0  0  0  0  0  0  0  0  0  0  0  0
  1  2  2  3
  1  6  1  0
  1  7  1  0
  2  3  1  0
  2  8  1  0
  3  4  1  0
  3 10  1  0
  4  5  2  3
  4 11  1  0
  5 12  1  0
  5 13  1  0
  9 16  1  0
 14 15  2  3
 14 20  1  0
 14 21  1  0
 15 16  1  0
 15 22  1  0
 16 17  1  0
 16 18  1  0
 17 23  1  0
 17 24  1  0
 17 25  1  0
 18 19  2  3
 18 26  1  0
 19 27  1  0
 19 28  1  0
M  RAD  1   3   2
M  END
>  <reaction>  (4) 
rxn_1133

>  <mol_properties>  (4) 
{"1": {"label": "*4", "atom_type": "Cd"}, "2": {"label": "*3", "atom_type": "Cs"}, "8": {"label": "*2", "atom_type": "H0"}, "14": {"label": "*0", "atom_type": "Cd"}, "15": {"label": "*1", "atom_type": "Cs"}}

>  <type>  (4) 
ts

$$$$

     RDKit          3D

 28 26  0  0  0  0  0  0  0  0999 V2000
   -0.1188   -2.3567   -1.1319 C   0  0  0  0  0  0  0  0  0  0  0  0
   -0.1188   -2.3567    0.1913 C   0  0  0  0  0  0  0  0  0  0  0  0
   -0.1188   -1.1309    1.0493 C   0  0  0  0  0  0  0  0  0  0  0  0
    1.0909   -0.9765    1.9306 C   0  0  0  0  0  0  0  0  0  0  0  0
    2.2020   -1.6922    1.8581 C   0  0  0  0  0  0  0  0  0  0  0  0
   -0.1270   -3.2794   -1.6984 H   0  0  0  0  0  0  0  0  0  0  0  0
   -0.1125   -1.4312   -1.6979 H   0  0  0  0  0  0  0  0  0  0  0  0
   -0.1163   -3.3054    0.7219 H   0  0  0  0  0  0  0  0  0  0  0  0
   -0.2389   -0.0589    0.2988 H   0  0  0  0  0  0  0  0  0  0  0  0
   -1.0068   -1.1444    1.6921 H   0  0  0  0  0  0  0  0  0  0  0  0
    1.0182   -0.1915    2.6783 H   0  0  0  0  0  0  0  0  0  0  0  0
    2.3275   -2.4791    1.1232 H   0  0  0  0  0  0  0  0  0  0  0  0
    3.0302   -1.5079    2.5305 H   0  0  0  0  0  0  0  0  0  0  0  0
   -1.9373    1.8066    1.3374 C   0  0  0  0  0  0  0  0  0  0  0  0
   -1.0747    2.0576    0.3659 C   0  0  0  0  0  0  0  0  0  0  0  0
   -0.3591    1.0141   -0.4524 C   0  0  0  0  0  3  0  0  0  0  0  0
    1.1528    1.1458   -0.2904 C   0  0  0  0  0  0  0  0  0  0  0  0
   -0.8334    1.0989   -1.8821 C   0  0  0  0  0  0  0  0  0  0  0  0
   -0.0919    1.3491   -2.9501 C   0  0  0  0  0  0  0  0  0  0  0  0
   -2.4188    2.6050    1.8880 H   0  0  0  0  0  0  0  0  0  0  0  0
   -2.1928    0.7903    1.6185 H   0  0  0  0  0  0  0  0  0  0  0  0
   -0.8421    3.0882    0.1065 H   0  0  0  0  0  0  0  0  0  0  0  0
    1.6783    0.3844   -0.8692 H   0  0  0  0  0  0  0  0  0  0  0  0
    1.4291    1.0321    0.7581 H   0  0  0  0  0  0  0  0  0  0  0  0
    1.5005    2.1262   -0.6240 H   0  0  0  0  0  0  0  0  0  0  0  0
   -1.9026    0.9497   -2.0085 H   0  0  0  0  0  0  0  0  0  0  0  0
    0.9774    1.5116   -2.8883 H   0  0  0  0  0  0  0  0  0  0  0  0
   -0.5355    1.3976   -3.9365 H   0  0  0  0  0  0  0  0  0  0  0  0
  1  2  2  3
  1  6  1  0
  1  7  1  0
  2  3  1  0
  2  8  1  0
  3  4  1  0
  3  9  1  0
  3 10  1  0
  4  5  2  3
  4 11  1  0
  5 12  1  0
  5 13  1  0
 14 15  2  3
 14 20  1  0
 14 21  1  0
 15 16  1  0
 15 22  1  0
 16 17  1  0
 16 18  1  0
 17 23  1  0
 17 24  1  0
 17 25  1  0
 18 19  2  3
 18 26  1  0
 19 27  1  0
 19 28  1  0
M  RAD  1  16   2
M  END
>  <reaction>  (5) 
rxn_1133

>  <mol_properties>  (5) 
{"1": {"label": "*4", "atom_type": "Cd"}, "2": {"label": "*3", "atom_type": "Cs"}, "8": {"label": "*2", "atom_type": "H0"}, "14": {"label": "*0", "atom_type": "Cd"}, "15": {"label": "*1", "atom_type": "Cs"}}

>  <type>  (5) 
unop_1

>  <geom_source>  (5) 
Heuristics

$$$$

     RDKit          3D

 28 26  0  0  0  0  0  0  0  0999 V2000
   -0.1187   -2.3145   -1.0695 C   0  0  0  0  0  0  0  0  0  0  0  0
   -0.1187   -2.3145    0.2538 C   0  0  0  0  0  0  0  0  0  0  0  0
   -0.1187   -1.0887    1.1118 C   0  0  0  0  0  0  0  0  0  0  0  0
    1.0911   -0.9344    1.9930 C   0  0  0  0  0  0  0  0  0  0  0  0
    2.2022   -1.6501    1.9205 C   0  0  0  0  0  0  0  0  0  0  0  0
   -0.1268   -3.2373   -1.6360 H   0  0  0  0  0  0  0  0  0  0  0  0
   -0.1123   -1.3891   -1.6355 H   0  0  0  0  0  0  0  0  0  0  0  0
   -0.1161   -3.2633    0.7843 H   0  0  0  0  0  0  0  0  0  0  0  0
   -0.2387   -0.0167    0.3612 H   0  0  0  0  0  0  0  0  0  0  0  0
   -1.0066   -1.1022    1.7545 H   0  0  0  0  0  0  0  0  0  0  0  0
    1.0184   -0.1493    2.7407 H   0  0  0  0  0  0  0  0  0  0  0  0
    2.3277   -2.4369    1.1857 H   0  0  0  0  0  0  0  0  0  0  0  0
    3.0304   -1.4658    2.5929 H   0  0  0  0  0  0  0  0  0  0  0  0
   -2.2038   -0.1933   -1.5552 C   0  0  0  0  0  0  0  0  0  0  0  0
   -1.6636    0.9392   -1.1350 C   0  0  0  0  0  0  0  0  0  0  0  0
   -0.3589    1.0562   -0.3900 C   0  0  0  0  0  3  0  0  0  0  0  0
   -0.5760    1.6932    0.9798 C   0  0  0  0  0  0  0  0  0  0  0  0
    0.6387    1.7855   -1.2556 C   0  0  0  0  0  0  0  0  0  0  0  0
    1.2511    2.9246   -0.9721 C   0  0  0  0  0  0  0  0  0  0  0  0
   -3.1467   -0.2082   -2.0873 H   0  0  0  0  0  0  0  0  0  0  0  0
   -1.7213   -1.1492   -1.3807 H   0  0  0  0  0  0  0  0  0  0  0  0
   -2.1716    1.8816   -1.3286 H   0  0  0  0  0  0  0  0  0  0  0  0
    0.3624    1.7688    1.5317 H   0  0  0  0  0  0  0  0  0  0  0  0
   -1.2724    1.0935    1.5664 H   0  0  0  0  0  0  0  0  0  0  0  0
   -0.9961    2.6972    0.8849 H   0  0  0  0  0  0  0  0  0  0  0  0
    0.8388    1.3050   -2.2098 H   0  0  0  0  0  0  0  0  0  0  0  0
    1.0895    3.4535   -0.0406 H   0  0  0  0  0  0  0  0  0  0  0  0
    1.9469    3.3711   -1.6712 H   0  0  0  0  0  0  0  0  0  0  0  0
  1  2  2  3
  1  6  1  0
  1  7  1  0
  2  3  1  0
  2  8  1  0
  3  4  1  0
  3  9  1  0
  3 10  1  0
  4  5  2  3
  4 11  1  0
  5 12  1  0
  5 13  1  0
 14 15  2  3
 14 20  1  0
 14 21  1  0
 15 16  1  0
 15 22  1  0
 16 17  1  0
 16 18  1  0
 17 23  1  0
 17 24  1  0
 17 25  1  0
 18 19  2  3
 18 26  1  0
 19 27  1  0
 19 28  1  0
M  RAD  1  16   2
M  END
>  <reaction>  (6) 
rxn_1133

>  <mol_properties>  (6) 
{"1": {"label": "*4", "atom_type": "Cd"}, "2": {"label": "*3", "atom_type": "Cs"}, "8": {"label": "*2", "atom_type": "H0"}, "14": {"label": "*0", "atom_type": "Cd"}, "15": {"label": "*1", "atom_type": "Cs"}}

>  <type>  (6) 
unop_2

>  <geom_source>  (6) 
Heuristics

$$$$

     RDKit          3D

 28 26  0  0  0  0  0  0  0  0999 V2000
   -0.0541   -2.3437   -1.1815 C   0  0  0  0  0  0  0  0  0  0  0  0
   -0.0541   -2.3437    0.1417 C   0  0  0  0  0  0  0  0  0  0  0  0
   -0.0541   -1.1179    0.9997 C   0  0  0  0  0  0  0  0  0  0  0  0
    1.1556   -0.9635    1.8809 C   0  0  0  0  0  0  0  0  0  0  0  0
    2.2668   -1.6792    1.8085 C   0  0  0  0  0  0  0  0  0  0  0  0
   -0.0623   -3.2665   -1.7481 H   0  0  0  0  0  0  0  0  0  0  0  0
   -0.0477   -1.4183   -1.7475 H   0  0  0  0  0  0  0  0  0  0  0  0
   -0.0515   -3.2925    0.6722 H   0  0  0  0  0  0  0  0  0  0  0  0
   -0.1742   -0.0459    0.2492 H   0  0  0  0  0  0  0  0  0  0  0  0
   -0.9421   -1.1314    1.6425 H   0  0  0  0  0  0  0  0  0  0  0  0
    1.0829   -0.1785    2.6286 H   0  0  0  0  0  0  0  0  0  0  0  0
    2.3922   -2.4661    1.0736 H   0  0  0  0  0  0  0  0  0  0  0  0
    3.0950   -1.4949    2.4808 H   0  0  0  0  0  0  0  0  0  0  0  0
   -0.2109    2.1692    1.7364 C   0  0  0  0  0  0  0  0  0  0  0  0
   -0.2878    2.2216    0.4165 C   0  0  0  0  0  0  0  0  0  0  0  0
   -0.2944    1.0270   -0.5021 C   0  0  0  0  0  3  0  0  0  0  0  0
    0.8904    1.0797   -1.4628 C   0  0  0  0  0  0  0  0  0  0  0  0
   -1.6364    0.9390   -1.1858 C   0  0  0  0  0  0  0  0  0  0  0  0
   -1.8670    0.9849   -2.4887 C   0  0  0  0  0  0  0  0  0  0  0  0
   -0.2116    3.0680    2.3402 H   0  0  0  0  0  0  0  0  0  0  0  0
   -0.1432    1.2225    2.2620 H   0  0  0  0  0  0  0  0  0  0  0  0
   -0.3575    3.1871   -0.0801 H   0  0  0  0  0  0  0  0  0  0  0  0
    0.9008    0.2105   -2.1225 H   0  0  0  0  0  0  0  0  0  0  0  0
    1.8263    1.0982   -0.9038 H   0  0  0  0  0  0  0  0  0  0  0  0
    0.8536    1.9774   -2.0843 H   0  0  0  0  0  0  0  0  0  0  0  0
   -2.4794    0.8447   -0.5063 H   0  0  0  0  0  0  0  0  0  0  0  0
   -1.0697    1.0831   -3.2155 H   0  0  0  0  0  0  0  0  0  0  0  0
   -2.8754    0.9219   -2.8778 H   0  0  0  0  0  0  0  0  0  0  0  0
  1  2  2  3
  1  6  1  0
  1  7  1  0
  2  3  1  0
  2  8  1  0
  3  4  1  0
  3  9  1  0
  3 10  1  0
  4  5  2  3
  4 11  1  0
  5 12  1  0
  5 13  1  0
 14 15  2  3
 14 20  1  0
 14 21  1  0
 15 16  1  0
 15 22  1  0
 16 17  1  0
 16 18  1  0
 17 23  1  0
 17 24  1  0
 17 25  1  0
 18 19  2  3
 18 26  1  0
 19 27  1  0
 19 28  1  0
M  RAD  1  16   2
M  END
>  <reaction>  (7) 
rxn_1133

>  <mol_properties>  (7) 
{"1": {"label": "*4", "atom_type": "Cd"}, "2": {"label": "*3", "atom_type": "Cs"}, "8": {"label": "*2", "atom_type": "H0"}, "14": {"label": "*0", "atom_type": "Cd"}, "15": {"label": "*1", "atom_type": "Cs"}}

>  <type>  (7) 
unop_3

>  <geom_source>  (7) 
Heuristics

$$$$

     RDKit          3D

 28 26  0  0  0  0  0  0  0  0999 V2000
   -0.0658   -2.3469   -1.3079 C   0  0  0  0  0  0  0  0  0  0  0  0
   -0.0658   -2.3469    0.0154 C   0  0  0  0  0  0  0  0  0  0  0  0
   -0.0658   -1.1211    0.8734 C   0  0  0  0  0  0  0  0  0  0  0  0
    1.1439   -0.9667    1.7546 C   0  0  0  0  0  0  0  0  0  0  0  0
    2.2550   -1.6824    1.6821 C   0  0  0  0  0  0  0  0  0  0  0  0
   -0.0740   -3.2696   -1.8744 H   0  0  0  0  0  0  0  0  0  0  0  0
   -0.0595   -1.4214   -1.8739 H   0  0  0  0  0  0  0  0  0  0  0  0
   -0.0633   -3.2956    0.5459 H   0  0  0  0  0  0  0  0  0  0  0  0
   -0.1859   -0.0491    0.1228 H   0  0  0  0  0  0  0  0  0  0  0  0
   -0.9538   -1.1345    1.5161 H   0  0  0  0  0  0  0  0  0  0  0  0
    1.0712   -0.1817    2.5023 H   0  0  0  0  0  0  0  0  0  0  0  0
    2.3805   -2.4692    0.9473 H   0  0  0  0  0  0  0  0  0  0  0  0
    3.0832   -1.4981    2.3545 H   0  0  0  0  0  0  0  0  0  0  0  0
    1.3973    1.9984    0.9436 C   0  0  0  0  0  0  0  0  0  0  0  0
    0.4099    2.1476    0.0754 C   0  0  0  0  0  0  0  0  0  0  0  0
   -0.3061    1.0239   -0.6284 C   0  0  0  0  0  3  0  0  0  0  0  0
   -0.1515    1.1507   -2.1415 C   0  0  0  0  0  0  0  0  0  0  0  0
   -1.7392    0.9823   -0.1586 C   0  0  0  0  0  0  0  0  0  0  0  0
   -2.8230    1.1234   -0.9059 C   0  0  0  0  0  0  0  0  0  0  0  0
    1.8701    2.8503    1.4160 H   0  0  0  0  0  0  0  0  0  0  0  0
    1.7701    1.0158    1.2130 H   0  0  0  0  0  0  0  0  0  0  0  0
    0.0572    3.1468   -0.1712 H   0  0  0  0  0  0  0  0  0  0  0  0
   -0.6556    0.3325   -2.6584 H   0  0  0  0  0  0  0  0  0  0  0  0
    0.9040    1.1308   -2.4138 H   0  0  0  0  0  0  0  0  0  0  0  0
   -0.5730    2.0916   -2.5028 H   0  0  0  0  0  0  0  0  0  0  0  0
   -1.8550    0.8357    0.9121 H   0  0  0  0  0  0  0  0  0  0  0  0
   -2.7727    1.2772   -1.9770 H   0  0  0  0  0  0  0  0  0  0  0  0
   -3.8113    1.0862   -0.4653 H   0  0  0  0  0  0  0  0  0  0  0  0
  1  2  2  3
  1  6  1  0
  1  7  1  0
  2  3  1  0
  2  8  1  0
  3  4  1  0
  3  9  1  0
  3 10  1  0
  4  5  2  3
  4 11  1  0
  5 12  1  0
  5 13  1  0
 14 15  2  3
 14 20  1  0
 14 21  1  0
 15 16  1  0
 15 22  1  0
 16 17  1  0
 16 18  1  0
 17 23  1  0
 17 24  1  0
 17 25  1  0
 18 19  2  3
 18 26  1  0
 19 27  1  0
 19 28  1  0
M  RAD  1  16   2
M  END
>  <reaction>  (8) 
rxn_1133

>  <mol_properties>  (8) 
{"1": {"label": "*4", "atom_type": "Cd"}, "2": {"label": "*3", "atom_type": "Cs"}, "8": {"label": "*2", "atom_type": "H0"}, "14": {"label": "*0", "atom_type": "Cd"}, "15": {"label": "*1", "atom_type": "Cs"}}

>  <type>  (8) 
unop_4

>  <geom_source>  (8) 
Heuristics

$$$$

     RDKit          3D

 28 26  0  0  0  0  0  0  0  0999 V2000
   -0.3691   -2.3205   -1.2506 C   0  0  0  0  0  0  0  0  0  0  0  0
   -0.3691   -2.3205    0.0727 C   0  0  0  0  0  0  0  0  0  0  0  0
   -0.3691   -1.0947    0.9307 C   0  0  0  0  0  0  0  0  0  0  0  0
    0.8406   -0.9404    1.8119 C   0  0  0  0  0  0  0  0  0  0  0  0
    1.9517   -1.6561    1.7394 C   0  0  0  0  0  0  0  0  0  0  0  0
   -0.3773   -3.2433   -1.8171 H   0  0  0  0  0  0  0  0  0  0  0  0
   -0.3628   -1.3951   -1.8166 H   0  0  0  0  0  0  0  0  0  0  0  0
   -0.3666   -3.2693    0.6032 H   0  0  0  0  0  0  0  0  0  0  0  0
   -0.4892   -0.0228    0.1801 H   0  0  0  0  0  0  0  0  0  0  0  0
   -1.2571   -1.1082    1.5734 H   0  0  0  0  0  0  0  0  0  0  0  0
    0.7679   -0.1553    2.5596 H   0  0  0  0  0  0  0  0  0  0  0  0
    2.0772   -2.4429    1.0046 H   0  0  0  0  0  0  0  0  0  0  0  0
    2.7800   -1.4718    2.4118 H   0  0  0  0  0  0  0  0  0  0  0  0
    1.1940    0.0029   -1.9759 C   0  0  0  0  0  0  0  0  0  0  0  0
    0.5655    1.0720   -1.5144 C   0  0  0  0  0  0  0  0  0  0  0  0
   -0.6094    1.0502   -0.5711 C   0  0  0  0  0  3  0  0  0  0  0  0
   -1.8258    1.7145   -1.2102 C   0  0  0  0  0  0  0  0  0  0  0  0
   -0.1959    1.6616    0.7447 C   0  0  0  0  0  0  0  0  0  0  0  0
   -0.7239    2.7287    1.3240 C   0  0  0  0  0  0  0  0  0  0  0  0
    2.0348    0.0880   -2.6528 H   0  0  0  0  0  0  0  0  0  0  0  0
    0.8885   -0.9989   -1.6931 H   0  0  0  0  0  0  0  0  0  0  0  0
    0.8986    2.0631   -1.8151 H   0  0  0  0  0  0  0  0  0  0  0  0
   -2.6855    1.6904   -0.5385 H   0  0  0  0  0  0  0  0  0  0  0  0
   -2.0949    1.1975   -2.1316 H   0  0  0  0  0  0  0  0  0  0  0  0
   -1.6189    2.7578   -1.4597 H   0  0  0  0  0  0  0  0  0  0  0  0
    0.6347    1.1571    1.2313 H   0  0  0  0  0  0  0  0  0  0  0  0
   -1.5494    3.2772    0.8863 H   0  0  0  0  0  0  0  0  0  0  0  0
   -0.3447    3.0929    2.2704 H   0  0  0  0  0  0  0  0  0  0  0  0
  1  2  2  3
  1  6  1  0
  1  7  1  0
  2  3  1  0
  2  8  1  0
  3  4  1  0
  3  9  1  0
  3 10  1  0
  4  5  2  3
  4 11  1  0
  5 12  1  0
  5 13  1  0
 14 15  2  3
 14 20  1  0
 14 21  1  0
 15 16  1  0
 15 22  1  0
 16 17  1  0
 16 18  1  0
 17 23  1  0
 17 24  1  0
 17 25  1  0
 18 19  2  3
 18 26  1  0
 19 27  1  0
 19 28  1  0
M  RAD  1  16   2
M  END
>  <reaction>  (9) 
rxn_1133

>  <mol_properties>  (9) 
{"1": {"label": "*4", "atom_type": "Cd"}, "2": {"label": "*3", "atom_type": "Cs"}, "8": {"label": "*2", "atom_type": "H0"}, "14": {"label": "*0", "atom_type": "Cd"}, "15": {"label": "*1", "atom_type": "Cs"}}

>  <type>  (9) 
unop_5

>  <geom_source>  (9) 
Heuristics

$$$$

     RDKit          3D

 28 26  0  0  0  0  0  0  0  0999 V2000
   -0.2947   -2.3463   -1.3407 C   0  0  0  0  0  0  0  0  0  0  0  0
   -0.2947   -2.3463   -0.0174 C   0  0  0  0  0  0  0  0  0  0  0  0
   -0.2947   -1.1205    0.8406 C   0  0  0  0  0  0  0  0  0  0  0  0
    0.9150   -0.9662    1.7218 C   0  0  0  0  0  0  0  0  0  0  0  0
    2.0262   -1.6819    1.6493 C   0  0  0  0  0  0  0  0  0  0  0  0
   -0.3029   -3.2691   -1.9072 H   0  0  0  0  0  0  0  0  0  0  0  0
   -0.2883   -1.4209   -1.9067 H   0  0  0  0  0  0  0  0  0  0  0  0
   -0.2921   -3.2951    0.5131 H   0  0  0  0  0  0  0  0  0  0  0  0
   -0.4148   -0.0486    0.0900 H   0  0  0  0  0  0  0  0  0  0  0  0
   -1.1827   -1.1340    1.4834 H   0  0  0  0  0  0  0  0  0  0  0  0
    0.8423   -0.1811    2.4695 H   0  0  0  0  0  0  0  0  0  0  0  0
    2.1517   -2.4687    0.9145 H   0  0  0  0  0  0  0  0  0  0  0  0
    2.8544   -1.4976    2.3217 H   0  0  0  0  0  0  0  0  0  0  0  0
    1.8705    0.6651   -1.2992 C   0  0  0  0  0  0  0  0  0  0  0  0
    0.8556    1.4710   -1.0323 C   0  0  0  0  0  0  0  0  0  0  0  0
   -0.5350    1.0244   -0.6612 C   0  0  0  0  0  3  0  0  0  0  0  0
   -1.5544    1.5396   -1.6735 C   0  0  0  0  0  0  0  0  0  0  0  0
   -0.8208    1.4353    0.7621 C   0  0  0  0  0  0  0  0  0  0  0  0
   -1.7898    2.2365    1.1767 C   0  0  0  0  0  0  0  0  0  0  0  0
    2.8479    1.0516   -1.5595 H   0  0  0  0  0  0  0  0  0  0  0  0
    1.7597   -0.4137   -1.2677 H   0  0  0  0  0  0  0  0  0  0  0  0
    1.0005    2.5486   -1.0697 H   0  0  0  0  0  0  0  0  0  0  0  0
   -2.5628    1.2087   -1.4195 H   0  0  0  0  0  0  0  0  0  0  0  0
   -1.3125    1.1709   -2.6706 H   0  0  0  0  0  0  0  0  0  0  0  0
   -1.5546    2.6315   -1.7110 H   0  0  0  0  0  0  0  0  0  0  0  0
   -0.1298    1.0247    1.4937 H   0  0  0  0  0  0  0  0  0  0  0  0
   -2.5060    2.6805    0.4960 H   0  0  0  0  0  0  0  0  0  0  0  0
   -1.9025    2.4762    2.2265 H   0  0  0  0  0  0  0  0  0  0  0  0
  1  2  2  3
  1  6  1  0
  1  7  1  0
  2  3  1  0
  2  8  1  0
  3  4  1  0
  3  9  1  0
  3 10  1  0
  4  5  2  3
  4 11  1  0
  5 12  1  0
  5 13  1  0
 14 15  2  3
 14 20  1  0
 14 21  1  0
 15 16  1  0
 15 22  1  0
 16 17  1  0
 16 18  1  0
 17 23  1  0
 17 24  1  0
 17 25  1  0
 18 19  2  3
 18 26  1  0
 19 27  1  0
 19 28  1  0
M  RAD  1  16   2
M  END
>  <reaction>  (10) 
rxn_1133

>  <mol_properties>  (10) 
{"1": {"label": "*4", "atom_type": "Cd"}, "2": {"label": "*3", "atom_type": "Cs"}, "8": {"label": "*2", "atom_type": "H0"}, "14": {"label": "*0", "atom_type": "Cd"}, "15": {"label": "*1", "atom_type": "Cs"}}

>  <type>  (10) 
unop_6

>  <geom_source>  (10) 
Heuristics

$$$$

     RDKit          3D

 28 26  0  0  0  0  0  0  0  0999 V2000
   -0.1281   -2.3615   -1.1364 C   0  0  0  0  0  0  0  0  0  0  0  0
   -0.1281   -2.3615    0.1869 C   0  0  0  0  0  0  0  0  0  0  0  0
   -0.1281   -1.1357    1.0449 C   0  0  0  0  0  0  0  0  0  0  0  0
    1.0817   -0.9814    1.9261 C   0  0  0  0  0  0  0  0  0  0  0  0
    2.1928   -1.6970    1.8536 C   0  0  0  0  0  0  0  0  0  0  0  0
   -0.1362   -3.2843   -1.7029 H   0  0  0  0  0  0  0  0  0  0  0  0
   -0.1217   -1.4361   -1.7024 H   0  0  0  0  0  0  0  0  0  0  0  0
   -0.1255   -3.3103    0.7174 H   0  0  0  0  0  0  0  0  0  0  0  0
   -0.2481   -0.0637    0.2943 H   0  0  0  0  0  0  0  0  0  0  0  0
   -1.0160   -1.1492    1.6876 H   0  0  0  0  0  0  0  0  0  0  0  0
    1.0090   -0.1963    2.6738 H   0  0  0  0  0  0  0  0  0  0  0  0
    2.3183   -2.4839    1.1188 H   0  0  0  0  0  0  0  0  0  0  0  0
    3.0210   -1.5127    2.5260 H   0  0  0  0  0  0  0  0  0  0  0  0
   -2.7627    1.1290    0.3016 C   0  0  0  0  0  0  0  0  0  0  0  0
   -1.6253    1.7203   -0.0267 C   0  0  0  0  0  0  0  0  0  0  0  0
   -0.3683    1.0092   -0.4569 C   0  0  0  0  0  3  0  0  0  0  0  0
    0.7813    1.3228    0.4967 C   0  0  0  0  0  0  0  0  0  0  0  0
   -0.0801    1.3473   -1.8987 C   0  0  0  0  0  0  0  0  0  0  0  0
    1.0038    1.9419   -2.3724 C   0  0  0  0  0  0  0  0  0  0  0  0
   -3.6321    1.7001    0.6023 H   0  0  0  0  0  0  0  0  0  0  0  0
   -2.8650    0.0491    0.2823 H   0  0  0  0  0  0  0  0  0  0  0  0
   -1.5564    2.8057    0.0002 H   0  0  0  0  0  0  0  0  0  0  0  0
    1.6922    0.8003    0.2000 H   0  0  0  0  0  0  0  0  0  0  0  0
    0.5228    1.0147    1.5101 H   0  0  0  0  0  0  0  0  0  0  0  0
    0.9952    2.3940    0.5165 H   0  0  0  0  0  0  0  0  0  0  0  0
   -0.8735    1.0743   -2.5896 H   0  0  0  0  0  0  0  0  0  0  0  0
    1.8259    2.2426   -1.7341 H   0  0  0  0  0  0  0  0  0  0  0  0
    1.1081    2.1483   -3.4301 H   0  0  0  0  0  0  0  0  0  0  0  0
  1  2  2  3
  1  6  1  0
  1  7  1  0
  2  3  1  0
  2  8  1  0
  3  4  1  0
  3  9  1  0
  3 10  1  0
  4  5  2  3
  4 11  1  0
  5 12  1  0
  5 13  1  0
 14 15  2  3
 14 20  1  0
 14 21  1  0
 15 16  1  0
 15 22  1  0
 16 17  1  0
 16 18  1  0
 17 23  1  0
 17 24  1  0
 17 25  1  0
 18 19  2  3
 18 26  1  0
 19 27  1  0
 19 28  1  0
M  RAD  1  16   2
M  END
>  <reaction>  (11) 
rxn_1133

>  <mol_properties>  (11) 
{"1": {"label": "*4", "atom_type": "Cd"}, "2": {"label": "*3", "atom_type": "Cs"}, "8": {"label": "*2", "atom_type": "H0"}, "14": {"label": "*0", "atom_type": "Cd"}, "15": {"label": "*1", "atom_type": "Cs"}}

>  <type>  (11) 
unop_7

>  <geom_source>  (11) 
Heuristics

$$$$

     RDKit          3D

 28 26  0  0  0  0  0  0  0  0999 V2000
   -0.1095   -2.3455   -1.1167 C   0  0  0  0  0  0  0  0  0  0  0  0
   -0.1095   -2.3455    0.2065 C   0  0  0  0  0  0  0  0  0  0  0  0
   -0.1095   -1.1197    1.0645 C   0  0  0  0  0  0  0  0  0  0  0  0
    1.1002   -0.9653    1.9457 C   0  0  0  0  0  0  0  0  0  0  0  0
    2.2113   -1.6810    1.8733 C   0  0  0  0  0  0  0  0  0  0  0  0
   -0.1177   -3.2682   -1.6833 H   0  0  0  0  0  0  0  0  0  0  0  0
   -0.1032   -1.4200   -1.6827 H   0  0  0  0  0  0  0  0  0  0  0  0
   -0.1070   -3.2942    0.7370 H   0  0  0  0  0  0  0  0  0  0  0  0
   -0.2296   -0.0477    0.3140 H   0  0  0  0  0  0  0  0  0  0  0  0
   -0.9975   -1.1332    1.7073 H   0  0  0  0  0  0  0  0  0  0  0  0
    1.0275   -0.1803    2.6934 H   0  0  0  0  0  0  0  0  0  0  0  0
    2.3368   -2.4679    1.1384 H   0  0  0  0  0  0  0  0  0  0  0  0
    3.0396   -1.4967    2.5456 H   0  0  0  0  0  0  0  0  0  0  0  0
   -2.7645    0.3985   -0.7517 C   0  0  0  0  0  0  0  0  0  0  0  0
   -1.8224    1.3115   -0.5793 C   0  0  0  0  0  0  0  0  0  0  0  0
   -0.3498    1.0253   -0.4373 C   0  0  0  0  0  3  0  0  0  0  0  0
    0.1695    1.5278    0.9070 C   0  0  0  0  0  0  0  0  0  0  0  0
    0.3797    1.5940   -1.6292 C   0  0  0  0  0  0  0  0  0  0  0  0
    1.3330    2.5126   -1.6111 C   0  0  0  0  0  0  0  0  0  0  0  0
   -3.8078    0.6718   -0.8478 H   0  0  0  0  0  0  0  0  0  0  0  0
   -2.5253   -0.6586   -0.8020 H   0  0  0  0  0  0  0  0  0  0  0  0
   -2.0951    2.3639   -0.5361 H   0  0  0  0  0  0  0  0  0  0  0  0
    1.2328    1.3117    1.0237 H   0  0  0  0  0  0  0  0  0  0  0  0
   -0.3707    1.0455    1.7220 H   0  0  0  0  0  0  0  0  0  0  0  0
    0.0295    2.6068    1.0046 H   0  0  0  0  0  0  0  0  0  0  0  0
    0.0512    1.1969   -2.5861 H   0  0  0  0  0  0  0  0  0  0  0  0
    1.6993    2.9499   -0.6902 H   0  0  0  0  0  0  0  0  0  0  0  0
    1.7876    2.8608   -2.5300 H   0  0  0  0  0  0  0  0  0  0  0  0
  1  2  2  3
  1  6  1  0
  1  7  1  0
  2  3  1  0
  2  8  1  0
  3  4  1  0
  3  9  1  0
  3 10  1  0
  4  5  2  3
  4 11  1  0
  5 12  1  0
  5 13  1  0
 14 15  2  3
 14 20  1  0
 14 21  1  0
 15 16  1  0
 15 22  1  0
 16 17  1  0
 16 18  1  0
 17 23  1  0
 17 24  1  0
 17 25  1  0
 18 19  2  3
 18 26  1  0
 19 27  1  0
 19 28  1  0
M  RAD  1  16   2
M  END
>  <reaction>  (12) 
rxn_1133

>  <mol_properties>  (12) 
{"1": {"label": "*4", "atom_type": "Cd"}, "2": {"label": "*3", "atom_type": "Cs"}, "8": {"label": "*2", "atom_type": "H0"}, "14": {"label": "*0", "atom_type": "Cd"}, "15": {"label": "*1", "atom_type": "Cs"}}

>  <type>  (12) 
unop_8

>  <geom_source>  (12) 
Heuristics

$$$$

     RDKit          3D

 28 26  0  0  0  0  0  0  0  0999 V2000
   -0.1762   -2.3548   -1.3687 C   0  0  0  0  0  0  0  0  0  0  0  0
   -0.1762   -2.3548   -0.0455 C   0  0  0  0  0  0  0  0  0  0  0  0
   -0.1762   -1.1290    0.8125 C   0  0  0  0  0  0  0  0  0  0  0  0
    1.0335   -0.9746    1.6937 C   0  0  0  0  0  0  0  0  0  0  0  0
    2.1446   -1.6903    1.6213 C   0  0  0  0  0  0  0  0  0  0  0  0
   -0.1844   -3.2775   -1.9353 H   0  0  0  0  0  0  0  0  0  0  0  0
   -0.1699   -1.4294   -1.9347 H   0  0  0  0  0  0  0  0  0  0  0  0
   -0.1737   -3.3036    0.4851 H   0  0  0  0  0  0  0  0  0  0  0  0
   -0.2963   -0.0570    0.0620 H   0  0  0  0  0  0  0  0  0  0  0  0
   -1.0642   -1.1425    1.4553 H   0  0  0  0  0  0  0  0  0  0  0  0
    0.9608   -0.1896    2.4415 H   0  0  0  0  0  0  0  0  0  0  0  0
    2.2701   -2.4772    0.8864 H   0  0  0  0  0  0  0  0  0  0  0  0
    2.9729   -1.5060    2.2936 H   0  0  0  0  0  0  0  0  0  0  0  0
    2.0298    1.4044   -0.2566 C   0  0  0  0  0  0  0  0  0  0  0  0
    0.8060    1.8659   -0.4575 C   0  0  0  0  0  0  0  0  0  0  0  0
   -0.4165    1.0160   -0.6893 C   0  0  0  0  0  3  0  0  0  0  0  0
   -1.0401    1.3280   -2.0469 C   0  0  0  0  0  0  0  0  0  0  0  0
   -1.3617    1.1850    0.4744 C   0  0  0  0  0  0  0  0  0  0  0  0
   -2.6042    1.6398    0.4272 C   0  0  0  0  0  0  0  0  0  0  0  0
    2.8675    2.0711   -0.0950 H   0  0  0  0  0  0  0  0  0  0  0  0
    2.2385    0.3397   -0.2476 H   0  0  0  0  0  0  0  0  0  0  0  0
    0.6296    2.9394   -0.4576 H   0  0  0  0  0  0  0  0  0  0  0  0
   -1.9184    0.7065   -2.2286 H   0  0  0  0  0  0  0  0  0  0  0  0
   -0.3180    1.1439   -2.8427 H   0  0  0  0  0  0  0  0  0  0  0  0
   -1.3463    2.3749   -2.1081 H   0  0  0  0  0  0  0  0  0  0  0  0
   -0.9394    0.9102    1.4375 H   0  0  0  0  0  0  0  0  0  0  0  0
   -3.0788    1.9344   -0.5011 H   0  0  0  0  0  0  0  0  0  0  0  0
   -3.1979    1.7312    1.3279 H   0  0  0  0  0  0  0  0  0  0  0  0
  1  2  2  3
  1  6  1  0
  1  7  1  0
  2  3  1  0
  2  8  1  0
  3  4  1  0
  3  9  1  0
  3 10  1  0
  4  5  2  3
  4 11  1  0
  5 12  1  0
  5 13  1  0
 14 15  2  3
 14 20  1  0
 14 21  1  0
 15 16  1  0
 15 22  1  0
 16 17  1  0
 16 18  1  0
 17 23  1  0
 17 24  1  0
 17 25  1  0
 18 19  2  3
 18 26  1  0
 19 27  1  0
 19 28  1  0
M  RAD  1  16   2
M  END
>  <reaction>  (13) 
rxn_1133

>  <mol_properties>  (13) 
{"1": {"label": "*4", "atom_type": "Cd"}, "2": {"label": "*3", "atom_type": "Cs"}, "8": {"label": "*2", "atom_type": "H0"}, "14": {"label": "*0", "atom_type": "Cd"}, "15": {"label": "*1", "atom_type": "Cs"}}

>  <type>  (13) 
unop_9

>  <geom_source>  (13) 
Heuristics

$$$$

     RDKit          3D

 28 25  0  0  0  0  0  0  0  0999 V2000
   -0.1848   -2.2852   -1.0292 C   0  0  0  0  0  2  0  0  0  0  0  0
   -0.1848   -2.2852    0.2940 C   0  0  0  0  0  2  0  0  0  0  0  0
   -0.1848   -1.0594    1.1520 C   0  0  0  0  0  0  0  0  0  0  0  0
    1.0249   -0.9050    2.0332 C   0  0  0  0  0  0  0  0  0  0  0  0
    2.1361   -1.6207    1.9608 C   0  0  0  0  0  0  0  0  0  0  0  0
   -0.1930   -3.2079   -1.5958 H   0  0  0  0  0  0  0  0  0  0  0  0
   -0.1785   -1.3598   -1.5952 H   0  0  0  0  0  0  0  0  0  0  0  0
   -0.1823   -3.2340    0.8245 H   0  0  0  0  0  0  0  0  0  0  0  0
   -0.3049    0.0126    0.4015 H   0  0  0  0  0  0  0  0  0  0  0  0
   -1.0728   -1.0729    1.7948 H   0  0  0  0  0  0  0  0  0  0  0  0
    0.9522   -0.1200    2.7809 H   0  0  0  0  0  0  0  0  0  0  0  0
    2.2615   -2.4076    1.2259 H   0  0  0  0  0  0  0  0  0  0  0  0
    2.9643   -1.4364    2.6331 H   0  0  0  0  0  0  0  0  0  0  0  0
   -1.3866   -0.5421   -2.0077 C   0  0  0  0  0  0  0  0  0  0  0  0
   -1.2232    0.6948   -1.5667 C   0  0  0  0  0  0  0  0  0  0  0  0
   -0.4251    1.0856   -0.3498 C   0  0  0  0  0  3  0  0  0  0  0  0
   -1.3118    1.7923    0.6718 C   0  0  0  0  0  0  0  0  0  0  0  0
    0.7736    1.8917   -0.7850 C   0  0  0  0  0  0  0  0  0  0  0  0
    1.0627    3.1353   -0.4342 C   0  0  0  0  0  0  0  0  0  0  0  0
   -1.9737   -0.7555   -2.8921 H   0  0  0  0  0  0  0  0  0  0  0  0
   -0.9383   -1.3883   -1.4978 H   0  0  0  0  0  0  0  0  0  0  0  0
   -1.6837    1.5219   -2.1028 H   0  0  0  0  0  0  0  0  0  0  0  0
   -0.7441    2.0663    1.5626 H   0  0  0  0  0  0  0  0  0  0  0  0
   -2.1308    1.1390    0.9736 H   0  0  0  0  0  0  0  0  0  0  0  0
   -1.7465    2.7027    0.2527 H   0  0  0  0  0  0  0  0  0  0  0  0
    1.4384    1.3713   -1.4695 H   0  0  0  0  0  0  0  0  0  0  0  0
    0.4371    3.7077    0.2400 H   0  0  0  0  0  0  0  0  0  0  0  0
    1.9490    3.6284   -0.8129 H   0  0  0  0  0  0  0  0  0  0  0  0
  1  6  1  0
  1  7  1  0
  2  3  1  0
  2  8  1  0
  3  4  1  0
  3  9  1  0
  3 10  1  0
  4  5  2  3
  4 11  1  0
  5 12  1  0
  5 13  1  0
 14 15  2  3
 14 20  1  0
 14 21  1  0
 15 16  1  0
 15 22  1  0
 16 17  1  0
 16 18  1  0
 17 23  1  0
 17 24  1  0
 17 25  1  0
 18 19  2  3
 18 26  1  0
 19 27  1  0
 19 28  1  0
M  RAD  3   1   3   2   3  16   2
M  END
>  <reaction>  (14) 
rxn_1133

>  <mol_properties>  (14) 
{"1": {"label": "*4", "atom_type": "Cd"}, "2": {"label": "*3", "atom_type": "Cs"}, "8": {"label": "*2", "atom_type": "H0"}, "14": {"label": "*0", "atom_type": "Cd"}, "15": {"label": "*1", "atom_type": "Cs"}}

>  <type>  (14) 
unop_10

>  <geom_source>  (14) 
Heuristics

$$$$

     RDKit          3D

 28 26  0  0  0  0  0  0  0  0999 V2000
    1.2309    0.4831   -0.3090 C   0  0  0  0  0  0  0  0  0  0  0  0
    1.3071    1.9581   -0.7125 C   0  0  0  0  0  0  0  0  0  0  0  0
    2.1920    0.2010    0.8199 C   0  0  0  0  0  0  0  0  0  0  0  0
    1.5344   -0.4055   -1.4905 C   0  0  0  0  0  0  0  0  0  0  0  0
   -1.3709    0.5432    0.0403 C   0  0  0  0  0  3  0  0  0  0  0  0
   -1.5590    0.0968    1.4596 C   0  0  0  0  0  0  0  0  0  0  0  0
   -1.2532   -0.6205   -0.8985 C   0  0  0  0  0  0  0  0  0  0  0  0
    1.9024    0.5390    2.0794 C   0  0  0  0  0  0  0  0  0  0  0  0
    1.2653   -1.7139   -1.4607 C   0  0  0  0  0  0  0  0  0  0  0  0
   -2.7604   -0.2393    1.9370 C   0  0  0  0  0  0  0  0  0  0  0  0
   -2.3303   -1.2477   -1.3784 C   0  0  0  0  0  0  0  0  0  0  0  0
    0.0290    0.2368    0.0806 H   0  0  0  0  0  0  0  0  0  0  0  0
    1.0286    2.6049    0.1465 H   0  0  0  0  0  0  0  0  0  0  0  0
    2.3347    2.2229   -1.0442 H   0  0  0  0  0  0  0  0  0  0  0  0
    0.5962    2.1621   -1.5414 H   0  0  0  0  0  0  0  0  0  0  0  0
    3.1450   -0.2791    0.6126 H   0  0  0  0  0  0  0  0  0  0  0  0
    1.9722    0.0172   -2.3912 H   0  0  0  0  0  0  0  0  0  0  0  0
   -2.1416    1.2768   -0.2828 H   0  0  0  0  0  0  0  0  0  0  0  0
   -0.6918    0.0454    2.1100 H   0  0  0  0  0  0  0  0  0  0  0  0
   -0.2638   -0.9582   -1.1897 H   0  0  0  0  0  0  0  0  0  0  0  0
    2.6109    0.3300    2.8743 H   0  0  0  0  0  0  0  0  0  0  0  0
    0.9626    1.0236    2.3262 H   0  0  0  0  0  0  0  0  0  0  0  0
    0.8245   -2.1732   -0.5810 H   0  0  0  0  0  0  0  0  0  0  0  0
    1.4878   -2.3342   -2.3228 H   0  0  0  0  0  0  0  0  0  0  0  0
   -2.8638   -0.5608    2.9682 H   0  0  0  0  0  0  0  0  0  0  0  0
   -3.6450   -0.1926    1.3095 H   0  0  0  0  0  0  0  0  0  0  0  0
   -2.2123   -2.0884   -2.0542 H   0  0  0  0  0  0  0  0  0  0  0  0
   -3.3315   -0.9276   -1.1071 H   0  0  0  0  0  0  0  0  0  0  0  0
  1  2  1  0
  1  3  1  0
  1  4  1  0
  1 12  1  0
  2 13  1  0
  2 14  1  0
  2 15  1  0
  3  8  2  3
  3 16  1  0
  4  9  2  3
  4 17  1  0
  5  6  1  0
  5  7  1  0
  5 18  1  0
  6 10  2  3
  6 19  1  0
  7 11  2  3
  7 20  1  0
  8 21  1  0
  8 22  1  0
  9 23  1  0
  9 24  1  0
 10 25  1  0
 10 26  1  0
 11 27  1  0
 11 28  1  0
M  RAD  1   5   2
M  END
>  <reaction>  (15) 
rxn_1133

>  <mol_properties>  (15) 
{"1": {"label": "*4", "atom_type": "Cd"}, "2": {"label": "*3", "atom_type": "Cs"}, "8": {"label": "*2", "atom_type": "H0"}, "14": {"label": "*0", "atom_type": "Cd"}, "15": {"label": "*1", "atom_type": "Cs"}}

>  <type>  (15) 
unop_11

>  <geom_source>  (15) 
AutoTST

$$$$

     RDKit          3D

 28 26  0  0  0  0  0  0  0  0999 V2000
   -0.1187   -2.3145   -1.0695 C   0  0  0  0  0  0  0  0  0  0  0  0
   -0.1187   -2.3145    0.2537 C   0  0  0  0  0  0  0  0  0  0  0  0
   -0.1187   -1.0887    1.1118 C   0  0  0  0  0  0  0  0  0  0  0  0
    1.0911   -0.9344    1.9930 C   0  0  0  0  0  0  0  0  0  0  0  0
    2.2022   -1.6501    1.9205 C   0  0  0  0  0  0  0  0  0  0  0  0
   -0.1268   -3.2373   -1.6360 H   0  0  0  0  0  0  0  0  0  0  0  0
   -0.1123   -1.3891   -1.6355 H   0  0  0  0  0  0  0  0  0  0  0  0
   -0.1161   -3.2633    0.7843 H   0  0  0  0  0  0  0  0  0  0  0  0
   -0.2387   -0.0168    0.3612 H   0  0  0  0  0  0  0  0  0  0  0  0
   -1.0066   -1.1022    1.7545 H   0  0  0  0  0  0  0  0  0  0  0  0
    1.0184   -0.1493    2.7407 H   0  0  0  0  0  0  0  0  0  0  0  0
    2.3277   -2.4369    1.1857 H   0  0  0  0  0  0  0  0  0  0  0  0
    3.0304   -1.4658    2.5929 H   0  0  0  0  0  0  0  0  0  0  0  0
   -2.2038   -0.1933   -1.5552 C   0  0  0  0  0  0  0  0  0  0  0  0
   -1.6636    0.9392   -1.1350 C   0  0  0  0  0  0  0  0  0  0  0  0
   -0.3589    1.0562   -0.3900 C   0  0  0  0  0  3  0  0  0  0  0  0
   -0.5760    1.6932    0.9798 C   0  0  0  0  0  0  0  0  0  0  0  0
    0.6387    1.7855   -1.2556 C   0  0  0  0  0  0  0  0  0  0  0  0
    1.2511    2.9246   -0.9721 C   0  0  0  0  0  0  0  0  0  0  0  0
   -3.1467   -0.2082   -2.0873 H   0  0  0  0  0  0  0  0  0  0  0  0
   -1.7213   -1.1492   -1.3807 H   0  0  0  0  0  0  0  0  0  0  0  0
   -2.1716    1.8816   -1.3286 H   0  0  0  0  0  0  0  0  0  0  0  0
    0.3624    1.7688    1.5317 H   0  0  0  0  0  0  0  0  0  0  0  0
   -1.2724    1.0935    1.5664 H   0  0  0  0  0  0  0  0  0  0  0  0
   -0.9961    2.6972    0.8849 H   0  0  0  0  0  0  0  0  0  0  0  0
    0.8388    1.3050   -2.2098 H   0  0  0  0  0  0  0  0  0  0  0  0
    1.0895    3.4535   -0.0406 H   0  0  0  0  0  0  0  0  0  0  0  0
    1.9469    3.3711   -1.6712 H   0  0  0  0  0  0  0  0  0  0  0  0
  1  2  2  3
  1  6  1  0
  1  7  1  0
  2  3  1  0
  2  8  1  0
  3  4  1  0
  3  9  1  0
  3 10  1  0
  4  5  2  3
  4 11  1  0
  5 12  1  0
  5 13  1  0
 14 15  2  3
 14 20  1  0
 14 21  1  0
 15 16  1  0
 15 22  1  0
 16 17  1  0
 16 18  1  0
 17 23  1  0
 17 24  1  0
 17 25  1  0
 18 19  2  3
 18 26  1  0
 19 27  1  0
 19 28  1  0
M  RAD  1  16   2
M  END
>  <reaction>  (16) 
rxn_1133

>  <mol_properties>  (16) 
{"1": {"label": "*4", "atom_type": "Cd"}, "2": {"label": "*3", "atom_type": "Cs"}, "8": {"label": "*2", "atom_type": "H0"}, "14": {"label": "*0", "atom_type": "Cd"}, "15": {"label": "*1", "atom_type": "Cs"}}

>  <type>  (16) 
unop_12

>  <geom_source>  (16) 
gaussian_log

$$$$
