
     RDKit          3D

  6  5  0  0  0  0  0  0  0  0999 V2000
    1.2314    0.0428    0.5088 O   0  0  0  0  0  0  0  0  0  0  0  0
    0.2987    0.2341   -0.4915 N   0  0  0  0  0  0  0  0  0  0  0  0
   -0.8599   -0.1122   -0.1290 C   0  0  0  0  0  0  0  0  0  0  0  0
    2.0507    0.3401    0.1082 H   0  0  0  0  0  0  0  0  0  0  0  0
   -1.0700   -0.5112    0.8610 H   0  0  0  0  0  0  0  0  0  0  0  0
   -1.6509    0.0064   -0.8574 H   0  0  0  0  0  0  0  0  0  0  0  0
  1  2  1  0
  1  4  1  0
  2  3  2  3
  3  5  1  0
  3  6  1  0
M  END
>  <reaction>  (1) 
rxn_656

>  <mol_properties>  (1) 
{"0": {"label": "donator", "atom_type": "O2s"}, "3": {"label": "d_hydrogen", "atom_type": "H0"}}

>  <type>  (1) 
r1h

$$$$

     RDKit          3D

  1  0  0  0  0  0  0  0  0  0999 V2000
    0.0000    0.0000    0.0000 H   0  0  0  0  0 15  0  0  0  0  0  0
M  END
>  <reaction>  (2) 
rxn_656

>  <mol_properties>  (2) 
{"0": {"label": "acceptor", "atom_type": "H0"}}

>  <type>  (2) 
r2

$$$$

     RDKit          3D

  2  1  0  0  0  0  0  0  0  0999 V2000
    0.0000    0.0000    0.3721 H   0  0  0  0  0  0  0  0  0  0  0  0
    0.0000    0.0000   -0.3721 H   0  0  0  0  0  0  0  0  0  0  0  0
  1  2  1  0
M  END
>  <reaction>  (3) 
rxn_656

>  <mol_properties>  (3) 
{"0": {"label": "acceptor", "atom_type": "H0"}, "1": {"label": "a_hydrogen", "atom_type": "H0"}}

>  <type>  (3) 
r2h

$$$$

     RDKit          3D

  7  5  0  0  0  0  0  0  0  0999 V2000
    0.0000    0.4625    2.7450 H   0  0  0  0  0 15  0  0  0  0  0  0
    0.0000    0.7755    0.6517 O   0  0  0  0  0  0  0  0  0  0  0  0
    0.0000   -0.4536    0.1268 N   0  0  0  0  0  0  0  0  0  0  0  0
    0.0000   -0.4849   -1.1386 C   0  0  0  0  0  0  0  0  0  0  0  0
    0.0000    0.6392    1.7702 H   0  0  0  0  0  0  0  0  0  0  0  0
    0.0000    0.4133   -1.7518 H   0  0  0  0  0  0  0  0  0  0  0  0
    0.0000   -1.4644   -1.5966 H   0  0  0  0  0  0  0  0  0  0  0  0
  2  3  1  0
  2  5  1  0
  3  4  2  3
  4  6  1  0
  4  7  1  0
M  END
>  <reaction>  (4) 
rxn_656

>  <mol_properties>  (4) 
{"0": {"label": "*1", "atom_type": "H0"}, "1": {"label": "*3", "atom_type": "O2s"}, "2": {"label": "*4", "atom_type": "N3d"}, "4": {"label": "*2", "atom_type": "H0"}}

>  <type>  (4) 
ts

$$$$

     RDKit          3D

  7  5  0  0  0  0  0  0  0  0999 V2000
    0.0000    0.4865    2.6741 H   0  0  0  0  0 15  0  0  0  0  0  0
   -0.0000    0.7912    0.6529 O   0  0  0  0  0  0  0  0  0  0  0  0
   -0.0000   -0.4896    0.1366 N   0  0  0  0  0  0  0  0  0  0  0  0
   -0.0000   -0.4896   -1.1257 C   0  0  0  0  0  0  0  0  0  0  0  0
    0.0000    0.6196    1.7911 H   0  0  0  0  0  0  0  0  0  0  0  0
   -0.0000    0.4266   -1.7124 H   0  0  0  0  0  0  0  0  0  0  0  0
    0.0000   -1.4570   -1.6100 H   0  0  0  0  0  0  0  0  0  0  0  0
  2  3  1  0
  2  5  1  0
  3  4  2  3
  4  6  1  0
  4  7  1  0
M  END
>  <reaction>  (5) 
rxn_656

>  <mol_properties>  (5) 
{"0": {"label": "*1", "atom_type": "H0"}, "1": {"label": "*3", "atom_type": "O2s"}, "2": {"label": "*4", "atom_type": "N3d"}, "4": {"label": "*2", "atom_type": "H0"}}

>  <type>  (5) 
unop_1

>  <geom_source>  (5) 
Heuristics

$$$$

     RDKit          3D

  7  5  0  0  0  0  0  0  0  0999 V2000
    1.0802   -0.9210    0.0233 O   0  0  0  0  0  0  0  0  0  0  0  0
   -0.2835   -1.0171    0.1722 N   0  0  0  0  0  0  0  0  0  0  0  0
   -1.0236    0.0413    0.1363 C   0  0  0  0  0  0  0  0  0  0  0  0
   -2.0948   -0.0473    0.2546 H   0  0  0  0  0  0  0  0  0  0  0  0
   -0.5816    1.0187   -0.0114 H   0  0  0  0  0  0  0  0  0  0  0  0
    1.1836   -0.0639   -0.3593 H   0  0  0  0  0  0  0  0  0  0  0  0
    1.7196    0.9892   -0.2156 H   0  0  0  0  0 15  0  0  0  0  0  0
  1  2  1  0
  1  6  1  0
  2  3  2  3
  3  4  1  0
  3  5  1  0
M  END
>  <reaction>  (6) 
rxn_656

>  <mol_properties>  (6) 
{"0": {"label": "*1", "atom_type": "H0"}, "1": {"label": "*3", "atom_type": "O2s"}, "2": {"label": "*4", "atom_type": "N3d"}, "4": {"label": "*2", "atom_type": "H0"}}

>  <type>  (6) 
unop_2

>  <geom_source>  (6) 
AutoTST

$$$$
