
     RDKit          3D

 18 18  0  0  0  0  0  0  0  0999 V2000
   -0.4257   -1.3142    0.5153 C   0  0  0  0  0  0  0  0  0  0  0  0
    0.8610   -1.1606   -0.2926 C   0  0  0  0  0  0  0  0  0  0  0  0
    1.4473    0.2416   -0.1439 C   0  0  0  0  0  0  0  0  0  0  0  0
    0.4257    1.3142   -0.5153 C   0  0  0  0  0  0  0  0  0  0  0  0
   -0.8610    1.1606    0.2926 C   0  0  0  0  0  0  0  0  0  0  0  0
   -1.4473   -0.2416    0.1439 C   0  0  0  0  0  0  0  0  0  0  0  0
   -0.8504   -2.3096    0.3653 H   0  0  0  0  0  0  0  0  0  0  0  0
   -0.1906   -1.2305    1.5825 H   0  0  0  0  0  0  0  0  0  0  0  0
    0.6440   -1.3476   -1.3505 H   0  0  0  0  0  0  0  0  0  0  0  0
    1.5928   -1.9114    0.0146 H   0  0  0  0  0  0  0  0  0  0  0  0
    2.3444    0.3440   -0.7591 H   0  0  0  0  0  0  0  0  0  0  0  0
    1.7607    0.3903    0.8958 H   0  0  0  0  0  0  0  0  0  0  0  0
    0.8504    2.3096   -0.3653 H   0  0  0  0  0  0  0  0  0  0  0  0
    0.1906    1.2305   -1.5825 H   0  0  0  0  0  0  0  0  0  0  0  0
   -1.5928    1.9114   -0.0146 H   0  0  0  0  0  0  0  0  0  0  0  0
   -0.6440    1.3476    1.3505 H   0  0  0  0  0  0  0  0  0  0  0  0
   -2.3444   -0.3440    0.7591 H   0  0  0  0  0  0  0  0  0  0  0  0
   -1.7607   -0.3903   -0.8958 H   0  0  0  0  0  0  0  0  0  0  0  0
  1  2  1  0
  1  6  1  0
  1  7  1  0
  1  8  1  0
  2  3  1  0
  2  9  1  0
  2 10  1  0
  3  4  1  0
  3 11  1  0
  3 12  1  0
  4  5  1  0
  4 13  1  0
  4 14  1  0
  5  6  1  0
  5 15  1  0
  5 16  1  0
  6 17  1  0
  6 18  1  0
M  END
>  <reaction>  (1) 
rxn_161

>  <mol_properties>  (1) 
{"2": {"label": "donator", "atom_type": "Cs"}, "10": {"label": "d_hydrogen", "atom_type": "H0"}}

>  <type>  (1) 
r1h

$$$$

     RDKit          3D

  1  0  0  0  0  0  0  0  0  0999 V2000
    0.0000    0.0000    0.0000 Cl  0  0  0  0  0 15  0  0  0  0  0  0
M  END
>  <reaction>  (2) 
rxn_161

>  <mol_properties>  (2) 
{"0": {"label": "acceptor", "atom_type": "Cl1s"}}

>  <type>  (2) 
r2

$$$$

     RDKit          3D

  2  1  0  0  0  0  0  0  0  0999 V2000
    0.0000    0.0000    0.6391 Cl  0  0  0  0  0  0  0  0  0  0  0  0
    0.0000    0.0000   -0.6391 H   0  0  0  0  0  0  0  0  0  0  0  0
  1  2  1  0
M  END
>  <reaction>  (3) 
rxn_161

>  <mol_properties>  (3) 
{"0": {"label": "acceptor", "atom_type": "Cl1s"}, "1": {"label": "a_hydrogen", "atom_type": "H0"}}

>  <type>  (3) 
r2h

$$$$

     RDKit          3D

 19 18  0  0  0  0  0  0  0  0999 V2000
   -0.1443   -0.0752    2.8330 Cl  0  0  0  0  0 15  0  0  0  0  0  0
    0.7277   -1.0438   -1.9959 C   0  0  0  0  0  0  0  0  0  0  0  0
    0.6853   -1.0700   -0.4576 C   0  0  0  0  0  0  0  0  0  0  0  0
   -0.4803   -0.2502    0.0137 C   0  0  0  0  0  0  0  0  0  0  0  0
   -0.4839    1.1749   -0.4576 C   0  0  0  0  0  0  0  0  0  0  0  0
   -0.4381    1.1946   -1.9959 C   0  0  0  0  0  0  0  0  0  0  0  0
    0.7462    0.3886   -2.5220 C   0  0  0  0  0  0  0  0  0  0  0  0
    1.6051   -1.5938   -2.3420 H   0  0  0  0  0  0  0  0  0  0  0  0
   -0.1503   -1.5657   -2.3897 H   0  0  0  0  0  0  0  0  0  0  0  0
    1.6129   -0.6397   -0.0683 H   0  0  0  0  0  0  0  0  0  0  0  0
    0.6188   -2.0942   -0.0900 H   0  0  0  0  0  0  0  0  0  0  0  0
   -0.3518   -0.1832    1.3517 H   0  0  0  0  0  0  0  0  0  0  0  0
   -1.4466   -0.7535   -0.0453 H   0  0  0  0  0  0  0  0  0  0  0  0
   -1.3613    1.7075   -0.0900 H   0  0  0  0  0  0  0  0  0  0  0  0
    0.4003    1.6883   -0.0683 H   0  0  0  0  0  0  0  0  0  0  0  0
   -0.3859    2.2288   -2.3420 H   0  0  0  0  0  0  0  0  0  0  0  0
   -1.3691    0.7743   -2.3897 H   0  0  0  0  0  0  0  0  0  0  0  0
    0.7399    0.3854   -3.6141 H   0  0  0  0  0  0  0  0  0  0  0  0
    1.6781    0.8740   -2.2132 H   0  0  0  0  0  0  0  0  0  0  0  0
  2  3  1  0
  2  7  1  0
  2  8  1  0
  2  9  1  0
  3  4  1  0
  3 10  1  0
  3 11  1  0
  4  5  1  0
  4 12  1  0
  4 13  1  0
  5  6  1  0
  5 14  1  0
  5 15  1  0
  6  7  1  0
  6 16  1  0
  6 17  1  0
  7 18  1  0
  7 19  1  0
M  END
>  <reaction>  (4) 
rxn_161

>  <mol_properties>  (4) 
{"0": {"label": "*3", "atom_type": "Cl1s"}, "2": {"label": "*0", "atom_type": "Cs"}, "3": {"label": "*1", "atom_type": "Cs"}, "11": {"label": "*2", "atom_type": "H0"}}

>  <type>  (4) 
ts

$$$$

     RDKit          3D

 19 18  0  0  0  0  0  0  0  0999 V2000
   -0.3387   -0.1764    2.9382 Cl  0  0  0  0  0 15  0  0  0  0  0  0
    0.7234   -1.0453   -1.9880 C   0  0  0  0  0  0  0  0  0  0  0  0
    0.7234   -1.0453   -0.4608 C   0  0  0  0  0  0  0  0  0  0  0  0
   -0.4419   -0.2301    0.0956 C   0  0  0  0  0  0  0  0  0  0  0  0
   -0.4419    1.1920   -0.4608 C   0  0  0  0  0  0  0  0  0  0  0  0
   -0.4419    1.1920   -1.9880 C   0  0  0  0  0  0  0  0  0  0  0  0
    0.7234    0.3768   -2.5444 C   0  0  0  0  0  0  0  0  0  0  0  0
    1.5853   -1.5999   -2.3665 H   0  0  0  0  0  0  0  0  0  0  0  0
   -0.1698   -1.5700   -2.3460 H   0  0  0  0  0  0  0  0  0  0  0  0
    1.6653   -0.6142   -0.1028 H   0  0  0  0  0  0  0  0  0  0  0  0
    0.6838   -2.0694   -0.0823 H   0  0  0  0  0  0  0  0  0  0  0  0
   -0.3944   -0.2054    1.4055 H   0  0  0  0  0  0  0  0  0  0  0  0
   -1.3837   -0.7207   -0.1755 H   0  0  0  0  0  0  0  0  0  0  0  0
   -1.3037    1.7466   -0.0823 H   0  0  0  0  0  0  0  0  0  0  0  0
    0.4513    1.7166   -0.1028 H   0  0  0  0  0  0  0  0  0  0  0  0
   -0.4023    2.2161   -2.3665 H   0  0  0  0  0  0  0  0  0  0  0  0
   -1.3837    0.7608   -2.3460 H   0  0  0  0  0  0  0  0  0  0  0  0
    0.6838    0.3561   -3.6360 H   0  0  0  0  0  0  0  0  0  0  0  0
    1.6653    0.8673   -2.2733 H   0  0  0  0  0  0  0  0  0  0  0  0
  2  3  1  0
  2  7  1  0
  2  8  1  0
  2  9  1  0
  3  4  1  0
  3 10  1  0
  3 11  1  0
  4  5  1  0
  4 12  1  0
  4 13  1  0
  5  6  1  0
  5 14  1  0
  5 15  1  0
  6  7  1  0
  6 16  1  0
  6 17  1  0
  7 18  1  0
  7 19  1  0
M  END
>  <reaction>  (5) 
rxn_161

>  <mol_properties>  (5) 
{"0": {"label": "*3", "atom_type": "Cl1s"}, "2": {"label": "*0", "atom_type": "Cs"}, "3": {"label": "*1", "atom_type": "Cs"}, "11": {"label": "*2", "atom_type": "H0"}}

>  <type>  (5) 
unop_1

>  <geom_source>  (5) 
Heuristics

$$$$
