
     RDKit          3D

  7  6  0  0  0  0  0  0  0  0999 V2000
    1.2985   -0.0065   -0.2721 C   0  0  0  0  0  0  0  0  0  0  0  0
    0.0000    0.0000   -0.2926 C   0  0  0  0  0  0  0  0  0  0  0  0
   -1.2985    0.0065   -0.3130 C   0  0  0  0  0  0  0  0  0  0  0  0
    1.8444   -0.7551    0.2895 H   0  0  0  0  0  0  0  0  0  0  0  0
    1.8693    0.7364   -0.8162 H   0  0  0  0  0  0  0  0  0  0  0  0
   -1.8658    0.5623    0.4239 H   0  0  0  0  0  0  0  0  0  0  0  0
   -1.8479   -0.5437   -1.0675 H   0  0  0  0  0  0  0  0  0  0  0  0
  1  2  2  0
  1  4  1  0
  1  5  1  0
  2  3  2  0
  3  6  1  0
  3  7  1  0
M  END
>  <reaction>  (1) 
rxn_1832

>  <mol_properties>  (1) 
{"0": {"label": "donator", "atom_type": "Cd"}, "3": {"label": "d_hydrogen", "atom_type": "H0"}}

>  <type>  (1) 
r1h

$$$$

     RDKit          3D

  3  2  0  0  0  0  0  0  0  0999 V2000
   -0.0365   -0.2870   -0.2626 C   0  0  0  0  0  3  0  0  0  0  0  0
    1.0501    0.7548    0.1070 S   0  0  0  0  0  0  0  0  0  0  0  0
   -1.0136   -0.5217    0.1556 H   0  0  0  0  0  0  0  0  0  0  0  0
  1  2  2  0
  1  3  1  0
M  RAD  1   1   2
M  END
>  <reaction>  (2) 
rxn_1832

>  <mol_properties>  (2) 
{"0": {"label": "acceptor", "atom_type": "CS"}}

>  <type>  (2) 
r2

$$$$

     RDKit          3D

  4  3  0  0  0  0  0  0  0  0999 V2000
   -0.1097    0.0067    0.0027 C   0  0  0  0  0  0  0  0  0  0  0  0
    1.4849   -0.0901   -0.0362 S   0  0  0  0  0  0  0  0  0  0  0  0
   -0.6318    0.9620    0.0167 H   0  0  0  0  0  0  0  0  0  0  0  0
   -0.7434   -0.8786    0.0168 H   0  0  0  0  0  0  0  0  0  0  0  0
  1  2  2  0
  1  3  1  0
  1  4  1  0
M  END
>  <reaction>  (3) 
rxn_1832

>  <mol_properties>  (3) 
{"0": {"label": "acceptor", "atom_type": "CS"}, "3": {"label": "a_hydrogen", "atom_type": "H0"}}

>  <type>  (3) 
r2h

$$$$

     RDKit          3D

 10  8  0  0  0  0  0  0  0  0999 V2000
   -0.3066   -0.3704    1.3423 C   0  0  0  0  0  0  0  0  0  0  0  0
   -1.0336   -1.2919    0.2963 S   0  0  0  0  0  0  0  0  0  0  0  0
   -0.3564   -0.4436    2.4293 H   0  0  0  0  0  0  0  0  0  0  0  0
    1.1902    1.5556    0.2330 C   0  0  0  0  0  0  0  0  0  0  0  0
    1.0901    1.4384   -1.0288 C   0  0  0  0  0  0  0  0  0  0  0  0
    0.9045    1.2121   -2.3131 C   0  0  0  0  0  3  0  0  0  0  0  0
    0.4645    0.6209    0.8830 H   0  0  0  0  0  0  0  0  0  0  0  0
    1.7302    2.2414    0.8660 H   0  0  0  0  0  0  0  0  0  0  0  0
    0.1007    1.6968   -2.8527 H   0  0  0  0  0  0  0  0  0  0  0  0
    1.5648    0.5531   -2.8627 H   0  0  0  0  0  0  0  0  0  0  0  0
  1  2  2  0
  1  3  1  0
  1  7  1  0
  4  5  3  0
  4  8  1  0
  5  6  1  0
  6  9  1  0
  6 10  1  0
M  RAD  1   6   2
M  END
>  <reaction>  (4) 
rxn_1832

>  <mol_properties>  (4) 
{"0": {"label": "*1", "atom_type": "CS"}, "1": {"label": "*0", "atom_type": "S2d"}, "3": {"label": "*3", "atom_type": "Ct"}, "4": {"label": "*4", "atom_type": "Ct"}, "6": {"label": "*2", "atom_type": "H0"}}

>  <type>  (4) 
ts

$$$$

     RDKit          3D

 10  8  0  0  0  0  0  0  0  0999 V2000
   -0.8833   -0.4722    0.8570 C   0  0  0  0  0  3  0  0  0  0  0  0
   -0.1681   -1.4752    1.8749 S   0  0  0  0  0  0  0  0  0  0  0  0
   -1.7999    0.0568    1.1131 H   0  0  0  0  0  0  0  0  0  0  0  0
    0.4472    1.3221   -0.4865 C   0  0  0  0  0  0  0  0  0  0  0  0
    0.4472    1.3221   -1.7852 C   0  0  0  0  0  0  0  0  0  0  0  0
    0.4472    1.3221   -3.0838 C   0  0  0  0  0  0  0  0  0  0  0  0
   -0.2164    0.4271    0.1836 H   0  0  0  0  0  0  0  0  0  0  0  0
    1.0002    2.0678    0.0719 H   0  0  0  0  0  0  0  0  0  0  0  0
   -0.2986    1.8751   -3.6423 H   0  0  0  0  0  0  0  0  0  0  0  0
    1.1929    0.7690   -3.6423 H   0  0  0  0  0  0  0  0  0  0  0  0
  1  2  2  0
  1  3  1  0
  4  5  2  0
  4  7  1  0
  4  8  1  0
  5  6  2  0
  6  9  1  0
  6 10  1  0
M  RAD  1   1   2
M  END
>  <reaction>  (5) 
rxn_1832

>  <mol_properties>  (5) 
{"0": {"label": "*1", "atom_type": "CS"}, "1": {"label": "*0", "atom_type": "S2d"}, "3": {"label": "*3", "atom_type": "Ct"}, "4": {"label": "*4", "atom_type": "Ct"}, "6": {"label": "*2", "atom_type": "H0"}}

>  <type>  (5) 
unop_1

>  <geom_source>  (5) 
Heuristics

$$$$

     RDKit          3D

 10  8  0  0  0  0  0  0  0  0999 V2000
   -0.5298   -0.2919    1.4433 C   0  0  0  0  0  3  0  0  0  0  0  0
   -0.7799   -1.7652    0.8771 S   0  0  0  0  0  0  0  0  0  0  0  0
   -0.6442   -0.0499    2.4986 H   0  0  0  0  0  0  0  0  0  0  0  0
    0.8007    1.5023    0.0998 C   0  0  0  0  0  0  0  0  0  0  0  0
    0.8007    1.5023   -1.1989 C   0  0  0  0  0  0  0  0  0  0  0  0
    0.8007    1.5023   -2.4976 C   0  0  0  0  0  0  0  0  0  0  0  0
    0.1371    0.6074    0.7699 H   0  0  0  0  0  0  0  0  0  0  0  0
    1.3537    2.2481    0.6582 H   0  0  0  0  0  0  0  0  0  0  0  0
    0.0550    2.0553   -3.0560 H   0  0  0  0  0  0  0  0  0  0  0  0
    1.5465    0.9493   -3.0560 H   0  0  0  0  0  0  0  0  0  0  0  0
  1  2  2  0
  1  3  1  0
  4  5  2  0
  4  7  1  0
  4  8  1  0
  5  6  2  0
  6  9  1  0
  6 10  1  0
M  RAD  1   1   2
M  END
>  <reaction>  (6) 
rxn_1832

>  <mol_properties>  (6) 
{"0": {"label": "*1", "atom_type": "CS"}, "1": {"label": "*0", "atom_type": "S2d"}, "3": {"label": "*3", "atom_type": "Ct"}, "4": {"label": "*4", "atom_type": "Ct"}, "6": {"label": "*2", "atom_type": "H0"}}

>  <type>  (6) 
unop_2

>  <geom_source>  (6) 
Heuristics

$$$$

     RDKit          3D

 10  8  0  0  0  0  0  0  0  0999 V2000
   -0.7893   -0.6557    0.7034 C   0  0  0  0  0  3  0  0  0  0  0  0
   -0.3199   -1.1586    2.1457 S   0  0  0  0  0  0  0  0  0  0  0  0
   -1.8393   -0.5139    0.4529 H   0  0  0  0  0  0  0  0  0  0  0  0
    0.5412    1.1386   -0.6401 C   0  0  0  0  0  0  0  0  0  0  0  0
    0.5412    1.1386   -1.9388 C   0  0  0  0  0  0  0  0  0  0  0  0
    0.5412    1.1386   -3.2375 C   0  0  0  0  0  0  0  0  0  0  0  0
   -0.1224    0.2437    0.0300 H   0  0  0  0  0  0  0  0  0  0  0  0
    1.0942    1.8843   -0.0817 H   0  0  0  0  0  0  0  0  0  0  0  0
   -0.2046    1.6916   -3.7959 H   0  0  0  0  0  0  0  0  0  0  0  0
    1.2870    0.5856   -3.7959 H   0  0  0  0  0  0  0  0  0  0  0  0
  1  2  2  0
  1  3  1  0
  4  5  2  0
  4  7  1  0
  4  8  1  0
  5  6  2  0
  6  9  1  0
  6 10  1  0
M  RAD  1   1   2
M  END
>  <reaction>  (7) 
rxn_1832

>  <mol_properties>  (7) 
{"0": {"label": "*1", "atom_type": "CS"}, "1": {"label": "*0", "atom_type": "S2d"}, "3": {"label": "*3", "atom_type": "Ct"}, "4": {"label": "*4", "atom_type": "Ct"}, "6": {"label": "*2", "atom_type": "H0"}}

>  <type>  (7) 
unop_3

>  <geom_source>  (7) 
Heuristics

$$$$

     RDKit          3D

 10  8  0  0  0  0  0  0  0  0999 V2000
   -0.0361   -0.7779    1.2851 C   0  0  0  0  0  3  0  0  0  0  0  0
   -1.6190   -0.9451    1.1434 S   0  0  0  0  0  0  0  0  0  0  0  0
    0.4859   -0.9769    2.2196 H   0  0  0  0  0  0  0  0  0  0  0  0
    1.2944    1.0163   -0.0584 C   0  0  0  0  0  0  0  0  0  0  0  0
    1.2944    1.0163   -1.3571 C   0  0  0  0  0  0  0  0  0  0  0  0
    1.2944    1.0163   -2.6558 C   0  0  0  0  0  0  0  0  0  0  0  0
    0.6308    0.1214    0.6117 H   0  0  0  0  0  0  0  0  0  0  0  0
    1.8474    1.7621    0.5000 H   0  0  0  0  0  0  0  0  0  0  0  0
    0.5486    1.5694   -3.2142 H   0  0  0  0  0  0  0  0  0  0  0  0
    2.0402    0.4633   -3.2142 H   0  0  0  0  0  0  0  0  0  0  0  0
  1  2  2  0
  1  3  1  0
  4  5  2  0
  4  7  1  0
  4  8  1  0
  5  6  2  0
  6  9  1  0
  6 10  1  0
M  RAD  1   1   2
M  END
>  <reaction>  (8) 
rxn_1832

>  <mol_properties>  (8) 
{"0": {"label": "*1", "atom_type": "CS"}, "1": {"label": "*0", "atom_type": "S2d"}, "3": {"label": "*3", "atom_type": "Ct"}, "4": {"label": "*4", "atom_type": "Ct"}, "6": {"label": "*2", "atom_type": "H0"}}

>  <type>  (8) 
unop_4

>  <geom_source>  (8) 
Heuristics

$$$$

     RDKit          3D

 10  8  0  0  0  0  0  0  0  0999 V2000
   -0.6119   -0.8251    0.6491 C   0  0  0  0  0  3  0  0  0  0  0  0
   -0.6303   -0.8500    2.2467 S   0  0  0  0  0  0  0  0  0  0  0  0
   -1.1542   -1.5566    0.0522 H   0  0  0  0  0  0  0  0  0  0  0  0
    0.7186    0.9691   -0.6945 C   0  0  0  0  0  0  0  0  0  0  0  0
    0.7186    0.9691   -1.9931 C   0  0  0  0  0  0  0  0  0  0  0  0
    0.7186    0.9691   -3.2918 C   0  0  0  0  0  0  0  0  0  0  0  0
    0.0550    0.0742   -0.0243 H   0  0  0  0  0  0  0  0  0  0  0  0
    1.2717    1.7149   -0.1360 H   0  0  0  0  0  0  0  0  0  0  0  0
   -0.0271    1.5221   -3.8502 H   0  0  0  0  0  0  0  0  0  0  0  0
    1.4644    0.4161   -3.8502 H   0  0  0  0  0  0  0  0  0  0  0  0
  1  2  2  0
  1  3  1  0
  4  5  2  0
  4  7  1  0
  4  8  1  0
  5  6  2  0
  6  9  1  0
  6 10  1  0
M  RAD  1   1   2
M  END
>  <reaction>  (9) 
rxn_1832

>  <mol_properties>  (9) 
{"0": {"label": "*1", "atom_type": "CS"}, "1": {"label": "*0", "atom_type": "S2d"}, "3": {"label": "*3", "atom_type": "Ct"}, "4": {"label": "*4", "atom_type": "Ct"}, "6": {"label": "*2", "atom_type": "H0"}}

>  <type>  (9) 
unop_5

>  <geom_source>  (9) 
Heuristics

$$$$

     RDKit          3D

 10  8  0  0  0  0  0  0  0  0999 V2000
   -0.0620   -0.9210    1.0702 C   0  0  0  0  0  3  0  0  0  0  0  0
   -1.5828   -0.7001    1.5083 S   0  0  0  0  0  0  0  0  0  0  0  0
    0.6755   -1.3605    1.7397 H   0  0  0  0  0  0  0  0  0  0  0  0
    1.2685    0.8732   -0.2734 C   0  0  0  0  0  0  0  0  0  0  0  0
    1.2685    0.8732   -1.5720 C   0  0  0  0  0  0  0  0  0  0  0  0
    1.2685    0.8732   -2.8707 C   0  0  0  0  0  0  0  0  0  0  0  0
    0.6049   -0.0217    0.3968 H   0  0  0  0  0  0  0  0  0  0  0  0
    1.8215    1.6190    0.2851 H   0  0  0  0  0  0  0  0  0  0  0  0
    0.5227    1.4262   -3.4291 H   0  0  0  0  0  0  0  0  0  0  0  0
    2.0143    0.3202   -3.4291 H   0  0  0  0  0  0  0  0  0  0  0  0
  1  2  2  0
  1  3  1  0
  4  5  2  0
  4  7  1  0
  4  8  1  0
  5  6  2  0
  6  9  1  0
  6 10  1  0
M  RAD  1   1   2
M  END
>  <reaction>  (10) 
rxn_1832

>  <mol_properties>  (10) 
{"0": {"label": "*1", "atom_type": "CS"}, "1": {"label": "*0", "atom_type": "S2d"}, "3": {"label": "*3", "atom_type": "Ct"}, "4": {"label": "*4", "atom_type": "Ct"}, "6": {"label": "*2", "atom_type": "H0"}}

>  <type>  (10) 
unop_6

>  <geom_source>  (10) 
Heuristics

$$$$

     RDKit          3D

 10  8  0  0  0  0  0  0  0  0999 V2000
   -0.1953   -0.9824    0.8570 C   0  0  0  0  0  3  0  0  0  0  0  0
   -1.3627   -0.5893    1.8749 S   0  0  0  0  0  0  0  0  0  0  0  0
    0.5771   -1.7058    1.1131 H   0  0  0  0  0  0  0  0  0  0  0  0
    1.1352    0.8119   -0.4865 C   0  0  0  0  0  0  0  0  0  0  0  0
    1.1352    0.8119   -1.7852 C   0  0  0  0  0  0  0  0  0  0  0  0
    1.1352    0.8119   -3.0838 C   0  0  0  0  0  0  0  0  0  0  0  0
    0.4716   -0.0831    0.1836 H   0  0  0  0  0  0  0  0  0  0  0  0
    1.6882    1.5576    0.0719 H   0  0  0  0  0  0  0  0  0  0  0  0
    0.3894    1.3649   -3.6423 H   0  0  0  0  0  0  0  0  0  0  0  0
    1.8810    0.2588   -3.6423 H   0  0  0  0  0  0  0  0  0  0  0  0
  1  2  2  0
  1  3  1  0
  4  5  2  0
  4  7  1  0
  4  8  1  0
  5  6  2  0
  6  9  1  0
  6 10  1  0
M  RAD  1   1   2
M  END
>  <reaction>  (11) 
rxn_1832

>  <mol_properties>  (11) 
{"0": {"label": "*1", "atom_type": "CS"}, "1": {"label": "*0", "atom_type": "S2d"}, "3": {"label": "*3", "atom_type": "Ct"}, "4": {"label": "*4", "atom_type": "Ct"}, "6": {"label": "*2", "atom_type": "H0"}}

>  <type>  (11) 
unop_7

>  <geom_source>  (11) 
Heuristics

$$$$

     RDKit          3D

 10  8  0  0  0  0  0  0  0  0999 V2000
   -0.8633   -0.3268    1.0702 C   0  0  0  0  0  3  0  0  0  0  0  0
   -0.2102   -1.7179    1.5083 S   0  0  0  0  0  0  0  0  0  0  0  0
   -1.4981    0.2513    1.7397 H   0  0  0  0  0  0  0  0  0  0  0  0
    0.4672    1.4674   -0.2734 C   0  0  0  0  0  0  0  0  0  0  0  0
    0.4672    1.4674   -1.5720 C   0  0  0  0  0  0  0  0  0  0  0  0
    0.4672    1.4674   -2.8707 C   0  0  0  0  0  0  0  0  0  0  0  0
   -0.1964    0.5725    0.3968 H   0  0  0  0  0  0  0  0  0  0  0  0
    1.0202    2.2132    0.2851 H   0  0  0  0  0  0  0  0  0  0  0  0
   -0.2786    2.0204   -3.4291 H   0  0  0  0  0  0  0  0  0  0  0  0
    1.2130    0.9144   -3.4291 H   0  0  0  0  0  0  0  0  0  0  0  0
  1  2  2  0
  1  3  1  0
  4  5  2  0
  4  7  1  0
  4  8  1  0
  5  6  2  0
  6  9  1  0
  6 10  1  0
M  RAD  1   1   2
M  END
>  <reaction>  (12) 
rxn_1832

>  <mol_properties>  (12) 
{"0": {"label": "*1", "atom_type": "CS"}, "1": {"label": "*0", "atom_type": "S2d"}, "3": {"label": "*3", "atom_type": "Ct"}, "4": {"label": "*4", "atom_type": "Ct"}, "6": {"label": "*2", "atom_type": "H0"}}

>  <type>  (12) 
unop_8

>  <geom_source>  (12) 
Heuristics

$$$$

     RDKit          3D

 10  8  0  0  0  0  0  0  0  0999 V2000
   -0.1255   -0.5917    1.4433 C   0  0  0  0  0  3  0  0  0  0  0  0
   -1.4626   -1.2590    0.8771 S   0  0  0  0  0  0  0  0  0  0  0  0
    0.1394   -0.6309    2.4986 H   0  0  0  0  0  0  0  0  0  0  0  0
    1.2050    1.2025    0.0998 C   0  0  0  0  0  0  0  0  0  0  0  0
    1.2050    1.2025   -1.1989 C   0  0  0  0  0  0  0  0  0  0  0  0
    1.2050    1.2025   -2.4976 C   0  0  0  0  0  0  0  0  0  0  0  0
    0.5414    0.3076    0.7699 H   0  0  0  0  0  0  0  0  0  0  0  0
    1.7580    1.9483    0.6582 H   0  0  0  0  0  0  0  0  0  0  0  0
    0.4593    1.7555   -3.0560 H   0  0  0  0  0  0  0  0  0  0  0  0
    1.9508    0.6495   -3.0560 H   0  0  0  0  0  0  0  0  0  0  0  0
  1  2  2  0
  1  3  1  0
  4  5  2  0
  4  7  1  0
  4  8  1  0
  5  6  2  0
  6  9  1  0
  6 10  1  0
M  RAD  1   1   2
M  END
>  <reaction>  (13) 
rxn_1832

>  <mol_properties>  (13) 
{"0": {"label": "*1", "atom_type": "CS"}, "1": {"label": "*0", "atom_type": "S2d"}, "3": {"label": "*3", "atom_type": "Ct"}, "4": {"label": "*4", "atom_type": "Ct"}, "6": {"label": "*2", "atom_type": "H0"}}

>  <type>  (13) 
unop_9

>  <geom_source>  (13) 
Heuristics

$$$$

     RDKit          3D

 10  8  0  0  0  0  0  0  0  0999 V2000
   -0.7339   -0.2605    1.2851 C   0  0  0  0  0  3  0  0  0  0  0  0
   -0.4341   -1.8237    1.1434 S   0  0  0  0  0  0  0  0  0  0  0  0
   -1.0759    0.1813    2.2196 H   0  0  0  0  0  0  0  0  0  0  0  0
    0.5966    1.5338   -0.0584 C   0  0  0  0  0  0  0  0  0  0  0  0
    0.5966    1.5338   -1.3571 C   0  0  0  0  0  0  0  0  0  0  0  0
    0.5966    1.5338   -2.6558 C   0  0  0  0  0  0  0  0  0  0  0  0
   -0.0670    0.6389    0.6117 H   0  0  0  0  0  0  0  0  0  0  0  0
    1.1496    2.2795    0.5000 H   0  0  0  0  0  0  0  0  0  0  0  0
   -0.1492    2.0868   -3.2142 H   0  0  0  0  0  0  0  0  0  0  0  0
    1.3424    0.9808   -3.2142 H   0  0  0  0  0  0  0  0  0  0  0  0
  1  2  2  0
  1  3  1  0
  4  5  2  0
  4  7  1  0
  4  8  1  0
  5  6  2  0
  6  9  1  0
  6 10  1  0
M  RAD  1   1   2
M  END
>  <reaction>  (14) 
rxn_1832

>  <mol_properties>  (14) 
{"0": {"label": "*1", "atom_type": "CS"}, "1": {"label": "*0", "atom_type": "S2d"}, "3": {"label": "*3", "atom_type": "Ct"}, "4": {"label": "*4", "atom_type": "Ct"}, "6": {"label": "*2", "atom_type": "H0"}}

>  <type>  (14) 
unop_10

>  <geom_source>  (14) 
Heuristics

$$$$

     RDKit          3D

 10  8  0  0  0  0  0  0  0  0999 V2000
   -0.3982   -0.9457    0.7034 C   0  0  0  0  0  3  0  0  0  0  0  0
   -1.0157   -0.6426    2.1457 S   0  0  0  0  0  0  0  0  0  0  0  0
    0.0425   -1.9093    0.4529 H   0  0  0  0  0  0  0  0  0  0  0  0
    0.9323    0.8485   -0.6401 C   0  0  0  0  0  0  0  0  0  0  0  0
    0.9323    0.8485   -1.9388 C   0  0  0  0  0  0  0  0  0  0  0  0
    0.9323    0.8485   -3.2375 C   0  0  0  0  0  0  0  0  0  0  0  0
    0.2687   -0.0464    0.0300 H   0  0  0  0  0  0  0  0  0  0  0  0
    1.4853    1.5943   -0.0817 H   0  0  0  0  0  0  0  0  0  0  0  0
    0.1866    1.4016   -3.7959 H   0  0  0  0  0  0  0  0  0  0  0  0
    1.6781    0.2955   -3.7959 H   0  0  0  0  0  0  0  0  0  0  0  0
  1  2  2  0
  1  3  1  0
  4  5  2  0
  4  7  1  0
  4  8  1  0
  5  6  2  0
  6  9  1  0
  6 10  1  0
M  RAD  1   1   2
M  END
>  <reaction>  (15) 
rxn_1832

>  <mol_properties>  (15) 
{"0": {"label": "*1", "atom_type": "CS"}, "1": {"label": "*0", "atom_type": "S2d"}, "3": {"label": "*3", "atom_type": "Ct"}, "4": {"label": "*4", "atom_type": "Ct"}, "6": {"label": "*2", "atom_type": "H0"}}

>  <type>  (15) 
unop_11

>  <geom_source>  (15) 
Heuristics

$$$$

     RDKit          3D

 10  8  0  0  0  0  0  0  0  0999 V2000
   -0.3065   -0.4133    1.5014 C   0  0  0  0  0  3  0  0  0  0  0  0
   -1.1558   -1.5586    0.7799 S   0  0  0  0  0  0  0  0  0  0  0  0
   -0.2467   -0.3327    2.5855 H   0  0  0  0  0  0  0  0  0  0  0  0
    1.0240    1.3809    0.1578 C   0  0  0  0  0  0  0  0  0  0  0  0
    1.0240    1.3809   -1.1408 C   0  0  0  0  0  0  0  0  0  0  0  0
    1.0240    1.3809   -2.4395 C   0  0  0  0  0  0  0  0  0  0  0  0
    0.3604    0.4860    0.8279 H   0  0  0  0  0  0  0  0  0  0  0  0
    1.5770    2.1267    0.7163 H   0  0  0  0  0  0  0  0  0  0  0  0
    0.2782    1.9339   -2.9979 H   0  0  0  0  0  0  0  0  0  0  0  0
    1.7697    0.8279   -2.9979 H   0  0  0  0  0  0  0  0  0  0  0  0
  1  2  2  0
  1  3  1  0
  4  5  2  0
  4  7  1  0
  4  8  1  0
  5  6  2  0
  6  9  1  0
  6 10  1  0
M  RAD  1   1   2
M  END
>  <reaction>  (16) 
rxn_1832

>  <mol_properties>  (16) 
{"0": {"label": "*1", "atom_type": "CS"}, "1": {"label": "*0", "atom_type": "S2d"}, "3": {"label": "*3", "atom_type": "Ct"}, "4": {"label": "*4", "atom_type": "Ct"}, "6": {"label": "*2", "atom_type": "H0"}}

>  <type>  (16) 
unop_12

>  <geom_source>  (16) 
Heuristics

$$$$

     RDKit          3D

 10  8  0  0  0  0  0  0  0  0999 V2000
   -2.5624    1.0407   -0.4064 S   0  0  0  0  0  0  0  0  0  0  0  0
    2.3752    0.4053   -0.5190 C   0  0  0  0  0  0  0  0  0  0  0  0
   -2.3584   -0.3055    0.0402 C   0  0  0  0  0  3  0  0  0  0  0  0
    1.2701   -0.0522   -0.0030 C   0  0  0  0  0  0  0  0  0  0  0  0
    0.1651   -0.5096    0.5130 C   0  0  0  0  0  0  0  0  0  0  0  0
    2.8396    1.2898   -0.1049 H   0  0  0  0  0  0  0  0  0  0  0  0
    2.8282   -0.0993   -1.3614 H   0  0  0  0  0  0  0  0  0  0  0  0
   -3.2108   -0.9400    0.2566 H   0  0  0  0  0  0  0  0  0  0  0  0
   -1.0901   -0.7895    0.1937 H   0  0  0  0  0  0  0  0  0  0  0  0
   -0.2565   -0.0398    1.3911 H   0  0  0  0  0  0  0  0  0  0  0  0
  1  3  2  0
  2  4  2  0
  2  6  1  0
  2  7  1  0
  3  8  1  0
  4  5  2  0
  5  9  1  0
  5 10  1  0
M  RAD  1   3   2
M  END
>  <reaction>  (17) 
rxn_1832

>  <mol_properties>  (17) 
{"0": {"label": "*1", "atom_type": "CS"}, "1": {"label": "*0", "atom_type": "S2d"}, "3": {"label": "*3", "atom_type": "Ct"}, "4": {"label": "*4", "atom_type": "Ct"}, "6": {"label": "*2", "atom_type": "H0"}}

>  <type>  (17) 
unop_13

>  <geom_source>  (17) 
AutoTST

$$$$
