
     RDKit          3D

 12 11  0  0  0  0  0  0  0  0999 V2000
    0.2765    1.4875   -0.3235 C   0  0  0  0  0  0  0  0  0  0  0  0
    0.0387    0.2116   -0.0470 C   0  0  0  0  0  0  0  0  0  0  0  0
    1.1382   -0.7557    0.2806 C   0  0  0  0  0  0  0  0  0  0  0  0
   -1.3481   -0.3618   -0.0405 C   0  0  0  0  0  0  0  0  0  0  0  0
    1.2833    1.8882   -0.3245 H   0  0  0  0  0  0  0  0  0  0  0  0
   -0.5275    2.1750   -0.5584 H   0  0  0  0  0  0  0  0  0  0  0  0
    0.9863   -1.1895    1.2731 H   0  0  0  0  0  0  0  0  0  0  0  0
    1.1431   -1.5878   -0.4293 H   0  0  0  0  0  0  0  0  0  0  0  0
    2.1177   -0.2788    0.2593 H   0  0  0  0  0  0  0  0  0  0  0  0
   -1.4296   -1.1802   -0.7616 H   0  0  0  0  0  0  0  0  0  0  0  0
   -1.5864   -0.7819    0.9408 H   0  0  0  0  0  0  0  0  0  0  0  0
   -2.0987    0.3891   -0.2854 H   0  0  0  0  0  0  0  0  0  0  0  0
  1  2  2  3
  1  5  1  0
  1  6  1  0
  2  3  1  0
  2  4  1  0
  3  7  1  0
  3  8  1  0
  3  9  1  0
  4 10  1  0
  4 11  1  0
  4 12  1  0
M  END
>  <reaction>  (1) 
rxn_760

>  <mol_properties>  (1) 
{"2": {"label": "donator", "atom_type": "Cs"}, "6": {"label": "d_hydrogen", "atom_type": "H0"}}

>  <type>  (1) 
r1h

$$$$

     RDKit          3D

  4  3  0  0  0  0  0  0  0  0999 V2000
    0.0000    0.0000    0.0000 C   0  0  0  0  0  3  0  0  0  0  0  0
    1.0638   -0.1747    0.0540 H   0  0  0  0  0  0  0  0  0  0  0  0
   -0.6833   -0.8351   -0.0280 H   0  0  0  0  0  0  0  0  0  0  0  0
   -0.3805    1.0098   -0.0260 H   0  0  0  0  0  0  0  0  0  0  0  0
  1  2  1  0
  1  3  1  0
  1  4  1  0
M  RAD  1   1   2
M  END
>  <reaction>  (2) 
rxn_760

>  <mol_properties>  (2) 
{"0": {"label": "acceptor", "atom_type": "Cs"}}

>  <type>  (2) 
r2

$$$$

     RDKit          3D

  5  4  0  0  0  0  0  0  0  0999 V2000
    0.0000    0.0000    0.0000 C   0  0  0  0  0  0  0  0  0  0  0  0
   -0.6486   -0.7720   -0.4113 H   0  0  0  0  0  0  0  0  0  0  0  0
   -0.3482    0.9787   -0.3267 H   0  0  0  0  0  0  0  0  0  0  0  0
   -0.0223   -0.0487    1.0876 H   0  0  0  0  0  0  0  0  0  0  0  0
    1.0191   -0.1580   -0.3496 H   0  0  0  0  0  0  0  0  0  0  0  0
  1  2  1  0
  1  3  1  0
  1  4  1  0
  1  5  1  0
M  END
>  <reaction>  (3) 
rxn_760

>  <mol_properties>  (3) 
{"0": {"label": "acceptor", "atom_type": "Cs"}, "4": {"label": "a_hydrogen", "atom_type": "H0"}}

>  <type>  (3) 
r2h

$$$$

     RDKit          3D

 16 14  0  0  0  0  0  0  0  0999 V2000
   -1.6802    1.2221    1.6386 C   0  0  0  0  0  3  0  0  0  0  0  0
   -2.3721    0.6872    0.9960 H   0  0  0  0  0  0  0  0  0  0  0  0
   -1.8334    2.2956    1.6730 H   0  0  0  0  0  0  0  0  0  0  0  0
   -1.5102    0.7605    2.6058 H   0  0  0  0  0  0  0  0  0  0  0  0
    0.2577   -0.2350   -1.8405 C   0  0  0  0  0  0  0  0  0  0  0  0
    0.4897   -0.2936   -0.5280 C   0  0  0  0  0  0  0  0  0  0  0  0
    0.6485    0.9165    0.2939 C   0  0  0  0  0  0  0  0  0  0  0  0
    0.5352   -1.5977    0.2153 C   0  0  0  0  0  0  0  0  0  0  0  0
    0.2198    0.7127   -2.3644 H   0  0  0  0  0  0  0  0  0  0  0  0
    0.1070   -1.1317   -2.4292 H   0  0  0  0  0  0  0  0  0  0  0  0
   -0.4364    1.0695    0.9443 H   0  0  0  0  0  0  0  0  0  0  0  0
    1.3885    0.8312    1.0893 H   0  0  0  0  0  0  0  0  0  0  0  0
    0.7609    1.8412   -0.2680 H   0  0  0  0  0  0  0  0  0  0  0  0
    1.5002   -1.7255    0.7127 H   0  0  0  0  0  0  0  0  0  0  0  0
   -0.2298   -1.6153    0.9971 H   0  0  0  0  0  0  0  0  0  0  0  0
    0.3720   -2.4480   -0.4461 H   0  0  0  0  0  0  0  0  0  0  0  0
  1  2  1  0
  1  3  1  0
  1  4  1  0
  5  6  2  3
  5  9  1  0
  5 10  1  0
  6  7  1  0
  6  8  1  0
  7 11  1  0
  7 12  1  0
  7 13  1  0
  8 14  1  0
  8 15  1  0
  8 16  1  0
M  RAD  1   1   2
M  END
>  <reaction>  (4) 
rxn_760

>  <mol_properties>  (4) 
{"0": {"label": "*3", "atom_type": "Cs"}, "1": {"label": "*4", "atom_type": "H0"}, "5": {"label": "*0", "atom_type": "Cd"}, "6": {"label": "*1", "atom_type": "Cs"}, "10": {"label": "*2", "atom_type": "H0"}}

>  <type>  (4) 
ts

$$$$

     RDKit          3D

 16 14  0  0  0  0  0  0  0  0999 V2000
   -1.6465    1.0733    1.7699 C   0  0  0  0  0  0  0  0  0  0  0  0
   -1.3252    1.1368    2.8084 H   0  0  0  0  0  0  0  0  0  0  0  0
   -2.6715    0.7079    1.7288 H   0  0  0  0  0  0  0  0  0  0  0  0
   -1.5559    2.1204    1.4852 H   0  0  0  0  0  0  0  0  0  0  0  0
    0.4554   -0.3012   -1.9177 C   0  0  0  0  0  0  0  0  0  0  0  0
    0.4554   -0.3012   -0.5907 C   0  0  0  0  0  0  0  0  0  0  0  0
    0.4554    0.9677    0.2106 C   0  0  0  0  0  3  0  0  0  0  0  0
    0.4554   -1.5700    0.2106 C   0  0  0  0  0  0  0  0  0  0  0  0
    0.4554    0.6230   -2.4836 H   0  0  0  0  0  0  0  0  0  0  0  0
    0.4554   -1.2253   -2.4836 H   0  0  0  0  0  0  0  0  0  0  0  0
   -0.5979    1.0206    0.9920 H   0  0  0  0  0  0  0  0  0  0  0  0
    1.3331    1.0118    0.8618 H   0  0  0  0  0  0  0  0  0  0  0  0
    0.4554    1.8506   -0.4279 H   0  0  0  0  0  0  0  0  0  0  0  0
    1.3331   -1.6141    0.8618 H   0  0  0  0  0  0  0  0  0  0  0  0
   -0.4223   -1.6141    0.8618 H   0  0  0  0  0  0  0  0  0  0  0  0
    0.4554   -2.4530   -0.4279 H   0  0  0  0  0  0  0  0  0  0  0  0
  1  2  1  0
  1  3  1  0
  1  4  1  0
  1 11  1  0
  5  6  2  3
  5  9  1  0
  5 10  1  0
  6  7  1  0
  6  8  1  0
  7 12  1  0
  7 13  1  0
  8 14  1  0
  8 15  1  0
  8 16  1  0
M  RAD  1   7   2
M  END
>  <reaction>  (5) 
rxn_760

>  <mol_properties>  (5) 
{"0": {"label": "*3", "atom_type": "Cs"}, "1": {"label": "*4", "atom_type": "H0"}, "5": {"label": "*0", "atom_type": "Cd"}, "6": {"label": "*1", "atom_type": "Cs"}, "10": {"label": "*2", "atom_type": "H0"}}

>  <type>  (5) 
unop_1

>  <geom_source>  (5) 
Heuristics

$$$$

     RDKit          3D

 16 14  0  0  0  0  0  0  0  0999 V2000
   -1.6483    1.0791    1.7741 C   0  0  0  0  0  0  0  0  0  0  0  0
   -1.9436    0.0691    2.0542 H   0  0  0  0  0  0  0  0  0  0  0  0
   -2.5362    1.6669    1.5463 H   0  0  0  0  0  0  0  0  0  0  0  0
   -0.9508    1.8316    2.1390 H   0  0  0  0  0  0  0  0  0  0  0  0
    0.4536   -0.2953   -1.9135 C   0  0  0  0  0  0  0  0  0  0  0  0
    0.4536   -0.2953   -0.5865 C   0  0  0  0  0  0  0  0  0  0  0  0
    0.4536    0.9736    0.2148 C   0  0  0  0  0  3  0  0  0  0  0  0
    0.4536   -1.5642    0.2148 C   0  0  0  0  0  0  0  0  0  0  0  0
    0.4536    0.6288   -2.4794 H   0  0  0  0  0  0  0  0  0  0  0  0
    0.4536   -1.2194   -2.4794 H   0  0  0  0  0  0  0  0  0  0  0  0
   -0.5997    1.0265    0.9962 H   0  0  0  0  0  0  0  0  0  0  0  0
    1.3313    1.0177    0.8660 H   0  0  0  0  0  0  0  0  0  0  0  0
    0.4536    1.8565   -0.4237 H   0  0  0  0  0  0  0  0  0  0  0  0
    1.3313   -1.6082    0.8660 H   0  0  0  0  0  0  0  0  0  0  0  0
   -0.4241   -1.6082    0.8660 H   0  0  0  0  0  0  0  0  0  0  0  0
    0.4536   -2.4471   -0.4237 H   0  0  0  0  0  0  0  0  0  0  0  0
  1  2  1  0
  1  3  1  0
  1  4  1  0
  1 11  1  0
  5  6  2  3
  5  9  1  0
  5 10  1  0
  6  7  1  0
  6  8  1  0
  7 12  1  0
  7 13  1  0
  8 14  1  0
  8 15  1  0
  8 16  1  0
M  RAD  1   7   2
M  END
>  <reaction>  (6) 
rxn_760

>  <mol_properties>  (6) 
{"0": {"label": "*3", "atom_type": "Cs"}, "1": {"label": "*4", "atom_type": "H0"}, "5": {"label": "*0", "atom_type": "Cd"}, "6": {"label": "*1", "atom_type": "Cs"}, "10": {"label": "*2", "atom_type": "H0"}}

>  <type>  (6) 
unop_2

>  <geom_source>  (6) 
Heuristics

$$$$

     RDKit          3D

 16 14  0  0  0  0  0  0  0  0999 V2000
   -1.6429    1.0739    1.7706 C   0  0  0  0  0  0  0  0  0  0  0  0
   -1.4016    1.6432    2.6670 H   0  0  0  0  0  0  0  0  0  0  0  0
   -2.3711    0.3023    2.0158 H   0  0  0  0  0  0  0  0  0  0  0  0
   -2.0218    1.9769    1.2945 H   0  0  0  0  0  0  0  0  0  0  0  0
    0.4590   -0.3005   -1.9170 C   0  0  0  0  0  0  0  0  0  0  0  0
    0.4590   -0.3005   -0.5900 C   0  0  0  0  0  0  0  0  0  0  0  0
    0.4590    0.9683    0.2113 C   0  0  0  0  0  3  0  0  0  0  0  0
    0.4590   -1.5694    0.2113 C   0  0  0  0  0  0  0  0  0  0  0  0
    0.4590    0.6236   -2.4829 H   0  0  0  0  0  0  0  0  0  0  0  0
    0.4590   -1.2247   -2.4829 H   0  0  0  0  0  0  0  0  0  0  0  0
   -0.5943    1.0212    0.9927 H   0  0  0  0  0  0  0  0  0  0  0  0
    1.3367    1.0124    0.8624 H   0  0  0  0  0  0  0  0  0  0  0  0
    0.4590    1.8513   -0.4272 H   0  0  0  0  0  0  0  0  0  0  0  0
    1.3367   -1.6135    0.8624 H   0  0  0  0  0  0  0  0  0  0  0  0
   -0.4188   -1.6135    0.8624 H   0  0  0  0  0  0  0  0  0  0  0  0
    0.4590   -2.4523   -0.4272 H   0  0  0  0  0  0  0  0  0  0  0  0
  1  2  1  0
  1  3  1  0
  1  4  1  0
  1 11  1  0
  5  6  2  3
  5  9  1  0
  5 10  1  0
  6  7  1  0
  6  8  1  0
  7 12  1  0
  7 13  1  0
  8 14  1  0
  8 15  1  0
  8 16  1  0
M  RAD  1   7   2
M  END
>  <reaction>  (7) 
rxn_760

>  <mol_properties>  (7) 
{"0": {"label": "*3", "atom_type": "Cs"}, "1": {"label": "*4", "atom_type": "H0"}, "5": {"label": "*0", "atom_type": "Cd"}, "6": {"label": "*1", "atom_type": "Cs"}, "10": {"label": "*2", "atom_type": "H0"}}

>  <type>  (7) 
unop_3

>  <geom_source>  (7) 
Heuristics

$$$$

     RDKit          3D

 16 14  0  0  0  0  0  0  0  0999 V2000
   -1.6488    1.0759    1.7731 C   0  0  0  0  0  0  0  0  0  0  0  0
   -2.5527    1.0416    1.1667 H   0  0  0  0  0  0  0  0  0  0  0  0
   -1.3259    2.1098    1.8851 H   0  0  0  0  0  0  0  0  0  0  0  0
   -1.5164    0.6358    2.7603 H   0  0  0  0  0  0  0  0  0  0  0  0
    0.4531   -0.2985   -1.9146 C   0  0  0  0  0  0  0  0  0  0  0  0
    0.4531   -0.2985   -0.5876 C   0  0  0  0  0  0  0  0  0  0  0  0
    0.4531    0.9703    0.2137 C   0  0  0  0  0  3  0  0  0  0  0  0
    0.4531   -1.5674    0.2137 C   0  0  0  0  0  0  0  0  0  0  0  0
    0.4531    0.6256   -2.4805 H   0  0  0  0  0  0  0  0  0  0  0  0
    0.4531   -1.2227   -2.4805 H   0  0  0  0  0  0  0  0  0  0  0  0
   -0.6002    1.0232    0.9951 H   0  0  0  0  0  0  0  0  0  0  0  0
    1.3308    1.0144    0.8649 H   0  0  0  0  0  0  0  0  0  0  0  0
    0.4531    1.8533   -0.4248 H   0  0  0  0  0  0  0  0  0  0  0  0
    1.3308   -1.6115    0.8649 H   0  0  0  0  0  0  0  0  0  0  0  0
   -0.4247   -1.6115    0.8649 H   0  0  0  0  0  0  0  0  0  0  0  0
    0.4531   -2.4503   -0.4248 H   0  0  0  0  0  0  0  0  0  0  0  0
  1  2  1  0
  1  3  1  0
  1  4  1  0
  1 11  1  0
  5  6  2  3
  5  9  1  0
  5 10  1  0
  6  7  1  0
  6  8  1  0
  7 12  1  0
  7 13  1  0
  8 14  1  0
  8 15  1  0
  8 16  1  0
M  RAD  1   7   2
M  END
>  <reaction>  (8) 
rxn_760

>  <mol_properties>  (8) 
{"0": {"label": "*3", "atom_type": "Cs"}, "1": {"label": "*4", "atom_type": "H0"}, "5": {"label": "*0", "atom_type": "Cd"}, "6": {"label": "*1", "atom_type": "Cs"}, "10": {"label": "*2", "atom_type": "H0"}}

>  <type>  (8) 
unop_4

>  <geom_source>  (8) 
Heuristics

$$$$

     RDKit          3D

 16 14  0  0  0  0  0  0  0  0999 V2000
   -1.6420    1.0779    1.7678 C   0  0  0  0  0  0  0  0  0  0  0  0
   -1.6235    2.0043    2.3397 H   0  0  0  0  0  0  0  0  0  0  0  0
   -1.6305    0.2296    2.4505 H   0  0  0  0  0  0  0  0  0  0  0  0
   -2.5994    1.4195    1.3773 H   0  0  0  0  0  0  0  0  0  0  0  0
    0.4598   -0.2966   -1.9198 C   0  0  0  0  0  0  0  0  0  0  0  0
    0.4598   -0.2966   -0.5928 C   0  0  0  0  0  0  0  0  0  0  0  0
    0.4598    0.9723    0.2085 C   0  0  0  0  0  3  0  0  0  0  0  0
    0.4598   -1.5654    0.2085 C   0  0  0  0  0  0  0  0  0  0  0  0
    0.4598    0.6276   -2.4857 H   0  0  0  0  0  0  0  0  0  0  0  0
    0.4598   -1.2207   -2.4857 H   0  0  0  0  0  0  0  0  0  0  0  0
   -0.5934    1.0252    0.9899 H   0  0  0  0  0  0  0  0  0  0  0  0
    1.3376    1.0164    0.8596 H   0  0  0  0  0  0  0  0  0  0  0  0
    0.4598    1.8552   -0.4300 H   0  0  0  0  0  0  0  0  0  0  0  0
    1.3376   -1.6095    0.8596 H   0  0  0  0  0  0  0  0  0  0  0  0
   -0.4179   -1.6095    0.8596 H   0  0  0  0  0  0  0  0  0  0  0  0
    0.4599   -2.4483   -0.4300 H   0  0  0  0  0  0  0  0  0  0  0  0
  1  2  1  0
  1  3  1  0
  1  4  1  0
  1 11  1  0
  5  6  2  3
  5  9  1  0
  5 10  1  0
  6  7  1  0
  6  8  1  0
  7 12  1  0
  7 13  1  0
  8 14  1  0
  8 15  1  0
  8 16  1  0
M  RAD  1   7   2
M  END
>  <reaction>  (9) 
rxn_760

>  <mol_properties>  (9) 
{"0": {"label": "*3", "atom_type": "Cs"}, "1": {"label": "*4", "atom_type": "H0"}, "5": {"label": "*0", "atom_type": "Cd"}, "6": {"label": "*1", "atom_type": "Cs"}, "10": {"label": "*2", "atom_type": "H0"}}

>  <type>  (9) 
unop_5

>  <geom_source>  (9) 
Heuristics

$$$$

     RDKit          3D

 16 14  0  0  0  0  0  0  0  0999 V2000
   -1.6482    1.0751    1.7702 C   0  0  0  0  0  0  0  0  0  0  0  0
   -2.4680    1.5596    1.2421 H   0  0  0  0  0  0  0  0  0  0  0  0
   -0.9744    1.8325    2.1677 H   0  0  0  0  0  0  0  0  0  0  0  0
   -1.9913    0.4520    2.5948 H   0  0  0  0  0  0  0  0  0  0  0  0
    0.4536   -0.2994   -1.9174 C   0  0  0  0  0  0  0  0  0  0  0  0
    0.4536   -0.2994   -0.5904 C   0  0  0  0  0  0  0  0  0  0  0  0
    0.4536    0.9695    0.2109 C   0  0  0  0  0  3  0  0  0  0  0  0
    0.4536   -1.5682    0.2109 C   0  0  0  0  0  0  0  0  0  0  0  0
    0.4536    0.6247   -2.4833 H   0  0  0  0  0  0  0  0  0  0  0  0
    0.4536   -1.2235   -2.4833 H   0  0  0  0  0  0  0  0  0  0  0  0
   -0.5996    1.0224    0.9923 H   0  0  0  0  0  0  0  0  0  0  0  0
    1.3314    1.0136    0.8620 H   0  0  0  0  0  0  0  0  0  0  0  0
    0.4536    1.8524   -0.4276 H   0  0  0  0  0  0  0  0  0  0  0  0
    1.3314   -1.6123    0.8620 H   0  0  0  0  0  0  0  0  0  0  0  0
   -0.4241   -1.6123    0.8620 H   0  0  0  0  0  0  0  0  0  0  0  0
    0.4536   -2.4512   -0.4276 H   0  0  0  0  0  0  0  0  0  0  0  0
  1  2  1  0
  1  3  1  0
  1  4  1  0
  1 11  1  0
  5  6  2  3
  5  9  1  0
  5 10  1  0
  6  7  1  0
  6  8  1  0
  7 12  1  0
  7 13  1  0
  8 14  1  0
  8 15  1  0
  8 16  1  0
M  RAD  1   7   2
M  END
>  <reaction>  (10) 
rxn_760

>  <mol_properties>  (10) 
{"0": {"label": "*3", "atom_type": "Cs"}, "1": {"label": "*4", "atom_type": "H0"}, "5": {"label": "*0", "atom_type": "Cd"}, "6": {"label": "*1", "atom_type": "Cs"}, "10": {"label": "*2", "atom_type": "H0"}}

>  <type>  (10) 
unop_6

>  <geom_source>  (10) 
Heuristics

$$$$

     RDKit          3D

 16 14  0  0  0  0  0  0  0  0999 V2000
   -1.6479    1.0755    1.7671 C   0  0  0  0  0  0  0  0  0  0  0  0
   -2.2420    1.9531    1.5166 H   0  0  0  0  0  0  0  0  0  0  0  0
   -0.8170    1.3701    2.4064 H   0  0  0  0  0  0  0  0  0  0  0  0
   -2.4003    0.4875    2.2905 H   0  0  0  0  0  0  0  0  0  0  0  0
    0.4540   -0.2989   -1.9205 C   0  0  0  0  0  0  0  0  0  0  0  0
    0.4540   -0.2989   -0.5935 C   0  0  0  0  0  0  0  0  0  0  0  0
    0.4540    0.9700    0.2078 C   0  0  0  0  0  3  0  0  0  0  0  0
    0.4540   -1.5678    0.2078 C   0  0  0  0  0  0  0  0  0  0  0  0
    0.4540    0.6252   -2.4864 H   0  0  0  0  0  0  0  0  0  0  0  0
    0.4540   -1.2230   -2.4864 H   0  0  0  0  0  0  0  0  0  0  0  0
   -0.5993    1.0229    0.9892 H   0  0  0  0  0  0  0  0  0  0  0  0
    1.3317    1.0141    0.8589 H   0  0  0  0  0  0  0  0  0  0  0  0
    0.4540    1.8529   -0.4307 H   0  0  0  0  0  0  0  0  0  0  0  0
    1.3317   -1.6118    0.8589 H   0  0  0  0  0  0  0  0  0  0  0  0
   -0.4237   -1.6118    0.8589 H   0  0  0  0  0  0  0  0  0  0  0  0
    0.4540   -2.4507   -0.4307 H   0  0  0  0  0  0  0  0  0  0  0  0
  1  2  1  0
  1  3  1  0
  1  4  1  0
  1 11  1  0
  5  6  2  3
  5  9  1  0
  5 10  1  0
  6  7  1  0
  6  8  1  0
  7 12  1  0
  7 13  1  0
  8 14  1  0
  8 15  1  0
  8 16  1  0
M  RAD  1   7   2
M  END
>  <reaction>  (11) 
rxn_760

>  <mol_properties>  (11) 
{"0": {"label": "*3", "atom_type": "Cs"}, "1": {"label": "*4", "atom_type": "H0"}, "5": {"label": "*0", "atom_type": "Cd"}, "6": {"label": "*1", "atom_type": "Cs"}, "10": {"label": "*2", "atom_type": "H0"}}

>  <type>  (11) 
unop_7

>  <geom_source>  (11) 
Heuristics

$$$$

     RDKit          3D

 16 14  0  0  0  0  0  0  0  0999 V2000
   -1.6484    1.0757    1.7696 C   0  0  0  0  0  0  0  0  0  0  0  0
   -1.4112    0.6203    2.7299 H   0  0  0  0  0  0  0  0  0  0  0  0
   -2.7282    1.0844    1.6289 H   0  0  0  0  0  0  0  0  0  0  0  0
   -1.2820    2.0979    1.6888 H   0  0  0  0  0  0  0  0  0  0  0  0
    0.4535   -0.2988   -1.9180 C   0  0  0  0  0  0  0  0  0  0  0  0
    0.4535   -0.2988   -0.5910 C   0  0  0  0  0  0  0  0  0  0  0  0
    0.4535    0.9701    0.2102 C   0  0  0  0  0  3  0  0  0  0  0  0
    0.4535   -1.5676    0.2102 C   0  0  0  0  0  0  0  0  0  0  0  0
    0.4535    0.6254   -2.4839 H   0  0  0  0  0  0  0  0  0  0  0  0
    0.4535   -1.2229   -2.4839 H   0  0  0  0  0  0  0  0  0  0  0  0
   -0.5998    1.0230    0.9916 H   0  0  0  0  0  0  0  0  0  0  0  0
    1.3312    1.0142    0.8614 H   0  0  0  0  0  0  0  0  0  0  0  0
    0.4535    1.8530   -0.4283 H   0  0  0  0  0  0  0  0  0  0  0  0
    1.3312   -1.6117    0.8614 H   0  0  0  0  0  0  0  0  0  0  0  0
   -0.4243   -1.6117    0.8614 H   0  0  0  0  0  0  0  0  0  0  0  0
    0.4535   -2.4505   -0.4283 H   0  0  0  0  0  0  0  0  0  0  0  0
  1  2  1  0
  1  3  1  0
  1  4  1  0
  1 11  1  0
  5  6  2  3
  5  9  1  0
  5 10  1  0
  6  7  1  0
  6  8  1  0
  7 12  1  0
  7 13  1  0
  8 14  1  0
  8 15  1  0
  8 16  1  0
M  RAD  1   7   2
M  END
>  <reaction>  (12) 
rxn_760

>  <mol_properties>  (12) 
{"0": {"label": "*3", "atom_type": "Cs"}, "1": {"label": "*4", "atom_type": "H0"}, "5": {"label": "*0", "atom_type": "Cd"}, "6": {"label": "*1", "atom_type": "Cs"}, "10": {"label": "*2", "atom_type": "H0"}}

>  <type>  (12) 
unop_8

>  <geom_source>  (12) 
Heuristics

$$$$

     RDKit          3D

 16 14  0  0  0  0  0  0  0  0999 V2000
   -1.6493    1.0770    1.7753 C   0  0  0  0  0  0  0  0  0  0  0  0
   -2.4731    0.5369    1.3111 H   0  0  0  0  0  0  0  0  0  0  0  0
   -1.7936    2.1475    1.6375 H   0  0  0  0  0  0  0  0  0  0  0  0
   -1.0976    1.0290    2.7129 H   0  0  0  0  0  0  0  0  0  0  0  0
    0.4526   -0.2974   -1.9123 C   0  0  0  0  0  0  0  0  0  0  0  0
    0.4526   -0.2974   -0.5853 C   0  0  0  0  0  0  0  0  0  0  0  0
    0.4526    0.9714    0.2159 C   0  0  0  0  0  3  0  0  0  0  0  0
    0.4526   -1.5663    0.2159 C   0  0  0  0  0  0  0  0  0  0  0  0
    0.4526    0.6267   -2.4782 H   0  0  0  0  0  0  0  0  0  0  0  0
    0.4526   -1.2216   -2.4782 H   0  0  0  0  0  0  0  0  0  0  0  0
   -0.6007    1.0243    0.9974 H   0  0  0  0  0  0  0  0  0  0  0  0
    1.3303    1.0155    0.8671 H   0  0  0  0  0  0  0  0  0  0  0  0
    0.4526    1.8543   -0.4226 H   0  0  0  0  0  0  0  0  0  0  0  0
    1.3303   -1.6104    0.8671 H   0  0  0  0  0  0  0  0  0  0  0  0
   -0.4251   -1.6104    0.8671 H   0  0  0  0  0  0  0  0  0  0  0  0
    0.4526   -2.4492   -0.4226 H   0  0  0  0  0  0  0  0  0  0  0  0
  1  2  1  0
  1  3  1  0
  1  4  1  0
  1 11  1  0
  5  6  2  3
  5  9  1  0
  5 10  1  0
  6  7  1  0
  6  8  1  0
  7 12  1  0
  7 13  1  0
  8 14  1  0
  8 15  1  0
  8 16  1  0
M  RAD  1   7   2
M  END
>  <reaction>  (13) 
rxn_760

>  <mol_properties>  (13) 
{"0": {"label": "*3", "atom_type": "Cs"}, "1": {"label": "*4", "atom_type": "H0"}, "5": {"label": "*0", "atom_type": "Cd"}, "6": {"label": "*1", "atom_type": "Cs"}, "10": {"label": "*2", "atom_type": "H0"}}

>  <type>  (13) 
unop_9

>  <geom_source>  (13) 
Heuristics

$$$$

     RDKit          3D

 16 14  0  0  0  0  0  0  0  0999 V2000
   -1.6486    1.0783    1.7712 C   0  0  0  0  0  0  0  0  0  0  0  0
   -1.6370    0.2300    2.4539 H   0  0  0  0  0  0  0  0  0  0  0  0
   -2.6776    1.3864    1.5925 H   0  0  0  0  0  0  0  0  0  0  0  0
   -1.0970    2.0097    1.8894 H   0  0  0  0  0  0  0  0  0  0  0  0
    0.4533   -0.2961   -1.9164 C   0  0  0  0  0  0  0  0  0  0  0  0
    0.4533   -0.2961   -0.5894 C   0  0  0  0  0  0  0  0  0  0  0  0
    0.4533    0.9727    0.2119 C   0  0  0  0  0  3  0  0  0  0  0  0
    0.4533   -1.5650    0.2119 C   0  0  0  0  0  0  0  0  0  0  0  0
    0.4533    0.6280   -2.4823 H   0  0  0  0  0  0  0  0  0  0  0  0
    0.4533   -1.2203   -2.4823 H   0  0  0  0  0  0  0  0  0  0  0  0
   -0.6000    1.0256    0.9933 H   0  0  0  0  0  0  0  0  0  0  0  0
    1.3310    1.0168    0.8631 H   0  0  0  0  0  0  0  0  0  0  0  0
    0.4533    1.8556   -0.4266 H   0  0  0  0  0  0  0  0  0  0  0  0
    1.3310   -1.6091    0.8631 H   0  0  0  0  0  0  0  0  0  0  0  0
   -0.4244   -1.6091    0.8631 H   0  0  0  0  0  0  0  0  0  0  0  0
    0.4533   -2.4479   -0.4266 H   0  0  0  0  0  0  0  0  0  0  0  0
  1  2  1  0
  1  3  1  0
  1  4  1  0
  1 11  1  0
  5  6  2  3
  5  9  1  0
  5 10  1  0
  6  7  1  0
  6  8  1  0
  7 12  1  0
  7 13  1  0
  8 14  1  0
  8 15  1  0
  8 16  1  0
M  RAD  1   7   2
M  END
>  <reaction>  (14) 
rxn_760

>  <mol_properties>  (14) 
{"0": {"label": "*3", "atom_type": "Cs"}, "1": {"label": "*4", "atom_type": "H0"}, "5": {"label": "*0", "atom_type": "Cd"}, "6": {"label": "*1", "atom_type": "Cs"}, "10": {"label": "*2", "atom_type": "H0"}}

>  <type>  (14) 
unop_10

>  <geom_source>  (14) 
Heuristics

$$$$

     RDKit          3D

 16 14  0  0  0  0  0  0  0  0999 V2000
   -1.6460    1.0778    1.7653 C   0  0  0  0  0  0  0  0  0  0  0  0
   -1.9332    2.1171    1.9174 H   0  0  0  0  0  0  0  0  0  0  0  0
   -0.9662    0.7693    2.5581 H   0  0  0  0  0  0  0  0  0  0  0  0
   -2.6868    0.7723    1.8608 H   0  0  0  0  0  0  0  0  0  0  0  0
    0.4559   -0.2966   -1.9223 C   0  0  0  0  0  0  0  0  0  0  0  0
    0.4559   -0.2966   -0.5953 C   0  0  0  0  0  0  0  0  0  0  0  0
    0.4559    0.9722    0.2060 C   0  0  0  0  0  3  0  0  0  0  0  0
    0.4559   -1.5655    0.2060 C   0  0  0  0  0  0  0  0  0  0  0  0
    0.4559    0.6275   -2.4882 H   0  0  0  0  0  0  0  0  0  0  0  0
    0.4559   -1.2207   -2.4882 H   0  0  0  0  0  0  0  0  0  0  0  0
   -0.5974    1.0251    0.9874 H   0  0  0  0  0  0  0  0  0  0  0  0
    1.3336    1.0163    0.8571 H   0  0  0  0  0  0  0  0  0  0  0  0
    0.4559    1.8552   -0.4325 H   0  0  0  0  0  0  0  0  0  0  0  0
    1.3336   -1.6096    0.8571 H   0  0  0  0  0  0  0  0  0  0  0  0
   -0.4218   -1.6096    0.8571 H   0  0  0  0  0  0  0  0  0  0  0  0
    0.4559   -2.4484   -0.4325 H   0  0  0  0  0  0  0  0  0  0  0  0
  1  2  1  0
  1  3  1  0
  1  4  1  0
  1 11  1  0
  5  6  2  3
  5  9  1  0
  5 10  1  0
  6  7  1  0
  6  8  1  0
  7 12  1  0
  7 13  1  0
  8 14  1  0
  8 15  1  0
  8 16  1  0
M  RAD  1   7   2
M  END
>  <reaction>  (15) 
rxn_760

>  <mol_properties>  (15) 
{"0": {"label": "*3", "atom_type": "Cs"}, "1": {"label": "*4", "atom_type": "H0"}, "5": {"label": "*0", "atom_type": "Cd"}, "6": {"label": "*1", "atom_type": "Cs"}, "10": {"label": "*2", "atom_type": "H0"}}

>  <type>  (15) 
unop_11

>  <geom_source>  (15) 
Heuristics

$$$$

     RDKit          3D

 16 14  0  0  0  0  0  0  0  0999 V2000
   -1.6488    1.0782    1.7760 C   0  0  0  0  0  0  0  0  0  0  0  0
   -2.2498    0.1810    1.6362 H   0  0  0  0  0  0  0  0  0  0  0  0
   -2.2429    1.9558    1.5255 H   0  0  0  0  0  0  0  0  0  0  0  0
   -0.9048    1.4925    2.4547 H   0  0  0  0  0  0  0  0  0  0  0  0
    0.4531   -0.2962   -1.9117 C   0  0  0  0  0  0  0  0  0  0  0  0
    0.4531   -0.2962   -0.5847 C   0  0  0  0  0  0  0  0  0  0  0  0
    0.4531    0.9727    0.2166 C   0  0  0  0  0  3  0  0  0  0  0  0
    0.4531   -1.5651    0.2166 C   0  0  0  0  0  0  0  0  0  0  0  0
    0.4531    0.6279   -2.4776 H   0  0  0  0  0  0  0  0  0  0  0  0
    0.4531   -1.2203   -2.4776 H   0  0  0  0  0  0  0  0  0  0  0  0
   -0.6002    1.0256    0.9980 H   0  0  0  0  0  0  0  0  0  0  0  0
    1.3308    1.0168    0.8678 H   0  0  0  0  0  0  0  0  0  0  0  0
    0.4531    1.8556   -0.4219 H   0  0  0  0  0  0  0  0  0  0  0  0
    1.3308   -1.6091    0.8678 H   0  0  0  0  0  0  0  0  0  0  0  0
   -0.4246   -1.6091    0.8678 H   0  0  0  0  0  0  0  0  0  0  0  0
    0.4531   -2.4480   -0.4219 H   0  0  0  0  0  0  0  0  0  0  0  0
  1  2  1  0
  1  3  1  0
  1  4  1  0
  1 11  1  0
  5  6  2  3
  5  9  1  0
  5 10  1  0
  6  7  1  0
  6  8  1  0
  7 12  1  0
  7 13  1  0
  8 14  1  0
  8 15  1  0
  8 16  1  0
M  RAD  1   7   2
M  END
>  <reaction>  (16) 
rxn_760

>  <mol_properties>  (16) 
{"0": {"label": "*3", "atom_type": "Cs"}, "1": {"label": "*4", "atom_type": "H0"}, "5": {"label": "*0", "atom_type": "Cd"}, "6": {"label": "*1", "atom_type": "Cs"}, "10": {"label": "*2", "atom_type": "H0"}}

>  <type>  (16) 
unop_12

>  <geom_source>  (16) 
Heuristics

$$$$

     RDKit          3D

 16 14  0  0  0  0  0  0  0  0999 V2000
   -1.5862   -1.1787    0.3825 C   0  0  0  0  0  0  0  0  0  0  0  0
    2.6186   -0.1320    0.2971 C   0  0  0  0  0  0  0  0  0  0  0  0
   -1.1211    0.1355   -0.1734 C   0  0  0  0  0  0  0  0  0  0  0  0
    0.2573    0.2460   -0.7508 C   0  0  0  0  0  0  0  0  0  0  0  0
   -1.9314    1.2016   -0.1539 C   0  0  0  0  0  3  0  0  0  0  0  0
   -1.8398   -1.0646    1.4577 H   0  0  0  0  0  0  0  0  0  0  0  0
   -0.7925   -1.9497    0.2861 H   0  0  0  0  0  0  0  0  0  0  0  0
   -2.4848   -1.5251   -0.1706 H   0  0  0  0  0  0  0  0  0  0  0  0
    2.4659    0.4616    1.2218 H   0  0  0  0  0  0  0  0  0  0  0  0
    3.3139    0.4076   -0.3783 H   0  0  0  0  0  0  0  0  0  0  0  0
    3.0497   -1.1202    0.5589 H   0  0  0  0  0  0  0  0  0  0  0  0
    1.5269   -0.2947   -0.2760 H   0  0  0  0  0  0  0  0  0  0  0  0
   -2.9320    1.1311    0.2624 H   0  0  0  0  0  0  0  0  0  0  0  0
   -1.6031    2.1564   -0.5541 H   0  0  0  0  0  0  0  0  0  0  0  0
    0.8534    0.9940   -0.1865 H   0  0  0  0  0  0  0  0  0  0  0  0
    0.2052    0.5313   -1.8227 H   0  0  0  0  0  0  0  0  0  0  0  0
  1  3  1  0
  1  6  1  0
  1  7  1  0
  1  8  1  0
  2  9  1  0
  2 10  1  0
  2 11  1  0
  2 12  1  0
  3  4  2  3
  3  5  1  0
  4 15  1  0
  4 16  1  0
  5 13  1  0
  5 14  1  0
M  RAD  1   5   2
M  END
>  <reaction>  (17) 
rxn_760

>  <mol_properties>  (17) 
{"0": {"label": "*3", "atom_type": "Cs"}, "1": {"label": "*4", "atom_type": "H0"}, "5": {"label": "*0", "atom_type": "Cd"}, "6": {"label": "*1", "atom_type": "Cs"}, "10": {"label": "*2", "atom_type": "H0"}}

>  <type>  (17) 
unop_13

>  <geom_source>  (17) 
AutoTST

$$$$
