
     RDKit          3D

 12 11  0  0  0  0  0  0  0  0999 V2000
    1.9877    0.1011    0.4814 C   0  0  0  0  0  0  0  0  0  0  0  0
    0.8179    0.5502    0.0525 C   0  0  0  0  0  0  0  0  0  0  0  0
   -0.2939   -0.2692   -0.5320 C   0  0  0  0  0  0  0  0  0  0  0  0
   -0.0292   -1.7631   -0.6328 C   0  0  0  0  0  0  0  0  0  0  0  0
    2.2522   -0.9490    0.4436 H   0  0  0  0  0  0  0  0  0  0  0  0
    2.7295    0.7757    0.8896 H   0  0  0  0  0  0  0  0  0  0  0  0
    0.6162    1.6164    0.1190 H   0  0  0  0  0  0  0  0  0  0  0  0
   -0.5268    0.1319   -1.5245 H   0  0  0  0  0  0  0  0  0  0  0  0
   -1.1959   -0.0938    0.0644 H   0  0  0  0  0  0  0  0  0  0  0  0
    0.1590   -2.1992    0.3502 H   0  0  0  0  0  0  0  0  0  0  0  0
    0.8382   -1.9701   -1.2626 H   0  0  0  0  0  0  0  0  0  0  0  0
   -0.8879   -2.2759   -1.0672 H   0  0  0  0  0  0  0  0  0  0  0  0
  1  2  2  3
  1  5  1  0
  1  6  1  0
  2  3  1  0
  2  7  1  0
  3  4  1  0
  3  8  1  0
  3  9  1  0
  4 10  1  0
  4 11  1  0
  4 12  1  0
M  END
>  <reaction>  (1) 
rxn_1071

>  <mol_properties>  (1) 
{"2": {"label": "donator", "atom_type": "Cs"}, "7": {"label": "d_hydrogen", "atom_type": "H0"}}

>  <type>  (1) 
r1h

$$$$

     RDKit          3D

 10  9  0  0  0  0  0  0  0  0999 V2000
   -1.3354   -0.2069    0.0525 C   0  0  0  0  0  0  0  0  0  0  0  0
    0.0851    0.2624    0.0266 C   0  0  0  0  0  0  0  0  0  0  0  0
    0.4841    1.3876    0.7359 C   0  0  0  0  0  0  0  0  0  0  0  0
    2.0191    2.0303    0.8057 S   0  0  0  0  0  1  0  0  0  0  0  0
    1.1566   -0.6823   -0.9297 S   0  0  0  0  0  0  0  0  0  0  0  0
   -1.7589   -0.2174   -0.9545 H   0  0  0  0  0  0  0  0  0  0  0  0
   -1.4004   -1.2253    0.4427 H   0  0  0  0  0  0  0  0  0  0  0  0
   -1.9442    0.4442    0.6783 H   0  0  0  0  0  0  0  0  0  0  0  0
   -0.3073    1.8814    1.2951 H   0  0  0  0  0  0  0  0  0  0  0  0
    2.2383    0.0827   -0.6554 H   0  0  0  0  0  0  0  0  0  0  0  0
  1  2  1  0
  1  6  1  0
  1  7  1  0
  1  8  1  0
  2  3  2  3
  2  5  1  0
  3  4  1  0
  3  9  1  0
  5 10  1  0
M  RAD  1   4   2
M  END
>  <reaction>  (2) 
rxn_1071

>  <mol_properties>  (2) 
{"1": {"label": "acceptor", "atom_type": "Cs"}}

>  <type>  (2) 
r2

$$$$

     RDKit          3D

 11 10  0  0  0  0  0  0  0  0999 V2000
   -1.0997   -0.5860   -0.1182 C   0  0  0  0  0  0  0  0  0  0  0  0
    0.0827    0.2961    0.2270 C   0  0  0  0  0  0  0  0  0  0  0  0
    0.1622    1.6171   -0.4774 C   0  0  0  0  0  0  0  0  0  0  0  0
   -0.9879    2.3087   -1.3633 S   0  0  0  0  0  0  0  0  0  0  0  0
    0.2176    0.6619    2.0187 S   0  0  0  0  0  0  0  0  0  0  0  0
   -1.1052   -0.8107   -1.1861 H   0  0  0  0  0  0  0  0  0  0  0  0
   -2.0402   -0.0893    0.1198 H   0  0  0  0  0  0  0  0  0  0  0  0
   -1.0438   -1.5182    0.4423 H   0  0  0  0  0  0  0  0  0  0  0  0
    1.0207   -0.2324    0.0280 H   0  0  0  0  0  0  0  0  0  0  0  0
    1.1091    2.1333   -0.3182 H   0  0  0  0  0  0  0  0  0  0  0  0
   -0.9205    1.3661    2.0994 H   0  0  0  0  0  0  0  0  0  0  0  0
  1  2  1  0
  1  6  1  0
  1  7  1  0
  1  8  1  0
  2  3  1  0
  2  5  1  0
  2  9  1  0
  3  4  2  0
  3 10  1  0
  5 11  1  0
M  END
>  <reaction>  (3) 
rxn_1071

>  <mol_properties>  (3) 
{"1": {"label": "acceptor", "atom_type": "Cs"}, "10": {"label": "a_hydrogen", "atom_type": "H0"}}

>  <type>  (3) 
r2h

$$$$

     RDKit          3D

 22 20  0  0  0  0  0  0  0  0999 V2000
    0.9425   -1.4494    0.5948 C   0  0  0  0  0  0  0  0  0  0  0  0
    0.5900   -0.0066    0.3249 C   0  0  1  0  0  0  0  0  0  0  0  0
    0.0899    0.8192    1.4083 C   0  0  0  0  0  0  0  0  0  0  0  0
   -0.5765    0.2870    2.7939 S   0  0  0  0  0  0  0  0  0  0  0  0
    1.7320    0.8935   -0.7310 S   0  0  0  0  0  0  0  0  0  0  0  0
    1.8623   -1.5142    1.1784 H   0  0  0  0  0  0  0  0  0  0  0  0
    0.1446   -1.9315    1.1594 H   0  0  0  0  0  0  0  0  0  0  0  0
    1.0919   -1.9838   -0.3446 H   0  0  0  0  0  0  0  0  0  0  0  0
    0.1178    1.8914    1.2110 H   0  0  0  0  0  0  0  0  0  0  0  0
    1.6169    0.0767   -1.7888 H   0  0  0  0  0  0  0  0  0  0  0  0
   -0.6789   -0.4368   -3.5537 C   0  0  0  0  0  0  0  0  0  0  0  0
   -1.0679   -0.9951   -2.3950 C   0  0  0  0  0  0  0  0  0  0  0  0
   -1.5863   -0.2877   -1.2510 C   0  0  0  0  0  3  0  0  0  0  0  0
   -2.0161    1.1465   -1.3507 C   0  0  0  0  0  0  0  0  0  0  0  0
   -0.7628    0.6278   -3.7338 H   0  0  0  0  0  0  0  0  0  0  0  0
   -0.2809   -1.0418   -4.3574 H   0  0  0  0  0  0  0  0  0  0  0  0
   -0.9637   -2.0702   -2.2818 H   0  0  0  0  0  0  0  0  0  0  0  0
   -0.4568   -0.1243   -0.4135 H   0  0  0  0  0  0  0  0  0  0  0  0
   -2.1573   -0.8989   -0.5552 H   0  0  0  0  0  0  0  0  0  0  0  0
   -2.8881    1.2483   -2.0029 H   0  0  0  0  0  0  0  0  0  0  0  0
   -1.2193    1.7742   -1.7557 H   0  0  0  0  0  0  0  0  0  0  0  0
   -2.2840    1.5350   -0.3677 H   0  0  0  0  0  0  0  0  0  0  0  0
  1  2  1  0
  1  6  1  0
  1  7  1  0
  1  8  1  0
  2  3  1  0
  2  5  1  0
  2 18  1  6
  3  4  2  0
  3  9  1  0
  5 10  1  0
 11 12  2  3
 11 15  1  0
 11 16  1  0
 12 13  1  0
 12 17  1  0
 13 14  1  0
 13 19  1  0
 14 20  1  0
 14 21  1  0
 14 22  1  0
M  RAD  1  13   2
M  END
>  <reaction>  (4) 
rxn_1071

>  <mol_properties>  (4) 
{"1": {"label": "*1", "atom_type": "Cs"}, "2": {"label": "*0", "atom_type": "CS"}, "11": {"label": "*4", "atom_type": "Cd"}, "12": {"label": "*3", "atom_type": "Cs"}, "17": {"label": "*2", "atom_type": "H0"}}

>  <type>  (4) 
ts

$$$$

     RDKit          3D

 22 20  0  0  0  0  0  0  0  0999 V2000
    1.4079    1.3668    0.1634 C   0  0  0  0  0  0  0  0  0  0  0  0
    0.4986    0.1721    0.3666 C   0  0  0  0  0  0  0  0  0  0  0  0
    1.1019   -1.0226    1.0422 C   0  0  0  0  0  0  0  0  0  0  0  0
    2.5204   -1.0904    1.7964 S   0  0  0  0  0  0  0  0  0  0  0  0
   -1.0283    0.5718    1.2997 S   0  0  0  0  0  0  0  0  0  0  0  0
    1.7748    1.7452    1.1173 H   0  0  0  0  0  0  0  0  0  0  0  0
    2.2750    1.0847   -0.4362 H   0  0  0  0  0  0  0  0  0  0  0  0
    0.8665    2.1634   -0.3450 H   0  0  0  0  0  0  0  0  0  0  0  0
    0.4597   -1.9031    1.0133 H   0  0  0  0  0  0  0  0  0  0  0  0
   -0.4088    0.8788    2.4485 H   0  0  0  0  0  0  0  0  0  0  0  0
   -1.5873   -0.8693   -3.4423 C   0  0  0  0  0  0  0  0  0  0  0  0
   -1.5873   -0.8693   -2.1179 C   0  0  0  0  0  0  0  0  0  0  0  0
   -1.5873    0.3352   -1.2245 C   0  0  0  0  0  3  0  0  0  0  0  0
   -1.5873    1.6809   -1.9322 C   0  0  0  0  0  0  0  0  0  0  0  0
   -1.5873    0.0476   -4.0197 H   0  0  0  0  0  0  0  0  0  0  0  0
   -1.5873   -1.7967   -4.0010 H   0  0  0  0  0  0  0  0  0  0  0  0
   -1.5873   -1.8251   -1.5997 H   0  0  0  0  0  0  0  0  0  0  0  0
   -0.5440    0.2536   -0.4287 H   0  0  0  0  0  0  0  0  0  0  0  0
   -2.4567    0.2672   -0.5613 H   0  0  0  0  0  0  0  0  0  0  0  0
   -2.4697    1.7959   -2.5646 H   0  0  0  0  0  0  0  0  0  0  0  0
   -0.7048    1.7959   -2.5646 H   0  0  0  0  0  0  0  0  0  0  0  0
   -1.5873    2.4953   -1.2069 H   0  0  0  0  0  0  0  0  0  0  0  0
  1  2  1  0
  1  6  1  0
  1  7  1  0
  1  8  1  0
  2  3  1  0
  2  5  1  0
  2 18  1  0
  3  4  2  0
  3  9  1  0
  5 10  1  0
 11 12  2  3
 11 15  1  0
 11 16  1  0
 12 13  1  0
 12 17  1  0
 13 14  1  0
 13 19  1  0
 14 20  1  0
 14 21  1  0
 14 22  1  0
M  RAD  1  13   2
M  END
>  <reaction>  (5) 
rxn_1071

>  <mol_properties>  (5) 
{"1": {"label": "*1", "atom_type": "Cs"}, "2": {"label": "*0", "atom_type": "CS"}, "11": {"label": "*4", "atom_type": "Cd"}, "12": {"label": "*3", "atom_type": "Cs"}, "17": {"label": "*2", "atom_type": "H0"}}

>  <type>  (5) 
unop_1

>  <geom_source>  (5) 
Heuristics

$$$$

     RDKit          3D

 22 20  0  0  0  0  0  0  0  0999 V2000
    1.5722   -0.7854   -0.3130 C   0  0  0  0  0  0  0  0  0  0  0  0
    0.4454   -0.0412    0.3740 C   0  0  0  0  0  0  0  0  0  0  0  0
    0.2414   -0.3299    1.8310 C   0  0  0  0  0  0  0  0  0  0  0  0
    1.2324   -1.1436    2.8012 S   0  0  0  0  0  0  0  0  0  0  0  0
    0.5829    1.7813    0.2271 S   0  0  0  0  0  0  0  0  0  0  0  0
    2.5315   -0.5563    0.1507 H   0  0  0  0  0  0  0  0  0  0  0  0
    1.4164   -1.8628   -0.2360 H   0  0  0  0  0  0  0  0  0  0  0  0
    1.6153   -0.5054   -1.3647 H   0  0  0  0  0  0  0  0  0  0  0  0
   -0.6765    0.1017    2.2306 H   0  0  0  0  0  0  0  0  0  0  0  0
    1.7106    1.8905    0.9442 H   0  0  0  0  0  0  0  0  0  0  0  0
   -1.6405   -1.0826   -3.4348 C   0  0  0  0  0  0  0  0  0  0  0  0
   -1.6405   -1.0826   -2.1105 C   0  0  0  0  0  0  0  0  0  0  0  0
   -1.6405    0.1219   -1.2170 C   0  0  0  0  0  3  0  0  0  0  0  0
   -1.6405    1.4676   -1.9247 C   0  0  0  0  0  0  0  0  0  0  0  0
   -1.6405   -0.1657   -4.0123 H   0  0  0  0  0  0  0  0  0  0  0  0
   -1.6405   -2.0100   -3.9935 H   0  0  0  0  0  0  0  0  0  0  0  0
   -1.6405   -2.0383   -1.5923 H   0  0  0  0  0  0  0  0  0  0  0  0
   -0.5972    0.0403   -0.4213 H   0  0  0  0  0  0  0  0  0  0  0  0
   -2.5099    0.0539   -0.5539 H   0  0  0  0  0  0  0  0  0  0  0  0
   -2.5229    1.5826   -2.5571 H   0  0  0  0  0  0  0  0  0  0  0  0
   -0.7581    1.5826   -2.5571 H   0  0  0  0  0  0  0  0  0  0  0  0
   -1.6405    2.2820   -1.1994 H   0  0  0  0  0  0  0  0  0  0  0  0
  1  2  1  0
  1  6  1  0
  1  7  1  0
  1  8  1  0
  2  3  1  0
  2  5  1  0
  2 18  1  0
  3  4  2  0
  3  9  1  0
  5 10  1  0
 11 12  2  3
 11 15  1  0
 11 16  1  0
 12 13  1  0
 12 17  1  0
 13 14  1  0
 13 19  1  0
 14 20  1  0
 14 21  1  0
 14 22  1  0
M  RAD  1  13   2
M  END
>  <reaction>  (6) 
rxn_1071

>  <mol_properties>  (6) 
{"1": {"label": "*1", "atom_type": "Cs"}, "2": {"label": "*0", "atom_type": "CS"}, "11": {"label": "*4", "atom_type": "Cd"}, "12": {"label": "*3", "atom_type": "Cs"}, "17": {"label": "*2", "atom_type": "H0"}}

>  <type>  (6) 
unop_2

>  <geom_source>  (6) 
Heuristics

$$$$

     RDKit          3D

 22 20  0  0  0  0  0  0  0  0999 V2000
    0.8501    1.6882    0.8914 C   0  0  0  0  0  0  0  0  0  0  0  0
    0.3621    0.3020    0.5225 C   0  0  0  0  0  0  0  0  0  0  0  0
    1.3946   -0.7842    0.4841 C   0  0  0  0  0  0  0  0  0  0  0  0
    2.9048   -0.6996    1.0300 S   0  0  0  0  0  0  0  0  0  0  0  0
   -0.9828   -0.3077    1.6095 S   0  0  0  0  0  0  0  0  0  0  0  0
    1.2940    1.6940    1.8867 H   0  0  0  0  0  0  0  0  0  0  0  0
    1.6140    2.0204    0.1864 H   0  0  0  0  0  0  0  0  0  0  0  0
    0.0185    2.3914    0.8741 H   0  0  0  0  0  0  0  0  0  0  0  0
    1.0235   -1.7156    0.0560 H   0  0  0  0  0  0  0  0  0  0  0  0
   -0.2411   -0.3630    2.7251 H   0  0  0  0  0  0  0  0  0  0  0  0
   -1.7238   -0.7394   -3.2863 C   0  0  0  0  0  0  0  0  0  0  0  0
   -1.7238   -0.7394   -1.9620 C   0  0  0  0  0  0  0  0  0  0  0  0
   -1.7238    0.4651   -1.0685 C   0  0  0  0  0  3  0  0  0  0  0  0
   -1.7238    1.8109   -1.7762 C   0  0  0  0  0  0  0  0  0  0  0  0
   -1.7238    0.1775   -3.8637 H   0  0  0  0  0  0  0  0  0  0  0  0
   -1.7238   -1.6667   -3.8450 H   0  0  0  0  0  0  0  0  0  0  0  0
   -1.7238   -1.6951   -1.4438 H   0  0  0  0  0  0  0  0  0  0  0  0
   -0.6806    0.3836   -0.2727 H   0  0  0  0  0  0  0  0  0  0  0  0
   -2.5932    0.3972   -0.4054 H   0  0  0  0  0  0  0  0  0  0  0  0
   -2.6063    1.9259   -2.4086 H   0  0  0  0  0  0  0  0  0  0  0  0
   -0.8414    1.9259   -2.4086 H   0  0  0  0  0  0  0  0  0  0  0  0
   -1.7238    2.6252   -1.0509 H   0  0  0  0  0  0  0  0  0  0  0  0
  1  2  1  0
  1  6  1  0
  1  7  1  0
  1  8  1  0
  2  3  1  0
  2  5  1  0
  2 18  1  0
  3  4  2  0
  3  9  1  0
  5 10  1  0
 11 12  2  3
 11 15  1  0
 11 16  1  0
 12 13  1  0
 12 17  1  0
 13 14  1  0
 13 19  1  0
 14 20  1  0
 14 21  1  0
 14 22  1  0
M  RAD  1  13   2
M  END
>  <reaction>  (7) 
rxn_1071

>  <mol_properties>  (7) 
{"1": {"label": "*1", "atom_type": "Cs"}, "2": {"label": "*0", "atom_type": "CS"}, "11": {"label": "*4", "atom_type": "Cd"}, "12": {"label": "*3", "atom_type": "Cs"}, "17": {"label": "*2", "atom_type": "H0"}}

>  <type>  (7) 
unop_3

>  <geom_source>  (7) 
Heuristics

$$$$

     RDKit          3D

 22 20  0  0  0  0  0  0  0  0999 V2000
    0.5780   -1.6009    1.2677 C   0  0  0  0  0  0  0  0  0  0  0  0
    0.6549   -0.3411    0.4296 C   0  0  0  0  0  0  0  0  0  0  0  0
    0.0339    0.8920    1.0138 C   0  0  0  0  0  0  0  0  0  0  0  0
   -0.4791    1.0906    2.5248 S   0  0  0  0  0  0  0  0  0  0  0  0
    2.3680    0.1188   -0.0350 S   0  0  0  0  0  0  0  0  0  0  0  0
    1.0819   -1.4649    2.2245 H   0  0  0  0  0  0  0  0  0  0  0  0
   -0.4630   -1.8545    1.4751 H   0  0  0  0  0  0  0  0  0  0  0  0
    1.0482   -2.4285    0.7383 H   0  0  0  0  0  0  0  0  0  0  0  0
   -0.0288    1.7188    0.3061 H   0  0  0  0  0  0  0  0  0  0  0  0
    2.7841    0.3715    1.2144 H   0  0  0  0  0  0  0  0  0  0  0  0
   -1.4310   -1.3825   -3.3792 C   0  0  0  0  0  0  0  0  0  0  0  0
   -1.4310   -1.3825   -2.0549 C   0  0  0  0  0  0  0  0  0  0  0  0
   -1.4310   -0.1780   -1.1614 C   0  0  0  0  0  3  0  0  0  0  0  0
   -1.4310    1.1677   -1.8691 C   0  0  0  0  0  0  0  0  0  0  0  0
   -1.4310   -0.4656   -3.9567 H   0  0  0  0  0  0  0  0  0  0  0  0
   -1.4310   -2.3098   -3.9379 H   0  0  0  0  0  0  0  0  0  0  0  0
   -1.4310   -2.3382   -1.5367 H   0  0  0  0  0  0  0  0  0  0  0  0
   -0.3878   -0.2596   -0.3657 H   0  0  0  0  0  0  0  0  0  0  0  0
   -2.3004   -0.2460   -0.4983 H   0  0  0  0  0  0  0  0  0  0  0  0
   -2.3135    1.2828   -2.5015 H   0  0  0  0  0  0  0  0  0  0  0  0
   -0.5486    1.2828   -2.5015 H   0  0  0  0  0  0  0  0  0  0  0  0
   -1.4310    1.9821   -1.1438 H   0  0  0  0  0  0  0  0  0  0  0  0
  1  2  1  0
  1  6  1  0
  1  7  1  0
  1  8  1  0
  2  3  1  0
  2  5  1  0
  2 18  1  0
  3  4  2  0
  3  9  1  0
  5 10  1  0
 11 12  2  3
 11 15  1  0
 11 16  1  0
 12 13  1  0
 12 17  1  0
 13 14  1  0
 13 19  1  0
 14 20  1  0
 14 21  1  0
 14 22  1  0
M  RAD  1  13   2
M  END
>  <reaction>  (8) 
rxn_1071

>  <mol_properties>  (8) 
{"1": {"label": "*1", "atom_type": "Cs"}, "2": {"label": "*0", "atom_type": "CS"}, "11": {"label": "*4", "atom_type": "Cd"}, "12": {"label": "*3", "atom_type": "Cs"}, "17": {"label": "*2", "atom_type": "H0"}}

>  <type>  (8) 
unop_4

>  <geom_source>  (8) 
Heuristics

$$$$

     RDKit          3D

 22 20  0  0  0  0  0  0  0  0999 V2000
    0.2049    1.3462    1.7600 C   0  0  0  0  0  0  0  0  0  0  0  0
    0.1575    0.1488    0.8329 C   0  0  0  0  0  0  0  0  0  0  0  0
    1.3589   -0.0749   -0.0356 C   0  0  0  0  0  0  0  0  0  0  0  0
    2.7850    0.6584    0.0831 S   0  0  0  0  0  0  0  0  0  0  0  0
   -0.1453   -1.4346    1.7065 S   0  0  0  0  0  0  0  0  0  0  0  0
    1.0387    1.2676    2.4573 H   0  0  0  0  0  0  0  0  0  0  0  0
    0.3394    2.2644    1.1856 H   0  0  0  0  0  0  0  0  0  0  0  0
   -0.7221    1.4132    2.3279 H   0  0  0  0  0  0  0  0  0  0  0  0
    1.2049   -0.8434   -0.7932 H   0  0  0  0  0  0  0  0  0  0  0  0
    1.0050   -1.4316    2.3953 H   0  0  0  0  0  0  0  0  0  0  0  0
   -1.9284   -0.8926   -2.9759 C   0  0  0  0  0  0  0  0  0  0  0  0
   -1.9284   -0.8926   -1.6516 C   0  0  0  0  0  0  0  0  0  0  0  0
   -1.9284    0.3119   -0.7581 C   0  0  0  0  0  3  0  0  0  0  0  0
   -1.9284    1.6577   -1.4658 C   0  0  0  0  0  0  0  0  0  0  0  0
   -1.9284    0.0243   -3.5534 H   0  0  0  0  0  0  0  0  0  0  0  0
   -1.9284   -1.8199   -3.5346 H   0  0  0  0  0  0  0  0  0  0  0  0
   -1.9284   -1.8483   -1.1334 H   0  0  0  0  0  0  0  0  0  0  0  0
   -0.8852    0.2304    0.0376 H   0  0  0  0  0  0  0  0  0  0  0  0
   -2.7978    0.2440   -0.0950 H   0  0  0  0  0  0  0  0  0  0  0  0
   -2.8109    1.7727   -2.0982 H   0  0  0  0  0  0  0  0  0  0  0  0
   -1.0460    1.7727   -2.0982 H   0  0  0  0  0  0  0  0  0  0  0  0
   -1.9284    2.4720   -0.7405 H   0  0  0  0  0  0  0  0  0  0  0  0
  1  2  1  0
  1  6  1  0
  1  7  1  0
  1  8  1  0
  2  3  1  0
  2  5  1  0
  2 18  1  0
  3  4  2  0
  3  9  1  0
  5 10  1  0
 11 12  2  3
 11 15  1  0
 11 16  1  0
 12 13  1  0
 12 17  1  0
 13 14  1  0
 13 19  1  0
 14 20  1  0
 14 21  1  0
 14 22  1  0
M  RAD  1  13   2
M  END
>  <reaction>  (9) 
rxn_1071

>  <mol_properties>  (9) 
{"1": {"label": "*1", "atom_type": "Cs"}, "2": {"label": "*0", "atom_type": "CS"}, "11": {"label": "*4", "atom_type": "Cd"}, "12": {"label": "*3", "atom_type": "Cs"}, "17": {"label": "*2", "atom_type": "H0"}}

>  <type>  (9) 
unop_5

>  <geom_source>  (9) 
Heuristics

$$$$

     RDKit          3D

 22 20  0  0  0  0  0  0  0  0999 V2000
    0.2117   -1.2167    1.8852 C   0  0  0  0  0  0  0  0  0  0  0  0
    0.5778   -0.4771    0.6146 C   0  0  0  0  0  0  0  0  0  0  0  0
    0.2487    0.9849    0.5710 C   0  0  0  0  0  0  0  0  0  0  0  0
   -0.2157    1.9063    1.8043 S   0  0  0  0  0  0  0  0  0  0  0  0
    2.3536   -0.6158    0.1794 S   0  0  0  0  0  0  0  0  0  0  0  0
    0.7269   -0.7920    2.7466 H   0  0  0  0  0  0  0  0  0  0  0  0
   -0.8610   -1.1414    2.0711 H   0  0  0  0  0  0  0  0  0  0  0  0
    0.4854   -2.2671    1.7955 H   0  0  0  0  0  0  0  0  0  0  0  0
    0.3798    1.4261   -0.4171 H   0  0  0  0  0  0  0  0  0  0  0  0
    2.8079    0.0539    1.2484 H   0  0  0  0  0  0  0  0  0  0  0  0
   -1.5081   -1.5185   -3.1942 C   0  0  0  0  0  0  0  0  0  0  0  0
   -1.5081   -1.5185   -1.8699 C   0  0  0  0  0  0  0  0  0  0  0  0
   -1.5081   -0.3140   -0.9764 C   0  0  0  0  0  3  0  0  0  0  0  0
   -1.5081    1.0317   -1.6841 C   0  0  0  0  0  0  0  0  0  0  0  0
   -1.5081   -0.6016   -3.7717 H   0  0  0  0  0  0  0  0  0  0  0  0
   -1.5081   -2.4459   -3.7529 H   0  0  0  0  0  0  0  0  0  0  0  0
   -1.5081   -2.4743   -1.3517 H   0  0  0  0  0  0  0  0  0  0  0  0
   -0.4649   -0.3956   -0.1807 H   0  0  0  0  0  0  0  0  0  0  0  0
   -2.3775   -0.3820   -0.3133 H   0  0  0  0  0  0  0  0  0  0  0  0
   -2.3906    1.1467   -2.3166 H   0  0  0  0  0  0  0  0  0  0  0  0
   -0.6257    1.1467   -2.3166 H   0  0  0  0  0  0  0  0  0  0  0  0
   -1.5081    1.8461   -0.9588 H   0  0  0  0  0  0  0  0  0  0  0  0
  1  2  1  0
  1  6  1  0
  1  7  1  0
  1  8  1  0
  2  3  1  0
  2  5  1  0
  2 18  1  0
  3  4  2  0
  3  9  1  0
  5 10  1  0
 11 12  2  3
 11 15  1  0
 11 16  1  0
 12 13  1  0
 12 17  1  0
 13 14  1  0
 13 19  1  0
 14 20  1  0
 14 21  1  0
 14 22  1  0
M  RAD  1  13   2
M  END
>  <reaction>  (10) 
rxn_1071

>  <mol_properties>  (10) 
{"1": {"label": "*1", "atom_type": "Cs"}, "2": {"label": "*0", "atom_type": "CS"}, "11": {"label": "*4", "atom_type": "Cd"}, "12": {"label": "*3", "atom_type": "Cs"}, "17": {"label": "*2", "atom_type": "H0"}}

>  <type>  (10) 
unop_6

>  <geom_source>  (10) 
Heuristics

$$$$

     RDKit          3D

 22 20  0  0  0  0  0  0  0  0999 V2000
   -0.0318   -0.5014    2.2806 C   0  0  0  0  0  0  0  0  0  0  0  0
    0.4139   -0.4716    0.8328 C   0  0  0  0  0  0  0  0  0  0  0  0
    0.5252    0.8797    0.1931 C   0  0  0  0  0  0  0  0  0  0  0  0
    0.4692    2.3055    0.9344 S   0  0  0  0  0  0  0  0  0  0  0  0
    2.0220   -1.3061    0.5505 S   0  0  0  0  0  0  0  0  0  0  0  0
    0.6638    0.0478    2.9149 H   0  0  0  0  0  0  0  0  0  0  0  0
   -1.0129   -0.0349    2.3841 H   0  0  0  0  0  0  0  0  0  0  0  0
   -0.0876   -1.5312    2.6308 H   0  0  0  0  0  0  0  0  0  0  0  0
    0.6864    0.8338   -0.8841 H   0  0  0  0  0  0  0  0  0  0  0  0
    2.7510   -0.4441    1.2740 H   0  0  0  0  0  0  0  0  0  0  0  0
   -1.6720   -1.5130   -2.9760 C   0  0  0  0  0  0  0  0  0  0  0  0
   -1.6720   -1.5130   -1.6517 C   0  0  0  0  0  0  0  0  0  0  0  0
   -1.6720   -0.3085   -0.7582 C   0  0  0  0  0  3  0  0  0  0  0  0
   -1.6720    1.0373   -1.4659 C   0  0  0  0  0  0  0  0  0  0  0  0
   -1.6720   -0.5961   -3.5534 H   0  0  0  0  0  0  0  0  0  0  0  0
   -1.6720   -2.4403   -3.5347 H   0  0  0  0  0  0  0  0  0  0  0  0
   -1.6720   -2.4687   -1.1335 H   0  0  0  0  0  0  0  0  0  0  0  0
   -0.6287   -0.3900    0.0376 H   0  0  0  0  0  0  0  0  0  0  0  0
   -2.5414   -0.3764   -0.0951 H   0  0  0  0  0  0  0  0  0  0  0  0
   -2.5544    1.1523   -2.0983 H   0  0  0  0  0  0  0  0  0  0  0  0
   -0.7895    1.1523   -2.0983 H   0  0  0  0  0  0  0  0  0  0  0  0
   -1.6720    1.8516   -0.7406 H   0  0  0  0  0  0  0  0  0  0  0  0
  1  2  1  0
  1  6  1  0
  1  7  1  0
  1  8  1  0
  2  3  1  0
  2  5  1  0
  2 18  1  0
  3  4  2  0
  3  9  1  0
  5 10  1  0
 11 12  2  3
 11 15  1  0
 11 16  1  0
 12 13  1  0
 12 17  1  0
 13 14  1  0
 13 19  1  0
 14 20  1  0
 14 21  1  0
 14 22  1  0
M  RAD  1  13   2
M  END
>  <reaction>  (11) 
rxn_1071

>  <mol_properties>  (11) 
{"1": {"label": "*1", "atom_type": "Cs"}, "2": {"label": "*0", "atom_type": "CS"}, "11": {"label": "*4", "atom_type": "Cd"}, "12": {"label": "*3", "atom_type": "Cs"}, "17": {"label": "*2", "atom_type": "H0"}}

>  <type>  (11) 
unop_7

>  <geom_source>  (11) 
Heuristics

$$$$

     RDKit          3D

 22 20  0  0  0  0  0  0  0  0999 V2000
    1.7032    0.6958   -0.2935 C   0  0  0  0  0  0  0  0  0  0  0  0
    0.5047    0.0214    0.3422 C   0  0  0  0  0  0  0  0  0  0  0  0
    0.7891   -0.9394    1.4574 C   0  0  0  0  0  0  0  0  0  0  0  0
    2.1900   -1.1458    2.2192 S   0  0  0  0  0  0  0  0  0  0  0  0
   -0.7363    1.2055    0.9901 S   0  0  0  0  0  0  0  0  0  0  0  0
    2.2570    1.2810    0.4405 H   0  0  0  0  0  0  0  0  0  0  0  0
    2.3848   -0.0515   -0.7032 H   0  0  0  0  0  0  0  0  0  0  0  0
    1.3756    1.3572   -1.0944 H   0  0  0  0  0  0  0  0  0  0  0  0
   -0.0851   -1.5147    1.7631 H   0  0  0  0  0  0  0  0  0  0  0  0
    0.0553    1.7261    1.9389 H   0  0  0  0  0  0  0  0  0  0  0  0
   -1.5813   -1.0201   -3.4666 C   0  0  0  0  0  0  0  0  0  0  0  0
   -1.5813   -1.0201   -2.1423 C   0  0  0  0  0  0  0  0  0  0  0  0
   -1.5813    0.1844   -1.2488 C   0  0  0  0  0  3  0  0  0  0  0  0
   -1.5813    1.5302   -1.9565 C   0  0  0  0  0  0  0  0  0  0  0  0
   -1.5813   -0.1031   -4.0441 H   0  0  0  0  0  0  0  0  0  0  0  0
   -1.5813   -1.9474   -4.0253 H   0  0  0  0  0  0  0  0  0  0  0  0
   -1.5813   -1.9758   -1.6241 H   0  0  0  0  0  0  0  0  0  0  0  0
   -0.5380    0.1029   -0.4531 H   0  0  0  0  0  0  0  0  0  0  0  0
   -2.4507    0.1165   -0.5857 H   0  0  0  0  0  0  0  0  0  0  0  0
   -2.4637    1.6452   -2.5889 H   0  0  0  0  0  0  0  0  0  0  0  0
   -0.6988    1.6452   -2.5889 H   0  0  0  0  0  0  0  0  0  0  0  0
   -1.5813    2.3446   -1.2312 H   0  0  0  0  0  0  0  0  0  0  0  0
  1  2  1  0
  1  6  1  0
  1  7  1  0
  1  8  1  0
  2  3  1  0
  2  5  1  0
  2 18  1  0
  3  4  2  0
  3  9  1  0
  5 10  1  0
 11 12  2  3
 11 15  1  0
 11 16  1  0
 12 13  1  0
 12 17  1  0
 13 14  1  0
 13 19  1  0
 14 20  1  0
 14 21  1  0
 14 22  1  0
M  RAD  1  13   2
M  END
>  <reaction>  (12) 
rxn_1071

>  <mol_properties>  (12) 
{"1": {"label": "*1", "atom_type": "Cs"}, "2": {"label": "*0", "atom_type": "CS"}, "11": {"label": "*4", "atom_type": "Cd"}, "12": {"label": "*3", "atom_type": "Cs"}, "17": {"label": "*2", "atom_type": "H0"}}

>  <type>  (12) 
unop_8

>  <geom_source>  (12) 
Heuristics

$$$$

     RDKit          3D

 22 20  0  0  0  0  0  0  0  0999 V2000
    0.9662   -1.6111    0.6033 C   0  0  0  0  0  0  0  0  0  0  0  0
    0.6217   -0.1599    0.3372 C   0  0  0  0  0  0  0  0  0  0  0  0
   -0.0660    0.5802    1.4449 C   0  0  0  0  0  0  0  0  0  0  0  0
   -0.2532    0.0869    2.9639 S   0  0  0  0  0  0  0  0  0  0  0  0
    2.0732    0.8566   -0.1343 S   0  0  0  0  0  0  0  0  0  0  0  0
    1.6389   -1.7029    1.4558 H   0  0  0  0  0  0  0  0  0  0  0  0
    0.0626   -2.1786    0.8322 H   0  0  0  0  0  0  0  0  0  0  0  0
    1.4479   -2.0449   -0.2719 H   0  0  0  0  0  0  0  0  0  0  0  0
   -0.4358    1.5602    1.1429 H   0  0  0  0  0  0  0  0  0  0  0  0
    2.7065    0.7425    1.0421 H   0  0  0  0  0  0  0  0  0  0  0  0
   -1.4642   -1.2013   -3.4716 C   0  0  0  0  0  0  0  0  0  0  0  0
   -1.4642   -1.2013   -2.1473 C   0  0  0  0  0  0  0  0  0  0  0  0
   -1.4642    0.0032   -1.2538 C   0  0  0  0  0  3  0  0  0  0  0  0
   -1.4642    1.3490   -1.9615 C   0  0  0  0  0  0  0  0  0  0  0  0
   -1.4642   -0.2844   -4.0491 H   0  0  0  0  0  0  0  0  0  0  0  0
   -1.4642   -2.1286   -4.0303 H   0  0  0  0  0  0  0  0  0  0  0  0
   -1.4642   -2.1570   -1.6291 H   0  0  0  0  0  0  0  0  0  0  0  0
   -0.4209   -0.0783   -0.4581 H   0  0  0  0  0  0  0  0  0  0  0  0
   -2.3336   -0.0647   -0.5907 H   0  0  0  0  0  0  0  0  0  0  0  0
   -2.3467    1.4640   -2.5940 H   0  0  0  0  0  0  0  0  0  0  0  0
   -0.5818    1.4640   -2.5940 H   0  0  0  0  0  0  0  0  0  0  0  0
   -1.4642    2.1633   -1.2362 H   0  0  0  0  0  0  0  0  0  0  0  0
  1  2  1  0
  1  6  1  0
  1  7  1  0
  1  8  1  0
  2  3  1  0
  2  5  1  0
  2 18  1  0
  3  4  2  0
  3  9  1  0
  5 10  1  0
 11 12  2  3
 11 15  1  0
 11 16  1  0
 12 13  1  0
 12 17  1  0
 13 14  1  0
 13 19  1  0
 14 20  1  0
 14 21  1  0
 14 22  1  0
M  RAD  1  13   2
M  END
>  <reaction>  (13) 
rxn_1071

>  <mol_properties>  (13) 
{"1": {"label": "*1", "atom_type": "Cs"}, "2": {"label": "*0", "atom_type": "CS"}, "11": {"label": "*4", "atom_type": "Cd"}, "12": {"label": "*3", "atom_type": "Cs"}, "17": {"label": "*2", "atom_type": "H0"}}

>  <type>  (13) 
unop_9

>  <geom_source>  (13) 
Heuristics

$$$$

     RDKit          3D

 22 20  0  0  0  0  0  0  0  0999 V2000
    1.7366   -0.0838   -0.4448 C   0  0  0  0  0  0  0  0  0  0  0  0
    0.4585   -0.0486    0.3680 C   0  0  0  0  0  0  0  0  0  0  0  0
    0.5075   -0.6886    1.7228 C   0  0  0  0  0  0  0  0  0  0  0  0
    1.8200   -1.1827    2.5094 S   0  0  0  0  0  0  0  0  0  0  0  0
   -0.1923    1.6462    0.6251 S   0  0  0  0  0  0  0  0  0  0  0  0
    2.5443    0.4314    0.0748 H   0  0  0  0  0  0  0  0  0  0  0  0
    2.0531   -1.1154   -0.6078 H   0  0  0  0  0  0  0  0  0  0  0  0
    1.5769    0.3970   -1.4090 H   0  0  0  0  0  0  0  0  0  0  0  0
   -0.4728   -0.7810    2.1907 H   0  0  0  0  0  0  0  0  0  0  0  0
    0.8375    2.0756    1.3687 H   0  0  0  0  0  0  0  0  0  0  0  0
   -1.6274   -1.0900   -3.4408 C   0  0  0  0  0  0  0  0  0  0  0  0
   -1.6274   -1.0900   -2.1165 C   0  0  0  0  0  0  0  0  0  0  0  0
   -1.6274    0.1145   -1.2230 C   0  0  0  0  0  3  0  0  0  0  0  0
   -1.6274    1.4603   -1.9308 C   0  0  0  0  0  0  0  0  0  0  0  0
   -1.6274   -0.1731   -4.0183 H   0  0  0  0  0  0  0  0  0  0  0  0
   -1.6274   -2.0173   -3.9995 H   0  0  0  0  0  0  0  0  0  0  0  0
   -1.6274   -2.0457   -1.5983 H   0  0  0  0  0  0  0  0  0  0  0  0
   -0.5842    0.0329   -0.4273 H   0  0  0  0  0  0  0  0  0  0  0  0
   -2.4968    0.0465   -0.5599 H   0  0  0  0  0  0  0  0  0  0  0  0
   -2.5099    1.5753   -2.5632 H   0  0  0  0  0  0  0  0  0  0  0  0
   -0.7450    1.5753   -2.5632 H   0  0  0  0  0  0  0  0  0  0  0  0
   -1.6274    2.2746   -1.2054 H   0  0  0  0  0  0  0  0  0  0  0  0
  1  2  1  0
  1  6  1  0
  1  7  1  0
  1  8  1  0
  2  3  1  0
  2  5  1  0
  2 18  1  0
  3  4  2  0
  3  9  1  0
  5 10  1  0
 11 12  2  3
 11 15  1  0
 11 16  1  0
 12 13  1  0
 12 17  1  0
 13 14  1  0
 13 19  1  0
 14 20  1  0
 14 21  1  0
 14 22  1  0
M  RAD  1  13   2
M  END
>  <reaction>  (14) 
rxn_1071

>  <mol_properties>  (14) 
{"1": {"label": "*1", "atom_type": "Cs"}, "2": {"label": "*0", "atom_type": "CS"}, "11": {"label": "*4", "atom_type": "Cd"}, "12": {"label": "*3", "atom_type": "Cs"}, "17": {"label": "*2", "atom_type": "H0"}}

>  <type>  (14) 
unop_10

>  <geom_source>  (14) 
Heuristics

$$$$

     RDKit          3D

 22 20  0  0  0  0  0  0  0  0999 V2000
   -0.0780    0.4261    2.2932 C   0  0  0  0  0  0  0  0  0  0  0  0
    0.2163   -0.2530    0.9712 C   0  0  0  0  0  0  0  0  0  0  0  0
    0.9005    0.5783   -0.0721 C   0  0  0  0  0  0  0  0  0  0  0  0
    1.5790    2.0211    0.1362 S   0  0  0  0  0  0  0  0  0  0  0  0
    1.2157   -1.7804    1.1458 S   0  0  0  0  0  0  0  0  0  0  0  0
    0.8407    0.7667    2.7704 H   0  0  0  0  0  0  0  0  0  0  0  0
   -0.7131    1.2996    2.1366 H   0  0  0  0  0  0  0  0  0  0  0  0
   -0.5845   -0.2679    2.9625 H   0  0  0  0  0  0  0  0  0  0  0  0
    0.9377    0.0969   -1.0496 H   0  0  0  0  0  0  0  0  0  0  0  0
    2.3177   -1.1697    1.6045 H   0  0  0  0  0  0  0  0  0  0  0  0
   -1.8696   -1.2944   -2.8377 C   0  0  0  0  0  0  0  0  0  0  0  0
   -1.8696   -1.2944   -1.5133 C   0  0  0  0  0  0  0  0  0  0  0  0
   -1.8696   -0.0899   -0.6199 C   0  0  0  0  0  3  0  0  0  0  0  0
   -1.8696    1.2558   -1.3276 C   0  0  0  0  0  0  0  0  0  0  0  0
   -1.8696   -0.3775   -3.4151 H   0  0  0  0  0  0  0  0  0  0  0  0
   -1.8696   -2.2218   -3.3964 H   0  0  0  0  0  0  0  0  0  0  0  0
   -1.8696   -2.2501   -0.9952 H   0  0  0  0  0  0  0  0  0  0  0  0
   -0.8263   -0.1715    0.1759 H   0  0  0  0  0  0  0  0  0  0  0  0
   -2.7390   -0.1579    0.0433 H   0  0  0  0  0  0  0  0  0  0  0  0
   -2.7520    1.3708   -1.9600 H   0  0  0  0  0  0  0  0  0  0  0  0
   -0.9871    1.3708   -1.9600 H   0  0  0  0  0  0  0  0  0  0  0  0
   -1.8696    2.0702   -0.6023 H   0  0  0  0  0  0  0  0  0  0  0  0
  1  2  1  0
  1  6  1  0
  1  7  1  0
  1  8  1  0
  2  3  1  0
  2  5  1  0
  2 18  1  0
  3  4  2  0
  3  9  1  0
  5 10  1  0
 11 12  2  3
 11 15  1  0
 11 16  1  0
 12 13  1  0
 12 17  1  0
 13 14  1  0
 13 19  1  0
 14 20  1  0
 14 21  1  0
 14 22  1  0
M  RAD  1  13   2
M  END
>  <reaction>  (15) 
rxn_1071

>  <mol_properties>  (15) 
{"1": {"label": "*1", "atom_type": "Cs"}, "2": {"label": "*0", "atom_type": "CS"}, "11": {"label": "*4", "atom_type": "Cd"}, "12": {"label": "*3", "atom_type": "Cs"}, "17": {"label": "*2", "atom_type": "H0"}}

>  <type>  (15) 
unop_11

>  <geom_source>  (15) 
Heuristics

$$$$

     RDKit          3D

 22 20  0  0  0  0  0  0  0  0999 V2000
    1.3018   -1.3102    0.0495 C   0  0  0  0  0  0  0  0  0  0  0  0
    0.5168   -0.0477    0.3417 C   0  0  0  0  0  0  0  0  0  0  0  0
    0.0163    0.1212    1.7447 C   0  0  0  0  0  0  0  0  0  0  0  0
    0.4282   -0.7558    3.0280 S   0  0  0  0  0  0  0  0  0  0  0  0
    1.4334    1.4878   -0.0637 S   0  0  0  0  0  0  0  0  0  0  0  0
    2.1959   -1.3666    0.6702 H   0  0  0  0  0  0  0  0  0  0  0  0
    0.6945   -2.1913    0.2632 H   0  0  0  0  0  0  0  0  0  0  0  0
    1.6002   -1.3280   -0.9978 H   0  0  0  0  0  0  0  0  0  0  0  0
   -0.6759    0.9559    1.8570 H   0  0  0  0  0  0  0  0  0  0  0  0
    2.3934    1.3198    0.8571 H   0  0  0  0  0  0  0  0  0  0  0  0
   -1.5691   -1.0891   -3.4672 C   0  0  0  0  0  0  0  0  0  0  0  0
   -1.5691   -1.0891   -2.1428 C   0  0  0  0  0  0  0  0  0  0  0  0
   -1.5691    0.1154   -1.2494 C   0  0  0  0  0  3  0  0  0  0  0  0
   -1.5691    1.4612   -1.9571 C   0  0  0  0  0  0  0  0  0  0  0  0
   -1.5691   -0.1722   -4.0446 H   0  0  0  0  0  0  0  0  0  0  0  0
   -1.5691   -2.0164   -4.0258 H   0  0  0  0  0  0  0  0  0  0  0  0
   -1.5691   -2.0448   -1.6246 H   0  0  0  0  0  0  0  0  0  0  0  0
   -0.5258    0.0338   -0.4536 H   0  0  0  0  0  0  0  0  0  0  0  0
   -2.4385    0.0474   -0.5862 H   0  0  0  0  0  0  0  0  0  0  0  0
   -2.4516    1.5762   -2.5895 H   0  0  0  0  0  0  0  0  0  0  0  0
   -0.6867    1.5762   -2.5895 H   0  0  0  0  0  0  0  0  0  0  0  0
   -1.5691    2.2755   -1.2318 H   0  0  0  0  0  0  0  0  0  0  0  0
  1  2  1  0
  1  6  1  0
  1  7  1  0
  1  8  1  0
  2  3  1  0
  2  5  1  0
  2 18  1  0
  3  4  2  0
  3  9  1  0
  5 10  1  0
 11 12  2  3
 11 15  1  0
 11 16  1  0
 12 13  1  0
 12 17  1  0
 13 14  1  0
 13 19  1  0
 14 20  1  0
 14 21  1  0
 14 22  1  0
M  RAD  1  13   2
M  END
>  <reaction>  (16) 
rxn_1071

>  <mol_properties>  (16) 
{"1": {"label": "*1", "atom_type": "Cs"}, "2": {"label": "*0", "atom_type": "CS"}, "11": {"label": "*4", "atom_type": "Cd"}, "12": {"label": "*3", "atom_type": "Cs"}, "17": {"label": "*2", "atom_type": "H0"}}

>  <type>  (16) 
unop_12

>  <geom_source>  (16) 
Heuristics

$$$$

     RDKit          3D

 22 20  0  0  0  0  0  0  0  0999 V2000
    2.0243    1.0229    1.3252 S   0  0  0  0  0  0  0  0  0  0  0  0
    2.3073    2.1243   -1.8021 S   0  0  0  0  0  0  0  0  0  0  0  0
    1.3492    0.3174   -0.2187 C   0  0  0  0  0  0  0  0  0  0  0  0
    2.2147   -0.8484   -0.7027 C   0  0  0  0  0  0  0  0  0  0  0  0
   -1.1362   -1.4344    1.4463 C   0  0  0  0  0  0  0  0  0  0  0  0
   -1.0344   -0.0783    0.7602 C   0  0  0  0  0  3  0  0  0  0  0  0
   -2.1807    0.1559   -0.1809 C   0  0  0  0  0  0  0  0  0  0  0  0
    1.1895    1.3839   -1.2764 C   0  0  0  0  0  0  0  0  0  0  0  0
   -2.2158    1.2475   -0.9466 C   0  0  0  0  0  0  0  0  0  0  0  0
    0.1654   -0.1520    0.0501 H   0  0  0  0  0  0  0  0  0  0  0  0
    3.2614   -0.5187   -0.8753 H   0  0  0  0  0  0  0  0  0  0  0  0
    2.2171   -1.6565    0.0586 H   0  0  0  0  0  0  0  0  0  0  0  0
    1.8024   -1.2615   -1.6477 H   0  0  0  0  0  0  0  0  0  0  0  0
   -2.0648   -1.4916    2.0536 H   0  0  0  0  0  0  0  0  0  0  0  0
   -1.1375   -2.2463    0.6884 H   0  0  0  0  0  0  0  0  0  0  0  0
   -0.2609   -1.5742    2.1142 H   0  0  0  0  0  0  0  0  0  0  0  0
   -1.0015    0.7279    1.5245 H   0  0  0  0  0  0  0  0  0  0  0  0
   -2.9879   -0.5682   -0.2557 H   0  0  0  0  0  0  0  0  0  0  0  0
    0.1954    1.6008   -1.6525 H   0  0  0  0  0  0  0  0  0  0  0  0
   -1.4222    1.9874   -0.9007 H   0  0  0  0  0  0  0  0  0  0  0  0
   -3.0451    1.4066   -1.6283 H   0  0  0  0  0  0  0  0  0  0  0  0
    1.7603   -0.1445    2.0667 H   0  0  0  0  0  0  0  0  0  0  0  0
  1  3  1  0
  1 22  1  0
  2  8  2  0
  3  4  1  0
  3  8  1  0
  3 10  1  0
  4 11  1  0
  4 12  1  0
  4 13  1  0
  5  6  1  0
  5 14  1  0
  5 15  1  0
  5 16  1  0
  6  7  1  0
  6 17  1  0
  7  9  2  3
  7 18  1  0
  8 19  1  0
  9 20  1  0
  9 21  1  0
M  RAD  1   6   2
M  END
>  <reaction>  (17) 
rxn_1071

>  <mol_properties>  (17) 
{"1": {"label": "*1", "atom_type": "Cs"}, "2": {"label": "*0", "atom_type": "CS"}, "11": {"label": "*4", "atom_type": "Cd"}, "12": {"label": "*3", "atom_type": "Cs"}, "17": {"label": "*2", "atom_type": "H0"}}

>  <type>  (17) 
unop_13

>  <geom_source>  (17) 
AutoTST

$$$$
