
     RDKit          3D

  4  3  0  0  0  0  0  0  0  0999 V2000
    0.5949   -0.3853    0.2659 O   0  0  0  0  0  0  0  0  0  0  0  0
   -0.5918    0.4028    0.2462 O   0  0  0  0  0  0  0  0  0  0  0  0
    1.1865    0.1539   -0.2689 H   0  0  0  0  0  0  0  0  0  0  0  0
   -1.1896   -0.1714   -0.2432 H   0  0  0  0  0  0  0  0  0  0  0  0
  1  2  1  0
  1  3  1  0
  2  4  1  0
M  END
>  <reaction>  (1) 
rxn_780

>  <mol_properties>  (1) 
{"1": {"label": "donator", "atom_type": "O2s"}, "3": {"label": "d_hydrogen", "atom_type": "H0"}}

>  <type>  (1) 
r1h

$$$$

     RDKit          3D

  8  7  0  0  0  0  0  0  0  0999 V2000
   -0.9179    0.2391    0.1982 C   0  0  0  0  0  0  0  0  0  0  0  0
    0.4678   -0.2407    0.0057 C   0  0  0  0  0  3  0  0  0  0  0  0
    0.5690   -1.5483   -0.3772 O   0  0  0  0  0  0  0  0  0  0  0  0
   -1.4185   -0.2635    1.0380 H   0  0  0  0  0  0  0  0  0  0  0  0
   -0.9217    1.3106    0.3990 H   0  0  0  0  0  0  0  0  0  0  0  0
   -1.5211    0.0525   -0.6941 H   0  0  0  0  0  0  0  0  0  0  0  0
    1.2867    0.1607    0.5960 H   0  0  0  0  0  0  0  0  0  0  0  0
    1.4925   -1.7959   -0.4346 H   0  0  0  0  0  0  0  0  0  0  0  0
  1  2  1  0
  1  4  1  0
  1  5  1  0
  1  6  1  0
  2  3  1  0
  2  7  1  0
  3  8  1  0
M  RAD  1   2   2
M  END
>  <reaction>  (2) 
rxn_780

>  <mol_properties>  (2) 
{"1": {"label": "acceptor", "atom_type": "Cs"}}

>  <type>  (2) 
r2

$$$$

     RDKit          3D

  9  8  0  0  0  0  0  0  0  0999 V2000
   -0.9895    0.3048    0.1041 C   0  0  0  0  0  0  0  0  0  0  0  0
    0.3761   -0.3562    0.0721 C   0  0  0  0  0  0  0  0  0  0  0  0
    0.3441   -1.6564   -0.4834 O   0  0  0  0  0  0  0  0  0  0  0  0
   -1.6997   -0.3114    0.6572 H   0  0  0  0  0  0  0  0  0  0  0  0
   -0.9320    1.2848    0.5822 H   0  0  0  0  0  0  0  0  0  0  0  0
   -1.3774    0.4507   -0.9077 H   0  0  0  0  0  0  0  0  0  0  0  0
    0.7581   -0.4813    1.0862 H   0  0  0  0  0  0  0  0  0  0  0  0
    1.0900    0.2787   -0.4681 H   0  0  0  0  0  0  0  0  0  0  0  0
    0.0089   -1.5959   -1.3792 H   0  0  0  0  0  0  0  0  0  0  0  0
  1  2  1  0
  1  4  1  0
  1  5  1  0
  1  6  1  0
  2  3  1  0
  2  7  1  0
  2  8  1  0
  3  9  1  0
M  END
>  <reaction>  (3) 
rxn_780

>  <mol_properties>  (3) 
{"0": {"label": "a_hydrogen", "atom_type": "H0"}, "2": {"label": "acceptor", "atom_type": "Cs"}}

>  <type>  (3) 
r2h

$$$$

     RDKit          3D

 12 10  0  0  0  0  0  0  0  0999 V2000
   -1.0071   -1.5724   -0.8568 O   0  0  0  0  0  0  0  0  0  0  0  0
    0.2589   -1.6517   -0.2926 O   0  0  0  0  0  0  0  0  0  0  0  0
   -0.8223   -1.3626   -1.7800 H   0  0  0  0  0  0  0  0  0  0  0  0
    0.4276   -0.5216    0.1660 H   0  0  0  0  0  0  0  0  0  0  0  0
    1.5869    1.4412    0.3197 C   0  0  0  0  0  0  0  0  0  0  0  0
    0.2887    0.7262    0.5270 C   0  0  0  0  0  3  0  0  0  0  0  0
   -0.7084    1.2209   -0.2812 O   0  0  0  0  0  0  0  0  0  0  0  0
    1.5005    2.4905    0.6159 H   0  0  0  0  0  0  0  0  0  0  0  0
    2.3716    0.9779    0.9176 H   0  0  0  0  0  0  0  0  0  0  0  0
    1.8788    1.4070   -0.7306 H   0  0  0  0  0  0  0  0  0  0  0  0
   -0.0148    0.6052    1.5729 H   0  0  0  0  0  0  0  0  0  0  0  0
   -1.4967    0.6819   -0.1630 H   0  0  0  0  0  0  0  0  0  0  0  0
  1  2  1  0
  1  3  1  0
  2  4  1  0
  5  6  1  0
  5  8  1  0
  5  9  1  0
  5 10  1  0
  6  7  1  0
  6 11  1  0
  7 12  1  0
M  RAD  1   6   2
M  END
>  <reaction>  (4) 
rxn_780

>  <mol_properties>  (4) 
{"0": {"label": "*0", "atom_type": "O2s"}, "1": {"label": "*1", "atom_type": "O2s"}, "3": {"label": "*2", "atom_type": "H0"}, "5": {"label": "*3", "atom_type": "Cs"}, "6": {"label": "*4", "atom_type": "O2s"}}

>  <type>  (4) 
ts

$$$$

     RDKit          3D

 12 10  0  0  0  0  0  0  0  0999 V2000
    0.0059   -1.3682   -1.7264 O   0  0  0  0  0  0  0  0  0  0  0  0
    0.0059   -1.3682   -0.3017 O   0  0  0  0  0  0  0  0  0  0  0  0
    0.8666   -1.7565   -1.9135 H   0  0  0  0  0  0  0  0  0  0  0  0
    0.0059   -0.2350   -0.0773 H   0  0  0  0  0  0  0  0  0  0  0  0
   -1.2282    1.4301    0.9790 C   0  0  0  0  0  0  0  0  0  0  0  0
    0.0059    1.0569    0.1787 C   0  0  0  0  0  3  0  0  0  0  0  0
    1.0687    0.5972    0.9905 O   0  0  0  0  0  0  0  0  0  0  0  0
   -0.9852    2.1872    1.7257 H   0  0  0  0  0  0  0  0  0  0  0  0
   -2.0076    1.8245    0.3237 H   0  0  0  0  0  0  0  0  0  0  0  0
   -1.6380    0.5580    1.4956 H   0  0  0  0  0  0  0  0  0  0  0  0
    0.3950    1.9319   -0.3439 H   0  0  0  0  0  0  0  0  0  0  0  0
    0.7696   -0.1738    1.4748 H   0  0  0  0  0  0  0  0  0  0  0  0
  1  2  1  0
  1  3  1  0
  2  4  1  0
  5  6  1  0
  5  8  1  0
  5  9  1  0
  5 10  1  0
  6  7  1  0
  6 11  1  0
  7 12  1  0
M  RAD  1   6   2
M  END
>  <reaction>  (5) 
rxn_780

>  <mol_properties>  (5) 
{"0": {"label": "*0", "atom_type": "O2s"}, "1": {"label": "*1", "atom_type": "O2s"}, "3": {"label": "*2", "atom_type": "H0"}, "5": {"label": "*3", "atom_type": "Cs"}, "6": {"label": "*4", "atom_type": "O2s"}}

>  <type>  (5) 
unop_1

>  <geom_source>  (5) 
Heuristics

$$$$

     RDKit          3D

 12 10  0  0  0  0  0  0  0  0999 V2000
    0.2945   -1.5250   -1.4272 O   0  0  0  0  0  0  0  0  0  0  0  0
    0.2945   -1.5250   -0.0025 O   0  0  0  0  0  0  0  0  0  0  0  0
    1.1552   -1.9133   -1.6143 H   0  0  0  0  0  0  0  0  0  0  0  0
    0.2945   -0.3918    0.2219 H   0  0  0  0  0  0  0  0  0  0  0  0
   -0.4181    1.6516   -0.6314 C   0  0  0  0  0  0  0  0  0  0  0  0
    0.2945    0.9001    0.4779 C   0  0  0  0  0  3  0  0  0  0  0  0
   -0.4691    0.8200    1.6655 O   0  0  0  0  0  0  0  0  0  0  0  0
   -0.6868    2.6560   -0.3014 H   0  0  0  0  0  0  0  0  0  0  0  0
    0.2207    1.7336   -1.5132 H   0  0  0  0  0  0  0  0  0  0  0  0
   -1.3328    1.1327   -0.9305 H   0  0  0  0  0  0  0  0  0  0  0  0
    1.2126    1.4196    0.7555 H   0  0  0  0  0  0  0  0  0  0  0  0
   -1.2926    0.3712    1.4676 H   0  0  0  0  0  0  0  0  0  0  0  0
  1  2  1  0
  1  3  1  0
  2  4  1  0
  5  6  1  0
  5  8  1  0
  5  9  1  0
  5 10  1  0
  6  7  1  0
  6 11  1  0
  7 12  1  0
M  RAD  1   6   2
M  END
>  <reaction>  (6) 
rxn_780

>  <mol_properties>  (6) 
{"0": {"label": "*0", "atom_type": "O2s"}, "1": {"label": "*1", "atom_type": "O2s"}, "3": {"label": "*2", "atom_type": "H0"}, "5": {"label": "*3", "atom_type": "Cs"}, "6": {"label": "*4", "atom_type": "O2s"}}

>  <type>  (6) 
unop_2

>  <geom_source>  (6) 
Heuristics

$$$$

     RDKit          3D

 12 10  0  0  0  0  0  0  0  0999 V2000
   -0.1710   -1.4282   -1.6846 O   0  0  0  0  0  0  0  0  0  0  0  0
   -0.1710   -1.4282   -0.2600 O   0  0  0  0  0  0  0  0  0  0  0  0
    0.6898   -1.8165   -1.8717 H   0  0  0  0  0  0  0  0  0  0  0  0
   -0.1710   -0.2951   -0.0355 H   0  0  0  0  0  0  0  0  0  0  0  0
   -0.8835    1.2687    1.5324 C   0  0  0  0  0  0  0  0  0  0  0  0
   -0.1710    0.9968    0.2204 C   0  0  0  0  0  3  0  0  0  0  0  0
    1.2331    0.9102    0.3655 O   0  0  0  0  0  0  0  0  0  0  0  0
   -0.5064    2.1844    1.9897 H   0  0  0  0  0  0  0  0  0  0  0  0
   -1.9582    1.3761    1.3720 H   0  0  0  0  0  0  0  0  0  0  0  0
   -0.7330    0.4463    2.2370 H   0  0  0  0  0  0  0  0  0  0  0  0
   -0.3422    1.8168   -0.4784 H   0  0  0  0  0  0  0  0  0  0  0  0
    1.4321    0.2005    0.9781 H   0  0  0  0  0  0  0  0  0  0  0  0
  1  2  1  0
  1  3  1  0
  2  4  1  0
  5  6  1  0
  5  8  1  0
  5  9  1  0
  5 10  1  0
  6  7  1  0
  6 11  1  0
  7 12  1  0
M  RAD  1   6   2
M  END
>  <reaction>  (7) 
rxn_780

>  <mol_properties>  (7) 
{"0": {"label": "*0", "atom_type": "O2s"}, "1": {"label": "*1", "atom_type": "O2s"}, "3": {"label": "*2", "atom_type": "H0"}, "5": {"label": "*3", "atom_type": "Cs"}, "6": {"label": "*4", "atom_type": "O2s"}}

>  <type>  (7) 
unop_3

>  <geom_source>  (7) 
Heuristics

$$$$

     RDKit          3D

 12 10  0  0  0  0  0  0  0  0999 V2000
   -0.0278   -1.7166   -1.3134 O   0  0  0  0  0  0  0  0  0  0  0  0
   -0.0278   -1.7166    0.1112 O   0  0  0  0  0  0  0  0  0  0  0  0
    0.8329   -2.1049   -1.5005 H   0  0  0  0  0  0  0  0  0  0  0  0
   -0.0278   -0.5835    0.3357 H   0  0  0  0  0  0  0  0  0  0  0  0
    1.2063    1.3586   -0.0059 C   0  0  0  0  0  0  0  0  0  0  0  0
   -0.0278    0.7085    0.5916 C   0  0  0  0  0  3  0  0  0  0  0  0
   -1.0954    1.6183    0.7716 O   0  0  0  0  0  0  0  0  0  0  0  0
    1.5376    2.1924    0.6145 H   0  0  0  0  0  0  0  0  0  0  0  0
    2.0220    0.6370   -0.0847 H   0  0  0  0  0  0  0  0  0  0  0  0
    1.0007    1.7389   -1.0102 H   0  0  0  0  0  0  0  0  0  0  0  0
    0.1952    0.3196    1.5862 H   0  0  0  0  0  0  0  0  0  0  0  0
   -1.3245    1.9906   -0.0813 H   0  0  0  0  0  0  0  0  0  0  0  0
  1  2  1  0
  1  3  1  0
  2  4  1  0
  5  6  1  0
  5  8  1  0
  5  9  1  0
  5 10  1  0
  6  7  1  0
  6 11  1  0
  7 12  1  0
M  RAD  1   6   2
M  END
>  <reaction>  (8) 
rxn_780

>  <mol_properties>  (8) 
{"0": {"label": "*0", "atom_type": "O2s"}, "1": {"label": "*1", "atom_type": "O2s"}, "3": {"label": "*2", "atom_type": "H0"}, "5": {"label": "*3", "atom_type": "Cs"}, "6": {"label": "*4", "atom_type": "O2s"}}

>  <type>  (8) 
unop_4

>  <geom_source>  (8) 
Heuristics

$$$$

     RDKit          3D

 12 10  0  0  0  0  0  0  0  0999 V2000
   -0.2417   -1.5766   -1.5498 O   0  0  0  0  0  0  0  0  0  0  0  0
   -0.2417   -1.5766   -0.1251 O   0  0  0  0  0  0  0  0  0  0  0  0
    0.6190   -1.9649   -1.7368 H   0  0  0  0  0  0  0  0  0  0  0  0
   -0.2417   -0.4435    0.0993 H   0  0  0  0  0  0  0  0  0  0  0  0
   -0.2417    1.0833    1.8545 C   0  0  0  0  0  0  0  0  0  0  0  0
   -0.2417    0.8485    0.3553 C   0  0  0  0  0  3  0  0  0  0  0  0
    0.8358    1.4877   -0.3008 O   0  0  0  0  0  0  0  0  0  0  0  0
   -0.2622    2.1515    2.0742 H   0  0  0  0  0  0  0  0  0  0  0  0
   -1.1128    0.6153    2.3177 H   0  0  0  0  0  0  0  0  0  0  0  0
    0.6514    0.6550    2.3175 H   0  0  0  0  0  0  0  0  0  0  0  0
   -1.1449    1.2663   -0.0916 H   0  0  0  0  0  0  0  0  0  0  0  0
    1.6559    1.1524    0.0645 H   0  0  0  0  0  0  0  0  0  0  0  0
  1  2  1  0
  1  3  1  0
  2  4  1  0
  5  6  1  0
  5  8  1  0
  5  9  1  0
  5 10  1  0
  6  7  1  0
  6 11  1  0
  7 12  1  0
M  RAD  1   6   2
M  END
>  <reaction>  (9) 
rxn_780

>  <mol_properties>  (9) 
{"0": {"label": "*0", "atom_type": "O2s"}, "1": {"label": "*1", "atom_type": "O2s"}, "3": {"label": "*2", "atom_type": "H0"}, "5": {"label": "*3", "atom_type": "Cs"}, "6": {"label": "*4", "atom_type": "O2s"}}

>  <type>  (9) 
unop_5

>  <geom_source>  (9) 
Heuristics

$$$$

     RDKit          3D

 12 10  0  0  0  0  0  0  0  0999 V2000
   -0.0916   -1.7162   -1.3756 O   0  0  0  0  0  0  0  0  0  0  0  0
   -0.0916   -1.7162    0.0490 O   0  0  0  0  0  0  0  0  0  0  0  0
    0.7691   -2.1045   -1.5627 H   0  0  0  0  0  0  0  0  0  0  0  0
   -0.0916   -0.5831    0.2735 H   0  0  0  0  0  0  0  0  0  0  0  0
    1.3334    1.2206    0.6308 C   0  0  0  0  0  0  0  0  0  0  0  0
   -0.0916    0.7089    0.5295 C   0  0  0  0  0  3  0  0  0  0  0  0
   -1.0363    1.7461    0.3506 O   0  0  0  0  0  0  0  0  0  0  0  0
    1.4239    1.9414    1.4445 H   0  0  0  0  0  0  0  0  0  0  0  0
    2.0262    0.3971    0.8160 H   0  0  0  0  0  0  0  0  0  0  0  0
    1.6400    1.7108   -0.2972 H   0  0  0  0  0  0  0  0  0  0  0  0
   -0.3791    0.2086    1.4552 H   0  0  0  0  0  0  0  0  0  0  0  0
   -0.8196    2.2188   -0.4545 H   0  0  0  0  0  0  0  0  0  0  0  0
  1  2  1  0
  1  3  1  0
  2  4  1  0
  5  6  1  0
  5  8  1  0
  5  9  1  0
  5 10  1  0
  6  7  1  0
  6 11  1  0
  7 12  1  0
M  RAD  1   6   2
M  END
>  <reaction>  (10) 
rxn_780

>  <mol_properties>  (10) 
{"0": {"label": "*0", "atom_type": "O2s"}, "1": {"label": "*1", "atom_type": "O2s"}, "3": {"label": "*2", "atom_type": "H0"}, "5": {"label": "*3", "atom_type": "Cs"}, "6": {"label": "*4", "atom_type": "O2s"}}

>  <type>  (10) 
unop_6

>  <geom_source>  (10) 
Heuristics

$$$$

     RDKit          3D

 12 10  0  0  0  0  0  0  0  0999 V2000
   -0.1202   -1.7064   -1.4263 O   0  0  0  0  0  0  0  0  0  0  0  0
   -0.1202   -1.7064   -0.0016 O   0  0  0  0  0  0  0  0  0  0  0  0
    0.7406   -2.0947   -1.6133 H   0  0  0  0  0  0  0  0  0  0  0  0
   -0.1202   -0.5732    0.2229 H   0  0  0  0  0  0  0  0  0  0  0  0
    1.1139    1.0919    1.2791 C   0  0  0  0  0  0  0  0  0  0  0  0
   -0.1202    0.7187    0.4788 C   0  0  0  0  0  3  0  0  0  0  0  0
   -0.7518    1.8383   -0.1109 O   0  0  0  0  0  0  0  0  0  0  0  0
    0.8627    1.8190    2.0525 H   0  0  0  0  0  0  0  0  0  0  0  0
    1.5447    0.2096    1.7568 H   0  0  0  0  0  0  0  0  0  0  0  0
    1.8811    1.5288    0.6341 H   0  0  0  0  0  0  0  0  0  0  0  0
   -0.8707    0.2699    1.1309 H   0  0  0  0  0  0  0  0  0  0  0  0
   -0.1244    2.2693   -0.6933 H   0  0  0  0  0  0  0  0  0  0  0  0
  1  2  1  0
  1  3  1  0
  2  4  1  0
  5  6  1  0
  5  8  1  0
  5  9  1  0
  5 10  1  0
  6  7  1  0
  6 11  1  0
  7 12  1  0
M  RAD  1   6   2
M  END
>  <reaction>  (11) 
rxn_780

>  <mol_properties>  (11) 
{"0": {"label": "*0", "atom_type": "O2s"}, "1": {"label": "*1", "atom_type": "O2s"}, "3": {"label": "*2", "atom_type": "H0"}, "5": {"label": "*3", "atom_type": "Cs"}, "6": {"label": "*4", "atom_type": "O2s"}}

>  <type>  (11) 
unop_7

>  <geom_source>  (11) 
Heuristics

$$$$

     RDKit          3D

 12 10  0  0  0  0  0  0  0  0999 V2000
    0.1694   -1.3792   -1.6747 O   0  0  0  0  0  0  0  0  0  0  0  0
    0.1694   -1.3792   -0.2500 O   0  0  0  0  0  0  0  0  0  0  0  0
    1.0302   -1.7675   -1.8618 H   0  0  0  0  0  0  0  0  0  0  0  0
    0.1694   -0.2460   -0.0256 H   0  0  0  0  0  0  0  0  0  0  0  0
   -1.2556    1.5576    0.3317 C   0  0  0  0  0  0  0  0  0  0  0  0
    0.1694    1.0459    0.2304 C   0  0  0  0  0  3  0  0  0  0  0  0
    0.6483    0.5093    1.4481 O   0  0  0  0  0  0  0  0  0  0  0  0
   -1.3372    2.3083    1.1189 H   0  0  0  0  0  0  0  0  0  0  0  0
   -1.5719    2.0064   -0.6122 H   0  0  0  0  0  0  0  0  0  0  0  0
   -1.9483    0.7433    0.5613 H   0  0  0  0  0  0  0  0  0  0  0  0
    0.8473    1.8648   -0.0145 H   0  0  0  0  0  0  0  0  0  0  0  0
    0.0772   -0.2158    1.7060 H   0  0  0  0  0  0  0  0  0  0  0  0
  1  2  1  0
  1  3  1  0
  2  4  1  0
  5  6  1  0
  5  8  1  0
  5  9  1  0
  5 10  1  0
  6  7  1  0
  6 11  1  0
  7 12  1  0
M  RAD  1   6   2
M  END
>  <reaction>  (12) 
rxn_780

>  <mol_properties>  (12) 
{"0": {"label": "*0", "atom_type": "O2s"}, "1": {"label": "*1", "atom_type": "O2s"}, "3": {"label": "*2", "atom_type": "H0"}, "5": {"label": "*3", "atom_type": "Cs"}, "6": {"label": "*4", "atom_type": "O2s"}}

>  <type>  (12) 
unop_8

>  <geom_source>  (12) 
Heuristics

$$$$

     RDKit          3D

 12 10  0  0  0  0  0  0  0  0999 V2000
    0.0882   -1.6910   -1.2798 O   0  0  0  0  0  0  0  0  0  0  0  0
    0.0882   -1.6910    0.1448 O   0  0  0  0  0  0  0  0  0  0  0  0
    0.9489   -2.0793   -1.4669 H   0  0  0  0  0  0  0  0  0  0  0  0
    0.0882   -0.5579    0.3693 H   0  0  0  0  0  0  0  0  0  0  0  0
    0.8007    1.4856   -0.4840 C   0  0  0  0  0  0  0  0  0  0  0  0
    0.0882    0.7340    0.6252 C   0  0  0  0  0  3  0  0  0  0  0  0
   -1.0375    1.4294    1.1247 O   0  0  0  0  0  0  0  0  0  0  0  0
    1.1053    2.4752   -0.1409 H   0  0  0  0  0  0  0  0  0  0  0  0
    1.6892    0.9406   -0.8095 H   0  0  0  0  0  0  0  0  0  0  0  0
    0.1495    1.6094   -1.3535 H   0  0  0  0  0  0  0  0  0  0  0  0
    0.7536    0.6035    1.4798 H   0  0  0  0  0  0  0  0  0  0  0  0
   -1.6520    1.5709    0.4030 H   0  0  0  0  0  0  0  0  0  0  0  0
  1  2  1  0
  1  3  1  0
  2  4  1  0
  5  6  1  0
  5  8  1  0
  5  9  1  0
  5 10  1  0
  6  7  1  0
  6 11  1  0
  7 12  1  0
M  RAD  1   6   2
M  END
>  <reaction>  (13) 
rxn_780

>  <mol_properties>  (13) 
{"0": {"label": "*0", "atom_type": "O2s"}, "1": {"label": "*1", "atom_type": "O2s"}, "3": {"label": "*2", "atom_type": "H0"}, "5": {"label": "*3", "atom_type": "Cs"}, "6": {"label": "*4", "atom_type": "O2s"}}

>  <type>  (13) 
unop_9

>  <geom_source>  (13) 
Heuristics

$$$$

     RDKit          3D

 12 10  0  0  0  0  0  0  0  0999 V2000
    0.2744   -1.4359   -1.5626 O   0  0  0  0  0  0  0  0  0  0  0  0
    0.2744   -1.4359   -0.1379 O   0  0  0  0  0  0  0  0  0  0  0  0
    1.1351   -1.8242   -1.7496 H   0  0  0  0  0  0  0  0  0  0  0  0
    0.2744   -0.3027    0.0866 H   0  0  0  0  0  0  0  0  0  0  0  0
   -0.9597    1.6394   -0.2551 C   0  0  0  0  0  0  0  0  0  0  0  0
    0.2744    0.9892    0.3425 C   0  0  0  0  0  3  0  0  0  0  0  0
    0.0881    0.5882    1.6858 O   0  0  0  0  0  0  0  0  0  0  0  0
   -1.2672    2.4981    0.3432 H   0  0  0  0  0  0  0  0  0  0  0  0
   -0.7618    1.9775   -1.2743 H   0  0  0  0  0  0  0  0  0  0  0  0
   -1.7934    0.9331   -0.2951 H   0  0  0  0  0  0  0  0  0  0  0  0
    1.1024    1.6992    0.3619 H   0  0  0  0  0  0  0  0  0  0  0  0
   -0.6372   -0.0374    1.7183 H   0  0  0  0  0  0  0  0  0  0  0  0
  1  2  1  0
  1  3  1  0
  2  4  1  0
  5  6  1  0
  5  8  1  0
  5  9  1  0
  5 10  1  0
  6  7  1  0
  6 11  1  0
  7 12  1  0
M  RAD  1   6   2
M  END
>  <reaction>  (14) 
rxn_780

>  <mol_properties>  (14) 
{"0": {"label": "*0", "atom_type": "O2s"}, "1": {"label": "*1", "atom_type": "O2s"}, "3": {"label": "*2", "atom_type": "H0"}, "5": {"label": "*3", "atom_type": "Cs"}, "6": {"label": "*4", "atom_type": "O2s"}}

>  <type>  (14) 
unop_10

>  <geom_source>  (14) 
Heuristics

$$$$

     RDKit          3D

 12 10  0  0  0  0  0  0  0  0999 V2000
   -0.1665   -1.6801   -1.4611 O   0  0  0  0  0  0  0  0  0  0  0  0
   -0.1665   -1.6801   -0.0364 O   0  0  0  0  0  0  0  0  0  0  0  0
    0.6942   -2.0684   -1.6482 H   0  0  0  0  0  0  0  0  0  0  0  0
   -0.1665   -0.5470    0.1880 H   0  0  0  0  0  0  0  0  0  0  0  0
    0.5460    1.0168    1.7559 C   0  0  0  0  0  0  0  0  0  0  0  0
   -0.1665    0.7449    0.4440 C   0  0  0  0  0  3  0  0  0  0  0  0
   -0.0973    1.8346   -0.4548 O   0  0  0  0  0  0  0  0  0  0  0  0
    0.1409    1.9101    2.2331 H   0  0  0  0  0  0  0  0  0  0  0  0
    0.4297    0.1733    2.4395 H   0  0  0  0  0  0  0  0  0  0  0  0
    1.6167    1.1694    1.5953 H   0  0  0  0  0  0  0  0  0  0  0  0
   -1.2302    0.5789    0.6202 H   0  0  0  0  0  0  0  0  0  0  0  0
    0.8252    2.0203   -0.6368 H   0  0  0  0  0  0  0  0  0  0  0  0
  1  2  1  0
  1  3  1  0
  2  4  1  0
  5  6  1  0
  5  8  1  0
  5  9  1  0
  5 10  1  0
  6  7  1  0
  6 11  1  0
  7 12  1  0
M  RAD  1   6   2
M  END
>  <reaction>  (15) 
rxn_780

>  <mol_properties>  (15) 
{"0": {"label": "*0", "atom_type": "O2s"}, "1": {"label": "*1", "atom_type": "O2s"}, "3": {"label": "*2", "atom_type": "H0"}, "5": {"label": "*3", "atom_type": "Cs"}, "6": {"label": "*4", "atom_type": "O2s"}}

>  <type>  (15) 
unop_11

>  <geom_source>  (15) 
Heuristics

$$$$

     RDKit          3D

 12 10  0  0  0  0  0  0  0  0999 V2000
    0.2198   -1.6226   -1.3175 O   0  0  0  0  0  0  0  0  0  0  0  0
    0.2198   -1.6226    0.1071 O   0  0  0  0  0  0  0  0  0  0  0  0
    1.0805   -2.0109   -1.5046 H   0  0  0  0  0  0  0  0  0  0  0  0
    0.2198   -0.4895    0.3316 H   0  0  0  0  0  0  0  0  0  0  0  0
    0.2198    1.5911   -0.7090 C   0  0  0  0  0  0  0  0  0  0  0  0
    0.2198    0.8025    0.5875 C   0  0  0  0  0  3  0  0  0  0  0  0
   -0.8577    1.1433    1.4378 O   0  0  0  0  0  0  0  0  0  0  0  0
    0.2403    2.6624   -0.5048 H   0  0  0  0  0  0  0  0  0  0  0  0
    1.0909    1.3351   -1.3156 H   0  0  0  0  0  0  0  0  0  0  0  0
   -0.6733    1.3717   -1.3003 H   0  0  0  0  0  0  0  0  0  0  0  0
    1.1230    1.0184    1.1599 H   0  0  0  0  0  0  0  0  0  0  0  0
   -1.6779    0.9726    0.9722 H   0  0  0  0  0  0  0  0  0  0  0  0
  1  2  1  0
  1  3  1  0
  2  4  1  0
  5  6  1  0
  5  8  1  0
  5  9  1  0
  5 10  1  0
  6  7  1  0
  6 11  1  0
  7 12  1  0
M  RAD  1   6   2
M  END
>  <reaction>  (16) 
rxn_780

>  <mol_properties>  (16) 
{"0": {"label": "*0", "atom_type": "O2s"}, "1": {"label": "*1", "atom_type": "O2s"}, "3": {"label": "*2", "atom_type": "H0"}, "5": {"label": "*3", "atom_type": "Cs"}, "6": {"label": "*4", "atom_type": "O2s"}}

>  <type>  (16) 
unop_12

>  <geom_source>  (16) 
Heuristics

$$$$

     RDKit          3D

 12 10  0  0  0  0  0  0  0  0999 V2000
   -1.4144    1.4444    0.1021 O   0  0  0  0  0  0  0  0  0  0  0  0
    2.9100   -0.3064    0.7322 O   0  0  0  0  0  0  0  0  0  0  0  0
    1.6389    0.0001    0.8814 O   0  0  0  0  0  1  0  0  0  0  0  0
   -0.4778    0.4459   -0.1878 C   0  0  0  0  0  0  0  0  0  0  0  0
   -1.1691   -0.9076   -0.2266 C   0  0  0  0  0  0  0  0  0  0  0  0
   -0.0069    0.6457   -1.1757 H   0  0  0  0  0  0  0  0  0  0  0  0
    0.3803    0.4281    0.6639 H   0  0  0  0  0  0  0  0  0  0  0  0
   -0.4259   -1.7001   -0.4556 H   0  0  0  0  0  0  0  0  0  0  0  0
   -1.9548   -0.9116   -1.0117 H   0  0  0  0  0  0  0  0  0  0  0  0
   -1.6345   -1.1240    0.7582 H   0  0  0  0  0  0  0  0  0  0  0  0
   -0.8983    2.2891    0.1675 H   0  0  0  0  0  0  0  0  0  0  0  0
    3.0525   -0.3035   -0.2478 H   0  0  0  0  0  0  0  0  0  0  0  0
  1  4  1  0
  1 11  1  0
  2  3  1  0
  2 12  1  0
  4  5  1  0
  4  6  1  0
  4  7  1  0
  5  8  1  0
  5  9  1  0
  5 10  1  0
M  RAD  1   3   2
M  END
>  <reaction>  (17) 
rxn_780

>  <mol_properties>  (17) 
{"0": {"label": "*0", "atom_type": "O2s"}, "1": {"label": "*1", "atom_type": "O2s"}, "3": {"label": "*2", "atom_type": "H0"}, "5": {"label": "*3", "atom_type": "Cs"}, "6": {"label": "*4", "atom_type": "O2s"}}

>  <type>  (17) 
unop_13

>  <geom_source>  (17) 
AutoTST

$$$$
