
     RDKit          3D

 11 10  0  0  0  0  0  0  0  0999 V2000
   -1.2710    0.1907   -0.2084 C   0  0  0  0  0  0  0  0  0  0  0  0
    0.0202   -0.6130   -0.2928 C   0  0  0  0  0  0  0  0  0  0  0  0
    0.1086   -1.6953    0.7756 C   0  0  0  0  0  0  0  0  0  0  0  0
   -1.3607    0.6851    0.7620 H   0  0  0  0  0  0  0  0  0  0  0  0
   -2.1429   -0.4567   -0.3299 H   0  0  0  0  0  0  0  0  0  0  0  0
   -1.3158    0.9602   -0.9809 H   0  0  0  0  0  0  0  0  0  0  0  0
    0.8757    0.0616   -0.1992 H   0  0  0  0  0  0  0  0  0  0  0  0
    0.0997   -1.0712   -1.2825 H   0  0  0  0  0  0  0  0  0  0  0  0
   -0.7198   -2.4022    0.6850 H   0  0  0  0  0  0  0  0  0  0  0  0
    1.0395   -2.2596    0.6989 H   0  0  0  0  0  0  0  0  0  0  0  0
    0.0624   -1.2603    1.7770 H   0  0  0  0  0  0  0  0  0  0  0  0
  1  2  1  0
  1  4  1  0
  1  5  1  0
  1  6  1  0
  2  3  1  0
  2  7  1  0
  2  8  1  0
  3  9  1  0
  3 10  1  0
  3 11  1  0
M  END
>  <reaction>  (1) 
rxn_331

>  <mol_properties>  (1) 
{"1": {"label": "donator", "atom_type": "Cs"}, "6": {"label": "d_hydrogen", "atom_type": "H0"}}

>  <type>  (1) 
r1h

$$$$

     RDKit          3D

  5  4  0  0  0  0  0  0  0  0999 V2000
   -0.4594   -0.0218    0.1029 C   0  0  0  0  0  3  0  0  0  0  0  0
    0.7950   -0.5236   -0.0267 O   0  0  0  0  0  0  0  0  0  0  0  0
   -0.5206    1.0442   -0.0551 H   0  0  0  0  0  0  0  0  0  0  0  0
   -1.3063   -0.6674   -0.0961 H   0  0  0  0  0  0  0  0  0  0  0  0
    0.7727   -1.4781    0.0538 H   0  0  0  0  0  0  0  0  0  0  0  0
  1  2  1  0
  1  3  1  0
  1  4  1  0
  2  5  1  0
M  RAD  1   1   2
M  END
>  <reaction>  (2) 
rxn_331

>  <mol_properties>  (2) 
{"0": {"label": "acceptor", "atom_type": "Cs"}}

>  <type>  (2) 
r2

$$$$

     RDKit          3D

  6  5  0  0  0  0  0  0  0  0999 V2000
   -0.3669    0.0060    0.0609 C   0  0  0  0  0  0  0  0  0  0  0  0
    0.9818   -0.0507    0.4695 O   0  0  0  0  0  0  0  0  0  0  0  0
   -0.6066    0.9462   -0.4488 H   0  0  0  0  0  0  0  0  0  0  0  0
   -0.5221   -0.8115   -0.6420 H   0  0  0  0  0  0  0  0  0  0  0  0
   -1.0602   -0.1268    0.8992 H   0  0  0  0  0  0  0  0  0  0  0  0
    1.1451    0.6595    1.0897 H   0  0  0  0  0  0  0  0  0  0  0  0
  1  2  1  0
  1  3  1  0
  1  4  1  0
  1  5  1  0
  2  6  1  0
M  END
>  <reaction>  (3) 
rxn_331

>  <mol_properties>  (3) 
{"0": {"label": "acceptor", "atom_type": "Cs"}, "5": {"label": "a_hydrogen", "atom_type": "H0"}}

>  <type>  (3) 
r2h

$$$$

     RDKit          3D

 16 14  0  0  0  0  0  0  0  0999 V2000
    0.9646   -1.1803    0.8258 C   0  0  0  0  0  0  0  0  0  0  0  0
    1.9990   -0.2960    0.5469 O   0  0  0  0  0  0  0  0  0  0  0  0
    1.0838   -2.0751    0.2195 H   0  0  0  0  0  0  0  0  0  0  0  0
    0.8381   -1.4096    1.8876 H   0  0  0  0  0  0  0  0  0  0  0  0
    1.9388    0.4509    1.1438 H   0  0  0  0  0  0  0  0  0  0  0  0
   -1.1335   -0.0534   -1.5631 C   0  0  0  0  0  0  0  0  0  0  0  0
   -1.2126    0.1257   -0.0703 C   0  0  0  0  0  3  0  0  0  0  0  0
   -0.9351    1.5165    0.4372 C   0  0  0  0  0  0  0  0  0  0  0  0
   -0.1471    0.2374   -1.9343 H   0  0  0  0  0  0  0  0  0  0  0  0
   -1.8744    0.5648   -2.0833 H   0  0  0  0  0  0  0  0  0  0  0  0
   -1.3085   -1.0911   -1.8526 H   0  0  0  0  0  0  0  0  0  0  0  0
   -0.1927   -0.6259    0.4263 H   0  0  0  0  0  0  0  0  0  0  0  0
   -2.0986   -0.3266    0.3772 H   0  0  0  0  0  0  0  0  0  0  0  0
   -1.6973    2.2294    0.1025 H   0  0  0  0  0  0  0  0  0  0  0  0
   -0.9149    1.5508    1.5291 H   0  0  0  0  0  0  0  0  0  0  0  0
    0.0270    1.8793    0.0640 H   0  0  0  0  0  0  0  0  0  0  0  0
  1  2  1  0
  1  3  1  0
  1  4  1  0
  1 12  1  0
  2  5  1  0
  6  7  1  0
  6  9  1  0
  6 10  1  0
  6 11  1  0
  7  8  1  0
  7 13  1  0
  8 14  1  0
  8 15  1  0
  8 16  1  0
M  RAD  1   7   2
M  END
>  <reaction>  (4) 
rxn_331

>  <mol_properties>  (4) 
{"0": {"label": "*1", "atom_type": "Cs"}, "1": {"label": "*0", "atom_type": "O2s"}, "5": {"label": "*4", "atom_type": "Cs"}, "6": {"label": "*3", "atom_type": "Cs"}, "11": {"label": "*2", "atom_type": "H0"}}

>  <type>  (4) 
ts

$$$$

     RDKit          3D

 16 14  0  0  0  0  0  0  0  0999 V2000
    1.0535   -1.2296    0.5107 C   0  0  0  0  0  0  0  0  0  0  0  0
    1.8124   -0.3267    1.2841 O   0  0  0  0  0  0  0  0  0  0  0  0
    1.6604   -2.0561    0.1237 H   0  0  0  0  0  0  0  0  0  0  0  0
    0.2077   -1.6456    1.0699 H   0  0  0  0  0  0  0  0  0  0  0  0
    2.1714   -0.7943    2.0380 H   0  0  0  0  0  0  0  0  0  0  0  0
   -1.0412    0.0791   -1.8845 C   0  0  0  0  0  0  0  0  0  0  0  0
   -1.0412    0.0791   -0.3612 C   0  0  0  0  0  3  0  0  0  0  0  0
   -1.0412    1.4849    0.2255 C   0  0  0  0  0  0  0  0  0  0  0  0
   -0.1598    0.5933   -2.2751 H   0  0  0  0  0  0  0  0  0  0  0  0
   -1.9227    0.5933   -2.2751 H   0  0  0  0  0  0  0  0  0  0  0  0
   -1.0412   -0.9358   -2.2857 H   0  0  0  0  0  0  0  0  0  0  0  0
    0.0082   -0.5765    0.0756 H   0  0  0  0  0  0  0  0  0  0  0  0
   -1.9158   -0.4673    0.0028 H   0  0  0  0  0  0  0  0  0  0  0  0
   -1.9227    2.0435   -0.0986 H   0  0  0  0  0  0  0  0  0  0  0  0
   -1.0412    1.4642    1.3166 H   0  0  0  0  0  0  0  0  0  0  0  0
   -0.1598    2.0435   -0.0986 H   0  0  0  0  0  0  0  0  0  0  0  0
  1  2  1  0
  1  3  1  0
  1  4  1  0
  1 12  1  0
  2  5  1  0
  6  7  1  0
  6  9  1  0
  6 10  1  0
  6 11  1  0
  7  8  1  0
  7 13  1  0
  8 14  1  0
  8 15  1  0
  8 16  1  0
M  RAD  1   7   2
M  END
>  <reaction>  (5) 
rxn_331

>  <mol_properties>  (5) 
{"0": {"label": "*1", "atom_type": "Cs"}, "1": {"label": "*0", "atom_type": "O2s"}, "5": {"label": "*4", "atom_type": "Cs"}, "6": {"label": "*3", "atom_type": "Cs"}, "11": {"label": "*2", "atom_type": "H0"}}

>  <type>  (5) 
unop_1

>  <geom_source>  (5) 
Heuristics

$$$$

     RDKit          3D

 16 14  0  0  0  0  0  0  0  0999 V2000
    0.9844   -1.0766    0.8946 C   0  0  0  0  0  0  0  0  0  0  0  0
    2.0018   -0.9172   -0.0690 O   0  0  0  0  0  0  0  0  0  0  0  0
    0.9217   -2.1061    1.2652 H   0  0  0  0  0  0  0  0  0  0  0  0
    1.1128   -0.4021    1.7488 H   0  0  0  0  0  0  0  0  0  0  0  0
    2.8436   -1.1264    0.3354 H   0  0  0  0  0  0  0  0  0  0  0  0
   -1.1103    0.2321   -1.5006 C   0  0  0  0  0  0  0  0  0  0  0  0
   -1.1103    0.2321    0.0227 C   0  0  0  0  0  3  0  0  0  0  0  0
   -1.1103    1.6379    0.6095 C   0  0  0  0  0  0  0  0  0  0  0  0
   -0.2289    0.7463   -1.8912 H   0  0  0  0  0  0  0  0  0  0  0  0
   -1.9918    0.7463   -1.8912 H   0  0  0  0  0  0  0  0  0  0  0  0
   -1.1103   -0.7828   -1.9017 H   0  0  0  0  0  0  0  0  0  0  0  0
   -0.0609   -0.4236    0.4595 H   0  0  0  0  0  0  0  0  0  0  0  0
   -1.9849   -0.3143    0.3867 H   0  0  0  0  0  0  0  0  0  0  0  0
   -1.9918    2.1964    0.2853 H   0  0  0  0  0  0  0  0  0  0  0  0
   -1.1103    1.6172    1.7006 H   0  0  0  0  0  0  0  0  0  0  0  0
   -0.2289    2.1964    0.2853 H   0  0  0  0  0  0  0  0  0  0  0  0
  1  2  1  0
  1  3  1  0
  1  4  1  0
  1 12  1  0
  2  5  1  0
  6  7  1  0
  6  9  1  0
  6 10  1  0
  6 11  1  0
  7  8  1  0
  7 13  1  0
  8 14  1  0
  8 15  1  0
  8 16  1  0
M  RAD  1   7   2
M  END
>  <reaction>  (6) 
rxn_331

>  <mol_properties>  (6) 
{"0": {"label": "*1", "atom_type": "Cs"}, "1": {"label": "*0", "atom_type": "O2s"}, "5": {"label": "*4", "atom_type": "Cs"}, "6": {"label": "*3", "atom_type": "Cs"}, "11": {"label": "*2", "atom_type": "H0"}}

>  <type>  (6) 
unop_2

>  <geom_source>  (6) 
Heuristics

$$$$

     RDKit          3D

 16 14  0  0  0  0  0  0  0  0999 V2000
    1.1374   -1.1527    0.4168 C   0  0  0  0  0  0  0  0  0  0  0  0
    1.4954   -0.5814    1.6556 O   0  0  0  0  0  0  0  0  0  0  0  0
    2.0114   -1.4860   -0.1544 H   0  0  0  0  0  0  0  0  0  0  0  0
    0.4496   -1.9981    0.5332 H   0  0  0  0  0  0  0  0  0  0  0  0
    1.9440   -1.2436    2.1811 H   0  0  0  0  0  0  0  0  0  0  0  0
   -0.9574    0.1559   -1.9784 C   0  0  0  0  0  0  0  0  0  0  0  0
   -0.9574    0.1559   -0.4551 C   0  0  0  0  0  3  0  0  0  0  0  0
   -0.9574    1.5617    0.1316 C   0  0  0  0  0  0  0  0  0  0  0  0
   -0.0759    0.6702   -2.3691 H   0  0  0  0  0  0  0  0  0  0  0  0
   -1.8388    0.6702   -2.3691 H   0  0  0  0  0  0  0  0  0  0  0  0
   -0.9574   -0.8590   -2.3796 H   0  0  0  0  0  0  0  0  0  0  0  0
    0.0921   -0.4997   -0.0183 H   0  0  0  0  0  0  0  0  0  0  0  0
   -1.8319   -0.3904   -0.0911 H   0  0  0  0  0  0  0  0  0  0  0  0
   -1.8388    2.1203   -0.1925 H   0  0  0  0  0  0  0  0  0  0  0  0
   -0.9574    1.5410    1.2227 H   0  0  0  0  0  0  0  0  0  0  0  0
   -0.0759    2.1203   -0.1925 H   0  0  0  0  0  0  0  0  0  0  0  0
  1  2  1  0
  1  3  1  0
  1  4  1  0
  1 12  1  0
  2  5  1  0
  6  7  1  0
  6  9  1  0
  6 10  1  0
  6 11  1  0
  7  8  1  0
  7 13  1  0
  8 14  1  0
  8 15  1  0
  8 16  1  0
M  RAD  1   7   2
M  END
>  <reaction>  (7) 
rxn_331

>  <mol_properties>  (7) 
{"0": {"label": "*1", "atom_type": "Cs"}, "1": {"label": "*0", "atom_type": "O2s"}, "5": {"label": "*4", "atom_type": "Cs"}, "6": {"label": "*3", "atom_type": "Cs"}, "11": {"label": "*2", "atom_type": "H0"}}

>  <type>  (7) 
unop_3

>  <geom_source>  (7) 
Heuristics

$$$$

     RDKit          3D

 16 14  0  0  0  0  0  0  0  0999 V2000
    1.2371   -0.7480    0.7880 C   0  0  0  0  0  0  0  0  0  0  0  0
    1.1392   -2.0638    0.2898 O   0  0  0  0  0  0  0  0  0  0  0  0
    0.7010   -0.6223    1.7356 H   0  0  0  0  0  0  0  0  0  0  0  0
    2.2777   -0.4338    0.9278 H   0  0  0  0  0  0  0  0  0  0  0  0
    1.5351   -2.6623    0.9229 H   0  0  0  0  0  0  0  0  0  0  0  0
   -0.8577    0.5607   -1.6072 C   0  0  0  0  0  0  0  0  0  0  0  0
   -0.8577    0.5607   -0.0839 C   0  0  0  0  0  3  0  0  0  0  0  0
   -0.8577    1.9665    0.5028 C   0  0  0  0  0  0  0  0  0  0  0  0
    0.0238    1.0750   -1.9979 H   0  0  0  0  0  0  0  0  0  0  0  0
   -1.7391    1.0750   -1.9979 H   0  0  0  0  0  0  0  0  0  0  0  0
   -0.8577   -0.4542   -2.0084 H   0  0  0  0  0  0  0  0  0  0  0  0
    0.1918   -0.0949    0.3529 H   0  0  0  0  0  0  0  0  0  0  0  0
   -1.7322    0.0143    0.2801 H   0  0  0  0  0  0  0  0  0  0  0  0
   -1.7391    2.5251    0.1787 H   0  0  0  0  0  0  0  0  0  0  0  0
   -0.8577    1.9458    1.5939 H   0  0  0  0  0  0  0  0  0  0  0  0
    0.0238    2.5251    0.1787 H   0  0  0  0  0  0  0  0  0  0  0  0
  1  2  1  0
  1  3  1  0
  1  4  1  0
  1 12  1  0
  2  5  1  0
  6  7  1  0
  6  9  1  0
  6 10  1  0
  6 11  1  0
  7  8  1  0
  7 13  1  0
  8 14  1  0
  8 15  1  0
  8 16  1  0
M  RAD  1   7   2
M  END
>  <reaction>  (8) 
rxn_331

>  <mol_properties>  (8) 
{"0": {"label": "*1", "atom_type": "Cs"}, "1": {"label": "*0", "atom_type": "O2s"}, "5": {"label": "*4", "atom_type": "Cs"}, "6": {"label": "*3", "atom_type": "Cs"}, "11": {"label": "*2", "atom_type": "H0"}}

>  <type>  (8) 
unop_4

>  <geom_source>  (8) 
Heuristics

$$$$

     RDKit          3D

 16 14  0  0  0  0  0  0  0  0999 V2000
    1.2168   -1.0417    0.3851 C   0  0  0  0  0  0  0  0  0  0  0  0
    1.1666   -1.0103    1.7942 O   0  0  0  0  0  0  0  0  0  0  0  0
    2.1148   -0.5523   -0.0089 H   0  0  0  0  0  0  0  0  0  0  0  0
    1.1708   -2.0633   -0.0089 H   0  0  0  0  0  0  0  0  0  0  0  0
    1.9237   -1.4833    2.1393 H   0  0  0  0  0  0  0  0  0  0  0  0
   -0.8780    0.2670   -2.0101 C   0  0  0  0  0  0  0  0  0  0  0  0
   -0.8780    0.2670   -0.4868 C   0  0  0  0  0  3  0  0  0  0  0  0
   -0.8780    1.6728    0.0999 C   0  0  0  0  0  0  0  0  0  0  0  0
    0.0035    0.7812   -2.4007 H   0  0  0  0  0  0  0  0  0  0  0  0
   -1.7594    0.7812   -2.4007 H   0  0  0  0  0  0  0  0  0  0  0  0
   -0.8780   -0.7479   -2.4113 H   0  0  0  0  0  0  0  0  0  0  0  0
    0.1714   -0.3886   -0.0500 H   0  0  0  0  0  0  0  0  0  0  0  0
   -1.7525   -0.2794   -0.1228 H   0  0  0  0  0  0  0  0  0  0  0  0
   -1.7594    2.2314   -0.2242 H   0  0  0  0  0  0  0  0  0  0  0  0
   -0.8780    1.6521    1.1910 H   0  0  0  0  0  0  0  0  0  0  0  0
    0.0035    2.2314   -0.2242 H   0  0  0  0  0  0  0  0  0  0  0  0
  1  2  1  0
  1  3  1  0
  1  4  1  0
  1 12  1  0
  2  5  1  0
  6  7  1  0
  6  9  1  0
  6 10  1  0
  6 11  1  0
  7  8  1  0
  7 13  1  0
  8 14  1  0
  8 15  1  0
  8 16  1  0
M  RAD  1   7   2
M  END
>  <reaction>  (9) 
rxn_331

>  <mol_properties>  (9) 
{"0": {"label": "*1", "atom_type": "Cs"}, "1": {"label": "*0", "atom_type": "O2s"}, "5": {"label": "*4", "atom_type": "Cs"}, "6": {"label": "*3", "atom_type": "Cs"}, "11": {"label": "*2", "atom_type": "H0"}}

>  <type>  (9) 
unop_5

>  <geom_source>  (9) 
Heuristics

$$$$

     RDKit          3D

 16 14  0  0  0  0  0  0  0  0999 V2000
    1.2984   -0.7473    0.6467 C   0  0  0  0  0  0  0  0  0  0  0  0
    0.9144   -2.0974    0.7843 O   0  0  0  0  0  0  0  0  0  0  0  0
    0.9660   -0.1334    1.4916 H   0  0  0  0  0  0  0  0  0  0  0  0
    2.3826   -0.6339    0.5341 H   0  0  0  0  0  0  0  0  0  0  0  0
    1.3219   -2.4539    1.5734 H   0  0  0  0  0  0  0  0  0  0  0  0
   -0.7964    0.5613   -1.7485 C   0  0  0  0  0  0  0  0  0  0  0  0
   -0.7964    0.5613   -0.2252 C   0  0  0  0  0  3  0  0  0  0  0  0
   -0.7964    1.9672    0.3615 C   0  0  0  0  0  0  0  0  0  0  0  0
    0.0851    1.0756   -2.1392 H   0  0  0  0  0  0  0  0  0  0  0  0
   -1.6778    1.0756   -2.1392 H   0  0  0  0  0  0  0  0  0  0  0  0
   -0.7964   -0.4535   -2.1497 H   0  0  0  0  0  0  0  0  0  0  0  0
    0.2531   -0.0943    0.2116 H   0  0  0  0  0  0  0  0  0  0  0  0
   -1.6709    0.0150    0.1388 H   0  0  0  0  0  0  0  0  0  0  0  0
   -1.6778    2.5257    0.0374 H   0  0  0  0  0  0  0  0  0  0  0  0
   -0.7964    1.9465    1.4526 H   0  0  0  0  0  0  0  0  0  0  0  0
    0.0851    2.5257    0.0374 H   0  0  0  0  0  0  0  0  0  0  0  0
  1  2  1  0
  1  3  1  0
  1  4  1  0
  1 12  1  0
  2  5  1  0
  6  7  1  0
  6  9  1  0
  6 10  1  0
  6 11  1  0
  7  8  1  0
  7 13  1  0
  8 14  1  0
  8 15  1  0
  8 16  1  0
M  RAD  1   7   2
M  END
>  <reaction>  (10) 
rxn_331

>  <mol_properties>  (10) 
{"0": {"label": "*1", "atom_type": "Cs"}, "1": {"label": "*0", "atom_type": "O2s"}, "5": {"label": "*4", "atom_type": "Cs"}, "6": {"label": "*3", "atom_type": "Cs"}, "11": {"label": "*2", "atom_type": "H0"}}

>  <type>  (10) 
unop_6

>  <geom_source>  (10) 
Heuristics

$$$$

     RDKit          3D

 16 14  0  0  0  0  0  0  0  0999 V2000
    1.3140   -0.8126    0.5107 C   0  0  0  0  0  0  0  0  0  0  0  0
    0.8355   -1.8906    1.2841 O   0  0  0  0  0  0  0  0  0  0  0  0
    1.3170    0.1300    1.0699 H   0  0  0  0  0  0  0  0  0  0  0  0
    2.3229   -0.9955    0.1237 H   0  0  0  0  0  0  0  0  0  0  0  0
    1.4131   -2.0081    2.0380 H   0  0  0  0  0  0  0  0  0  0  0  0
   -0.7807    0.4961   -1.8845 C   0  0  0  0  0  0  0  0  0  0  0  0
   -0.7807    0.4961   -0.3612 C   0  0  0  0  0  3  0  0  0  0  0  0
   -0.7807    1.9019    0.2255 C   0  0  0  0  0  0  0  0  0  0  0  0
    0.1007    1.0104   -2.2751 H   0  0  0  0  0  0  0  0  0  0  0  0
   -1.6622    1.0103   -2.2751 H   0  0  0  0  0  0  0  0  0  0  0  0
   -0.7807   -0.5188   -2.2857 H   0  0  0  0  0  0  0  0  0  0  0  0
    0.2687   -0.1595    0.0756 H   0  0  0  0  0  0  0  0  0  0  0  0
   -1.6552   -0.0503    0.0028 H   0  0  0  0  0  0  0  0  0  0  0  0
   -1.6622    2.4605   -0.0986 H   0  0  0  0  0  0  0  0  0  0  0  0
   -0.7807    1.8812    1.3166 H   0  0  0  0  0  0  0  0  0  0  0  0
    0.1007    2.4605   -0.0986 H   0  0  0  0  0  0  0  0  0  0  0  0
  1  2  1  0
  1  3  1  0
  1  4  1  0
  1 12  1  0
  2  5  1  0
  6  7  1  0
  6  9  1  0
  6 10  1  0
  6 11  1  0
  7  8  1  0
  7 13  1  0
  8 14  1  0
  8 15  1  0
  8 16  1  0
M  RAD  1   7   2
M  END
>  <reaction>  (11) 
rxn_331

>  <mol_properties>  (11) 
{"0": {"label": "*1", "atom_type": "Cs"}, "1": {"label": "*0", "atom_type": "O2s"}, "5": {"label": "*4", "atom_type": "Cs"}, "6": {"label": "*3", "atom_type": "Cs"}, "11": {"label": "*2", "atom_type": "H0"}}

>  <type>  (11) 
unop_7

>  <geom_source>  (11) 
Heuristics

$$$$

     RDKit          3D

 16 14  0  0  0  0  0  0  0  0999 V2000
    0.9880   -1.2441    0.6467 C   0  0  0  0  0  0  0  0  0  0  0  0
    2.0330   -0.3070    0.7843 O   0  0  0  0  0  0  0  0  0  0  0  0
    1.3615   -2.2683    0.5341 H   0  0  0  0  0  0  0  0  0  0  0  0
    0.2905   -1.2146    1.4916 H   0  0  0  0  0  0  0  0  0  0  0  0
    2.5320   -0.5169    1.5735 H   0  0  0  0  0  0  0  0  0  0  0  0
   -1.1067    0.0645   -1.7485 C   0  0  0  0  0  0  0  0  0  0  0  0
   -1.1067    0.0645   -0.2252 C   0  0  0  0  0  3  0  0  0  0  0  0
   -1.1067    1.4703    0.3615 C   0  0  0  0  0  0  0  0  0  0  0  0
   -0.2253    0.5788   -2.1392 H   0  0  0  0  0  0  0  0  0  0  0  0
   -1.9882    0.5788   -2.1392 H   0  0  0  0  0  0  0  0  0  0  0  0
   -1.1067   -0.9504   -2.1497 H   0  0  0  0  0  0  0  0  0  0  0  0
   -0.0573   -0.5911    0.2116 H   0  0  0  0  0  0  0  0  0  0  0  0
   -1.9813   -0.4818    0.1388 H   0  0  0  0  0  0  0  0  0  0  0  0
   -1.9882    2.0289    0.0374 H   0  0  0  0  0  0  0  0  0  0  0  0
   -1.1068    1.4497    1.4526 H   0  0  0  0  0  0  0  0  0  0  0  0
   -0.2253    2.0289    0.0374 H   0  0  0  0  0  0  0  0  0  0  0  0
  1  2  1  0
  1  3  1  0
  1  4  1  0
  1 12  1  0
  2  5  1  0
  6  7  1  0
  6  9  1  0
  6 10  1  0
  6 11  1  0
  7  8  1  0
  7 13  1  0
  8 14  1  0
  8 15  1  0
  8 16  1  0
M  RAD  1   7   2
M  END
>  <reaction>  (12) 
rxn_331

>  <mol_properties>  (12) 
{"0": {"label": "*1", "atom_type": "Cs"}, "1": {"label": "*0", "atom_type": "O2s"}, "5": {"label": "*4", "atom_type": "Cs"}, "6": {"label": "*3", "atom_type": "Cs"}, "11": {"label": "*2", "atom_type": "H0"}}

>  <type>  (12) 
unop_8

>  <geom_source>  (12) 
Heuristics

$$$$

     RDKit          3D

 16 14  0  0  0  0  0  0  0  0999 V2000
    1.1462   -0.8176    0.8946 C   0  0  0  0  0  0  0  0  0  0  0  0
    1.4492   -1.8018   -0.0690 O   0  0  0  0  0  0  0  0  0  0  0  0
    0.5964   -1.2288    1.7488 H   0  0  0  0  0  0  0  0  0  0  0  0
    2.0440   -0.3097    1.2652 H   0  0  0  0  0  0  0  0  0  0  0  0
    2.0064   -2.4666    0.3354 H   0  0  0  0  0  0  0  0  0  0  0  0
   -0.9485    0.4911   -1.5006 C   0  0  0  0  0  0  0  0  0  0  0  0
   -0.9485    0.4911    0.0227 C   0  0  0  0  0  3  0  0  0  0  0  0
   -0.9485    1.8969    0.6095 C   0  0  0  0  0  0  0  0  0  0  0  0
   -0.0671    1.0054   -1.8912 H   0  0  0  0  0  0  0  0  0  0  0  0
   -1.8300    1.0054   -1.8912 H   0  0  0  0  0  0  0  0  0  0  0  0
   -0.9485   -0.5238   -1.9017 H   0  0  0  0  0  0  0  0  0  0  0  0
    0.1009   -0.1645    0.4595 H   0  0  0  0  0  0  0  0  0  0  0  0
   -1.8230   -0.0552    0.3867 H   0  0  0  0  0  0  0  0  0  0  0  0
   -1.8300    2.4555    0.2853 H   0  0  0  0  0  0  0  0  0  0  0  0
   -0.9485    1.8762    1.7006 H   0  0  0  0  0  0  0  0  0  0  0  0
   -0.0671    2.4555    0.2853 H   0  0  0  0  0  0  0  0  0  0  0  0
  1  2  1  0
  1  3  1  0
  1  4  1  0
  1 12  1  0
  2  5  1  0
  6  7  1  0
  6  9  1  0
  6 10  1  0
  6 11  1  0
  7  8  1  0
  7 13  1  0
  8 14  1  0
  8 15  1  0
  8 16  1  0
M  RAD  1   7   2
M  END
>  <reaction>  (13) 
rxn_331

>  <mol_properties>  (13) 
{"0": {"label": "*1", "atom_type": "Cs"}, "1": {"label": "*0", "atom_type": "O2s"}, "5": {"label": "*4", "atom_type": "Cs"}, "6": {"label": "*3", "atom_type": "Cs"}, "11": {"label": "*2", "atom_type": "H0"}}

>  <type>  (13) 
unop_9

>  <geom_source>  (13) 
Heuristics

$$$$

     RDKit          3D

 16 14  0  0  0  0  0  0  0  0999 V2000
    0.9617   -1.1887    0.7880 C   0  0  0  0  0  0  0  0  0  0  0  0
    2.1013   -0.5237    0.2898 O   0  0  0  0  0  0  0  0  0  0  0  0
    1.1357   -2.2617    0.9278 H   0  0  0  0  0  0  0  0  0  0  0  0
    0.6137   -0.7621    1.7356 H   0  0  0  0  0  0  0  0  0  0  0  0
    2.8128   -0.6171    0.9229 H   0  0  0  0  0  0  0  0  0  0  0  0
   -1.1330    0.1199   -1.6072 C   0  0  0  0  0  0  0  0  0  0  0  0
   -1.1330    0.1199   -0.0839 C   0  0  0  0  0  3  0  0  0  0  0  0
   -1.1330    1.5257    0.5028 C   0  0  0  0  0  0  0  0  0  0  0  0
   -0.2516    0.6342   -1.9979 H   0  0  0  0  0  0  0  0  0  0  0  0
   -2.0145    0.6342   -1.9979 H   0  0  0  0  0  0  0  0  0  0  0  0
   -1.1330   -0.8950   -2.0084 H   0  0  0  0  0  0  0  0  0  0  0  0
   -0.0836   -0.5357    0.3529 H   0  0  0  0  0  0  0  0  0  0  0  0
   -2.0076   -0.4264    0.2801 H   0  0  0  0  0  0  0  0  0  0  0  0
   -2.0145    2.0843    0.1787 H   0  0  0  0  0  0  0  0  0  0  0  0
   -1.1330    1.5050    1.5939 H   0  0  0  0  0  0  0  0  0  0  0  0
   -0.2516    2.0843    0.1787 H   0  0  0  0  0  0  0  0  0  0  0  0
  1  2  1  0
  1  3  1  0
  1  4  1  0
  1 12  1  0
  2  5  1  0
  6  7  1  0
  6  9  1  0
  6 10  1  0
  6 11  1  0
  7  8  1  0
  7 13  1  0
  8 14  1  0
  8 15  1  0
  8 16  1  0
M  RAD  1   7   2
M  END
>  <reaction>  (14) 
rxn_331

>  <mol_properties>  (14) 
{"0": {"label": "*1", "atom_type": "Cs"}, "1": {"label": "*0", "atom_type": "O2s"}, "5": {"label": "*4", "atom_type": "Cs"}, "6": {"label": "*3", "atom_type": "Cs"}, "11": {"label": "*2", "atom_type": "H0"}}

>  <type>  (14) 
unop_10

>  <geom_source>  (14) 
Heuristics

$$$$

     RDKit          3D

 16 14  0  0  0  0  0  0  0  0999 V2000
    1.2818   -0.9216    0.4168 C   0  0  0  0  0  0  0  0  0  0  0  0
    0.9254   -1.4940    1.6556 O   0  0  0  0  0  0  0  0  0  0  0  0
    1.7398    0.0672    0.5332 H   0  0  0  0  0  0  0  0  0  0  0  0
    1.9645   -1.5610   -0.1544 H   0  0  0  0  0  0  0  0  0  0  0  0
    1.7172   -1.6067    2.1811 H   0  0  0  0  0  0  0  0  0  0  0  0
   -0.8130    0.3870   -1.9784 C   0  0  0  0  0  0  0  0  0  0  0  0
   -0.8130    0.3870   -0.4551 C   0  0  0  0  0  3  0  0  0  0  0  0
   -0.8130    1.7928    0.1316 C   0  0  0  0  0  0  0  0  0  0  0  0
    0.0685    0.9013   -2.3691 H   0  0  0  0  0  0  0  0  0  0  0  0
   -1.6944    0.9013   -2.3691 H   0  0  0  0  0  0  0  0  0  0  0  0
   -0.8130   -0.6279   -2.3796 H   0  0  0  0  0  0  0  0  0  0  0  0
    0.2365   -0.2686   -0.0183 H   0  0  0  0  0  0  0  0  0  0  0  0
   -1.6875   -0.1593   -0.0911 H   0  0  0  0  0  0  0  0  0  0  0  0
   -1.6944    2.3514   -0.1925 H   0  0  0  0  0  0  0  0  0  0  0  0
   -0.8130    1.7721    1.2227 H   0  0  0  0  0  0  0  0  0  0  0  0
    0.0685    2.3514   -0.1925 H   0  0  0  0  0  0  0  0  0  0  0  0
  1  2  1  0
  1  3  1  0
  1  4  1  0
  1 12  1  0
  2  5  1  0
  6  7  1  0
  6  9  1  0
  6 10  1  0
  6 11  1  0
  7  8  1  0
  7 13  1  0
  8 14  1  0
  8 15  1  0
  8 16  1  0
M  RAD  1   7   2
M  END
>  <reaction>  (15) 
rxn_331

>  <mol_properties>  (15) 
{"0": {"label": "*1", "atom_type": "Cs"}, "1": {"label": "*0", "atom_type": "O2s"}, "5": {"label": "*4", "atom_type": "Cs"}, "6": {"label": "*3", "atom_type": "Cs"}, "11": {"label": "*2", "atom_type": "H0"}}

>  <type>  (15) 
unop_11

>  <geom_source>  (15) 
Heuristics

$$$$

     RDKit          3D

 16 14  0  0  0  0  0  0  0  0999 V2000
    1.0523   -0.9389    0.9345 C   0  0  0  0  0  0  0  0  0  0  0  0
    1.7635   -1.3832   -0.1995 O   0  0  0  0  0  0  0  0  0  0  0  0
    0.7021   -1.7705    1.5565 H   0  0  0  0  0  0  0  0  0  0  0  0
    1.6461   -0.2596    1.5565 H   0  0  0  0  0  0  0  0  0  0  0  0
    2.5365   -1.8661    0.0923 H   0  0  0  0  0  0  0  0  0  0  0  0
   -1.0425    0.3697   -1.4608 C   0  0  0  0  0  0  0  0  0  0  0  0
   -1.0425    0.3697    0.0626 C   0  0  0  0  0  3  0  0  0  0  0  0
   -1.0425    1.7755    0.6493 C   0  0  0  0  0  0  0  0  0  0  0  0
   -0.1610    0.8840   -1.8514 H   0  0  0  0  0  0  0  0  0  0  0  0
   -1.9239    0.8840   -1.8514 H   0  0  0  0  0  0  0  0  0  0  0  0
   -1.0425   -0.6452   -1.8619 H   0  0  0  0  0  0  0  0  0  0  0  0
    0.0070   -0.2859    0.4994 H   0  0  0  0  0  0  0  0  0  0  0  0
   -1.9170   -0.1766    0.4266 H   0  0  0  0  0  0  0  0  0  0  0  0
   -1.9239    2.3341    0.3251 H   0  0  0  0  0  0  0  0  0  0  0  0
   -1.0425    1.7549    1.7404 H   0  0  0  0  0  0  0  0  0  0  0  0
   -0.1610    2.3341    0.3252 H   0  0  0  0  0  0  0  0  0  0  0  0
  1  2  1  0
  1  3  1  0
  1  4  1  0
  1 12  1  0
  2  5  1  0
  6  7  1  0
  6  9  1  0
  6 10  1  0
  6 11  1  0
  7  8  1  0
  7 13  1  0
  8 14  1  0
  8 15  1  0
  8 16  1  0
M  RAD  1   7   2
M  END
>  <reaction>  (16) 
rxn_331

>  <mol_properties>  (16) 
{"0": {"label": "*1", "atom_type": "Cs"}, "1": {"label": "*0", "atom_type": "O2s"}, "5": {"label": "*4", "atom_type": "Cs"}, "6": {"label": "*3", "atom_type": "Cs"}, "11": {"label": "*2", "atom_type": "H0"}}

>  <type>  (16) 
unop_12

>  <geom_source>  (16) 
Heuristics

$$$$

     RDKit          3D

 16 14  0  0  0  0  0  0  0  0999 V2000
    2.5449   -0.1292   -0.8236 O   0  0  0  0  0  0  0  0  0  0  0  0
   -1.2678   -0.0462   -1.0498 C   0  0  0  0  0  0  0  0  0  0  0  0
   -0.7070    0.9874    1.1804 C   0  0  0  0  0  0  0  0  0  0  0  0
    1.6071   -0.9215   -0.1568 C   0  0  0  0  0  3  0  0  0  0  0  0
   -0.8241   -0.3066    0.3844 C   0  0  0  0  0  0  0  0  0  0  0  0
   -0.5348    0.6109   -1.5636 H   0  0  0  0  0  0  0  0  0  0  0  0
   -1.3240   -1.0101   -1.5970 H   0  0  0  0  0  0  0  0  0  0  0  0
   -2.2695    0.4339   -1.0636 H   0  0  0  0  0  0  0  0  0  0  0  0
   -1.6917    1.4988    1.2342 H   0  0  0  0  0  0  0  0  0  0  0  0
   -0.3665    0.7546    2.2107 H   0  0  0  0  0  0  0  0  0  0  0  0
    0.0358    1.6626    0.7056 H   0  0  0  0  0  0  0  0  0  0  0  0
    1.9354   -1.0987    0.8899 H   0  0  0  0  0  0  0  0  0  0  0  0
    1.5179   -1.8977   -0.6763 H   0  0  0  0  0  0  0  0  0  0  0  0
    0.3998   -0.3104   -0.1582 H   0  0  0  0  0  0  0  0  0  0  0  0
   -1.5418   -0.9930    0.8830 H   0  0  0  0  0  0  0  0  0  0  0  0
    2.4864    0.7653   -0.3996 H   0  0  0  0  0  0  0  0  0  0  0  0
  1  4  1  0
  1 16  1  0
  2  5  1  0
  2  6  1  0
  2  7  1  0
  2  8  1  0
  3  5  1  0
  3  9  1  0
  3 10  1  0
  3 11  1  0
  4 12  1  0
  4 13  1  0
  5 14  1  0
  5 15  1  0
M  RAD  1   4   2
M  END
>  <reaction>  (17) 
rxn_331

>  <mol_properties>  (17) 
{"0": {"label": "*1", "atom_type": "Cs"}, "1": {"label": "*0", "atom_type": "O2s"}, "5": {"label": "*4", "atom_type": "Cs"}, "6": {"label": "*3", "atom_type": "Cs"}, "11": {"label": "*2", "atom_type": "H0"}}

>  <type>  (17) 
unop_13

>  <geom_source>  (17) 
AutoTST

$$$$
