
     RDKit          3D

 10  9  0  0  0  0  0  0  0  0999 V2000
    2.2738    0.0217   -0.0992 C   0  0  0  0  0  0  0  0  0  0  0  0
    1.1083    0.2960   -0.0695 C   0  0  0  0  0  0  0  0  0  0  0  0
   -0.3173    0.6046   -0.0227 C   0  0  0  0  0  0  0  0  0  0  0  0
   -1.1561   -0.5495    0.5292 C   0  0  0  0  0  0  0  0  0  0  0  0
    3.3097   -0.2166   -0.1277 H   0  0  0  0  0  0  0  0  0  0  0  0
   -0.6542    0.8617   -1.0302 H   0  0  0  0  0  0  0  0  0  0  0  0
   -0.4633    1.4978    0.5900 H   0  0  0  0  0  0  0  0  0  0  0  0
   -0.8485   -0.7997    1.5447 H   0  0  0  0  0  0  0  0  0  0  0  0
   -2.2115   -0.2752    0.5459 H   0  0  0  0  0  0  0  0  0  0  0  0
   -1.0409   -1.4407   -0.0879 H   0  0  0  0  0  0  0  0  0  0  0  0
  1  2  3  0
  1  5  1  0
  2  3  1  0
  3  4  1  0
  3  6  1  0
  3  7  1  0
  4  8  1  0
  4  9  1  0
  4 10  1  0
M  END
>  <reaction>  (1) 
rxn_60

>  <mol_properties>  (1) 
{"2": {"label": "donator", "atom_type": "Cs"}, "5": {"label": "d_hydrogen", "atom_type": "H0"}}

>  <type>  (1) 
r1h

$$$$

     RDKit          3D

  2  1  0  0  0  0  0  0  0  0999 V2000
    0.0000    0.0000    0.6715 S   0  0  0  0  0  1  0  0  0  0  0  0
    0.0000    0.0000   -0.6715 H   0  0  0  0  0  0  0  0  0  0  0  0
  1  2  1  0
M  RAD  1   1   2
M  END
>  <reaction>  (2) 
rxn_60

>  <mol_properties>  (2) 
{"0": {"label": "acceptor", "atom_type": "S2s"}}

>  <type>  (2) 
r2

$$$$

     RDKit          3D

  3  2  0  0  0  0  0  0  0  0999 V2000
   -0.0007    0.6157    0.0000 S   0  0  0  0  0  0  0  0  0  0  0  0
   -0.9686   -0.3090    0.0000 H   0  0  0  0  0  0  0  0  0  0  0  0
    0.9693   -0.3067    0.0000 H   0  0  0  0  0  0  0  0  0  0  0  0
  1  2  1  0
  1  3  1  0
M  END
>  <reaction>  (3) 
rxn_60

>  <mol_properties>  (3) 
{"0": {"label": "a_hydrogen", "atom_type": "H0"}, "1": {"label": "acceptor", "atom_type": "S2s"}}

>  <type>  (3) 
r2h

$$$$

     RDKit          3D

 12 10  0  0  0  0  0  0  0  0999 V2000
   -0.8158    0.2221   -2.5104 C   0  0  0  0  0  0  0  0  0  0  0  0
   -0.9277    0.2959   -1.3146 C   0  0  0  0  0  0  0  0  0  0  0  0
   -1.0030    0.3740    0.0980 C   0  0  0  0  0  0  0  0  0  0  0  0
   -0.8802    1.7297    0.7456 C   0  0  0  0  0  0  0  0  0  0  0  0
   -0.7322    0.1598   -3.5690 H   0  0  0  0  0  0  0  0  0  0  0  0
    0.1298   -0.2812    0.5505 H   0  0  0  0  0  0  0  0  0  0  0  0
   -1.7453   -0.2901    0.5369 H   0  0  0  0  0  0  0  0  0  0  0  0
   -1.7723    2.3273    0.5403 H   0  0  0  0  0  0  0  0  0  0  0  0
   -0.7780    1.6284    1.8260 H   0  0  0  0  0  0  0  0  0  0  0  0
   -0.0138    2.2657    0.3599 H   0  0  0  0  0  0  0  0  0  0  0  0
    1.4235   -0.9692    1.0511 S   0  0  0  0  0  1  0  0  0  0  0  0
    1.6687   -1.3597   -0.2071 H   0  0  0  0  0  0  0  0  0  0  0  0
  1  2  3  0
  1  5  1  0
  2  3  1  0
  3  4  1  0
  3  6  1  0
  3  7  1  0
  4  8  1  0
  4  9  1  0
  4 10  1  0
 11 12  1  0
M  RAD  1  11   2
M  END
>  <reaction>  (4) 
rxn_60

>  <mol_properties>  (4) 
{"1": {"label": "*0", "atom_type": "Ct"}, "2": {"label": "*1", "atom_type": "Cs"}, "5": {"label": "*2", "atom_type": "H0"}, "10": {"label": "*3", "atom_type": "S2s"}, "11": {"label": "*4", "atom_type": "H0"}}

>  <type>  (4) 
ts

$$$$

     RDKit          3D

 12 10  0  0  0  0  0  0  0  0999 V2000
   -0.8935    0.2751   -2.5313 C   0  0  0  0  0  0  0  0  0  0  0  0
   -0.8935    0.2751   -1.3336 C   0  0  0  0  0  0  0  0  0  0  0  0
   -0.8935    0.3033    0.1255 C   0  0  0  0  0  0  0  0  0  0  0  0
   -0.8934    1.7247    0.6911 C   0  0  0  0  0  0  0  0  0  0  0  0
   -0.8935    0.2751   -3.5946 H   0  0  0  0  0  0  0  0  0  0  0  0
    0.1571   -0.3508    0.5596 H   0  0  0  0  0  0  0  0  0  0  0  0
   -1.7690   -0.2418    0.4872 H   0  0  0  0  0  0  0  0  0  0  0  0
   -1.7757    2.2726    0.3597 H   0  0  0  0  0  0  0  0  0  0  0  0
   -0.8934    1.6974    1.7814 H   0  0  0  0  0  0  0  0  0  0  0  0
   -0.0112    2.2725    0.3597 H   0  0  0  0  0  0  0  0  0  0  0  0
    1.4439   -1.1520    1.0912 S   0  0  0  0  0  1  0  0  0  0  0  0
    1.9313   -0.0779    1.7243 H   0  0  0  0  0  0  0  0  0  0  0  0
  1  2  3  0
  1  5  1  0
  2  3  1  0
  3  4  1  0
  3  6  1  0
  3  7  1  0
  4  8  1  0
  4  9  1  0
  4 10  1  0
 11 12  1  0
M  RAD  1  11   2
M  END
>  <reaction>  (5) 
rxn_60

>  <mol_properties>  (5) 
{"1": {"label": "*0", "atom_type": "Ct"}, "2": {"label": "*1", "atom_type": "Cs"}, "5": {"label": "*2", "atom_type": "H0"}, "10": {"label": "*3", "atom_type": "S2s"}, "11": {"label": "*4", "atom_type": "H0"}}

>  <type>  (5) 
unop_1

>  <geom_source>  (5) 
Heuristics

$$$$

     RDKit          3D

 12 10  0  0  0  0  0  0  0  0999 V2000
   -0.8962    0.2839   -2.5115 C   0  0  0  0  0  0  0  0  0  0  0  0
   -0.8962    0.2839   -1.3138 C   0  0  0  0  0  0  0  0  0  0  0  0
   -0.8962    0.3121    0.1454 C   0  0  0  0  0  0  0  0  0  0  0  0
   -0.8962    1.7335    0.7110 C   0  0  0  0  0  0  0  0  0  0  0  0
   -0.8962    0.2839   -3.5748 H   0  0  0  0  0  0  0  0  0  0  0  0
    0.1544   -0.3420    0.5795 H   0  0  0  0  0  0  0  0  0  0  0  0
   -1.7717   -0.2330    0.5071 H   0  0  0  0  0  0  0  0  0  0  0  0
   -1.7784    2.2814    0.3795 H   0  0  0  0  0  0  0  0  0  0  0  0
   -0.8962    1.7062    1.8013 H   0  0  0  0  0  0  0  0  0  0  0  0
   -0.0139    2.2813    0.3795 H   0  0  0  0  0  0  0  0  0  0  0  0
    1.4412   -1.1432    1.1111 S   0  0  0  0  0  1  0  0  0  0  0  0
    2.1639   -0.8293    0.0289 H   0  0  0  0  0  0  0  0  0  0  0  0
  1  2  3  0
  1  5  1  0
  2  3  1  0
  3  4  1  0
  3  6  1  0
  3  7  1  0
  4  8  1  0
  4  9  1  0
  4 10  1  0
 11 12  1  0
M  RAD  1  11   2
M  END
>  <reaction>  (6) 
rxn_60

>  <mol_properties>  (6) 
{"1": {"label": "*0", "atom_type": "Ct"}, "2": {"label": "*1", "atom_type": "Cs"}, "5": {"label": "*2", "atom_type": "H0"}, "10": {"label": "*3", "atom_type": "S2s"}, "11": {"label": "*4", "atom_type": "H0"}}

>  <type>  (6) 
unop_2

>  <geom_source>  (6) 
Heuristics

$$$$

     RDKit          3D

 12 10  0  0  0  0  0  0  0  0999 V2000
   -0.8889    0.2788   -2.5368 C   0  0  0  0  0  0  0  0  0  0  0  0
   -0.8889    0.2788   -1.3391 C   0  0  0  0  0  0  0  0  0  0  0  0
   -0.8889    0.3070    0.1201 C   0  0  0  0  0  0  0  0  0  0  0  0
   -0.8889    1.7284    0.6857 C   0  0  0  0  0  0  0  0  0  0  0  0
   -0.8889    0.2788   -3.6001 H   0  0  0  0  0  0  0  0  0  0  0  0
    0.1617   -0.3471    0.5541 H   0  0  0  0  0  0  0  0  0  0  0  0
   -1.7644   -0.2380    0.4818 H   0  0  0  0  0  0  0  0  0  0  0  0
   -1.7711    2.2763    0.3542 H   0  0  0  0  0  0  0  0  0  0  0  0
   -0.8889    1.7011    1.7760 H   0  0  0  0  0  0  0  0  0  0  0  0
   -0.0066    2.2763    0.3542 H   0  0  0  0  0  0  0  0  0  0  0  0
    1.4485   -1.1482    1.0858 S   0  0  0  0  0  1  0  0  0  0  0  0
    1.5418   -0.3953    2.1886 H   0  0  0  0  0  0  0  0  0  0  0  0
  1  2  3  0
  1  5  1  0
  2  3  1  0
  3  4  1  0
  3  6  1  0
  3  7  1  0
  4  8  1  0
  4  9  1  0
  4 10  1  0
 11 12  1  0
M  RAD  1  11   2
M  END
>  <reaction>  (7) 
rxn_60

>  <mol_properties>  (7) 
{"1": {"label": "*0", "atom_type": "Ct"}, "2": {"label": "*1", "atom_type": "Cs"}, "5": {"label": "*2", "atom_type": "H0"}, "10": {"label": "*3", "atom_type": "S2s"}, "11": {"label": "*4", "atom_type": "H0"}}

>  <type>  (7) 
unop_3

>  <geom_source>  (7) 
Heuristics

$$$$

     RDKit          3D

 12 10  0  0  0  0  0  0  0  0999 V2000
   -0.8834    0.3007   -2.5172 C   0  0  0  0  0  0  0  0  0  0  0  0
   -0.8834    0.3007   -1.3194 C   0  0  0  0  0  0  0  0  0  0  0  0
   -0.8834    0.3289    0.1397 C   0  0  0  0  0  0  0  0  0  0  0  0
   -0.8833    1.7503    0.7053 C   0  0  0  0  0  0  0  0  0  0  0  0
   -0.8834    0.3007   -3.5805 H   0  0  0  0  0  0  0  0  0  0  0  0
    0.1672   -0.3252    0.5738 H   0  0  0  0  0  0  0  0  0  0  0  0
   -1.7589   -0.2161    0.5014 H   0  0  0  0  0  0  0  0  0  0  0  0
   -1.7656    2.2982    0.3738 H   0  0  0  0  0  0  0  0  0  0  0  0
   -0.8833    1.7230    1.7956 H   0  0  0  0  0  0  0  0  0  0  0  0
   -0.0011    2.2982    0.3738 H   0  0  0  0  0  0  0  0  0  0  0  0
    1.4540   -1.1263    1.1054 S   0  0  0  0  0  1  0  0  0  0  0  0
    1.0696   -2.2645    0.5148 H   0  0  0  0  0  0  0  0  0  0  0  0
  1  2  3  0
  1  5  1  0
  2  3  1  0
  3  4  1  0
  3  6  1  0
  3  7  1  0
  4  8  1  0
  4  9  1  0
  4 10  1  0
 11 12  1  0
M  RAD  1  11   2
M  END
>  <reaction>  (8) 
rxn_60

>  <mol_properties>  (8) 
{"1": {"label": "*0", "atom_type": "Ct"}, "2": {"label": "*1", "atom_type": "Cs"}, "5": {"label": "*2", "atom_type": "H0"}, "10": {"label": "*3", "atom_type": "S2s"}, "11": {"label": "*4", "atom_type": "H0"}}

>  <type>  (8) 
unop_4

>  <geom_source>  (8) 
Heuristics

$$$$

     RDKit          3D

 12 10  0  0  0  0  0  0  0  0999 V2000
   -0.8842    0.2850   -2.5388 C   0  0  0  0  0  0  0  0  0  0  0  0
   -0.8842    0.2850   -1.3411 C   0  0  0  0  0  0  0  0  0  0  0  0
   -0.8842    0.3132    0.1180 C   0  0  0  0  0  0  0  0  0  0  0  0
   -0.8842    1.7346    0.6836 C   0  0  0  0  0  0  0  0  0  0  0  0
   -0.8842    0.2850   -3.6022 H   0  0  0  0  0  0  0  0  0  0  0  0
    0.1664   -0.3409    0.5521 H   0  0  0  0  0  0  0  0  0  0  0  0
   -1.7597   -0.2319    0.4797 H   0  0  0  0  0  0  0  0  0  0  0  0
   -1.7664    2.2824    0.3522 H   0  0  0  0  0  0  0  0  0  0  0  0
   -0.8842    1.7073    1.7739 H   0  0  0  0  0  0  0  0  0  0  0  0
   -0.0019    2.2824    0.3522 H   0  0  0  0  0  0  0  0  0  0  0  0
    1.4532   -1.1421    1.0837 S   0  0  0  0  0  1  0  0  0  0  0  0
    1.1413   -0.9206    2.3665 H   0  0  0  0  0  0  0  0  0  0  0  0
  1  2  3  0
  1  5  1  0
  2  3  1  0
  3  4  1  0
  3  6  1  0
  3  7  1  0
  4  8  1  0
  4  9  1  0
  4 10  1  0
 11 12  1  0
M  RAD  1  11   2
M  END
>  <reaction>  (9) 
rxn_60

>  <mol_properties>  (9) 
{"1": {"label": "*0", "atom_type": "Ct"}, "2": {"label": "*1", "atom_type": "Cs"}, "5": {"label": "*2", "atom_type": "H0"}, "10": {"label": "*3", "atom_type": "S2s"}, "11": {"label": "*4", "atom_type": "H0"}}

>  <type>  (9) 
unop_5

>  <geom_source>  (9) 
Heuristics

$$$$

     RDKit          3D

 12 10  0  0  0  0  0  0  0  0999 V2000
   -0.8802    0.3010   -2.5245 C   0  0  0  0  0  0  0  0  0  0  0  0
   -0.8802    0.3010   -1.3268 C   0  0  0  0  0  0  0  0  0  0  0  0
   -0.8802    0.3292    0.1324 C   0  0  0  0  0  0  0  0  0  0  0  0
   -0.8801    1.7506    0.6980 C   0  0  0  0  0  0  0  0  0  0  0  0
   -0.8802    0.3010   -3.5878 H   0  0  0  0  0  0  0  0  0  0  0  0
    0.1704   -0.3249    0.5664 H   0  0  0  0  0  0  0  0  0  0  0  0
   -1.7557   -0.2159    0.4941 H   0  0  0  0  0  0  0  0  0  0  0  0
   -1.7624    2.2985    0.3665 H   0  0  0  0  0  0  0  0  0  0  0  0
   -0.8801    1.7233    1.7882 H   0  0  0  0  0  0  0  0  0  0  0  0
    0.0021    2.2984    0.3665 H   0  0  0  0  0  0  0  0  0  0  0  0
    1.4572   -1.1261    1.0981 S   0  0  0  0  0  1  0  0  0  0  0  0
    0.7956   -2.2889    1.1412 H   0  0  0  0  0  0  0  0  0  0  0  0
  1  2  3  0
  1  5  1  0
  2  3  1  0
  3  4  1  0
  3  6  1  0
  3  7  1  0
  4  8  1  0
  4  9  1  0
  4 10  1  0
 11 12  1  0
M  RAD  1  11   2
M  END
>  <reaction>  (10) 
rxn_60

>  <mol_properties>  (10) 
{"1": {"label": "*0", "atom_type": "Ct"}, "2": {"label": "*1", "atom_type": "Cs"}, "5": {"label": "*2", "atom_type": "H0"}, "10": {"label": "*3", "atom_type": "S2s"}, "11": {"label": "*4", "atom_type": "H0"}}

>  <type>  (10) 
unop_6

>  <geom_source>  (10) 
Heuristics

$$$$

     RDKit          3D

 12 10  0  0  0  0  0  0  0  0999 V2000
   -0.8792    0.2978   -2.5318 C   0  0  0  0  0  0  0  0  0  0  0  0
   -0.8792    0.2978   -1.3341 C   0  0  0  0  0  0  0  0  0  0  0  0
   -0.8792    0.3260    0.1251 C   0  0  0  0  0  0  0  0  0  0  0  0
   -0.8791    1.7474    0.6907 C   0  0  0  0  0  0  0  0  0  0  0  0
   -0.8792    0.2978   -3.5951 H   0  0  0  0  0  0  0  0  0  0  0  0
    0.1714   -0.3281    0.5591 H   0  0  0  0  0  0  0  0  0  0  0  0
   -1.7547   -0.2191    0.4868 H   0  0  0  0  0  0  0  0  0  0  0  0
   -1.7614    2.2952    0.3592 H   0  0  0  0  0  0  0  0  0  0  0  0
   -0.8791    1.7201    1.7810 H   0  0  0  0  0  0  0  0  0  0  0  0
    0.0031    2.2952    0.3592 H   0  0  0  0  0  0  0  0  0  0  0  0
    1.4582   -1.1293    1.0908 S   0  0  0  0  0  1  0  0  0  0  0  0
    0.7105   -2.0139    1.7618 H   0  0  0  0  0  0  0  0  0  0  0  0
  1  2  3  0
  1  5  1  0
  2  3  1  0
  3  4  1  0
  3  6  1  0
  3  7  1  0
  4  8  1  0
  4  9  1  0
  4 10  1  0
 11 12  1  0
M  RAD  1  11   2
M  END
>  <reaction>  (11) 
rxn_60

>  <mol_properties>  (11) 
{"1": {"label": "*0", "atom_type": "Ct"}, "2": {"label": "*1", "atom_type": "Cs"}, "5": {"label": "*2", "atom_type": "H0"}, "10": {"label": "*3", "atom_type": "S2s"}, "11": {"label": "*4", "atom_type": "H0"}}

>  <type>  (11) 
unop_7

>  <geom_source>  (11) 
Heuristics

$$$$

     RDKit          3D

 12 10  0  0  0  0  0  0  0  0999 V2000
   -0.8967    0.2748   -2.5240 C   0  0  0  0  0  0  0  0  0  0  0  0
   -0.8967    0.2748   -1.3263 C   0  0  0  0  0  0  0  0  0  0  0  0
   -0.8967    0.3030    0.1329 C   0  0  0  0  0  0  0  0  0  0  0  0
   -0.8966    1.7244    0.6985 C   0  0  0  0  0  0  0  0  0  0  0  0
   -0.8967    0.2748   -3.5873 H   0  0  0  0  0  0  0  0  0  0  0  0
    0.1539   -0.3511    0.5669 H   0  0  0  0  0  0  0  0  0  0  0  0
   -1.7722   -0.2420    0.4946 H   0  0  0  0  0  0  0  0  0  0  0  0
   -1.7789    2.2723    0.3670 H   0  0  0  0  0  0  0  0  0  0  0  0
   -0.8967    1.6971    1.7888 H   0  0  0  0  0  0  0  0  0  0  0  0
   -0.0144    2.2722    0.3670 H   0  0  0  0  0  0  0  0  0  0  0  0
    1.4407   -1.1523    1.0986 S   0  0  0  0  0  1  0  0  0  0  0  0
    2.2053   -0.0535    1.0980 H   0  0  0  0  0  0  0  0  0  0  0  0
  1  2  3  0
  1  5  1  0
  2  3  1  0
  3  4  1  0
  3  6  1  0
  3  7  1  0
  4  8  1  0
  4  9  1  0
  4 10  1  0
 11 12  1  0
M  RAD  1  11   2
M  END
>  <reaction>  (12) 
rxn_60

>  <mol_properties>  (12) 
{"1": {"label": "*0", "atom_type": "Ct"}, "2": {"label": "*1", "atom_type": "Cs"}, "5": {"label": "*2", "atom_type": "H0"}, "10": {"label": "*3", "atom_type": "S2s"}, "11": {"label": "*4", "atom_type": "H0"}}

>  <type>  (12) 
unop_8

>  <geom_source>  (12) 
Heuristics

$$$$

     RDKit          3D

 12 10  0  0  0  0  0  0  0  0999 V2000
   -0.8879    0.2970   -2.5117 C   0  0  0  0  0  0  0  0  0  0  0  0
   -0.8879    0.2970   -1.3140 C   0  0  0  0  0  0  0  0  0  0  0  0
   -0.8879    0.3252    0.1451 C   0  0  0  0  0  0  0  0  0  0  0  0
   -0.8879    1.7466    0.7108 C   0  0  0  0  0  0  0  0  0  0  0  0
   -0.8879    0.2970   -3.5750 H   0  0  0  0  0  0  0  0  0  0  0  0
    0.1627   -0.3289    0.5792 H   0  0  0  0  0  0  0  0  0  0  0  0
   -1.7634   -0.2199    0.5069 H   0  0  0  0  0  0  0  0  0  0  0  0
   -1.7701    2.2945    0.3793 H   0  0  0  0  0  0  0  0  0  0  0  0
   -0.8879    1.7193    1.8010 H   0  0  0  0  0  0  0  0  0  0  0  0
   -0.0057    2.2944    0.3793 H   0  0  0  0  0  0  0  0  0  0  0  0
    1.4495   -1.1301    1.1108 S   0  0  0  0  0  1  0  0  0  0  0  0
    1.4590   -1.9471    0.0505 H   0  0  0  0  0  0  0  0  0  0  0  0
  1  2  3  0
  1  5  1  0
  2  3  1  0
  3  4  1  0
  3  6  1  0
  3  7  1  0
  4  8  1  0
  4  9  1  0
  4 10  1  0
 11 12  1  0
M  RAD  1  11   2
M  END
>  <reaction>  (13) 
rxn_60

>  <mol_properties>  (13) 
{"1": {"label": "*0", "atom_type": "Ct"}, "2": {"label": "*1", "atom_type": "Cs"}, "5": {"label": "*2", "atom_type": "H0"}, "10": {"label": "*3", "atom_type": "S2s"}, "11": {"label": "*4", "atom_type": "H0"}}

>  <type>  (13) 
unop_9

>  <geom_source>  (13) 
Heuristics

$$$$

     RDKit          3D

 12 10  0  0  0  0  0  0  0  0999 V2000
   -0.8977    0.2780   -2.5167 C   0  0  0  0  0  0  0  0  0  0  0  0
   -0.8977    0.2780   -1.3190 C   0  0  0  0  0  0  0  0  0  0  0  0
   -0.8977    0.3062    0.1401 C   0  0  0  0  0  0  0  0  0  0  0  0
   -0.8976    1.7276    0.7057 C   0  0  0  0  0  0  0  0  0  0  0  0
   -0.8977    0.2780   -3.5800 H   0  0  0  0  0  0  0  0  0  0  0  0
    0.1529   -0.3479    0.5742 H   0  0  0  0  0  0  0  0  0  0  0  0
   -1.7732   -0.2388    0.5019 H   0  0  0  0  0  0  0  0  0  0  0  0
   -1.7799    2.2755    0.3743 H   0  0  0  0  0  0  0  0  0  0  0  0
   -0.8976    1.7003    1.7960 H   0  0  0  0  0  0  0  0  0  0  0  0
   -0.0154    2.2755    0.3743 H   0  0  0  0  0  0  0  0  0  0  0  0
    1.4397   -1.1490    1.1058 S   0  0  0  0  0  1  0  0  0  0  0  0
    2.2904   -0.3285    0.4774 H   0  0  0  0  0  0  0  0  0  0  0  0
  1  2  3  0
  1  5  1  0
  2  3  1  0
  3  4  1  0
  3  6  1  0
  3  7  1  0
  4  8  1  0
  4  9  1  0
  4 10  1  0
 11 12  1  0
M  RAD  1  11   2
M  END
>  <reaction>  (14) 
rxn_60

>  <mol_properties>  (14) 
{"1": {"label": "*0", "atom_type": "Ct"}, "2": {"label": "*1", "atom_type": "Cs"}, "5": {"label": "*2", "atom_type": "H0"}, "10": {"label": "*3", "atom_type": "S2s"}, "11": {"label": "*4", "atom_type": "H0"}}

>  <type>  (14) 
unop_10

>  <geom_source>  (14) 
Heuristics

$$$$

     RDKit          3D

 12 10  0  0  0  0  0  0  0  0999 V2000
   -0.8806    0.2919   -2.5370 C   0  0  0  0  0  0  0  0  0  0  0  0
   -0.8806    0.2919   -1.3393 C   0  0  0  0  0  0  0  0  0  0  0  0
   -0.8806    0.3201    0.1198 C   0  0  0  0  0  0  0  0  0  0  0  0
   -0.8806    1.7415    0.6854 C   0  0  0  0  0  0  0  0  0  0  0  0
   -0.8806    0.2919   -3.6003 H   0  0  0  0  0  0  0  0  0  0  0  0
    0.1700   -0.3340    0.5539 H   0  0  0  0  0  0  0  0  0  0  0  0
   -1.7561   -0.2249    0.4816 H   0  0  0  0  0  0  0  0  0  0  0  0
   -1.7628    2.2894    0.3540 H   0  0  0  0  0  0  0  0  0  0  0  0
   -0.8806    1.7142    1.7757 H   0  0  0  0  0  0  0  0  0  0  0  0
    0.0016    2.2893    0.3540 H   0  0  0  0  0  0  0  0  0  0  0  0
    1.4568   -1.1352    1.0855 S   0  0  0  0  0  1  0  0  0  0  0  0
    0.8370   -1.5130    2.2103 H   0  0  0  0  0  0  0  0  0  0  0  0
  1  2  3  0
  1  5  1  0
  2  3  1  0
  3  4  1  0
  3  6  1  0
  3  7  1  0
  4  8  1  0
  4  9  1  0
  4 10  1  0
 11 12  1  0
M  RAD  1  11   2
M  END
>  <reaction>  (15) 
rxn_60

>  <mol_properties>  (15) 
{"1": {"label": "*0", "atom_type": "Ct"}, "2": {"label": "*1", "atom_type": "Cs"}, "5": {"label": "*2", "atom_type": "H0"}, "10": {"label": "*3", "atom_type": "S2s"}, "11": {"label": "*4", "atom_type": "H0"}}

>  <type>  (15) 
unop_11

>  <geom_source>  (15) 
Heuristics

$$$$

     RDKit          3D

 12 10  0  0  0  0  0  0  0  0999 V2000
   -0.8926    0.2908   -2.5096 C   0  0  0  0  0  0  0  0  0  0  0  0
   -0.8926    0.2908   -1.3119 C   0  0  0  0  0  0  0  0  0  0  0  0
   -0.8926    0.3191    0.1472 C   0  0  0  0  0  0  0  0  0  0  0  0
   -0.8926    1.7404    0.7128 C   0  0  0  0  0  0  0  0  0  0  0  0
   -0.8926    0.2908   -3.5729 H   0  0  0  0  0  0  0  0  0  0  0  0
    0.1580   -0.3351    0.5813 H   0  0  0  0  0  0  0  0  0  0  0  0
   -1.7681   -0.2260    0.5089 H   0  0  0  0  0  0  0  0  0  0  0  0
   -1.7748    2.2883    0.3814 H   0  0  0  0  0  0  0  0  0  0  0  0
   -0.8926    1.7131    1.8031 H   0  0  0  0  0  0  0  0  0  0  0  0
   -0.0104    2.2883    0.3814 H   0  0  0  0  0  0  0  0  0  0  0  0
    1.4448   -1.1362    1.1129 S   0  0  0  0  0  1  0  0  0  0  0  0
    1.8596   -1.4218   -0.1274 H   0  0  0  0  0  0  0  0  0  0  0  0
  1  2  3  0
  1  5  1  0
  2  3  1  0
  3  4  1  0
  3  6  1  0
  3  7  1  0
  4  8  1  0
  4  9  1  0
  4 10  1  0
 11 12  1  0
M  RAD  1  11   2
M  END
>  <reaction>  (16) 
rxn_60

>  <mol_properties>  (16) 
{"1": {"label": "*0", "atom_type": "Ct"}, "2": {"label": "*1", "atom_type": "Cs"}, "5": {"label": "*2", "atom_type": "H0"}, "10": {"label": "*3", "atom_type": "S2s"}, "11": {"label": "*4", "atom_type": "H0"}}

>  <type>  (16) 
unop_12

>  <geom_source>  (16) 
Heuristics

$$$$
