
     RDKit          3D

 12 11  0  0  0  0  0  0  0  0999 V2000
    0.2765    1.4875   -0.3235 C   0  0  0  0  0  0  0  0  0  0  0  0
    0.0387    0.2116   -0.0470 C   0  0  0  0  0  0  0  0  0  0  0  0
    1.1382   -0.7557    0.2806 C   0  0  0  0  0  0  0  0  0  0  0  0
   -1.3481   -0.3618   -0.0405 C   0  0  0  0  0  0  0  0  0  0  0  0
    1.2833    1.8882   -0.3245 H   0  0  0  0  0  0  0  0  0  0  0  0
   -0.5275    2.1750   -0.5584 H   0  0  0  0  0  0  0  0  0  0  0  0
    0.9863   -1.1895    1.2731 H   0  0  0  0  0  0  0  0  0  0  0  0
    1.1431   -1.5878   -0.4293 H   0  0  0  0  0  0  0  0  0  0  0  0
    2.1177   -0.2788    0.2593 H   0  0  0  0  0  0  0  0  0  0  0  0
   -1.4296   -1.1802   -0.7616 H   0  0  0  0  0  0  0  0  0  0  0  0
   -1.5864   -0.7819    0.9408 H   0  0  0  0  0  0  0  0  0  0  0  0
   -2.0987    0.3891   -0.2854 H   0  0  0  0  0  0  0  0  0  0  0  0
  1  2  2  3
  1  5  1  0
  1  6  1  0
  2  3  1  0
  2  4  1  0
  3  7  1  0
  3  8  1  0
  3  9  1  0
  4 10  1  0
  4 11  1  0
  4 12  1  0
M  END
>  <reaction>  (1) 
rxn_410

>  <mol_properties>  (1) 
{"2": {"label": "donator", "atom_type": "Cs"}, "6": {"label": "d_hydrogen", "atom_type": "H0"}}

>  <type>  (1) 
r1h

$$$$

     RDKit          3D

 14 13  0  0  0  0  0  0  0  0999 V2000
   -1.1038   -1.2820   -0.0831 C   0  0  0  0  0  0  0  0  0  0  0  0
   -0.3738   -0.0303    0.3958 C   0  0  0  0  0  0  0  0  0  0  0  0
    1.0799   -0.0135   -0.1022 C   0  0  0  0  0  0  0  0  0  0  0  0
   -0.4539    0.0783    1.8774 C   0  0  0  0  0  3  0  0  0  0  0  0
   -0.0196    1.2652    2.3945 O   0  0  0  0  0  0  0  0  0  0  0  0
   -0.6387   -2.1819    0.3292 H   0  0  0  0  0  0  0  0  0  0  0  0
   -1.0649   -1.3593   -1.1709 H   0  0  0  0  0  0  0  0  0  0  0  0
   -2.1510   -1.2728    0.2226 H   0  0  0  0  0  0  0  0  0  0  0  0
   -0.8759    0.8495   -0.0235 H   0  0  0  0  0  0  0  0  0  0  0  0
    1.1145   -0.0235   -1.1941 H   0  0  0  0  0  0  0  0  0  0  0  0
    1.6194   -0.8920    0.2618 H   0  0  0  0  0  0  0  0  0  0  0  0
    1.6007    0.8771    0.2500 H   0  0  0  0  0  0  0  0  0  0  0  0
   -0.3212   -0.8061    2.4983 H   0  0  0  0  0  0  0  0  0  0  0  0
   -0.0217    1.2207    3.3511 H   0  0  0  0  0  0  0  0  0  0  0  0
  1  2  1  0
  1  6  1  0
  1  7  1  0
  1  8  1  0
  2  3  1  0
  2  4  1  0
  2  9  1  0
  3 10  1  0
  3 11  1  0
  3 12  1  0
  4  5  1  0
  4 13  1  0
  5 14  1  0
M  RAD  1   4   2
M  END
>  <reaction>  (2) 
rxn_410

>  <mol_properties>  (2) 
{"3": {"label": "acceptor", "atom_type": "Cs"}}

>  <type>  (2) 
r2

$$$$

     RDKit          3D

 15 14  0  0  0  0  0  0  0  0999 V2000
   -0.6986    1.3249   -0.1641 C   0  0  0  0  0  0  0  0  0  0  0  0
   -0.2590   -0.0344    0.3671 C   0  0  0  0  0  0  0  0  0  0  0  0
   -0.4734   -0.1429    1.8733 C   0  0  0  0  0  0  0  0  0  0  0  0
   -0.9841   -1.1722   -0.3462 C   0  0  0  0  0  0  0  0  0  0  0  0
   -0.7805   -1.1911   -1.7444 O   0  0  0  0  0  0  0  0  0  0  0  0
   -0.1246    2.1306    0.2976 H   0  0  0  0  0  0  0  0  0  0  0  0
   -1.7557    1.4964    0.0581 H   0  0  0  0  0  0  0  0  0  0  0  0
   -0.5709    1.3852   -1.2449 H   0  0  0  0  0  0  0  0  0  0  0  0
    0.8141   -0.1541    0.1667 H   0  0  0  0  0  0  0  0  0  0  0  0
   -1.5346   -0.0466    2.1192 H   0  0  0  0  0  0  0  0  0  0  0  0
    0.0611    0.6480    2.4019 H   0  0  0  0  0  0  0  0  0  0  0  0
   -0.1249   -1.1023    2.2618 H   0  0  0  0  0  0  0  0  0  0  0  0
   -0.6918   -2.1316    0.1011 H   0  0  0  0  0  0  0  0  0  0  0  0
   -2.0629   -1.0627   -0.2056 H   0  0  0  0  0  0  0  0  0  0  0  0
    0.1528   -1.3298   -1.9125 H   0  0  0  0  0  0  0  0  0  0  0  0
  1  2  1  0
  1  6  1  0
  1  7  1  0
  1  8  1  0
  2  3  1  0
  2  4  1  0
  2  9  1  0
  3 10  1  0
  3 11  1  0
  3 12  1  0
  4  5  1  0
  4 13  1  0
  4 14  1  0
  5 15  1  0
M  END
>  <reaction>  (3) 
rxn_410

>  <mol_properties>  (3) 
{"3": {"label": "acceptor", "atom_type": "Cs"}, "14": {"label": "a_hydrogen", "atom_type": "H0"}}

>  <type>  (3) 
r2h

$$$$

     RDKit          3D

 26 24  0  0  0  0  0  0  0  0999 V2000
   -0.0363    0.1363    2.3624 C   0  0  0  0  0  0  0  0  0  0  0  0
   -0.7587    1.2490    1.6070 C   0  0  0  0  0  0  0  0  0  0  0  0
   -0.0143    2.5759    1.7168 C   0  0  0  0  0  0  0  0  0  0  0  0
   -0.9607    0.8954    0.1578 C   0  0  0  0  0  3  0  0  0  0  0  0
   -1.6416   -0.2933   -0.0121 O   0  0  0  0  0  0  0  0  0  0  0  0
    0.0506    0.3841    3.4218 H   0  0  0  0  0  0  0  0  0  0  0  0
    0.9729   -0.0039    1.9658 H   0  0  0  0  0  0  0  0  0  0  0  0
   -0.5711   -0.8089    2.2734 H   0  0  0  0  0  0  0  0  0  0  0  0
   -1.7538    1.3716    2.0561 H   0  0  0  0  0  0  0  0  0  0  0  0
    0.9847    2.4953    1.2804 H   0  0  0  0  0  0  0  0  0  0  0  0
    0.1004    2.8694    2.7612 H   0  0  0  0  0  0  0  0  0  0  0  0
   -0.5448    3.3775    1.1988 H   0  0  0  0  0  0  0  0  0  0  0  0
   -1.3495    1.7160   -0.4560 H   0  0  0  0  0  0  0  0  0  0  0  0
   -1.5672   -0.5687   -0.9321 H   0  0  0  0  0  0  0  0  0  0  0  0
    0.2332   -1.1674   -2.8035 C   0  0  0  0  0  0  0  0  0  0  0  0
    0.8880   -1.0412   -1.6381 C   0  0  0  0  0  0  0  0  0  0  0  0
    1.3190    0.2568   -1.1279 C   0  0  0  0  0  0  0  0  0  0  0  0
    1.1251   -2.2190   -0.7355 C   0  0  0  0  0  0  0  0  0  0  0  0
    0.0711   -0.3145   -3.4527 H   0  0  0  0  0  0  0  0  0  0  0  0
   -0.1216   -2.1297   -3.1514 H   0  0  0  0  0  0  0  0  0  0  0  0
    0.2816    0.6805   -0.3972 H   0  0  0  0  0  0  0  0  0  0  0  0
    2.1427    0.2359   -0.4177 H   0  0  0  0  0  0  0  0  0  0  0  0
    1.4192    1.0476   -1.8674 H   0  0  0  0  0  0  0  0  0  0  0  0
    2.1955   -2.3625   -0.5679 H   0  0  0  0  0  0  0  0  0  0  0  0
    0.6644   -2.0426    0.2398 H   0  0  0  0  0  0  0  0  0  0  0  0
    0.7138   -3.1383   -1.1514 H   0  0  0  0  0  0  0  0  0  0  0  0
  1  2  1  0
  1  6  1  0
  1  7  1  0
  1  8  1  0
  2  3  1  0
  2  4  1  0
  2  9  1  0
  3 10  1  0
  3 11  1  0
  3 12  1  0
  4  5  1  0
  4 13  1  0
  5 14  1  0
 15 16  2  3
 15 19  1  0
 15 20  1  0
 16 17  1  0
 16 18  1  0
 17 21  1  0
 17 22  1  0
 17 23  1  0
 18 24  1  0
 18 25  1  0
 18 26  1  0
M  RAD  1   4   2
M  END
>  <reaction>  (4) 
rxn_410

>  <mol_properties>  (4) 
{"1": {"label": "*4", "atom_type": "Cs"}, "3": {"label": "*3", "atom_type": "Cs"}, "15": {"label": "*0", "atom_type": "Cd"}, "16": {"label": "*1", "atom_type": "Cs"}, "20": {"label": "*2", "atom_type": "H0"}}

>  <type>  (4) 
ts

$$$$

     RDKit          3D

 26 24  0  0  0  0  0  0  0  0999 V2000
   -0.6300   -0.5697    2.5537 C   0  0  0  0  0  0  0  0  0  0  0  0
   -0.5977    0.7956    1.8772 C   0  0  0  0  0  0  0  0  0  0  0  0
    0.7882    1.4274    1.9571 C   0  0  0  0  0  0  0  0  0  0  0  0
   -1.0469    0.7065    0.4213 C   0  0  0  0  0  0  0  0  0  0  0  0
   -2.3546    0.1967    0.2576 O   0  0  0  0  0  0  0  0  0  0  0  0
   -0.3782   -0.4885    3.6129 H   0  0  0  0  0  0  0  0  0  0  0  0
    0.0954   -1.2427    2.0875 H   0  0  0  0  0  0  0  0  0  0  0  0
   -1.6147   -1.0289    2.4669 H   0  0  0  0  0  0  0  0  0  0  0  0
   -1.3035    1.4568    2.3972 H   0  0  0  0  0  0  0  0  0  0  0  0
    1.5241    0.8095    1.4351 H   0  0  0  0  0  0  0  0  0  0  0  0
    1.1142    1.5239    2.9940 H   0  0  0  0  0  0  0  0  0  0  0  0
    0.8045    2.4217    1.5055 H   0  0  0  0  0  0  0  0  0  0  0  0
   -0.9531    1.6925   -0.0530 H   0  0  0  0  0  0  0  0  0  0  0  0
   -2.9688    0.7960    0.6846 H   0  0  0  0  0  0  0  0  0  0  0  0
    1.0592   -0.6682   -3.2695 C   0  0  0  0  0  0  0  0  0  0  0  0
    1.0592   -0.6682   -1.9425 C   0  0  0  0  0  0  0  0  0  0  0  0
    1.0592    0.6007   -1.1412 C   0  0  0  0  0  3  0  0  0  0  0  0
    1.0592   -1.9370   -1.1412 C   0  0  0  0  0  0  0  0  0  0  0  0
    1.0592    0.2560   -3.8354 H   0  0  0  0  0  0  0  0  0  0  0  0
    1.0592   -1.5923   -3.8354 H   0  0  0  0  0  0  0  0  0  0  0  0
    0.0060    0.6536   -0.3598 H   0  0  0  0  0  0  0  0  0  0  0  0
    1.9370    0.6448   -0.4901 H   0  0  0  0  0  0  0  0  0  0  0  0
    1.0592    1.4836   -1.7797 H   0  0  0  0  0  0  0  0  0  0  0  0
    1.9370   -1.9811   -0.4901 H   0  0  0  0  0  0  0  0  0  0  0  0
    0.1815   -1.9811   -0.4901 H   0  0  0  0  0  0  0  0  0  0  0  0
    1.0592   -2.8199   -1.7797 H   0  0  0  0  0  0  0  0  0  0  0  0
  1  2  1  0
  1  6  1  0
  1  7  1  0
  1  8  1  0
  2  3  1  0
  2  4  1  0
  2  9  1  0
  3 10  1  0
  3 11  1  0
  3 12  1  0
  4  5  1  0
  4 13  1  0
  4 21  1  0
  5 14  1  0
 15 16  2  3
 15 19  1  0
 15 20  1  0
 16 17  1  0
 16 18  1  0
 17 22  1  0
 17 23  1  0
 18 24  1  0
 18 25  1  0
 18 26  1  0
M  RAD  1  17   2
M  END
>  <reaction>  (5) 
rxn_410

>  <mol_properties>  (5) 
{"1": {"label": "*4", "atom_type": "Cs"}, "3": {"label": "*3", "atom_type": "Cs"}, "15": {"label": "*0", "atom_type": "Cd"}, "16": {"label": "*1", "atom_type": "Cs"}, "20": {"label": "*2", "atom_type": "H0"}}

>  <type>  (5) 
unop_1

>  <geom_source>  (5) 
Heuristics

$$$$

     RDKit          3D

 26 24  0  0  0  0  0  0  0  0999 V2000
   -1.8408   -0.9765    0.2214 C   0  0  0  0  0  0  0  0  0  0  0  0
   -1.1008   -0.2783    1.3562 C   0  0  0  0  0  0  0  0  0  0  0  0
    0.1213   -1.0748    1.8014 C   0  0  0  0  0  0  0  0  0  0  0  0
   -0.6861    1.1369    0.9631 C   0  0  0  0  0  0  0  0  0  0  0  0
   -1.7693    1.9702    0.6037 O   0  0  0  0  0  0  0  0  0  0  0  0
   -2.1983   -1.9599    0.5329 H   0  0  0  0  0  0  0  0  0  0  0  0
   -1.1764   -1.1176   -0.6360 H   0  0  0  0  0  0  0  0  0  0  0  0
   -2.6953   -0.3879   -0.1123 H   0  0  0  0  0  0  0  0  0  0  0  0
   -1.7821   -0.1931    2.2133 H   0  0  0  0  0  0  0  0  0  0  0  0
    0.8385   -1.1704    0.9813 H   0  0  0  0  0  0  0  0  0  0  0  0
   -0.1609   -2.0820    2.1122 H   0  0  0  0  0  0  0  0  0  0  0  0
    0.6319   -0.5948    2.6391 H   0  0  0  0  0  0  0  0  0  0  0  0
   -0.1033    1.5883    1.7770 H   0  0  0  0  0  0  0  0  0  0  0  0
   -2.3420    2.0677    1.3661 H   0  0  0  0  0  0  0  0  0  0  0  0
    1.4200   -0.2377   -2.7277 C   0  0  0  0  0  0  0  0  0  0  0  0
    1.4200   -0.2377   -1.4007 C   0  0  0  0  0  0  0  0  0  0  0  0
    1.4200    1.0311   -0.5994 C   0  0  0  0  0  3  0  0  0  0  0  0
    1.4200   -1.5066   -0.5994 C   0  0  0  0  0  0  0  0  0  0  0  0
    1.4200    0.6864   -3.2936 H   0  0  0  0  0  0  0  0  0  0  0  0
    1.4200   -1.1619   -3.2936 H   0  0  0  0  0  0  0  0  0  0  0  0
    0.3668    1.0840    0.1820 H   0  0  0  0  0  0  0  0  0  0  0  0
    2.2978    1.0752    0.0518 H   0  0  0  0  0  0  0  0  0  0  0  0
    1.4200    1.9140   -1.2379 H   0  0  0  0  0  0  0  0  0  0  0  0
    2.2978   -1.5507    0.0518 H   0  0  0  0  0  0  0  0  0  0  0  0
    0.5423   -1.5507    0.0518 H   0  0  0  0  0  0  0  0  0  0  0  0
    1.4201   -2.3895   -1.2379 H   0  0  0  0  0  0  0  0  0  0  0  0
  1  2  1  0
  1  6  1  0
  1  7  1  0
  1  8  1  0
  2  3  1  0
  2  4  1  0
  2  9  1  0
  3 10  1  0
  3 11  1  0
  3 12  1  0
  4  5  1  0
  4 13  1  0
  4 21  1  0
  5 14  1  0
 15 16  2  3
 15 19  1  0
 15 20  1  0
 16 17  1  0
 16 18  1  0
 17 22  1  0
 17 23  1  0
 18 24  1  0
 18 25  1  0
 18 26  1  0
M  RAD  1  17   2
M  END
>  <reaction>  (6) 
rxn_410

>  <mol_properties>  (6) 
{"1": {"label": "*4", "atom_type": "Cs"}, "3": {"label": "*3", "atom_type": "Cs"}, "15": {"label": "*0", "atom_type": "Cd"}, "16": {"label": "*1", "atom_type": "Cs"}, "20": {"label": "*2", "atom_type": "H0"}}

>  <type>  (6) 
unop_2

>  <geom_source>  (6) 
Heuristics

$$$$

     RDKit          3D

 26 24  0  0  0  0  0  0  0  0999 V2000
   -0.1277    0.3337    2.7778 C   0  0  0  0  0  0  0  0  0  0  0  0
   -0.7397    1.2230    1.7019 C   0  0  0  0  0  0  0  0  0  0  0  0
    0.1794    2.3879    1.3488 C   0  0  0  0  0  0  0  0  0  0  0  0
   -1.0768    0.4252    0.4452 C   0  0  0  0  0  0  0  0  0  0  0  0
   -1.9841   -0.6349    0.6683 O   0  0  0  0  0  0  0  0  0  0  0  0
    0.0436    0.8941    3.6989 H   0  0  0  0  0  0  0  0  0  0  0  0
    0.8352   -0.0619    2.4421 H   0  0  0  0  0  0  0  0  0  0  0  0
   -0.7756   -0.5131    3.0040 H   0  0  0  0  0  0  0  0  0  0  0  0
   -1.6805    1.6370    2.0885 H   0  0  0  0  0  0  0  0  0  0  0  0
    1.1261    2.0219    0.9416 H   0  0  0  0  0  0  0  0  0  0  0  0
    0.4091    2.9858    2.2322 H   0  0  0  0  0  0  0  0  0  0  0  0
   -0.2731    3.0470    0.6048 H   0  0  0  0  0  0  0  0  0  0  0  0
   -1.4568    1.1040   -0.3298 H   0  0  0  0  0  0  0  0  0  0  0  0
   -2.8137   -0.2642    0.9731 H   0  0  0  0  0  0  0  0  0  0  0  0
    1.0294   -0.9494   -3.2456 C   0  0  0  0  0  0  0  0  0  0  0  0
    1.0294   -0.9494   -1.9185 C   0  0  0  0  0  0  0  0  0  0  0  0
    1.0294    0.3195   -1.1173 C   0  0  0  0  0  3  0  0  0  0  0  0
    1.0294   -2.2183   -1.1173 C   0  0  0  0  0  0  0  0  0  0  0  0
    1.0294   -0.0253   -3.8114 H   0  0  0  0  0  0  0  0  0  0  0  0
    1.0294   -1.8735   -3.8114 H   0  0  0  0  0  0  0  0  0  0  0  0
   -0.0239    0.3724   -0.3359 H   0  0  0  0  0  0  0  0  0  0  0  0
    1.9071    0.3635   -0.4661 H   0  0  0  0  0  0  0  0  0  0  0  0
    1.0294    1.2024   -1.7558 H   0  0  0  0  0  0  0  0  0  0  0  0
    1.9071   -2.2624   -0.4661 H   0  0  0  0  0  0  0  0  0  0  0  0
    0.1517   -2.2624   -0.4661 H   0  0  0  0  0  0  0  0  0  0  0  0
    1.0294   -3.1012   -1.7558 H   0  0  0  0  0  0  0  0  0  0  0  0
  1  2  1  0
  1  6  1  0
  1  7  1  0
  1  8  1  0
  2  3  1  0
  2  4  1  0
  2  9  1  0
  3 10  1  0
  3 11  1  0
  3 12  1  0
  4  5  1  0
  4 13  1  0
  4 21  1  0
  5 14  1  0
 15 16  2  3
 15 19  1  0
 15 20  1  0
 16 17  1  0
 16 18  1  0
 17 22  1  0
 17 23  1  0
 18 24  1  0
 18 25  1  0
 18 26  1  0
M  RAD  1  17   2
M  END
>  <reaction>  (7) 
rxn_410

>  <mol_properties>  (7) 
{"1": {"label": "*4", "atom_type": "Cs"}, "3": {"label": "*3", "atom_type": "Cs"}, "15": {"label": "*0", "atom_type": "Cd"}, "16": {"label": "*1", "atom_type": "Cs"}, "20": {"label": "*2", "atom_type": "H0"}}

>  <type>  (7) 
unop_3

>  <geom_source>  (7) 
Heuristics

$$$$

     RDKit          3D

 26 24  0  0  0  0  0  0  0  0999 V2000
   -1.5367    1.0602   -0.8379 C   0  0  0  0  0  0  0  0  0  0  0  0
   -1.7791    0.4937    0.5561 C   0  0  0  0  0  0  0  0  0  0  0  0
   -2.3118   -0.9342    0.4953 C   0  0  0  0  0  0  0  0  0  0  0  0
   -0.5116    0.5417    1.4049 C   0  0  0  0  0  0  0  0  0  0  0  0
    0.0127    1.8429    1.5747 O   0  0  0  0  0  0  0  0  0  0  0  0
   -2.4628    1.0907   -1.4152 H   0  0  0  0  0  0  0  0  0  0  0  0
   -0.8222    0.4368   -1.3831 H   0  0  0  0  0  0  0  0  0  0  0  0
   -1.1279    2.0694   -0.7871 H   0  0  0  0  0  0  0  0  0  0  0  0
   -2.5319    1.1166    1.0572 H   0  0  0  0  0  0  0  0  0  0  0  0
   -1.5846   -1.5967    0.0177 H   0  0  0  0  0  0  0  0  0  0  0  0
   -3.2341   -0.9826   -0.0859 H   0  0  0  0  0  0  0  0  0  0  0  0
   -2.5211   -1.3289    1.4919 H   0  0  0  0  0  0  0  0  0  0  0  0
   -0.7035    0.0710    2.3784 H   0  0  0  0  0  0  0  0  0  0  0  0
   -0.6355    2.3718    2.0425 H   0  0  0  0  0  0  0  0  0  0  0  0
    1.5945   -0.8329   -2.2859 C   0  0  0  0  0  0  0  0  0  0  0  0
    1.5945   -0.8329   -0.9589 C   0  0  0  0  0  0  0  0  0  0  0  0
    1.5945    0.4359   -0.1576 C   0  0  0  0  0  3  0  0  0  0  0  0
    1.5945   -2.1018   -0.1576 C   0  0  0  0  0  0  0  0  0  0  0  0
    1.5945    0.0912   -2.8518 H   0  0  0  0  0  0  0  0  0  0  0  0
    1.5945   -1.7571   -2.8518 H   0  0  0  0  0  0  0  0  0  0  0  0
    0.5412    0.4888    0.6238 H   0  0  0  0  0  0  0  0  0  0  0  0
    2.4722    0.4800    0.4936 H   0  0  0  0  0  0  0  0  0  0  0  0
    1.5945    1.3189   -0.7961 H   0  0  0  0  0  0  0  0  0  0  0  0
    2.4722   -2.1459    0.4936 H   0  0  0  0  0  0  0  0  0  0  0  0
    0.7168   -2.1459    0.4936 H   0  0  0  0  0  0  0  0  0  0  0  0
    1.5945   -2.9847   -0.7961 H   0  0  0  0  0  0  0  0  0  0  0  0
  1  2  1  0
  1  6  1  0
  1  7  1  0
  1  8  1  0
  2  3  1  0
  2  4  1  0
  2  9  1  0
  3 10  1  0
  3 11  1  0
  3 12  1  0
  4  5  1  0
  4 13  1  0
  4 21  1  0
  5 14  1  0
 15 16  2  3
 15 19  1  0
 15 20  1  0
 16 17  1  0
 16 18  1  0
 17 22  1  0
 17 23  1  0
 18 24  1  0
 18 25  1  0
 18 26  1  0
M  RAD  1  17   2
M  END
>  <reaction>  (8) 
rxn_410

>  <mol_properties>  (8) 
{"1": {"label": "*4", "atom_type": "Cs"}, "3": {"label": "*3", "atom_type": "Cs"}, "15": {"label": "*0", "atom_type": "Cd"}, "16": {"label": "*1", "atom_type": "Cs"}, "20": {"label": "*2", "atom_type": "H0"}}

>  <type>  (8) 
unop_4

>  <geom_source>  (8) 
Heuristics

$$$$

     RDKit          3D

 26 24  0  0  0  0  0  0  0  0999 V2000
    0.2399    1.5614    2.2673 C   0  0  0  0  0  0  0  0  0  0  0  0
   -1.0209    1.4569    1.4173 C   0  0  0  0  0  0  0  0  0  0  0  0
   -1.1647    2.6515    0.4799 C   0  0  0  0  0  0  0  0  0  0  0  0
   -1.0458    0.1587    0.6152 C   0  0  0  0  0  0  0  0  0  0  0  0
   -0.9894   -1.0064    1.4129 O   0  0  0  0  0  0  0  0  0  0  0  0
    0.2179    2.4557    2.8930 H   0  0  0  0  0  0  0  0  0  0  0  0
    1.1256    1.6210    1.6284 H   0  0  0  0  0  0  0  0  0  0  0  0
    0.3525    0.6906    2.9131 H   0  0  0  0  0  0  0  0  0  0  0  0
   -1.8906    1.4438    2.0876 H   0  0  0  0  0  0  0  0  0  0  0  0
   -0.3259    2.6948   -0.2205 H   0  0  0  0  0  0  0  0  0  0  0  0
   -1.1761    3.5880    1.0397 H   0  0  0  0  0  0  0  0  0  0  0  0
   -2.0863    2.5970   -0.1037 H   0  0  0  0  0  0  0  0  0  0  0  0
   -1.9335    0.1433   -0.0311 H   0  0  0  0  0  0  0  0  0  0  0  0
   -1.7681   -1.0289    1.9712 H   0  0  0  0  0  0  0  0  0  0  0  0
    1.0603   -1.2160   -3.0756 C   0  0  0  0  0  0  0  0  0  0  0  0
    1.0603   -1.2160   -1.7486 C   0  0  0  0  0  0  0  0  0  0  0  0
    1.0603    0.0529   -0.9473 C   0  0  0  0  0  3  0  0  0  0  0  0
    1.0603   -2.4848   -0.9473 C   0  0  0  0  0  0  0  0  0  0  0  0
    1.0603   -0.2918   -3.6415 H   0  0  0  0  0  0  0  0  0  0  0  0
    1.0603   -2.1401   -3.6415 H   0  0  0  0  0  0  0  0  0  0  0  0
    0.0070    0.1058   -0.1659 H   0  0  0  0  0  0  0  0  0  0  0  0
    1.9380    0.0970   -0.2962 H   0  0  0  0  0  0  0  0  0  0  0  0
    1.0603    0.9358   -1.5858 H   0  0  0  0  0  0  0  0  0  0  0  0
    1.9380   -2.5289   -0.2962 H   0  0  0  0  0  0  0  0  0  0  0  0
    0.1826   -2.5289   -0.2962 H   0  0  0  0  0  0  0  0  0  0  0  0
    1.0603   -3.3677   -1.5858 H   0  0  0  0  0  0  0  0  0  0  0  0
  1  2  1  0
  1  6  1  0
  1  7  1  0
  1  8  1  0
  2  3  1  0
  2  4  1  0
  2  9  1  0
  3 10  1  0
  3 11  1  0
  3 12  1  0
  4  5  1  0
  4 13  1  0
  4 21  1  0
  5 14  1  0
 15 16  2  3
 15 19  1  0
 15 20  1  0
 16 17  1  0
 16 18  1  0
 17 22  1  0
 17 23  1  0
 18 24  1  0
 18 25  1  0
 18 26  1  0
M  RAD  1  17   2
M  END
>  <reaction>  (9) 
rxn_410

>  <mol_properties>  (9) 
{"1": {"label": "*4", "atom_type": "Cs"}, "3": {"label": "*3", "atom_type": "Cs"}, "15": {"label": "*0", "atom_type": "Cd"}, "16": {"label": "*1", "atom_type": "Cs"}, "20": {"label": "*2", "atom_type": "H0"}}

>  <type>  (9) 
unop_5

>  <geom_source>  (9) 
Heuristics

$$$$

     RDKit          3D

 26 24  0  0  0  0  0  0  0  0999 V2000
   -1.2256    1.7860   -0.5683 C   0  0  0  0  0  0  0  0  0  0  0  0
   -1.7326    0.9518    0.6022 C   0  0  0  0  0  0  0  0  0  0  0  0
   -2.7484   -0.0913    0.1479 C   0  0  0  0  0  0  0  0  0  0  0  0
   -0.5830    0.2728    1.3414 C   0  0  0  0  0  0  0  0  0  0  0  0
    0.3728    1.1743    1.8617 O   0  0  0  0  0  0  0  0  0  0  0  0
   -2.0438    2.3267   -1.0479 H   0  0  0  0  0  0  0  0  0  0  0  0
   -0.7622    1.1425   -1.3216 H   0  0  0  0  0  0  0  0  0  0  0  0
   -0.4781    2.5090   -0.2419 H   0  0  0  0  0  0  0  0  0  0  0  0
   -2.2295    1.6223    1.3159 H   0  0  0  0  0  0  0  0  0  0  0  0
   -2.2910   -0.7944   -0.5538 H   0  0  0  0  0  0  0  0  0  0  0  0
   -3.5918    0.3799   -0.3595 H   0  0  0  0  0  0  0  0  0  0  0  0
   -3.1405   -0.6654    0.9901 H   0  0  0  0  0  0  0  0  0  0  0  0
   -0.9855   -0.3675    2.1376 H   0  0  0  0  0  0  0  0  0  0  0  0
   -0.0598    1.7340    2.5085 H   0  0  0  0  0  0  0  0  0  0  0  0
    1.5232   -1.1018   -2.3494 C   0  0  0  0  0  0  0  0  0  0  0  0
    1.5232   -1.1018   -1.0224 C   0  0  0  0  0  0  0  0  0  0  0  0
    1.5232    0.1670   -0.2211 C   0  0  0  0  0  3  0  0  0  0  0  0
    1.5232   -2.3707   -0.2211 C   0  0  0  0  0  0  0  0  0  0  0  0
    1.5232   -0.1777   -2.9153 H   0  0  0  0  0  0  0  0  0  0  0  0
    1.5232   -2.0260   -2.9153 H   0  0  0  0  0  0  0  0  0  0  0  0
    0.4699    0.2199    0.5603 H   0  0  0  0  0  0  0  0  0  0  0  0
    2.4009    0.2111    0.4301 H   0  0  0  0  0  0  0  0  0  0  0  0
    1.5232    1.0499   -0.8596 H   0  0  0  0  0  0  0  0  0  0  0  0
    2.4009   -2.4148    0.4301 H   0  0  0  0  0  0  0  0  0  0  0  0
    0.6455   -2.4148    0.4301 H   0  0  0  0  0  0  0  0  0  0  0  0
    1.5232   -3.2536   -0.8596 H   0  0  0  0  0  0  0  0  0  0  0  0
  1  2  1  0
  1  6  1  0
  1  7  1  0
  1  8  1  0
  2  3  1  0
  2  4  1  0
  2  9  1  0
  3 10  1  0
  3 11  1  0
  3 12  1  0
  4  5  1  0
  4 13  1  0
  4 21  1  0
  5 14  1  0
 15 16  2  3
 15 19  1  0
 15 20  1  0
 16 17  1  0
 16 18  1  0
 17 22  1  0
 17 23  1  0
 18 24  1  0
 18 25  1  0
 18 26  1  0
M  RAD  1  17   2
M  END
>  <reaction>  (10) 
rxn_410

>  <mol_properties>  (10) 
{"1": {"label": "*4", "atom_type": "Cs"}, "3": {"label": "*3", "atom_type": "Cs"}, "15": {"label": "*0", "atom_type": "Cd"}, "16": {"label": "*1", "atom_type": "Cs"}, "20": {"label": "*2", "atom_type": "H0"}}

>  <type>  (10) 
unop_6

>  <geom_source>  (10) 
Heuristics

$$$$

     RDKit          3D

 26 24  0  0  0  0  0  0  0  0999 V2000
   -0.7317    2.3378    0.0597 C   0  0  0  0  0  0  0  0  0  0  0  0
   -1.5574    1.3028    0.8146 C   0  0  0  0  0  0  0  0  0  0  0  0
   -2.7930    0.8867    0.0230 C   0  0  0  0  0  0  0  0  0  0  0  0
   -0.7240    0.0731    1.1649 C   0  0  0  0  0  0  0  0  0  0  0  0
    0.4072    0.3584    1.9622 O   0  0  0  0  0  0  0  0  0  0  0  0
   -1.3118    3.2442   -0.1238 H   0  0  0  0  0  0  0  0  0  0  0  0
   -0.4162    1.9398   -0.9090 H   0  0  0  0  0  0  0  0  0  0  0  0
    0.1651    2.6085    0.6170 H   0  0  0  0  0  0  0  0  0  0  0  0
   -1.8935    1.7500    1.7596 H   0  0  0  0  0  0  0  0  0  0  0  0
   -2.5051    0.4184   -0.9224 H   0  0  0  0  0  0  0  0  0  0  0  0
   -3.4152    1.7515   -0.2129 H   0  0  0  0  0  0  0  0  0  0  0  0
   -3.4055    0.1728    0.5779 H   0  0  0  0  0  0  0  0  0  0  0  0
   -1.3621   -0.6766    1.6515 H   0  0  0  0  0  0  0  0  0  0  0  0
    0.1055    0.7168    2.7984 H   0  0  0  0  0  0  0  0  0  0  0  0
    1.3821   -1.3015   -2.5259 C   0  0  0  0  0  0  0  0  0  0  0  0
    1.3821   -1.3015   -1.1989 C   0  0  0  0  0  0  0  0  0  0  0  0
    1.3821   -0.0326   -0.3976 C   0  0  0  0  0  3  0  0  0  0  0  0
    1.3821   -2.5704   -0.3976 C   0  0  0  0  0  0  0  0  0  0  0  0
    1.3821   -0.3774   -3.0918 H   0  0  0  0  0  0  0  0  0  0  0  0
    1.3821   -2.2256   -3.0918 H   0  0  0  0  0  0  0  0  0  0  0  0
    0.3288    0.0203    0.3838 H   0  0  0  0  0  0  0  0  0  0  0  0
    2.2599    0.0114    0.2535 H   0  0  0  0  0  0  0  0  0  0  0  0
    1.3821    0.8503   -1.0361 H   0  0  0  0  0  0  0  0  0  0  0  0
    2.2599   -2.6145    0.2535 H   0  0  0  0  0  0  0  0  0  0  0  0
    0.5044   -2.6145    0.2535 H   0  0  0  0  0  0  0  0  0  0  0  0
    1.3821   -3.4533   -1.0361 H   0  0  0  0  0  0  0  0  0  0  0  0
  1  2  1  0
  1  6  1  0
  1  7  1  0
  1  8  1  0
  2  3  1  0
  2  4  1  0
  2  9  1  0
  3 10  1  0
  3 11  1  0
  3 12  1  0
  4  5  1  0
  4 13  1  0
  4 21  1  0
  5 14  1  0
 15 16  2  3
 15 19  1  0
 15 20  1  0
 16 17  1  0
 16 18  1  0
 17 22  1  0
 17 23  1  0
 18 24  1  0
 18 25  1  0
 18 26  1  0
M  RAD  1  17   2
M  END
>  <reaction>  (11) 
rxn_410

>  <mol_properties>  (11) 
{"1": {"label": "*4", "atom_type": "Cs"}, "3": {"label": "*3", "atom_type": "Cs"}, "15": {"label": "*0", "atom_type": "Cd"}, "16": {"label": "*1", "atom_type": "Cs"}, "20": {"label": "*2", "atom_type": "H0"}}

>  <type>  (11) 
unop_7

>  <geom_source>  (11) 
Heuristics

$$$$

     RDKit          3D

 26 24  0  0  0  0  0  0  0  0999 V2000
   -1.1173   -1.1253    1.9333 C   0  0  0  0  0  0  0  0  0  0  0  0
   -0.6298    0.3172    1.8663 C   0  0  0  0  0  0  0  0  0  0  0  0
    0.8684    0.4150    2.1345 C   0  0  0  0  0  0  0  0  0  0  0  0
   -0.9613    0.9552    0.5200 C   0  0  0  0  0  0  0  0  0  0  0  0
   -2.3423    0.9730    0.2213 O   0  0  0  0  0  0  0  0  0  0  0  0
   -0.9429   -1.5526    2.9226 H   0  0  0  0  0  0  0  0  0  0  0  0
   -0.5842   -1.7413    1.2034 H   0  0  0  0  0  0  0  0  0  0  0  0
   -2.1823   -1.1917    1.7111 H   0  0  0  0  0  0  0  0  0  0  0  0
   -1.1524    0.8958    2.6397 H   0  0  0  0  0  0  0  0  0  0  0  0
    1.4323   -0.1344    1.3755 H   0  0  0  0  0  0  0  0  0  0  0  0
    1.1199   -0.0126    3.1065 H   0  0  0  0  0  0  0  0  0  0  0  0
    1.2130    1.4513    2.1235 H   0  0  0  0  0  0  0  0  0  0  0  0
   -0.5433    1.9700    0.4816 H   0  0  0  0  0  0  0  0  0  0  0  0
   -2.7878    1.5073    0.8806 H   0  0  0  0  0  0  0  0  0  0  0  0
    1.1449   -0.4195   -3.1708 C   0  0  0  0  0  0  0  0  0  0  0  0
    1.1449   -0.4195   -1.8438 C   0  0  0  0  0  0  0  0  0  0  0  0
    1.1449    0.8494   -1.0425 C   0  0  0  0  0  3  0  0  0  0  0  0
    1.1449   -1.6883   -1.0425 C   0  0  0  0  0  0  0  0  0  0  0  0
    1.1449    0.5046   -3.7367 H   0  0  0  0  0  0  0  0  0  0  0  0
    1.1449   -1.3436   -3.7367 H   0  0  0  0  0  0  0  0  0  0  0  0
    0.0916    0.9023   -0.2611 H   0  0  0  0  0  0  0  0  0  0  0  0
    2.0226    0.8935   -0.3913 H   0  0  0  0  0  0  0  0  0  0  0  0
    1.1449    1.7323   -1.6810 H   0  0  0  0  0  0  0  0  0  0  0  0
    2.0226   -1.7324   -0.3913 H   0  0  0  0  0  0  0  0  0  0  0  0
    0.2671   -1.7324   -0.3913 H   0  0  0  0  0  0  0  0  0  0  0  0
    1.1449   -2.5713   -1.6810 H   0  0  0  0  0  0  0  0  0  0  0  0
  1  2  1  0
  1  6  1  0
  1  7  1  0
  1  8  1  0
  2  3  1  0
  2  4  1  0
  2  9  1  0
  3 10  1  0
  3 11  1  0
  3 12  1  0
  4  5  1  0
  4 13  1  0
  4 21  1  0
  5 14  1  0
 15 16  2  3
 15 19  1  0
 15 20  1  0
 16 17  1  0
 16 18  1  0
 17 22  1  0
 17 23  1  0
 18 24  1  0
 18 25  1  0
 18 26  1  0
M  RAD  1  17   2
M  END
>  <reaction>  (12) 
rxn_410

>  <mol_properties>  (12) 
{"1": {"label": "*4", "atom_type": "Cs"}, "3": {"label": "*3", "atom_type": "Cs"}, "15": {"label": "*0", "atom_type": "Cd"}, "16": {"label": "*1", "atom_type": "Cs"}, "20": {"label": "*2", "atom_type": "H0"}}

>  <type>  (12) 
unop_8

>  <geom_source>  (12) 
Heuristics

$$$$

     RDKit          3D

 26 24  0  0  0  0  0  0  0  0999 V2000
   -1.7374    0.3256   -0.7964 C   0  0  0  0  0  0  0  0  0  0  0  0
   -1.6672    0.0540    0.7017 C   0  0  0  0  0  0  0  0  0  0  0  0
   -1.5437   -1.4376    0.9951 C   0  0  0  0  0  0  0  0  0  0  0  0
   -0.5119    0.8107    1.3513 C   0  0  0  0  0  0  0  0  0  0  0  0
   -0.5853    2.2126    1.1900 O   0  0  0  0  0  0  0  0  0  0  0  0
   -2.6079   -0.1594   -1.2424 H   0  0  0  0  0  0  0  0  0  0  0  0
   -0.8450   -0.0626   -1.2957 H   0  0  0  0  0  0  0  0  0  0  0  0
   -1.7953    1.3947   -1.0004 H   0  0  0  0  0  0  0  0  0  0  0  0
   -2.5956    0.4158    1.1633 H   0  0  0  0  0  0  0  0  0  0  0  0
   -0.6207   -1.8392    0.5675 H   0  0  0  0  0  0  0  0  0  0  0  0
   -2.3773   -1.9916    0.5604 H   0  0  0  0  0  0  0  0  0  0  0  0
   -1.5304   -1.6374    2.0688 H   0  0  0  0  0  0  0  0  0  0  0  0
   -0.4514    0.5456    2.4153 H   0  0  0  0  0  0  0  0  0  0  0  0
   -1.3803    2.5260    1.6242 H   0  0  0  0  0  0  0  0  0  0  0  0
    1.5942   -0.5640   -2.3395 C   0  0  0  0  0  0  0  0  0  0  0  0
    1.5942   -0.5640   -1.0124 C   0  0  0  0  0  0  0  0  0  0  0  0
    1.5942    0.7049   -0.2112 C   0  0  0  0  0  3  0  0  0  0  0  0
    1.5942   -1.8328   -0.2112 C   0  0  0  0  0  0  0  0  0  0  0  0
    1.5942    0.3602   -2.9053 H   0  0  0  0  0  0  0  0  0  0  0  0
    1.5942   -1.4881   -2.9053 H   0  0  0  0  0  0  0  0  0  0  0  0
    0.5410    0.7578    0.5702 H   0  0  0  0  0  0  0  0  0  0  0  0
    2.4720    0.7490    0.4400 H   0  0  0  0  0  0  0  0  0  0  0  0
    1.5942    1.5878   -0.8497 H   0  0  0  0  0  0  0  0  0  0  0  0
    2.4720   -1.8769    0.4400 H   0  0  0  0  0  0  0  0  0  0  0  0
    0.7165   -1.8769    0.4400 H   0  0  0  0  0  0  0  0  0  0  0  0
    1.5942   -2.7157   -0.8497 H   0  0  0  0  0  0  0  0  0  0  0  0
  1  2  1  0
  1  6  1  0
  1  7  1  0
  1  8  1  0
  2  3  1  0
  2  4  1  0
  2  9  1  0
  3 10  1  0
  3 11  1  0
  3 12  1  0
  4  5  1  0
  4 13  1  0
  4 21  1  0
  5 14  1  0
 15 16  2  3
 15 19  1  0
 15 20  1  0
 16 17  1  0
 16 18  1  0
 17 22  1  0
 17 23  1  0
 18 24  1  0
 18 25  1  0
 18 26  1  0
M  RAD  1  17   2
M  END
>  <reaction>  (13) 
rxn_410

>  <mol_properties>  (13) 
{"1": {"label": "*4", "atom_type": "Cs"}, "3": {"label": "*3", "atom_type": "Cs"}, "15": {"label": "*0", "atom_type": "Cd"}, "16": {"label": "*1", "atom_type": "Cs"}, "20": {"label": "*2", "atom_type": "H0"}}

>  <type>  (13) 
unop_9

>  <geom_source>  (13) 
Heuristics

$$$$

     RDKit          3D

 26 24  0  0  0  0  0  0  0  0999 V2000
   -1.5604   -1.2694    1.0903 C   0  0  0  0  0  0  0  0  0  0  0  0
   -0.8140   -0.0756    1.6740 C   0  0  0  0  0  0  0  0  0  0  0  0
    0.6235   -0.4359    2.0346 C   0  0  0  0  0  0  0  0  0  0  0  0
   -0.8292    1.1130    0.7166 C   0  0  0  0  0  0  0  0  0  0  0  0
   -2.1273    1.5616    0.3841 O   0  0  0  0  0  0  0  0  0  0  0  0
   -1.6090   -2.0905    1.8081 H   0  0  0  0  0  0  0  0  0  0  0  0
   -1.0503   -1.6364    0.1951 H   0  0  0  0  0  0  0  0  0  0  0  0
   -2.5773   -0.9977    0.8069 H   0  0  0  0  0  0  0  0  0  0  0  0
   -1.3269    0.2382    2.5929 H   0  0  0  0  0  0  0  0  0  0  0  0
    1.1799   -0.7390    1.1433 H   0  0  0  0  0  0  0  0  0  0  0  0
    0.6523   -1.2675    2.7405 H   0  0  0  0  0  0  0  0  0  0  0  0
    1.1490    0.4079    2.4871 H   0  0  0  0  0  0  0  0  0  0  0  0
   -0.2324    1.9324    1.1389 H   0  0  0  0  0  0  0  0  0  0  0  0
   -2.5570    1.8654    1.1851 H   0  0  0  0  0  0  0  0  0  0  0  0
    1.2769   -0.2616   -2.9741 C   0  0  0  0  0  0  0  0  0  0  0  0
    1.2769   -0.2616   -1.6471 C   0  0  0  0  0  0  0  0  0  0  0  0
    1.2769    1.0072   -0.8459 C   0  0  0  0  0  3  0  0  0  0  0  0
    1.2769   -1.5305   -0.8459 C   0  0  0  0  0  0  0  0  0  0  0  0
    1.2769    0.6625   -3.5400 H   0  0  0  0  0  0  0  0  0  0  0  0
    1.2769   -1.1858   -3.5400 H   0  0  0  0  0  0  0  0  0  0  0  0
    0.2236    1.0601   -0.0645 H   0  0  0  0  0  0  0  0  0  0  0  0
    2.1546    1.0513   -0.1947 H   0  0  0  0  0  0  0  0  0  0  0  0
    1.2769    1.8902   -1.4844 H   0  0  0  0  0  0  0  0  0  0  0  0
    2.1546   -1.5746   -0.1947 H   0  0  0  0  0  0  0  0  0  0  0  0
    0.3992   -1.5746   -0.1947 H   0  0  0  0  0  0  0  0  0  0  0  0
    1.2769   -2.4134   -1.4844 H   0  0  0  0  0  0  0  0  0  0  0  0
  1  2  1  0
  1  6  1  0
  1  7  1  0
  1  8  1  0
  2  3  1  0
  2  4  1  0
  2  9  1  0
  3 10  1  0
  3 11  1  0
  3 12  1  0
  4  5  1  0
  4 13  1  0
  4 21  1  0
  5 14  1  0
 15 16  2  3
 15 19  1  0
 15 20  1  0
 16 17  1  0
 16 18  1  0
 17 22  1  0
 17 23  1  0
 18 24  1  0
 18 25  1  0
 18 26  1  0
M  RAD  1  17   2
M  END
>  <reaction>  (14) 
rxn_410

>  <mol_properties>  (14) 
{"1": {"label": "*4", "atom_type": "Cs"}, "3": {"label": "*3", "atom_type": "Cs"}, "15": {"label": "*0", "atom_type": "Cd"}, "16": {"label": "*1", "atom_type": "Cs"}, "20": {"label": "*2", "atom_type": "H0"}}

>  <type>  (14) 
unop_10

>  <geom_source>  (14) 
Heuristics

$$$$

     RDKit          3D

 26 24  0  0  0  0  0  0  0  0999 V2000
   -0.0977    2.3966    1.0763 C   0  0  0  0  0  0  0  0  0  0  0  0
   -1.3091    1.4725    1.1145 C   0  0  0  0  0  0  0  0  0  0  0  0
   -2.3567    1.8798    0.0835 C   0  0  0  0  0  0  0  0  0  0  0  0
   -0.9056    0.0162    0.9005 C   0  0  0  0  0  0  0  0  0  0  0  0
    0.0124   -0.4685    1.8593 O   0  0  0  0  0  0  0  0  0  0  0  0
   -0.3826    3.4260    1.3021 H   0  0  0  0  0  0  0  0  0  0  0  0
    0.3582    2.3854    0.0821 H   0  0  0  0  0  0  0  0  0  0  0  0
    0.6599    2.0824    1.7942 H   0  0  0  0  0  0  0  0  0  0  0  0
   -1.7667    1.5421    2.1103 H   0  0  0  0  0  0  0  0  0  0  0  0
   -1.9491    1.8087   -0.9288 H   0  0  0  0  0  0  0  0  0  0  0  0
   -2.6770    2.9113    0.2387 H   0  0  0  0  0  0  0  0  0  0  0  0
   -3.2415    1.2415    0.1342 H   0  0  0  0  0  0  0  0  0  0  0  0
   -1.8047   -0.6136    0.8718 H   0  0  0  0  0  0  0  0  0  0  0  0
   -0.4053   -0.4368    2.7214 H   0  0  0  0  0  0  0  0  0  0  0  0
    1.2005   -1.3584   -2.7902 C   0  0  0  0  0  0  0  0  0  0  0  0
    1.2005   -1.3584   -1.4632 C   0  0  0  0  0  0  0  0  0  0  0  0
    1.2005   -0.0896   -0.6620 C   0  0  0  0  0  3  0  0  0  0  0  0
    1.2005   -2.6273   -0.6620 C   0  0  0  0  0  0  0  0  0  0  0  0
    1.2005   -0.4343   -3.3561 H   0  0  0  0  0  0  0  0  0  0  0  0
    1.2005   -2.2825   -3.3561 H   0  0  0  0  0  0  0  0  0  0  0  0
    0.1473   -0.0367    0.1194 H   0  0  0  0  0  0  0  0  0  0  0  0
    2.0783   -0.0455   -0.0108 H   0  0  0  0  0  0  0  0  0  0  0  0
    1.2005    0.7934   -1.3005 H   0  0  0  0  0  0  0  0  0  0  0  0
    2.0783   -2.6714   -0.0108 H   0  0  0  0  0  0  0  0  0  0  0  0
    0.3228   -2.6714   -0.0108 H   0  0  0  0  0  0  0  0  0  0  0  0
    1.2005   -3.5102   -1.3005 H   0  0  0  0  0  0  0  0  0  0  0  0
  1  2  1  0
  1  6  1  0
  1  7  1  0
  1  8  1  0
  2  3  1  0
  2  4  1  0
  2  9  1  0
  3 10  1  0
  3 11  1  0
  3 12  1  0
  4  5  1  0
  4 13  1  0
  4 21  1  0
  5 14  1  0
 15 16  2  3
 15 19  1  0
 15 20  1  0
 16 17  1  0
 16 18  1  0
 17 22  1  0
 17 23  1  0
 18 24  1  0
 18 25  1  0
 18 26  1  0
M  RAD  1  17   2
M  END
>  <reaction>  (15) 
rxn_410

>  <mol_properties>  (15) 
{"1": {"label": "*4", "atom_type": "Cs"}, "3": {"label": "*3", "atom_type": "Cs"}, "15": {"label": "*0", "atom_type": "Cd"}, "16": {"label": "*1", "atom_type": "Cs"}, "20": {"label": "*2", "atom_type": "H0"}}

>  <type>  (15) 
unop_11

>  <geom_source>  (15) 
Heuristics

$$$$

     RDKit          3D

 26 24  0  0  0  0  0  0  0  0999 V2000
   -1.8722   -0.3776   -0.4484 C   0  0  0  0  0  0  0  0  0  0  0  0
   -1.4163   -0.2327    0.9987 C   0  0  0  0  0  0  0  0  0  0  0  0
   -0.6393   -1.4591    1.4664 C   0  0  0  0  0  0  0  0  0  0  0  0
   -0.5731    1.0244    1.1938 C   0  0  0  0  0  0  0  0  0  0  0  0
   -1.2437    2.2203    0.8517 O   0  0  0  0  0  0  0  0  0  0  0  0
   -2.5343   -1.2376   -0.5666 H   0  0  0  0  0  0  0  0  0  0  0  0
   -1.0106   -0.5250   -1.1058 H   0  0  0  0  0  0  0  0  0  0  0  0
   -2.4005    0.5141   -0.7858 H   0  0  0  0  0  0  0  0  0  0  0  0
   -2.3063   -0.1312    1.6339 H   0  0  0  0  0  0  0  0  0  0  0  0
    0.2685   -1.5901    0.8709 H   0  0  0  0  0  0  0  0  0  0  0  0
   -1.2381   -2.3650    1.3592 H   0  0  0  0  0  0  0  0  0  0  0  0
   -0.3435   -1.3732    2.5142 H   0  0  0  0  0  0  0  0  0  0  0  0
   -0.2101    1.0662    2.2294 H   0  0  0  0  0  0  0  0  0  0  0  0
   -1.9999    2.3199    1.4321 H   0  0  0  0  0  0  0  0  0  0  0  0
    1.5330   -0.3502   -2.4970 C   0  0  0  0  0  0  0  0  0  0  0  0
    1.5330   -0.3502   -1.1700 C   0  0  0  0  0  0  0  0  0  0  0  0
    1.5330    0.9186   -0.3687 C   0  0  0  0  0  3  0  0  0  0  0  0
    1.5330   -1.6191   -0.3687 C   0  0  0  0  0  0  0  0  0  0  0  0
    1.5330    0.5739   -3.0629 H   0  0  0  0  0  0  0  0  0  0  0  0
    1.5330   -1.2744   -3.0629 H   0  0  0  0  0  0  0  0  0  0  0  0
    0.4798    0.9715    0.4127 H   0  0  0  0  0  0  0  0  0  0  0  0
    2.4108    0.9627    0.2824 H   0  0  0  0  0  0  0  0  0  0  0  0
    1.5330    1.8016   -1.0072 H   0  0  0  0  0  0  0  0  0  0  0  0
    2.4108   -1.6632    0.2824 H   0  0  0  0  0  0  0  0  0  0  0  0
    0.6553   -1.6632    0.2824 H   0  0  0  0  0  0  0  0  0  0  0  0
    1.5331   -2.5020   -1.0072 H   0  0  0  0  0  0  0  0  0  0  0  0
  1  2  1  0
  1  6  1  0
  1  7  1  0
  1  8  1  0
  2  3  1  0
  2  4  1  0
  2  9  1  0
  3 10  1  0
  3 11  1  0
  3 12  1  0
  4  5  1  0
  4 13  1  0
  4 21  1  0
  5 14  1  0
 15 16  2  3
 15 19  1  0
 15 20  1  0
 16 17  1  0
 16 18  1  0
 17 22  1  0
 17 23  1  0
 18 24  1  0
 18 25  1  0
 18 26  1  0
M  RAD  1  17   2
M  END
>  <reaction>  (16) 
rxn_410

>  <mol_properties>  (16) 
{"1": {"label": "*4", "atom_type": "Cs"}, "3": {"label": "*3", "atom_type": "Cs"}, "15": {"label": "*0", "atom_type": "Cd"}, "16": {"label": "*1", "atom_type": "Cs"}, "20": {"label": "*2", "atom_type": "H0"}}

>  <type>  (16) 
unop_12

>  <geom_source>  (16) 
Heuristics

$$$$

     RDKit          3D

 26 24  0  0  0  0  0  0  0  0999 V2000
   -1.8464   -1.4928    0.8951 O   0  0  0  0  0  0  0  0  0  0  0  0
   -1.7563    0.7555    0.0056 C   0  0  0  0  0  0  0  0  0  0  0  0
   -1.0050   -0.3900    0.7011 C   0  0  0  0  0  0  0  0  0  0  0  0
   -2.9295    1.2528    0.8593 C   0  0  0  0  0  0  0  0  0  0  0  0
   -2.2364    0.3360   -1.3888 C   0  0  0  0  0  0  0  0  0  0  0  0
    3.7084   -0.3368    0.5294 C   0  0  0  0  0  0  0  0  0  0  0  0
    2.4876   -0.3100   -0.3459 C   0  0  0  0  0  0  0  0  0  0  0  0
    1.3363   -1.2226   -0.0581 C   0  0  0  0  0  0  0  0  0  0  0  0
    2.4209    0.5278   -1.3864 C   0  0  0  0  0  3  0  0  0  0  0  0
   -1.0427    1.5994   -0.1196 H   0  0  0  0  0  0  0  0  0  0  0  0
   -0.6189   -0.0391    1.6842 H   0  0  0  0  0  0  0  0  0  0  0  0
    0.0370   -0.7490   -0.0467 H   0  0  0  0  0  0  0  0  0  0  0  0
   -3.6888    0.4528    0.9932 H   0  0  0  0  0  0  0  0  0  0  0  0
   -3.4138    2.1249    0.3704 H   0  0  0  0  0  0  0  0  0  0  0  0
   -2.5665    1.5748    1.8586 H   0  0  0  0  0  0  0  0  0  0  0  0
   -2.7142    1.1975   -1.9024 H   0  0  0  0  0  0  0  0  0  0  0  0
   -2.9744   -0.4918   -1.3211 H   0  0  0  0  0  0  0  0  0  0  0  0
   -1.3757    0.0007   -2.0058 H   0  0  0  0  0  0  0  0  0  0  0  0
    4.6004   -0.6035   -0.0761 H   0  0  0  0  0  0  0  0  0  0  0  0
    3.8639    0.6617    0.9899 H   0  0  0  0  0  0  0  0  0  0  0  0
    3.5948   -1.0866    1.3409 H   0  0  0  0  0  0  0  0  0  0  0  0
    1.5420    0.5535   -2.0241 H   0  0  0  0  0  0  0  0  0  0  0  0
    3.2447    1.1982   -1.6131 H   0  0  0  0  0  0  0  0  0  0  0  0
    1.6660   -2.2809   -0.1177 H   0  0  0  0  0  0  0  0  0  0  0  0
    0.9270   -1.0113    0.9519 H   0  0  0  0  0  0  0  0  0  0  0  0
   -1.2607   -2.2213    1.2261 H   0  0  0  0  0  0  0  0  0  0  0  0
  1  3  1  0
  1 26  1  0
  2  4  1  0
  2  5  1  0
  2  3  1  0
  2 10  1  0
  3 11  1  0
  3 12  1  0
  4 13  1  0
  4 14  1  0
  4 15  1  0
  5 16  1  0
  5 17  1  0
  5 18  1  0
  6  7  1  0
  6 19  1  0
  6 20  1  0
  6 21  1  0
  7  8  2  3
  7  9  1  0
  8 24  1  0
  8 25  1  0
  9 22  1  0
  9 23  1  0
M  RAD  1   9   2
M  END
>  <reaction>  (17) 
rxn_410

>  <mol_properties>  (17) 
{"1": {"label": "*4", "atom_type": "Cs"}, "3": {"label": "*3", "atom_type": "Cs"}, "15": {"label": "*0", "atom_type": "Cd"}, "16": {"label": "*1", "atom_type": "Cs"}, "20": {"label": "*2", "atom_type": "H0"}}

>  <type>  (17) 
unop_13

>  <geom_source>  (17) 
AutoTST

$$$$

     RDKit          3D

 26 24  0  0  0  0  0  0  0  0999 V2000
   -1.8408   -0.9765    0.2214 C   0  0  0  0  0  0  0  0  0  0  0  0
   -1.1008   -0.2783    1.3562 C   0  0  0  0  0  0  0  0  0  0  0  0
    0.1213   -1.0748    1.8014 C   0  0  0  0  0  0  0  0  0  0  0  0
   -0.6861    1.1369    0.9631 C   0  0  0  0  0  0  0  0  0  0  0  0
   -1.7693    1.9702    0.6037 O   0  0  0  0  0  0  0  0  0  0  0  0
   -2.1983   -1.9599    0.5329 H   0  0  0  0  0  0  0  0  0  0  0  0
   -1.1764   -1.1176   -0.6360 H   0  0  0  0  0  0  0  0  0  0  0  0
   -2.6953   -0.3879   -0.1123 H   0  0  0  0  0  0  0  0  0  0  0  0
   -1.7821   -0.1931    2.2133 H   0  0  0  0  0  0  0  0  0  0  0  0
    0.8385   -1.1704    0.9813 H   0  0  0  0  0  0  0  0  0  0  0  0
   -0.1609   -2.0820    2.1122 H   0  0  0  0  0  0  0  0  0  0  0  0
    0.6319   -0.5948    2.6391 H   0  0  0  0  0  0  0  0  0  0  0  0
   -0.1033    1.5883    1.7770 H   0  0  0  0  0  0  0  0  0  0  0  0
   -2.3420    2.0677    1.3661 H   0  0  0  0  0  0  0  0  0  0  0  0
    1.4201   -0.2377   -2.7277 C   0  0  0  0  0  0  0  0  0  0  0  0
    1.4201   -0.2377   -1.4007 C   0  0  0  0  0  0  0  0  0  0  0  0
    1.4201    1.0311   -0.5994 C   0  0  0  0  0  3  0  0  0  0  0  0
    1.4201   -1.5066   -0.5994 C   0  0  0  0  0  0  0  0  0  0  0  0
    1.4200    0.6864   -3.2936 H   0  0  0  0  0  0  0  0  0  0  0  0
    1.4201   -1.1619   -3.2936 H   0  0  0  0  0  0  0  0  0  0  0  0
    0.3668    1.0840    0.1820 H   0  0  0  0  0  0  0  0  0  0  0  0
    2.2978    1.0752    0.0518 H   0  0  0  0  0  0  0  0  0  0  0  0
    1.4200    1.9140   -1.2379 H   0  0  0  0  0  0  0  0  0  0  0  0
    2.2978   -1.5507    0.0518 H   0  0  0  0  0  0  0  0  0  0  0  0
    0.5423   -1.5507    0.0518 H   0  0  0  0  0  0  0  0  0  0  0  0
    1.4201   -2.3895   -1.2379 H   0  0  0  0  0  0  0  0  0  0  0  0
  1  2  1  0
  1  6  1  0
  1  7  1  0
  1  8  1  0
  2  3  1  0
  2  4  1  0
  2  9  1  0
  3 10  1  0
  3 11  1  0
  3 12  1  0
  4  5  1  0
  4 13  1  0
  4 21  1  0
  5 14  1  0
 15 16  2  3
 15 19  1  0
 15 20  1  0
 16 17  1  0
 16 18  1  0
 17 22  1  0
 17 23  1  0
 18 24  1  0
 18 25  1  0
 18 26  1  0
M  RAD  1  17   2
M  END
>  <reaction>  (18) 
rxn_410

>  <mol_properties>  (18) 
{"1": {"label": "*4", "atom_type": "Cs"}, "3": {"label": "*3", "atom_type": "Cs"}, "15": {"label": "*0", "atom_type": "Cd"}, "16": {"label": "*1", "atom_type": "Cs"}, "20": {"label": "*2", "atom_type": "H0"}}

>  <type>  (18) 
unop_14

>  <geom_source>  (18) 
gaussian_log

$$$$
