
     RDKit          3D

  8  7  0  0  0  0  0  0  0  0999 V2000
   -1.0119   -0.1138    0.0343 C   0  0  0  0  0  0  0  0  0  0  0  0
    0.1635    0.6127    0.4537 N   0  0  0  0  0  0  0  0  0  0  0  0
    1.2806    0.2308    0.0237 C   0  0  0  0  0  0  0  0  0  0  0  0
   -1.5282   -0.4917    0.9187 H   0  0  0  0  0  0  0  0  0  0  0  0
   -1.6952    0.5767   -0.4637 H   0  0  0  0  0  0  0  0  0  0  0  0
   -0.7939   -0.9530   -0.6406 H   0  0  0  0  0  0  0  0  0  0  0  0
    2.1799    0.7636    0.3269 H   0  0  0  0  0  0  0  0  0  0  0  0
    1.4052   -0.6254   -0.6530 H   0  0  0  0  0  0  0  0  0  0  0  0
  1  2  1  0
  1  4  1  0
  1  5  1  0
  1  6  1  0
  2  3  2  3
  3  7  1  0
  3  8  1  0
M  END
>  <reaction>  (1) 
rxn_702

>  <mol_properties>  (1) 
{"0": {"label": "donator", "atom_type": "Cs"}, "3": {"label": "d_hydrogen", "atom_type": "H0"}}

>  <type>  (1) 
r1h

$$$$

     RDKit          3D

  1  0  0  0  0  0  0  0  0  0999 V2000
    0.0000    0.0000    0.0000 O   0  0  0  0  0 15  0  0  0  0  0  0
M  END
>  <reaction>  (2) 
rxn_702

>  <mol_properties>  (2) 
{"0": {"label": "acceptor", "atom_type": "O2s"}}

>  <type>  (2) 
r2

$$$$

     RDKit          3D

  2  1  0  0  0  0  0  0  0  0999 V2000
    0.0000    0.0000    0.4855 O   0  0  0  0  0  1  0  0  0  0  0  0
    0.0000    0.0000   -0.4855 H   0  0  0  0  0  0  0  0  0  0  0  0
  1  2  1  0
M  RAD  1   1   2
M  END
>  <reaction>  (3) 
rxn_702

>  <mol_properties>  (3) 
{"0": {"label": "a_hydrogen", "atom_type": "H0"}, "1": {"label": "acceptor", "atom_type": "O2s"}}

>  <type>  (3) 
r2h

$$$$

     RDKit          3D

  9  7  0  0  0  0  0  0  0  0999 V2000
    0.6596    0.5459    0.2344 C   0  0  0  0  0  0  0  0  0  0  0  0
    0.7078   -0.6964   -0.4311 N   0  0  0  0  0  0  0  0  0  0  0  0
    0.4884   -0.7101   -1.6763 C   0  0  0  0  0  0  0  0  0  0  0  0
   -0.3943    0.5695    0.8706 H   0  0  0  0  0  0  0  0  0  0  0  0
    1.4051    0.6281    1.0226 H   0  0  0  0  0  0  0  0  0  0  0  0
    0.5920    1.4406   -0.3971 H   0  0  0  0  0  0  0  0  0  0  0  0
    0.4980   -1.6597   -2.2054 H   0  0  0  0  0  0  0  0  0  0  0  0
    0.2913    0.1969   -2.2607 H   0  0  0  0  0  0  0  0  0  0  0  0
   -1.5345    0.6590    1.5006 O   0  0  0  0  0 15  0  0  0  0  0  0
  1  2  1  0
  1  4  1  0
  1  5  1  0
  1  6  1  0
  2  3  2  3
  3  7  1  0
  3  8  1  0
M  END
>  <reaction>  (4) 
rxn_702

>  <mol_properties>  (4) 
{"0": {"label": "*1", "atom_type": "Cs"}, "1": {"label": "*0", "atom_type": "N3d"}, "3": {"label": "*2", "atom_type": "H0"}, "8": {"label": "*3", "atom_type": "O2s"}}

>  <type>  (4) 
ts

$$$$

     RDKit          3D

  9  7  0  0  0  0  0  0  0  0999 V2000
    0.5421    0.5543    0.2307 C   0  0  0  0  0  0  0  0  0  0  0  0
    0.5421   -0.7192   -0.4501 N   0  0  0  0  0  0  0  0  0  0  0  0
    0.5421   -0.7192   -1.7065 C   0  0  0  0  0  3  0  0  0  0  0  0
   -0.5110    0.6204    1.0070 H   0  0  0  0  0  0  0  0  0  0  0  0
    1.4196    0.6094    0.8776 H   0  0  0  0  0  0  0  0  0  0  0  0
    0.5421    1.4175   -0.4492 H   0  0  0  0  0  0  0  0  0  0  0  0
    0.5421   -1.6676   -2.2403 H   0  0  0  0  0  0  0  0  0  0  0  0
    0.5421    0.1992   -2.3091 H   0  0  0  0  0  0  0  0  0  0  0  0
   -1.4477    0.6791    1.6975 O   0  0  0  0  0  1  0  0  0  0  0  0
  1  2  2  3
  1  5  1  0
  1  6  1  0
  2  3  1  0
  3  7  1  0
  3  8  1  0
  4  9  1  0
M  RAD  2   3   2   9   2
M  END
>  <reaction>  (5) 
rxn_702

>  <mol_properties>  (5) 
{"0": {"label": "*1", "atom_type": "Cs"}, "1": {"label": "*0", "atom_type": "N3d"}, "3": {"label": "*2", "atom_type": "H0"}, "8": {"label": "*3", "atom_type": "O2s"}}

>  <type>  (5) 
unop_1

>  <geom_source>  (5) 
Heuristics

$$$$

     RDKit          3D

  9  7  0  0  0  0  0  0  0  0999 V2000
   -2.3461   -0.2520    1.0366 O   0  0  0  0  0  1  0  0  0  0  0  0
    0.7336   -0.1430   -0.7337 N   0  0  0  0  0  0  0  0  0  0  0  0
   -0.5690    0.3963   -0.4383 C   0  0  0  0  0  0  0  0  0  0  0  0
    1.5520   -0.4653    0.2019 C   0  0  0  0  0  3  0  0  0  0  0  0
   -1.1424    0.5112   -1.3810 H   0  0  0  0  0  0  0  0  0  0  0  0
   -0.4675    1.3898    0.0485 H   0  0  0  0  0  0  0  0  0  0  0  0
    2.5260   -0.8688   -0.0519 H   0  0  0  0  0  0  0  0  0  0  0  0
    1.2866   -0.3417    1.2488 H   0  0  0  0  0  0  0  0  0  0  0  0
   -1.5732   -0.2266    0.0692 H   0  0  0  0  0  0  0  0  0  0  0  0
  1  9  1  0
  2  3  2  3
  2  4  1  0
  3  5  1  0
  3  6  1  0
  4  7  1  0
  4  8  1  0
M  RAD  2   1   2   4   2
M  END
>  <reaction>  (6) 
rxn_702

>  <mol_properties>  (6) 
{"0": {"label": "*1", "atom_type": "Cs"}, "1": {"label": "*0", "atom_type": "N3d"}, "3": {"label": "*2", "atom_type": "H0"}, "8": {"label": "*3", "atom_type": "O2s"}}

>  <type>  (6) 
unop_2

>  <geom_source>  (6) 
AutoTST

$$$$

     RDKit          3D

  9  7  0  0  0  0  0  0  0  0999 V2000
   -1.7390    1.9184    0.2213 O   0  0  0  0  0 15  0  0  0  0  0  0
    0.6155   -0.5089    0.5583 N   0  0  0  0  0  0  0  0  0  0  0  0
   -0.7827   -0.2984    0.2752 C   0  0  0  0  0  0  0  0  0  0  0  0
    1.5280   -0.2415   -0.3059 C   0  0  0  0  0  0  0  0  0  0  0  0
   -0.9870    0.8964    0.0118 H   0  0  0  0  0  0  0  0  0  0  0  0
   -1.0978   -0.9300   -0.5830 H   0  0  0  0  0  0  0  0  0  0  0  0
   -1.3819   -0.5782    1.1659 H   0  0  0  0  0  0  0  0  0  0  0  0
    2.5696   -0.4127   -0.0576 H   0  0  0  0  0  0  0  0  0  0  0  0
    1.2755    0.1549   -1.2860 H   0  0  0  0  0  0  0  0  0  0  0  0
  2  4  2  3
  2  3  1  0
  3  5  1  0
  3  6  1  0
  3  7  1  0
  4  8  1  0
  4  9  1  0
M  END
>  <reaction>  (7) 
rxn_702

>  <mol_properties>  (7) 
{"0": {"label": "*1", "atom_type": "Cs"}, "1": {"label": "*0", "atom_type": "N3d"}, "3": {"label": "*2", "atom_type": "H0"}, "8": {"label": "*3", "atom_type": "O2s"}}

>  <type>  (7) 
unop_3

>  <geom_source>  (7) 
gaussian_log

$$$$
