
     RDKit          3D

 14 13  0  0  0  0  0  0  0  0999 V2000
   -0.7647   -1.2352   -0.0349 C   0  0  0  0  0  0  0  0  0  0  0  0
    0.0570   -0.0126    0.3624 C   0  0  0  0  0  0  0  0  0  0  0  0
    1.4161   -0.0194   -0.3308 C   0  0  0  0  0  0  0  0  0  0  0  0
   -0.7022    1.2765    0.0629 C   0  0  0  0  0  0  0  0  0  0  0  0
   -0.2387   -2.1618    0.2040 H   0  0  0  0  0  0  0  0  0  0  0  0
   -0.9625   -1.2316   -1.1108 H   0  0  0  0  0  0  0  0  0  0  0  0
   -1.7273   -1.2512    0.4806 H   0  0  0  0  0  0  0  0  0  0  0  0
    0.2295   -0.0590    1.4432 H   0  0  0  0  0  0  0  0  0  0  0  0
    1.2933    0.0260   -1.4168 H   0  0  0  0  0  0  0  0  0  0  0  0
    2.0206    0.8381   -0.0279 H   0  0  0  0  0  0  0  0  0  0  0  0
    1.9767   -0.9268   -0.0966 H   0  0  0  0  0  0  0  0  0  0  0  0
   -1.6639    1.3001    0.5798 H   0  0  0  0  0  0  0  0  0  0  0  0
   -0.8977    1.3664   -1.0096 H   0  0  0  0  0  0  0  0  0  0  0  0
   -0.1313    2.1545    0.3722 H   0  0  0  0  0  0  0  0  0  0  0  0
  1  2  1  0
  1  5  1  0
  1  6  1  0
  1  7  1  0
  2  3  1  0
  2  4  1  0
  2  8  1  0
  3  9  1  0
  3 10  1  0
  3 11  1  0
  4 12  1  0
  4 13  1  0
  4 14  1  0
M  END
>  <reaction>  (1) 
rxn_960

>  <mol_properties>  (1) 
{"1": {"label": "donator", "atom_type": "Cs"}, "7": {"label": "d_hydrogen", "atom_type": "H0"}}

>  <type>  (1) 
r1h

$$$$

     RDKit          3D

 15 14  0  0  0  0  0  0  0  0999 V2000
    2.4381    0.5770   -0.2356 C   0  0  0  0  0  0  0  0  0  0  0  0
    1.4430   -0.3367   -0.1409 C   0  0  0  0  0  0  0  0  0  0  0  0
    0.0521   -0.0957   -0.0045 C   0  0  0  0  0  3  0  0  0  0  0  0
   -0.5167    1.2867    0.0548 C   0  0  0  0  0  0  0  0  0  0  0  0
   -0.8226   -1.2147    0.0778 C   0  0  0  0  0  0  0  0  0  0  0  0
   -2.1666   -1.1669    0.2092 C   0  0  0  0  0  0  0  0  0  0  0  0
    3.4666    0.2585   -0.3369 H   0  0  0  0  0  0  0  0  0  0  0  0
    2.2594    1.6438   -0.2152 H   0  0  0  0  0  0  0  0  0  0  0  0
    1.7306   -1.3845   -0.1719 H   0  0  0  0  0  0  0  0  0  0  0  0
   -1.2300    1.4469   -0.7583 H   0  0  0  0  0  0  0  0  0  0  0  0
    0.2481    2.0557   -0.0178 H   0  0  0  0  0  0  0  0  0  0  0  0
   -1.0592    1.4421    0.9914 H   0  0  0  0  0  0  0  0  0  0  0  0
   -0.3519   -2.1929    0.0292 H   0  0  0  0  0  0  0  0  0  0  0  0
   -2.7080   -0.2310    0.2646 H   0  0  0  0  0  0  0  0  0  0  0  0
   -2.7513   -2.0751    0.2638 H   0  0  0  0  0  0  0  0  0  0  0  0
  1  2  2  3
  1  7  1  0
  1  8  1  0
  2  3  1  0
  2  9  1  0
  3  4  1  0
  3  5  1  0
  4 10  1  0
  4 11  1  0
  4 12  1  0
  5  6  2  3
  5 13  1  0
  6 14  1  0
  6 15  1  0
M  RAD  1   3   2
M  END
>  <reaction>  (2) 
rxn_960

>  <mol_properties>  (2) 
{"2": {"label": "acceptor", "atom_type": "Cs"}}

>  <type>  (2) 
r2

$$$$

     RDKit          3D

 16 15  0  0  0  0  0  0  0  0999 V2000
    1.7961   -0.3807    1.6176 C   0  0  0  0  0  0  0  0  0  0  0  0
    0.8562   -0.8708    0.8256 C   0  0  0  0  0  0  0  0  0  0  0  0
    0.0895   -0.0826   -0.2048 C   0  0  0  0  0  0  0  0  0  0  0  0
   -1.4061   -0.1111    0.0982 C   0  0  0  0  0  0  0  0  0  0  0  0
    0.4476   -0.5902   -1.5797 C   0  0  0  0  0  0  0  0  0  0  0  0
   -0.3793   -1.1113   -2.4728 C   0  0  0  0  0  0  0  0  0  0  0  0
    2.3110   -1.0032    2.3386 H   0  0  0  0  0  0  0  0  0  0  0  0
    2.0846    0.6643    1.5737 H   0  0  0  0  0  0  0  0  0  0  0  0
    0.5921   -1.9241    0.8925 H   0  0  0  0  0  0  0  0  0  0  0  0
    0.4358    0.9557   -0.1462 H   0  0  0  0  0  0  0  0  0  0  0  0
   -1.5968    0.3080    1.0865 H   0  0  0  0  0  0  0  0  0  0  0  0
   -1.9674    0.4693   -0.6359 H   0  0  0  0  0  0  0  0  0  0  0  0
   -1.7902   -1.1338    0.0883 H   0  0  0  0  0  0  0  0  0  0  0  0
    1.5049   -0.5197   -1.8214 H   0  0  0  0  0  0  0  0  0  0  0  0
   -1.4421   -1.2131   -2.2889 H   0  0  0  0  0  0  0  0  0  0  0  0
   -0.0162   -1.4558   -3.4328 H   0  0  0  0  0  0  0  0  0  0  0  0
  1  2  2  3
  1  7  1  0
  1  8  1  0
  2  3  1  0
  2  9  1  0
  3  4  1  0
  3  5  1  0
  3 10  1  0
  4 11  1  0
  4 12  1  0
  4 13  1  0
  5  6  2  3
  5 14  1  0
  6 15  1  0
  6 16  1  0
M  END
>  <reaction>  (3) 
rxn_960

>  <mol_properties>  (3) 
{"2": {"label": "acceptor", "atom_type": "Cs"}, "15": {"label": "a_hydrogen", "atom_type": "H0"}}

>  <type>  (3) 
r2h

$$$$

     RDKit          3D

 29 27  0  0  0  0  0  0  0  0999 V2000
    0.9137   -2.7136   -0.7143 C   0  0  0  0  0  0  0  0  0  0  0  0
    0.3930   -1.9143    0.2129 C   0  0  0  0  0  0  0  0  0  0  0  0
    0.7339   -0.4960    0.4640 C   0  0  0  0  0  0  0  0  0  0  0  0
    1.9392    0.0463   -0.2712 C   0  0  0  0  0  0  0  0  0  0  0  0
    0.6062   -0.1159    1.8888 C   0  0  0  0  0  0  0  0  0  0  0  0
    1.3286    0.7865    2.5473 C   0  0  0  0  0  0  0  0  0  0  0  0
    0.5661   -3.7323   -0.8262 H   0  0  0  0  0  0  0  0  0  0  0  0
    1.7048   -2.3922   -1.3804 H   0  0  0  0  0  0  0  0  0  0  0  0
   -0.3905   -2.3153    0.8522 H   0  0  0  0  0  0  0  0  0  0  0  0
    2.0153    1.1270   -0.1467 H   0  0  0  0  0  0  0  0  0  0  0  0
    1.8634   -0.1541   -1.3405 H   0  0  0  0  0  0  0  0  0  0  0  0
    2.8651   -0.4051    0.0954 H   0  0  0  0  0  0  0  0  0  0  0  0
   -0.1902   -0.6251    2.4272 H   0  0  0  0  0  0  0  0  0  0  0  0
    2.1456    1.3263    2.0847 H   0  0  0  0  0  0  0  0  0  0  0  0
    1.1276    1.0048    3.5880 H   0  0  0  0  0  0  0  0  0  0  0  0
   -1.1667    0.4391   -2.1758 C   0  0  0  0  0  0  0  0  0  0  0  0
   -1.2954    0.8693   -0.7430 C   0  0  0  0  0  3  0  0  0  0  0  0
   -0.9464    2.2985   -0.4431 C   0  0  0  0  0  0  0  0  0  0  0  0
   -2.4861    0.3247   -0.0072 C   0  0  0  0  0  0  0  0  0  0  0  0
   -0.2253    0.7796   -2.6114 H   0  0  0  0  0  0  0  0  0  0  0  0
   -1.9797    0.8563   -2.7853 H   0  0  0  0  0  0  0  0  0  0  0  0
   -1.2122   -0.6483   -2.2667 H   0  0  0  0  0  0  0  0  0  0  0  0
   -0.2222    0.1213   -0.0768 H   0  0  0  0  0  0  0  0  0  0  0  0
   -1.7282    2.9784   -0.8079 H   0  0  0  0  0  0  0  0  0  0  0  0
   -0.8435    2.4622    0.6318 H   0  0  0  0  0  0  0  0  0  0  0  0
   -0.0107    2.5900   -0.9244 H   0  0  0  0  0  0  0  0  0  0  0  0
   -2.5736   -0.7560   -0.1410 H   0  0  0  0  0  0  0  0  0  0  0  0
   -3.4164    0.7772   -0.3744 H   0  0  0  0  0  0  0  0  0  0  0  0
   -2.4205    0.5358    1.0628 H   0  0  0  0  0  0  0  0  0  0  0  0
  1  2  2  3
  1  7  1  0
  1  8  1  0
  2  3  1  0
  2  9  1  0
  3  4  1  0
  3  5  1  0
  3 23  1  0
  4 10  1  0
  4 11  1  0
  4 12  1  0
  5  6  2  3
  5 13  1  0
  6 14  1  0
  6 15  1  0
 16 17  1  0
 16 20  1  0
 16 21  1  0
 16 22  1  0
 17 18  1  0
 17 19  1  0
 18 24  1  0
 18 25  1  0
 18 26  1  0
 19 27  1  0
 19 28  1  0
 19 29  1  0
M  RAD  1  17   2
M  END
>  <reaction>  (4) 
rxn_960

>  <mol_properties>  (4) 
{"1": {"label": "*0", "atom_type": "Cd"}, "2": {"label": "*1", "atom_type": "Cs"}, "15": {"label": "*4", "atom_type": "Cs"}, "16": {"label": "*3", "atom_type": "Cs"}, "22": {"label": "*2", "atom_type": "H0"}}

>  <type>  (4) 
ts

$$$$

     RDKit          3D

 29 27  0  0  0  0  0  0  0  0999 V2000
    1.6975    1.8042    0.7975 C   0  0  0  0  0  0  0  0  0  0  0  0
    1.5825    0.5158    1.0762 C   0  0  0  0  0  0  0  0  0  0  0  0
    0.8147   -0.4865    0.2537 C   0  0  0  0  0  3  0  0  0  0  0  0
   -0.2978   -1.1238    1.0817 C   0  0  0  0  0  0  0  0  0  0  0  0
    1.7822   -1.4788   -0.3426 C   0  0  0  0  0  0  0  0  0  0  0  0
    1.7949   -2.7884   -0.1488 C   0  0  0  0  0  0  0  0  0  0  0  0
    2.2663    2.4726    1.4316 H   0  0  0  0  0  0  0  0  0  0  0  0
    1.2245    2.2382   -0.0772 H   0  0  0  0  0  0  0  0  0  0  0  0
    2.0717    0.1111    1.9597 H   0  0  0  0  0  0  0  0  0  0  0  0
   -0.8679   -1.8410    0.4889 H   0  0  0  0  0  0  0  0  0  0  0  0
   -0.9823   -0.3565    1.4443 H   0  0  0  0  0  0  0  0  0  0  0  0
    0.1086   -1.6476    1.9500 H   0  0  0  0  0  0  0  0  0  0  0  0
    2.5432   -1.0347   -0.9790 H   0  0  0  0  0  0  0  0  0  0  0  0
    1.0667   -3.2888    0.4781 H   0  0  0  0  0  0  0  0  0  0  0  0
    2.5431   -3.4133   -0.6198 H   0  0  0  0  0  0  0  0  0  0  0  0
   -1.3934    0.6906   -2.0815 C   0  0  0  0  0  0  0  0  0  0  0  0
   -1.3934    0.6906   -0.5558 C   0  0  0  0  0  0  0  0  0  0  0  0
   -1.3934    2.1153   -0.0097 C   0  0  0  0  0  0  0  0  0  0  0  0
   -2.5762   -0.1034   -0.0097 C   0  0  0  0  0  0  0  0  0  0  0  0
   -0.5326    1.2329   -2.4785 H   0  0  0  0  0  0  0  0  0  0  0  0
   -2.2973    1.1726   -2.4653 H   0  0  0  0  0  0  0  0  0  0  0  0
   -1.3639   -0.3262   -2.4785 H   0  0  0  0  0  0  0  0  0  0  0  0
   -0.2897    0.1023   -0.1512 H   0  0  0  0  0  0  0  0  0  0  0  0
   -2.2974    2.6461   -0.3223 H   0  0  0  0  0  0  0  0  0  0  0  0
   -1.3638    2.1221    1.0819 H   0  0  0  0  0  0  0  0  0  0  0  0
   -0.5327    2.6801   -0.3740 H   0  0  0  0  0  0  0  0  0  0  0  0
   -2.5655   -1.1328   -0.3741 H   0  0  0  0  0  0  0  0  0  0  0  0
   -3.5208    0.3513   -0.3222 H   0  0  0  0  0  0  0  0  0  0  0  0
   -2.5653   -0.1319    1.0819 H   0  0  0  0  0  0  0  0  0  0  0  0
  1  2  2  3
  1  7  1  0
  1  8  1  0
  2  3  1  0
  2  9  1  0
  3  4  1  0
  3  5  1  0
  4 10  1  0
  4 11  1  0
  4 12  1  0
  5  6  2  3
  5 13  1  0
  6 14  1  0
  6 15  1  0
 16 17  1  0
 16 20  1  0
 16 21  1  0
 16 22  1  0
 17 18  1  0
 17 19  1  0
 17 23  1  0
 18 24  1  0
 18 25  1  0
 18 26  1  0
 19 27  1  0
 19 28  1  0
 19 29  1  0
M  RAD  1   3   2
M  END
>  <reaction>  (5) 
rxn_960

>  <mol_properties>  (5) 
{"1": {"label": "*0", "atom_type": "Cd"}, "2": {"label": "*1", "atom_type": "Cs"}, "15": {"label": "*4", "atom_type": "Cs"}, "16": {"label": "*3", "atom_type": "Cs"}, "22": {"label": "*2", "atom_type": "H0"}}

>  <type>  (5) 
unop_1

>  <geom_source>  (5) 
Heuristics

$$$$

     RDKit          3D

 29 27  0  0  0  0  0  0  0  0999 V2000
    1.6290    0.1908   -1.9129 C   0  0  0  0  0  0  0  0  0  0  0  0
    1.8670   -0.1587   -0.6591 C   0  0  0  0  0  0  0  0  0  0  0  0
    0.8132   -0.4119    0.3879 C   0  0  0  0  0  3  0  0  0  0  0  0
    0.9811    0.5462    1.5640 C   0  0  0  0  0  0  0  0  0  0  0  0
    0.8431   -1.8700    0.7742 C   0  0  0  0  0  0  0  0  0  0  0  0
    1.0748   -2.3664    1.9795 C   0  0  0  0  0  0  0  0  0  0  0  0
    2.4342    0.3574   -2.6174 H   0  0  0  0  0  0  0  0  0  0  0  0
    0.6171    0.3241   -2.2807 H   0  0  0  0  0  0  0  0  0  0  0  0
    2.8935   -0.2871   -0.3223 H   0  0  0  0  0  0  0  0  0  0  0  0
    0.2128    0.3786    2.3207 H   0  0  0  0  0  0  0  0  0  0  0  0
    0.9062    1.5783    1.2208 H   0  0  0  0  0  0  0  0  0  0  0  0
    1.9575    0.4207    2.0377 H   0  0  0  0  0  0  0  0  0  0  0  0
    0.6680   -2.5553   -0.0511 H   0  0  0  0  0  0  0  0  0  0  0  0
    1.2611   -1.7356    2.8403 H   0  0  0  0  0  0  0  0  0  0  0  0
    1.0829   -3.4357    2.1487 H   0  0  0  0  0  0  0  0  0  0  0  0
   -1.3948    0.7652   -1.9473 C   0  0  0  0  0  0  0  0  0  0  0  0
   -1.3948    0.7652   -0.4216 C   0  0  0  0  0  0  0  0  0  0  0  0
   -1.3948    2.1899    0.1245 C   0  0  0  0  0  0  0  0  0  0  0  0
   -2.5776   -0.0289    0.1245 C   0  0  0  0  0  0  0  0  0  0  0  0
   -0.5341    1.3075   -2.3443 H   0  0  0  0  0  0  0  0  0  0  0  0
   -2.2988    1.2472   -2.3310 H   0  0  0  0  0  0  0  0  0  0  0  0
   -1.3654   -0.2516   -2.3443 H   0  0  0  0  0  0  0  0  0  0  0  0
   -0.2911    0.1768   -0.0170 H   0  0  0  0  0  0  0  0  0  0  0  0
   -2.2988    2.7207   -0.1881 H   0  0  0  0  0  0  0  0  0  0  0  0
   -1.3653    2.1966    1.2161 H   0  0  0  0  0  0  0  0  0  0  0  0
   -0.5342    2.7547   -0.2398 H   0  0  0  0  0  0  0  0  0  0  0  0
   -2.5670   -1.0582   -0.2399 H   0  0  0  0  0  0  0  0  0  0  0  0
   -3.5223    0.4259   -0.1880 H   0  0  0  0  0  0  0  0  0  0  0  0
   -2.5667   -0.0573    1.2161 H   0  0  0  0  0  0  0  0  0  0  0  0
  1  2  2  3
  1  7  1  0
  1  8  1  0
  2  3  1  0
  2  9  1  0
  3  4  1  0
  3  5  1  0
  4 10  1  0
  4 11  1  0
  4 12  1  0
  5  6  2  3
  5 13  1  0
  6 14  1  0
  6 15  1  0
 16 17  1  0
 16 20  1  0
 16 21  1  0
 16 22  1  0
 17 18  1  0
 17 19  1  0
 17 23  1  0
 18 24  1  0
 18 25  1  0
 18 26  1  0
 19 27  1  0
 19 28  1  0
 19 29  1  0
M  RAD  1   3   2
M  END
>  <reaction>  (6) 
rxn_960

>  <mol_properties>  (6) 
{"1": {"label": "*0", "atom_type": "Cd"}, "2": {"label": "*1", "atom_type": "Cs"}, "15": {"label": "*4", "atom_type": "Cs"}, "16": {"label": "*3", "atom_type": "Cs"}, "22": {"label": "*2", "atom_type": "H0"}}

>  <type>  (6) 
unop_2

>  <geom_source>  (6) 
Heuristics

$$$$

     RDKit          3D

 29 27  0  0  0  0  0  0  0  0999 V2000
    0.8925    1.3524    1.9651 C   0  0  0  0  0  0  0  0  0  0  0  0
    1.1858    0.1196    1.5842 C   0  0  0  0  0  0  0  0  0  0  0  0
    0.8086   -0.4943    0.2607 C   0  0  0  0  0  3  0  0  0  0  0  0
   -0.0703   -1.7246    0.4685 C   0  0  0  0  0  0  0  0  0  0  0  0
    2.0632   -0.7625   -0.5331 C   0  0  0  0  0  0  0  0  0  0  0  0
    2.4872   -1.9371   -0.9731 C   0  0  0  0  0  0  0  0  0  0  0  0
    1.1947    1.7337    2.9325 H   0  0  0  0  0  0  0  0  0  0  0  0
    0.3370    2.0264    1.3215 H   0  0  0  0  0  0  0  0  0  0  0  0
    1.7469   -0.5304    2.2522 H   0  0  0  0  0  0  0  0  0  0  0  0
   -0.3596   -2.1673   -0.4861 H   0  0  0  0  0  0  0  0  0  0  0  0
   -0.9767   -1.4513    1.0094 H   0  0  0  0  0  0  0  0  0  0  0  0
    0.4511   -2.4868    1.0522 H   0  0  0  0  0  0  0  0  0  0  0  0
    2.6644    0.1209   -0.7320 H   0  0  0  0  0  0  0  0  0  0  0  0
    1.9355   -2.8537   -0.8025 H   0  0  0  0  0  0  0  0  0  0  0  0
    3.4123   -2.0220   -1.5293 H   0  0  0  0  0  0  0  0  0  0  0  0
   -1.3994    0.6828   -2.0744 C   0  0  0  0  0  0  0  0  0  0  0  0
   -1.3994    0.6828   -0.5487 C   0  0  0  0  0  0  0  0  0  0  0  0
   -1.3994    2.1075   -0.0026 C   0  0  0  0  0  0  0  0  0  0  0  0
   -2.5822   -0.1113   -0.0026 C   0  0  0  0  0  0  0  0  0  0  0  0
   -0.5387    1.2251   -2.4715 H   0  0  0  0  0  0  0  0  0  0  0  0
   -2.3034    1.1648   -2.4582 H   0  0  0  0  0  0  0  0  0  0  0  0
   -1.3700   -0.3340   -2.4715 H   0  0  0  0  0  0  0  0  0  0  0  0
   -0.2957    0.0944   -0.1441 H   0  0  0  0  0  0  0  0  0  0  0  0
   -2.3034    2.6383   -0.3153 H   0  0  0  0  0  0  0  0  0  0  0  0
   -1.3699    2.1142    1.0890 H   0  0  0  0  0  0  0  0  0  0  0  0
   -0.5387    2.6723   -0.3669 H   0  0  0  0  0  0  0  0  0  0  0  0
   -2.5716   -1.1406   -0.3670 H   0  0  0  0  0  0  0  0  0  0  0  0
   -3.5268    0.3435   -0.3151 H   0  0  0  0  0  0  0  0  0  0  0  0
   -2.5713   -0.1397    1.0890 H   0  0  0  0  0  0  0  0  0  0  0  0
  1  2  2  3
  1  7  1  0
  1  8  1  0
  2  3  1  0
  2  9  1  0
  3  4  1  0
  3  5  1  0
  4 10  1  0
  4 11  1  0
  4 12  1  0
  5  6  2  3
  5 13  1  0
  6 14  1  0
  6 15  1  0
 16 17  1  0
 16 20  1  0
 16 21  1  0
 16 22  1  0
 17 18  1  0
 17 19  1  0
 17 23  1  0
 18 24  1  0
 18 25  1  0
 18 26  1  0
 19 27  1  0
 19 28  1  0
 19 29  1  0
M  RAD  1   3   2
M  END
>  <reaction>  (7) 
rxn_960

>  <mol_properties>  (7) 
{"1": {"label": "*0", "atom_type": "Cd"}, "2": {"label": "*1", "atom_type": "Cs"}, "15": {"label": "*4", "atom_type": "Cs"}, "16": {"label": "*3", "atom_type": "Cs"}, "22": {"label": "*2", "atom_type": "H0"}}

>  <type>  (7) 
unop_3

>  <geom_source>  (7) 
Heuristics

$$$$

     RDKit          3D

 29 27  0  0  0  0  0  0  0  0999 V2000
    0.4688   -2.1191   -1.4613 C   0  0  0  0  0  0  0  0  0  0  0  0
    1.0476   -1.7447   -0.3318 C   0  0  0  0  0  0  0  0  0  0  0  0
    1.0611   -0.3403    0.2143 C   0  0  0  0  0  3  0  0  0  0  0  0
    2.4929    0.1687    0.3564 C   0  0  0  0  0  0  0  0  0  0  0  0
    0.2656   -0.3024    1.4956 C   0  0  0  0  0  0  0  0  0  0  0  0
    0.7094    0.0414    2.6947 C   0  0  0  0  0  0  0  0  0  0  0  0
    0.4952   -3.1480   -1.7976 H   0  0  0  0  0  0  0  0  0  0  0  0
   -0.0530   -1.4076   -2.0925 H   0  0  0  0  0  0  0  0  0  0  0  0
    1.5605   -2.4836    0.2802 H   0  0  0  0  0  0  0  0  0  0  0  0
    2.5110    1.1908    0.7382 H   0  0  0  0  0  0  0  0  0  0  0  0
    2.9941    0.1546   -0.6118 H   0  0  0  0  0  0  0  0  0  0  0  0
    3.0680   -0.4597    1.0404 H   0  0  0  0  0  0  0  0  0  0  0  0
   -0.7711   -0.6108    1.3880 H   0  0  0  0  0  0  0  0  0  0  0  0
    1.7327    0.3527    2.8667 H   0  0  0  0  0  0  0  0  0  0  0  0
    0.0539    0.0255    3.5562 H   0  0  0  0  0  0  0  0  0  0  0  0
   -1.1469    0.8368   -2.1209 C   0  0  0  0  0  0  0  0  0  0  0  0
   -1.1469    0.8368   -0.5952 C   0  0  0  0  0  0  0  0  0  0  0  0
   -1.1469    2.2615   -0.0491 C   0  0  0  0  0  0  0  0  0  0  0  0
   -2.3297    0.0428   -0.0491 C   0  0  0  0  0  0  0  0  0  0  0  0
   -0.2862    1.3791   -2.5179 H   0  0  0  0  0  0  0  0  0  0  0  0
   -2.0509    1.3188   -2.5047 H   0  0  0  0  0  0  0  0  0  0  0  0
   -1.1175   -0.1800   -2.5179 H   0  0  0  0  0  0  0  0  0  0  0  0
   -0.0432    0.2485   -0.1906 H   0  0  0  0  0  0  0  0  0  0  0  0
   -2.0509    2.7923   -0.3617 H   0  0  0  0  0  0  0  0  0  0  0  0
   -1.1174    2.2683    1.0425 H   0  0  0  0  0  0  0  0  0  0  0  0
   -0.2862    2.8263   -0.4134 H   0  0  0  0  0  0  0  0  0  0  0  0
   -2.3191   -0.9866   -0.4135 H   0  0  0  0  0  0  0  0  0  0  0  0
   -3.2743    0.4975   -0.3616 H   0  0  0  0  0  0  0  0  0  0  0  0
   -2.3188    0.0143    1.0425 H   0  0  0  0  0  0  0  0  0  0  0  0
  1  2  2  3
  1  7  1  0
  1  8  1  0
  2  3  1  0
  2  9  1  0
  3  4  1  0
  3  5  1  0
  4 10  1  0
  4 11  1  0
  4 12  1  0
  5  6  2  3
  5 13  1  0
  6 14  1  0
  6 15  1  0
 16 17  1  0
 16 20  1  0
 16 21  1  0
 16 22  1  0
 17 18  1  0
 17 19  1  0
 17 23  1  0
 18 24  1  0
 18 25  1  0
 18 26  1  0
 19 27  1  0
 19 28  1  0
 19 29  1  0
M  RAD  1   3   2
M  END
>  <reaction>  (8) 
rxn_960

>  <mol_properties>  (8) 
{"1": {"label": "*0", "atom_type": "Cd"}, "2": {"label": "*1", "atom_type": "Cs"}, "15": {"label": "*4", "atom_type": "Cs"}, "16": {"label": "*3", "atom_type": "Cs"}, "22": {"label": "*2", "atom_type": "H0"}}

>  <type>  (8) 
unop_4

>  <geom_source>  (8) 
Heuristics

$$$$

     RDKit          3D

 29 27  0  0  0  0  0  0  0  0999 V2000
   -0.1463   -0.0335    2.4993 C   0  0  0  0  0  0  0  0  0  0  0  0
    0.7990   -0.5731    1.7469 C   0  0  0  0  0  0  0  0  0  0  0  0
    0.8125   -0.5803    0.2401 C   0  0  0  0  0  3  0  0  0  0  0  0
    0.8205   -2.0109   -0.2918 C   0  0  0  0  0  0  0  0  0  0  0  0
    1.9656    0.2624   -0.2461 C   0  0  0  0  0  0  0  0  0  0  0  0
    2.9815   -0.1395   -0.9940 C   0  0  0  0  0  0  0  0  0  0  0  0
   -0.0953   -0.0621    3.5805 H   0  0  0  0  0  0  0  0  0  0  0  0
   -1.0083    0.4570    2.0594 H   0  0  0  0  0  0  0  0  0  0  0  0
    1.6523   -1.0552    2.2192 H   0  0  0  0  0  0  0  0  0  0  0  0
    0.8162   -2.0249   -1.3830 H   0  0  0  0  0  0  0  0  0  0  0  0
   -0.0597   -2.5479    0.0624 H   0  0  0  0  0  0  0  0  0  0  0  0
    1.7045   -2.5534    0.0514 H   0  0  0  0  0  0  0  0  0  0  0  0
    1.9341    1.2974    0.0844 H   0  0  0  0  0  0  0  0  0  0  0  0
    3.0717   -1.1587   -1.3500 H   0  0  0  0  0  0  0  0  0  0  0  0
    3.7668    0.5480   -1.2818 H   0  0  0  0  0  0  0  0  0  0  0  0
   -1.3956    0.5968   -2.0951 C   0  0  0  0  0  0  0  0  0  0  0  0
   -1.3956    0.5968   -0.5694 C   0  0  0  0  0  0  0  0  0  0  0  0
   -1.3956    2.0215   -0.0233 C   0  0  0  0  0  0  0  0  0  0  0  0
   -2.5784   -0.1973   -0.0233 C   0  0  0  0  0  0  0  0  0  0  0  0
   -0.5348    1.1391   -2.4921 H   0  0  0  0  0  0  0  0  0  0  0  0
   -2.2995    1.0788   -2.4789 H   0  0  0  0  0  0  0  0  0  0  0  0
   -1.3661   -0.4200   -2.4921 H   0  0  0  0  0  0  0  0  0  0  0  0
   -0.2919    0.0084   -0.1648 H   0  0  0  0  0  0  0  0  0  0  0  0
   -2.2995    2.5523   -0.3359 H   0  0  0  0  0  0  0  0  0  0  0  0
   -1.3660    2.0282    1.0683 H   0  0  0  0  0  0  0  0  0  0  0  0
   -0.5349    2.5863   -0.3876 H   0  0  0  0  0  0  0  0  0  0  0  0
   -2.5677   -1.2266   -0.3877 H   0  0  0  0  0  0  0  0  0  0  0  0
   -3.5230    0.2575   -0.3358 H   0  0  0  0  0  0  0  0  0  0  0  0
   -2.5675   -0.2257    1.0683 H   0  0  0  0  0  0  0  0  0  0  0  0
  1  2  2  3
  1  7  1  0
  1  8  1  0
  2  3  1  0
  2  9  1  0
  3  4  1  0
  3  5  1  0
  4 10  1  0
  4 11  1  0
  4 12  1  0
  5  6  2  3
  5 13  1  0
  6 14  1  0
  6 15  1  0
 16 17  1  0
 16 20  1  0
 16 21  1  0
 16 22  1  0
 17 18  1  0
 17 19  1  0
 17 23  1  0
 18 24  1  0
 18 25  1  0
 18 26  1  0
 19 27  1  0
 19 28  1  0
 19 29  1  0
M  RAD  1   3   2
M  END
>  <reaction>  (9) 
rxn_960

>  <mol_properties>  (9) 
{"1": {"label": "*0", "atom_type": "Cd"}, "2": {"label": "*1", "atom_type": "Cs"}, "15": {"label": "*4", "atom_type": "Cs"}, "16": {"label": "*3", "atom_type": "Cs"}, "22": {"label": "*2", "atom_type": "H0"}}

>  <type>  (9) 
unop_5

>  <geom_source>  (9) 
Heuristics

$$$$

     RDKit          3D

 29 27  0  0  0  0  0  0  0  0999 V2000
   -0.0222   -2.6076   -0.5283 C   0  0  0  0  0  0  0  0  0  0  0  0
    0.7676   -1.9108    0.2726 C   0  0  0  0  0  0  0  0  0  0  0  0
    1.0671   -0.4405    0.1344 C   0  0  0  0  0  3  0  0  0  0  0  0
    2.5627   -0.2119   -0.0664 C   0  0  0  0  0  0  0  0  0  0  0  0
    0.4868    0.2938    1.3177 C   0  0  0  0  0  0  0  0  0  0  0  0
    1.1507    1.0196    2.2039 C   0  0  0  0  0  0  0  0  0  0  0  0
   -0.1966   -3.6649   -0.3728 H   0  0  0  0  0  0  0  0  0  0  0  0
   -0.5236   -2.1443   -1.3716 H   0  0  0  0  0  0  0  0  0  0  0  0
    1.2535   -2.4047    1.1114 H   0  0  0  0  0  0  0  0  0  0  0  0
    2.7864    0.8500   -0.1815 H   0  0  0  0  0  0  0  0  0  0  0  0
    2.9055   -0.7341   -0.9600 H   0  0  0  0  0  0  0  0  0  0  0  0
    3.1362   -0.5897    0.7832 H   0  0  0  0  0  0  0  0  0  0  0  0
   -0.5880    0.1793    1.4322 H   0  0  0  0  0  0  0  0  0  0  0  0
    2.2225    1.1665    2.1467 H   0  0  0  0  0  0  0  0  0  0  0  0
    0.6366    1.5004    3.0265 H   0  0  0  0  0  0  0  0  0  0  0  0
   -1.1409    0.7367   -2.2008 C   0  0  0  0  0  0  0  0  0  0  0  0
   -1.1409    0.7367   -0.6751 C   0  0  0  0  0  0  0  0  0  0  0  0
   -1.1409    2.1613   -0.1290 C   0  0  0  0  0  0  0  0  0  0  0  0
   -2.3237   -0.0574   -0.1290 C   0  0  0  0  0  0  0  0  0  0  0  0
   -0.2802    1.2789   -2.5978 H   0  0  0  0  0  0  0  0  0  0  0  0
   -2.0449    1.2186   -2.5846 H   0  0  0  0  0  0  0  0  0  0  0  0
   -1.1114   -0.2802   -2.5978 H   0  0  0  0  0  0  0  0  0  0  0  0
   -0.0372    0.1483   -0.2705 H   0  0  0  0  0  0  0  0  0  0  0  0
   -2.0449    2.6921   -0.4416 H   0  0  0  0  0  0  0  0  0  0  0  0
   -1.1114    2.1681    0.9626 H   0  0  0  0  0  0  0  0  0  0  0  0
   -0.2802    2.7262   -0.4933 H   0  0  0  0  0  0  0  0  0  0  0  0
   -2.3130   -1.0868   -0.4934 H   0  0  0  0  0  0  0  0  0  0  0  0
   -3.2683    0.3974   -0.4415 H   0  0  0  0  0  0  0  0  0  0  0  0
   -2.3128   -0.0858    0.9626 H   0  0  0  0  0  0  0  0  0  0  0  0
  1  2  2  3
  1  7  1  0
  1  8  1  0
  2  3  1  0
  2  9  1  0
  3  4  1  0
  3  5  1  0
  4 10  1  0
  4 11  1  0
  4 12  1  0
  5  6  2  3
  5 13  1  0
  6 14  1  0
  6 15  1  0
 16 17  1  0
 16 20  1  0
 16 21  1  0
 16 22  1  0
 17 18  1  0
 17 19  1  0
 17 23  1  0
 18 24  1  0
 18 25  1  0
 18 26  1  0
 19 27  1  0
 19 28  1  0
 19 29  1  0
M  RAD  1   3   2
M  END
>  <reaction>  (10) 
rxn_960

>  <mol_properties>  (10) 
{"1": {"label": "*0", "atom_type": "Cd"}, "2": {"label": "*1", "atom_type": "Cs"}, "15": {"label": "*4", "atom_type": "Cs"}, "16": {"label": "*3", "atom_type": "Cs"}, "22": {"label": "*2", "atom_type": "H0"}}

>  <type>  (10) 
unop_6

>  <geom_source>  (10) 
Heuristics

$$$$

     RDKit          3D

 29 27  0  0  0  0  0  0  0  0999 V2000
   -0.4350   -2.5296    0.6883 C   0  0  0  0  0  0  0  0  0  0  0  0
    0.6080   -1.7527    0.9320 C   0  0  0  0  0  0  0  0  0  0  0  0
    1.0122   -0.5565    0.1095 C   0  0  0  0  0  3  0  0  0  0  0  0
    2.4158   -0.7437   -0.4600 C   0  0  0  0  0  0  0  0  0  0  0  0
    0.8481    0.6914    0.9413 C   0  0  0  0  0  0  0  0  0  0  0  0
    1.7962    1.5544    1.2719 C   0  0  0  0  0  0  0  0  0  0  0  0
   -0.6714   -3.3759    1.3209 H   0  0  0  0  0  0  0  0  0  0  0  0
   -1.0914   -2.3470   -0.1561 H   0  0  0  0  0  0  0  0  0  0  0  0
    1.2451   -1.9611    1.7889 H   0  0  0  0  0  0  0  0  0  0  0  0
    2.7108    0.1126   -1.0688 H   0  0  0  0  0  0  0  0  0  0  0  0
    2.4517   -1.6374   -1.0834 H   0  0  0  0  0  0  0  0  0  0  0  0
    3.1519   -0.8624    0.3385 H   0  0  0  0  0  0  0  0  0  0  0  0
   -0.1633    0.8586    1.3025 H   0  0  0  0  0  0  0  0  0  0  0  0
    2.8233    1.4397    0.9473 H   0  0  0  0  0  0  0  0  0  0  0  0
    1.5728    2.4185    1.8848 H   0  0  0  0  0  0  0  0  0  0  0  0
   -1.1958    0.6206   -2.2257 C   0  0  0  0  0  0  0  0  0  0  0  0
   -1.1958    0.6206   -0.7000 C   0  0  0  0  0  0  0  0  0  0  0  0
   -1.1958    2.0453   -0.1539 C   0  0  0  0  0  0  0  0  0  0  0  0
   -2.3786   -0.1735   -0.1539 C   0  0  0  0  0  0  0  0  0  0  0  0
   -0.3351    1.1629   -2.6227 H   0  0  0  0  0  0  0  0  0  0  0  0
   -2.0998    1.1026   -2.6095 H   0  0  0  0  0  0  0  0  0  0  0  0
   -1.1664   -0.3962   -2.6227 H   0  0  0  0  0  0  0  0  0  0  0  0
   -0.0921    0.0322   -0.2954 H   0  0  0  0  0  0  0  0  0  0  0  0
   -2.0998    2.5761   -0.4665 H   0  0  0  0  0  0  0  0  0  0  0  0
   -1.1663    2.0521    0.9377 H   0  0  0  0  0  0  0  0  0  0  0  0
   -0.3351    2.6101   -0.5182 H   0  0  0  0  0  0  0  0  0  0  0  0
   -2.3680   -1.2028   -0.5183 H   0  0  0  0  0  0  0  0  0  0  0  0
   -3.3232    0.2813   -0.4664 H   0  0  0  0  0  0  0  0  0  0  0  0
   -2.3677   -0.2019    0.9377 H   0  0  0  0  0  0  0  0  0  0  0  0
  1  2  2  3
  1  7  1  0
  1  8  1  0
  2  3  1  0
  2  9  1  0
  3  4  1  0
  3  5  1  0
  4 10  1  0
  4 11  1  0
  4 12  1  0
  5  6  2  3
  5 13  1  0
  6 14  1  0
  6 15  1  0
 16 17  1  0
 16 20  1  0
 16 21  1  0
 16 22  1  0
 17 18  1  0
 17 19  1  0
 17 23  1  0
 18 24  1  0
 18 25  1  0
 18 26  1  0
 19 27  1  0
 19 28  1  0
 19 29  1  0
M  RAD  1   3   2
M  END
>  <reaction>  (11) 
rxn_960

>  <mol_properties>  (11) 
{"1": {"label": "*0", "atom_type": "Cd"}, "2": {"label": "*1", "atom_type": "Cs"}, "15": {"label": "*4", "atom_type": "Cs"}, "16": {"label": "*3", "atom_type": "Cs"}, "22": {"label": "*2", "atom_type": "H0"}}

>  <type>  (11) 
unop_7

>  <geom_source>  (11) 
Heuristics

$$$$

     RDKit          3D

 29 27  0  0  0  0  0  0  0  0999 V2000
    2.0298    1.5788   -0.4179 C   0  0  0  0  0  0  0  0  0  0  0  0
    1.8521    0.5688    0.4184 C   0  0  0  0  0  0  0  0  0  0  0  0
    0.7983   -0.4994    0.2801 C   0  0  0  0  0  3  0  0  0  0  0  0
   -0.1295   -0.5009    1.4920 C   0  0  0  0  0  0  0  0  0  0  0  0
    1.4713   -1.8244    0.0199 C   0  0  0  0  0  0  0  0  0  0  0  0
    1.3927   -2.9141    0.7678 C   0  0  0  0  0  0  0  0  0  0  0  0
    2.8088    2.3142   -0.2609 H   0  0  0  0  0  0  0  0  0  0  0  0
    1.3997    1.7072   -1.2918 H   0  0  0  0  0  0  0  0  0  0  0  0
    2.5031    0.4668    1.2841 H   0  0  0  0  0  0  0  0  0  0  0  0
   -0.9045   -1.2628    1.3931 H   0  0  0  0  0  0  0  0  0  0  0  0
   -0.6137    0.4705    1.5951 H   0  0  0  0  0  0  0  0  0  0  0  0
    0.4253   -0.6981    2.4122 H   0  0  0  0  0  0  0  0  0  0  0  0
    2.0892   -1.8445   -0.8740 H   0  0  0  0  0  0  0  0  0  0  0  0
    0.7980   -2.9547    1.6724 H   0  0  0  0  0  0  0  0  0  0  0  0
    1.9258   -3.8159    0.4948 H   0  0  0  0  0  0  0  0  0  0  0  0
   -1.4097    0.6778   -2.0550 C   0  0  0  0  0  0  0  0  0  0  0  0
   -1.4097    0.6778   -0.5293 C   0  0  0  0  0  0  0  0  0  0  0  0
   -1.4097    2.1024    0.0168 C   0  0  0  0  0  0  0  0  0  0  0  0
   -2.5925   -0.1163    0.0167 C   0  0  0  0  0  0  0  0  0  0  0  0
   -0.5490    1.2200   -2.4521 H   0  0  0  0  0  0  0  0  0  0  0  0
   -2.3137    1.1597   -2.4388 H   0  0  0  0  0  0  0  0  0  0  0  0
   -1.3803   -0.3391   -2.4521 H   0  0  0  0  0  0  0  0  0  0  0  0
   -0.3060    0.0894   -0.1247 H   0  0  0  0  0  0  0  0  0  0  0  0
   -2.3137    2.6332   -0.2959 H   0  0  0  0  0  0  0  0  0  0  0  0
   -1.3802    2.1092    1.1084 H   0  0  0  0  0  0  0  0  0  0  0  0
   -0.5490    2.6673   -0.3475 H   0  0  0  0  0  0  0  0  0  0  0  0
   -2.5819   -1.1457   -0.3476 H   0  0  0  0  0  0  0  0  0  0  0  0
   -3.5371    0.3384   -0.2957 H   0  0  0  0  0  0  0  0  0  0  0  0
   -2.5816   -0.1448    1.1083 H   0  0  0  0  0  0  0  0  0  0  0  0
  1  2  2  3
  1  7  1  0
  1  8  1  0
  2  3  1  0
  2  9  1  0
  3  4  1  0
  3  5  1  0
  4 10  1  0
  4 11  1  0
  4 12  1  0
  5  6  2  3
  5 13  1  0
  6 14  1  0
  6 15  1  0
 16 17  1  0
 16 20  1  0
 16 21  1  0
 16 22  1  0
 17 18  1  0
 17 19  1  0
 17 23  1  0
 18 24  1  0
 18 25  1  0
 18 26  1  0
 19 27  1  0
 19 28  1  0
 19 29  1  0
M  RAD  1   3   2
M  END
>  <reaction>  (12) 
rxn_960

>  <mol_properties>  (12) 
{"1": {"label": "*0", "atom_type": "Cd"}, "2": {"label": "*1", "atom_type": "Cs"}, "15": {"label": "*4", "atom_type": "Cs"}, "16": {"label": "*3", "atom_type": "Cs"}, "22": {"label": "*2", "atom_type": "H0"}}

>  <type>  (12) 
unop_8

>  <geom_source>  (12) 
Heuristics

$$$$

     RDKit          3D

 29 27  0  0  0  0  0  0  0  0999 V2000
    0.9005   -1.3456   -1.9685 C   0  0  0  0  0  0  0  0  0  0  0  0
    1.3717   -1.3121   -0.7324 C   0  0  0  0  0  0  0  0  0  0  0  0
    0.9945   -0.2960    0.3145 C   0  0  0  0  0  3  0  0  0  0  0  0
    2.2237    0.4802    0.7794 C   0  0  0  0  0  0  0  0  0  0  0  0
    0.2485   -0.9894    1.4275 C   0  0  0  0  0  0  0  0  0  0  0  0
    0.6006   -1.0470    2.7025 C   0  0  0  0  0  0  0  0  0  0  0  0
    1.2129   -2.1055   -2.6737 H   0  0  0  0  0  0  0  0  0  0  0  0
    0.1839   -0.6111   -2.3209 H   0  0  0  0  0  0  0  0  0  0  0  0
    2.0872   -2.0651   -0.4092 H   0  0  0  0  0  0  0  0  0  0  0  0
    1.9568    1.2280    1.5279 H   0  0  0  0  0  0  0  0  0  0  0  0
    2.6874    0.9897   -0.0655 H   0  0  0  0  0  0  0  0  0  0  0  0
    2.9686   -0.1881    1.2176 H   0  0  0  0  0  0  0  0  0  0  0  0
   -0.6587   -1.4968    1.1099 H   0  0  0  0  0  0  0  0  0  0  0  0
    1.4955   -0.5664    3.0791 H   0  0  0  0  0  0  0  0  0  0  0  0
   -0.0047   -1.5820    3.4233 H   0  0  0  0  0  0  0  0  0  0  0  0
   -1.2135    0.8811   -2.0206 C   0  0  0  0  0  0  0  0  0  0  0  0
   -1.2135    0.8811   -0.4949 C   0  0  0  0  0  0  0  0  0  0  0  0
   -1.2135    2.3058    0.0511 C   0  0  0  0  0  0  0  0  0  0  0  0
   -2.3963    0.0871    0.0511 C   0  0  0  0  0  0  0  0  0  0  0  0
   -0.3528    1.4234   -2.4177 H   0  0  0  0  0  0  0  0  0  0  0  0
   -2.1175    1.3631   -2.4044 H   0  0  0  0  0  0  0  0  0  0  0  0
   -1.1841   -0.1357   -2.4177 H   0  0  0  0  0  0  0  0  0  0  0  0
   -0.1098    0.2927   -0.0903 H   0  0  0  0  0  0  0  0  0  0  0  0
   -2.1175    2.8366   -0.2615 H   0  0  0  0  0  0  0  0  0  0  0  0
   -1.1840    2.3126    1.1427 H   0  0  0  0  0  0  0  0  0  0  0  0
   -0.3528    2.8706   -0.3131 H   0  0  0  0  0  0  0  0  0  0  0  0
   -2.3857   -0.9423   -0.3133 H   0  0  0  0  0  0  0  0  0  0  0  0
   -3.3409    0.5418   -0.2614 H   0  0  0  0  0  0  0  0  0  0  0  0
   -2.3854    0.0586    1.1427 H   0  0  0  0  0  0  0  0  0  0  0  0
  1  2  2  3
  1  7  1  0
  1  8  1  0
  2  3  1  0
  2  9  1  0
  3  4  1  0
  3  5  1  0
  4 10  1  0
  4 11  1  0
  4 12  1  0
  5  6  2  3
  5 13  1  0
  6 14  1  0
  6 15  1  0
 16 17  1  0
 16 20  1  0
 16 21  1  0
 16 22  1  0
 17 18  1  0
 17 19  1  0
 17 23  1  0
 18 24  1  0
 18 25  1  0
 18 26  1  0
 19 27  1  0
 19 28  1  0
 19 29  1  0
M  RAD  1   3   2
M  END
>  <reaction>  (13) 
rxn_960

>  <mol_properties>  (13) 
{"1": {"label": "*0", "atom_type": "Cd"}, "2": {"label": "*1", "atom_type": "Cs"}, "15": {"label": "*4", "atom_type": "Cs"}, "16": {"label": "*3", "atom_type": "Cs"}, "22": {"label": "*2", "atom_type": "H0"}}

>  <type>  (13) 
unop_9

>  <geom_source>  (13) 
Heuristics

$$$$

     RDKit          3D

 29 27  0  0  0  0  0  0  0  0999 V2000
    1.9547    0.9522   -1.3683 C   0  0  0  0  0  0  0  0  0  0  0  0
    1.9453    0.3143   -0.2090 C   0  0  0  0  0  0  0  0  0  0  0  0
    0.7868   -0.4797    0.3370 C   0  0  0  0  0  3  0  0  0  0  0  0
    0.3175    0.0987    1.6692 C   0  0  0  0  0  0  0  0  0  0  0  0
    1.1752   -1.9361    0.4023 C   0  0  0  0  0  0  0  0  0  0  0  0
    1.2199   -2.6971    1.4849 C   0  0  0  0  0  0  0  0  0  0  0  0
    2.8228    1.5058   -1.7034 H   0  0  0  0  0  0  0  0  0  0  0  0
    1.0914    0.9444   -2.0253 H   0  0  0  0  0  0  0  0  0  0  0  0
    2.8286    0.3394    0.4257 H   0  0  0  0  0  0  0  0  0  0  0  0
   -0.5308   -0.4625    2.0647 H   0  0  0  0  0  0  0  0  0  0  0  0
    0.0125    1.1375    1.5406 H   0  0  0  0  0  0  0  0  0  0  0  0
    1.1175    0.0740    2.4127 H   0  0  0  0  0  0  0  0  0  0  0  0
    1.4565   -2.3675   -0.5548 H   0  0  0  0  0  0  0  0  0  0  0  0
    0.9566   -2.3238    2.4672 H   0  0  0  0  0  0  0  0  0  0  0  0
    1.5229   -3.7346    1.4235 H   0  0  0  0  0  0  0  0  0  0  0  0
   -1.4212    0.6974   -1.9981 C   0  0  0  0  0  0  0  0  0  0  0  0
   -1.4212    0.6974   -0.4724 C   0  0  0  0  0  0  0  0  0  0  0  0
   -1.4212    2.1221    0.0737 C   0  0  0  0  0  0  0  0  0  0  0  0
   -2.6041   -0.0966    0.0737 C   0  0  0  0  0  0  0  0  0  0  0  0
   -0.5605    1.2397   -2.3951 H   0  0  0  0  0  0  0  0  0  0  0  0
   -2.3252    1.1794   -2.3819 H   0  0  0  0  0  0  0  0  0  0  0  0
   -1.3918   -0.3194   -2.3951 H   0  0  0  0  0  0  0  0  0  0  0  0
   -0.3175    0.1090   -0.0678 H   0  0  0  0  0  0  0  0  0  0  0  0
   -2.3252    2.6529   -0.2389 H   0  0  0  0  0  0  0  0  0  0  0  0
   -1.3917    2.1289    1.1653 H   0  0  0  0  0  0  0  0  0  0  0  0
   -0.5606    2.6869   -0.2906 H   0  0  0  0  0  0  0  0  0  0  0  0
   -2.5934   -1.1260   -0.2907 H   0  0  0  0  0  0  0  0  0  0  0  0
   -3.5487    0.3581   -0.2388 H   0  0  0  0  0  0  0  0  0  0  0  0
   -2.5932   -0.1251    1.1653 H   0  0  0  0  0  0  0  0  0  0  0  0
  1  2  2  3
  1  7  1  0
  1  8  1  0
  2  3  1  0
  2  9  1  0
  3  4  1  0
  3  5  1  0
  4 10  1  0
  4 11  1  0
  4 12  1  0
  5  6  2  3
  5 13  1  0
  6 14  1  0
  6 15  1  0
 16 17  1  0
 16 20  1  0
 16 21  1  0
 16 22  1  0
 17 18  1  0
 17 19  1  0
 17 23  1  0
 18 24  1  0
 18 25  1  0
 18 26  1  0
 19 27  1  0
 19 28  1  0
 19 29  1  0
M  RAD  1   3   2
M  END
>  <reaction>  (14) 
rxn_960

>  <mol_properties>  (14) 
{"1": {"label": "*0", "atom_type": "Cd"}, "2": {"label": "*1", "atom_type": "Cs"}, "15": {"label": "*4", "atom_type": "Cs"}, "16": {"label": "*3", "atom_type": "Cs"}, "22": {"label": "*2", "atom_type": "H0"}}

>  <type>  (14) 
unop_10

>  <geom_source>  (14) 
Heuristics

$$$$

     RDKit          3D

 29 27  0  0  0  0  0  0  0  0999 V2000
   -0.5901   -1.6713    1.8857 C   0  0  0  0  0  0  0  0  0  0  0  0
    0.6082   -1.2842    1.4793 C   0  0  0  0  0  0  0  0  0  0  0  0
    0.9077   -0.6289    0.1559 C   0  0  0  0  0  3  0  0  0  0  0  0
    1.8903   -1.4717   -0.6525 C   0  0  0  0  0  0  0  0  0  0  0  0
    1.3687    0.7867    0.4004 C   0  0  0  0  0  0  0  0  0  0  0  0
    2.5360    1.3105    0.0599 C   0  0  0  0  0  0  0  0  0  0  0  0
   -0.7378   -2.1370    2.8520 H   0  0  0  0  0  0  0  0  0  0  0  0
   -1.4691   -1.5368    1.2641 H   0  0  0  0  0  0  0  0  0  0  0  0
    1.4692   -1.4308    2.1280 H   0  0  0  0  0  0  0  0  0  0  0  0
    2.1018   -1.0107   -1.6188 H   0  0  0  0  0  0  0  0  0  0  0  0
    1.4765   -2.4648   -0.8286 H   0  0  0  0  0  0  0  0  0  0  0  0
    2.8363   -1.5926   -0.1196 H   0  0  0  0  0  0  0  0  0  0  0  0
    0.6483    1.4073    0.9270 H   0  0  0  0  0  0  0  0  0  0  0  0
    3.2966    0.7418   -0.4613 H   0  0  0  0  0  0  0  0  0  0  0  0
    2.7722    2.3413    0.2919 H   0  0  0  0  0  0  0  0  0  0  0  0
   -1.3004    0.5483   -2.1793 C   0  0  0  0  0  0  0  0  0  0  0  0
   -1.3004    0.5483   -0.6536 C   0  0  0  0  0  0  0  0  0  0  0  0
   -1.3004    1.9729   -0.1075 C   0  0  0  0  0  0  0  0  0  0  0  0
   -2.4832   -0.2458   -0.1075 C   0  0  0  0  0  0  0  0  0  0  0  0
   -0.4397    1.0905   -2.5763 H   0  0  0  0  0  0  0  0  0  0  0  0
   -2.2043    1.0302   -2.5630 H   0  0  0  0  0  0  0  0  0  0  0  0
   -1.2709   -0.4686   -2.5763 H   0  0  0  0  0  0  0  0  0  0  0  0
   -0.1967   -0.0401   -0.2490 H   0  0  0  0  0  0  0  0  0  0  0  0
   -2.2044    2.5037   -0.4201 H   0  0  0  0  0  0  0  0  0  0  0  0
   -1.2709    1.9797    0.9841 H   0  0  0  0  0  0  0  0  0  0  0  0
   -0.4397    2.5378   -0.4718 H   0  0  0  0  0  0  0  0  0  0  0  0
   -2.4725   -1.2752   -0.4719 H   0  0  0  0  0  0  0  0  0  0  0  0
   -3.4278    0.2090   -0.4200 H   0  0  0  0  0  0  0  0  0  0  0  0
   -2.4723   -0.2743    0.9841 H   0  0  0  0  0  0  0  0  0  0  0  0
  1  2  2  3
  1  7  1  0
  1  8  1  0
  2  3  1  0
  2  9  1  0
  3  4  1  0
  3  5  1  0
  4 10  1  0
  4 11  1  0
  4 12  1  0
  5  6  2  3
  5 13  1  0
  6 14  1  0
  6 15  1  0
 16 17  1  0
 16 20  1  0
 16 21  1  0
 16 22  1  0
 17 18  1  0
 17 19  1  0
 17 23  1  0
 18 24  1  0
 18 25  1  0
 18 26  1  0
 19 27  1  0
 19 28  1  0
 19 29  1  0
M  RAD  1   3   2
M  END
>  <reaction>  (15) 
rxn_960

>  <mol_properties>  (15) 
{"1": {"label": "*0", "atom_type": "Cd"}, "2": {"label": "*1", "atom_type": "Cs"}, "15": {"label": "*4", "atom_type": "Cs"}, "16": {"label": "*3", "atom_type": "Cs"}, "22": {"label": "*2", "atom_type": "H0"}}

>  <type>  (15) 
unop_11

>  <geom_source>  (15) 
Heuristics

$$$$

     RDKit          3D

 29 27  0  0  0  0  0  0  0  0999 V2000
    1.2569   -0.5586   -2.0922 C   0  0  0  0  0  0  0  0  0  0  0  0
    1.6610   -0.7384   -0.8451 C   0  0  0  0  0  0  0  0  0  0  0  0
    0.8932   -0.3290    0.3852 C   0  0  0  0  0  3  0  0  0  0  0  0
    1.6969    0.6688    1.2146 C   0  0  0  0  0  0  0  0  0  0  0  0
    0.4811   -1.5668    1.1430 C   0  0  0  0  0  0  0  0  0  0  0  0
    0.8131   -1.8834    2.3850 C   0  0  0  0  0  0  0  0  0  0  0  0
    1.8581   -0.8776   -2.9343 H   0  0  0  0  0  0  0  0  0  0  0  0
    0.3076   -0.0834   -2.3163 H   0  0  0  0  0  0  0  0  0  0  0  0
    2.6172   -1.2209   -0.6540 H   0  0  0  0  0  0  0  0  0  0  0  0
    1.1417    0.9811    2.1007 H   0  0  0  0  0  0  0  0  0  0  0  0
    1.9228    1.5547    0.6206 H   0  0  0  0  0  0  0  0  0  0  0  0
    2.6443    0.2350    1.5428 H   0  0  0  0  0  0  0  0  0  0  0  0
   -0.1388   -2.2544    0.5737 H   0  0  0  0  0  0  0  0  0  0  0  0
    1.4321   -1.2423    3.0010 H   0  0  0  0  0  0  0  0  0  0  0  0
    0.4694   -2.8064    2.8347 H   0  0  0  0  0  0  0  0  0  0  0  0
   -1.3148    0.8481   -1.9499 C   0  0  0  0  0  0  0  0  0  0  0  0
   -1.3148    0.8481   -0.4242 C   0  0  0  0  0  0  0  0  0  0  0  0
   -1.3148    2.2727    0.1219 C   0  0  0  0  0  0  0  0  0  0  0  0
   -2.4976    0.0540    0.1219 C   0  0  0  0  0  0  0  0  0  0  0  0
   -0.4541    1.3904   -2.3470 H   0  0  0  0  0  0  0  0  0  0  0  0
   -2.2188    1.3301   -2.3337 H   0  0  0  0  0  0  0  0  0  0  0  0
   -1.2853   -0.1688   -2.3470 H   0  0  0  0  0  0  0  0  0  0  0  0
   -0.2111    0.2597   -0.0196 H   0  0  0  0  0  0  0  0  0  0  0  0
   -2.2188    2.8036   -0.1908 H   0  0  0  0  0  0  0  0  0  0  0  0
   -1.2853    2.2795    1.2135 H   0  0  0  0  0  0  0  0  0  0  0  0
   -0.4541    2.8376   -0.2424 H   0  0  0  0  0  0  0  0  0  0  0  0
   -2.4869   -0.9753   -0.2425 H   0  0  0  0  0  0  0  0  0  0  0  0
   -3.4422    0.5088   -0.1906 H   0  0  0  0  0  0  0  0  0  0  0  0
   -2.4867    0.0256    1.2135 H   0  0  0  0  0  0  0  0  0  0  0  0
  1  2  2  3
  1  7  1  0
  1  8  1  0
  2  3  1  0
  2  9  1  0
  3  4  1  0
  3  5  1  0
  4 10  1  0
  4 11  1  0
  4 12  1  0
  5  6  2  3
  5 13  1  0
  6 14  1  0
  6 15  1  0
 16 17  1  0
 16 20  1  0
 16 21  1  0
 16 22  1  0
 17 18  1  0
 17 19  1  0
 17 23  1  0
 18 24  1  0
 18 25  1  0
 18 26  1  0
 19 27  1  0
 19 28  1  0
 19 29  1  0
M  RAD  1   3   2
M  END
>  <reaction>  (16) 
rxn_960

>  <mol_properties>  (16) 
{"1": {"label": "*0", "atom_type": "Cd"}, "2": {"label": "*1", "atom_type": "Cs"}, "15": {"label": "*4", "atom_type": "Cs"}, "16": {"label": "*3", "atom_type": "Cs"}, "22": {"label": "*2", "atom_type": "H0"}}

>  <type>  (16) 
unop_12

>  <geom_source>  (16) 
Heuristics

$$$$

     RDKit          3D

 29 27  0  0  0  0  0  0  0  0999 V2000
    1.0470    0.2635    0.2026 C   0  0  0  0  0  3  0  0  0  0  0  0
    0.9295    0.1571    1.7272 C   0  0  0  0  0  0  0  0  0  0  0  0
   -2.0224   -1.1895    0.7156 C   0  0  0  0  0  0  0  0  0  0  0  0
   -1.4487   -0.7206   -1.7001 C   0  0  0  0  0  0  0  0  0  0  0  0
   -2.2298    1.1565   -0.1998 C   0  0  0  0  0  0  0  0  0  0  0  0
   -1.4635   -0.1656   -0.2745 C   0  0  0  0  0  0  0  0  0  0  0  0
    1.4481    1.6576   -0.2211 C   0  0  0  0  0  0  0  0  0  0  0  0
    2.0011   -0.7708   -0.3464 C   0  0  0  0  0  0  0  0  0  0  0  0
    2.6061    2.2229    0.1411 C   0  0  0  0  0  0  0  0  0  0  0  0
    1.6656   -2.0627   -0.4048 C   0  0  0  0  0  0  0  0  0  0  0  0
   -0.1528    0.0317   -0.3126 H   0  0  0  0  0  0  0  0  0  0  0  0
    0.5096   -0.8317    2.0083 H   0  0  0  0  0  0  0  0  0  0  0  0
    0.2449    0.9430    2.1113 H   0  0  0  0  0  0  0  0  0  0  0  0
    1.9221    0.2727    2.2125 H   0  0  0  0  0  0  0  0  0  0  0  0
   -1.4170   -2.1196    0.6808 H   0  0  0  0  0  0  0  0  0  0  0  0
   -1.9726   -0.7842    1.7482 H   0  0  0  0  0  0  0  0  0  0  0  0
   -3.0787   -1.4343    0.4720 H   0  0  0  0  0  0  0  0  0  0  0  0
   -0.8424   -1.6501   -1.7385 H   0  0  0  0  0  0  0  0  0  0  0  0
   -2.4812   -0.9460   -2.0439 H   0  0  0  0  0  0  0  0  0  0  0  0
   -0.9899    0.0189   -2.3897 H   0  0  0  0  0  0  0  0  0  0  0  0
   -1.7721    1.8988   -0.8872 H   0  0  0  0  0  0  0  0  0  0  0  0
   -3.2946    1.0090   -0.4813 H   0  0  0  0  0  0  0  0  0  0  0  0
   -2.1803    1.5653    0.8314 H   0  0  0  0  0  0  0  0  0  0  0  0
    0.7641    2.2229   -0.8467 H   0  0  0  0  0  0  0  0  0  0  0  0
    2.9796   -0.4713   -0.7123 H   0  0  0  0  0  0  0  0  0  0  0  0
    2.8455    3.2280   -0.1901 H   0  0  0  0  0  0  0  0  0  0  0  0
    3.3212    1.6916    0.7612 H   0  0  0  0  0  0  0  0  0  0  0  0
    0.6958   -2.4052   -0.0568 H   0  0  0  0  0  0  0  0  0  0  0  0
    2.3658   -2.7880   -0.8063 H   0  0  0  0  0  0  0  0  0  0  0  0
  1  2  1  0
  1  7  1  0
  1  8  1  0
  2 12  1  0
  2 13  1  0
  2 14  1  0
  3  6  1  0
  3 15  1  0
  3 16  1  0
  3 17  1  0
  4  6  1  0
  4 18  1  0
  4 19  1  0
  4 20  1  0
  5  6  1  0
  5 21  1  0
  5 22  1  0
  5 23  1  0
  6 11  1  0
  7  9  2  3
  7 24  1  0
  8 10  2  3
  8 25  1  0
  9 26  1  0
  9 27  1  0
 10 28  1  0
 10 29  1  0
M  RAD  1   1   2
M  END
>  <reaction>  (17) 
rxn_960

>  <mol_properties>  (17) 
{"1": {"label": "*0", "atom_type": "Cd"}, "2": {"label": "*1", "atom_type": "Cs"}, "15": {"label": "*4", "atom_type": "Cs"}, "16": {"label": "*3", "atom_type": "Cs"}, "22": {"label": "*2", "atom_type": "H0"}}

>  <type>  (17) 
unop_13

>  <geom_source>  (17) 
AutoTST

$$$$
