
     RDKit          3D

 18 18  0  0  0  0  0  0  0  0999 V2000
   -2.4852    0.3210   -0.3966 C   0  0  0  0  0  0  0  0  0  0  0  0
   -1.5917   -0.2708    0.6941 C   0  0  0  0  0  0  0  0  0  0  0  0
   -0.1292   -0.1692    0.3493 C   0  0  0  0  0  0  0  0  0  0  0  0
    0.6099    0.9558    0.7015 C   0  0  0  0  0  0  0  0  0  0  0  0
    1.9447    1.0728    0.3458 C   0  0  0  0  0  0  0  0  0  0  0  0
    2.5646    0.0613   -0.3720 C   0  0  0  0  0  0  0  0  0  0  0  0
    1.8399   -1.0657   -0.7287 C   0  0  0  0  0  0  0  0  0  0  0  0
    0.5055   -1.1769   -0.3700 C   0  0  0  0  0  0  0  0  0  0  0  0
   -2.3325   -0.1971   -1.3452 H   0  0  0  0  0  0  0  0  0  0  0  0
   -2.2554    1.3763   -0.5546 H   0  0  0  0  0  0  0  0  0  0  0  0
   -3.5397    0.2376   -0.1280 H   0  0  0  0  0  0  0  0  0  0  0  0
   -1.7801    0.2462    1.6380 H   0  0  0  0  0  0  0  0  0  0  0  0
   -1.8568   -1.3190    0.8516 H   0  0  0  0  0  0  0  0  0  0  0  0
    0.1327    1.7497    1.2656 H   0  0  0  0  0  0  0  0  0  0  0  0
    2.5033    1.9550    0.6330 H   0  0  0  0  0  0  0  0  0  0  0  0
    3.6077    0.1491   -0.6484 H   0  0  0  0  0  0  0  0  0  0  0  0
    2.3163   -1.8632   -1.2854 H   0  0  0  0  0  0  0  0  0  0  0  0
   -0.0540   -2.0629   -0.6500 H   0  0  0  0  0  0  0  0  0  0  0  0
  1  2  1  0
  1  9  1  0
  1 10  1  0
  1 11  1  0
  2  3  1  0
  2 12  1  0
  2 13  1  0
  3  4  2  0
  3  8  1  0
  4  5  1  0
  4 14  1  0
  5  6  2  0
  5 15  1  0
  6  7  1  0
  6 16  1  0
  7  8  2  0
  7 17  1  0
  8 18  1  0
M  END
>  <reaction>  (1) 
rxn_1501

>  <mol_properties>  (1) 
{"1": {"label": "donator", "atom_type": "Cs"}, "11": {"label": "d_hydrogen", "atom_type": "H0"}}

>  <type>  (1) 
r1h

$$$$

     RDKit          3D

 11 10  0  0  0  0  0  0  0  0999 V2000
    1.0781   -1.0166   -0.1159 C   0  0  0  0  0  0  0  0  0  0  0  0
    0.2180    0.1942   -0.2297 C   0  0  0  0  0  3  0  0  0  0  0  0
    0.9343    1.7769   -0.3011 S   0  0  0  0  0  0  0  0  0  0  0  0
   -1.1949    0.1490    0.2439 C   0  0  0  0  0  0  0  0  0  0  0  0
    1.4718   -1.1461    0.9024 H   0  0  0  0  0  0  0  0  0  0  0  0
    1.9367   -0.9751   -0.7902 H   0  0  0  0  0  0  0  0  0  0  0  0
    0.5033   -1.9136   -0.3576 H   0  0  0  0  0  0  0  0  0  0  0  0
    2.1166    1.4195   -0.8209 H   0  0  0  0  0  0  0  0  0  0  0  0
   -1.2620    0.0939    1.3399 H   0  0  0  0  0  0  0  0  0  0  0  0
   -1.7600    1.0270   -0.0739 H   0  0  0  0  0  0  0  0  0  0  0  0
   -1.6972   -0.7380   -0.1506 H   0  0  0  0  0  0  0  0  0  0  0  0
  1  2  1  0
  1  5  1  0
  1  6  1  0
  1  7  1  0
  2  4  1  0
  2  3  1  0
  3  8  1  0
  4  9  1  0
  4 10  1  0
  4 11  1  0
M  RAD  1   2   2
M  END
>  <reaction>  (2) 
rxn_1501

>  <mol_properties>  (2) 
{"1": {"label": "acceptor", "atom_type": "Cs"}}

>  <type>  (2) 
r2

$$$$

     RDKit          3D

 12 11  0  0  0  0  0  0  0  0999 V2000
    1.2394   -0.3763   -0.3020 C   0  0  0  0  0  0  0  0  0  0  0  0
    0.1007    0.3023    0.4464 C   0  0  0  0  0  0  0  0  0  0  0  0
   -0.1187    2.0399   -0.0725 S   0  0  0  0  0  0  0  0  0  0  0  0
   -1.1974   -0.4877    0.3552 C   0  0  0  0  0  0  0  0  0  0  0  0
    2.1681    0.1849   -0.2048 H   0  0  0  0  0  0  0  0  0  0  0  0
    1.0031   -0.4606   -1.3656 H   0  0  0  0  0  0  0  0  0  0  0  0
    1.3994   -1.3856    0.0860 H   0  0  0  0  0  0  0  0  0  0  0  0
    0.3796    0.4050    1.4981 H   0  0  0  0  0  0  0  0  0  0  0  0
   -0.4500    1.7779   -1.3452 H   0  0  0  0  0  0  0  0  0  0  0  0
   -1.0545   -1.4978    0.7479 H   0  0  0  0  0  0  0  0  0  0  0  0
   -1.5206   -0.5759   -0.6849 H   0  0  0  0  0  0  0  0  0  0  0  0
   -1.9957   -0.0054    0.9183 H   0  0  0  0  0  0  0  0  0  0  0  0
  1  2  1  0
  1  5  1  0
  1  6  1  0
  1  7  1  0
  2  4  1  0
  2  3  1  0
  2  8  1  0
  3  9  1  0
  4 10  1  0
  4 11  1  0
  4 12  1  0
M  END
>  <reaction>  (3) 
rxn_1501

>  <mol_properties>  (3) 
{"1": {"label": "acceptor", "atom_type": "Cs"}, "11": {"label": "a_hydrogen", "atom_type": "H0"}}

>  <type>  (3) 
r2h

$$$$

     RDKit          3D

 29 28  0  0  0  0  0  0  0  0999 V2000
   -2.1143   -0.9226    0.6807 C   0  0  0  0  0  0  0  0  0  0  0  0
   -0.9606   -1.8530    0.4101 C   0  0  0  0  0  3  0  0  0  0  0  0
    0.1081   -2.1764    1.8042 S   0  0  0  0  0  0  0  0  0  0  0  0
   -1.3102   -3.1280   -0.3152 C   0  0  0  0  0  0  0  0  0  0  0  0
   -1.7692    0.0331    1.0792 H   0  0  0  0  0  0  0  0  0  0  0  0
   -2.8154   -1.3595    1.3991 H   0  0  0  0  0  0  0  0  0  0  0  0
   -2.6582   -0.7230   -0.2462 H   0  0  0  0  0  0  0  0  0  0  0  0
    0.2361   -0.9034    2.2043 H   0  0  0  0  0  0  0  0  0  0  0  0
   -1.8394   -2.8921   -1.2407 H   0  0  0  0  0  0  0  0  0  0  0  0
   -0.4176   -3.7022   -0.5694 H   0  0  0  0  0  0  0  0  0  0  0  0
   -1.9638   -3.7667    0.2885 H   0  0  0  0  0  0  0  0  0  0  0  0
   -0.3225   -0.4069   -2.5945 C   0  0  0  0  0  0  0  0  0  0  0  0
    0.4794   -0.3763   -1.3175 C   0  0  0  0  0  0  0  0  0  0  0  0
    0.6295    0.8904   -0.5859 C   0  0  0  0  0  0  0  0  0  0  0  0
   -0.2371    1.9720   -0.7681 C   0  0  0  0  0  0  0  0  0  0  0  0
   -0.1155    3.1213   -0.0033 C   0  0  0  0  0  0  0  0  0  0  0  0
    0.8719    3.2206    0.9650 C   0  0  0  0  0  0  0  0  0  0  0  0
    1.7451    2.1575    1.1560 C   0  0  0  0  0  0  0  0  0  0  0  0
    1.6258    1.0117    0.3910 C   0  0  0  0  0  0  0  0  0  0  0  0
    0.0846    0.2766   -3.3459 H   0  0  0  0  0  0  0  0  0  0  0  0
   -1.3645   -0.1241   -2.4264 H   0  0  0  0  0  0  0  0  0  0  0  0
   -0.3218   -1.4106   -3.0209 H   0  0  0  0  0  0  0  0  0  0  0  0
   -0.1893   -1.1451   -0.4708 H   0  0  0  0  0  0  0  0  0  0  0  0
    1.4135   -0.9339   -1.3781 H   0  0  0  0  0  0  0  0  0  0  0  0
   -1.0158    1.9179   -1.5183 H   0  0  0  0  0  0  0  0  0  0  0  0
   -0.7978    3.9465   -0.1666 H   0  0  0  0  0  0  0  0  0  0  0  0
    0.9651    4.1192    1.5612 H   0  0  0  0  0  0  0  0  0  0  0  0
    2.5265    2.2255    1.9029 H   0  0  0  0  0  0  0  0  0  0  0  0
    2.3097    0.1852    0.5472 H   0  0  0  0  0  0  0  0  0  0  0  0
  1  2  1  0
  1  5  1  0
  1  6  1  0
  1  7  1  0
  2  4  1  0
  2  3  1  0
  3  8  1  0
  4  9  1  0
  4 10  1  0
  4 11  1  0
 12 13  1  0
 12 20  1  0
 12 21  1  0
 12 22  1  0
 13 14  1  0
 13 23  1  0
 13 24  1  0
 14 15  2  0
 14 19  1  0
 15 16  1  0
 15 25  1  0
 16 17  2  0
 16 26  1  0
 17 18  1  0
 17 27  1  0
 18 19  2  0
 18 28  1  0
 19 29  1  0
M  RAD  1   2   2
M  END
>  <reaction>  (4) 
rxn_1501

>  <mol_properties>  (4) 
{"1": {"label": "*3", "atom_type": "Cs"}, "2": {"label": "*4", "atom_type": "S2s"}, "12": {"label": "*1", "atom_type": "Cs"}, "13": {"label": "*0", "atom_type": "Cd"}, "22": {"label": "*2", "atom_type": "H0"}}

>  <type>  (4) 
ts

$$$$

     RDKit          3D

 29 28  0  0  0  0  0  0  0  0999 V2000
   -0.5109   -3.0520    1.0257 C   0  0  0  0  0  0  0  0  0  0  0  0
   -0.9744   -1.8722    0.1826 C   0  0  0  0  0  3  0  0  0  0  0  0
   -2.5824   -2.1961   -0.6211 S   0  0  0  0  0  0  0  0  0  0  0  0
   -0.9840   -0.5708    0.9724 C   0  0  0  0  0  0  0  0  0  0  0  0
   -0.4819   -3.9705    0.4406 H   0  0  0  0  0  0  0  0  0  0  0  0
   -1.1861   -3.2084    1.8706 H   0  0  0  0  0  0  0  0  0  0  0  0
    0.4881   -2.8619    1.4265 H   0  0  0  0  0  0  0  0  0  0  0  0
   -3.2969   -2.3081    0.5082 H   0  0  0  0  0  0  0  0  0  0  0  0
    0.0117   -0.3634    1.3729 H   0  0  0  0  0  0  0  0  0  0  0  0
   -1.2903    0.2689    0.3496 H   0  0  0  0  0  0  0  0  0  0  0  0
   -1.6760   -0.6389    1.8154 H   0  0  0  0  0  0  0  0  0  0  0  0
    1.1299   -0.5719   -2.2182 C   0  0  0  0  0  0  0  0  0  0  0  0
    1.1299   -0.5719   -0.6891 C   0  0  0  0  0  0  0  0  0  0  0  0
    1.1299    0.8223   -0.1197 C   0  0  0  0  0  0  0  0  0  0  0  0
   -0.0646    1.4913    0.1280 C   0  0  0  0  0  0  0  0  0  0  0  0
   -0.0679    2.7915    0.6090 C   0  0  0  0  0  0  0  0  0  0  0  0
    1.1299    3.4469    0.8508 C   0  0  0  0  0  0  0  0  0  0  0  0
    2.3277    2.7915    0.6090 C   0  0  0  0  0  0  0  0  0  0  0  0
    2.3245    1.4913    0.1280 C   0  0  0  0  0  0  0  0  0  0  0  0
    2.0112   -0.0569   -2.6050 H   0  0  0  0  0  0  0  0  0  0  0  0
    0.2487   -0.0569   -2.6050 H   0  0  0  0  0  0  0  0  0  0  0  0
    1.1299   -1.5904   -2.6105 H   0  0  0  0  0  0  0  0  0  0  0  0
    0.0780   -1.2219   -0.2534 H   0  0  0  0  0  0  0  0  0  0  0  0
    2.0066   -1.1136   -0.3260 H   0  0  0  0  0  0  0  0  0  0  0  0
   -1.0055    0.9841   -0.0557 H   0  0  0  0  0  0  0  0  0  0  0  0
   -1.0086    3.2932    0.7989 H   0  0  0  0  0  0  0  0  0  0  0  0
    1.1299    4.4612    1.2291 H   0  0  0  0  0  0  0  0  0  0  0  0
    3.2685    3.2932    0.7989 H   0  0  0  0  0  0  0  0  0  0  0  0
    3.2654    0.9841   -0.0557 H   0  0  0  0  0  0  0  0  0  0  0  0
  1  2  1  0
  1  5  1  0
  1  6  1  0
  1  7  1  0
  2  4  1  0
  2  3  1  0
  3  8  1  0
  4  9  1  0
  4 10  1  0
  4 11  1  0
 12 13  1  0
 12 20  1  0
 12 21  1  0
 12 22  1  0
 13 14  1  0
 13 23  1  0
 13 24  1  0
 14 15  2  0
 14 19  1  0
 15 16  1  0
 15 25  1  0
 16 17  2  0
 16 26  1  0
 17 18  1  0
 17 27  1  0
 18 19  2  0
 18 28  1  0
 19 29  1  0
M  RAD  1   2   2
M  END
>  <reaction>  (5) 
rxn_1501

>  <mol_properties>  (5) 
{"1": {"label": "*3", "atom_type": "Cs"}, "2": {"label": "*4", "atom_type": "S2s"}, "12": {"label": "*1", "atom_type": "Cs"}, "13": {"label": "*0", "atom_type": "Cd"}, "22": {"label": "*2", "atom_type": "H0"}}

>  <type>  (5) 
unop_1

>  <geom_source>  (5) 
Heuristics

$$$$

     RDKit          3D

 29 28  0  0  0  0  0  0  0  0999 V2000
   -1.3658   -3.0297   -0.9365 C   0  0  0  0  0  0  0  0  0  0  0  0
   -0.9959   -1.9546    0.0759 C   0  0  0  0  0  3  0  0  0  0  0  0
   -2.4408   -0.9497    0.5647 S   0  0  0  0  0  0  0  0  0  0  0  0
   -0.2669   -2.5290    1.2827 C   0  0  0  0  0  0  0  0  0  0  0  0
   -1.8612   -2.6011   -1.8070 H   0  0  0  0  0  0  0  0  0  0  0  0
   -2.0406   -3.7629   -0.4881 H   0  0  0  0  0  0  0  0  0  0  0  0
   -0.4701   -3.5597   -1.2705 H   0  0  0  0  0  0  0  0  0  0  0  0
   -3.1343   -1.9469    1.1331 H   0  0  0  0  0  0  0  0  0  0  0  0
    0.6365   -3.0555    0.9642 H   0  0  0  0  0  0  0  0  0  0  0  0
    0.0164   -1.7456    1.9848 H   0  0  0  0  0  0  0  0  0  0  0  0
   -0.9026   -3.2444    1.8101 H   0  0  0  0  0  0  0  0  0  0  0  0
    1.1084   -0.6543   -2.3248 C   0  0  0  0  0  0  0  0  0  0  0  0
    1.1084   -0.6543   -0.7957 C   0  0  0  0  0  0  0  0  0  0  0  0
    1.1084    0.7399   -0.2263 C   0  0  0  0  0  0  0  0  0  0  0  0
   -0.0861    1.4089    0.0214 C   0  0  0  0  0  0  0  0  0  0  0  0
   -0.0894    2.7091    0.5024 C   0  0  0  0  0  0  0  0  0  0  0  0
    1.1084    3.3644    0.7441 C   0  0  0  0  0  0  0  0  0  0  0  0
    2.3062    2.7091    0.5024 C   0  0  0  0  0  0  0  0  0  0  0  0
    2.3029    1.4089    0.0214 C   0  0  0  0  0  0  0  0  0  0  0  0
    1.9897   -0.1393   -2.7117 H   0  0  0  0  0  0  0  0  0  0  0  0
    0.2271   -0.1393   -2.7117 H   0  0  0  0  0  0  0  0  0  0  0  0
    1.1084   -1.6728   -2.7172 H   0  0  0  0  0  0  0  0  0  0  0  0
    0.0564   -1.3044   -0.3600 H   0  0  0  0  0  0  0  0  0  0  0  0
    1.9850   -1.1960   -0.4326 H   0  0  0  0  0  0  0  0  0  0  0  0
   -1.0270    0.9017   -0.1623 H   0  0  0  0  0  0  0  0  0  0  0  0
   -1.0302    3.2108    0.6923 H   0  0  0  0  0  0  0  0  0  0  0  0
    1.1084    4.3788    1.1225 H   0  0  0  0  0  0  0  0  0  0  0  0
    3.2470    3.2108    0.6923 H   0  0  0  0  0  0  0  0  0  0  0  0
    3.2438    0.9017   -0.1623 H   0  0  0  0  0  0  0  0  0  0  0  0
  1  2  1  0
  1  5  1  0
  1  6  1  0
  1  7  1  0
  2  4  1  0
  2  3  1  0
  3  8  1  0
  4  9  1  0
  4 10  1  0
  4 11  1  0
 12 13  1  0
 12 20  1  0
 12 21  1  0
 12 22  1  0
 13 14  1  0
 13 23  1  0
 13 24  1  0
 14 15  2  0
 14 19  1  0
 15 16  1  0
 15 25  1  0
 16 17  2  0
 16 26  1  0
 17 18  1  0
 17 27  1  0
 18 19  2  0
 18 28  1  0
 19 29  1  0
M  RAD  1   2   2
M  END
>  <reaction>  (6) 
rxn_1501

>  <mol_properties>  (6) 
{"1": {"label": "*3", "atom_type": "Cs"}, "2": {"label": "*4", "atom_type": "S2s"}, "12": {"label": "*1", "atom_type": "Cs"}, "13": {"label": "*0", "atom_type": "Cd"}, "22": {"label": "*2", "atom_type": "H0"}}

>  <type>  (6) 
unop_2

>  <geom_source>  (6) 
Heuristics

$$$$

     RDKit          3D

 29 28  0  0  0  0  0  0  0  0999 V2000
   -0.6802   -2.4232    1.5810 C   0  0  0  0  0  0  0  0  0  0  0  0
   -1.0156   -1.7840    0.2407 C   0  0  0  0  0  3  0  0  0  0  0  0
   -2.0233   -2.8874   -0.8098 S   0  0  0  0  0  0  0  0  0  0  0  0
   -1.6545   -0.4118    0.4030 C   0  0  0  0  0  0  0  0  0  0  0  0
   -0.1983   -3.3914    1.4492 H   0  0  0  0  0  0  0  0  0  0  0  0
   -1.5869   -2.5727    2.1723 H   0  0  0  0  0  0  0  0  0  0  0  0
   -0.0109   -1.7752    2.1528 H   0  0  0  0  0  0  0  0  0  0  0  0
   -3.0925   -2.9320   -0.0017 H   0  0  0  0  0  0  0  0  0  0  0  0
   -0.9920    0.2502    0.9666 H   0  0  0  0  0  0  0  0  0  0  0  0
   -1.8631    0.0455   -0.5635 H   0  0  0  0  0  0  0  0  0  0  0  0
   -2.5959   -0.4896    0.9524 H   0  0  0  0  0  0  0  0  0  0  0  0
    1.0887   -0.4837   -2.1601 C   0  0  0  0  0  0  0  0  0  0  0  0
    1.0887   -0.4837   -0.6310 C   0  0  0  0  0  0  0  0  0  0  0  0
    1.0887    0.9105   -0.0616 C   0  0  0  0  0  0  0  0  0  0  0  0
   -0.1058    1.5795    0.1862 C   0  0  0  0  0  0  0  0  0  0  0  0
   -0.1091    2.8797    0.6671 C   0  0  0  0  0  0  0  0  0  0  0  0
    1.0887    3.5351    0.9089 C   0  0  0  0  0  0  0  0  0  0  0  0
    2.2865    2.8797    0.6671 C   0  0  0  0  0  0  0  0  0  0  0  0
    2.2832    1.5795    0.1862 C   0  0  0  0  0  0  0  0  0  0  0  0
    1.9700    0.0313   -2.5469 H   0  0  0  0  0  0  0  0  0  0  0  0
    0.2074    0.0313   -2.5469 H   0  0  0  0  0  0  0  0  0  0  0  0
    1.0887   -1.5022   -2.5524 H   0  0  0  0  0  0  0  0  0  0  0  0
    0.0368   -1.1337   -0.1952 H   0  0  0  0  0  0  0  0  0  0  0  0
    1.9654   -1.0254   -0.2678 H   0  0  0  0  0  0  0  0  0  0  0  0
   -1.0467    1.0723    0.0024 H   0  0  0  0  0  0  0  0  0  0  0  0
   -1.0499    3.3814    0.8570 H   0  0  0  0  0  0  0  0  0  0  0  0
    1.0887    4.5494    1.2873 H   0  0  0  0  0  0  0  0  0  0  0  0
    3.2273    3.3814    0.8570 H   0  0  0  0  0  0  0  0  0  0  0  0
    3.2241    1.0723    0.0024 H   0  0  0  0  0  0  0  0  0  0  0  0
  1  2  1  0
  1  5  1  0
  1  6  1  0
  1  7  1  0
  2  4  1  0
  2  3  1  0
  3  8  1  0
  4  9  1  0
  4 10  1  0
  4 11  1  0
 12 13  1  0
 12 20  1  0
 12 21  1  0
 12 22  1  0
 13 14  1  0
 13 23  1  0
 13 24  1  0
 14 15  2  0
 14 19  1  0
 15 16  1  0
 15 25  1  0
 16 17  2  0
 16 26  1  0
 17 18  1  0
 17 27  1  0
 18 19  2  0
 18 28  1  0
 19 29  1  0
M  RAD  1   2   2
M  END
>  <reaction>  (7) 
rxn_1501

>  <mol_properties>  (7) 
{"1": {"label": "*3", "atom_type": "Cs"}, "2": {"label": "*4", "atom_type": "S2s"}, "12": {"label": "*1", "atom_type": "Cs"}, "13": {"label": "*0", "atom_type": "Cd"}, "22": {"label": "*2", "atom_type": "H0"}}

>  <type>  (7) 
unop_3

>  <geom_source>  (7) 
Heuristics

$$$$

     RDKit          3D

 29 28  0  0  0  0  0  0  0  0999 V2000
   -2.4768   -1.3123   -0.5787 C   0  0  0  0  0  0  0  0  0  0  0  0
   -1.2218   -2.0030   -0.0634 C   0  0  0  0  0  3  0  0  0  0  0  0
   -0.5355   -1.1654    1.4076 S   0  0  0  0  0  0  0  0  0  0  0  0
   -1.4431   -3.4896    0.1788 C   0  0  0  0  0  0  0  0  0  0  0  0
   -2.2962   -0.2559   -0.7743 H   0  0  0  0  0  0  0  0  0  0  0  0
   -3.2848   -1.3892    0.1530 H   0  0  0  0  0  0  0  0  0  0  0  0
   -2.8169   -1.7854   -1.5035 H   0  0  0  0  0  0  0  0  0  0  0  0
   -1.5862   -1.3846    2.2114 H   0  0  0  0  0  0  0  0  0  0  0  0
   -1.7760   -3.9778   -0.7407 H   0  0  0  0  0  0  0  0  0  0  0  0
   -0.5299   -3.9761    0.5200 H   0  0  0  0  0  0  0  0  0  0  0  0
   -2.2142   -3.6440    0.9375 H   0  0  0  0  0  0  0  0  0  0  0  0
    0.8825   -0.7028   -2.4642 C   0  0  0  0  0  0  0  0  0  0  0  0
    0.8825   -0.7028   -0.9351 C   0  0  0  0  0  0  0  0  0  0  0  0
    0.8825    0.6915   -0.3657 C   0  0  0  0  0  0  0  0  0  0  0  0
   -0.3120    1.3605   -0.1180 C   0  0  0  0  0  0  0  0  0  0  0  0
   -0.3153    2.6607    0.3630 C   0  0  0  0  0  0  0  0  0  0  0  0
    0.8825    3.3160    0.6048 C   0  0  0  0  0  0  0  0  0  0  0  0
    2.0803    2.6607    0.3630 C   0  0  0  0  0  0  0  0  0  0  0  0
    2.0770    1.3605   -0.1180 C   0  0  0  0  0  0  0  0  0  0  0  0
    1.7638   -0.1877   -2.8511 H   0  0  0  0  0  0  0  0  0  0  0  0
    0.0012   -0.1877   -2.8511 H   0  0  0  0  0  0  0  0  0  0  0  0
    0.8825   -1.7212   -2.8565 H   0  0  0  0  0  0  0  0  0  0  0  0
   -0.1695   -1.3528   -0.4994 H   0  0  0  0  0  0  0  0  0  0  0  0
    1.7591   -1.2444   -0.5720 H   0  0  0  0  0  0  0  0  0  0  0  0
   -1.2529    0.8533   -0.3017 H   0  0  0  0  0  0  0  0  0  0  0  0
   -1.2561    3.1624    0.5529 H   0  0  0  0  0  0  0  0  0  0  0  0
    0.8825    4.3304    0.9831 H   0  0  0  0  0  0  0  0  0  0  0  0
    3.0211    3.1624    0.5529 H   0  0  0  0  0  0  0  0  0  0  0  0
    3.0179    0.8533   -0.3017 H   0  0  0  0  0  0  0  0  0  0  0  0
  1  2  1  0
  1  5  1  0
  1  6  1  0
  1  7  1  0
  2  4  1  0
  2  3  1  0
  3  8  1  0
  4  9  1  0
  4 10  1  0
  4 11  1  0
 12 13  1  0
 12 20  1  0
 12 21  1  0
 12 22  1  0
 13 14  1  0
 13 23  1  0
 13 24  1  0
 14 15  2  0
 14 19  1  0
 15 16  1  0
 15 25  1  0
 16 17  2  0
 16 26  1  0
 17 18  1  0
 17 27  1  0
 18 19  2  0
 18 28  1  0
 19 29  1  0
M  RAD  1   2   2
M  END
>  <reaction>  (8) 
rxn_1501

>  <mol_properties>  (8) 
{"1": {"label": "*3", "atom_type": "Cs"}, "2": {"label": "*4", "atom_type": "S2s"}, "12": {"label": "*1", "atom_type": "Cs"}, "13": {"label": "*0", "atom_type": "Cd"}, "22": {"label": "*2", "atom_type": "H0"}}

>  <type>  (8) 
unop_4

>  <geom_source>  (8) 
Heuristics

$$$$

     RDKit          3D

 29 28  0  0  0  0  0  0  0  0999 V2000
   -1.1539   -1.6636    1.7447 C   0  0  0  0  0  0  0  0  0  0  0  0
   -1.1653   -1.6706    0.2224 C   0  0  0  0  0  3  0  0  0  0  0  0
   -0.8996   -3.3459   -0.4555 S   0  0  0  0  0  0  0  0  0  0  0  0
   -2.4183   -1.0184   -0.3453 C   0  0  0  0  0  0  0  0  0  0  0  0
   -0.2394   -2.1075    2.1365 H   0  0  0  0  0  0  0  0  0  0  0  0
   -2.0020   -2.2299    2.1373 H   0  0  0  0  0  0  0  0  0  0  0  0
   -1.2332   -0.6398    2.1193 H   0  0  0  0  0  0  0  0  0  0  0  0
   -2.0146   -3.8931    0.0501 H   0  0  0  0  0  0  0  0  0  0  0  0
   -2.5064    0.0099    0.0148 H   0  0  0  0  0  0  0  0  0  0  0  0
   -2.3998   -1.0051   -1.4345 H   0  0  0  0  0  0  0  0  0  0  0  0
   -3.3114   -1.5618   -0.0272 H   0  0  0  0  0  0  0  0  0  0  0  0
    0.9390   -0.3703   -2.1784 C   0  0  0  0  0  0  0  0  0  0  0  0
    0.9390   -0.3703   -0.6493 C   0  0  0  0  0  0  0  0  0  0  0  0
    0.9390    1.0239   -0.0799 C   0  0  0  0  0  0  0  0  0  0  0  0
   -0.2556    1.6929    0.1679 C   0  0  0  0  0  0  0  0  0  0  0  0
   -0.2588    2.9931    0.6488 C   0  0  0  0  0  0  0  0  0  0  0  0
    0.9390    3.6484    0.8906 C   0  0  0  0  0  0  0  0  0  0  0  0
    2.1368    2.9931    0.6488 C   0  0  0  0  0  0  0  0  0  0  0  0
    2.1335    1.6929    0.1679 C   0  0  0  0  0  0  0  0  0  0  0  0
    1.8203    0.1447   -2.5652 H   0  0  0  0  0  0  0  0  0  0  0  0
    0.0577    0.1447   -2.5652 H   0  0  0  0  0  0  0  0  0  0  0  0
    0.9390   -1.3888   -2.5707 H   0  0  0  0  0  0  0  0  0  0  0  0
   -0.1130   -1.0204   -0.2135 H   0  0  0  0  0  0  0  0  0  0  0  0
    1.8156   -0.9120   -0.2862 H   0  0  0  0  0  0  0  0  0  0  0  0
   -1.1964    1.1857   -0.0159 H   0  0  0  0  0  0  0  0  0  0  0  0
   -1.1996    3.4948    0.8387 H   0  0  0  0  0  0  0  0  0  0  0  0
    0.9390    4.6628    1.2689 H   0  0  0  0  0  0  0  0  0  0  0  0
    3.0776    3.4948    0.8387 H   0  0  0  0  0  0  0  0  0  0  0  0
    3.0744    1.1857   -0.0159 H   0  0  0  0  0  0  0  0  0  0  0  0
  1  2  1  0
  1  5  1  0
  1  6  1  0
  1  7  1  0
  2  4  1  0
  2  3  1  0
  3  8  1  0
  4  9  1  0
  4 10  1  0
  4 11  1  0
 12 13  1  0
 12 20  1  0
 12 21  1  0
 12 22  1  0
 13 14  1  0
 13 23  1  0
 13 24  1  0
 14 15  2  0
 14 19  1  0
 15 16  1  0
 15 25  1  0
 16 17  2  0
 16 26  1  0
 17 18  1  0
 17 27  1  0
 18 19  2  0
 18 28  1  0
 19 29  1  0
M  RAD  1   2   2
M  END
>  <reaction>  (9) 
rxn_1501

>  <mol_properties>  (9) 
{"1": {"label": "*3", "atom_type": "Cs"}, "2": {"label": "*4", "atom_type": "S2s"}, "12": {"label": "*1", "atom_type": "Cs"}, "13": {"label": "*0", "atom_type": "Cd"}, "22": {"label": "*2", "atom_type": "H0"}}

>  <type>  (9) 
unop_5

>  <geom_source>  (9) 
Heuristics

$$$$

     RDKit          3D

 29 28  0  0  0  0  0  0  0  0999 V2000
   -2.4663   -0.9348    0.1004 C   0  0  0  0  0  0  0  0  0  0  0  0
   -1.3135   -1.9154   -0.0636 C   0  0  0  0  0  3  0  0  0  0  0  0
   -0.0554   -1.7167    1.2458 S   0  0  0  0  0  0  0  0  0  0  0  0
   -1.7959   -3.3549   -0.1763 C   0  0  0  0  0  0  0  0  0  0  0  0
   -2.1086    0.0930    0.1514 H   0  0  0  0  0  0  0  0  0  0  0  0
   -3.0228   -1.1468    1.0166 H   0  0  0  0  0  0  0  0  0  0  0  0
   -3.1599   -1.0216   -0.7400 H   0  0  0  0  0  0  0  0  0  0  0  0
   -0.8497   -2.0541    2.2723 H   0  0  0  0  0  0  0  0  0  0  0  0
   -2.4848   -3.4586   -1.0186 H   0  0  0  0  0  0  0  0  0  0  0  0
   -0.9631   -4.0421   -0.3215 H   0  0  0  0  0  0  0  0  0  0  0  0
   -2.3286   -3.6531    0.7300 H   0  0  0  0  0  0  0  0  0  0  0  0
    0.7908   -0.6152   -2.4643 C   0  0  0  0  0  0  0  0  0  0  0  0
    0.7908   -0.6152   -0.9352 C   0  0  0  0  0  0  0  0  0  0  0  0
    0.7908    0.7791   -0.3658 C   0  0  0  0  0  0  0  0  0  0  0  0
   -0.4037    1.4480   -0.1181 C   0  0  0  0  0  0  0  0  0  0  0  0
   -0.4070    2.7483    0.3629 C   0  0  0  0  0  0  0  0  0  0  0  0
    0.7908    3.4036    0.6047 C   0  0  0  0  0  0  0  0  0  0  0  0
    1.9886    2.7483    0.3629 C   0  0  0  0  0  0  0  0  0  0  0  0
    1.9854    1.4480   -0.1181 C   0  0  0  0  0  0  0  0  0  0  0  0
    1.6721   -0.1001   -2.8512 H   0  0  0  0  0  0  0  0  0  0  0  0
   -0.0904   -0.1001   -2.8512 H   0  0  0  0  0  0  0  0  0  0  0  0
    0.7908   -1.6336   -2.8567 H   0  0  0  0  0  0  0  0  0  0  0  0
   -0.2611   -1.2652   -0.4995 H   0  0  0  0  0  0  0  0  0  0  0  0
    1.6675   -1.1569   -0.5721 H   0  0  0  0  0  0  0  0  0  0  0  0
   -1.3446    0.9409   -0.3018 H   0  0  0  0  0  0  0  0  0  0  0  0
   -1.3477    3.2500    0.5528 H   0  0  0  0  0  0  0  0  0  0  0  0
    0.7908    4.4180    0.9830 H   0  0  0  0  0  0  0  0  0  0  0  0
    2.9294    3.2500    0.5528 H   0  0  0  0  0  0  0  0  0  0  0  0
    2.9263    0.9409   -0.3018 H   0  0  0  0  0  0  0  0  0  0  0  0
  1  2  1  0
  1  5  1  0
  1  6  1  0
  1  7  1  0
  2  4  1  0
  2  3  1  0
  3  8  1  0
  4  9  1  0
  4 10  1  0
  4 11  1  0
 12 13  1  0
 12 20  1  0
 12 21  1  0
 12 22  1  0
 13 14  1  0
 13 23  1  0
 13 24  1  0
 14 15  2  0
 14 19  1  0
 15 16  1  0
 15 25  1  0
 16 17  2  0
 16 26  1  0
 17 18  1  0
 17 27  1  0
 18 19  2  0
 18 28  1  0
 19 29  1  0
M  RAD  1   2   2
M  END
>  <reaction>  (10) 
rxn_1501

>  <mol_properties>  (10) 
{"1": {"label": "*3", "atom_type": "Cs"}, "2": {"label": "*4", "atom_type": "S2s"}, "12": {"label": "*1", "atom_type": "Cs"}, "13": {"label": "*0", "atom_type": "Cd"}, "22": {"label": "*2", "atom_type": "H0"}}

>  <type>  (10) 
unop_6

>  <geom_source>  (10) 
Heuristics

$$$$

     RDKit          3D

 29 28  0  0  0  0  0  0  0  0999 V2000
   -2.2085   -0.8589    0.8346 C   0  0  0  0  0  0  0  0  0  0  0  0
   -1.3607   -1.8012   -0.0085 C   0  0  0  0  0  3  0  0  0  0  0  0
    0.1571   -2.3213    0.8646 S   0  0  0  0  0  0  0  0  0  0  0  0
   -2.1606   -2.9916   -0.5190 C   0  0  0  0  0  0  0  0  0  0  0  0
   -1.6309    0.0021    1.1692 H   0  0  0  0  0  0  0  0  0  0  0  0
   -2.5922   -1.3749    1.7181 H   0  0  0  0  0  0  0  0  0  0  0  0
   -3.0652   -0.5014    0.2575 H   0  0  0  0  0  0  0  0  0  0  0  0
   -0.4574   -2.9697    1.8646 H   0  0  0  0  0  0  0  0  0  0  0  0
   -3.0170   -2.6490   -1.1055 H   0  0  0  0  0  0  0  0  0  0  0  0
   -1.5492   -3.6420   -1.1435 H   0  0  0  0  0  0  0  0  0  0  0  0
   -2.5427   -3.5836    0.3163 H   0  0  0  0  0  0  0  0  0  0  0  0
    0.7436   -0.5009   -2.4093 C   0  0  0  0  0  0  0  0  0  0  0  0
    0.7436   -0.5009   -0.8802 C   0  0  0  0  0  0  0  0  0  0  0  0
    0.7436    0.8934   -0.3108 C   0  0  0  0  0  0  0  0  0  0  0  0
   -0.4509    1.5623   -0.0631 C   0  0  0  0  0  0  0  0  0  0  0  0
   -0.4542    2.8625    0.4179 C   0  0  0  0  0  0  0  0  0  0  0  0
    0.7436    3.5179    0.6597 C   0  0  0  0  0  0  0  0  0  0  0  0
    1.9414    2.8625    0.4179 C   0  0  0  0  0  0  0  0  0  0  0  0
    1.9381    1.5623   -0.0631 C   0  0  0  0  0  0  0  0  0  0  0  0
    1.6249    0.0141   -2.7962 H   0  0  0  0  0  0  0  0  0  0  0  0
   -0.1377    0.0141   -2.7962 H   0  0  0  0  0  0  0  0  0  0  0  0
    0.7436   -1.5193   -2.8016 H   0  0  0  0  0  0  0  0  0  0  0  0
   -0.3083   -1.1509   -0.4445 H   0  0  0  0  0  0  0  0  0  0  0  0
    1.6203   -1.0426   -0.5171 H   0  0  0  0  0  0  0  0  0  0  0  0
   -1.3918    1.0551   -0.2468 H   0  0  0  0  0  0  0  0  0  0  0  0
   -1.3950    3.3642    0.6078 H   0  0  0  0  0  0  0  0  0  0  0  0
    0.7436    4.5322    1.0380 H   0  0  0  0  0  0  0  0  0  0  0  0
    2.8822    3.3642    0.6078 H   0  0  0  0  0  0  0  0  0  0  0  0
    2.8790    1.0551   -0.2468 H   0  0  0  0  0  0  0  0  0  0  0  0
  1  2  1  0
  1  5  1  0
  1  6  1  0
  1  7  1  0
  2  4  1  0
  2  3  1  0
  3  8  1  0
  4  9  1  0
  4 10  1  0
  4 11  1  0
 12 13  1  0
 12 20  1  0
 12 21  1  0
 12 22  1  0
 13 14  1  0
 13 23  1  0
 13 24  1  0
 14 15  2  0
 14 19  1  0
 15 16  1  0
 15 25  1  0
 16 17  2  0
 16 26  1  0
 17 18  1  0
 17 27  1  0
 18 19  2  0
 18 28  1  0
 19 29  1  0
M  RAD  1   2   2
M  END
>  <reaction>  (11) 
rxn_1501

>  <mol_properties>  (11) 
{"1": {"label": "*3", "atom_type": "Cs"}, "2": {"label": "*4", "atom_type": "S2s"}, "12": {"label": "*1", "atom_type": "Cs"}, "13": {"label": "*0", "atom_type": "Cd"}, "22": {"label": "*2", "atom_type": "H0"}}

>  <type>  (11) 
unop_7

>  <geom_source>  (11) 
Heuristics

$$$$

     RDKit          3D

 29 28  0  0  0  0  0  0  0  0999 V2000
   -0.6152   -3.3749    0.2920 C   0  0  0  0  0  0  0  0  0  0  0  0
   -0.9765   -1.9052    0.1280 C   0  0  0  0  0  3  0  0  0  0  0  0
   -2.7500   -1.6745   -0.2434 S   0  0  0  0  0  0  0  0  0  0  0  0
   -0.5301   -1.0681    1.3186 C   0  0  0  0  0  0  0  0  0  0  0  0
   -0.9151   -3.9566   -0.5790 H   0  0  0  0  0  0  0  0  0  0  0  0
   -1.1117   -3.7964    1.1694 H   0  0  0  0  0  0  0  0  0  0  0  0
    0.4631   -3.4866    0.4318 H   0  0  0  0  0  0  0  0  0  0  0  0
   -3.2134   -2.1718    0.9125 H   0  0  0  0  0  0  0  0  0  0  0  0
    0.5488   -1.1637    1.4657 H   0  0  0  0  0  0  0  0  0  0  0  0
   -0.7697   -0.0150    1.1752 H   0  0  0  0  0  0  0  0  0  0  0  0
   -1.0236   -1.4074    2.2327 H   0  0  0  0  0  0  0  0  0  0  0  0
    1.1278   -0.6049   -2.2728 C   0  0  0  0  0  0  0  0  0  0  0  0
    1.1278   -0.6049   -0.7437 C   0  0  0  0  0  0  0  0  0  0  0  0
    1.1278    0.7894   -0.1743 C   0  0  0  0  0  0  0  0  0  0  0  0
   -0.0667    1.4583    0.0735 C   0  0  0  0  0  0  0  0  0  0  0  0
   -0.0700    2.7585    0.5544 C   0  0  0  0  0  0  0  0  0  0  0  0
    1.1278    3.4139    0.7962 C   0  0  0  0  0  0  0  0  0  0  0  0
    2.3256    2.7585    0.5544 C   0  0  0  0  0  0  0  0  0  0  0  0
    2.3223    1.4583    0.0735 C   0  0  0  0  0  0  0  0  0  0  0  0
    2.0091   -0.0899   -2.6596 H   0  0  0  0  0  0  0  0  0  0  0  0
    0.2465   -0.0899   -2.6596 H   0  0  0  0  0  0  0  0  0  0  0  0
    1.1278   -1.6233   -2.6651 H   0  0  0  0  0  0  0  0  0  0  0  0
    0.0758   -1.2549   -0.3079 H   0  0  0  0  0  0  0  0  0  0  0  0
    2.0044   -1.1466   -0.3805 H   0  0  0  0  0  0  0  0  0  0  0  0
   -1.0076    0.9511   -0.1103 H   0  0  0  0  0  0  0  0  0  0  0  0
   -1.0108    3.2602    0.7443 H   0  0  0  0  0  0  0  0  0  0  0  0
    1.1278    4.4282    1.1746 H   0  0  0  0  0  0  0  0  0  0  0  0
    3.2664    3.2602    0.7443 H   0  0  0  0  0  0  0  0  0  0  0  0
    3.2632    0.9511   -0.1103 H   0  0  0  0  0  0  0  0  0  0  0  0
  1  2  1  0
  1  5  1  0
  1  6  1  0
  1  7  1  0
  2  4  1  0
  2  3  1  0
  3  8  1  0
  4  9  1  0
  4 10  1  0
  4 11  1  0
 12 13  1  0
 12 20  1  0
 12 21  1  0
 12 22  1  0
 13 14  1  0
 13 23  1  0
 13 24  1  0
 14 15  2  0
 14 19  1  0
 15 16  1  0
 15 25  1  0
 16 17  2  0
 16 26  1  0
 17 18  1  0
 17 27  1  0
 18 19  2  0
 18 28  1  0
 19 29  1  0
M  RAD  1   2   2
M  END
>  <reaction>  (12) 
rxn_1501

>  <mol_properties>  (12) 
{"1": {"label": "*3", "atom_type": "Cs"}, "2": {"label": "*4", "atom_type": "S2s"}, "12": {"label": "*1", "atom_type": "Cs"}, "13": {"label": "*0", "atom_type": "Cd"}, "22": {"label": "*2", "atom_type": "H0"}}

>  <type>  (12) 
unop_8

>  <geom_source>  (12) 
Heuristics

$$$$

     RDKit          3D

 29 28  0  0  0  0  0  0  0  0999 V2000
   -2.2428   -1.8867   -1.0318 C   0  0  0  0  0  0  0  0  0  0  0  0
   -1.1159   -2.0368   -0.0194 C   0  0  0  0  0  3  0  0  0  0  0  0
   -1.2158   -0.7835    1.3057 S   0  0  0  0  0  0  0  0  0  0  0  0
   -1.0303   -3.4506    0.5389 C   0  0  0  0  0  0  0  0  0  0  0  0
   -2.2744   -0.8786   -1.4436 H   0  0  0  0  0  0  0  0  0  0  0  0
   -3.2087   -2.0932   -0.5641 H   0  0  0  0  0  0  0  0  0  0  0  0
   -2.1108   -2.5953   -1.8535 H   0  0  0  0  0  0  0  0  0  0  0  0
   -2.3907   -1.1884    1.8096 H   0  0  0  0  0  0  0  0  0  0  0  0
   -0.8897   -4.1701   -0.2719 H   0  0  0  0  0  0  0  0  0  0  0  0
   -0.2026   -3.5507    1.2401 H   0  0  0  0  0  0  0  0  0  0  0  0
   -1.9529   -3.7127    1.0625 H   0  0  0  0  0  0  0  0  0  0  0  0
    0.9884   -0.7366   -2.4202 C   0  0  0  0  0  0  0  0  0  0  0  0
    0.9884   -0.7366   -0.8910 C   0  0  0  0  0  0  0  0  0  0  0  0
    0.9884    0.6577   -0.3216 C   0  0  0  0  0  0  0  0  0  0  0  0
   -0.2061    1.3266   -0.0739 C   0  0  0  0  0  0  0  0  0  0  0  0
   -0.2094    2.6269    0.4070 C   0  0  0  0  0  0  0  0  0  0  0  0
    0.9884    3.2822    0.6488 C   0  0  0  0  0  0  0  0  0  0  0  0
    2.1862    2.6269    0.4070 C   0  0  0  0  0  0  0  0  0  0  0  0
    2.1829    1.3266   -0.0739 C   0  0  0  0  0  0  0  0  0  0  0  0
    1.8697   -0.2215   -2.8070 H   0  0  0  0  0  0  0  0  0  0  0  0
    0.1071   -0.2215   -2.8070 H   0  0  0  0  0  0  0  0  0  0  0  0
    0.9884   -1.7550   -2.8125 H   0  0  0  0  0  0  0  0  0  0  0  0
   -0.0636   -1.3866   -0.4553 H   0  0  0  0  0  0  0  0  0  0  0  0
    1.8650   -1.2783   -0.5279 H   0  0  0  0  0  0  0  0  0  0  0  0
   -1.1470    0.8195   -0.2576 H   0  0  0  0  0  0  0  0  0  0  0  0
   -1.1502    3.1285    0.5969 H   0  0  0  0  0  0  0  0  0  0  0  0
    0.9884    4.2965    1.0272 H   0  0  0  0  0  0  0  0  0  0  0  0
    3.1270    3.1286    0.5969 H   0  0  0  0  0  0  0  0  0  0  0  0
    3.1238    0.8195   -0.2576 H   0  0  0  0  0  0  0  0  0  0  0  0
  1  2  1  0
  1  5  1  0
  1  6  1  0
  1  7  1  0
  2  4  1  0
  2  3  1  0
  3  8  1  0
  4  9  1  0
  4 10  1  0
  4 11  1  0
 12 13  1  0
 12 20  1  0
 12 21  1  0
 12 22  1  0
 13 14  1  0
 13 23  1  0
 13 24  1  0
 14 15  2  0
 14 19  1  0
 15 16  1  0
 15 25  1  0
 16 17  2  0
 16 26  1  0
 17 18  1  0
 17 27  1  0
 18 19  2  0
 18 28  1  0
 19 29  1  0
M  RAD  1   2   2
M  END
>  <reaction>  (13) 
rxn_1501

>  <mol_properties>  (13) 
{"1": {"label": "*3", "atom_type": "Cs"}, "2": {"label": "*4", "atom_type": "S2s"}, "12": {"label": "*1", "atom_type": "Cs"}, "13": {"label": "*0", "atom_type": "Cd"}, "22": {"label": "*2", "atom_type": "H0"}}

>  <type>  (13) 
unop_9

>  <geom_source>  (13) 
Heuristics

$$$$

     RDKit          3D

 29 28  0  0  0  0  0  0  0  0999 V2000
   -0.9288   -3.3526   -0.4183 C   0  0  0  0  0  0  0  0  0  0  0  0
   -0.9850   -1.9212    0.0969 C   0  0  0  0  0  3  0  0  0  0  0  0
   -2.6959   -1.2844    0.1609 S   0  0  0  0  0  0  0  0  0  0  0  0
   -0.2678   -1.7624    1.4303 C   0  0  0  0  0  0  0  0  0  0  0  0
   -1.4210   -3.4455   -1.3857 H   0  0  0  0  0  0  0  0  0  0  0  0
   -1.4227   -4.0317    0.2810 H   0  0  0  0  0  0  0  0  0  0  0  0
    0.1098   -3.6771   -0.5226 H   0  0  0  0  0  0  0  0  0  0  0  0
   -3.1488   -2.1566    1.0732 H   0  0  0  0  0  0  0  0  0  0  0  0
    0.7754   -2.0758    1.3389 H   0  0  0  0  0  0  0  0  0  0  0  0
   -0.2916   -0.7285    1.7729 H   0  0  0  0  0  0  0  0  0  0  0  0
   -0.7382   -2.3848    2.1954 H   0  0  0  0  0  0  0  0  0  0  0  0
    1.1193   -0.6209   -2.3039 C   0  0  0  0  0  0  0  0  0  0  0  0
    1.1193   -0.6209   -0.7748 C   0  0  0  0  0  0  0  0  0  0  0  0
    1.1193    0.7734   -0.2053 C   0  0  0  0  0  0  0  0  0  0  0  0
   -0.0752    1.4423    0.0424 C   0  0  0  0  0  0  0  0  0  0  0  0
   -0.0785    2.7425    0.5233 C   0  0  0  0  0  0  0  0  0  0  0  0
    1.1193    3.3979    0.7651 C   0  0  0  0  0  0  0  0  0  0  0  0
    2.3171    2.7425    0.5233 C   0  0  0  0  0  0  0  0  0  0  0  0
    2.3138    1.4423    0.0424 C   0  0  0  0  0  0  0  0  0  0  0  0
    2.0006   -0.1059   -2.6907 H   0  0  0  0  0  0  0  0  0  0  0  0
    0.2380   -0.1059   -2.6907 H   0  0  0  0  0  0  0  0  0  0  0  0
    1.1193   -1.6393   -2.6962 H   0  0  0  0  0  0  0  0  0  0  0  0
    0.0673   -1.2709   -0.3390 H   0  0  0  0  0  0  0  0  0  0  0  0
    1.9959   -1.1626   -0.4116 H   0  0  0  0  0  0  0  0  0  0  0  0
   -1.0161    0.9351   -0.1414 H   0  0  0  0  0  0  0  0  0  0  0  0
   -1.0193    3.2442    0.7132 H   0  0  0  0  0  0  0  0  0  0  0  0
    1.1193    4.4122    1.1435 H   0  0  0  0  0  0  0  0  0  0  0  0
    3.2579    3.2442    0.7132 H   0  0  0  0  0  0  0  0  0  0  0  0
    3.2547    0.9351   -0.1414 H   0  0  0  0  0  0  0  0  0  0  0  0
  1  2  1  0
  1  5  1  0
  1  6  1  0
  1  7  1  0
  2  4  1  0
  2  3  1  0
  3  8  1  0
  4  9  1  0
  4 10  1  0
  4 11  1  0
 12 13  1  0
 12 20  1  0
 12 21  1  0
 12 22  1  0
 13 14  1  0
 13 23  1  0
 13 24  1  0
 14 15  2  0
 14 19  1  0
 15 16  1  0
 15 25  1  0
 16 17  2  0
 16 26  1  0
 17 18  1  0
 17 27  1  0
 18 19  2  0
 18 28  1  0
 19 29  1  0
M  RAD  1   2   2
M  END
>  <reaction>  (14) 
rxn_1501

>  <mol_properties>  (14) 
{"1": {"label": "*3", "atom_type": "Cs"}, "2": {"label": "*4", "atom_type": "S2s"}, "12": {"label": "*1", "atom_type": "Cs"}, "13": {"label": "*0", "atom_type": "Cd"}, "22": {"label": "*2", "atom_type": "H0"}}

>  <type>  (14) 
unop_10

>  <geom_source>  (14) 
Heuristics

$$$$

     RDKit          3D

 29 28  0  0  0  0  0  0  0  0999 V2000
   -1.7467   -1.1061    1.4400 C   0  0  0  0  0  0  0  0  0  0  0  0
   -1.3251   -1.6920    0.0997 C   0  0  0  0  0  3  0  0  0  0  0  0
   -0.0179   -2.9542    0.2863 S   0  0  0  0  0  0  0  0  0  0  0  0
   -2.5122   -2.2146   -0.6973 C   0  0  0  0  0  0  0  0  0  0  0  0
   -0.8914   -0.7107    1.9868 H   0  0  0  0  0  0  0  0  0  0  0  0
   -2.2228   -1.8698    2.0598 H   0  0  0  0  0  0  0  0  0  0  0  0
   -2.4686   -0.2990    1.2903 H   0  0  0  0  0  0  0  0  0  0  0  0
   -0.7477   -3.8246    0.9991 H   0  0  0  0  0  0  0  0  0  0  0  0
   -3.2394   -1.4153   -0.8619 H   0  0  0  0  0  0  0  0  0  0  0  0
   -2.1993   -2.6049   -1.6651 H   0  0  0  0  0  0  0  0  0  0  0  0
   -3.0155   -3.0179   -0.1536 H   0  0  0  0  0  0  0  0  0  0  0  0
    0.7792   -0.3917   -2.3011 C   0  0  0  0  0  0  0  0  0  0  0  0
    0.7792   -0.3917   -0.7720 C   0  0  0  0  0  0  0  0  0  0  0  0
    0.7792    1.0026   -0.2026 C   0  0  0  0  0  0  0  0  0  0  0  0
   -0.4153    1.6715    0.0452 C   0  0  0  0  0  0  0  0  0  0  0  0
   -0.4186    2.9717    0.5261 C   0  0  0  0  0  0  0  0  0  0  0  0
    0.7792    3.6271    0.7679 C   0  0  0  0  0  0  0  0  0  0  0  0
    1.9770    2.9717    0.5261 C   0  0  0  0  0  0  0  0  0  0  0  0
    1.9737    1.6715    0.0452 C   0  0  0  0  0  0  0  0  0  0  0  0
    1.6605    0.1233   -2.6879 H   0  0  0  0  0  0  0  0  0  0  0  0
   -0.1021    0.1233   -2.6879 H   0  0  0  0  0  0  0  0  0  0  0  0
    0.7792   -1.4101   -2.6934 H   0  0  0  0  0  0  0  0  0  0  0  0
   -0.2727   -1.0417   -0.3362 H   0  0  0  0  0  0  0  0  0  0  0  0
    1.6559   -0.9334   -0.4088 H   0  0  0  0  0  0  0  0  0  0  0  0
   -1.3562    1.1643   -0.1386 H   0  0  0  0  0  0  0  0  0  0  0  0
   -1.3594    3.4734    0.7160 H   0  0  0  0  0  0  0  0  0  0  0  0
    0.7792    4.6414    1.1463 H   0  0  0  0  0  0  0  0  0  0  0  0
    2.9178    3.4734    0.7160 H   0  0  0  0  0  0  0  0  0  0  0  0
    2.9146    1.1643   -0.1386 H   0  0  0  0  0  0  0  0  0  0  0  0
  1  2  1  0
  1  5  1  0
  1  6  1  0
  1  7  1  0
  2  4  1  0
  2  3  1  0
  3  8  1  0
  4  9  1  0
  4 10  1  0
  4 11  1  0
 12 13  1  0
 12 20  1  0
 12 21  1  0
 12 22  1  0
 13 14  1  0
 13 23  1  0
 13 24  1  0
 14 15  2  0
 14 19  1  0
 15 16  1  0
 15 25  1  0
 16 17  2  0
 16 26  1  0
 17 18  1  0
 17 27  1  0
 18 19  2  0
 18 28  1  0
 19 29  1  0
M  RAD  1   2   2
M  END
>  <reaction>  (15) 
rxn_1501

>  <mol_properties>  (15) 
{"1": {"label": "*3", "atom_type": "Cs"}, "2": {"label": "*4", "atom_type": "S2s"}, "12": {"label": "*1", "atom_type": "Cs"}, "13": {"label": "*0", "atom_type": "Cd"}, "22": {"label": "*2", "atom_type": "H0"}}

>  <type>  (15) 
unop_11

>  <geom_source>  (15) 
Heuristics

$$$$

     RDKit          3D

 29 28  0  0  0  0  0  0  0  0999 V2000
   -1.8360   -2.5043   -1.1562 C   0  0  0  0  0  0  0  0  0  0  0  0
   -1.0331   -2.0082    0.0382 C   0  0  0  0  0  3  0  0  0  0  0  0
   -1.9279   -0.7217    0.9766 S   0  0  0  0  0  0  0  0  0  0  0  0
   -0.5717   -3.1495    0.9337 C   0  0  0  0  0  0  0  0  0  0  0  0
   -2.1353   -1.6803   -1.8029 H   0  0  0  0  0  0  0  0  0  0  0  0
   -2.7398   -3.0204   -0.8232 H   0  0  0  0  0  0  0  0  0  0  0  0
   -1.2442   -3.2114   -1.7432 H   0  0  0  0  0  0  0  0  0  0  0  0
   -2.9534   -1.4971    1.3577 H   0  0  0  0  0  0  0  0  0  0  0  0
    0.0290   -3.8611    0.3613 H   0  0  0  0  0  0  0  0  0  0  0  0
    0.0251   -2.7826    1.7681 H   0  0  0  0  0  0  0  0  0  0  0  0
   -1.4304   -3.6886    1.3412 H   0  0  0  0  0  0  0  0  0  0  0  0
    1.0712   -0.7079   -2.3626 C   0  0  0  0  0  0  0  0  0  0  0  0
    1.0712   -0.7079   -0.8335 C   0  0  0  0  0  0  0  0  0  0  0  0
    1.0712    0.6864   -0.2641 C   0  0  0  0  0  0  0  0  0  0  0  0
   -0.1233    1.3553   -0.0164 C   0  0  0  0  0  0  0  0  0  0  0  0
   -0.1266    2.6555    0.4646 C   0  0  0  0  0  0  0  0  0  0  0  0
    1.0712    3.3109    0.7064 C   0  0  0  0  0  0  0  0  0  0  0  0
    2.2690    2.6555    0.4646 C   0  0  0  0  0  0  0  0  0  0  0  0
    2.2658    1.3553   -0.0164 C   0  0  0  0  0  0  0  0  0  0  0  0
    1.9525   -0.1929   -2.7495 H   0  0  0  0  0  0  0  0  0  0  0  0
    0.1900   -0.1929   -2.7495 H   0  0  0  0  0  0  0  0  0  0  0  0
    1.0712   -1.7263   -2.7550 H   0  0  0  0  0  0  0  0  0  0  0  0
    0.0193   -1.3579   -0.3978 H   0  0  0  0  0  0  0  0  0  0  0  0
    1.9479   -1.2496   -0.4704 H   0  0  0  0  0  0  0  0  0  0  0  0
   -1.0642    0.8481   -0.2001 H   0  0  0  0  0  0  0  0  0  0  0  0
   -1.0674    3.1572    0.6545 H   0  0  0  0  0  0  0  0  0  0  0  0
    1.0712    4.3252    1.0847 H   0  0  0  0  0  0  0  0  0  0  0  0
    3.2098    3.1572    0.6545 H   0  0  0  0  0  0  0  0  0  0  0  0
    3.2067    0.8481   -0.2001 H   0  0  0  0  0  0  0  0  0  0  0  0
  1  2  1  0
  1  5  1  0
  1  6  1  0
  1  7  1  0
  2  4  1  0
  2  3  1  0
  3  8  1  0
  4  9  1  0
  4 10  1  0
  4 11  1  0
 12 13  1  0
 12 20  1  0
 12 21  1  0
 12 22  1  0
 13 14  1  0
 13 23  1  0
 13 24  1  0
 14 15  2  0
 14 19  1  0
 15 16  1  0
 15 25  1  0
 16 17  2  0
 16 26  1  0
 17 18  1  0
 17 27  1  0
 18 19  2  0
 18 28  1  0
 19 29  1  0
M  RAD  1   2   2
M  END
>  <reaction>  (16) 
rxn_1501

>  <mol_properties>  (16) 
{"1": {"label": "*3", "atom_type": "Cs"}, "2": {"label": "*4", "atom_type": "S2s"}, "12": {"label": "*1", "atom_type": "Cs"}, "13": {"label": "*0", "atom_type": "Cd"}, "22": {"label": "*2", "atom_type": "H0"}}

>  <type>  (16) 
unop_12

>  <geom_source>  (16) 
Heuristics

$$$$

     RDKit          3D

 29 28  0  0  0  0  0  0  0  0999 V2000
    3.0725   -1.4238    0.4156 S   0  0  0  0  0  0  0  0  0  0  0  0
    1.9139   -0.0153    0.4878 C   0  0  0  0  0  0  0  0  0  0  0  0
    2.4574    1.1595   -0.3238 C   0  0  0  0  0  0  0  0  0  0  0  0
    1.6580    0.3858    1.9397 C   0  0  0  0  0  0  0  0  0  0  0  0
   -0.4919   -2.5242   -1.3411 C   0  0  0  0  0  0  0  0  0  0  0  0
   -1.0470   -0.2332   -0.5206 C   0  0  0  0  0  0  0  0  0  0  0  0
    0.0526   -1.1560   -0.9521 C   0  0  0  0  0  0  0  0  0  0  0  0
   -1.3171   -0.0668    0.8450 C   0  0  0  0  0  3  0  0  0  0  0  0
   -1.8304    0.4421   -1.4704 C   0  0  0  0  0  0  0  0  0  0  0  0
   -2.3536    0.7767    1.2580 C   0  0  0  0  0  0  0  0  0  0  0  0
   -3.1269    1.4527    0.3093 C   0  0  0  0  0  0  0  0  0  0  0  0
   -2.8661    1.2848   -1.0539 C   0  0  0  0  0  0  0  0  0  0  0  0
    0.7731   -0.3981   -0.0459 H   0  0  0  0  0  0  0  0  0  0  0  0
    2.6236    0.8448   -1.3756 H   0  0  0  0  0  0  0  0  0  0  0  0
    3.4182    1.5211    0.1010 H   0  0  0  0  0  0  0  0  0  0  0  0
    1.7246    1.9940   -0.3215 H   0  0  0  0  0  0  0  0  0  0  0  0
    2.5971    0.7264    2.4260 H   0  0  0  0  0  0  0  0  0  0  0  0
    1.2536   -0.4812    2.5034 H   0  0  0  0  0  0  0  0  0  0  0  0
    0.9114    1.2070    1.9809 H   0  0  0  0  0  0  0  0  0  0  0  0
   -1.1777   -2.4351   -2.2105 H   0  0  0  0  0  0  0  0  0  0  0  0
    0.3523   -3.1899   -1.6163 H   0  0  0  0  0  0  0  0  0  0  0  0
   -1.0362   -2.9759   -0.4848 H   0  0  0  0  0  0  0  0  0  0  0  0
    0.6305   -0.7143   -1.7927 H   0  0  0  0  0  0  0  0  0  0  0  0
   -0.7263   -0.5896    1.5871 H   0  0  0  0  0  0  0  0  0  0  0  0
   -2.5585    0.9049    2.3130 H   0  0  0  0  0  0  0  0  0  0  0  0
   -1.6391    0.3149   -2.5288 H   0  0  0  0  0  0  0  0  0  0  0  0
   -3.9291    2.1045    0.6304 H   0  0  0  0  0  0  0  0  0  0  0  0
   -3.4674    1.8059   -1.7876 H   0  0  0  0  0  0  0  0  0  0  0  0
    4.1285   -0.7216    1.0285 H   0  0  0  0  0  0  0  0  0  0  0  0
  1  2  1  0
  1 29  1  0
  2  3  1  0
  2  4  1  0
  2 13  1  0
  3 14  1  0
  3 15  1  0
  3 16  1  0
  4 17  1  0
  4 18  1  0
  4 19  1  0
  5  7  1  0
  5 20  1  0
  5 21  1  0
  5 22  1  0
  6  7  2  3
  6  8  1  0
  6  9  1  0
  7 23  1  0
  8 10  1  0
  8 24  1  0
  9 12  2  0
  9 26  1  0
 10 11  2  0
 10 25  1  0
 11 12  1  0
 11 27  1  0
 12 28  1  0
M  RAD  1   8   2
M  END
>  <reaction>  (17) 
rxn_1501

>  <mol_properties>  (17) 
{"1": {"label": "*3", "atom_type": "Cs"}, "2": {"label": "*4", "atom_type": "S2s"}, "12": {"label": "*1", "atom_type": "Cs"}, "13": {"label": "*0", "atom_type": "Cd"}, "22": {"label": "*2", "atom_type": "H0"}}

>  <type>  (17) 
unop_13

>  <geom_source>  (17) 
AutoTST

$$$$
