
     RDKit          3D

 12 11  0  0  0  0  0  0  0  0999 V2000
    1.2394   -0.3763   -0.3020 C   0  0  0  0  0  0  0  0  0  0  0  0
    0.1007    0.3023    0.4464 C   0  0  0  0  0  0  0  0  0  0  0  0
   -0.1187    2.0399   -0.0725 S   0  0  0  0  0  0  0  0  0  0  0  0
   -1.1974   -0.4877    0.3552 C   0  0  0  0  0  0  0  0  0  0  0  0
    2.1681    0.1849   -0.2048 H   0  0  0  0  0  0  0  0  0  0  0  0
    1.0031   -0.4606   -1.3656 H   0  0  0  0  0  0  0  0  0  0  0  0
    1.3994   -1.3856    0.0860 H   0  0  0  0  0  0  0  0  0  0  0  0
    0.3796    0.4050    1.4981 H   0  0  0  0  0  0  0  0  0  0  0  0
   -0.4500    1.7779   -1.3452 H   0  0  0  0  0  0  0  0  0  0  0  0
   -1.0545   -1.4978    0.7479 H   0  0  0  0  0  0  0  0  0  0  0  0
   -1.5206   -0.5759   -0.6849 H   0  0  0  0  0  0  0  0  0  0  0  0
   -1.9957   -0.0054    0.9183 H   0  0  0  0  0  0  0  0  0  0  0  0
  1  2  1  0
  1  5  1  0
  1  6  1  0
  1  7  1  0
  2  4  1  0
  2  3  1  0
  2  8  1  0
  3  9  1  0
  4 10  1  0
  4 11  1  0
  4 12  1  0
M  END
>  <reaction>  (1) 
rxn_1933

>  <mol_properties>  (1) 
{"1": {"label": "donator", "atom_type": "Cs"}, "7": {"label": "d_hydrogen", "atom_type": "H0"}}

>  <type>  (1) 
r1h

$$$$

     RDKit          3D

  9  8  0  0  0  0  0  0  0  0999 V2000
   -1.2704   -0.1236    0.1096 C   0  0  0  0  0  0  0  0  0  0  0  0
    0.0713   -0.5323    0.5887 C   0  0  0  0  0  0  0  0  0  0  0  0
    0.9521   -1.3639   -0.0464 C   0  0  0  0  0  0  0  0  0  0  0  0
    0.6900   -2.1109   -1.5335 S   0  0  0  0  0  1  0  0  0  0  0  0
   -1.3201    0.9657    0.0241 H   0  0  0  0  0  0  0  0  0  0  0  0
   -1.5103   -0.5706   -0.8526 H   0  0  0  0  0  0  0  0  0  0  0  0
   -2.0312   -0.4112    0.8411 H   0  0  0  0  0  0  0  0  0  0  0  0
    0.3863   -0.1265    1.5468 H   0  0  0  0  0  0  0  0  0  0  0  0
    1.8971   -1.5543    0.4552 H   0  0  0  0  0  0  0  0  0  0  0  0
  1  2  1  0
  1  5  1  0
  1  6  1  0
  1  7  1  0
  2  3  2  3
  2  8  1  0
  3  4  1  0
  3  9  1  0
M  RAD  1   4   2
M  END
>  <reaction>  (2) 
rxn_1933

>  <mol_properties>  (2) 
{"1": {"label": "acceptor", "atom_type": "Cs"}}

>  <type>  (2) 
r2

$$$$

     RDKit          3D

 10  9  0  0  0  0  0  0  0  0999 V2000
   -1.1508    0.0666    0.2839 C   0  0  0  0  0  0  0  0  0  0  0  0
    0.1022   -0.3749   -0.4771 C   0  0  0  0  0  0  0  0  0  0  0  0
    1.3428    0.1620    0.1542 C   0  0  0  0  0  0  0  0  0  0  0  0
    2.5613   -0.6971    0.7526 S   0  0  0  0  0  0  0  0  0  0  0  0
   -1.2137    1.1546    0.3481 H   0  0  0  0  0  0  0  0  0  0  0  0
   -2.0472   -0.2935   -0.2212 H   0  0  0  0  0  0  0  0  0  0  0  0
   -1.1467   -0.3334    1.2987 H   0  0  0  0  0  0  0  0  0  0  0  0
    0.1602   -1.4616   -0.5369 H   0  0  0  0  0  0  0  0  0  0  0  0
    0.0536    0.0174   -1.4997 H   0  0  0  0  0  0  0  0  0  0  0  0
    1.3824    1.2528    0.2110 H   0  0  0  0  0  0  0  0  0  0  0  0
  1  2  1  0
  1  5  1  0
  1  6  1  0
  1  7  1  0
  2  3  1  0
  2  8  1  0
  2  9  1  0
  3  4  2  0
  3 10  1  0
M  END
>  <reaction>  (3) 
rxn_1933

>  <mol_properties>  (3) 
{"0": {"label": "a_hydrogen", "atom_type": "H0"}, "2": {"label": "acceptor", "atom_type": "Cs"}}

>  <type>  (3) 
r2h

$$$$

     RDKit          3D

 21 19  0  0  0  0  0  0  0  0999 V2000
    1.2804    0.2033   -1.6385 C   0  0  0  0  0  0  0  0  0  0  0  0
    1.2473    0.4324   -0.1532 C   0  0  0  0  0  3  0  0  0  0  0  0
    2.5861   -0.2223    0.7992 S   0  0  0  0  0  0  0  0  0  0  0  0
    0.8430    1.8081    0.2992 C   0  0  0  0  0  0  0  0  0  0  0  0
    1.4438   -0.8477   -1.8810 H   0  0  0  0  0  0  0  0  0  0  0  0
    2.0816    0.7880   -2.1021 H   0  0  0  0  0  0  0  0  0  0  0  0
    0.3295    0.5059   -2.0811 H   0  0  0  0  0  0  0  0  0  0  0  0
    0.0579   -0.2984    0.2151 H   0  0  0  0  0  0  0  0  0  0  0  0
    2.7792   -1.3359    0.0799 H   0  0  0  0  0  0  0  0  0  0  0  0
   -0.1381    2.0554   -0.1128 H   0  0  0  0  0  0  0  0  0  0  0  0
    1.5525    2.5623   -0.0554 H   0  0  0  0  0  0  0  0  0  0  0  0
    0.7876    1.8773    1.3868 H   0  0  0  0  0  0  0  0  0  0  0  0
   -0.8470   -1.3389    1.9298 C   0  0  0  0  0  0  0  0  0  0  0  0
   -1.0024   -0.9436    0.4773 C   0  0  0  0  0  0  0  0  0  0  0  0
   -2.0631   -0.0328    0.1291 C   0  0  0  0  0  0  0  0  0  0  0  0
   -2.7157    0.1705   -1.3547 S   0  0  0  0  0  0  0  0  0  0  0  0
   -0.9338   -0.4690    2.5840 H   0  0  0  0  0  0  0  0  0  0  0  0
   -1.6130   -2.0594    2.2251 H   0  0  0  0  0  0  0  0  0  0  0  0
    0.1289   -1.7921    2.1071 H   0  0  0  0  0  0  0  0  0  0  0  0
   -0.8945   -1.7629   -0.2337 H   0  0  0  0  0  0  0  0  0  0  0  0
   -2.4088    0.6078    0.9435 H   0  0  0  0  0  0  0  0  0  0  0  0
  1  2  1  0
  1  5  1  0
  1  6  1  0
  1  7  1  0
  2  4  1  0
  2  3  1  0
  3  9  1  0
  4 10  1  0
  4 11  1  0
  4 12  1  0
  8 14  1  0
 13 14  1  0
 13 17  1  0
 13 18  1  0
 13 19  1  0
 14 15  1  0
 14 20  1  0
 15 16  2  0
 15 21  1  0
M  RAD  1   2   2
M  END
>  <reaction>  (4) 
rxn_1933

>  <mol_properties>  (4) 
{"1": {"label": "*3", "atom_type": "Cs"}, "2": {"label": "*4", "atom_type": "S2s"}, "7": {"label": "*2", "atom_type": "H0"}, "13": {"label": "*1", "atom_type": "Cs"}, "14": {"label": "*0", "atom_type": "CS"}}

>  <type>  (4) 
ts

$$$$

     RDKit          3D

 21 19  0  0  0  0  0  0  0  0999 V2000
    0.5180    0.1641   -2.2665 C   0  0  0  0  0  0  0  0  0  0  0  0
    0.5180    0.1641   -0.7442 C   0  0  0  0  0  2  0  0  0  0  0  0
    1.8730   -0.8523   -0.0606 S   0  0  0  0  0  0  0  0  0  0  0  0
    0.5180    1.5741   -0.1702 C   0  0  0  0  0  0  0  0  0  0  0  0
    0.4894   -0.8501   -2.6632 H   0  0  0  0  0  0  0  0  0  0  0  0
    1.4164    0.6539   -2.6501 H   0  0  0  0  0  0  0  0  0  0  0  0
   -0.3490    0.7116   -2.6453 H   0  0  0  0  0  0  0  0  0  0  0  0
   -0.5499   -0.4677   -0.3192 H   0  0  0  0  0  0  0  0  0  0  0  0
    2.8793   -0.1168   -0.5552 H   0  0  0  0  0  0  0  0  0  0  0  0
   -0.3490    2.1314   -0.5343 H   0  0  0  0  0  0  0  0  0  0  0  0
    1.4164    2.1140   -0.4791 H   0  0  0  0  0  0  0  0  0  0  0  0
    0.4894    1.5590    0.9188 H   0  0  0  0  0  0  0  0  0  0  0  0
   -1.2318   -2.3096    0.9585 C   0  0  0  0  0  0  0  0  0  0  0  0
   -1.6148   -1.0978    0.1046 C   0  0  0  0  0  0  0  0  0  0  0  0
   -1.6046    0.1607    0.9057 C   0  0  0  0  0  3  0  0  0  0  0  0
   -0.6948    1.4578    0.6394 S   0  0  0  0  0  0  0  0  0  0  0  0
   -0.2111   -2.2121    1.3305 H   0  0  0  0  0  0  0  0  0  0  0  0
   -1.8973   -2.4165    1.8172 H   0  0  0  0  0  0  0  0  0  0  0  0
   -1.2940   -3.2238    0.3680 H   0  0  0  0  0  0  0  0  0  0  0  0
   -2.6324   -1.2398   -0.2777 H   0  0  0  0  0  0  0  0  0  0  0  0
   -2.2863    0.1552    1.7600 H   0  0  0  0  0  0  0  0  0  0  0  0
  1  2  1  0
  1  5  1  0
  1  6  1  0
  1  7  1  0
  2  3  1  0
  3  9  1  0
  4 16  1  0
  4 10  1  0
  4 11  1  0
  4 12  1  0
  8 14  1  0
 13 14  1  0
 13 17  1  0
 13 18  1  0
 13 19  1  0
 14 15  1  0
 14 20  1  0
 15 16  1  0
 15 21  1  0
M  RAD  2   2   3  15   2
M  END
>  <reaction>  (5) 
rxn_1933

>  <mol_properties>  (5) 
{"1": {"label": "*3", "atom_type": "Cs"}, "2": {"label": "*4", "atom_type": "S2s"}, "7": {"label": "*2", "atom_type": "H0"}, "13": {"label": "*1", "atom_type": "Cs"}, "14": {"label": "*0", "atom_type": "CS"}}

>  <type>  (5) 
unop_1

>  <geom_source>  (5) 
Heuristics

$$$$

     RDKit          3D

 21 20  0  0  0  0  0  0  0  0999 V2000
    0.2786    0.9248   -2.3584 C   0  0  0  0  0  0  0  0  0  0  0  0
    0.2786    0.9248   -0.8361 C   0  0  0  0  0  0  0  0  0  0  0  0
    1.6336   -0.0917   -0.1524 S   0  0  0  0  0  4  0  0  0  0  0  0
    0.2786    2.3347   -0.2620 C   0  0  0  0  0  0  0  0  0  0  0  0
    0.2500   -0.0895   -2.7550 H   0  0  0  0  0  0  0  0  0  0  0  0
    1.1770    1.4145   -2.7420 H   0  0  0  0  0  0  0  0  0  0  0  0
   -0.5884    1.4722   -2.7372 H   0  0  0  0  0  0  0  0  0  0  0  0
   -0.7893    0.2929   -0.4111 H   0  0  0  0  0  0  0  0  0  0  0  0
    2.6399    0.6438   -0.6471 H   0  0  0  0  0  0  0  0  0  0  0  0
   -0.5884    2.8920   -0.6262 H   0  0  0  0  0  0  0  0  0  0  0  0
    1.1770    2.8747   -0.5709 H   0  0  0  0  0  0  0  0  0  0  0  0
    0.2500    2.3197    0.8269 H   0  0  0  0  0  0  0  0  0  0  0  0
   -2.2821   -1.4208   -0.9806 C   0  0  0  0  0  0  0  0  0  0  0  0
   -1.8541   -0.3372    0.0127 C   0  0  0  0  0  0  0  0  0  0  0  0
   -1.1892   -0.9262    1.2114 C   0  0  0  0  0  3  0  0  0  0  0  0
    0.3099   -0.6388    1.7126 S   0  0  0  0  0  0  0  0  0  0  0  0
   -1.4131   -1.9558   -1.3659 H   0  0  0  0  0  0  0  0  0  0  0  0
   -2.9482   -2.1480   -0.5124 H   0  0  0  0  0  0  0  0  0  0  0  0
   -2.8096   -0.9747   -1.8238 H   0  0  0  0  0  0  0  0  0  0  0  0
   -2.7450    0.2004    0.3579 H   0  0  0  0  0  0  0  0  0  0  0  0
   -1.8110   -1.6307    1.7696 H   0  0  0  0  0  0  0  0  0  0  0  0
  1  2  1  0
  1  5  1  0
  1  6  1  0
  1  7  1  0
  2  4  1  0
  2  3  2  3
  3 16  1  0
  3  9  1  0
  4 10  1  0
  4 11  1  0
  4 12  1  0
  8 14  1  0
 13 14  1  0
 13 17  1  0
 13 18  1  0
 13 19  1  0
 14 15  1  0
 14 20  1  0
 15 16  1  0
 15 21  1  0
M  RAD  1  15   2
M  END
>  <reaction>  (6) 
rxn_1933

>  <mol_properties>  (6) 
{"1": {"label": "*3", "atom_type": "Cs"}, "2": {"label": "*4", "atom_type": "S2s"}, "7": {"label": "*2", "atom_type": "H0"}, "13": {"label": "*1", "atom_type": "Cs"}, "14": {"label": "*0", "atom_type": "CS"}}

>  <type>  (6) 
unop_2

>  <geom_source>  (6) 
Heuristics

$$$$

     RDKit          3D

 21 19  0  0  0  0  0  0  0  0999 V2000
    0.7763    0.0605   -2.0766 C   0  0  0  0  0  0  0  0  0  0  0  0
    0.7763    0.0605   -0.5542 C   0  0  0  0  0  3  0  0  0  0  0  0
    2.1313   -0.9560    0.1294 S   0  0  0  0  0  0  0  0  0  0  0  0
    0.7763    1.4704    0.0198 C   0  0  0  0  0  0  0  0  0  0  0  0
    0.7477   -0.9538   -2.4732 H   0  0  0  0  0  0  0  0  0  0  0  0
    1.6747    0.5502   -2.4602 H   0  0  0  0  0  0  0  0  0  0  0  0
   -0.0907    0.6079   -2.4554 H   0  0  0  0  0  0  0  0  0  0  0  0
   -0.2916   -0.5714   -0.1292 H   0  0  0  0  0  0  0  0  0  0  0  0
    3.1375   -0.2205   -0.3653 H   0  0  0  0  0  0  0  0  0  0  0  0
   -0.0907    2.0277   -0.3444 H   0  0  0  0  0  0  0  0  0  0  0  0
    1.6747    2.0104   -0.2891 H   0  0  0  0  0  0  0  0  0  0  0  0
    0.7477    1.4554    1.1088 H   0  0  0  0  0  0  0  0  0  0  0  0
   -1.0940   -1.8766    1.6434 C   0  0  0  0  0  0  0  0  0  0  0  0
   -1.3565   -1.2015    0.2945 C   0  0  0  0  0  0  0  0  0  0  0  0
   -1.9568    0.1532    0.4688 C   0  0  0  0  0  0  0  0  0  0  0  0
   -1.3340    1.5477   -0.0299 S   0  0  0  0  0  0  0  0  0  0  0  0
   -0.3644   -1.3097    2.2229 H   0  0  0  0  0  0  0  0  0  0  0  0
   -2.0093   -1.9546    2.2332 H   0  0  0  0  0  0  0  0  0  0  0  0
   -0.7031   -2.8830    1.4934 H   0  0  0  0  0  0  0  0  0  0  0  0
   -2.0692   -1.8096   -0.2746 H   0  0  0  0  0  0  0  0  0  0  0  0
   -2.9073    0.1576    1.0082 H   0  0  0  0  0  0  0  0  0  0  0  0
  1  2  1  0
  1  5  1  0
  1  6  1  0
  1  7  1  0
  2  4  1  0
  2  3  1  0
  3  9  1  0
  4 10  1  0
  4 11  1  0
  4 12  1  0
  8 14  1  0
 13 14  1  0
 13 17  1  0
 13 18  1  0
 13 19  1  0
 14 15  1  0
 14 20  1  0
 15 16  2  0
 15 21  1  0
M  RAD  1   2   2
M  END
>  <reaction>  (7) 
rxn_1933

>  <mol_properties>  (7) 
{"1": {"label": "*3", "atom_type": "Cs"}, "2": {"label": "*4", "atom_type": "S2s"}, "7": {"label": "*2", "atom_type": "H0"}, "13": {"label": "*1", "atom_type": "Cs"}, "14": {"label": "*0", "atom_type": "CS"}}

>  <type>  (7) 
unop_3

>  <geom_source>  (7) 
Heuristics

$$$$

     RDKit          3D

 21 19  0  0  0  0  0  0  0  0999 V2000
    0.7920    1.3211   -1.8806 C   0  0  0  0  0  0  0  0  0  0  0  0
    0.7920    1.3211   -0.3583 C   0  0  0  0  0  3  0  0  0  0  0  0
    2.1470    0.3047    0.3253 S   0  0  0  0  0  0  0  0  0  0  0  0
    0.7920    2.7311    0.2157 C   0  0  0  0  0  0  0  0  0  0  0  0
    0.7634    0.3069   -2.2773 H   0  0  0  0  0  0  0  0  0  0  0  0
    1.6904    1.8109   -2.2642 H   0  0  0  0  0  0  0  0  0  0  0  0
   -0.0750    1.8685   -2.2594 H   0  0  0  0  0  0  0  0  0  0  0  0
   -0.2759    0.6893    0.0667 H   0  0  0  0  0  0  0  0  0  0  0  0
    3.1533    1.0402   -0.1694 H   0  0  0  0  0  0  0  0  0  0  0  0
   -0.0750    3.2884   -0.1484 H   0  0  0  0  0  0  0  0  0  0  0  0
    1.6904    3.2710   -0.0932 H   0  0  0  0  0  0  0  0  0  0  0  0
    0.7634    2.7160    1.3047 H   0  0  0  0  0  0  0  0  0  0  0  0
   -2.6171    0.7423   -0.0079 C   0  0  0  0  0  0  0  0  0  0  0  0
   -1.3407    0.0592    0.4905 C   0  0  0  0  0  0  0  0  0  0  0  0
   -1.5685   -1.3889    0.7684 C   0  0  0  0  0  0  0  0  0  0  0  0
   -0.8213   -2.6270    0.0686 S   0  0  0  0  0  0  0  0  0  0  0  0
   -2.9387    0.3129   -0.9576 H   0  0  0  0  0  0  0  0  0  0  0  0
   -3.4330    0.6306    0.7087 H   0  0  0  0  0  0  0  0  0  0  0  0
   -2.4429    1.8080   -0.1568 H   0  0  0  0  0  0  0  0  0  0  0  0
   -1.0277    0.5320    1.4286 H   0  0  0  0  0  0  0  0  0  0  0  0
   -2.3392   -1.5870    1.5175 H   0  0  0  0  0  0  0  0  0  0  0  0
  1  2  1  0
  1  5  1  0
  1  6  1  0
  1  7  1  0
  2  4  1  0
  2  3  1  0
  3  9  1  0
  4 10  1  0
  4 11  1  0
  4 12  1  0
  8 14  1  0
 13 14  1  0
 13 17  1  0
 13 18  1  0
 13 19  1  0
 14 15  1  0
 14 20  1  0
 15 16  2  0
 15 21  1  0
M  RAD  1   2   2
M  END
>  <reaction>  (8) 
rxn_1933

>  <mol_properties>  (8) 
{"1": {"label": "*3", "atom_type": "Cs"}, "2": {"label": "*4", "atom_type": "S2s"}, "7": {"label": "*2", "atom_type": "H0"}, "13": {"label": "*1", "atom_type": "Cs"}, "14": {"label": "*0", "atom_type": "CS"}}

>  <type>  (8) 
unop_4

>  <geom_source>  (8) 
Heuristics

$$$$

     RDKit          3D

 21 19  0  0  0  0  0  0  0  0999 V2000
    1.1367    0.2333   -1.7780 C   0  0  0  0  0  0  0  0  0  0  0  0
    1.1367    0.2333   -0.2557 C   0  0  0  0  0  3  0  0  0  0  0  0
    2.4917   -0.7832    0.4279 S   0  0  0  0  0  0  0  0  0  0  0  0
    1.1367    1.6432    0.3183 C   0  0  0  0  0  0  0  0  0  0  0  0
    1.1081   -0.7810   -2.1747 H   0  0  0  0  0  0  0  0  0  0  0  0
    2.0351    0.7230   -2.1616 H   0  0  0  0  0  0  0  0  0  0  0  0
    0.2697    0.7807   -2.1568 H   0  0  0  0  0  0  0  0  0  0  0  0
    0.0688   -0.3986    0.1693 H   0  0  0  0  0  0  0  0  0  0  0  0
    3.4980   -0.0477   -0.0668 H   0  0  0  0  0  0  0  0  0  0  0  0
    0.2697    2.2005   -0.0458 H   0  0  0  0  0  0  0  0  0  0  0  0
    2.0351    2.1832    0.0094 H   0  0  0  0  0  0  0  0  0  0  0  0
    1.1081    1.6282    1.4073 H   0  0  0  0  0  0  0  0  0  0  0  0
   -1.0441   -1.0572    2.1231 C   0  0  0  0  0  0  0  0  0  0  0  0
   -0.9960   -1.0287    0.5931 C   0  0  0  0  0  0  0  0  0  0  0  0
   -2.2186   -0.3945    0.0194 C   0  0  0  0  0  0  0  0  0  0  0  0
   -2.2719    0.9177   -0.9061 S   0  0  0  0  0  0  0  0  0  0  0  0
   -1.0609   -0.0442    2.5273 H   0  0  0  0  0  0  0  0  0  0  0  0
   -1.9318   -1.5810    2.4828 H   0  0  0  0  0  0  0  0  0  0  0  0
   -0.1671   -1.5685    2.5201 H   0  0  0  0  0  0  0  0  0  0  0  0
   -0.9499   -2.0584    0.2197 H   0  0  0  0  0  0  0  0  0  0  0  0
   -3.1528   -0.8922    0.2913 H   0  0  0  0  0  0  0  0  0  0  0  0
  1  2  1  0
  1  5  1  0
  1  6  1  0
  1  7  1  0
  2  4  1  0
  2  3  1  0
  3  9  1  0
  4 10  1  0
  4 11  1  0
  4 12  1  0
  8 14  1  0
 13 14  1  0
 13 17  1  0
 13 18  1  0
 13 19  1  0
 14 15  1  0
 14 20  1  0
 15 16  2  0
 15 21  1  0
M  RAD  1   2   2
M  END
>  <reaction>  (9) 
rxn_1933

>  <mol_properties>  (9) 
{"1": {"label": "*3", "atom_type": "Cs"}, "2": {"label": "*4", "atom_type": "S2s"}, "7": {"label": "*2", "atom_type": "H0"}, "13": {"label": "*1", "atom_type": "Cs"}, "14": {"label": "*0", "atom_type": "CS"}}

>  <type>  (9) 
unop_5

>  <geom_source>  (9) 
Heuristics

$$$$

     RDKit          3D

 21 19  0  0  0  0  0  0  0  0999 V2000
    0.9628    1.2379   -1.7351 C   0  0  0  0  0  0  0  0  0  0  0  0
    0.9628    1.2379   -0.2127 C   0  0  0  0  0  3  0  0  0  0  0  0
    2.3179    0.2214    0.4709 S   0  0  0  0  0  0  0  0  0  0  0  0
    0.9628    2.6478    0.3613 C   0  0  0  0  0  0  0  0  0  0  0  0
    0.9342    0.2236   -2.1317 H   0  0  0  0  0  0  0  0  0  0  0  0
    1.8613    1.7276   -2.1187 H   0  0  0  0  0  0  0  0  0  0  0  0
    0.0959    1.7853   -2.1139 H   0  0  0  0  0  0  0  0  0  0  0  0
   -0.1051    0.6060    0.2123 H   0  0  0  0  0  0  0  0  0  0  0  0
    3.3241    0.9569   -0.0238 H   0  0  0  0  0  0  0  0  0  0  0  0
    0.0959    3.2051   -0.0028 H   0  0  0  0  0  0  0  0  0  0  0  0
    1.8613    3.1878    0.0524 H   0  0  0  0  0  0  0  0  0  0  0  0
    0.9342    2.6328    1.4503 H   0  0  0  0  0  0  0  0  0  0  0  0
   -2.3445    0.9418    0.8138 C   0  0  0  0  0  0  0  0  0  0  0  0
   -1.1699   -0.0241    0.6360 C   0  0  0  0  0  0  0  0  0  0  0  0
   -1.6327   -1.4407    0.5662 C   0  0  0  0  0  0  0  0  0  0  0  0
   -1.4196   -2.4581   -0.6588 S   0  0  0  0  0  0  0  0  0  0  0  0
   -3.0131    0.8984   -0.0469 H   0  0  0  0  0  0  0  0  0  0  0  0
   -2.9246    0.7014    1.7068 H   0  0  0  0  0  0  0  0  0  0  0  0
   -1.9818    1.9649    0.9130 H   0  0  0  0  0  0  0  0  0  0  0  0
   -0.5026    0.0648    1.5012 H   0  0  0  0  0  0  0  0  0  0  0  0
   -2.1813   -1.7784    1.4491 H   0  0  0  0  0  0  0  0  0  0  0  0
  1  2  1  0
  1  5  1  0
  1  6  1  0
  1  7  1  0
  2  4  1  0
  2  3  1  0
  3  9  1  0
  4 10  1  0
  4 11  1  0
  4 12  1  0
  8 14  1  0
 13 14  1  0
 13 17  1  0
 13 18  1  0
 13 19  1  0
 14 15  1  0
 14 20  1  0
 15 16  2  0
 15 21  1  0
M  RAD  1   2   2
M  END
>  <reaction>  (10) 
rxn_1933

>  <mol_properties>  (10) 
{"1": {"label": "*3", "atom_type": "Cs"}, "2": {"label": "*4", "atom_type": "S2s"}, "7": {"label": "*2", "atom_type": "H0"}, "13": {"label": "*1", "atom_type": "Cs"}, "14": {"label": "*0", "atom_type": "CS"}}

>  <type>  (10) 
unop_6

>  <geom_source>  (10) 
Heuristics

$$$$

     RDKit          3D

 21 19  0  0  0  0  0  0  0  0999 V2000
    1.1222    1.0527   -1.6182 C   0  0  0  0  0  0  0  0  0  0  0  0
    1.1222    1.0527   -0.0958 C   0  0  0  0  0  3  0  0  0  0  0  0
    2.4772    0.0363    0.5878 S   0  0  0  0  0  0  0  0  0  0  0  0
    1.1222    2.4627    0.4782 C   0  0  0  0  0  0  0  0  0  0  0  0
    1.0936    0.0384   -2.0148 H   0  0  0  0  0  0  0  0  0  0  0  0
    2.0206    1.5424   -2.0018 H   0  0  0  0  0  0  0  0  0  0  0  0
    0.2552    1.6001   -1.9970 H   0  0  0  0  0  0  0  0  0  0  0  0
    0.0543    0.4208    0.3292 H   0  0  0  0  0  0  0  0  0  0  0  0
    3.4835    0.7718    0.0931 H   0  0  0  0  0  0  0  0  0  0  0  0
    0.2552    3.0199    0.1140 H   0  0  0  0  0  0  0  0  0  0  0  0
    2.0206    3.0026    0.1693 H   0  0  0  0  0  0  0  0  0  0  0  0
    1.0936    2.4476    1.5672 H   0  0  0  0  0  0  0  0  0  0  0  0
   -1.8883    0.7097    1.6068 C   0  0  0  0  0  0  0  0  0  0  0  0
   -1.0106   -0.2093    0.7529 C   0  0  0  0  0  0  0  0  0  0  0  0
   -1.7680   -1.4047    0.2805 C   0  0  0  0  0  0  0  0  0  0  0  0
   -2.0396   -1.8239   -1.2464 S   0  0  0  0  0  0  0  0  0  0  0  0
   -2.7172    1.1065    1.0192 H   0  0  0  0  0  0  0  0  0  0  0  0
   -2.3044    0.1772    2.4642 H   0  0  0  0  0  0  0  0  0  0  0  0
   -1.3038    1.5494    1.9830 H   0  0  0  0  0  0  0  0  0  0  0  0
   -0.1723   -0.5670    1.3622 H   0  0  0  0  0  0  0  0  0  0  0  0
   -2.1768   -2.0238    1.0831 H   0  0  0  0  0  0  0  0  0  0  0  0
  1  2  1  0
  1  5  1  0
  1  6  1  0
  1  7  1  0
  2  4  1  0
  2  3  1  0
  3  9  1  0
  4 10  1  0
  4 11  1  0
  4 12  1  0
  8 14  1  0
 13 14  1  0
 13 17  1  0
 13 18  1  0
 13 19  1  0
 14 15  1  0
 14 20  1  0
 15 16  2  0
 15 21  1  0
M  RAD  1   2   2
M  END
>  <reaction>  (11) 
rxn_1933

>  <mol_properties>  (11) 
{"1": {"label": "*3", "atom_type": "Cs"}, "2": {"label": "*4", "atom_type": "S2s"}, "7": {"label": "*2", "atom_type": "H0"}, "13": {"label": "*1", "atom_type": "Cs"}, "14": {"label": "*0", "atom_type": "CS"}}

>  <type>  (11) 
unop_7

>  <geom_source>  (11) 
Heuristics

$$$$

     RDKit          3D

 21 19  0  0  0  0  0  0  0  0999 V2000
    0.3607    0.3627   -2.3777 C   0  0  0  0  0  0  0  0  0  0  0  0
    0.3607    0.3627   -0.8554 C   0  0  0  0  0  0  0  0  0  0  0  0
    1.7157   -0.6537   -0.1718 S   0  0  0  0  0  0  0  0  0  0  0  0
    0.3607    1.7727   -0.2813 C   0  0  0  0  0  0  0  0  0  0  0  0
    0.3321   -0.6516   -2.7744 H   0  0  0  0  0  0  0  0  0  0  0  0
    1.2591    0.8524   -2.7613 H   0  0  0  0  0  0  0  0  0  0  0  0
   -0.5063    0.9101   -2.7565 H   0  0  0  0  0  0  0  0  0  0  0  0
   -0.7072   -0.2692   -0.4304 H   0  0  0  0  0  0  0  0  0  0  0  0
    2.7219    0.0818   -0.6664 H   0  0  0  0  0  0  0  0  0  0  0  0
   -0.5063    2.3299   -0.6455 H   0  0  0  0  0  0  0  0  0  0  0  0
    1.2591    2.3126   -0.5903 H   0  0  0  0  0  0  0  0  0  0  0  0
    0.3321    1.7576    0.8076 H   0  0  0  0  0  0  0  0  0  0  0  0
   -1.4909   -2.3938    0.1711 C   0  0  0  0  0  0  0  0  0  0  0  0
   -1.7721   -0.8993   -0.0066 C   0  0  0  0  0  0  0  0  0  0  0  0
   -1.3368   -0.1155    1.1859 C   0  0  0  0  0  3  0  0  0  0  0  0
   -0.2457    1.0635    1.2104 S   0  0  0  0  0  0  0  0  0  0  0  0
   -0.4194   -2.5765    0.2616 H   0  0  0  0  0  0  0  0  0  0  0  0
   -1.9788   -2.7860    1.0654 H   0  0  0  0  0  0  0  0  0  0  0  0
   -1.8612   -2.9535   -0.6878 H   0  0  0  0  0  0  0  0  0  0  0  0
   -2.8521   -0.7524   -0.1243 H   0  0  0  0  0  0  0  0  0  0  0  0
   -1.8197   -0.4131    2.1201 H   0  0  0  0  0  0  0  0  0  0  0  0
  1  2  1  0
  1  5  1  0
  1  6  1  0
  1  7  1  0
  2  4  2  3
  2  3  1  0
  3  9  1  0
  4 10  1  0
  4 11  1  0
  8 14  1  0
 12 16  1  0
 13 14  1  0
 13 17  1  0
 13 18  1  0
 13 19  1  0
 14 15  1  0
 14 20  1  0
 15 16  1  0
 15 21  1  0
M  RAD  1  15   2
M  END
>  <reaction>  (12) 
rxn_1933

>  <mol_properties>  (12) 
{"1": {"label": "*3", "atom_type": "Cs"}, "2": {"label": "*4", "atom_type": "S2s"}, "7": {"label": "*2", "atom_type": "H0"}, "13": {"label": "*1", "atom_type": "Cs"}, "14": {"label": "*0", "atom_type": "CS"}}

>  <type>  (12) 
unop_8

>  <geom_source>  (12) 
Heuristics

$$$$

     RDKit          3D

 21 19  0  0  0  0  0  0  0  0999 V2000
    0.5980    1.3123   -2.0436 C   0  0  0  0  0  0  0  0  0  0  0  0
    0.5980    1.3123   -0.5212 C   0  0  0  0  0  3  0  0  0  0  0  0
    1.9530    0.2959    0.1624 S   0  0  0  0  0  0  0  0  0  0  0  0
    0.5980    2.7223    0.0528 C   0  0  0  0  0  0  0  0  0  0  0  0
    0.5694    0.2981   -2.4402 H   0  0  0  0  0  0  0  0  0  0  0  0
    1.4964    1.8020   -2.4272 H   0  0  0  0  0  0  0  0  0  0  0  0
   -0.2690    1.8597   -2.4224 H   0  0  0  0  0  0  0  0  0  0  0  0
   -0.4699    0.6804   -0.0963 H   0  0  0  0  0  0  0  0  0  0  0  0
    2.9593    1.0314   -0.3323 H   0  0  0  0  0  0  0  0  0  0  0  0
   -0.2690    3.2795   -0.3114 H   0  0  0  0  0  0  0  0  0  0  0  0
    1.4964    3.2622   -0.2561 H   0  0  0  0  0  0  0  0  0  0  0  0
    0.5694    2.7072    1.1418 H   0  0  0  0  0  0  0  0  0  0  0  0
   -2.6906    0.1969   -0.6658 C   0  0  0  0  0  0  0  0  0  0  0  0
   -1.5348    0.0504    0.3275 C   0  0  0  0  0  0  0  0  0  0  0  0
   -1.4834   -1.3231    0.9079 C   0  0  0  0  0  0  0  0  0  0  0  0
   -0.2649   -2.3643    0.7969 S   0  0  0  0  0  0  0  0  0  0  0  0
   -2.5547   -0.4715   -1.5170 H   0  0  0  0  0  0  0  0  0  0  0  0
   -3.6484   -0.0394   -0.1983 H   0  0  0  0  0  0  0  0  0  0  0  0
   -2.7413    1.2196   -1.0396 H   0  0  0  0  0  0  0  0  0  0  0  0
   -1.6851    0.7546    1.1541 H   0  0  0  0  0  0  0  0  0  0  0  0
   -2.3902   -1.6200    1.4408 H   0  0  0  0  0  0  0  0  0  0  0  0
  1  2  1  0
  1  5  1  0
  1  6  1  0
  1  7  1  0
  2  4  1  0
  2  3  1  0
  3  9  1  0
  4 10  1  0
  4 11  1  0
  4 12  1  0
  8 14  1  0
 13 14  1  0
 13 17  1  0
 13 18  1  0
 13 19  1  0
 14 15  1  0
 14 20  1  0
 15 16  2  0
 15 21  1  0
M  RAD  1   2   2
M  END
>  <reaction>  (13) 
rxn_1933

>  <mol_properties>  (13) 
{"1": {"label": "*3", "atom_type": "Cs"}, "2": {"label": "*4", "atom_type": "S2s"}, "7": {"label": "*2", "atom_type": "H0"}, "13": {"label": "*1", "atom_type": "Cs"}, "14": {"label": "*0", "atom_type": "CS"}}

>  <type>  (13) 
unop_9

>  <geom_source>  (13) 
Heuristics

$$$$

     RDKit          3D

 21 20  0  0  0  0  0  0  0  0999 V2000
    0.2733    0.6263   -2.4142 C   0  0  0  0  0  0  0  0  0  0  0  0
    0.2733    0.6263   -0.8918 C   0  0  0  0  0  0  0  0  0  0  0  0
    1.6283   -0.3902   -0.2082 S   0  0  0  0  0  4  0  0  0  0  0  0
    0.2733    2.0362   -0.3178 C   0  0  0  0  0  0  0  0  0  0  0  0
    0.2447   -0.3880   -2.8108 H   0  0  0  0  0  0  0  0  0  0  0  0
    1.1717    1.1160   -2.7978 H   0  0  0  0  0  0  0  0  0  0  0  0
   -0.5937    1.1737   -2.7930 H   0  0  0  0  0  0  0  0  0  0  0  0
   -0.7946   -0.0056   -0.4669 H   0  0  0  0  0  0  0  0  0  0  0  0
    2.6346    0.3453   -0.7029 H   0  0  0  0  0  0  0  0  0  0  0  0
   -0.5937    2.5935   -0.6820 H   0  0  0  0  0  0  0  0  0  0  0  0
    1.1717    2.5762   -0.6267 H   0  0  0  0  0  0  0  0  0  0  0  0
    0.2447    2.0211    0.7712 H   0  0  0  0  0  0  0  0  0  0  0  0
   -1.8751   -2.0833   -0.5414 C   0  0  0  0  0  0  0  0  0  0  0  0
   -1.8594   -0.6357   -0.0431 C   0  0  0  0  0  0  0  0  0  0  0  0
   -1.1852   -0.5213    1.2829 C   0  0  0  0  0  3  0  0  0  0  0  0
    0.1214    0.3506    1.6204 S   0  0  0  0  0  0  0  0  0  0  0  0
   -0.8593   -2.4471   -0.7015 H   0  0  0  0  0  0  0  0  0  0  0  0
   -2.3635   -2.7452    0.1763 H   0  0  0  0  0  0  0  0  0  0  0  0
   -2.4152   -2.1529   -1.4857 H   0  0  0  0  0  0  0  0  0  0  0  0
   -2.8928   -0.2907    0.0791 H   0  0  0  0  0  0  0  0  0  0  0  0
   -1.6464   -1.1171    2.0746 H   0  0  0  0  0  0  0  0  0  0  0  0
  1  2  1  0
  1  5  1  0
  1  6  1  0
  1  7  1  0
  2  4  1  0
  2  3  2  3
  3 16  1  0
  3  9  1  0
  4 10  1  0
  4 11  1  0
  4 12  1  0
  8 14  1  0
 13 14  1  0
 13 17  1  0
 13 18  1  0
 13 19  1  0
 14 15  1  0
 14 20  1  0
 15 16  1  0
 15 21  1  0
M  RAD  1  15   2
M  END
>  <reaction>  (14) 
rxn_1933

>  <mol_properties>  (14) 
{"1": {"label": "*3", "atom_type": "Cs"}, "2": {"label": "*4", "atom_type": "S2s"}, "7": {"label": "*2", "atom_type": "H0"}, "13": {"label": "*1", "atom_type": "Cs"}, "14": {"label": "*0", "atom_type": "CS"}}

>  <type>  (14) 
unop_10

>  <geom_source>  (14) 
Heuristics

$$$$

     RDKit          3D

 21 19  0  0  0  0  0  0  0  0999 V2000
    1.2437    0.7082   -1.5884 C   0  0  0  0  0  0  0  0  0  0  0  0
    1.2437    0.7082   -0.0661 C   0  0  0  0  0  3  0  0  0  0  0  0
    2.5987   -0.3082    0.6175 S   0  0  0  0  0  0  0  0  0  0  0  0
    1.2437    2.1182    0.5080 C   0  0  0  0  0  0  0  0  0  0  0  0
    1.2151   -0.3060   -1.9851 H   0  0  0  0  0  0  0  0  0  0  0  0
    2.1421    1.1980   -1.9720 H   0  0  0  0  0  0  0  0  0  0  0  0
    0.3767    1.2557   -1.9672 H   0  0  0  0  0  0  0  0  0  0  0  0
    0.1758    0.0764    0.3589 H   0  0  0  0  0  0  0  0  0  0  0  0
    3.6050    0.4273    0.1229 H   0  0  0  0  0  0  0  0  0  0  0  0
    0.3767    2.6755    0.1438 H   0  0  0  0  0  0  0  0  0  0  0  0
    2.1421    2.6582    0.1990 H   0  0  0  0  0  0  0  0  0  0  0  0
    1.2151    2.1031    1.5969 H   0  0  0  0  0  0  0  0  0  0  0  0
   -1.3545    0.0013    2.1316 C   0  0  0  0  0  0  0  0  0  0  0  0
   -0.8890   -0.5537    0.7827 C   0  0  0  0  0  0  0  0  0  0  0  0
   -2.0291   -1.1111   -0.0019 C   0  0  0  0  0  0  0  0  0  0  0  0
   -2.5247   -0.6220   -1.4497 S   0  0  0  0  0  0  0  0  0  0  0  0
   -2.0422    0.8358    1.9886 H   0  0  0  0  0  0  0  0  0  0  0  0
   -1.8656   -0.7628    2.7204 H   0  0  0  0  0  0  0  0  0  0  0  0
   -0.5014    0.3573    2.7093 H   0  0  0  0  0  0  0  0  0  0  0  0
   -0.1780   -1.3691    0.9601 H   0  0  0  0  0  0  0  0  0  0  0  0
   -2.5656   -1.9212    0.4986 H   0  0  0  0  0  0  0  0  0  0  0  0
  1  2  1  0
  1  5  1  0
  1  6  1  0
  1  7  1  0
  2  4  1  0
  2  3  1  0
  3  9  1  0
  4 10  1  0
  4 11  1  0
  4 12  1  0
  8 14  1  0
 13 14  1  0
 13 17  1  0
 13 18  1  0
 13 19  1  0
 14 15  1  0
 14 20  1  0
 15 16  2  0
 15 21  1  0
M  RAD  1   2   2
M  END
>  <reaction>  (15) 
rxn_1933

>  <mol_properties>  (15) 
{"1": {"label": "*3", "atom_type": "Cs"}, "2": {"label": "*4", "atom_type": "S2s"}, "7": {"label": "*2", "atom_type": "H0"}, "13": {"label": "*1", "atom_type": "Cs"}, "14": {"label": "*0", "atom_type": "CS"}}

>  <type>  (15) 
unop_11

>  <geom_source>  (15) 
Heuristics

$$$$

     RDKit          3D

 21 19  0  0  0  0  0  0  0  0999 V2000
    0.4014    1.1804   -2.2175 C   0  0  0  0  0  0  0  0  0  0  0  0
    0.4014    1.1804   -0.6951 C   0  0  0  0  0  3  0  0  0  0  0  0
    1.7564    0.1640   -0.0115 S   0  0  0  0  0  0  0  0  0  0  0  0
    0.4014    2.5904   -0.1211 C   0  0  0  0  0  0  0  0  0  0  0  0
    0.3728    0.1662   -2.6141 H   0  0  0  0  0  0  0  0  0  0  0  0
    1.2998    1.6702   -2.6011 H   0  0  0  0  0  0  0  0  0  0  0  0
   -0.4656    1.7278   -2.5963 H   0  0  0  0  0  0  0  0  0  0  0  0
   -0.6665    0.5486   -0.2701 H   0  0  0  0  0  0  0  0  0  0  0  0
    2.7627    0.8995   -0.5062 H   0  0  0  0  0  0  0  0  0  0  0  0
   -0.4656    3.1477   -0.4852 H   0  0  0  0  0  0  0  0  0  0  0  0
    1.2998    3.1303   -0.4300 H   0  0  0  0  0  0  0  0  0  0  0  0
    0.3728    2.5753    0.9679 H   0  0  0  0  0  0  0  0  0  0  0  0
   -2.5767   -0.5817   -1.0209 C   0  0  0  0  0  0  0  0  0  0  0  0
   -1.7314   -0.0815    0.1536 C   0  0  0  0  0  0  0  0  0  0  0  0
   -1.3295   -1.2013    1.0539 C   0  0  0  0  0  0  0  0  0  0  0  0
    0.1709   -1.6573    1.4035 S   0  0  0  0  0  0  0  0  0  0  0  0
   -2.0008   -1.2638   -1.6476 H   0  0  0  0  0  0  0  0  0  0  0  0
   -3.4666   -1.1097   -0.6731 H   0  0  0  0  0  0  0  0  0  0  0  0
   -2.9015    0.2564   -1.6376 H   0  0  0  0  0  0  0  0  0  0  0  0
   -2.3271    0.6229    0.7457 H   0  0  0  0  0  0  0  0  0  0  0  0
   -2.1678   -1.7525    1.4874 H   0  0  0  0  0  0  0  0  0  0  0  0
  1  2  1  0
  1  5  1  0
  1  6  1  0
  1  7  1  0
  2  4  1  0
  2  3  1  0
  3  9  1  0
  4 10  1  0
  4 11  1  0
  4 12  1  0
  8 14  1  0
 13 14  1  0
 13 17  1  0
 13 18  1  0
 13 19  1  0
 14 15  1  0
 14 20  1  0
 15 16  2  0
 15 21  1  0
M  RAD  1   2   2
M  END
>  <reaction>  (16) 
rxn_1933

>  <mol_properties>  (16) 
{"1": {"label": "*3", "atom_type": "Cs"}, "2": {"label": "*4", "atom_type": "S2s"}, "7": {"label": "*2", "atom_type": "H0"}, "13": {"label": "*1", "atom_type": "Cs"}, "14": {"label": "*0", "atom_type": "CS"}}

>  <type>  (16) 
unop_12

>  <geom_source>  (16) 
Heuristics

$$$$

     RDKit          3D

 21 19  0  0  0  0  0  0  0  0999 V2000
   -1.5966   -1.7377    1.3522 S   0  0  0  0  0  0  0  0  0  0  0  0
    1.1582    2.6709    0.6840 S   0  0  0  0  0  1  0  0  0  0  0  0
    1.3882    0.1619    0.3067 C   0  0  0  0  0  0  0  0  0  0  0  0
    2.2093   -0.8326   -0.5058 C   0  0  0  0  0  0  0  0  0  0  0  0
   -1.4315   -0.7606   -1.2131 C   0  0  0  0  0  0  0  0  0  0  0  0
   -1.9630    0.8931    0.6160 C   0  0  0  0  0  0  0  0  0  0  0  0
   -1.1767   -0.3595    0.2367 C   0  0  0  0  0  0  0  0  0  0  0  0
    1.8363    1.5734    0.0548 C   0  0  0  0  0  0  0  0  0  0  0  0
    1.4959   -0.0782    1.3873 H   0  0  0  0  0  0  0  0  0  0  0  0
    0.0724    0.0327   -0.0424 H   0  0  0  0  0  0  0  0  0  0  0  0
    3.2828   -0.7665   -0.2272 H   0  0  0  0  0  0  0  0  0  0  0  0
    1.8497   -1.8625   -0.3007 H   0  0  0  0  0  0  0  0  0  0  0  0
    2.0955   -0.6265   -1.5914 H   0  0  0  0  0  0  0  0  0  0  0  0
   -0.8224   -1.6535   -1.4663 H   0  0  0  0  0  0  0  0  0  0  0  0
   -2.5057   -0.9971   -1.3707 H   0  0  0  0  0  0  0  0  0  0  0  0
   -1.1361    0.0662   -1.8930 H   0  0  0  0  0  0  0  0  0  0  0  0
   -1.6801    1.7348   -0.0506 H   0  0  0  0  0  0  0  0  0  0  0  0
   -3.0554    0.7099    0.5293 H   0  0  0  0  0  0  0  0  0  0  0  0
   -1.7259    1.1836    1.6608 H   0  0  0  0  0  0  0  0  0  0  0  0
    2.6631    1.7817   -0.6180 H   0  0  0  0  0  0  0  0  0  0  0  0
   -0.9580   -1.1335    2.4516 H   0  0  0  0  0  0  0  0  0  0  0  0
  1  7  1  0
  1 21  1  0
  2  8  1  0
  3  4  1  0
  3  8  2  3
  3  9  1  0
  4 11  1  0
  4 12  1  0
  4 13  1  0
  5  7  1  0
  5 14  1  0
  5 15  1  0
  5 16  1  0
  6  7  1  0
  6 17  1  0
  6 18  1  0
  6 19  1  0
  7 10  1  0
  8 20  1  0
M  RAD  1   2   2
M  END
>  <reaction>  (17) 
rxn_1933

>  <mol_properties>  (17) 
{"1": {"label": "*3", "atom_type": "Cs"}, "2": {"label": "*4", "atom_type": "S2s"}, "7": {"label": "*2", "atom_type": "H0"}, "13": {"label": "*1", "atom_type": "Cs"}, "14": {"label": "*0", "atom_type": "CS"}}

>  <type>  (17) 
unop_13

>  <geom_source>  (17) 
AutoTST

$$$$
