
     RDKit          3D

  9  8  0  0  0  0  0  0  0  0999 V2000
   -0.8818   -0.3578    0.1297 C   0  0  0  0  0  0  0  0  0  0  0  0
    0.6153   -0.3021   -0.1188 C   0  0  0  0  0  0  0  0  0  0  0  0
    1.5354   -1.7170    0.5545 S   0  0  0  0  0  0  0  0  0  0  0  0
   -1.1018   -0.3317    1.1984 H   0  0  0  0  0  0  0  0  0  0  0  0
   -1.3114   -1.2723   -0.2799 H   0  0  0  0  0  0  0  0  0  0  0  0
   -1.3767    0.4976   -0.3363 H   0  0  0  0  0  0  0  0  0  0  0  0
    1.0467    0.6194    0.2718 H   0  0  0  0  0  0  0  0  0  0  0  0
    0.8295   -0.3275   -1.1882 H   0  0  0  0  0  0  0  0  0  0  0  0
    1.2306   -1.5077    1.8423 H   0  0  0  0  0  0  0  0  0  0  0  0
  1  2  1  0
  1  4  1  0
  1  5  1  0
  1  6  1  0
  2  3  1  0
  2  7  1  0
  2  8  1  0
  3  9  1  0
M  END
>  <reaction>  (1) 
rxn_1884

>  <mol_properties>  (1) 
{"1": {"label": "donator", "atom_type": "Cs"}, "6": {"label": "d_hydrogen", "atom_type": "H0"}}

>  <type>  (1) 
r1h

$$$$

     RDKit          3D

 11 11  0  0  0  0  0  0  0  0999 V2000
    0.1524   -1.5397    0.0698 C   0  0  0  0  0  3  0  0  0  0  0  0
   -1.1218   -1.0406    0.0516 C   0  0  0  0  0  0  0  0  0  0  0  0
   -1.2464    0.3470   -0.0114 C   0  0  0  0  0  0  0  0  0  0  0  0
   -0.1137    1.1487   -0.0521 C   0  0  0  0  0  0  0  0  0  0  0  0
    1.1542    0.5837   -0.0308 C   0  0  0  0  0  0  0  0  0  0  0  0
    1.3041   -0.8014    0.0319 C   0  0  0  0  0  0  0  0  0  0  0  0
   -1.9955   -1.6793    0.0840 H   0  0  0  0  0  0  0  0  0  0  0  0
   -2.2319    0.7966   -0.0284 H   0  0  0  0  0  0  0  0  0  0  0  0
   -0.2203    2.2248   -0.1009 H   0  0  0  0  0  0  0  0  0  0  0  0
    2.0325    1.2173   -0.0630 H   0  0  0  0  0  0  0  0  0  0  0  0
    2.2862   -1.2570    0.0492 H   0  0  0  0  0  0  0  0  0  0  0  0
  1  2  2  0
  1  6  1  0
  2  3  1  0
  2  7  1  0
  3  4  2  0
  3  8  1  0
  4  5  1  0
  4  9  1  0
  5  6  2  0
  5 10  1  0
  6 11  1  0
M  RAD  1   1   2
M  END
>  <reaction>  (2) 
rxn_1884

>  <mol_properties>  (2) 
{"0": {"label": "acceptor", "atom_type": "Cd"}}

>  <type>  (2) 
r2

$$$$

     RDKit          3D

 12 12  0  0  0  0  0  0  0  0999 V2000
   -1.2385    0.6248   -0.0199 C   0  0  0  0  0  0  0  0  0  0  0  0
   -0.0779    1.3848   -0.0298 C   0  0  0  0  0  0  0  0  0  0  0  0
    1.1605    0.7600   -0.0100 C   0  0  0  0  0  0  0  0  0  0  0  0
    1.2385   -0.6248    0.0199 C   0  0  0  0  0  0  0  0  0  0  0  0
    0.0779   -1.3848    0.0298 C   0  0  0  0  0  0  0  0  0  0  0  0
   -1.1606   -0.7600    0.0100 C   0  0  0  0  0  0  0  0  0  0  0  0
   -2.2052    1.1125   -0.0354 H   0  0  0  0  0  0  0  0  0  0  0  0
   -0.1387    2.4657   -0.0531 H   0  0  0  0  0  0  0  0  0  0  0  0
    2.0664    1.3532   -0.0177 H   0  0  0  0  0  0  0  0  0  0  0  0
    2.2052   -1.1125    0.0354 H   0  0  0  0  0  0  0  0  0  0  0  0
    0.1387   -2.4657    0.0531 H   0  0  0  0  0  0  0  0  0  0  0  0
   -2.0664   -1.3532    0.0177 H   0  0  0  0  0  0  0  0  0  0  0  0
  1  2  2  0
  1  6  1  0
  1  7  1  0
  2  3  1  0
  2  8  1  0
  3  4  2  0
  3  9  1  0
  4  5  1  0
  4 10  1  0
  5  6  2  0
  5 11  1  0
  6 12  1  0
M  END
>  <reaction>  (3) 
rxn_1884

>  <mol_properties>  (3) 
{"0": {"label": "a_hydrogen", "atom_type": "H0"}, "1": {"label": "acceptor", "atom_type": "Cd"}}

>  <type>  (3) 
r2h

$$$$

     RDKit          3D

 20 19  0  0  0  0  0  0  0  0999 V2000
   -1.5318    0.9946   -2.3113 C   0  0  0  0  0  0  0  0  0  0  0  0
   -1.8679    0.6355   -0.8832 C   0  0  0  0  0  0  0  0  0  0  0  0
   -2.1561    2.0002    0.2373 S   0  0  0  0  0  0  0  0  0  0  0  0
   -0.6117    1.5807   -2.3571 H   0  0  0  0  0  0  0  0  0  0  0  0
   -2.3297    1.5800   -2.7727 H   0  0  0  0  0  0  0  0  0  0  0  0
   -1.3831    0.0886   -2.9028 H   0  0  0  0  0  0  0  0  0  0  0  0
   -0.9215   -0.0230   -0.4389 H   0  0  0  0  0  0  0  0  0  0  0  0
   -2.7295   -0.0266   -0.7982 H   0  0  0  0  0  0  0  0  0  0  0  0
   -0.9989    2.6378    0.0090 H   0  0  0  0  0  0  0  0  0  0  0  0
    0.2638   -0.7209    0.0718 C   0  0  0  0  0  3  0  0  0  0  0  0
    1.0119   -1.5306   -0.7525 C   0  0  0  0  0  0  0  0  0  0  0  0
    2.1429   -2.1427   -0.2209 C   0  0  0  0  0  0  0  0  0  0  0  0
    2.4895   -1.9290    1.1061 C   0  0  0  0  0  0  0  0  0  0  0  0
    1.7142   -1.1059    1.9116 C   0  0  0  0  0  0  0  0  0  0  0  0
    0.5813   -0.4885    1.3905 C   0  0  0  0  0  0  0  0  0  0  0  0
    0.7347   -1.6918   -1.7877 H   0  0  0  0  0  0  0  0  0  0  0  0
    2.7526   -2.7860   -0.8440 H   0  0  0  0  0  0  0  0  0  0  0  0
    3.3703   -2.4073    1.5155 H   0  0  0  0  0  0  0  0  0  0  0  0
    1.9904   -0.9436    2.9465 H   0  0  0  0  0  0  0  0  0  0  0  0
   -0.0346    0.1583    2.0049 H   0  0  0  0  0  0  0  0  0  0  0  0
  1  2  1  0
  1  4  1  0
  1  5  1  0
  1  6  1  0
  2  3  1  0
  2  7  1  0
  2  8  1  0
  3  9  1  0
 10 11  2  0
 10 15  1  0
 11 12  1  0
 11 16  1  0
 12 13  2  0
 12 17  1  0
 13 14  1  0
 13 18  1  0
 14 15  2  0
 14 19  1  0
 15 20  1  0
M  RAD  1  10   2
M  END
>  <reaction>  (4) 
rxn_1884

>  <mol_properties>  (4) 
{"1": {"label": "*1", "atom_type": "Cs"}, "2": {"label": "*0", "atom_type": "S2s"}, "6": {"label": "*2", "atom_type": "H0"}, "9": {"label": "*3", "atom_type": "Cd"}, "10": {"label": "*4", "atom_type": "Cd"}}

>  <type>  (4) 
ts

$$$$

     RDKit          3D

 20 19  0  0  0  0  0  0  0  0999 V2000
   -1.3779    0.7169   -2.7049 C   0  0  0  0  0  0  0  0  0  0  0  0
   -1.3779    0.7169   -1.1863 C   0  0  0  0  0  3  0  0  0  0  0  0
   -1.3779    2.3743   -0.4413 S   0  0  0  0  0  0  0  0  0  0  0  0
   -0.4712    1.1824   -3.0957 H   0  0  0  0  0  0  0  0  0  0  0  0
   -2.2338    1.2681   -3.0950 H   0  0  0  0  0  0  0  0  0  0  0  0
   -1.4209   -0.3064   -3.0852 H   0  0  0  0  0  0  0  0  0  0  0  0
   -0.3660    0.0376   -0.7121 H   0  0  0  0  0  0  0  0  0  0  0  0
   -2.2855    0.2499   -0.8011 H   0  0  0  0  0  0  0  0  0  0  0  0
   -0.2031    2.7760   -0.9448 H   0  0  0  0  0  0  0  0  0  0  0  0
    0.6395   -0.6374   -0.2410 C   0  0  0  0  0  0  0  0  0  0  0  0
    1.5753   -0.0125    0.5703 C   0  0  0  0  0  0  0  0  0  0  0  0
    2.0179   -0.6374    1.7271 C   0  0  0  0  0  0  0  0  0  0  0  0
    1.5247   -1.8871    2.0726 C   0  0  0  0  0  0  0  0  0  0  0  0
    0.5889   -2.5120    1.2613 C   0  0  0  0  0  0  0  0  0  0  0  0
    0.1463   -1.8872    0.1044 C   0  0  0  0  0  0  0  0  0  0  0  0
    1.9603    0.9630    0.3006 H   0  0  0  0  0  0  0  0  0  0  0  0
    2.7484   -0.1496    2.3604 H   0  0  0  0  0  0  0  0  0  0  0  0
    1.8702   -2.3749    2.9756 H   0  0  0  0  0  0  0  0  0  0  0  0
    0.2039   -3.4876    1.5309 H   0  0  0  0  0  0  0  0  0  0  0  0
   -0.5842   -2.3750   -0.5288 H   0  0  0  0  0  0  0  0  0  0  0  0
  1  2  1  0
  1  4  1  0
  1  5  1  0
  1  6  1  0
  2  3  1  0
  2  8  1  0
  3  9  1  0
  7 10  1  0
 10 11  2  0
 10 15  1  0
 11 12  1  0
 11 16  1  0
 12 13  2  0
 12 17  1  0
 13 14  1  0
 13 18  1  0
 14 15  2  0
 14 19  1  0
 15 20  1  0
M  RAD  1   2   2
M  END
>  <reaction>  (5) 
rxn_1884

>  <mol_properties>  (5) 
{"1": {"label": "*1", "atom_type": "Cs"}, "2": {"label": "*0", "atom_type": "S2s"}, "6": {"label": "*2", "atom_type": "H0"}, "9": {"label": "*3", "atom_type": "Cd"}, "10": {"label": "*4", "atom_type": "Cd"}}

>  <type>  (5) 
unop_1

>  <geom_source>  (5) 
Heuristics

$$$$

     RDKit          3D

 20 19  0  0  0  0  0  0  0  0999 V2000
   -1.7916    0.5820   -2.4078 C   0  0  0  0  0  0  0  0  0  0  0  0
   -1.7916    0.5820   -0.8892 C   0  0  0  0  0  3  0  0  0  0  0  0
   -1.7916    2.2394   -0.1442 S   0  0  0  0  0  0  0  0  0  0  0  0
   -0.8849    1.0475   -2.7986 H   0  0  0  0  0  0  0  0  0  0  0  0
   -2.6475    1.1332   -2.7979 H   0  0  0  0  0  0  0  0  0  0  0  0
   -1.8347   -0.4413   -2.7881 H   0  0  0  0  0  0  0  0  0  0  0  0
   -0.7797   -0.0973   -0.4150 H   0  0  0  0  0  0  0  0  0  0  0  0
   -2.6992    0.1150   -0.5040 H   0  0  0  0  0  0  0  0  0  0  0  0
   -0.6168    2.6411   -0.6477 H   0  0  0  0  0  0  0  0  0  0  0  0
    0.2258   -0.7723    0.0561 C   0  0  0  0  0  0  0  0  0  0  0  0
    1.4105   -0.8441   -0.6622 C   0  0  0  0  0  0  0  0  0  0  0  0
    2.5829   -1.2310   -0.0293 C   0  0  0  0  0  0  0  0  0  0  0  0
    2.5705   -1.5461    1.3216 C   0  0  0  0  0  0  0  0  0  0  0  0
    1.3858   -1.4743    2.0398 C   0  0  0  0  0  0  0  0  0  0  0  0
    0.2134   -1.0874    1.4070 C   0  0  0  0  0  0  0  0  0  0  0  0
    1.4202   -0.5982   -1.7167 H   0  0  0  0  0  0  0  0  0  0  0  0
    3.5076   -1.2871   -0.5899 H   0  0  0  0  0  0  0  0  0  0  0  0
    3.4856   -1.8481    1.8156 H   0  0  0  0  0  0  0  0  0  0  0  0
    1.3761   -1.7202    3.0943 H   0  0  0  0  0  0  0  0  0  0  0  0
   -0.7114   -1.0313    1.9676 H   0  0  0  0  0  0  0  0  0  0  0  0
  1  2  1  0
  1  4  1  0
  1  5  1  0
  1  6  1  0
  2  3  1  0
  2  8  1  0
  3  9  1  0
  7 10  1  0
 10 11  2  0
 10 15  1  0
 11 12  1  0
 11 16  1  0
 12 13  2  0
 12 17  1  0
 13 14  1  0
 13 18  1  0
 14 15  2  0
 14 19  1  0
 15 20  1  0
M  RAD  1   2   2
M  END
>  <reaction>  (6) 
rxn_1884

>  <mol_properties>  (6) 
{"1": {"label": "*1", "atom_type": "Cs"}, "2": {"label": "*0", "atom_type": "S2s"}, "6": {"label": "*2", "atom_type": "H0"}, "9": {"label": "*3", "atom_type": "Cd"}, "10": {"label": "*4", "atom_type": "Cd"}}

>  <type>  (6) 
unop_2

>  <geom_source>  (6) 
Heuristics

$$$$

     RDKit          3D

 20 19  0  0  0  0  0  0  0  0999 V2000
   -1.3978    0.9216   -2.5316 C   0  0  0  0  0  0  0  0  0  0  0  0
   -1.3978    0.9216   -1.0129 C   0  0  0  0  0  3  0  0  0  0  0  0
   -1.3978    2.5790   -0.2680 S   0  0  0  0  0  0  0  0  0  0  0  0
   -0.4911    1.3870   -2.9224 H   0  0  0  0  0  0  0  0  0  0  0  0
   -2.2537    1.4728   -2.9217 H   0  0  0  0  0  0  0  0  0  0  0  0
   -1.4408   -0.1017   -2.9119 H   0  0  0  0  0  0  0  0  0  0  0  0
   -0.3858    0.2423   -0.5388 H   0  0  0  0  0  0  0  0  0  0  0  0
   -2.3054    0.4546   -0.6278 H   0  0  0  0  0  0  0  0  0  0  0  0
   -0.2229    2.9807   -0.7715 H   0  0  0  0  0  0  0  0  0  0  0  0
    0.6196   -0.4327   -0.0677 C   0  0  0  0  0  0  0  0  0  0  0  0
    1.1780   -0.0840    1.1535 C   0  0  0  0  0  0  0  0  0  0  0  0
    1.6556   -1.0700    2.0045 C   0  0  0  0  0  0  0  0  0  0  0  0
    1.5750   -2.4046    1.6345 C   0  0  0  0  0  0  0  0  0  0  0  0
    1.0166   -2.7532    0.4133 C   0  0  0  0  0  0  0  0  0  0  0  0
    0.5389   -1.7673   -0.4378 C   0  0  0  0  0  0  0  0  0  0  0  0
    1.2409    0.9577    1.4423 H   0  0  0  0  0  0  0  0  0  0  0  0
    2.0914   -0.7978    2.9577 H   0  0  0  0  0  0  0  0  0  0  0  0
    1.9478   -3.1741    2.2988 H   0  0  0  0  0  0  0  0  0  0  0  0
    0.9536   -3.7949    0.1245 H   0  0  0  0  0  0  0  0  0  0  0  0
    0.1031   -2.0395   -1.3910 H   0  0  0  0  0  0  0  0  0  0  0  0
  1  2  1  0
  1  4  1  0
  1  5  1  0
  1  6  1  0
  2  3  1  0
  2  8  1  0
  3  9  1  0
  7 10  1  0
 10 11  2  0
 10 15  1  0
 11 12  1  0
 11 16  1  0
 12 13  2  0
 12 17  1  0
 13 14  1  0
 13 18  1  0
 14 15  2  0
 14 19  1  0
 15 20  1  0
M  RAD  1   2   2
M  END
>  <reaction>  (7) 
rxn_1884

>  <mol_properties>  (7) 
{"1": {"label": "*1", "atom_type": "Cs"}, "2": {"label": "*0", "atom_type": "S2s"}, "6": {"label": "*2", "atom_type": "H0"}, "9": {"label": "*3", "atom_type": "Cd"}, "10": {"label": "*4", "atom_type": "Cd"}}

>  <type>  (7) 
unop_3

>  <geom_source>  (7) 
Heuristics

$$$$

     RDKit          3D

 20 19  0  0  0  0  0  0  0  0999 V2000
   -1.4522    0.8542   -2.5699 C   0  0  0  0  0  0  0  0  0  0  0  0
   -1.4522    0.8542   -1.0512 C   0  0  0  0  0  3  0  0  0  0  0  0
   -1.4522    2.5116   -0.3062 S   0  0  0  0  0  0  0  0  0  0  0  0
   -0.5455    1.3196   -2.9606 H   0  0  0  0  0  0  0  0  0  0  0  0
   -2.3081    1.4054   -2.9600 H   0  0  0  0  0  0  0  0  0  0  0  0
   -1.4952   -0.1692   -2.9502 H   0  0  0  0  0  0  0  0  0  0  0  0
   -0.4402    0.1749   -0.5771 H   0  0  0  0  0  0  0  0  0  0  0  0
   -2.3598    0.3872   -0.6661 H   0  0  0  0  0  0  0  0  0  0  0  0
   -0.2774    2.9132   -0.8097 H   0  0  0  0  0  0  0  0  0  0  0  0
    0.5652   -0.5001   -0.1060 C   0  0  0  0  0  0  0  0  0  0  0  0
    0.7028   -1.8457   -0.4143 C   0  0  0  0  0  0  0  0  0  0  0  0
    1.2764   -2.7127    0.5043 C   0  0  0  0  0  0  0  0  0  0  0  0
    1.7125   -2.2342    1.7312 C   0  0  0  0  0  0  0  0  0  0  0  0
    1.5749   -0.8886    2.0396 C   0  0  0  0  0  0  0  0  0  0  0  0
    1.0013   -0.0216    1.1210 C   0  0  0  0  0  0  0  0  0  0  0  0
    0.3624   -2.2193   -1.3720 H   0  0  0  0  0  0  0  0  0  0  0  0
    1.3838   -3.7630    0.2636 H   0  0  0  0  0  0  0  0  0  0  0  0
    2.1602   -2.9109    2.4482 H   0  0  0  0  0  0  0  0  0  0  0  0
    1.9153   -0.5150    2.9973 H   0  0  0  0  0  0  0  0  0  0  0  0
    0.8939    1.0287    1.3617 H   0  0  0  0  0  0  0  0  0  0  0  0
  1  2  1  0
  1  4  1  0
  1  5  1  0
  1  6  1  0
  2  3  1  0
  2  8  1  0
  3  9  1  0
  7 10  1  0
 10 11  2  0
 10 15  1  0
 11 12  1  0
 11 16  1  0
 12 13  2  0
 12 17  1  0
 13 14  1  0
 13 18  1  0
 14 15  2  0
 14 19  1  0
 15 20  1  0
M  RAD  1   2   2
M  END
>  <reaction>  (8) 
rxn_1884

>  <mol_properties>  (8) 
{"1": {"label": "*1", "atom_type": "Cs"}, "2": {"label": "*0", "atom_type": "S2s"}, "6": {"label": "*2", "atom_type": "H0"}, "9": {"label": "*3", "atom_type": "Cd"}, "10": {"label": "*4", "atom_type": "Cd"}}

>  <type>  (8) 
unop_4

>  <geom_source>  (8) 
Heuristics

$$$$

     RDKit          3D

 20 19  0  0  0  0  0  0  0  0999 V2000
   -1.7355    0.7712   -2.3342 C   0  0  0  0  0  0  0  0  0  0  0  0
   -1.7355    0.7712   -0.8156 C   0  0  0  0  0  3  0  0  0  0  0  0
   -1.7355    2.4286   -0.0706 S   0  0  0  0  0  0  0  0  0  0  0  0
   -0.8289    1.2367   -2.7250 H   0  0  0  0  0  0  0  0  0  0  0  0
   -2.5915    1.3224   -2.7243 H   0  0  0  0  0  0  0  0  0  0  0  0
   -1.7786   -0.2521   -2.7145 H   0  0  0  0  0  0  0  0  0  0  0  0
   -0.7236    0.0919   -0.3414 H   0  0  0  0  0  0  0  0  0  0  0  0
   -2.6431    0.3042   -0.4304 H   0  0  0  0  0  0  0  0  0  0  0  0
   -0.5607    2.8303   -0.5741 H   0  0  0  0  0  0  0  0  0  0  0  0
    0.2819   -0.5831    0.1297 C   0  0  0  0  0  0  0  0  0  0  0  0
    0.4569   -0.7006    1.5008 C   0  0  0  0  0  0  0  0  0  0  0  0
    1.5304   -1.4213    2.0038 C   0  0  0  0  0  0  0  0  0  0  0  0
    2.4287   -2.0244    1.1356 C   0  0  0  0  0  0  0  0  0  0  0  0
    2.2536   -1.9069   -0.2356 C   0  0  0  0  0  0  0  0  0  0  0  0
    1.1802   -1.1862   -0.7386 C   0  0  0  0  0  0  0  0  0  0  0  0
   -0.2443   -0.2299    2.1785 H   0  0  0  0  0  0  0  0  0  0  0  0
    1.6670   -1.5130    3.0740 H   0  0  0  0  0  0  0  0  0  0  0  0
    3.2666   -2.5869    1.5282 H   0  0  0  0  0  0  0  0  0  0  0  0
    2.9549   -2.3776   -0.9133 H   0  0  0  0  0  0  0  0  0  0  0  0
    1.0436   -1.0945   -1.8088 H   0  0  0  0  0  0  0  0  0  0  0  0
  1  2  1  0
  1  4  1  0
  1  5  1  0
  1  6  1  0
  2  3  1  0
  2  8  1  0
  3  9  1  0
  7 10  1  0
 10 11  2  0
 10 15  1  0
 11 12  1  0
 11 16  1  0
 12 13  2  0
 12 17  1  0
 13 14  1  0
 13 18  1  0
 14 15  2  0
 14 19  1  0
 15 20  1  0
M  RAD  1   2   2
M  END
>  <reaction>  (9) 
rxn_1884

>  <mol_properties>  (9) 
{"1": {"label": "*1", "atom_type": "Cs"}, "2": {"label": "*0", "atom_type": "S2s"}, "6": {"label": "*2", "atom_type": "H0"}, "9": {"label": "*3", "atom_type": "Cd"}, "10": {"label": "*4", "atom_type": "Cd"}}

>  <type>  (9) 
unop_5

>  <geom_source>  (9) 
Heuristics

$$$$

     RDKit          3D

 20 19  0  0  0  0  0  0  0  0999 V2000
   -1.4361    0.6738   -2.7019 C   0  0  0  0  0  0  0  0  0  0  0  0
   -1.4361    0.6738   -1.1832 C   0  0  0  0  0  3  0  0  0  0  0  0
   -1.4361    2.3312   -0.4382 S   0  0  0  0  0  0  0  0  0  0  0  0
   -0.5295    1.1393   -3.0926 H   0  0  0  0  0  0  0  0  0  0  0  0
   -2.2921    1.2250   -3.0920 H   0  0  0  0  0  0  0  0  0  0  0  0
   -1.4792   -0.3495   -3.0822 H   0  0  0  0  0  0  0  0  0  0  0  0
   -0.4242   -0.0055   -0.7091 H   0  0  0  0  0  0  0  0  0  0  0  0
   -2.3438    0.2068   -0.7981 H   0  0  0  0  0  0  0  0  0  0  0  0
   -0.2613    2.7329   -0.9418 H   0  0  0  0  0  0  0  0  0  0  0  0
    0.5812   -0.6805   -0.2380 C   0  0  0  0  0  0  0  0  0  0  0  0
    0.4483   -2.0383    0.0135 C   0  0  0  0  0  0  0  0  0  0  0  0
    0.9937   -2.5871    1.1650 C   0  0  0  0  0  0  0  0  0  0  0  0
    1.6720   -1.7782    2.0650 C   0  0  0  0  0  0  0  0  0  0  0  0
    1.8050   -0.4204    1.8135 C   0  0  0  0  0  0  0  0  0  0  0  0
    1.2596    0.1285    0.6620 C   0  0  0  0  0  0  0  0  0  0  0  0
   -0.0812   -2.6698   -0.6890 H   0  0  0  0  0  0  0  0  0  0  0  0
    0.8899   -3.6470    1.3613 H   0  0  0  0  0  0  0  0  0  0  0  0
    2.0977   -2.2066    2.9638 H   0  0  0  0  0  0  0  0  0  0  0  0
    2.3344    0.2111    2.5159 H   0  0  0  0  0  0  0  0  0  0  0  0
    1.3633    1.1883    0.4657 H   0  0  0  0  0  0  0  0  0  0  0  0
  1  2  1  0
  1  4  1  0
  1  5  1  0
  1  6  1  0
  2  3  1  0
  2  8  1  0
  3  9  1  0
  7 10  1  0
 10 11  2  0
 10 15  1  0
 11 12  1  0
 11 16  1  0
 12 13  2  0
 12 17  1  0
 13 14  1  0
 13 18  1  0
 14 15  2  0
 14 19  1  0
 15 20  1  0
M  RAD  1   2   2
M  END
>  <reaction>  (10) 
rxn_1884

>  <mol_properties>  (10) 
{"1": {"label": "*1", "atom_type": "Cs"}, "2": {"label": "*0", "atom_type": "S2s"}, "6": {"label": "*2", "atom_type": "H0"}, "9": {"label": "*3", "atom_type": "Cd"}, "10": {"label": "*4", "atom_type": "Cd"}}

>  <type>  (10) 
unop_6

>  <geom_source>  (10) 
Heuristics

$$$$

     RDKit          3D

 20 19  0  0  0  0  0  0  0  0999 V2000
   -1.5498    0.4608   -2.7049 C   0  0  0  0  0  0  0  0  0  0  0  0
   -1.5498    0.4608   -1.1863 C   0  0  0  0  0  3  0  0  0  0  0  0
   -1.5498    2.1182   -0.4413 S   0  0  0  0  0  0  0  0  0  0  0  0
   -0.6432    0.9262   -3.0957 H   0  0  0  0  0  0  0  0  0  0  0  0
   -2.4058    1.0120   -3.0950 H   0  0  0  0  0  0  0  0  0  0  0  0
   -1.5929   -0.5626   -3.0852 H   0  0  0  0  0  0  0  0  0  0  0  0
   -0.5379   -0.2185   -0.7121 H   0  0  0  0  0  0  0  0  0  0  0  0
   -2.4574   -0.0062   -0.8011 H   0  0  0  0  0  0  0  0  0  0  0  0
   -0.3750    2.5198   -0.9448 H   0  0  0  0  0  0  0  0  0  0  0  0
    0.4675   -0.8935   -0.2410 C   0  0  0  0  0  0  0  0  0  0  0  0
    0.2435   -1.9963    0.5703 C   0  0  0  0  0  0  0  0  0  0  0  0
    0.9894   -2.1694    1.7271 C   0  0  0  0  0  0  0  0  0  0  0  0
    1.9594   -1.2397    2.0726 C   0  0  0  0  0  0  0  0  0  0  0  0
    2.1834   -0.1369    1.2613 C   0  0  0  0  0  0  0  0  0  0  0  0
    1.4375    0.0362    0.1044 C   0  0  0  0  0  0  0  0  0  0  0  0
   -0.5136   -2.7220    0.3006 H   0  0  0  0  0  0  0  0  0  0  0  0
    0.8145   -3.0301    2.3604 H   0  0  0  0  0  0  0  0  0  0  0  0
    2.5416   -1.3747    2.9756 H   0  0  0  0  0  0  0  0  0  0  0  0
    2.9405    0.5888    1.5309 H   0  0  0  0  0  0  0  0  0  0  0  0
    1.6124    0.8970   -0.5288 H   0  0  0  0  0  0  0  0  0  0  0  0
  1  2  1  0
  1  4  1  0
  1  5  1  0
  1  6  1  0
  2  3  1  0
  2  8  1  0
  3  9  1  0
  7 10  1  0
 10 11  2  0
 10 15  1  0
 11 12  1  0
 11 16  1  0
 12 13  2  0
 12 17  1  0
 13 14  1  0
 13 18  1  0
 14 15  2  0
 14 19  1  0
 15 20  1  0
M  RAD  1   2   2
M  END
>  <reaction>  (11) 
rxn_1884

>  <mol_properties>  (11) 
{"1": {"label": "*1", "atom_type": "Cs"}, "2": {"label": "*0", "atom_type": "S2s"}, "6": {"label": "*2", "atom_type": "H0"}, "9": {"label": "*3", "atom_type": "Cd"}, "10": {"label": "*4", "atom_type": "Cd"}}

>  <type>  (11) 
unop_7

>  <geom_source>  (11) 
Heuristics

$$$$

     RDKit          3D

 20 19  0  0  0  0  0  0  0  0999 V2000
   -1.5320    0.5311   -2.7019 C   0  0  0  0  0  0  0  0  0  0  0  0
   -1.5320    0.5311   -1.1832 C   0  0  0  0  0  3  0  0  0  0  0  0
   -1.5320    2.1884   -0.4382 S   0  0  0  0  0  0  0  0  0  0  0  0
   -0.6254    0.9965   -3.0926 H   0  0  0  0  0  0  0  0  0  0  0  0
   -2.3880    1.0823   -3.0920 H   0  0  0  0  0  0  0  0  0  0  0  0
   -1.5751   -0.4923   -3.0822 H   0  0  0  0  0  0  0  0  0  0  0  0
   -0.5201   -0.1483   -0.7091 H   0  0  0  0  0  0  0  0  0  0  0  0
   -2.4396    0.0640   -0.7981 H   0  0  0  0  0  0  0  0  0  0  0  0
   -0.3572    2.5901   -0.9418 H   0  0  0  0  0  0  0  0  0  0  0  0
    0.4854   -0.8233   -0.2380 C   0  0  0  0  0  0  0  0  0  0  0  0
    1.6917   -0.1861    0.0135 C   0  0  0  0  0  0  0  0  0  0  0  0
    2.4062   -0.4831    1.1650 C   0  0  0  0  0  0  0  0  0  0  0  0
    1.9143   -1.4173    2.0650 C   0  0  0  0  0  0  0  0  0  0  0  0
    0.7079   -2.0544    1.8135 C   0  0  0  0  0  0  0  0  0  0  0  0
   -0.0065   -1.7574    0.6620 C   0  0  0  0  0  0  0  0  0  0  0  0
    2.0757    0.5431   -0.6890 H   0  0  0  0  0  0  0  0  0  0  0  0
    3.3478    0.0142    1.3613 H   0  0  0  0  0  0  0  0  0  0  0  0
    2.4720   -1.6491    2.9638 H   0  0  0  0  0  0  0  0  0  0  0  0
    0.3240   -2.7836    2.5159 H   0  0  0  0  0  0  0  0  0  0  0  0
   -0.9482   -2.2548    0.4657 H   0  0  0  0  0  0  0  0  0  0  0  0
  1  2  1  0
  1  4  1  0
  1  5  1  0
  1  6  1  0
  2  3  1  0
  2  8  1  0
  3  9  1  0
  7 10  1  0
 10 11  2  0
 10 15  1  0
 11 12  1  0
 11 16  1  0
 12 13  2  0
 12 17  1  0
 13 14  1  0
 13 18  1  0
 14 15  2  0
 14 19  1  0
 15 20  1  0
M  RAD  1   2   2
M  END
>  <reaction>  (12) 
rxn_1884

>  <mol_properties>  (12) 
{"1": {"label": "*1", "atom_type": "Cs"}, "2": {"label": "*0", "atom_type": "S2s"}, "6": {"label": "*2", "atom_type": "H0"}, "9": {"label": "*3", "atom_type": "Cd"}, "10": {"label": "*4", "atom_type": "Cd"}}

>  <type>  (12) 
unop_8

>  <geom_source>  (12) 
Heuristics

$$$$

     RDKit          3D

 20 19  0  0  0  0  0  0  0  0999 V2000
   -1.5816    0.8948   -2.4078 C   0  0  0  0  0  0  0  0  0  0  0  0
   -1.5816    0.8948   -0.8892 C   0  0  0  0  0  3  0  0  0  0  0  0
   -1.5816    2.5521   -0.1442 S   0  0  0  0  0  0  0  0  0  0  0  0
   -0.6750    1.3602   -2.7986 H   0  0  0  0  0  0  0  0  0  0  0  0
   -2.4376    1.4460   -2.7979 H   0  0  0  0  0  0  0  0  0  0  0  0
   -1.6247   -0.1286   -2.7881 H   0  0  0  0  0  0  0  0  0  0  0  0
   -0.5697    0.2154   -0.4150 H   0  0  0  0  0  0  0  0  0  0  0  0
   -2.4892    0.4277   -0.5040 H   0  0  0  0  0  0  0  0  0  0  0  0
   -0.4068    2.9538   -0.6477 H   0  0  0  0  0  0  0  0  0  0  0  0
    0.4357   -0.4596    0.0561 C   0  0  0  0  0  0  0  0  0  0  0  0
    0.9508   -1.5289   -0.6622 C   0  0  0  0  0  0  0  0  0  0  0  0
    1.7528   -2.4675   -0.0293 C   0  0  0  0  0  0  0  0  0  0  0  0
    2.0398   -2.3367    1.3216 C   0  0  0  0  0  0  0  0  0  0  0  0
    1.5247   -1.2674    2.0398 C   0  0  0  0  0  0  0  0  0  0  0  0
    0.7227   -0.3288    1.4070 C   0  0  0  0  0  0  0  0  0  0  0  0
    0.7268   -1.6309   -1.7167 H   0  0  0  0  0  0  0  0  0  0  0  0
    2.1549   -3.3021   -0.5899 H   0  0  0  0  0  0  0  0  0  0  0  0
    2.6658   -3.0694    1.8156 H   0  0  0  0  0  0  0  0  0  0  0  0
    1.7486   -1.1653    3.0943 H   0  0  0  0  0  0  0  0  0  0  0  0
    0.3206    0.5059    1.9676 H   0  0  0  0  0  0  0  0  0  0  0  0
  1  2  1  0
  1  4  1  0
  1  5  1  0
  1  6  1  0
  2  3  1  0
  2  8  1  0
  3  9  1  0
  7 10  1  0
 10 11  2  0
 10 15  1  0
 11 12  1  0
 11 16  1  0
 12 13  2  0
 12 17  1  0
 13 14  1  0
 13 18  1  0
 14 15  2  0
 14 19  1  0
 15 20  1  0
M  RAD  1   2   2
M  END
>  <reaction>  (13) 
rxn_1884

>  <mol_properties>  (13) 
{"1": {"label": "*1", "atom_type": "Cs"}, "2": {"label": "*0", "atom_type": "S2s"}, "6": {"label": "*2", "atom_type": "H0"}, "9": {"label": "*3", "atom_type": "Cd"}, "10": {"label": "*4", "atom_type": "Cd"}}

>  <type>  (13) 
unop_9

>  <geom_source>  (13) 
Heuristics

$$$$

     RDKit          3D

 20 19  0  0  0  0  0  0  0  0999 V2000
   -1.7050    0.4776   -2.5699 C   0  0  0  0  0  0  0  0  0  0  0  0
   -1.7050    0.4776   -1.0512 C   0  0  0  0  0  3  0  0  0  0  0  0
   -1.7050    2.1349   -0.3062 S   0  0  0  0  0  0  0  0  0  0  0  0
   -0.7984    0.9430   -2.9606 H   0  0  0  0  0  0  0  0  0  0  0  0
   -2.5610    1.0288   -2.9600 H   0  0  0  0  0  0  0  0  0  0  0  0
   -1.7481   -0.5458   -2.9502 H   0  0  0  0  0  0  0  0  0  0  0  0
   -0.6931   -0.2018   -0.5771 H   0  0  0  0  0  0  0  0  0  0  0  0
   -2.6126    0.0105   -0.6661 H   0  0  0  0  0  0  0  0  0  0  0  0
   -0.5302    2.5366   -0.8097 H   0  0  0  0  0  0  0  0  0  0  0  0
    0.3124   -0.8768   -0.1060 C   0  0  0  0  0  0  0  0  0  0  0  0
    1.6098   -0.4946   -0.4143 C   0  0  0  0  0  0  0  0  0  0  0  0
    2.6295   -0.6973    0.5043 C   0  0  0  0  0  0  0  0  0  0  0  0
    2.3517   -1.2821    1.7312 C   0  0  0  0  0  0  0  0  0  0  0  0
    1.0542   -1.6642    2.0396 C   0  0  0  0  0  0  0  0  0  0  0  0
    0.0345   -1.4616    1.1210 C   0  0  0  0  0  0  0  0  0  0  0  0
    1.8267   -0.0382   -1.3720 H   0  0  0  0  0  0  0  0  0  0  0  0
    3.6422   -0.3990    0.2636 H   0  0  0  0  0  0  0  0  0  0  0  0
    3.1476   -1.4402    2.4482 H   0  0  0  0  0  0  0  0  0  0  0  0
    0.8373   -2.1207    2.9973 H   0  0  0  0  0  0  0  0  0  0  0  0
   -0.9783   -1.7598    1.3617 H   0  0  0  0  0  0  0  0  0  0  0  0
  1  2  1  0
  1  4  1  0
  1  5  1  0
  1  6  1  0
  2  3  1  0
  2  8  1  0
  3  9  1  0
  7 10  1  0
 10 11  2  0
 10 15  1  0
 11 12  1  0
 11 16  1  0
 12 13  2  0
 12 17  1  0
 13 14  1  0
 13 18  1  0
 14 15  2  0
 14 19  1  0
 15 20  1  0
M  RAD  1   2   2
M  END
>  <reaction>  (14) 
rxn_1884

>  <mol_properties>  (14) 
{"1": {"label": "*1", "atom_type": "Cs"}, "2": {"label": "*0", "atom_type": "S2s"}, "6": {"label": "*2", "atom_type": "H0"}, "9": {"label": "*3", "atom_type": "Cd"}, "10": {"label": "*4", "atom_type": "Cd"}}

>  <type>  (14) 
unop_10

>  <geom_source>  (14) 
Heuristics

$$$$

     RDKit          3D

 20 19  0  0  0  0  0  0  0  0999 V2000
   -1.7468    0.4017   -2.5316 C   0  0  0  0  0  0  0  0  0  0  0  0
   -1.7468    0.4017   -1.0129 C   0  0  0  0  0  3  0  0  0  0  0  0
   -1.7468    2.0591   -0.2680 S   0  0  0  0  0  0  0  0  0  0  0  0
   -0.8402    0.8671   -2.9224 H   0  0  0  0  0  0  0  0  0  0  0  0
   -2.6028    0.9529   -2.9217 H   0  0  0  0  0  0  0  0  0  0  0  0
   -1.7899   -0.6217   -2.9119 H   0  0  0  0  0  0  0  0  0  0  0  0
   -0.7349   -0.2776   -0.5388 H   0  0  0  0  0  0  0  0  0  0  0  0
   -2.6544   -0.0654   -0.6278 H   0  0  0  0  0  0  0  0  0  0  0  0
   -0.5720    2.4607   -0.7715 H   0  0  0  0  0  0  0  0  0  0  0  0
    0.2706   -0.9526   -0.0677 C   0  0  0  0  0  0  0  0  0  0  0  0
    0.1592   -1.6015    1.1535 C   0  0  0  0  0  0  0  0  0  0  0  0
    1.2526   -1.6702    2.0045 C   0  0  0  0  0  0  0  0  0  0  0  0
    2.4573   -1.0902    1.6345 C   0  0  0  0  0  0  0  0  0  0  0  0
    2.5686   -0.4415    0.4133 C   0  0  0  0  0  0  0  0  0  0  0  0
    1.4752   -0.3726   -0.4378 C   0  0  0  0  0  0  0  0  0  0  0  0
   -0.7811   -2.0542    1.4423 H   0  0  0  0  0  0  0  0  0  0  0  0
    1.1658   -2.1767    2.9577 H   0  0  0  0  0  0  0  0  0  0  0  0
    3.3107   -1.1440    2.2988 H   0  0  0  0  0  0  0  0  0  0  0  0
    3.5089    0.0113    0.1245 H   0  0  0  0  0  0  0  0  0  0  0  0
    1.5621    0.1338   -1.3910 H   0  0  0  0  0  0  0  0  0  0  0  0
  1  2  1  0
  1  4  1  0
  1  5  1  0
  1  6  1  0
  2  3  1  0
  2  8  1  0
  3  9  1  0
  7 10  1  0
 10 11  2  0
 10 15  1  0
 11 12  1  0
 11 16  1  0
 12 13  2  0
 12 17  1  0
 13 14  1  0
 13 18  1  0
 14 15  2  0
 14 19  1  0
 15 20  1  0
M  RAD  1   2   2
M  END
>  <reaction>  (15) 
rxn_1884

>  <mol_properties>  (15) 
{"1": {"label": "*1", "atom_type": "Cs"}, "2": {"label": "*0", "atom_type": "S2s"}, "6": {"label": "*2", "atom_type": "H0"}, "9": {"label": "*3", "atom_type": "Cd"}, "10": {"label": "*4", "atom_type": "Cd"}}

>  <type>  (15) 
unop_11

>  <geom_source>  (15) 
Heuristics

$$$$

     RDKit          3D

 20 19  0  0  0  0  0  0  0  0999 V2000
   -1.7355    0.7712   -2.3342 C   0  0  0  0  0  0  0  0  0  0  0  0
   -1.7355    0.7712   -0.8156 C   0  0  0  0  0  3  0  0  0  0  0  0
   -1.7355    2.4286   -0.0706 S   0  0  0  0  0  0  0  0  0  0  0  0
   -0.8289    1.2367   -2.7250 H   0  0  0  0  0  0  0  0  0  0  0  0
   -2.5915    1.3224   -2.7243 H   0  0  0  0  0  0  0  0  0  0  0  0
   -1.7786   -0.2521   -2.7145 H   0  0  0  0  0  0  0  0  0  0  0  0
   -0.7236    0.0919   -0.3414 H   0  0  0  0  0  0  0  0  0  0  0  0
   -2.6431    0.3042   -0.4304 H   0  0  0  0  0  0  0  0  0  0  0  0
   -0.5607    2.8303   -0.5741 H   0  0  0  0  0  0  0  0  0  0  0  0
    0.2819   -0.5831    0.1297 C   0  0  0  0  0  0  0  0  0  0  0  0
    1.1802   -1.1862   -0.7386 C   0  0  0  0  0  0  0  0  0  0  0  0
    2.2536   -1.9069   -0.2356 C   0  0  0  0  0  0  0  0  0  0  0  0
    2.4287   -2.0244    1.1356 C   0  0  0  0  0  0  0  0  0  0  0  0
    1.5304   -1.4213    2.0038 C   0  0  0  0  0  0  0  0  0  0  0  0
    0.4569   -0.7006    1.5008 C   0  0  0  0  0  0  0  0  0  0  0  0
    1.0436   -1.0945   -1.8088 H   0  0  0  0  0  0  0  0  0  0  0  0
    2.9549   -2.3776   -0.9133 H   0  0  0  0  0  0  0  0  0  0  0  0
    3.2666   -2.5869    1.5282 H   0  0  0  0  0  0  0  0  0  0  0  0
    1.6670   -1.5130    3.0740 H   0  0  0  0  0  0  0  0  0  0  0  0
   -0.2443   -0.2299    2.1785 H   0  0  0  0  0  0  0  0  0  0  0  0
  1  2  1  0
  1  4  1  0
  1  5  1  0
  1  6  1  0
  2  3  1  0
  2  8  1  0
  3  9  1  0
  7 10  1  0
 10 11  2  0
 10 15  1  0
 11 12  1  0
 11 16  1  0
 12 13  2  0
 12 17  1  0
 13 14  1  0
 13 18  1  0
 14 15  2  0
 14 19  1  0
 15 20  1  0
M  RAD  1   2   2
M  END
>  <reaction>  (16) 
rxn_1884

>  <mol_properties>  (16) 
{"1": {"label": "*1", "atom_type": "Cs"}, "2": {"label": "*0", "atom_type": "S2s"}, "6": {"label": "*2", "atom_type": "H0"}, "9": {"label": "*3", "atom_type": "Cd"}, "10": {"label": "*4", "atom_type": "Cd"}}

>  <type>  (16) 
unop_12

>  <geom_source>  (16) 
Heuristics

$$$$

     RDKit          3D

 20 19  0  0  0  0  0  0  0  0999 V2000
   -2.9715    0.2208    1.7878 S   0  0  0  0  0  0  0  0  0  0  0  0
   -2.7048   -0.1765   -0.9155 C   0  0  0  0  0  0  0  0  0  0  0  0
    1.1014   -0.9510    0.3521 C   0  0  0  0  0  0  0  0  0  0  0  0
    2.4658   -0.9486    0.0427 C   0  0  0  0  0  0  0  0  0  0  0  0
    0.3565    0.2274    0.2388 C   0  0  0  0  0  0  0  0  0  0  0  0
    3.0850    0.2327   -0.3800 C   0  0  0  0  0  0  0  0  0  0  0  0
    0.9753    1.4084   -0.1838 C   0  0  0  0  0  0  0  0  0  0  0  0
    2.3397    1.4113   -0.4933 C   0  0  0  0  0  0  0  0  0  0  0  0
   -2.0839   -0.5718    0.4137 C   0  0  0  0  0  3  0  0  0  0  0  0
   -2.6513    0.9248   -1.0455 H   0  0  0  0  0  0  0  0  0  0  0  0
   -3.7654   -0.5038   -0.9566 H   0  0  0  0  0  0  0  0  0  0  0  0
   -2.1447   -0.6611   -1.7420 H   0  0  0  0  0  0  0  0  0  0  0  0
    0.6214   -1.8641    0.6792 H   0  0  0  0  0  0  0  0  0  0  0  0
    3.0423   -1.8605    0.1304 H   0  0  0  0  0  0  0  0  0  0  0  0
   -0.8140    0.2251    0.5043 H   0  0  0  0  0  0  0  0  0  0  0  0
    4.1405    0.2347   -0.6194 H   0  0  0  0  0  0  0  0  0  0  0  0
    0.3978    2.3194   -0.2710 H   0  0  0  0  0  0  0  0  0  0  0  0
    2.8185    2.3252   -0.8203 H   0  0  0  0  0  0  0  0  0  0  0  0
   -2.1200   -1.6751    0.5355 H   0  0  0  0  0  0  0  0  0  0  0  0
   -2.0886   -0.3171    2.7429 H   0  0  0  0  0  0  0  0  0  0  0  0
  1  9  1  0
  1 20  1  0
  2  9  1  0
  2 10  1  0
  2 11  1  0
  2 12  1  0
  3  4  2  0
  3  5  1  0
  3 13  1  0
  4  6  1  0
  4 14  1  0
  5  7  2  0
  5 15  1  0
  6  8  2  0
  6 16  1  0
  7  8  1  0
  7 17  1  0
  8 18  1  0
  9 19  1  0
M  RAD  1   9   2
M  END
>  <reaction>  (17) 
rxn_1884

>  <mol_properties>  (17) 
{"1": {"label": "*1", "atom_type": "Cs"}, "2": {"label": "*0", "atom_type": "S2s"}, "6": {"label": "*2", "atom_type": "H0"}, "9": {"label": "*3", "atom_type": "Cd"}, "10": {"label": "*4", "atom_type": "Cd"}}

>  <type>  (17) 
unop_13

>  <geom_source>  (17) 
AutoTST

$$$$
