
     RDKit          3D

 13 12  0  0  0  0  0  0  0  0999 V2000
    3.0977   -0.3549   -0.5105 C   0  0  0  0  0  0  0  0  0  0  0  0
    2.0556    0.4221   -0.2627 C   0  0  0  0  0  0  0  0  0  0  0  0
    0.6313   -0.0354   -0.2366 C   0  0  0  0  0  0  0  0  0  0  0  0
   -0.2567    0.6038   -1.2694 C   0  0  0  0  0  0  0  0  0  0  0  0
    0.1459    1.3456   -2.2891 C   0  0  0  0  0  0  0  0  0  0  0  0
    4.1081    0.0344   -0.5074 H   0  0  0  0  0  0  0  0  0  0  0  0
    2.9777   -1.4116   -0.7243 H   0  0  0  0  0  0  0  0  0  0  0  0
    2.2171    1.4781   -0.0618 H   0  0  0  0  0  0  0  0  0  0  0  0
    0.5865   -1.1233   -0.3540 H   0  0  0  0  0  0  0  0  0  0  0  0
    0.2065    0.1743    0.7521 H   0  0  0  0  0  0  0  0  0  0  0  0
   -1.3190    0.4126   -1.1445 H   0  0  0  0  0  0  0  0  0  0  0  0
    1.1948    1.5564   -2.4628 H   0  0  0  0  0  0  0  0  0  0  0  0
   -0.5644    1.7621   -2.9918 H   0  0  0  0  0  0  0  0  0  0  0  0
  1  2  2  3
  1  6  1  0
  1  7  1  0
  2  3  1  0
  2  8  1  0
  3  4  1  0
  3  9  1  0
  3 10  1  0
  4  5  2  3
  4 11  1  0
  5 12  1  0
  5 13  1  0
M  END
>  <reaction>  (1) 
rxn_745

>  <mol_properties>  (1) 
{"2": {"label": "donator", "atom_type": "Cs"}, "8": {"label": "d_hydrogen", "atom_type": "H0"}}

>  <type>  (1) 
r1h

$$$$

     RDKit          3D

 24 25  0  0  0  0  0  0  0  0999 V2000
   -1.3137    1.2076    0.0526 C   0  0  0  0  0  3  0  0  0  0  0  0
   -2.3065    0.1196    0.2833 C   0  0  0  0  0  0  0  0  0  0  0  0
   -1.7836   -1.0394   -0.5898 C   0  0  0  0  0  0  0  0  0  0  0  0
   -0.2749   -0.7855   -0.6984 C   0  0  0  0  0  0  0  0  0  0  0  0
    0.4655   -1.2917    0.5434 C   0  0  0  0  0  0  0  0  0  0  0  0
    1.8694   -0.7131    0.6745 C   0  0  0  0  0  0  0  0  0  0  0  0
    1.8184    0.8105    0.7119 C   0  0  0  0  0  0  0  0  0  0  0  0
    1.1779    1.3572   -0.5588 C   0  0  0  0  0  0  0  0  0  0  0  0
   -0.2011    0.7528   -0.8316 C   0  0  0  0  0  0  0  0  0  0  0  0
   -1.4277    2.2231    0.4082 H   0  0  0  0  0  0  0  0  0  0  0  0
   -2.3438   -0.1691    1.3425 H   0  0  0  0  0  0  0  0  0  0  0  0
   -3.3295    0.4088    0.0212 H   0  0  0  0  0  0  0  0  0  0  0  0
   -2.2393   -0.9859   -1.5815 H   0  0  0  0  0  0  0  0  0  0  0  0
   -2.0144   -2.0220   -0.1744 H   0  0  0  0  0  0  0  0  0  0  0  0
    0.1520   -1.2674   -1.5825 H   0  0  0  0  0  0  0  0  0  0  0  0
   -0.1033   -1.0202    1.4396 H   0  0  0  0  0  0  0  0  0  0  0  0
    0.4983   -2.3841    0.5177 H   0  0  0  0  0  0  0  0  0  0  0  0
    2.4827   -1.0338   -0.1757 H   0  0  0  0  0  0  0  0  0  0  0  0
    2.3514   -1.1019    1.5744 H   0  0  0  0  0  0  0  0  0  0  0  0
    1.2359    1.1286    1.5834 H   0  0  0  0  0  0  0  0  0  0  0  0
    2.8216    1.2258    0.8314 H   0  0  0  0  0  0  0  0  0  0  0  0
    1.0952    2.4462   -0.5109 H   0  0  0  0  0  0  0  0  0  0  0  0
    1.8331    1.1314   -1.4069 H   0  0  0  0  0  0  0  0  0  0  0  0
   -0.4636    1.0027   -1.8738 H   0  0  0  0  0  0  0  0  0  0  0  0
  1  2  1  0
  1  9  1  0
  1 10  1  0
  2  3  1  0
  2 11  1  0
  2 12  1  0
  3  4  1  0
  3 13  1  0
  3 14  1  0
  4  5  1  0
  4  9  1  0
  4 15  1  0
  5  6  1  0
  5 16  1  0
  5 17  1  0
  6  7  1  0
  6 18  1  0
  6 19  1  0
  7  8  1  0
  7 20  1  0
  7 21  1  0
  8  9  1  0
  8 22  1  0
  8 23  1  0
  9 24  1  0
M  RAD  1   1   2
M  END
>  <reaction>  (2) 
rxn_745

>  <mol_properties>  (2) 
{"0": {"label": "acceptor", "atom_type": "Cs"}}

>  <type>  (2) 
r2

$$$$

     RDKit          3D

 25 26  0  0  0  0  0  0  0  0999 V2000
    2.0298   -1.1515    0.0571 C   0  0  0  0  0  0  0  0  0  0  0  0
    2.2278    0.2445    0.6528 C   0  0  0  0  0  0  0  0  0  0  0  0
    1.2292    1.2625    0.0947 C   0  0  0  0  0  0  0  0  0  0  0  0
   -0.1869    0.7454    0.2762 C   0  0  0  0  0  0  0  0  0  0  0  0
   -1.3415    1.5501   -0.3122 C   0  0  0  0  0  0  0  0  0  0  0  0
   -2.5060    0.5338   -0.4178 C   0  0  0  0  0  0  0  0  0  0  0  0
   -1.8709   -0.8658   -0.2234 C   0  0  0  0  0  0  0  0  0  0  0  0
   -0.3715   -0.6265   -0.3693 C   0  0  0  0  0  0  0  0  0  0  0  0
    0.5898   -1.6500    0.2086 C   0  0  0  0  0  0  0  0  0  0  0  0
    2.2820   -1.1226   -1.0088 H   0  0  0  0  0  0  0  0  0  0  0  0
    2.7243   -1.8549    0.5221 H   0  0  0  0  0  0  0  0  0  0  0  0
    2.1030    0.1885    1.7400 H   0  0  0  0  0  0  0  0  0  0  0  0
    3.2514    0.5819    0.4743 H   0  0  0  0  0  0  0  0  0  0  0  0
    1.3611    2.2304    0.5855 H   0  0  0  0  0  0  0  0  0  0  0  0
    1.4198    1.4194   -0.9737 H   0  0  0  0  0  0  0  0  0  0  0  0
   -0.3675    0.6209    1.3539 H   0  0  0  0  0  0  0  0  0  0  0  0
   -1.5992    2.4249    0.2862 H   0  0  0  0  0  0  0  0  0  0  0  0
   -1.0595    1.9116   -1.3055 H   0  0  0  0  0  0  0  0  0  0  0  0
   -3.2666    0.7244    0.3399 H   0  0  0  0  0  0  0  0  0  0  0  0
   -3.0030    0.6112   -1.3853 H   0  0  0  0  0  0  0  0  0  0  0  0
   -2.2549   -1.6039   -0.9288 H   0  0  0  0  0  0  0  0  0  0  0  0
   -2.0796   -1.2429    0.7821 H   0  0  0  0  0  0  0  0  0  0  0  0
   -0.1432   -0.5121   -1.4391 H   0  0  0  0  0  0  0  0  0  0  0  0
    0.4720   -2.6209   -0.2799 H   0  0  0  0  0  0  0  0  0  0  0  0
    0.3601   -1.7986    1.2704 H   0  0  0  0  0  0  0  0  0  0  0  0
  1  2  1  0
  1  9  1  0
  1 10  1  0
  1 11  1  0
  2  3  1  0
  2 12  1  0
  2 13  1  0
  3  4  1  0
  3 14  1  0
  3 15  1  0
  4  5  1  0
  4  8  1  0
  4 16  1  0
  5  6  1  0
  5 17  1  0
  5 18  1  0
  6  7  1  0
  6 19  1  0
  6 20  1  0
  7  8  1  0
  7 21  1  0
  7 22  1  0
  8  9  1  0
  8 23  1  0
  9 24  1  0
  9 25  1  0
M  END
>  <reaction>  (3) 
rxn_745

>  <mol_properties>  (3) 
{"0": {"label": "a_hydrogen", "atom_type": "H0"}, "1": {"label": "acceptor", "atom_type": "Cs"}}

>  <type>  (3) 
r2h

$$$$

     RDKit          3D

 37 37  0  0  0  0  0  0  0  0999 V2000
   -0.6840   -2.8473    0.3198 C   0  0  0  0  0  0  0  0  0  0  0  0
    0.5037   -2.2806    0.1258 C   0  0  0  0  0  0  0  0  0  0  0  0
    1.2609   -1.5375    1.1410 C   0  0  0  0  0  0  0  0  0  0  0  0
    2.7289   -1.6833    1.1850 C   0  0  0  0  0  0  0  0  0  0  0  0
    3.4873   -2.4200    0.3781 C   0  0  0  0  0  0  0  0  0  0  0  0
   -1.2128   -3.3421   -0.4846 H   0  0  0  0  0  0  0  0  0  0  0  0
   -1.1632   -2.8379    1.2929 H   0  0  0  0  0  0  0  0  0  0  0  0
    0.9407   -2.3176   -0.8689 H   0  0  0  0  0  0  0  0  0  0  0  0
    1.1017   -0.2912    0.8833 H   0  0  0  0  0  0  0  0  0  0  0  0
    0.8076   -1.5900    2.1325 H   0  0  0  0  0  0  0  0  0  0  0  0
    3.2205   -1.0907    1.9524 H   0  0  0  0  0  0  0  0  0  0  0  0
    3.0659   -3.0510   -0.3951 H   0  0  0  0  0  0  0  0  0  0  0  0
    4.5647   -2.4254    0.4802 H   0  0  0  0  0  0  0  0  0  0  0  0
    1.0647    1.1150    0.5595 C   0  0  0  0  0  3  0  0  0  0  0  0
    1.7584    1.1951   -0.7906 C   0  0  0  0  0  0  0  0  0  0  0  0
    0.6308    1.4882   -1.8058 C   0  0  0  0  0  0  0  0  0  0  0  0
   -0.6315    1.0171   -1.0922 C   0  0  2  0  0  0  0  0  0  0  0  0
   -1.9866    1.4878   -1.5871 C   0  0  0  0  0  0  0  0  0  0  0  0
   -3.0801    0.9646   -0.6502 C   0  0  0  0  0  0  0  0  0  0  0  0
   -2.8276    1.3408    0.8123 C   0  0  0  0  0  0  0  0  0  0  0  0
   -1.4414    0.9048    1.2951 C   0  0  0  0  0  0  0  0  0  0  0  0
   -0.3851    1.4599    0.3518 C   0  0  1  0  0  0  0  0  0  0  0  0
    1.5766    1.5238    1.4279 H   0  0  0  0  0  0  0  0  0  0  0  0
    2.5390    1.9585   -0.8074 H   0  0  0  0  0  0  0  0  0  0  0  0
    2.2573    0.2474   -1.0230 H   0  0  0  0  0  0  0  0  0  0  0  0
    0.7904    0.9978   -2.7669 H   0  0  0  0  0  0  0  0  0  0  0  0
    0.5627    2.5643   -1.9938 H   0  0  0  0  0  0  0  0  0  0  0  0
   -0.6346   -0.0805   -1.0939 H   0  0  0  0  0  0  0  0  0  0  0  0
   -2.0065    2.5841   -1.6063 H   0  0  0  0  0  0  0  0  0  0  0  0
   -2.1718    1.1484   -2.6096 H   0  0  0  0  0  0  0  0  0  0  0  0
   -3.1187   -0.1271   -0.7334 H   0  0  0  0  0  0  0  0  0  0  0  0
   -4.0577    1.3375   -0.9643 H   0  0  0  0  0  0  0  0  0  0  0  0
   -2.9142    2.4278    0.9211 H   0  0  0  0  0  0  0  0  0  0  0  0
   -3.6019    0.9018    1.4455 H   0  0  0  0  0  0  0  0  0  0  0  0
   -1.2716    1.2442    2.3203 H   0  0  0  0  0  0  0  0  0  0  0  0
   -1.3801   -0.1879    1.3001 H   0  0  0  0  0  0  0  0  0  0  0  0
   -0.4723    2.5605    0.3719 H   0  0  0  0  0  0  0  0  0  0  0  0
  1  2  2  3
  1  6  1  0
  1  7  1  0
  2  3  1  0
  2  8  1  0
  3  4  1  0
  3  9  1  0
  3 10  1  0
  4  5  2  3
  4 11  1  0
  5 12  1  0
  5 13  1  0
 14 15  1  0
 14 22  1  0
 14 23  1  0
 15 16  1  0
 15 24  1  0
 15 25  1  0
 16 17  1  0
 16 26  1  0
 16 27  1  0
 17 18  1  0
 17 22  1  0
 17 28  1  1
 18 19  1  0
 18 29  1  0
 18 30  1  0
 19 20  1  0
 19 31  1  0
 19 32  1  0
 20 21  1  0
 20 33  1  0
 20 34  1  0
 21 22  1  0
 21 35  1  0
 21 36  1  0
 22 37  1  6
M  RAD  1  14   2
M  END
>  <reaction>  (4) 
rxn_745

>  <mol_properties>  (4) 
{"1": {"label": "*0", "atom_type": "Cd"}, "2": {"label": "*1", "atom_type": "Cs"}, "8": {"label": "*2", "atom_type": "H0"}, "13": {"label": "*3", "atom_type": "Cs"}, "21": {"label": "*4", "atom_type": "Cs"}}

>  <type>  (4) 
ts

$$$$

     RDKit          3D

 37 37  0  0  0  0  0  0  0  0999 V2000
    1.1310   -2.9298   -1.0462 C   0  0  0  0  0  0  0  0  0  0  0  0
    1.1310   -2.9298    0.2770 C   0  0  0  0  0  0  0  0  0  0  0  0
    1.1310   -1.7040    1.1350 C   0  0  0  0  0  3  0  0  0  0  0  0
    2.3407   -1.5497    2.0162 C   0  0  0  0  0  0  0  0  0  0  0  0
    3.4518   -2.2654    1.9438 C   0  0  0  0  0  0  0  0  0  0  0  0
    1.1228   -3.8526   -1.6127 H   0  0  0  0  0  0  0  0  0  0  0  0
    1.1373   -2.0044   -1.6122 H   0  0  0  0  0  0  0  0  0  0  0  0
    1.1335   -3.8786    0.8076 H   0  0  0  0  0  0  0  0  0  0  0  0
    1.0109   -0.6321    0.3845 H   0  0  0  0  0  0  0  0  0  0  0  0
    0.2430   -1.7175    1.7778 H   0  0  0  0  0  0  0  0  0  0  0  0
    2.2680   -0.7646    2.7640 H   0  0  0  0  0  0  0  0  0  0  0  0
    3.5773   -3.0522    1.2089 H   0  0  0  0  0  0  0  0  0  0  0  0
    4.2800   -2.0811    2.6161 H   0  0  0  0  0  0  0  0  0  0  0  0
    0.8909    0.4388   -0.3653 C   0  0  0  0  0  0  0  0  0  0  0  0
    1.1670    0.8931   -1.8204 C   0  0  0  0  0  0  0  0  0  0  0  0
   -0.1257    1.5989   -2.3006 C   0  0  0  0  0  0  0  0  0  0  0  0
   -1.1762    1.2149   -1.2634 C   0  0  0  0  0  0  0  0  0  0  0  0
   -2.4224    2.0729   -1.1355 C   0  0  0  0  0  0  0  0  0  0  0  0
   -3.2727    1.5796    0.0386 C   0  0  0  0  0  0  0  0  0  0  0  0
   -2.4749    1.5023    1.3426 C   0  0  0  0  0  0  0  0  0  0  0  0
   -1.1991    0.6682    1.1956 C   0  0  0  0  0  0  0  0  0  0  0  0
   -0.3725    1.1938    0.0354 C   0  0  0  0  0  0  0  0  0  0  0  0
    1.7317    0.6312    0.3025 H   0  0  0  0  0  0  0  0  0  0  0  0
    2.0203    1.5704   -1.8677 H   0  0  0  0  0  0  0  0  0  0  0  0
    1.4103    0.0400   -2.4545 H   0  0  0  0  0  0  0  0  0  0  0  0
   -0.4070    1.3168   -3.3161 H   0  0  0  0  0  0  0  0  0  0  0  0
    0.0075    2.6847   -2.2937 H   0  0  0  0  0  0  0  0  0  0  0  0
   -1.4945    0.1810   -1.4616 H   0  0  0  0  0  0  0  0  0  0  0  0
   -2.1251    3.1144   -0.9645 H   0  0  0  0  0  0  0  0  0  0  0  0
   -3.0073    2.0580   -2.0590 H   0  0  0  0  0  0  0  0  0  0  0  0
   -3.6600    0.5831   -0.2013 H   0  0  0  0  0  0  0  0  0  0  0  0
   -4.1423    2.2269    0.1740 H   0  0  0  0  0  0  0  0  0  0  0  0
   -2.1986    2.5166    1.6515 H   0  0  0  0  0  0  0  0  0  0  0  0
   -3.1032    1.0952    2.1380 H   0  0  0  0  0  0  0  0  0  0  0  0
   -0.6264    0.6850    2.1267 H   0  0  0  0  0  0  0  0  0  0  0  0
   -1.4623   -0.3788    1.0033 H   0  0  0  0  0  0  0  0  0  0  0  0
   -0.0958    2.2344    0.2594 H   0  0  0  0  0  0  0  0  0  0  0  0
  1  2  2  3
  1  6  1  0
  1  7  1  0
  2  3  1  0
  2  8  1  0
  3  4  1  0
  3 10  1  0
  4  5  2  3
  4 11  1  0
  5 12  1  0
  5 13  1  0
  9 14  1  0
 14 15  1  0
 14 22  1  0
 14 23  1  0
 15 16  1  0
 15 24  1  0
 15 25  1  0
 16 17  1  0
 16 26  1  0
 16 27  1  0
 17 18  1  0
 17 22  1  0
 17 28  1  0
 18 19  1  0
 18 29  1  0
 18 30  1  0
 19 20  1  0
 19 31  1  0
 19 32  1  0
 20 21  1  0
 20 33  1  0
 20 34  1  0
 21 22  1  0
 21 35  1  0
 21 36  1  0
 22 37  1  0
M  RAD  1   3   2
M  END
>  <reaction>  (5) 
rxn_745

>  <mol_properties>  (5) 
{"1": {"label": "*0", "atom_type": "Cd"}, "2": {"label": "*1", "atom_type": "Cs"}, "8": {"label": "*2", "atom_type": "H0"}, "13": {"label": "*3", "atom_type": "Cs"}, "21": {"label": "*4", "atom_type": "Cs"}}

>  <type>  (5) 
unop_1

>  <geom_source>  (5) 
Heuristics

$$$$

     RDKit          3D

 37 37  0  0  0  0  0  0  0  0999 V2000
    0.1835   -2.0247    0.1364 C   0  0  0  0  0  0  0  0  0  0  0  0
    0.1835   -2.0247    1.4596 C   0  0  0  0  0  0  0  0  0  0  0  0
    0.1835   -0.7989    2.3176 C   0  0  0  0  0  3  0  0  0  0  0  0
    1.3932   -0.6445    3.1988 C   0  0  0  0  0  0  0  0  0  0  0  0
    2.5044   -1.3602    3.1264 C   0  0  0  0  0  0  0  0  0  0  0  0
    0.1753   -2.9474   -0.4302 H   0  0  0  0  0  0  0  0  0  0  0  0
    0.1899   -1.0992   -0.4296 H   0  0  0  0  0  0  0  0  0  0  0  0
    0.1861   -2.9734    1.9901 H   0  0  0  0  0  0  0  0  0  0  0  0
    0.0634    0.2731    1.5671 H   0  0  0  0  0  0  0  0  0  0  0  0
   -0.7045   -0.8123    2.9604 H   0  0  0  0  0  0  0  0  0  0  0  0
    1.3205    0.1405    3.9465 H   0  0  0  0  0  0  0  0  0  0  0  0
    2.6299   -2.1470    2.3915 H   0  0  0  0  0  0  0  0  0  0  0  0
    3.3326   -1.1759    3.7987 H   0  0  0  0  0  0  0  0  0  0  0  0
   -0.0565    1.3440    0.8173 C   0  0  0  0  0  0  0  0  0  0  0  0
    1.1183    2.2065    0.2919 C   0  0  0  0  0  0  0  0  0  0  0  0
    1.1330    2.0179   -1.2456 C   0  0  0  0  0  0  0  0  0  0  0  0
    0.2259    0.8161   -1.4900 C   0  0  0  0  0  0  0  0  0  0  0  0
   -0.3686    0.6205   -2.8734 C   0  0  0  0  0  0  0  0  0  0  0  0
   -1.3350   -0.5673   -2.8587 C   0  0  0  0  0  0  0  0  0  0  0  0
   -2.4044   -0.4338   -1.7718 C   0  0  0  0  0  0  0  0  0  0  0  0
   -1.7986   -0.1973   -0.3853 C   0  0  0  0  0  0  0  0  0  0  0  0
   -0.8605    0.9957   -0.4314 C   0  0  0  0  0  0  0  0  0  0  0  0
   -0.6491    1.8571    1.5758 H   0  0  0  0  0  0  0  0  0  0  0  0
    0.9854    3.2566    0.5536 H   0  0  0  0  0  0  0  0  0  0  0  0
    2.0620    1.8908    0.7377 H   0  0  0  0  0  0  0  0  0  0  0  0
    2.1393    1.8795   -1.6432 H   0  0  0  0  0  0  0  0  0  0  0  0
    0.7092    2.8960   -1.7417 H   0  0  0  0  0  0  0  0  0  0  0  0
    0.7831   -0.0952   -1.2278 H   0  0  0  0  0  0  0  0  0  0  0  0
   -0.9063    1.5307   -3.1648 H   0  0  0  0  0  0  0  0  0  0  0  0
    0.4142    0.4624   -3.6198 H   0  0  0  0  0  0  0  0  0  0  0  0
   -0.7623   -1.4849   -2.6838 H   0  0  0  0  0  0  0  0  0  0  0  0
   -1.8112   -0.6793   -3.8355 H   0  0  0  0  0  0  0  0  0  0  0  0
   -3.0592    0.4094   -2.0183 H   0  0  0  0  0  0  0  0  0  0  0  0
   -3.0358   -1.3252   -1.7614 H   0  0  0  0  0  0  0  0  0  0  0  0
   -2.5906   -0.0474    0.3532 H   0  0  0  0  0  0  0  0  0  0  0  0
   -1.2357   -1.0846   -0.0719 H   0  0  0  0  0  0  0  0  0  0  0  0
   -1.4484    1.8791   -0.7204 H   0  0  0  0  0  0  0  0  0  0  0  0
  1  2  2  3
  1  6  1  0
  1  7  1  0
  2  3  1  0
  2  8  1  0
  3  4  1  0
  3 10  1  0
  4  5  2  3
  4 11  1  0
  5 12  1  0
  5 13  1  0
  9 14  1  0
 14 15  1  0
 14 22  1  0
 14 23  1  0
 15 16  1  0
 15 24  1  0
 15 25  1  0
 16 17  1  0
 16 26  1  0
 16 27  1  0
 17 18  1  0
 17 22  1  0
 17 28  1  0
 18 19  1  0
 18 29  1  0
 18 30  1  0
 19 20  1  0
 19 31  1  0
 19 32  1  0
 20 21  1  0
 20 33  1  0
 20 34  1  0
 21 22  1  0
 21 35  1  0
 21 36  1  0
 22 37  1  0
M  RAD  1   3   2
M  END
>  <reaction>  (6) 
rxn_745

>  <mol_properties>  (6) 
{"1": {"label": "*0", "atom_type": "Cd"}, "2": {"label": "*1", "atom_type": "Cs"}, "8": {"label": "*2", "atom_type": "H0"}, "13": {"label": "*3", "atom_type": "Cs"}, "21": {"label": "*4", "atom_type": "Cs"}}

>  <type>  (6) 
unop_2

>  <geom_source>  (6) 
Heuristics

$$$$

     RDKit          3D

 37 37  0  0  0  0  0  0  0  0999 V2000
    0.8805   -3.2098   -1.5451 C   0  0  0  0  0  0  0  0  0  0  0  0
    0.8805   -3.2098   -0.2219 C   0  0  0  0  0  0  0  0  0  0  0  0
    0.8805   -1.9840    0.6361 C   0  0  0  0  0  3  0  0  0  0  0  0
    2.0902   -1.8296    1.5174 C   0  0  0  0  0  0  0  0  0  0  0  0
    3.2014   -2.5453    1.4449 C   0  0  0  0  0  0  0  0  0  0  0  0
    0.8723   -4.1325   -2.1116 H   0  0  0  0  0  0  0  0  0  0  0  0
    0.8869   -2.2843   -2.1111 H   0  0  0  0  0  0  0  0  0  0  0  0
    0.8831   -4.1585    0.3087 H   0  0  0  0  0  0  0  0  0  0  0  0
    0.7604   -0.9120   -0.1144 H   0  0  0  0  0  0  0  0  0  0  0  0
   -0.0075   -1.9974    1.2789 H   0  0  0  0  0  0  0  0  0  0  0  0
    2.0175   -1.0446    2.2651 H   0  0  0  0  0  0  0  0  0  0  0  0
    3.3269   -3.3322    0.7100 H   0  0  0  0  0  0  0  0  0  0  0  0
    4.0296   -2.3610    2.1173 H   0  0  0  0  0  0  0  0  0  0  0  0
    0.6405    0.1589   -0.8642 C   0  0  0  0  0  0  0  0  0  0  0  0
    0.1660    0.3627   -2.3248 C   0  0  0  0  0  0  0  0  0  0  0  0
   -1.0563    1.3115   -2.2488 C   0  0  0  0  0  0  0  0  0  0  0  0
   -1.4378    1.3225   -0.7719 C   0  0  0  0  0  0  0  0  0  0  0  0
   -2.2741    2.4744   -0.2434 C   0  0  0  0  0  0  0  0  0  0  0  0
   -2.4330    2.3455    1.2742 C   0  0  0  0  0  0  0  0  0  0  0  0
   -1.0868    2.2177    1.9913 C   0  0  0  0  0  0  0  0  0  0  0  0
   -0.2324    1.0792    1.4267 C   0  0  0  0  0  0  0  0  0  0  0  0
   -0.0808    1.2468   -0.0748 C   0  0  0  0  0  0  0  0  0  0  0  0
    1.7255    0.2081   -0.7633 H   0  0  0  0  0  0  0  0  0  0  0  0
    0.9558    0.7946   -2.9401 H   0  0  0  0  0  0  0  0  0  0  0  0
   -0.1012   -0.5898   -2.7833 H   0  0  0  0  0  0  0  0  0  0  0  0
   -1.8746    0.9966   -2.8976 H   0  0  0  0  0  0  0  0  0  0  0  0
   -0.7736    2.3229   -2.5555 H   0  0  0  0  0  0  0  0  0  0  0  0
   -1.9683    0.3859   -0.5460 H   0  0  0  0  0  0  0  0  0  0  0  0
   -1.7743    3.4204   -0.4835 H   0  0  0  0  0  0  0  0  0  0  0  0
   -3.2548    2.5029   -0.7256 H   0  0  0  0  0  0  0  0  0  0  0  0
   -3.0373    1.4575    1.4907 H   0  0  0  0  0  0  0  0  0  0  0  0
   -2.9844    3.2012    1.6707 H   0  0  0  0  0  0  0  0  0  0  0  0
   -0.5354    3.1584    1.8836 H   0  0  0  0  0  0  0  0  0  0  0  0
   -1.2493    2.0733    3.0619 H   0  0  0  0  0  0  0  0  0  0  0  0
    0.7424    1.0565    1.9209 H   0  0  0  0  0  0  0  0  0  0  0  0
   -0.7159    0.1169    1.6333 H   0  0  0  0  0  0  0  0  0  0  0  0
    0.4299    2.2031   -0.2600 H   0  0  0  0  0  0  0  0  0  0  0  0
  1  2  2  3
  1  6  1  0
  1  7  1  0
  2  3  1  0
  2  8  1  0
  3  4  1  0
  3 10  1  0
  4  5  2  3
  4 11  1  0
  5 12  1  0
  5 13  1  0
  9 14  1  0
 14 15  1  0
 14 22  1  0
 14 23  1  0
 15 16  1  0
 15 24  1  0
 15 25  1  0
 16 17  1  0
 16 26  1  0
 16 27  1  0
 17 18  1  0
 17 22  1  0
 17 28  1  0
 18 19  1  0
 18 29  1  0
 18 30  1  0
 19 20  1  0
 19 31  1  0
 19 32  1  0
 20 21  1  0
 20 33  1  0
 20 34  1  0
 21 22  1  0
 21 35  1  0
 21 36  1  0
 22 37  1  0
M  RAD  1   3   2
M  END
>  <reaction>  (7) 
rxn_745

>  <mol_properties>  (7) 
{"1": {"label": "*0", "atom_type": "Cd"}, "2": {"label": "*1", "atom_type": "Cs"}, "8": {"label": "*2", "atom_type": "H0"}, "13": {"label": "*3", "atom_type": "Cs"}, "21": {"label": "*4", "atom_type": "Cs"}}

>  <type>  (7) 
unop_3

>  <geom_source>  (7) 
Heuristics

$$$$

     RDKit          3D

 37 37  0  0  0  0  0  0  0  0999 V2000
   -1.3466   -2.3346   -0.6420 C   0  0  0  0  0  0  0  0  0  0  0  0
   -1.3466   -2.3346    0.6812 C   0  0  0  0  0  0  0  0  0  0  0  0
   -1.3466   -1.1088    1.5392 C   0  0  0  0  0  3  0  0  0  0  0  0
   -0.1369   -0.9544    2.4204 C   0  0  0  0  0  0  0  0  0  0  0  0
    0.9742   -1.6701    2.3480 C   0  0  0  0  0  0  0  0  0  0  0  0
   -1.3548   -3.2573   -1.2086 H   0  0  0  0  0  0  0  0  0  0  0  0
   -1.3403   -1.4091   -1.2080 H   0  0  0  0  0  0  0  0  0  0  0  0
   -1.3441   -3.2833    1.2118 H   0  0  0  0  0  0  0  0  0  0  0  0
   -1.4667   -0.0368    0.7887 H   0  0  0  0  0  0  0  0  0  0  0  0
   -2.2346   -1.1222    2.1820 H   0  0  0  0  0  0  0  0  0  0  0  0
   -0.2096   -0.1694    3.1682 H   0  0  0  0  0  0  0  0  0  0  0  0
    1.0997   -2.4569    1.6131 H   0  0  0  0  0  0  0  0  0  0  0  0
    1.8024   -1.4858    3.0203 H   0  0  0  0  0  0  0  0  0  0  0  0
   -1.5867    1.0341    0.0389 C   0  0  0  0  0  0  0  0  0  0  0  0
   -1.0611    1.7269    1.3210 C   0  0  0  0  0  0  0  0  0  0  0  0
    0.4746    1.8358    1.1493 C   0  0  0  0  0  0  0  0  0  0  0  0
    0.7930    0.9098   -0.0204 C   0  0  0  0  0  0  0  0  0  0  0  0
    2.0986    1.1051   -0.7705 C   0  0  0  0  0  0  0  0  0  0  0  0
    2.1538    0.1551   -1.9703 C   0  0  0  0  0  0  0  0  0  0  0  0
    0.9279    0.2910   -2.8767 C   0  0  0  0  0  0  0  0  0  0  0  0
   -0.3860    0.1323   -2.1064 C   0  0  0  0  0  0  0  0  0  0  0  0
   -0.4150    1.0989   -0.9358 C   0  0  0  0  0  0  0  0  0  0  0  0
   -2.4916    1.5017   -0.3515 H   0  0  0  0  0  0  0  0  0  0  0  0
   -1.5089    2.7128    1.4492 H   0  0  0  0  0  0  0  0  0  0  0  0
   -1.3194    1.1490    2.2089 H   0  0  0  0  0  0  0  0  0  0  0  0
    1.0193    1.5765    2.0581 H   0  0  0  0  0  0  0  0  0  0  0  0
    0.7573    2.8593    0.8859 H   0  0  0  0  0  0  0  0  0  0  0  0
    0.7620   -0.1277    0.3431 H   0  0  0  0  0  0  0  0  0  0  0  0
    2.1610    2.1432   -1.1181 H   0  0  0  0  0  0  0  0  0  0  0  0
    2.9580    0.9381   -0.1157 H   0  0  0  0  0  0  0  0  0  0  0  0
    2.2111   -0.8750   -1.6013 H   0  0  0  0  0  0  0  0  0  0  0  0
    3.0638    0.3293   -2.5490 H   0  0  0  0  0  0  0  0  0  0  0  0
    0.9420    1.2799   -3.3486 H   0  0  0  0  0  0  0  0  0  0  0  0
    0.9824   -0.4406   -3.6861 H   0  0  0  0  0  0  0  0  0  0  0  0
   -1.2374    0.2947   -2.7726 H   0  0  0  0  0  0  0  0  0  0  0  0
   -0.4704   -0.8931   -1.7271 H   0  0  0  0  0  0  0  0  0  0  0  0
   -0.3573    2.1210   -1.3377 H   0  0  0  0  0  0  0  0  0  0  0  0
  1  2  2  3
  1  6  1  0
  1  7  1  0
  2  3  1  0
  2  8  1  0
  3  4  1  0
  3 10  1  0
  4  5  2  3
  4 11  1  0
  5 12  1  0
  5 13  1  0
  9 14  1  0
 14 15  1  0
 14 22  1  0
 14 23  1  0
 15 16  1  0
 15 24  1  0
 15 25  1  0
 16 17  1  0
 16 26  1  0
 16 27  1  0
 17 18  1  0
 17 22  1  0
 17 28  1  0
 18 19  1  0
 18 29  1  0
 18 30  1  0
 19 20  1  0
 19 31  1  0
 19 32  1  0
 20 21  1  0
 20 33  1  0
 20 34  1  0
 21 22  1  0
 21 35  1  0
 21 36  1  0
 22 37  1  0
M  RAD  1   3   2
M  END
>  <reaction>  (8) 
rxn_745

>  <mol_properties>  (8) 
{"1": {"label": "*0", "atom_type": "Cd"}, "2": {"label": "*1", "atom_type": "Cs"}, "8": {"label": "*2", "atom_type": "H0"}, "13": {"label": "*3", "atom_type": "Cs"}, "21": {"label": "*4", "atom_type": "Cs"}}

>  <type>  (8) 
unop_4

>  <geom_source>  (8) 
Heuristics

$$$$

     RDKit          3D

 37 37  0  0  0  0  0  0  0  0999 V2000
    0.3217   -3.3306   -1.9849 C   0  0  0  0  0  0  0  0  0  0  0  0
    0.3217   -3.3306   -0.6617 C   0  0  0  0  0  0  0  0  0  0  0  0
    0.3217   -2.1048    0.1963 C   0  0  0  0  0  3  0  0  0  0  0  0
    1.5314   -1.9504    1.0775 C   0  0  0  0  0  0  0  0  0  0  0  0
    2.6426   -2.6661    1.0051 C   0  0  0  0  0  0  0  0  0  0  0  0
    0.3135   -4.2533   -2.5515 H   0  0  0  0  0  0  0  0  0  0  0  0
    0.3280   -2.4051   -2.5509 H   0  0  0  0  0  0  0  0  0  0  0  0
    0.3243   -4.2793   -0.1312 H   0  0  0  0  0  0  0  0  0  0  0  0
    0.2016   -1.0328   -0.5542 H   0  0  0  0  0  0  0  0  0  0  0  0
   -0.5663   -2.1183    0.8391 H   0  0  0  0  0  0  0  0  0  0  0  0
    1.4587   -1.1654    1.8252 H   0  0  0  0  0  0  0  0  0  0  0  0
    2.7680   -3.4530    0.2702 H   0  0  0  0  0  0  0  0  0  0  0  0
    3.4708   -2.4818    1.6774 H   0  0  0  0  0  0  0  0  0  0  0  0
    0.0817    0.0381   -1.3040 C   0  0  0  0  0  0  0  0  0  0  0  0
   -1.3046    0.0610   -1.9951 C   0  0  0  0  0  0  0  0  0  0  0  0
   -2.1544    1.0948   -1.2147 C   0  0  0  0  0  0  0  0  0  0  0  0
   -1.3648    1.3468    0.0659 C   0  0  0  0  0  0  0  0  0  0  0  0
   -1.6332    2.6194    0.8495 C   0  0  0  0  0  0  0  0  0  0  0  0
   -0.6517    2.7235    2.0203 C   0  0  0  0  0  0  0  0  0  0  0  0
    0.8062    2.6061    1.5694 C   0  0  0  0  0  0  0  0  0  0  0  0
    1.0607    1.3402    0.7461 C   0  0  0  0  0  0  0  0  0  0  0  0
    0.0835    1.2772   -0.4143 C   0  0  0  0  0  0  0  0  0  0  0  0
    0.9072    0.0246   -2.0168 H   0  0  0  0  0  0  0  0  0  0  0  0
   -1.2180    0.3421   -3.0451 H   0  0  0  0  0  0  0  0  0  0  0  0
   -1.7662   -0.9267   -1.9736 H   0  0  0  0  0  0  0  0  0  0  0  0
   -3.1713    0.7479   -1.0267 H   0  0  0  0  0  0  0  0  0  0  0  0
   -2.2325    2.0285   -1.7795 H   0  0  0  0  0  0  0  0  0  0  0  0
   -1.5214    0.4928    0.7410 H   0  0  0  0  0  0  0  0  0  0  0  0
   -1.5088    3.4829    0.1852 H   0  0  0  0  0  0  0  0  0  0  0  0
   -2.6631    2.6470    1.2153 H   0  0  0  0  0  0  0  0  0  0  0  0
   -0.8691    1.9213    2.7343 H   0  0  0  0  0  0  0  0  0  0  0  0
   -0.7997    3.6644    2.5552 H   0  0  0  0  0  0  0  0  0  0  0  0
    1.0616    3.4799    0.9595 H   0  0  0  0  0  0  0  0  0  0  0  0
    1.4665    2.6304    2.4394 H   0  0  0  0  0  0  0  0  0  0  0  0
    2.0947    1.3205    0.3918 H   0  0  0  0  0  0  0  0  0  0  0  0
    0.9245    0.4547    1.3784 H   0  0  0  0  0  0  0  0  0  0  0  0
    0.2542    2.1580   -1.0505 H   0  0  0  0  0  0  0  0  0  0  0  0
  1  2  2  3
  1  6  1  0
  1  7  1  0
  2  3  1  0
  2  8  1  0
  3  4  1  0
  3 10  1  0
  4  5  2  3
  4 11  1  0
  5 12  1  0
  5 13  1  0
  9 14  1  0
 14 15  1  0
 14 22  1  0
 14 23  1  0
 15 16  1  0
 15 24  1  0
 15 25  1  0
 16 17  1  0
 16 26  1  0
 16 27  1  0
 17 18  1  0
 17 22  1  0
 17 28  1  0
 18 19  1  0
 18 29  1  0
 18 30  1  0
 19 20  1  0
 19 31  1  0
 19 32  1  0
 20 21  1  0
 20 33  1  0
 20 34  1  0
 21 22  1  0
 21 35  1  0
 21 36  1  0
 22 37  1  0
M  RAD  1   3   2
M  END
>  <reaction>  (9) 
rxn_745

>  <mol_properties>  (9) 
{"1": {"label": "*0", "atom_type": "Cd"}, "2": {"label": "*1", "atom_type": "Cs"}, "8": {"label": "*2", "atom_type": "H0"}, "13": {"label": "*3", "atom_type": "Cs"}, "21": {"label": "*4", "atom_type": "Cs"}}

>  <type>  (9) 
unop_5

>  <geom_source>  (9) 
Heuristics

$$$$

     RDKit          3D

 37 37  0  0  0  0  0  0  0  0999 V2000
   -1.4043   -2.6808   -1.1864 C   0  0  0  0  0  0  0  0  0  0  0  0
   -1.4043   -2.6808    0.1369 C   0  0  0  0  0  0  0  0  0  0  0  0
   -1.4043   -1.4550    0.9949 C   0  0  0  0  0  3  0  0  0  0  0  0
   -0.1946   -1.3006    1.8761 C   0  0  0  0  0  0  0  0  0  0  0  0
    0.9166   -2.0163    1.8036 C   0  0  0  0  0  0  0  0  0  0  0  0
   -1.4125   -3.6035   -1.7529 H   0  0  0  0  0  0  0  0  0  0  0  0
   -1.3979   -1.7553   -1.7524 H   0  0  0  0  0  0  0  0  0  0  0  0
   -1.4017   -3.6295    0.6674 H   0  0  0  0  0  0  0  0  0  0  0  0
   -1.5244   -0.3830    0.2443 H   0  0  0  0  0  0  0  0  0  0  0  0
   -2.2923   -1.4685    1.6376 H   0  0  0  0  0  0  0  0  0  0  0  0
   -0.2673   -0.5156    2.6238 H   0  0  0  0  0  0  0  0  0  0  0  0
    1.0420   -2.8032    1.0688 H   0  0  0  0  0  0  0  0  0  0  0  0
    1.7448   -1.8320    2.4760 H   0  0  0  0  0  0  0  0  0  0  0  0
   -1.6443    0.6879   -0.5055 C   0  0  0  0  0  0  0  0  0  0  0  0
   -1.8304    1.2011    0.9443 C   0  0  0  0  0  0  0  0  0  0  0  0
   -0.4260    1.6456    1.4241 C   0  0  0  0  0  0  0  0  0  0  0  0
    0.5321    1.0543    0.3949 C   0  0  0  0  0  0  0  0  0  0  0  0
    1.9221    1.6514    0.2651 C   0  0  0  0  0  0  0  0  0  0  0  0
    2.6629    0.9907   -0.9009 C   0  0  0  0  0  0  0  0  0  0  0  0
    1.8688    1.0581   -2.2076 C   0  0  0  0  0  0  0  0  0  0  0  0
    0.4544    0.4903   -2.0590 C   0  0  0  0  0  0  0  0  0  0  0  0
   -0.2568    1.1781   -0.9071 C   0  0  0  0  0  0  0  0  0  0  0  0
   -2.4296    1.0343   -1.1787 H   0  0  0  0  0  0  0  0  0  0  0  0
   -2.5352    2.0322    0.9819 H   0  0  0  0  0  0  0  0  0  0  0  0
   -2.2371    0.4179    1.5848 H   0  0  0  0  0  0  0  0  0  0  0  0
   -0.2079    1.3237    2.4432 H   0  0  0  0  0  0  0  0  0  0  0  0
   -0.3448    2.7365    1.4070 H   0  0  0  0  0  0  0  0  0  0  0  0
    0.6420   -0.0199    0.6037 H   0  0  0  0  0  0  0  0  0  0  0  0
    1.8341    2.7293    0.0836 H   0  0  0  0  0  0  0  0  0  0  0  0
    2.4904    1.5315    1.1913 H   0  0  0  0  0  0  0  0  0  0  0  0
    2.8477   -0.0599   -0.6505 H   0  0  0  0  0  0  0  0  0  0  0  0
    3.6424    1.4546   -1.0380 H   0  0  0  0  0  0  0  0  0  0  0  0
    1.7965    2.1038   -2.5267 H   0  0  0  0  0  0  0  0  0  0  0  0
    2.4077    0.5287   -2.9967 H   0  0  0  0  0  0  0  0  0  0  0  0
   -0.1015    0.6097   -2.9928 H   0  0  0  0  0  0  0  0  0  0  0  0
    0.5077   -0.5860   -1.8564 H   0  0  0  0  0  0  0  0  0  0  0  0
   -0.3246    2.2505   -1.1416 H   0  0  0  0  0  0  0  0  0  0  0  0
  1  2  2  3
  1  6  1  0
  1  7  1  0
  2  3  1  0
  2  8  1  0
  3  4  1  0
  3 10  1  0
  4  5  2  3
  4 11  1  0
  5 12  1  0
  5 13  1  0
  9 14  1  0
 14 15  1  0
 14 22  1  0
 14 23  1  0
 15 16  1  0
 15 24  1  0
 15 25  1  0
 16 17  1  0
 16 26  1  0
 16 27  1  0
 17 18  1  0
 17 22  1  0
 17 28  1  0
 18 19  1  0
 18 29  1  0
 18 30  1  0
 19 20  1  0
 19 31  1  0
 19 32  1  0
 20 21  1  0
 20 33  1  0
 20 34  1  0
 21 22  1  0
 21 35  1  0
 21 36  1  0
 22 37  1  0
M  RAD  1   3   2
M  END
>  <reaction>  (10) 
rxn_745

>  <mol_properties>  (10) 
{"1": {"label": "*0", "atom_type": "Cd"}, "2": {"label": "*1", "atom_type": "Cs"}, "8": {"label": "*2", "atom_type": "H0"}, "13": {"label": "*3", "atom_type": "Cs"}, "21": {"label": "*4", "atom_type": "Cs"}}

>  <type>  (10) 
unop_6

>  <geom_source>  (10) 
Heuristics

$$$$

     RDKit          3D

 37 37  0  0  0  0  0  0  0  0999 V2000
   -1.1202   -3.0212   -1.7177 C   0  0  0  0  0  0  0  0  0  0  0  0
   -1.1202   -3.0212   -0.3945 C   0  0  0  0  0  0  0  0  0  0  0  0
   -1.1202   -1.7954    0.4635 C   0  0  0  0  0  3  0  0  0  0  0  0
    0.0895   -1.6410    1.3448 C   0  0  0  0  0  0  0  0  0  0  0  0
    1.2006   -2.3567    1.2723 C   0  0  0  0  0  0  0  0  0  0  0  0
   -1.1284   -3.9439   -2.2842 H   0  0  0  0  0  0  0  0  0  0  0  0
   -1.1139   -2.0957   -2.2837 H   0  0  0  0  0  0  0  0  0  0  0  0
   -1.1177   -3.9699    0.1361 H   0  0  0  0  0  0  0  0  0  0  0  0
   -1.2403   -0.7234   -0.2870 H   0  0  0  0  0  0  0  0  0  0  0  0
   -2.0082   -1.8088    1.1063 H   0  0  0  0  0  0  0  0  0  0  0  0
    0.0168   -0.8560    2.0925 H   0  0  0  0  0  0  0  0  0  0  0  0
    1.3261   -3.1435    0.5374 H   0  0  0  0  0  0  0  0  0  0  0  0
    2.0288   -2.1724    1.9447 H   0  0  0  0  0  0  0  0  0  0  0  0
   -1.3603    0.3475   -1.0368 C   0  0  0  0  0  0  0  0  0  0  0  0
   -2.2549    0.6304    0.1959 C   0  0  0  0  0  0  0  0  0  0  0  0
   -1.3611    1.3906    1.2074 C   0  0  0  0  0  0  0  0  0  0  0  0
    0.0572    1.2007    0.6792 C   0  0  0  0  0  0  0  0  0  0  0  0
    1.1380    2.1683    1.1277 C   0  0  0  0  0  0  0  0  0  0  0  0
    2.4434    1.8669    0.3860 C   0  0  0  0  0  0  0  0  0  0  0  0
    2.2592    1.8529   -1.1335 C   0  0  0  0  0  0  0  0  0  0  0  0
    1.1410    0.9046   -1.5755 C   0  0  0  0  0  0  0  0  0  0  0  0
   -0.1409    1.2415   -0.8348 C   0  0  0  0  0  0  0  0  0  0  0  0
   -1.8734    0.5343   -1.9811 H   0  0  0  0  0  0  0  0  0  0  0  0
   -3.1266    1.2259   -0.0769 H   0  0  0  0  0  0  0  0  0  0  0  0
   -2.6331   -0.2988    0.6233 H   0  0  0  0  0  0  0  0  0  0  0  0
   -1.4858    1.0336    2.2306 H   0  0  0  0  0  0  0  0  0  0  0  0
   -1.6062    2.4568    1.2068 H   0  0  0  0  0  0  0  0  0  0  0  0
    0.3862    0.1824    0.9333 H   0  0  0  0  0  0  0  0  0  0  0  0
    0.8160    3.1931    0.9074 H   0  0  0  0  0  0  0  0  0  0  0  0
    1.2946    2.1108    2.2081 H   0  0  0  0  0  0  0  0  0  0  0  0
    2.8135    0.8874    0.7086 H   0  0  0  0  0  0  0  0  0  0  0  0
    3.2105    2.5949    0.6597 H   0  0  0  0  0  0  0  0  0  0  0  0
    2.0156    2.8663   -1.4718 H   0  0  0  0  0  0  0  0  0  0  0  0
    3.1995    1.5808   -1.6184 H   0  0  0  0  0  0  0  0  0  0  0  0
    0.9984    0.9659   -2.6576 H   0  0  0  0  0  0  0  0  0  0  0  0
    1.4240   -0.1306   -1.3504 H   0  0  0  0  0  0  0  0  0  0  0  0
   -0.4225    2.2724   -1.0947 H   0  0  0  0  0  0  0  0  0  0  0  0
  1  2  2  3
  1  6  1  0
  1  7  1  0
  2  3  1  0
  2  8  1  0
  3  4  1  0
  3 10  1  0
  4  5  2  3
  4 11  1  0
  5 12  1  0
  5 13  1  0
  9 14  1  0
 14 15  1  0
 14 22  1  0
 14 23  1  0
 15 16  1  0
 15 24  1  0
 15 25  1  0
 16 17  1  0
 16 26  1  0
 16 27  1  0
 17 18  1  0
 17 22  1  0
 17 28  1  0
 18 19  1  0
 18 29  1  0
 18 30  1  0
 19 20  1  0
 19 31  1  0
 19 32  1  0
 20 21  1  0
 20 33  1  0
 20 34  1  0
 21 22  1  0
 21 35  1  0
 21 36  1  0
 22 37  1  0
M  RAD  1   3   2
M  END
>  <reaction>  (11) 
rxn_745

>  <mol_properties>  (11) 
{"1": {"label": "*0", "atom_type": "Cd"}, "2": {"label": "*1", "atom_type": "Cs"}, "8": {"label": "*2", "atom_type": "H0"}, "13": {"label": "*3", "atom_type": "Cs"}, "21": {"label": "*4", "atom_type": "Cs"}}

>  <type>  (11) 
unop_7

>  <geom_source>  (11) 
Heuristics

$$$$

     RDKit          3D

 37 37  0  0  0  0  0  0  0  0999 V2000
    1.0954   -2.5756   -0.5341 C   0  0  0  0  0  0  0  0  0  0  0  0
    1.0954   -2.5756    0.7891 C   0  0  0  0  0  0  0  0  0  0  0  0
    1.0954   -1.3498    1.6471 C   0  0  0  0  0  3  0  0  0  0  0  0
    2.3051   -1.1954    2.5283 C   0  0  0  0  0  0  0  0  0  0  0  0
    3.4162   -1.9111    2.4559 C   0  0  0  0  0  0  0  0  0  0  0  0
    1.0872   -3.4983   -1.1006 H   0  0  0  0  0  0  0  0  0  0  0  0
    1.1017   -1.6501   -1.1001 H   0  0  0  0  0  0  0  0  0  0  0  0
    1.0979   -3.5243    1.3197 H   0  0  0  0  0  0  0  0  0  0  0  0
    0.9753   -0.2778    0.8966 H   0  0  0  0  0  0  0  0  0  0  0  0
    0.2074   -1.3633    2.2899 H   0  0  0  0  0  0  0  0  0  0  0  0
    2.2324   -0.4104    3.2761 H   0  0  0  0  0  0  0  0  0  0  0  0
    3.5417   -2.6980    1.7210 H   0  0  0  0  0  0  0  0  0  0  0  0
    4.2445   -1.7268    3.1282 H   0  0  0  0  0  0  0  0  0  0  0  0
    0.8553    0.7931    0.1468 C   0  0  0  0  0  0  0  0  0  0  0  0
    1.5440    1.4612   -1.0695 C   0  0  0  0  0  0  0  0  0  0  0  0
    0.4070    1.8315   -2.0544 C   0  0  0  0  0  0  0  0  0  0  0  0
   -0.8063    1.0627   -1.5408 C   0  0  0  0  0  0  0  0  0  0  0  0
   -2.1917    1.5251   -1.9558 C   0  0  0  0  0  0  0  0  0  0  0  0
   -3.2540    0.6922   -1.2328 C   0  0  0  0  0  0  0  0  0  0  0  0
   -3.0622    0.6963    0.2858 C   0  0  0  0  0  0  0  0  0  0  0  0
   -1.6505    0.2669    0.6952 C   0  0  0  0  0  0  0  0  0  0  0  0
   -0.6240    1.1227   -0.0255 C   0  0  0  0  0  0  0  0  0  0  0  0
    1.2597    1.1359    1.1001 H   0  0  0  0  0  0  0  0  0  0  0  0
    2.1025    2.3482   -0.7693 H   0  0  0  0  0  0  0  0  0  0  0  0
    2.2613    0.7822   -1.5315 H   0  0  0  0  0  0  0  0  0  0  0  0
    0.6537    1.5949   -3.0903 H   0  0  0  0  0  0  0  0  0  0  0  0
    0.1987    2.9046   -2.0104 H   0  0  0  0  0  0  0  0  0  0  0  0
   -0.6971    0.0090   -1.8365 H   0  0  0  0  0  0  0  0  0  0  0  0
   -2.3104    2.5832   -1.6937 H   0  0  0  0  0  0  0  0  0  0  0  0
   -2.3242    1.4502   -3.0384 H   0  0  0  0  0  0  0  0  0  0  0  0
   -3.1990   -0.3402   -1.5957 H   0  0  0  0  0  0  0  0  0  0  0  0
   -4.2536    1.0563   -1.4812 H   0  0  0  0  0  0  0  0  0  0  0  0
   -3.2465    1.7077    0.6650 H   0  0  0  0  0  0  0  0  0  0  0  0
   -3.8057    0.0479    0.7551 H   0  0  0  0  0  0  0  0  0  0  0  0
   -1.5323    0.3395    1.7796 H   0  0  0  0  0  0  0  0  0  0  0  0
   -1.4921   -0.7847    0.4280 H   0  0  0  0  0  0  0  0  0  0  0  0
   -0.7815    2.1685    0.2763 H   0  0  0  0  0  0  0  0  0  0  0  0
  1  2  2  3
  1  6  1  0
  1  7  1  0
  2  3  1  0
  2  8  1  0
  3  4  1  0
  3 10  1  0
  4  5  2  3
  4 11  1  0
  5 12  1  0
  5 13  1  0
  9 14  1  0
 14 15  1  0
 14 22  1  0
 14 23  1  0
 15 16  1  0
 15 24  1  0
 15 25  1  0
 16 17  1  0
 16 26  1  0
 16 27  1  0
 17 18  1  0
 17 22  1  0
 17 28  1  0
 18 19  1  0
 18 29  1  0
 18 30  1  0
 19 20  1  0
 19 31  1  0
 19 32  1  0
 20 21  1  0
 20 33  1  0
 20 34  1  0
 21 22  1  0
 21 35  1  0
 21 36  1  0
 22 37  1  0
M  RAD  1   3   2
M  END
>  <reaction>  (12) 
rxn_745

>  <mol_properties>  (12) 
{"1": {"label": "*0", "atom_type": "Cd"}, "2": {"label": "*1", "atom_type": "Cs"}, "8": {"label": "*2", "atom_type": "H0"}, "13": {"label": "*3", "atom_type": "Cs"}, "21": {"label": "*4", "atom_type": "Cs"}}

>  <type>  (12) 
unop_8

>  <geom_source>  (12) 
Heuristics

$$$$

     RDKit          3D

 37 37  0  0  0  0  0  0  0  0999 V2000
    0.7566   -2.2458   -0.0978 C   0  0  0  0  0  0  0  0  0  0  0  0
    0.7566   -2.2458    1.2254 C   0  0  0  0  0  0  0  0  0  0  0  0
    0.7566   -1.0200    2.0834 C   0  0  0  0  0  3  0  0  0  0  0  0
    1.9664   -0.8657    2.9647 C   0  0  0  0  0  0  0  0  0  0  0  0
    3.0775   -1.5814    2.8922 C   0  0  0  0  0  0  0  0  0  0  0  0
    0.7485   -3.1686   -0.6643 H   0  0  0  0  0  0  0  0  0  0  0  0
    0.7630   -1.3204   -0.6638 H   0  0  0  0  0  0  0  0  0  0  0  0
    0.7592   -3.1946    1.7560 H   0  0  0  0  0  0  0  0  0  0  0  0
    0.6366    0.0519    1.3329 H   0  0  0  0  0  0  0  0  0  0  0  0
   -0.1313   -1.0335    2.7262 H   0  0  0  0  0  0  0  0  0  0  0  0
    1.8937   -0.0807    3.7124 H   0  0  0  0  0  0  0  0  0  0  0  0
    3.2030   -2.3682    2.1574 H   0  0  0  0  0  0  0  0  0  0  0  0
    3.9057   -1.3971    3.5646 H   0  0  0  0  0  0  0  0  0  0  0  0
    0.5166    1.1228    0.5831 C   0  0  0  0  0  0  0  0  0  0  0  0
    1.4660    1.9279   -0.3391 C   0  0  0  0  0  0  0  0  0  0  0  0
    0.7800    1.9693   -1.7275 C   0  0  0  0  0  0  0  0  0  0  0  0
   -0.3209    0.9171   -1.6391 C   0  0  0  0  0  0  0  0  0  0  0  0
   -1.4809    0.9916   -2.6160 C   0  0  0  0  0  0  0  0  0  0  0  0
   -2.5194   -0.0791   -2.2696 C   0  0  0  0  0  0  0  0  0  0  0  0
   -2.9729    0.0010   -0.8100 C   0  0  0  0  0  0  0  0  0  0  0  0
   -1.7953   -0.0348    0.1682 C   0  0  0  0  0  0  0  0  0  0  0  0
   -0.7946    1.0486   -0.1929 C   0  0  0  0  0  0  0  0  0  0  0  0
    0.4029    1.5760    1.5688 H   0  0  0  0  0  0  0  0  0  0  0  0
    1.6287    2.9356    0.0444 H   0  0  0  0  0  0  0  0  0  0  0  0
    2.4463    1.4539   -0.3968 H   0  0  0  0  0  0  0  0  0  0  0  0
    1.4769    1.7885   -2.5469 H   0  0  0  0  0  0  0  0  0  0  0  0
    0.3278    2.9503   -1.9004 H   0  0  0  0  0  0  0  0  0  0  0  0
    0.1424   -0.0755   -1.7369 H   0  0  0  0  0  0  0  0  0  0  0  0
   -1.9398    1.9855   -2.5530 H   0  0  0  0  0  0  0  0  0  0  0  0
   -1.1370    0.8662   -3.6461 H   0  0  0  0  0  0  0  0  0  0  0  0
   -2.0814   -1.0667   -2.4525 H   0  0  0  0  0  0  0  0  0  0  0  0
   -3.3843    0.0049   -2.9317 H   0  0  0  0  0  0  0  0  0  0  0  0
   -3.5268    0.9345   -0.6600 H   0  0  0  0  0  0  0  0  0  0  0  0
   -3.6695   -0.8121   -0.5930 H   0  0  0  0  0  0  0  0  0  0  0  0
   -2.1519    0.0846    1.1946 H   0  0  0  0  0  0  0  0  0  0  0  0
   -1.3007   -1.0121    0.1153 H   0  0  0  0  0  0  0  0  0  0  0  0
   -1.3012    2.0211   -0.1074 H   0  0  0  0  0  0  0  0  0  0  0  0
  1  2  2  3
  1  6  1  0
  1  7  1  0
  2  3  1  0
  2  8  1  0
  3  4  1  0
  3 10  1  0
  4  5  2  3
  4 11  1  0
  5 12  1  0
  5 13  1  0
  9 14  1  0
 14 15  1  0
 14 22  1  0
 14 23  1  0
 15 16  1  0
 15 24  1  0
 15 25  1  0
 16 17  1  0
 16 26  1  0
 16 27  1  0
 17 18  1  0
 17 22  1  0
 17 28  1  0
 18 19  1  0
 18 29  1  0
 18 30  1  0
 19 20  1  0
 19 31  1  0
 19 32  1  0
 20 21  1  0
 20 33  1  0
 20 34  1  0
 21 22  1  0
 21 35  1  0
 21 36  1  0
 22 37  1  0
M  RAD  1   3   2
M  END
>  <reaction>  (13) 
rxn_745

>  <mol_properties>  (13) 
{"1": {"label": "*0", "atom_type": "Cd"}, "2": {"label": "*1", "atom_type": "Cs"}, "8": {"label": "*2", "atom_type": "H0"}, "13": {"label": "*3", "atom_type": "Cs"}, "21": {"label": "*4", "atom_type": "Cs"}}

>  <type>  (13) 
unop_9

>  <geom_source>  (13) 
Heuristics

$$$$

     RDKit          3D

 37 37  0  0  0  0  0  0  0  0999 V2000
   -0.4891   -3.2608   -2.0655 C   0  0  0  0  0  0  0  0  0  0  0  0
   -0.4891   -3.2608   -0.7422 C   0  0  0  0  0  0  0  0  0  0  0  0
   -0.4891   -2.0350    0.1158 C   0  0  0  0  0  3  0  0  0  0  0  0
    0.7206   -1.8806    0.9970 C   0  0  0  0  0  0  0  0  0  0  0  0
    1.8318   -2.5963    0.9245 C   0  0  0  0  0  0  0  0  0  0  0  0
   -0.4973   -4.1835   -2.6320 H   0  0  0  0  0  0  0  0  0  0  0  0
   -0.4828   -2.3353   -2.6315 H   0  0  0  0  0  0  0  0  0  0  0  0
   -0.4866   -4.2095   -0.2117 H   0  0  0  0  0  0  0  0  0  0  0  0
   -0.6092   -0.9630   -0.6348 H   0  0  0  0  0  0  0  0  0  0  0  0
   -1.3771   -2.0484    0.7585 H   0  0  0  0  0  0  0  0  0  0  0  0
    0.6479   -1.0956    1.7447 H   0  0  0  0  0  0  0  0  0  0  0  0
    1.9572   -3.3832    0.1897 H   0  0  0  0  0  0  0  0  0  0  0  0
    2.6600   -2.4120    1.5969 H   0  0  0  0  0  0  0  0  0  0  0  0
   -0.7292    0.1079   -1.3846 C   0  0  0  0  0  0  0  0  0  0  0  0
   -2.1807    0.1787   -0.8480 C   0  0  0  0  0  0  0  0  0  0  0  0
   -2.1432    1.1478    0.3601 C   0  0  0  0  0  0  0  0  0  0  0  0
   -0.6590    1.3045    0.6758 C   0  0  0  0  0  0  0  0  0  0  0  0
   -0.2075    2.5132    1.4762 C   0  0  0  0  0  0  0  0  0  0  0  0
    1.3209    2.5314    1.5691 C   0  0  0  0  0  0  0  0  0  0  0  0
    1.9883    2.4532    0.1939 C   0  0  0  0  0  0  0  0  0  0  0  0
    1.4987    1.2541   -0.6232 C   0  0  0  0  0  0  0  0  0  0  0  0
   -0.0170    1.2760   -0.7099 C   0  0  0  0  0  0  0  0  0  0  0  0
   -0.6803    0.1510   -2.4734 H   0  0  0  0  0  0  0  0  0  0  0  0
   -2.8680    0.5388   -1.6141 H   0  0  0  0  0  0  0  0  0  0  0  0
   -2.5341   -0.8092   -0.5512 H   0  0  0  0  0  0  0  0  0  0  0  0
   -2.7231    0.7843    1.2095 H   0  0  0  0  0  0  0  0  0  0  0  0
   -2.5570    2.1213    0.0811 H   0  0  0  0  0  0  0  0  0  0  0  0
   -0.3220    0.4013    1.2052 H   0  0  0  0  0  0  0  0  0  0  0  0
   -0.5583    3.4249    0.9780 H   0  0  0  0  0  0  0  0  0  0  0  0
   -0.6476    2.5098    2.4769 H   0  0  0  0  0  0  0  0  0  0  0  0
    1.6471    1.6767    2.1722 H   0  0  0  0  0  0  0  0  0  0  0  0
    1.6571    3.4287    2.0938 H   0  0  0  0  0  0  0  0  0  0  0  0
    1.7674    3.3715   -0.3617 H   0  0  0  0  0  0  0  0  0  0  0  0
    3.0737    2.4136    0.3103 H   0  0  0  0  0  0  0  0  0  0  0  0
    1.9505    1.2646   -1.6187 H   0  0  0  0  0  0  0  0  0  0  0  0
    1.8171    0.3228   -0.1396 H   0  0  0  0  0  0  0  0  0  0  0  0
   -0.3146    2.2030   -1.2215 H   0  0  0  0  0  0  0  0  0  0  0  0
  1  2  2  3
  1  6  1  0
  1  7  1  0
  2  3  1  0
  2  8  1  0
  3  4  1  0
  3 10  1  0
  4  5  2  3
  4 11  1  0
  5 12  1  0
  5 13  1  0
  9 14  1  0
 14 15  1  0
 14 22  1  0
 14 23  1  0
 15 16  1  0
 15 24  1  0
 15 25  1  0
 16 17  1  0
 16 26  1  0
 16 27  1  0
 17 18  1  0
 17 22  1  0
 17 28  1  0
 18 19  1  0
 18 29  1  0
 18 30  1  0
 19 20  1  0
 19 31  1  0
 19 32  1  0
 20 21  1  0
 20 33  1  0
 20 34  1  0
 21 22  1  0
 21 35  1  0
 21 36  1  0
 22 37  1  0
M  RAD  1   3   2
M  END
>  <reaction>  (14) 
rxn_745

>  <mol_properties>  (14) 
{"1": {"label": "*0", "atom_type": "Cd"}, "2": {"label": "*1", "atom_type": "Cs"}, "8": {"label": "*2", "atom_type": "H0"}, "13": {"label": "*3", "atom_type": "Cs"}, "21": {"label": "*4", "atom_type": "Cs"}}

>  <type>  (14) 
unop_10

>  <geom_source>  (14) 
Heuristics

$$$$

     RDKit          3D

 37 37  0  0  0  0  0  0  0  0999 V2000
   -0.4616   -1.9629    0.0939 C   0  0  0  0  0  0  0  0  0  0  0  0
   -0.4616   -1.9629    1.4171 C   0  0  0  0  0  0  0  0  0  0  0  0
   -0.4616   -0.7371    2.2751 C   0  0  0  0  0  3  0  0  0  0  0  0
    0.7481   -0.5827    3.1563 C   0  0  0  0  0  0  0  0  0  0  0  0
    1.8593   -1.2984    3.0839 C   0  0  0  0  0  0  0  0  0  0  0  0
   -0.4698   -2.8856   -0.4727 H   0  0  0  0  0  0  0  0  0  0  0  0
   -0.4553   -1.0374   -0.4721 H   0  0  0  0  0  0  0  0  0  0  0  0
   -0.4590   -2.9116    1.9476 H   0  0  0  0  0  0  0  0  0  0  0  0
   -0.5817    0.3349    1.5246 H   0  0  0  0  0  0  0  0  0  0  0  0
   -1.3496   -0.7505    2.9179 H   0  0  0  0  0  0  0  0  0  0  0  0
    0.6754    0.2023    3.9040 H   0  0  0  0  0  0  0  0  0  0  0  0
    1.9847   -2.0853    2.3490 H   0  0  0  0  0  0  0  0  0  0  0  0
    2.6875   -1.1141    3.7562 H   0  0  0  0  0  0  0  0  0  0  0  0
   -0.7016    1.4058    0.7748 C   0  0  0  0  0  0  0  0  0  0  0  0
    0.5859    2.2640    0.8489 C   0  0  0  0  0  0  0  0  0  0  0  0
    1.3488    2.0056   -0.4744 C   0  0  0  0  0  0  0  0  0  0  0  0
    0.6686    0.7780   -1.0719 C   0  0  0  0  0  0  0  0  0  0  0  0
    0.8246    0.5089   -2.5581 C   0  0  0  0  0  0  0  0  0  0  0  0
   -0.0339   -0.6940   -2.9596 C   0  0  0  0  0  0  0  0  0  0  0  0
   -1.4970   -0.5300   -2.5413 C   0  0  0  0  0  0  0  0  0  0  0  0
   -1.6444   -0.2196   -1.0490 C   0  0  0  0  0  0  0  0  0  0  0  0
   -0.7953    0.9865   -0.6889 C   0  0  0  0  0  0  0  0  0  0  0  0
   -1.5858    1.9425    1.1213 H   0  0  0  0  0  0  0  0  0  0  0  0
    0.3493    3.3226    0.9610 H   0  0  0  0  0  0  0  0  0  0  0  0
    1.1893    1.9860    1.7136 H   0  0  0  0  0  0  0  0  0  0  0  0
    2.4201    1.8672   -0.3226 H   0  0  0  0  0  0  0  0  0  0  0  0
    1.2275    2.8525   -1.1562 H   0  0  0  0  0  0  0  0  0  0  0  0
    1.0203   -0.1103   -0.5271 H   0  0  0  0  0  0  0  0  0  0  0  0
    0.5041    1.3951   -3.1188 H   0  0  0  0  0  0  0  0  0  0  0  0
    1.8713    0.3307   -2.8184 H   0  0  0  0  0  0  0  0  0  0  0  0
    0.3740   -1.5923   -2.4829 H   0  0  0  0  0  0  0  0  0  0  0  0
    0.0272   -0.8590   -4.0377 H   0  0  0  0  0  0  0  0  0  0  0  0
   -1.9421    0.2894   -3.1169 H   0  0  0  0  0  0  0  0  0  0  0  0
   -2.0591   -1.4310   -2.7974 H   0  0  0  0  0  0  0  0  0  0  0  0
   -2.6953   -0.0502   -0.7996 H   0  0  0  0  0  0  0  0  0  0  0  0
   -1.3126   -1.0815   -0.4578 H   0  0  0  0  0  0  0  0  0  0  0  0
   -1.1609    1.8453   -1.2707 H   0  0  0  0  0  0  0  0  0  0  0  0
  1  2  2  3
  1  6  1  0
  1  7  1  0
  2  3  1  0
  2  8  1  0
  3  4  1  0
  3 10  1  0
  4  5  2  3
  4 11  1  0
  5 12  1  0
  5 13  1  0
  9 14  1  0
 14 15  1  0
 14 22  1  0
 14 23  1  0
 15 16  1  0
 15 24  1  0
 15 25  1  0
 16 17  1  0
 16 26  1  0
 16 27  1  0
 17 18  1  0
 17 22  1  0
 17 28  1  0
 18 19  1  0
 18 29  1  0
 18 30  1  0
 19 20  1  0
 19 31  1  0
 19 32  1  0
 20 21  1  0
 20 33  1  0
 20 34  1  0
 21 22  1  0
 21 35  1  0
 21 36  1  0
 22 37  1  0
M  RAD  1   3   2
M  END
>  <reaction>  (15) 
rxn_745

>  <mol_properties>  (15) 
{"1": {"label": "*0", "atom_type": "Cd"}, "2": {"label": "*1", "atom_type": "Cs"}, "8": {"label": "*2", "atom_type": "H0"}, "13": {"label": "*3", "atom_type": "Cs"}, "21": {"label": "*4", "atom_type": "Cs"}}

>  <type>  (15) 
unop_11

>  <geom_source>  (15) 
Heuristics

$$$$

     RDKit          3D

 37 37  0  0  0  0  0  0  0  0999 V2000
   -0.6942   -0.1953   -0.2796 C   0  0  0  0  0  0  0  0  0  0  0  0
   -1.6473   -1.3336    0.0258 C   0  0  0  0  0  0  0  0  0  0  0  0
    0.6036   -0.8921   -0.6584 C   0  0  0  0  0  0  0  0  0  0  0  0
   -1.2979    0.7501   -1.3372 C   0  0  0  0  0  0  0  0  0  0  0  0
   -0.7886   -2.3407    0.7767 C   0  0  0  0  0  0  0  0  0  0  0  0
   -2.8959   -0.8124    0.7652 C   0  0  0  0  0  0  0  0  0  0  0  0
    0.6160   -2.1792    0.1776 C   0  0  0  0  0  0  0  0  0  0  0  0
   -2.8344    0.8936   -1.1726 C   0  0  0  0  0  0  0  0  0  0  0  0
   -3.3178    0.5946    0.2644 C   0  0  0  0  0  0  0  0  0  0  0  0
    2.5893    0.3883    0.5248 C   0  0  0  0  0  3  0  0  0  0  0  0
    1.5890    1.4007    0.0665 C   0  0  0  0  0  0  0  0  0  0  0  0
    3.6259    1.0368    1.3852 C   0  0  0  0  0  0  0  0  0  0  0  0
    1.5279    1.7621   -1.2155 C   0  0  0  0  0  0  0  0  0  0  0  0
    4.8821    1.1623    0.9563 C   0  0  0  0  0  0  0  0  0  0  0  0
   -0.5077    0.3871    0.6537 H   0  0  0  0  0  0  0  0  0  0  0  0
   -1.9720   -1.8055   -0.9323 H   0  0  0  0  0  0  0  0  0  0  0  0
    0.6129   -1.1504   -1.7404 H   0  0  0  0  0  0  0  0  0  0  0  0
    1.5975   -0.1652   -0.3924 H   0  0  0  0  0  0  0  0  0  0  0  0
    0.8662   -3.0511   -0.4656 H   0  0  0  0  0  0  0  0  0  0  0  0
    1.3724   -2.1030    0.9886 H   0  0  0  0  0  0  0  0  0  0  0  0
   -1.0851    0.3769   -2.3626 H   0  0  0  0  0  0  0  0  0  0  0  0
   -0.8182    1.7480   -1.2382 H   0  0  0  0  0  0  0  0  0  0  0  0
   -0.7587   -2.1008    1.8626 H   0  0  0  0  0  0  0  0  0  0  0  0
   -1.1725   -3.3749    0.6396 H   0  0  0  0  0  0  0  0  0  0  0  0
   -2.7079   -0.7571    1.8596 H   0  0  0  0  0  0  0  0  0  0  0  0
   -3.7298   -1.5299    0.6052 H   0  0  0  0  0  0  0  0  0  0  0  0
   -3.3429    0.1890   -1.8669 H   0  0  0  0  0  0  0  0  0  0  0  0
   -3.1434    1.9216   -1.4604 H   0  0  0  0  0  0  0  0  0  0  0  0
   -2.8936    1.3659    0.9442 H   0  0  0  0  0  0  0  0  0  0  0  0
   -4.4244    0.6874    0.3093 H   0  0  0  0  0  0  0  0  0  0  0  0
    2.0786   -0.4185    1.0909 H   0  0  0  0  0  0  0  0  0  0  0  0
    0.9195    1.8592    0.7885 H   0  0  0  0  0  0  0  0  0  0  0  0
    3.3476    1.4257    2.3604 H   0  0  0  0  0  0  0  0  0  0  0  0
    2.1956    1.3233   -1.9511 H   0  0  0  0  0  0  0  0  0  0  0  0
    0.8049    2.5049   -1.5365 H   0  0  0  0  0  0  0  0  0  0  0  0
    5.6250    1.6431    1.5844 H   0  0  0  0  0  0  0  0  0  0  0  0
    5.1780    0.7893   -0.0198 H   0  0  0  0  0  0  0  0  0  0  0  0
  1  4  1  0
  1  3  1  0
  1  2  1  0
  1 15  1  0
  2  6  1  0
  2  5  1  0
  2 16  1  0
  3  7  1  0
  3 17  1  0
  3 18  1  0
  4  8  1  0
  4 21  1  0
  4 22  1  0
  5  7  1  0
  5 23  1  0
  5 24  1  0
  6  9  1  0
  6 25  1  0
  6 26  1  0
  7 19  1  0
  7 20  1  0
  8  9  1  0
  8 27  1  0
  8 28  1  0
  9 29  1  0
  9 30  1  0
 10 11  1  0
 10 12  1  0
 10 31  1  0
 11 13  2  3
 11 32  1  0
 12 14  2  3
 12 33  1  0
 13 34  1  0
 13 35  1  0
 14 36  1  0
 14 37  1  0
M  RAD  1  10   2
M  END
>  <reaction>  (16) 
rxn_745

>  <mol_properties>  (16) 
{"1": {"label": "*0", "atom_type": "Cd"}, "2": {"label": "*1", "atom_type": "Cs"}, "8": {"label": "*2", "atom_type": "H0"}, "13": {"label": "*3", "atom_type": "Cs"}, "21": {"label": "*4", "atom_type": "Cs"}}

>  <type>  (16) 
unop_12

>  <geom_source>  (16) 
AutoTST

$$$$

     RDKit          3D

 37 37  0  0  0  0  0  0  0  0999 V2000
    0.1835   -2.0247    0.1363 C   0  0  0  0  0  0  0  0  0  0  0  0
    0.1835   -2.0247    1.4596 C   0  0  0  0  0  0  0  0  0  0  0  0
    0.1835   -0.7988    2.3176 C   0  0  0  0  0  3  0  0  0  0  0  0
    1.3932   -0.6445    3.1988 C   0  0  0  0  0  0  0  0  0  0  0  0
    2.5044   -1.3602    3.1264 C   0  0  0  0  0  0  0  0  0  0  0  0
    0.1753   -2.9474   -0.4302 H   0  0  0  0  0  0  0  0  0  0  0  0
    0.1899   -1.0992   -0.4296 H   0  0  0  0  0  0  0  0  0  0  0  0
    0.1861   -2.9734    1.9901 H   0  0  0  0  0  0  0  0  0  0  0  0
    0.0635    0.2731    1.5671 H   0  0  0  0  0  0  0  0  0  0  0  0
   -0.7045   -0.8123    2.9604 H   0  0  0  0  0  0  0  0  0  0  0  0
    1.3205    0.1405    3.9465 H   0  0  0  0  0  0  0  0  0  0  0  0
    2.6299   -2.1470    2.3915 H   0  0  0  0  0  0  0  0  0  0  0  0
    3.3326   -1.1759    3.7987 H   0  0  0  0  0  0  0  0  0  0  0  0
   -0.0565    1.3440    0.8173 C   0  0  0  0  0  0  0  0  0  0  0  0
    1.1183    2.2064    0.2919 C   0  0  0  0  0  0  0  0  0  0  0  0
    1.1330    2.0179   -1.2456 C   0  0  0  0  0  0  0  0  0  0  0  0
    0.2259    0.8161   -1.4900 C   0  0  0  0  0  0  0  0  0  0  0  0
   -0.3686    0.6205   -2.8734 C   0  0  0  0  0  0  0  0  0  0  0  0
   -1.3350   -0.5673   -2.8587 C   0  0  0  0  0  0  0  0  0  0  0  0
   -2.4043   -0.4338   -1.7717 C   0  0  0  0  0  0  0  0  0  0  0  0
   -1.7986   -0.1973   -0.3854 C   0  0  0  0  0  0  0  0  0  0  0  0
   -0.8605    0.9957   -0.4314 C   0  0  0  0  0  0  0  0  0  0  0  0
   -0.6491    1.8572    1.5758 H   0  0  0  0  0  0  0  0  0  0  0  0
    0.9853    3.2566    0.5536 H   0  0  0  0  0  0  0  0  0  0  0  0
    2.0620    1.8908    0.7377 H   0  0  0  0  0  0  0  0  0  0  0  0
    2.1393    1.8795   -1.6432 H   0  0  0  0  0  0  0  0  0  0  0  0
    0.7092    2.8960   -1.7417 H   0  0  0  0  0  0  0  0  0  0  0  0
    0.7831   -0.0952   -1.2278 H   0  0  0  0  0  0  0  0  0  0  0  0
   -0.9063    1.5307   -3.1648 H   0  0  0  0  0  0  0  0  0  0  0  0
    0.4142    0.4624   -3.6199 H   0  0  0  0  0  0  0  0  0  0  0  0
   -0.7623   -1.4849   -2.6838 H   0  0  0  0  0  0  0  0  0  0  0  0
   -1.8112   -0.6793   -3.8355 H   0  0  0  0  0  0  0  0  0  0  0  0
   -3.0592    0.4094   -2.0183 H   0  0  0  0  0  0  0  0  0  0  0  0
   -3.0358   -1.3252   -1.7614 H   0  0  0  0  0  0  0  0  0  0  0  0
   -2.5906   -0.0474    0.3532 H   0  0  0  0  0  0  0  0  0  0  0  0
   -1.2357   -1.0846   -0.0719 H   0  0  0  0  0  0  0  0  0  0  0  0
   -1.4484    1.8791   -0.7204 H   0  0  0  0  0  0  0  0  0  0  0  0
  1  2  2  3
  1  6  1  0
  1  7  1  0
  2  3  1  0
  2  8  1  0
  3  4  1  0
  3 10  1  0
  4  5  2  3
  4 11  1  0
  5 12  1  0
  5 13  1  0
  9 14  1  0
 14 15  1  0
 14 22  1  0
 14 23  1  0
 15 16  1  0
 15 24  1  0
 15 25  1  0
 16 17  1  0
 16 26  1  0
 16 27  1  0
 17 18  1  0
 17 22  1  0
 17 28  1  0
 18 19  1  0
 18 29  1  0
 18 30  1  0
 19 20  1  0
 19 31  1  0
 19 32  1  0
 20 21  1  0
 20 33  1  0
 20 34  1  0
 21 22  1  0
 21 35  1  0
 21 36  1  0
 22 37  1  0
M  RAD  1   3   2
M  END
>  <reaction>  (17) 
rxn_745

>  <mol_properties>  (17) 
{"1": {"label": "*0", "atom_type": "Cd"}, "2": {"label": "*1", "atom_type": "Cs"}, "8": {"label": "*2", "atom_type": "H0"}, "13": {"label": "*3", "atom_type": "Cs"}, "21": {"label": "*4", "atom_type": "Cs"}}

>  <type>  (17) 
unop_13

>  <geom_source>  (17) 
gaussian_log

$$$$
