
     RDKit          3D

 10  9  0  0  0  0  0  0  0  0999 V2000
    1.8334    0.0847   -0.1062 C   0  0  0  0  0  0  0  0  0  0  0  0
    0.5993   -0.4071   -0.0750 C   0  0  0  0  0  0  0  0  0  0  0  0
   -0.5993    0.4071    0.0750 C   0  0  0  0  0  0  0  0  0  0  0  0
   -1.8334   -0.0847    0.1062 C   0  0  0  0  0  0  0  0  0  0  0  0
    2.0179    1.1498   -0.0189 H   0  0  0  0  0  0  0  0  0  0  0  0
    2.6972   -0.5572   -0.2194 H   0  0  0  0  0  0  0  0  0  0  0  0
    0.4465   -1.4793   -0.1649 H   0  0  0  0  0  0  0  0  0  0  0  0
   -0.4465    1.4793    0.1649 H   0  0  0  0  0  0  0  0  0  0  0  0
   -2.0179   -1.1498    0.0189 H   0  0  0  0  0  0  0  0  0  0  0  0
   -2.6972    0.5572    0.2194 H   0  0  0  0  0  0  0  0  0  0  0  0
  1  2  2  3
  1  5  1  0
  1  6  1  0
  2  3  1  0
  2  7  1  0
  3  4  2  3
  3  8  1  0
  4  9  1  0
  4 10  1  0
M  END
>  <reaction>  (1) 
rxn_1670

>  <mol_properties>  (1) 
{"2": {"label": "donator", "atom_type": "Cd"}, "7": {"label": "d_hydrogen", "atom_type": "H0"}}

>  <type>  (1) 
r1h

$$$$

     RDKit          3D

 11 10  0  0  0  0  0  0  0  0999 V2000
    1.0781   -1.0166   -0.1159 C   0  0  0  0  0  0  0  0  0  0  0  0
    0.2180    0.1942   -0.2297 C   0  0  0  0  0  3  0  0  0  0  0  0
    0.9343    1.7769   -0.3011 S   0  0  0  0  0  0  0  0  0  0  0  0
   -1.1949    0.1490    0.2439 C   0  0  0  0  0  0  0  0  0  0  0  0
    1.4718   -1.1461    0.9024 H   0  0  0  0  0  0  0  0  0  0  0  0
    1.9367   -0.9751   -0.7902 H   0  0  0  0  0  0  0  0  0  0  0  0
    0.5033   -1.9136   -0.3576 H   0  0  0  0  0  0  0  0  0  0  0  0
    2.1166    1.4195   -0.8209 H   0  0  0  0  0  0  0  0  0  0  0  0
   -1.2620    0.0939    1.3399 H   0  0  0  0  0  0  0  0  0  0  0  0
   -1.7600    1.0270   -0.0739 H   0  0  0  0  0  0  0  0  0  0  0  0
   -1.6972   -0.7380   -0.1506 H   0  0  0  0  0  0  0  0  0  0  0  0
  1  2  1  0
  1  5  1  0
  1  6  1  0
  1  7  1  0
  2  4  1  0
  2  3  1  0
  3  8  1  0
  4  9  1  0
  4 10  1  0
  4 11  1  0
M  RAD  1   2   2
M  END
>  <reaction>  (2) 
rxn_1670

>  <mol_properties>  (2) 
{"1": {"label": "acceptor", "atom_type": "Cs"}}

>  <type>  (2) 
r2

$$$$

     RDKit          3D

 12 11  0  0  0  0  0  0  0  0999 V2000
    1.2394   -0.3763   -0.3020 C   0  0  0  0  0  0  0  0  0  0  0  0
    0.1007    0.3023    0.4464 C   0  0  0  0  0  0  0  0  0  0  0  0
   -0.1187    2.0399   -0.0725 S   0  0  0  0  0  0  0  0  0  0  0  0
   -1.1974   -0.4877    0.3552 C   0  0  0  0  0  0  0  0  0  0  0  0
    2.1681    0.1849   -0.2048 H   0  0  0  0  0  0  0  0  0  0  0  0
    1.0031   -0.4606   -1.3656 H   0  0  0  0  0  0  0  0  0  0  0  0
    1.3994   -1.3856    0.0860 H   0  0  0  0  0  0  0  0  0  0  0  0
    0.3796    0.4050    1.4981 H   0  0  0  0  0  0  0  0  0  0  0  0
   -0.4500    1.7779   -1.3452 H   0  0  0  0  0  0  0  0  0  0  0  0
   -1.0545   -1.4978    0.7479 H   0  0  0  0  0  0  0  0  0  0  0  0
   -1.5206   -0.5759   -0.6849 H   0  0  0  0  0  0  0  0  0  0  0  0
   -1.9957   -0.0054    0.9183 H   0  0  0  0  0  0  0  0  0  0  0  0
  1  2  1  0
  1  5  1  0
  1  6  1  0
  1  7  1  0
  2  4  1  0
  2  3  1  0
  2  8  1  0
  3  9  1  0
  4 10  1  0
  4 11  1  0
  4 12  1  0
M  END
>  <reaction>  (3) 
rxn_1670

>  <mol_properties>  (3) 
{"1": {"label": "acceptor", "atom_type": "Cs"}, "11": {"label": "a_hydrogen", "atom_type": "H0"}}

>  <type>  (3) 
r2h

$$$$

     RDKit          3D

 21 19  0  0  0  0  0  0  0  0999 V2000
    0.4986    0.8917   -1.7966 C   0  0  0  0  0  0  0  0  0  0  0  0
   -0.2253    1.0538   -0.4771 C   0  0  0  0  0  0  0  0  0  0  0  0
    0.6507    2.2465    0.5481 S   0  0  0  0  0  0  0  0  0  0  0  0
   -1.7072    1.3267   -0.6068 C   0  0  0  0  0  0  0  0  0  0  0  0
    1.5494    0.6408   -1.6454 H   0  0  0  0  0  0  0  0  0  0  0  0
    0.4438    1.8067   -2.3932 H   0  0  0  0  0  0  0  0  0  0  0  0
    0.0403    0.0855   -2.3727 H   0  0  0  0  0  0  0  0  0  0  0  0
   -0.2119    2.2440    1.5734 H   0  0  0  0  0  0  0  0  0  0  0  0
   -2.1815    0.5549   -1.2172 H   0  0  0  0  0  0  0  0  0  0  0  0
   -2.1977    1.3284    0.3679 H   0  0  0  0  0  0  0  0  0  0  0  0
   -1.8849    2.2953   -1.0815 H   0  0  0  0  0  0  0  0  0  0  0  0
   -1.3597   -2.5034   -0.8166 C   0  0  0  0  0  0  0  0  0  0  0  0
   -0.6629   -2.4653    0.3146 C   0  0  0  0  0  0  0  0  0  0  0  0
    0.0436   -1.3102    0.8210 C   0  0  0  0  0  3  0  0  0  0  0  0
    0.8318   -1.1991    1.8720 C   0  0  0  0  0  0  0  0  0  0  0  0
   -1.4468   -1.6331   -1.4555 H   0  0  0  0  0  0  0  0  0  0  0  0
   -1.8600   -3.4067   -1.1398 H   0  0  0  0  0  0  0  0  0  0  0  0
   -0.5983   -3.3653    0.9273 H   0  0  0  0  0  0  0  0  0  0  0  0
   -0.1195   -0.0507    0.1015 H   0  0  0  0  0  0  0  0  0  0  0  0
    1.0435   -2.0518    2.5164 H   0  0  0  0  0  0  0  0  0  0  0  0
    1.3063   -0.2576    2.1270 H   0  0  0  0  0  0  0  0  0  0  0  0
  1  2  1  0
  1  5  1  0
  1  6  1  0
  1  7  1  0
  2  4  1  0
  2  3  1  0
  2 19  1  0
  3  8  1  0
  4  9  1  0
  4 10  1  0
  4 11  1  0
 12 13  2  3
 12 16  1  0
 12 17  1  0
 13 14  1  0
 13 18  1  0
 14 15  2  3
 15 20  1  0
 15 21  1  0
M  RAD  1  14   2
M  END
>  <reaction>  (4) 
rxn_1670

>  <mol_properties>  (4) 
{"1": {"label": "*1", "atom_type": "Cs"}, "2": {"label": "*0", "atom_type": "S2s"}, "12": {"label": "*4", "atom_type": "Cd"}, "13": {"label": "*3", "atom_type": "Cd"}, "18": {"label": "*2", "atom_type": "H0"}}

>  <type>  (4) 
ts

$$$$

     RDKit          3D

 21 19  0  0  0  0  0  0  0  0999 V2000
   -1.3785    1.7604    0.2699 C   0  0  0  0  0  0  0  0  0  0  0  0
   -0.1312    0.9759   -0.1126 C   0  0  0  0  0  3  0  0  0  0  0  0
    0.4385    1.3784   -1.8008 S   0  0  0  0  0  0  0  0  0  0  0  0
    0.9809    1.1286    0.9156 C   0  0  0  0  0  0  0  0  0  0  0  0
   -2.1751    1.6194   -0.4597 H   0  0  0  0  0  0  0  0  0  0  0  0
   -1.1567    2.8288    0.3286 H   0  0  0  0  0  0  0  0  0  0  0  0
   -1.7419    1.4399    1.2498 H   0  0  0  0  0  0  0  0  0  0  0  0
    0.7188    2.6681   -1.5632 H   0  0  0  0  0  0  0  0  0  0  0  0
    0.6340    0.8037    1.8999 H   0  0  0  0  0  0  0  0  0  0  0  0
    1.8563    0.5399    0.6435 H   0  0  0  0  0  0  0  0  0  0  0  0
    1.2868    2.1745    0.9973 H   0  0  0  0  0  0  0  0  0  0  0  0
   -0.1312   -2.5059   -0.9652 C   0  0  0  0  0  0  0  0  0  0  0  0
   -0.1312   -2.5059    0.3637 C   0  0  0  0  0  0  0  0  0  0  0  0
   -0.1312   -1.2986    1.1790 C   0  0  0  0  0  0  0  0  0  0  0  0
   -0.1312   -1.2986    2.5079 C   0  0  0  0  0  0  0  0  0  0  0  0
   -0.1312   -1.5793   -1.5286 H   0  0  0  0  0  0  0  0  0  0  0  0
   -0.1312   -3.4274   -1.5324 H   0  0  0  0  0  0  0  0  0  0  0  0
   -0.1312   -3.4508    0.9003 H   0  0  0  0  0  0  0  0  0  0  0  0
   -0.1312   -0.1646    0.5350 H   0  0  0  0  0  0  0  0  0  0  0  0
   -0.1312   -2.2252    3.0713 H   0  0  0  0  0  0  0  0  0  0  0  0
   -0.1312   -0.3770    3.0751 H   0  0  0  0  0  0  0  0  0  0  0  0
  1  2  1  0
  1  5  1  0
  1  6  1  0
  1  7  1  0
  2  4  1  0
  2  3  1  0
  3  8  1  0
  4  9  1  0
  4 10  1  0
  4 11  1  0
 12 13  2  3
 12 16  1  0
 12 17  1  0
 13 14  1  0
 13 18  1  0
 14 15  2  3
 14 19  1  0
 15 20  1  0
 15 21  1  0
M  RAD  1   2   2
M  END
>  <reaction>  (5) 
rxn_1670

>  <mol_properties>  (5) 
{"1": {"label": "*1", "atom_type": "Cs"}, "2": {"label": "*0", "atom_type": "S2s"}, "12": {"label": "*4", "atom_type": "Cd"}, "13": {"label": "*3", "atom_type": "Cd"}, "18": {"label": "*2", "atom_type": "H0"}}

>  <type>  (5) 
unop_1

>  <geom_source>  (5) 
Heuristics

$$$$

     RDKit          3D

 21 19  0  0  0  0  0  0  0  0999 V2000
   -0.9338    0.7327   -1.6042 C   0  0  0  0  0  0  0  0  0  0  0  0
   -0.2137    0.9197   -0.2761 C   0  0  0  0  0  3  0  0  0  0  0  0
    1.4007    1.7485   -0.4845 S   0  0  0  0  0  0  0  0  0  0  0  0
   -1.0855    1.6217    0.7557 C   0  0  0  0  0  0  0  0  0  0  0  0
   -0.3088    0.2044   -2.3234 H   0  0  0  0  0  0  0  0  0  0  0  0
   -1.2029    1.7006   -2.0343 H   0  0  0  0  0  0  0  0  0  0  0  0
   -1.8556    0.1636   -1.4585 H   0  0  0  0  0  0  0  0  0  0  0  0
    0.9169    2.9083   -0.9525 H   0  0  0  0  0  0  0  0  0  0  0  0
   -2.0083    1.0588    0.9179 H   0  0  0  0  0  0  0  0  0  0  0  0
   -0.5680    1.7234    1.7090 H   0  0  0  0  0  0  0  0  0  0  0  0
   -1.3600    2.6213    0.4097 H   0  0  0  0  0  0  0  0  0  0  0  0
   -0.2137   -2.5621   -1.1286 C   0  0  0  0  0  0  0  0  0  0  0  0
   -0.2137   -2.5621    0.2003 C   0  0  0  0  0  0  0  0  0  0  0  0
   -0.2137   -1.3547    1.0155 C   0  0  0  0  0  0  0  0  0  0  0  0
   -0.2137   -1.3547    2.3444 C   0  0  0  0  0  0  0  0  0  0  0  0
   -0.2137   -1.6354   -1.6921 H   0  0  0  0  0  0  0  0  0  0  0  0
   -0.2137   -3.4836   -1.6958 H   0  0  0  0  0  0  0  0  0  0  0  0
   -0.2137   -3.5070    0.7369 H   0  0  0  0  0  0  0  0  0  0  0  0
   -0.2137   -0.2208    0.3716 H   0  0  0  0  0  0  0  0  0  0  0  0
   -0.2137   -2.2813    2.9079 H   0  0  0  0  0  0  0  0  0  0  0  0
   -0.2137   -0.4332    2.9116 H   0  0  0  0  0  0  0  0  0  0  0  0
  1  2  1  0
  1  5  1  0
  1  6  1  0
  1  7  1  0
  2  4  1  0
  2  3  1  0
  3  8  1  0
  4  9  1  0
  4 10  1  0
  4 11  1  0
 12 13  2  3
 12 16  1  0
 12 17  1  0
 13 14  1  0
 13 18  1  0
 14 15  2  3
 14 19  1  0
 15 20  1  0
 15 21  1  0
M  RAD  1   2   2
M  END
>  <reaction>  (6) 
rxn_1670

>  <mol_properties>  (6) 
{"1": {"label": "*1", "atom_type": "Cs"}, "2": {"label": "*0", "atom_type": "S2s"}, "12": {"label": "*4", "atom_type": "Cd"}, "13": {"label": "*3", "atom_type": "Cd"}, "18": {"label": "*2", "atom_type": "H0"}}

>  <type>  (6) 
unop_2

>  <geom_source>  (6) 
Heuristics

$$$$

     RDKit          3D

 21 19  0  0  0  0  0  0  0  0999 V2000
   -0.7157    2.0719    0.7938 C   0  0  0  0  0  0  0  0  0  0  0  0
    0.0044    1.0270   -0.0472 C   0  0  0  0  0  3  0  0  0  0  0  0
   -0.4045    1.1770   -1.8211 S   0  0  0  0  0  0  0  0  0  0  0  0
    1.5076    1.0330    0.1935 C   0  0  0  0  0  0  0  0  0  0  0  0
   -1.7926    2.0373    0.6327 H   0  0  0  0  0  0  0  0  0  0  0  0
   -0.3662    3.0757    0.5403 H   0  0  0  0  0  0  0  0  0  0  0  0
   -0.5162    1.9065    1.8557 H   0  0  0  0  0  0  0  0  0  0  0  0
    0.1196    2.3990   -1.9952 H   0  0  0  0  0  0  0  0  0  0  0  0
    1.7226    0.8603    1.2512 H   0  0  0  0  0  0  0  0  0  0  0  0
    2.0063    0.2621   -0.3931 H   0  0  0  0  0  0  0  0  0  0  0  0
    1.9363    1.9998   -0.0814 H   0  0  0  0  0  0  0  0  0  0  0  0
    0.0044   -2.4547   -0.8997 C   0  0  0  0  0  0  0  0  0  0  0  0
    0.0044   -2.4547    0.4292 C   0  0  0  0  0  0  0  0  0  0  0  0
    0.0044   -1.2474    1.2445 C   0  0  0  0  0  0  0  0  0  0  0  0
    0.0044   -1.2474    2.5733 C   0  0  0  0  0  0  0  0  0  0  0  0
    0.0044   -1.5281   -1.4632 H   0  0  0  0  0  0  0  0  0  0  0  0
    0.0044   -3.3763   -1.4669 H   0  0  0  0  0  0  0  0  0  0  0  0
    0.0044   -3.3997    0.9658 H   0  0  0  0  0  0  0  0  0  0  0  0
    0.0044   -0.1135    0.6005 H   0  0  0  0  0  0  0  0  0  0  0  0
    0.0044   -2.1740    3.1368 H   0  0  0  0  0  0  0  0  0  0  0  0
    0.0044   -0.3258    3.1405 H   0  0  0  0  0  0  0  0  0  0  0  0
  1  2  1  0
  1  5  1  0
  1  6  1  0
  1  7  1  0
  2  4  1  0
  2  3  1  0
  3  8  1  0
  4  9  1  0
  4 10  1  0
  4 11  1  0
 12 13  2  3
 12 16  1  0
 12 17  1  0
 13 14  1  0
 13 18  1  0
 14 15  2  3
 14 19  1  0
 15 20  1  0
 15 21  1  0
M  RAD  1   2   2
M  END
>  <reaction>  (7) 
rxn_1670

>  <mol_properties>  (7) 
{"1": {"label": "*1", "atom_type": "Cs"}, "2": {"label": "*0", "atom_type": "S2s"}, "12": {"label": "*4", "atom_type": "Cd"}, "13": {"label": "*3", "atom_type": "Cd"}, "18": {"label": "*2", "atom_type": "H0"}}

>  <type>  (7) 
unop_3

>  <geom_source>  (7) 
Heuristics

$$$$

     RDKit          3D

 21 19  0  0  0  0  0  0  0  0999 V2000
    1.1424    1.0457   -1.5046 C   0  0  0  0  0  0  0  0  0  0  0  0
   -0.1049    0.9724   -0.6348 C   0  0  0  0  0  3  0  0  0  0  0  0
    0.2469    1.4108    1.1032 S   0  0  0  0  0  0  0  0  0  0  0  0
   -1.2532    1.7913   -1.2077 C   0  0  0  0  0  0  0  0  0  0  0  0
    1.9461    0.4330   -1.0979 H   0  0  0  0  0  0  0  0  0  0  0  0
    1.5017    2.0754   -1.5739 H   0  0  0  0  0  0  0  0  0  0  0  0
    0.9188    0.7006   -2.5174 H   0  0  0  0  0  0  0  0  0  0  0  0
    0.6128    2.6794    0.8689 H   0  0  0  0  0  0  0  0  0  0  0  0
   -1.4935    1.4515   -2.2184 H   0  0  0  0  0  0  0  0  0  0  0  0
   -2.1471    1.7070   -0.5907 H   0  0  0  0  0  0  0  0  0  0  0  0
   -0.9792    2.8476   -1.2665 H   0  0  0  0  0  0  0  0  0  0  0  0
   -0.1049   -2.5094   -1.4874 C   0  0  0  0  0  0  0  0  0  0  0  0
   -0.1049   -2.5094   -0.1585 C   0  0  0  0  0  0  0  0  0  0  0  0
   -0.1049   -1.3020    0.6568 C   0  0  0  0  0  0  0  0  0  0  0  0
   -0.1049   -1.3020    1.9857 C   0  0  0  0  0  0  0  0  0  0  0  0
   -0.1049   -1.5828   -2.0508 H   0  0  0  0  0  0  0  0  0  0  0  0
   -0.1049   -3.4309   -2.0546 H   0  0  0  0  0  0  0  0  0  0  0  0
   -0.1049   -3.4543    0.3781 H   0  0  0  0  0  0  0  0  0  0  0  0
   -0.1049   -0.1681    0.0129 H   0  0  0  0  0  0  0  0  0  0  0  0
   -0.1049   -2.2286    2.5491 H   0  0  0  0  0  0  0  0  0  0  0  0
   -0.1049   -0.3805    2.5529 H   0  0  0  0  0  0  0  0  0  0  0  0
  1  2  1  0
  1  5  1  0
  1  6  1  0
  1  7  1  0
  2  4  1  0
  2  3  1  0
  3  8  1  0
  4  9  1  0
  4 10  1  0
  4 11  1  0
 12 13  2  3
 12 16  1  0
 12 17  1  0
 13 14  1  0
 13 18  1  0
 14 15  2  3
 14 19  1  0
 15 20  1  0
 15 21  1  0
M  RAD  1   2   2
M  END
>  <reaction>  (8) 
rxn_1670

>  <mol_properties>  (8) 
{"1": {"label": "*1", "atom_type": "Cs"}, "2": {"label": "*0", "atom_type": "S2s"}, "12": {"label": "*4", "atom_type": "Cd"}, "13": {"label": "*3", "atom_type": "Cd"}, "18": {"label": "*2", "atom_type": "H0"}}

>  <type>  (8) 
unop_4

>  <geom_source>  (8) 
Heuristics

$$$$

     RDKit          3D

 21 19  0  0  0  0  0  0  0  0999 V2000
    0.2502    2.2102    0.8729 C   0  0  0  0  0  0  0  0  0  0  0  0
    0.2502    1.0700   -0.1358 C   0  0  0  0  0  3  0  0  0  0  0  0
   -1.3146    0.9878   -1.0746 S   0  0  0  0  0  0  0  0  0  0  0  0
    1.4637    1.1159   -1.0540 C   0  0  0  0  0  0  0  0  0  0  0  0
   -0.6081    2.1487    1.5410 H   0  0  0  0  0  0  0  0  0  0  0  0
    0.2142    3.1751    0.3613 H   0  0  0  0  0  0  0  0  0  0  0  0
    1.1629    2.1842    1.4740 H   0  0  0  0  0  0  0  0  0  0  0  0
   -1.1940    2.1803   -1.6759 H   0  0  0  0  0  0  0  0  0  0  0  0
    2.3848    1.0823   -0.4664 H   0  0  0  0  0  0  0  0  0  0  0  0
    1.4653    0.2790   -1.7514 H   0  0  0  0  0  0  0  0  0  0  0  0
    1.4709    2.0418   -1.6343 H   0  0  0  0  0  0  0  0  0  0  0  0
    0.2502   -2.4117   -0.9884 C   0  0  0  0  0  0  0  0  0  0  0  0
    0.2502   -2.4117    0.3405 C   0  0  0  0  0  0  0  0  0  0  0  0
    0.2502   -1.2044    1.1558 C   0  0  0  0  0  0  0  0  0  0  0  0
    0.2502   -1.2044    2.4847 C   0  0  0  0  0  0  0  0  0  0  0  0
    0.2502   -1.4851   -1.5518 H   0  0  0  0  0  0  0  0  0  0  0  0
    0.2502   -3.3333   -1.5556 H   0  0  0  0  0  0  0  0  0  0  0  0
    0.2502   -3.3567    0.8771 H   0  0  0  0  0  0  0  0  0  0  0  0
    0.2502   -0.0705    0.5118 H   0  0  0  0  0  0  0  0  0  0  0  0
    0.2502   -2.1310    3.0481 H   0  0  0  0  0  0  0  0  0  0  0  0
    0.2502   -0.2829    3.0519 H   0  0  0  0  0  0  0  0  0  0  0  0
  1  2  1  0
  1  5  1  0
  1  6  1  0
  1  7  1  0
  2  4  1  0
  2  3  1  0
  3  8  1  0
  4  9  1  0
  4 10  1  0
  4 11  1  0
 12 13  2  3
 12 16  1  0
 12 17  1  0
 13 14  1  0
 13 18  1  0
 14 15  2  3
 14 19  1  0
 15 20  1  0
 15 21  1  0
M  RAD  1   2   2
M  END
>  <reaction>  (9) 
rxn_1670

>  <mol_properties>  (9) 
{"1": {"label": "*1", "atom_type": "Cs"}, "2": {"label": "*0", "atom_type": "S2s"}, "12": {"label": "*4", "atom_type": "Cd"}, "13": {"label": "*3", "atom_type": "Cd"}, "18": {"label": "*2", "atom_type": "H0"}}

>  <type>  (9) 
unop_5

>  <geom_source>  (9) 
Heuristics

$$$$

     RDKit          3D

 21 19  0  0  0  0  0  0  0  0999 V2000
    1.5075    1.4306   -0.9123 C   0  0  0  0  0  0  0  0  0  0  0  0
    0.0673    1.0017   -0.6688 C   0  0  0  0  0  3  0  0  0  0  0  0
   -0.4249    1.2193    1.0768 S   0  0  0  0  0  0  0  0  0  0  0  0
   -0.9037    1.6822   -1.6236 C   0  0  0  0  0  0  0  0  0  0  0  0
    2.1938    0.9151   -0.2415 H   0  0  0  0  0  0  0  0  0  0  0  0
    1.6197    2.5058   -0.7527 H   0  0  0  0  0  0  0  0  0  0  0  0
    1.7982    1.2134   -1.9434 H   0  0  0  0  0  0  0  0  0  0  0  0
   -0.2945    2.5536    1.1063 H   0  0  0  0  0  0  0  0  0  0  0  0
   -0.6298    1.4667   -2.6596 H   0  0  0  0  0  0  0  0  0  0  0  0
   -1.9261    1.3449   -1.4568 H   0  0  0  0  0  0  0  0  0  0  0  0
   -0.8773    2.7663   -1.4893 H   0  0  0  0  0  0  0  0  0  0  0  0
    0.0673   -2.4801   -1.5213 C   0  0  0  0  0  0  0  0  0  0  0  0
    0.0673   -2.4801   -0.1924 C   0  0  0  0  0  0  0  0  0  0  0  0
    0.0673   -1.2727    0.6229 C   0  0  0  0  0  0  0  0  0  0  0  0
    0.0673   -1.2727    1.9518 C   0  0  0  0  0  0  0  0  0  0  0  0
    0.0673   -1.5535   -2.0848 H   0  0  0  0  0  0  0  0  0  0  0  0
    0.0673   -3.4016   -2.0885 H   0  0  0  0  0  0  0  0  0  0  0  0
    0.0673   -3.4250    0.3442 H   0  0  0  0  0  0  0  0  0  0  0  0
    0.0673   -0.1388   -0.0211 H   0  0  0  0  0  0  0  0  0  0  0  0
    0.0673   -2.1994    2.5152 H   0  0  0  0  0  0  0  0  0  0  0  0
    0.0673   -0.3512    2.5189 H   0  0  0  0  0  0  0  0  0  0  0  0
  1  2  1  0
  1  5  1  0
  1  6  1  0
  1  7  1  0
  2  4  1  0
  2  3  1  0
  3  8  1  0
  4  9  1  0
  4 10  1  0
  4 11  1  0
 12 13  2  3
 12 16  1  0
 12 17  1  0
 13 14  1  0
 13 18  1  0
 14 15  2  3
 14 19  1  0
 15 20  1  0
 15 21  1  0
M  RAD  1   2   2
M  END
>  <reaction>  (10) 
rxn_1670

>  <mol_properties>  (10) 
{"1": {"label": "*1", "atom_type": "Cs"}, "2": {"label": "*0", "atom_type": "S2s"}, "12": {"label": "*4", "atom_type": "Cd"}, "13": {"label": "*3", "atom_type": "Cd"}, "18": {"label": "*2", "atom_type": "H0"}}

>  <type>  (10) 
unop_6

>  <geom_source>  (10) 
Heuristics

$$$$

     RDKit          3D

 21 19  0  0  0  0  0  0  0  0999 V2000
    1.4857    1.8262   -0.2145 C   0  0  0  0  0  0  0  0  0  0  0  0
    0.2385    1.0416   -0.5971 C   0  0  0  0  0  3  0  0  0  0  0  0
   -1.0018    1.0329    0.7439 S   0  0  0  0  0  0  0  0  0  0  0  0
   -0.3537    1.5133   -1.9178 C   0  0  0  0  0  0  0  0  0  0  0  0
    1.9146    1.4596    0.7175 H   0  0  0  0  0  0  0  0  0  0  0  0
    1.2484    2.8851   -0.0860 H   0  0  0  0  0  0  0  0  0  0  0  0
    2.2402    1.7455   -1.0013 H   0  0  0  0  0  0  0  0  0  0  0  0
   -1.2305    2.3543    0.7481 H   0  0  0  0  0  0  0  0  0  0  0  0
    0.3879    1.4305   -2.7165 H   0  0  0  0  0  0  0  0  0  0  0  0
   -1.2284    0.9250   -2.1929 H   0  0  0  0  0  0  0  0  0  0  0  0
   -0.6565    2.5611   -1.8500 H   0  0  0  0  0  0  0  0  0  0  0  0
    0.2385   -2.4401   -1.4496 C   0  0  0  0  0  0  0  0  0  0  0  0
    0.2385   -2.4401   -0.1207 C   0  0  0  0  0  0  0  0  0  0  0  0
    0.2385   -1.2328    0.6946 C   0  0  0  0  0  0  0  0  0  0  0  0
    0.2385   -1.2328    2.0234 C   0  0  0  0  0  0  0  0  0  0  0  0
    0.2385   -1.5135   -2.0131 H   0  0  0  0  0  0  0  0  0  0  0  0
    0.2385   -3.3617   -2.0168 H   0  0  0  0  0  0  0  0  0  0  0  0
    0.2385   -3.3851    0.4159 H   0  0  0  0  0  0  0  0  0  0  0  0
    0.2385   -0.0989    0.0506 H   0  0  0  0  0  0  0  0  0  0  0  0
    0.2385   -2.1594    2.5869 H   0  0  0  0  0  0  0  0  0  0  0  0
    0.2385   -0.3113    2.5906 H   0  0  0  0  0  0  0  0  0  0  0  0
  1  2  1  0
  1  5  1  0
  1  6  1  0
  1  7  1  0
  2  4  1  0
  2  3  1  0
  3  8  1  0
  4  9  1  0
  4 10  1  0
  4 11  1  0
 12 13  2  3
 12 16  1  0
 12 17  1  0
 13 14  1  0
 13 18  1  0
 14 15  2  3
 14 19  1  0
 15 20  1  0
 15 21  1  0
M  RAD  1   2   2
M  END
>  <reaction>  (11) 
rxn_1670

>  <mol_properties>  (11) 
{"1": {"label": "*1", "atom_type": "Cs"}, "2": {"label": "*0", "atom_type": "S2s"}, "12": {"label": "*4", "atom_type": "Cd"}, "13": {"label": "*3", "atom_type": "Cd"}, "18": {"label": "*2", "atom_type": "H0"}}

>  <type>  (11) 
unop_7

>  <geom_source>  (11) 
Heuristics

$$$$

     RDKit          3D

 21 19  0  0  0  0  0  0  0  0999 V2000
   -1.6092    1.3647   -0.4268 C   0  0  0  0  0  0  0  0  0  0  0  0
   -0.1690    0.9358   -0.1832 C   0  0  0  0  0  3  0  0  0  0  0  0
    0.9595    1.5656   -1.4740 S   0  0  0  0  0  0  0  0  0  0  0  0
    0.3085    1.2966    1.2166 C   0  0  0  0  0  0  0  0  0  0  0  0
   -1.9465    1.0752   -1.4214 H   0  0  0  0  0  0  0  0  0  0  0  0
   -1.7068    2.4494   -0.3371 H   0  0  0  0  0  0  0  0  0  0  0  0
   -2.2711    0.9070    0.3130 H   0  0  0  0  0  0  0  0  0  0  0  0
    0.7800    2.8682   -1.2105 H   0  0  0  0  0  0  0  0  0  0  0  0
   -0.3400    0.8384    1.9679 H   0  0  0  0  0  0  0  0  0  0  0  0
    1.3302    0.9589    1.3865 H   0  0  0  0  0  0  0  0  0  0  0  0
    0.2792    2.3789    1.3648 H   0  0  0  0  0  0  0  0  0  0  0  0
   -0.1690   -2.5460   -1.0357 C   0  0  0  0  0  0  0  0  0  0  0  0
   -0.1690   -2.5460    0.2932 C   0  0  0  0  0  0  0  0  0  0  0  0
   -0.1690   -1.3387    1.1084 C   0  0  0  0  0  0  0  0  0  0  0  0
   -0.1690   -1.3387    2.4373 C   0  0  0  0  0  0  0  0  0  0  0  0
   -0.1690   -1.6194   -1.5992 H   0  0  0  0  0  0  0  0  0  0  0  0
   -0.1690   -3.4675   -1.6029 H   0  0  0  0  0  0  0  0  0  0  0  0
   -0.1690   -3.4909    0.8298 H   0  0  0  0  0  0  0  0  0  0  0  0
   -0.1690   -0.2048    0.4645 H   0  0  0  0  0  0  0  0  0  0  0  0
   -0.1690   -2.2653    3.0008 H   0  0  0  0  0  0  0  0  0  0  0  0
   -0.1690   -0.4171    3.0045 H   0  0  0  0  0  0  0  0  0  0  0  0
  1  2  1  0
  1  5  1  0
  1  6  1  0
  1  7  1  0
  2  4  1  0
  2  3  1  0
  3  8  1  0
  4  9  1  0
  4 10  1  0
  4 11  1  0
 12 13  2  3
 12 16  1  0
 12 17  1  0
 13 14  1  0
 13 18  1  0
 14 15  2  3
 14 19  1  0
 15 20  1  0
 15 21  1  0
M  RAD  1   2   2
M  END
>  <reaction>  (12) 
rxn_1670

>  <mol_properties>  (12) 
{"1": {"label": "*1", "atom_type": "Cs"}, "2": {"label": "*0", "atom_type": "S2s"}, "12": {"label": "*4", "atom_type": "Cd"}, "13": {"label": "*3", "atom_type": "Cd"}, "18": {"label": "*2", "atom_type": "H0"}}

>  <type>  (12) 
unop_8

>  <geom_source>  (12) 
Heuristics

$$$$

     RDKit          3D

 21 19  0  0  0  0  0  0  0  0999 V2000
    0.4967    0.7655   -1.8458 C   0  0  0  0  0  0  0  0  0  0  0  0
   -0.2234    0.9525   -0.5177 C   0  0  0  0  0  3  0  0  0  0  0  0
    0.8954    1.5762    0.7846 S   0  0  0  0  0  0  0  0  0  0  0  0
   -1.4710    1.8136   -0.6574 C   0  0  0  0  0  0  0  0  0  0  0  0
    1.3709    0.1247   -1.7363 H   0  0  0  0  0  0  0  0  0  0  0  0
    0.8288    1.7287   -2.2411 H   0  0  0  0  0  0  0  0  0  0  0  0
   -0.1755    0.3160   -2.5812 H   0  0  0  0  0  0  0  0  0  0  0  0
    1.1685    2.7518    0.2003 H   0  0  0  0  0  0  0  0  0  0  0  0
   -2.1570    1.3713   -1.3845 H   0  0  0  0  0  0  0  0  0  0  0  0
   -1.9913    1.9155    0.2944 H   0  0  0  0  0  0  0  0  0  0  0  0
   -1.2091    2.8141   -1.0103 H   0  0  0  0  0  0  0  0  0  0  0  0
   -0.2234   -2.5293   -1.3702 C   0  0  0  0  0  0  0  0  0  0  0  0
   -0.2234   -2.5293   -0.0413 C   0  0  0  0  0  0  0  0  0  0  0  0
   -0.2234   -1.3219    0.7739 C   0  0  0  0  0  0  0  0  0  0  0  0
   -0.2234   -1.3219    2.1028 C   0  0  0  0  0  0  0  0  0  0  0  0
   -0.2234   -1.6027   -1.9337 H   0  0  0  0  0  0  0  0  0  0  0  0
   -0.2234   -3.4508   -1.9374 H   0  0  0  0  0  0  0  0  0  0  0  0
   -0.2234   -3.4742    0.4953 H   0  0  0  0  0  0  0  0  0  0  0  0
   -0.2234   -0.1880    0.1300 H   0  0  0  0  0  0  0  0  0  0  0  0
   -0.2234   -2.2485    2.6663 H   0  0  0  0  0  0  0  0  0  0  0  0
   -0.2234   -0.4004    2.6700 H   0  0  0  0  0  0  0  0  0  0  0  0
  1  2  1  0
  1  5  1  0
  1  6  1  0
  1  7  1  0
  2  4  1  0
  2  3  1  0
  3  8  1  0
  4  9  1  0
  4 10  1  0
  4 11  1  0
 12 13  2  3
 12 16  1  0
 12 17  1  0
 13 14  1  0
 13 18  1  0
 14 15  2  3
 14 19  1  0
 15 20  1  0
 15 21  1  0
M  RAD  1   2   2
M  END
>  <reaction>  (13) 
rxn_1670

>  <mol_properties>  (13) 
{"1": {"label": "*1", "atom_type": "Cs"}, "2": {"label": "*0", "atom_type": "S2s"}, "12": {"label": "*4", "atom_type": "Cd"}, "13": {"label": "*3", "atom_type": "Cd"}, "18": {"label": "*2", "atom_type": "H0"}}

>  <type>  (13) 
unop_9

>  <geom_source>  (13) 
Heuristics

$$$$

     RDKit          3D

 21 19  0  0  0  0  0  0  0  0999 V2000
   -1.4291    0.9906   -1.0981 C   0  0  0  0  0  0  0  0  0  0  0  0
   -0.1818    0.9172   -0.2283 C   0  0  0  0  0  3  0  0  0  0  0  0
    1.2592    1.7007   -1.0322 S   0  0  0  0  0  0  0  0  0  0  0  0
   -0.4238    1.4686    1.1699 C   0  0  0  0  0  0  0  0  0  0  0  0
   -1.2494    0.5671   -2.0857 H   0  0  0  0  0  0  0  0  0  0  0  0
   -1.7471    2.0282   -1.2259 H   0  0  0  0  0  0  0  0  0  0  0  0
   -2.2511    0.4442   -0.6284 H   0  0  0  0  0  0  0  0  0  0  0  0
    0.7552    2.9428   -1.0706 H   0  0  0  0  0  0  0  0  0  0  0  0
   -1.2388    0.9255    1.6554 H   0  0  0  0  0  0  0  0  0  0  0  0
    0.4683    1.3839    1.7895 H   0  0  0  0  0  0  0  0  0  0  0  0
   -0.7060    2.5232    1.1228 H   0  0  0  0  0  0  0  0  0  0  0  0
   -0.1818   -2.5646   -1.0809 C   0  0  0  0  0  0  0  0  0  0  0  0
   -0.1818   -2.5646    0.2480 C   0  0  0  0  0  0  0  0  0  0  0  0
   -0.1818   -1.3572    1.0633 C   0  0  0  0  0  0  0  0  0  0  0  0
   -0.1818   -1.3572    2.3922 C   0  0  0  0  0  0  0  0  0  0  0  0
   -0.1818   -1.6380   -1.6443 H   0  0  0  0  0  0  0  0  0  0  0  0
   -0.1818   -3.4861   -1.6481 H   0  0  0  0  0  0  0  0  0  0  0  0
   -0.1818   -3.5095    0.7846 H   0  0  0  0  0  0  0  0  0  0  0  0
   -0.1818   -0.2233    0.4193 H   0  0  0  0  0  0  0  0  0  0  0  0
   -0.1818   -2.2838    2.9556 H   0  0  0  0  0  0  0  0  0  0  0  0
   -0.1818   -0.4357    2.9594 H   0  0  0  0  0  0  0  0  0  0  0  0
  1  2  1  0
  1  5  1  0
  1  6  1  0
  1  7  1  0
  2  4  1  0
  2  3  1  0
  3  8  1  0
  4  9  1  0
  4 10  1  0
  4 11  1  0
 12 13  2  3
 12 16  1  0
 12 17  1  0
 13 14  1  0
 13 18  1  0
 14 15  2  3
 14 19  1  0
 15 20  1  0
 15 21  1  0
M  RAD  1   2   2
M  END
>  <reaction>  (14) 
rxn_1670

>  <mol_properties>  (14) 
{"1": {"label": "*1", "atom_type": "Cs"}, "2": {"label": "*0", "atom_type": "S2s"}, "12": {"label": "*4", "atom_type": "Cd"}, "13": {"label": "*3", "atom_type": "Cd"}, "18": {"label": "*2", "atom_type": "H0"}}

>  <type>  (14) 
unop_10

>  <geom_source>  (14) 
Heuristics

$$$$

     RDKit          3D

 21 19  0  0  0  0  0  0  0  0999 V2000
    1.0626    2.1204    0.4364 C   0  0  0  0  0  0  0  0  0  0  0  0
    0.3425    1.0756   -0.4046 C   0  0  0  0  0  3  0  0  0  0  0  0
   -1.4183    0.9221    0.0563 S   0  0  0  0  0  0  0  0  0  0  0  0
    0.5219    1.3167   -1.8969 C   0  0  0  0  0  0  0  0  0  0  0  0
    0.9494    1.9194    1.5011 H   0  0  0  0  0  0  0  0  0  0  0  0
    0.6632    3.1173    0.2344 H   0  0  0  0  0  0  0  0  0  0  0  0
    2.1286    2.1320    0.1949 H   0  0  0  0  0  0  0  0  0  0  0  0
   -1.7752    2.1675   -0.2899 H   0  0  0  0  0  0  0  0  0  0  0  0
    1.5842    1.3227   -2.1547 H   0  0  0  0  0  0  0  0  0  0  0  0
    0.0255    0.5462   -2.4858 H   0  0  0  0  0  0  0  0  0  0  0  0
    0.1032    2.2850   -2.1821 H   0  0  0  0  0  0  0  0  0  0  0  0
    0.3425   -2.4062   -1.2571 C   0  0  0  0  0  0  0  0  0  0  0  0
    0.3425   -2.4062    0.0718 C   0  0  0  0  0  0  0  0  0  0  0  0
    0.3425   -1.1989    0.8871 C   0  0  0  0  0  0  0  0  0  0  0  0
    0.3425   -1.1989    2.2159 C   0  0  0  0  0  0  0  0  0  0  0  0
    0.3425   -1.4796   -1.8206 H   0  0  0  0  0  0  0  0  0  0  0  0
    0.3425   -3.3277   -1.8243 H   0  0  0  0  0  0  0  0  0  0  0  0
    0.3425   -3.3511    0.6084 H   0  0  0  0  0  0  0  0  0  0  0  0
    0.3425   -0.0649    0.2431 H   0  0  0  0  0  0  0  0  0  0  0  0
    0.3425   -2.1255    2.7794 H   0  0  0  0  0  0  0  0  0  0  0  0
    0.3425   -0.2773    2.7831 H   0  0  0  0  0  0  0  0  0  0  0  0
  1  2  1  0
  1  5  1  0
  1  6  1  0
  1  7  1  0
  2  4  1  0
  2  3  1  0
  3  8  1  0
  4  9  1  0
  4 10  1  0
  4 11  1  0
 12 13  2  3
 12 16  1  0
 12 17  1  0
 13 14  1  0
 13 18  1  0
 14 15  2  3
 14 19  1  0
 15 20  1  0
 15 21  1  0
M  RAD  1   2   2
M  END
>  <reaction>  (15) 
rxn_1670

>  <mol_properties>  (15) 
{"1": {"label": "*1", "atom_type": "Cs"}, "2": {"label": "*0", "atom_type": "S2s"}, "12": {"label": "*4", "atom_type": "Cd"}, "13": {"label": "*3", "atom_type": "Cd"}, "18": {"label": "*2", "atom_type": "H0"}}

>  <type>  (15) 
unop_11

>  <geom_source>  (15) 
Heuristics

$$$$

     RDKit          3D

 21 19  0  0  0  0  0  0  0  0999 V2000
   -0.2502    0.6524   -1.8701 C   0  0  0  0  0  0  0  0  0  0  0  0
   -0.2502    0.9347   -0.3742 C   0  0  0  0  0  3  0  0  0  0  0  0
    1.3146    1.6988    0.1774 S   0  0  0  0  0  0  0  0  0  0  0  0
   -1.4637    1.7467    0.0568 C   0  0  0  0  0  0  0  0  0  0  0  0
    0.6081    0.0472   -2.1595 H   0  0  0  0  0  0  0  0  0  0  0  0
   -0.2142    1.5862   -2.4367 H   0  0  0  0  0  0  0  0  0  0  0  0
   -1.1629    0.1229   -2.1557 H   0  0  0  0  0  0  0  0  0  0  0  0
    1.1940    2.8261   -0.5388 H   0  0  0  0  0  0  0  0  0  0  0  0
   -2.3848    1.2248   -0.2153 H   0  0  0  0  0  0  0  0  0  0  0  0
   -1.4653    1.9169    1.1329 H   0  0  0  0  0  0  0  0  0  0  0  0
   -1.4709    2.7194   -0.4411 H   0  0  0  0  0  0  0  0  0  0  0  0
   -0.2502   -2.5471   -1.2267 C   0  0  0  0  0  0  0  0  0  0  0  0
   -0.2502   -2.5471    0.1022 C   0  0  0  0  0  0  0  0  0  0  0  0
   -0.2502   -1.3397    0.9175 C   0  0  0  0  0  0  0  0  0  0  0  0
   -0.2502   -1.3397    2.2464 C   0  0  0  0  0  0  0  0  0  0  0  0
   -0.2502   -1.6205   -1.7902 H   0  0  0  0  0  0  0  0  0  0  0  0
   -0.2502   -3.4686   -1.7939 H   0  0  0  0  0  0  0  0  0  0  0  0
   -0.2502   -3.4920    0.6388 H   0  0  0  0  0  0  0  0  0  0  0  0
   -0.2502   -0.2058    0.2735 H   0  0  0  0  0  0  0  0  0  0  0  0
   -0.2502   -2.2663    2.8098 H   0  0  0  0  0  0  0  0  0  0  0  0
   -0.2502   -0.4182    2.8135 H   0  0  0  0  0  0  0  0  0  0  0  0
  1  2  1  0
  1  5  1  0
  1  6  1  0
  1  7  1  0
  2  4  1  0
  2  3  1  0
  3  8  1  0
  4  9  1  0
  4 10  1  0
  4 11  1  0
 12 13  2  3
 12 16  1  0
 12 17  1  0
 13 14  1  0
 13 18  1  0
 14 15  2  3
 14 19  1  0
 15 20  1  0
 15 21  1  0
M  RAD  1   2   2
M  END
>  <reaction>  (16) 
rxn_1670

>  <mol_properties>  (16) 
{"1": {"label": "*1", "atom_type": "Cs"}, "2": {"label": "*0", "atom_type": "S2s"}, "12": {"label": "*4", "atom_type": "Cd"}, "13": {"label": "*3", "atom_type": "Cd"}, "18": {"label": "*2", "atom_type": "H0"}}

>  <type>  (16) 
unop_12

>  <geom_source>  (16) 
Heuristics

$$$$

     RDKit          3D

 21 19  0  0  0  0  0  0  0  0999 V2000
   -1.3240    1.3079   -1.0790 S   0  0  0  0  0  0  0  0  0  0  0  0
   -0.7569    0.2925    0.3277 C   0  0  0  0  0  3  0  0  0  0  0  0
   -1.1349    0.9594    1.6490 C   0  0  0  0  0  0  0  0  0  0  0  0
   -1.3377   -1.1170    0.2320 C   0  0  0  0  0  0  0  0  0  0  0  0
    1.5031   -0.7670   -0.9978 C   0  0  0  0  0  0  0  0  0  0  0  0
    1.0041   -1.7994   -0.3278 C   0  0  0  0  0  0  0  0  0  0  0  0
    2.2271    1.5673   -0.9650 C   0  0  0  0  0  0  0  0  0  0  0  0
    1.7297    0.5161   -0.3237 C   0  0  0  0  0  0  0  0  0  0  0  0
    0.6730    0.1982    0.2614 H   0  0  0  0  0  0  0  0  0  0  0  0
   -0.7394    0.3656    2.4999 H   0  0  0  0  0  0  0  0  0  0  0  0
   -2.2385    1.0426    1.7474 H   0  0  0  0  0  0  0  0  0  0  0  0
   -0.6900    1.9755    1.6969 H   0  0  0  0  0  0  0  0  0  0  0  0
   -0.9455   -1.7455    1.0593 H   0  0  0  0  0  0  0  0  0  0  0  0
   -1.0374   -1.5817   -0.7306 H   0  0  0  0  0  0  0  0  0  0  0  0
   -2.4468   -1.0916    0.2909 H   0  0  0  0  0  0  0  0  0  0  0  0
    1.7420   -0.8808   -2.0488 H   0  0  0  0  0  0  0  0  0  0  0  0
    0.8396   -2.7431   -0.8316 H   0  0  0  0  0  0  0  0  0  0  0  0
    0.7556   -1.7163    0.7234 H   0  0  0  0  0  0  0  0  0  0  0  0
    2.4849    1.5142   -2.0156 H   0  0  0  0  0  0  0  0  0  0  0  0
    2.3788    2.4953   -0.4310 H   0  0  0  0  0  0  0  0  0  0  0  0
   -2.6867    1.2076   -0.7371 H   0  0  0  0  0  0  0  0  0  0  0  0
  1  2  1  0
  1 21  1  0
  2  3  1  0
  2  4  1  0
  3 10  1  0
  3 11  1  0
  3 12  1  0
  4 13  1  0
  4 14  1  0
  4 15  1  0
  5  6  2  3
  5  8  1  0
  5 16  1  0
  6 17  1  0
  6 18  1  0
  7  8  2  3
  7 19  1  0
  7 20  1  0
  8  9  1  0
M  RAD  1   2   2
M  END
>  <reaction>  (17) 
rxn_1670

>  <mol_properties>  (17) 
{"1": {"label": "*1", "atom_type": "Cs"}, "2": {"label": "*0", "atom_type": "S2s"}, "12": {"label": "*4", "atom_type": "Cd"}, "13": {"label": "*3", "atom_type": "Cd"}, "18": {"label": "*2", "atom_type": "H0"}}

>  <type>  (17) 
unop_13

>  <geom_source>  (17) 
AutoTST

$$$$
