
     RDKit          3D

 12 11  0  0  0  0  0  0  0  0999 V2000
    1.2394   -0.3763   -0.3020 C   0  0  0  0  0  0  0  0  0  0  0  0
    0.1007    0.3024    0.4464 C   0  0  0  0  0  0  0  0  0  0  0  0
   -0.1187    2.0399   -0.0725 S   0  0  0  0  0  0  0  0  0  0  0  0
   -1.1974   -0.4877    0.3552 C   0  0  0  0  0  0  0  0  0  0  0  0
    2.1681    0.1850   -0.2048 H   0  0  0  0  0  0  0  0  0  0  0  0
    1.0030   -0.4604   -1.3656 H   0  0  0  0  0  0  0  0  0  0  0  0
    1.3993   -1.3856    0.0859 H   0  0  0  0  0  0  0  0  0  0  0  0
    0.3797    0.4050    1.4982 H   0  0  0  0  0  0  0  0  0  0  0  0
   -0.4500    1.7774   -1.3452 H   0  0  0  0  0  0  0  0  0  0  0  0
   -1.0545   -1.4977    0.7478 H   0  0  0  0  0  0  0  0  0  0  0  0
   -1.5206   -0.5758   -0.6849 H   0  0  0  0  0  0  0  0  0  0  0  0
   -1.9957   -0.0054    0.9183 H   0  0  0  0  0  0  0  0  0  0  0  0
  1  2  1  0
  1  5  1  0
  1  6  1  0
  1  7  1  0
  2  4  1  0
  2  3  1  0
  2  8  1  0
  3  9  1  0
  4 10  1  0
  4 11  1  0
  4 12  1  0
M  END
>  <reaction>  (1) 
rxn_1923

>  <mol_properties>  (1) 
{"1": {"label": "donator", "atom_type": "Cs"}, "7": {"label": "d_hydrogen", "atom_type": "H0"}}

>  <type>  (1) 
r1h

$$$$

     RDKit          3D

 17 17  0  0  0  0  0  0  0  0999 V2000
    2.7069    0.2860   -0.1817 C   0  0  0  0  0  0  0  0  0  0  0  0
    1.6304   -0.7245    0.0085 C   0  0  0  0  0  0  0  0  0  0  0  0
    1.4786   -1.8800   -0.7837 C   0  0  0  0  0  0  0  0  0  0  0  0
    0.4231   -2.7891   -0.5312 C   0  0  0  0  0  3  0  0  0  0  0  0
    0.2582   -3.9235   -1.2940 C   0  0  0  0  0  0  0  0  0  0  0  0
    1.1348   -4.2030   -2.3401 C   0  0  0  0  0  0  0  0  0  0  0  0
    2.1804   -3.3260   -2.6093 C   0  0  0  0  0  0  0  0  0  0  0  0
    2.3549   -2.1866   -1.8513 C   0  0  0  0  0  0  0  0  0  0  0  0
    2.6698    0.7343   -1.1808 H   0  0  0  0  0  0  0  0  0  0  0  0
    3.7029   -0.1584   -0.0766 H   0  0  0  0  0  0  0  0  0  0  0  0
    2.6250    1.0917    0.5463 H   0  0  0  0  0  0  0  0  0  0  0  0
    0.9136   -0.5677    0.8059 H   0  0  0  0  0  0  0  0  0  0  0  0
   -0.2629   -2.5783    0.2811 H   0  0  0  0  0  0  0  0  0  0  0  0
   -0.5582   -4.6017   -1.0785 H   0  0  0  0  0  0  0  0  0  0  0  0
    1.0033   -5.0952   -2.9384 H   0  0  0  0  0  0  0  0  0  0  0  0
    2.8650   -3.5382   -3.4214 H   0  0  0  0  0  0  0  0  0  0  0  0
    3.1750   -1.5169   -2.0772 H   0  0  0  0  0  0  0  0  0  0  0  0
  1  2  1  0
  1  9  1  0
  1 10  1  0
  1 11  1  0
  2  3  2  3
  2 12  1  0
  3  4  1  0
  3  8  1  0
  4  5  1  0
  4 13  1  0
  5  6  2  0
  5 14  1  0
  6  7  1  0
  6 15  1  0
  7  8  2  0
  7 16  1  0
  8 17  1  0
M  RAD  1   4   2
M  END
>  <reaction>  (2) 
rxn_1923

>  <mol_properties>  (2) 
{"1": {"label": "acceptor", "atom_type": "Cs"}}

>  <type>  (2) 
r2

$$$$

     RDKit          3D

 18 18  0  0  0  0  0  0  0  0999 V2000
   -2.4852    0.3210   -0.3966 C   0  0  0  0  0  0  0  0  0  0  0  0
   -1.5917   -0.2708    0.6941 C   0  0  0  0  0  0  0  0  0  0  0  0
   -0.1292   -0.1692    0.3493 C   0  0  0  0  0  0  0  0  0  0  0  0
    0.6099    0.9558    0.7015 C   0  0  0  0  0  0  0  0  0  0  0  0
    1.9447    1.0728    0.3458 C   0  0  0  0  0  0  0  0  0  0  0  0
    2.5646    0.0613   -0.3720 C   0  0  0  0  0  0  0  0  0  0  0  0
    1.8399   -1.0657   -0.7287 C   0  0  0  0  0  0  0  0  0  0  0  0
    0.5055   -1.1769   -0.3700 C   0  0  0  0  0  0  0  0  0  0  0  0
   -2.3325   -0.1971   -1.3452 H   0  0  0  0  0  0  0  0  0  0  0  0
   -2.2554    1.3763   -0.5546 H   0  0  0  0  0  0  0  0  0  0  0  0
   -3.5397    0.2376   -0.1280 H   0  0  0  0  0  0  0  0  0  0  0  0
   -1.7801    0.2462    1.6380 H   0  0  0  0  0  0  0  0  0  0  0  0
   -1.8568   -1.3190    0.8516 H   0  0  0  0  0  0  0  0  0  0  0  0
    0.1327    1.7497    1.2656 H   0  0  0  0  0  0  0  0  0  0  0  0
    2.5033    1.9550    0.6330 H   0  0  0  0  0  0  0  0  0  0  0  0
    3.6077    0.1491   -0.6484 H   0  0  0  0  0  0  0  0  0  0  0  0
    2.3163   -1.8632   -1.2854 H   0  0  0  0  0  0  0  0  0  0  0  0
   -0.0540   -2.0629   -0.6500 H   0  0  0  0  0  0  0  0  0  0  0  0
  1  2  1  0
  1  9  1  0
  1 10  1  0
  1 11  1  0
  2  3  1  0
  2 12  1  0
  2 13  1  0
  3  4  2  0
  3  8  1  0
  4  5  1  0
  4 14  1  0
  5  6  2  0
  5 15  1  0
  6  7  1  0
  6 16  1  0
  7  8  2  0
  7 17  1  0
  8 18  1  0
M  END
>  <reaction>  (3) 
rxn_1923

>  <mol_properties>  (3) 
{"0": {"label": "a_hydrogen", "atom_type": "H0"}, "2": {"label": "acceptor", "atom_type": "Cs"}}

>  <type>  (3) 
r2h

$$$$

     RDKit          3D

 29 28  0  0  0  0  0  0  0  0999 V2000
    0.6256    2.2847   -1.2619 C   0  0  0  0  0  0  0  0  0  0  0  0
    1.4022    1.5563   -0.1955 C   0  0  0  0  0  3  0  0  0  0  0  0
    2.3890    0.1819   -0.7640 S   0  0  0  0  0  0  0  0  0  0  0  0
    2.1799    2.4334    0.7528 C   0  0  0  0  0  0  0  0  0  0  0  0
   -0.0013    1.5990   -1.8345 H   0  0  0  0  0  0  0  0  0  0  0  0
    1.2956    2.7972   -1.9596 H   0  0  0  0  0  0  0  0  0  0  0  0
   -0.0250    3.0338   -0.8027 H   0  0  0  0  0  0  0  0  0  0  0  0
    0.4179    0.9871    0.5697 H   0  0  0  0  0  0  0  0  0  0  0  0
    1.4257   -0.4238   -1.4734 H   0  0  0  0  0  0  0  0  0  0  0  0
    1.5083    3.1577    1.2190 H   0  0  0  0  0  0  0  0  0  0  0  0
    2.9623    2.9951    0.2309 H   0  0  0  0  0  0  0  0  0  0  0  0
    2.6528    1.8487    1.5433 H   0  0  0  0  0  0  0  0  0  0  0  0
    0.2508   -0.2248    2.4248 C   0  0  0  0  0  0  0  0  0  0  0  0
   -0.5187    0.3729    1.2734 C   0  0  0  0  0  0  0  0  0  0  0  0
   -1.1536   -0.5170    0.2898 C   0  0  0  0  0  0  0  0  0  0  0  0
   -2.1638   -0.0254   -0.5457 C   0  0  0  0  0  0  0  0  0  0  0  0
   -2.7274   -0.8129   -1.5326 C   0  0  0  0  0  0  0  0  0  0  0  0
   -2.2965   -2.1208   -1.7140 C   0  0  0  0  0  0  0  0  0  0  0  0
   -1.3004   -2.6268   -0.8927 C   0  0  0  0  0  0  0  0  0  0  0  0
   -0.7347   -1.8369    0.0956 C   0  0  0  0  0  0  0  0  0  0  0  0
    1.1230   -0.7814    2.0735 H   0  0  0  0  0  0  0  0  0  0  0  0
   -0.3670   -0.9090    3.0142 H   0  0  0  0  0  0  0  0  0  0  0  0
    0.6110    0.5601    3.0907 H   0  0  0  0  0  0  0  0  0  0  0  0
   -1.1660    1.2005    1.5629 H   0  0  0  0  0  0  0  0  0  0  0  0
   -2.5061    0.9949   -0.4116 H   0  0  0  0  0  0  0  0  0  0  0  0
   -3.5094   -0.4074   -2.1627 H   0  0  0  0  0  0  0  0  0  0  0  0
   -2.7375   -2.7399   -2.4847 H   0  0  0  0  0  0  0  0  0  0  0  0
   -0.9602   -3.6471   -1.0210 H   0  0  0  0  0  0  0  0  0  0  0  0
    0.0445   -2.2505    0.7226 H   0  0  0  0  0  0  0  0  0  0  0  0
  1  2  1  0
  1  5  1  0
  1  6  1  0
  1  7  1  0
  2  4  1  0
  2  3  1  0
  3  9  1  0
  4 10  1  0
  4 11  1  0
  4 12  1  0
  8 14  1  0
 13 14  1  0
 13 21  1  0
 13 22  1  0
 13 23  1  0
 14 15  1  0
 14 24  1  0
 15 16  2  0
 15 20  1  0
 16 17  1  0
 16 25  1  0
 17 18  2  0
 17 26  1  0
 18 19  1  0
 18 27  1  0
 19 20  2  0
 19 28  1  0
 20 29  1  0
M  RAD  1   2   2
M  END
>  <reaction>  (4) 
rxn_1923

>  <mol_properties>  (4) 
{"1": {"label": "*3", "atom_type": "Cs"}, "2": {"label": "*4", "atom_type": "S2s"}, "7": {"label": "*2", "atom_type": "H0"}, "13": {"label": "*1", "atom_type": "Cs"}, "14": {"label": "*0", "atom_type": "Cd"}}

>  <type>  (4) 
ts

$$$$

     RDKit          3D

 29 28  0  0  0  0  0  0  0  0999 V2000
    2.1332    1.0160   -1.7295 C   0  0  0  0  0  0  0  0  0  0  0  0
    2.1332    1.0160   -0.2072 C   0  0  0  0  0  3  0  0  0  0  0  0
    3.4883   -0.0003    0.4764 S   0  0  0  0  0  0  0  0  0  0  0  0
    2.1332    2.4260    0.3668 C   0  0  0  0  0  0  0  0  0  0  0  0
    2.1046    0.0017   -2.1262 H   0  0  0  0  0  0  0  0  0  0  0  0
    3.0316    1.5057   -2.1131 H   0  0  0  0  0  0  0  0  0  0  0  0
    1.2662    1.5634   -2.1084 H   0  0  0  0  0  0  0  0  0  0  0  0
    1.0653    0.3841    0.2178 H   0  0  0  0  0  0  0  0  0  0  0  0
    4.4942    0.7355   -0.0185 H   0  0  0  0  0  0  0  0  0  0  0  0
    1.2662    2.9833    0.0026 H   0  0  0  0  0  0  0  0  0  0  0  0
    3.0316    2.9659    0.0579 H   0  0  0  0  0  0  0  0  0  0  0  0
    2.1046    2.4110    1.4558 H   0  0  0  0  0  0  0  0  0  0  0  0
    0.4211   -1.4483    1.4896 C   0  0  0  0  0  0  0  0  0  0  0  0
   -0.0022   -0.2475    0.6427 C   0  0  0  0  0  0  0  0  0  0  0  0
   -1.4181   -0.3728    0.1448 C   0  0  0  0  0  0  0  0  0  0  0  0
   -2.4847    0.1009    0.9023 C   0  0  0  0  0  0  0  0  0  0  0  0
   -3.7923   -0.0536    0.4684 C   0  0  0  0  0  0  0  0  0  0  0  0
   -4.0552   -0.6880   -0.7362 C   0  0  0  0  0  0  0  0  0  0  0  0
   -3.0014   -1.1641   -1.5015 C   0  0  0  0  0  0  0  0  0  0  0  0
   -1.6960   -1.0065   -1.0622 C   0  0  0  0  0  0  0  0  0  0  0  0
    0.3543   -2.3720    0.9117 H   0  0  0  0  0  0  0  0  0  0  0  0
   -0.2275   -1.5550    2.3610 H   0  0  0  0  0  0  0  0  0  0  0  0
    1.4488   -1.3383    1.8402 H   0  0  0  0  0  0  0  0  0  0  0  0
    0.0966    0.6663    1.2333 H   0  0  0  0  0  0  0  0  0  0  0  0
   -2.2868    0.6009    1.8441 H   0  0  0  0  0  0  0  0  0  0  0  0
   -4.6082    0.3256    1.0711 H   0  0  0  0  0  0  0  0  0  0  0  0
   -5.0753   -0.8073   -1.0786 H   0  0  0  0  0  0  0  0  0  0  0  0
   -3.1961   -1.6570   -2.4459 H   0  0  0  0  0  0  0  0  0  0  0  0
   -0.8768   -1.3788   -1.6677 H   0  0  0  0  0  0  0  0  0  0  0  0
  1  2  1  0
  1  5  1  0
  1  6  1  0
  1  7  1  0
  2  4  1  0
  2  3  1  0
  3  9  1  0
  4 10  1  0
  4 11  1  0
  4 12  1  0
  8 14  1  0
 13 14  1  0
 13 21  1  0
 13 22  1  0
 13 23  1  0
 14 15  1  0
 14 24  1  0
 15 16  2  0
 15 20  1  0
 16 17  1  0
 16 25  1  0
 17 18  2  0
 17 26  1  0
 18 19  1  0
 18 27  1  0
 19 20  2  0
 19 28  1  0
 20 29  1  0
M  RAD  1   2   2
M  END
>  <reaction>  (5) 
rxn_1923

>  <mol_properties>  (5) 
{"1": {"label": "*3", "atom_type": "Cs"}, "2": {"label": "*4", "atom_type": "S2s"}, "7": {"label": "*2", "atom_type": "H0"}, "13": {"label": "*1", "atom_type": "Cs"}, "14": {"label": "*0", "atom_type": "Cd"}}

>  <type>  (5) 
unop_1

>  <geom_source>  (5) 
Heuristics

$$$$

     RDKit          3D

 29 28  0  0  0  0  0  0  0  0999 V2000
    2.0312    0.3091   -2.4345 C   0  0  0  0  0  0  0  0  0  0  0  0
    2.0312    0.3091   -0.9121 C   0  0  0  0  0  3  0  0  0  0  0  0
    3.3864   -0.7072   -0.2286 S   0  0  0  0  0  0  0  0  0  0  0  0
    2.0312    1.7191   -0.3381 C   0  0  0  0  0  0  0  0  0  0  0  0
    2.0027   -0.7051   -2.8311 H   0  0  0  0  0  0  0  0  0  0  0  0
    2.9297    0.7989   -2.8180 H   0  0  0  0  0  0  0  0  0  0  0  0
    1.1643    0.8566   -2.8133 H   0  0  0  0  0  0  0  0  0  0  0  0
    0.9634   -0.3228   -0.4871 H   0  0  0  0  0  0  0  0  0  0  0  0
    4.3923    0.0287   -0.7235 H   0  0  0  0  0  0  0  0  0  0  0  0
    1.1643    2.2764   -0.7023 H   0  0  0  0  0  0  0  0  0  0  0  0
    2.9297    2.2590   -0.6471 H   0  0  0  0  0  0  0  0  0  0  0  0
    2.0027    1.7041    0.7508 H   0  0  0  0  0  0  0  0  0  0  0  0
   -0.4990   -2.0259   -1.0792 C   0  0  0  0  0  0  0  0  0  0  0  0
   -0.1041   -0.9544   -0.0623 C   0  0  0  0  0  0  0  0  0  0  0  0
   -1.3020   -0.2411    0.5074 C   0  0  0  0  0  0  0  0  0  0  0  0
   -1.9477   -0.7252    1.6408 C   0  0  0  0  0  0  0  0  0  0  0  0
   -3.0778   -0.0973    2.1412 C   0  0  0  0  0  0  0  0  0  0  0  0
   -3.5829    1.0307    1.5124 C   0  0  0  0  0  0  0  0  0  0  0  0
   -2.9486    1.5242    0.3825 C   0  0  0  0  0  0  0  0  0  0  0  0
   -1.8188    0.8919   -0.1131 C   0  0  0  0  0  0  0  0  0  0  0  0
   -1.0482   -1.5844   -1.9128 H   0  0  0  0  0  0  0  0  0  0  0  0
   -1.1432   -2.7774   -0.6189 H   0  0  0  0  0  0  0  0  0  0  0  0
    0.3820   -2.5304   -1.4796 H   0  0  0  0  0  0  0  0  0  0  0  0
    0.4649   -1.4154    0.7486 H   0  0  0  0  0  0  0  0  0  0  0  0
   -1.5566   -1.6051    2.1399 H   0  0  0  0  0  0  0  0  0  0  0  0
   -3.5634   -0.4879    3.0269 H   0  0  0  0  0  0  0  0  0  0  0  0
   -4.4636    1.5245    1.9030 H   0  0  0  0  0  0  0  0  0  0  0  0
   -3.3328    2.4072   -0.1132 H   0  0  0  0  0  0  0  0  0  0  0  0
   -1.3264    1.2856   -0.9955 H   0  0  0  0  0  0  0  0  0  0  0  0
  1  2  1  0
  1  5  1  0
  1  6  1  0
  1  7  1  0
  2  4  1  0
  2  3  1  0
  3  9  1  0
  4 10  1  0
  4 11  1  0
  4 12  1  0
  8 14  1  0
 13 14  1  0
 13 21  1  0
 13 22  1  0
 13 23  1  0
 14 15  1  0
 14 24  1  0
 15 16  2  0
 15 20  1  0
 16 17  1  0
 16 25  1  0
 17 18  2  0
 17 26  1  0
 18 19  1  0
 18 27  1  0
 19 20  2  0
 19 28  1  0
 20 29  1  0
M  RAD  1   2   2
M  END
>  <reaction>  (6) 
rxn_1923

>  <mol_properties>  (6) 
{"1": {"label": "*3", "atom_type": "Cs"}, "2": {"label": "*4", "atom_type": "S2s"}, "7": {"label": "*2", "atom_type": "H0"}, "13": {"label": "*1", "atom_type": "Cs"}, "14": {"label": "*0", "atom_type": "Cd"}}

>  <type>  (6) 
unop_2

>  <geom_source>  (6) 
Heuristics

$$$$

     RDKit          3D

 29 28  0  0  0  0  0  0  0  0999 V2000
    1.8166    1.5009   -1.5285 C   0  0  0  0  0  0  0  0  0  0  0  0
    1.8166    1.5009   -0.0061 C   0  0  0  0  0  3  0  0  0  0  0  0
    3.1717    0.4846    0.6774 S   0  0  0  0  0  0  0  0  0  0  0  0
    1.8166    2.9109    0.5678 C   0  0  0  0  0  0  0  0  0  0  0  0
    1.7881    0.4867   -1.9252 H   0  0  0  0  0  0  0  0  0  0  0  0
    2.7150    1.9907   -1.9121 H   0  0  0  0  0  0  0  0  0  0  0  0
    0.9497    2.0483   -1.9073 H   0  0  0  0  0  0  0  0  0  0  0  0
    0.7487    0.8690    0.4189 H   0  0  0  0  0  0  0  0  0  0  0  0
    4.1776    1.2204    0.1825 H   0  0  0  0  0  0  0  0  0  0  0  0
    0.9497    3.4682    0.2037 H   0  0  0  0  0  0  0  0  0  0  0  0
    2.7150    3.4508    0.2589 H   0  0  0  0  0  0  0  0  0  0  0  0
    1.7881    2.8959    1.6568 H   0  0  0  0  0  0  0  0  0  0  0  0
   -0.0170   -0.4219    2.1900 C   0  0  0  0  0  0  0  0  0  0  0  0
   -0.3188    0.2374    0.8437 C   0  0  0  0  0  0  0  0  0  0  0  0
   -1.3384   -0.5340    0.0477 C   0  0  0  0  0  0  0  0  0  0  0  0
   -2.6984   -0.2806    0.1953 C   0  0  0  0  0  0  0  0  0  0  0  0
   -3.6418   -1.0197   -0.5016 C   0  0  0  0  0  0  0  0  0  0  0  0
   -3.2376   -2.0297   -1.3614 C   0  0  0  0  0  0  0  0  0  0  0  0
   -1.8852   -2.2922   -1.5185 C   0  0  0  0  0  0  0  0  0  0  0  0
   -0.9466   -1.5495   -0.8189 C   0  0  0  0  0  0  0  0  0  0  0  0
    0.3704   -1.4325    2.0476 H   0  0  0  0  0  0  0  0  0  0  0  0
   -0.9221   -0.4963    2.7958 H   0  0  0  0  0  0  0  0  0  0  0  0
    0.7230    0.1517    2.7506 H   0  0  0  0  0  0  0  0  0  0  0  0
   -0.6808    1.2547    1.0106 H   0  0  0  0  0  0  0  0  0  0  0  0
   -3.0221    0.5099    0.8636 H   0  0  0  0  0  0  0  0  0  0  0  0
   -4.6955   -0.8040   -0.3755 H   0  0  0  0  0  0  0  0  0  0  0  0
   -3.9723   -2.6063   -1.9089 H   0  0  0  0  0  0  0  0  0  0  0  0
   -1.5592   -3.0760   -2.1911 H   0  0  0  0  0  0  0  0  0  0  0  0
    0.1096   -1.7587   -0.9493 H   0  0  0  0  0  0  0  0  0  0  0  0
  1  2  1  0
  1  5  1  0
  1  6  1  0
  1  7  1  0
  2  4  1  0
  2  3  1  0
  3  9  1  0
  4 10  1  0
  4 11  1  0
  4 12  1  0
  8 14  1  0
 13 14  1  0
 13 21  1  0
 13 22  1  0
 13 23  1  0
 14 15  1  0
 14 24  1  0
 15 16  2  0
 15 20  1  0
 16 17  1  0
 16 25  1  0
 17 18  2  0
 17 26  1  0
 18 19  1  0
 18 27  1  0
 19 20  2  0
 19 28  1  0
 20 29  1  0
M  RAD  1   2   2
M  END
>  <reaction>  (7) 
rxn_1923

>  <mol_properties>  (7) 
{"1": {"label": "*3", "atom_type": "Cs"}, "2": {"label": "*4", "atom_type": "S2s"}, "7": {"label": "*2", "atom_type": "H0"}, "13": {"label": "*1", "atom_type": "Cs"}, "14": {"label": "*0", "atom_type": "Cd"}}

>  <type>  (7) 
unop_3

>  <geom_source>  (7) 
Heuristics

$$$$

     RDKit          3D

 29 24  0  0  0  0  0  0  0  0999 V2000
    0.7465    0.2815   -3.1215 C   0  0  0  0  0  0  0  0  0  0  0  0
    0.7465    0.2815   -1.5991 C   0  0  0  0  0  2  0  0  0  0  0  0
    2.1016   -0.7348   -0.9156 S   0  0  0  0  0  0  0  0  0  0  0  0
    0.7465    1.6915   -1.0252 C   0  0  0  0  0 15  0  0  0  0  0  0
    0.7179   -0.7328   -3.5182 H   0  0  0  0  0  0  0  0  0  0  0  0
    1.6449    0.7712   -3.5051 H   0  0  0  0  0  0  0  0  0  0  0  0
   -0.1205    0.8289   -3.5003 H   0  0  0  0  0  0  0  0  0  0  0  0
   -0.3214   -0.3504   -1.1741 H   0  0  0  0  0  0  0  0  0  0  0  0
    3.1075    0.0010   -1.4105 H   0  0  0  0  0  0  0  0  0  0  0  0
   -0.1205    2.2488   -1.3893 H   0  0  0  0  0  0  0  0  0  0  0  0
    1.6449    2.2314   -1.3341 H   0  0  0  0  0  0  0  0  0  0  0  0
    0.7179    1.6765    0.0638 H   0  0  0  0  0  0  0  0  0  0  0  0
   -2.6398   -0.2710   -1.2668 C   0  0  0  0  0  0  0  0  0  0  0  0
   -1.3889   -0.9820   -0.7493 C   0  0  0  0  0  0  0  0  0  0  0  0
   -0.9417   -0.4480    0.5860 C   0  0  0  0  0  3  0  0  0  0  0  0
   -1.4348   -0.9861    1.7705 C   0  0  0  0  0  3  0  0  0  0  0  0
   -1.0606   -0.4670    3.0003 C   0  0  0  0  0  3  0  0  0  0  0  0
   -0.1828    0.6045    3.0652 C   0  0  0  0  0  3  0  0  0  0  0  0
    0.3168    1.1498    1.8923 C   0  0  0  0  0  3  0  0  0  0  0  0
   -0.0611    0.6263    0.6655 C   0  0  0  0  0  3  0  0  0  0  0  0
   -2.4564    0.7988   -1.3832 H   0  0  0  0  0  0  0  0  0  0  0  0
   -3.4699   -0.3908   -0.5680 H   0  0  0  0  0  0  0  0  0  0  0  0
   -2.9472   -0.6721   -2.2341 H   0  0  0  0  0  0  0  0  0  0  0  0
   -1.5887   -2.0529   -0.6648 H   0  0  0  0  0  0  0  0  0  0  0  0
   -2.1193   -1.8262    1.7279 H   0  0  0  0  0  0  0  0  0  0  0  0
   -1.4529   -0.9028    3.9108 H   0  0  0  0  0  0  0  0  0  0  0  0
    0.1132    1.0097    4.0245 H   0  0  0  0  0  0  0  0  0  0  0  0
    1.0065    1.9839    1.9326 H   0  0  0  0  0  0  0  0  0  0  0  0
    0.3363    1.0561   -0.2474 H   0  0  0  0  0  0  0  0  0  0  0  0
  1  5  1  0
  1  2  1  0
  1  7  1  0
  1  6  1  0
  2  3  1  0
  3  9  1  0
  8 14  1  0
 13 21  1  0
 13 22  1  0
 13 14  1  0
 13 23  1  0
 14 24  1  0
 14 15  1  0
 15 16  1  0
 15 20  1  0
 16 25  1  0
 16 17  1  0
 17 18  1  0
 17 26  1  0
 18 27  1  0
 18 19  1  0
 19 28  1  0
 19 20  1  0
 20 29  1  0
M  RAD  7   2   3  15   2  16   2  17   2  18   2  19   2  20   2
M  END
>  <reaction>  (8) 
rxn_1923

>  <mol_properties>  (8) 
{"1": {"label": "*3", "atom_type": "Cs"}, "2": {"label": "*4", "atom_type": "S2s"}, "7": {"label": "*2", "atom_type": "H0"}, "13": {"label": "*1", "atom_type": "Cs"}, "14": {"label": "*0", "atom_type": "Cd"}}

>  <type>  (8) 
unop_4

>  <geom_source>  (8) 
Heuristics

$$$$

     RDKit          3D

 29 28  0  0  0  0  0  0  0  0999 V2000
    1.0171    1.9559   -1.7282 C   0  0  0  0  0  0  0  0  0  0  0  0
    1.0171    1.9559   -0.2059 C   0  0  0  0  0  3  0  0  0  0  0  0
    2.3723    0.9396    0.4777 S   0  0  0  0  0  0  0  0  0  0  0  0
    1.0171    3.3659    0.3681 C   0  0  0  0  0  0  0  0  0  0  0  0
    0.9886    0.9416   -2.1249 H   0  0  0  0  0  0  0  0  0  0  0  0
    1.9156    2.4456   -2.1118 H   0  0  0  0  0  0  0  0  0  0  0  0
    0.1502    2.5033   -2.1071 H   0  0  0  0  0  0  0  0  0  0  0  0
   -0.0508    1.3240    0.2191 H   0  0  0  0  0  0  0  0  0  0  0  0
    3.3782    1.6754   -0.0172 H   0  0  0  0  0  0  0  0  0  0  0  0
    0.1502    3.9232    0.0039 H   0  0  0  0  0  0  0  0  0  0  0  0
    1.9155    3.9058    0.0591 H   0  0  0  0  0  0  0  0  0  0  0  0
    0.9886    3.3508    1.4571 H   0  0  0  0  0  0  0  0  0  0  0  0
   -1.1299    0.6855    2.1730 C   0  0  0  0  0  0  0  0  0  0  0  0
   -1.1183    0.6923    0.6440 C   0  0  0  0  0  0  0  0  0  0  0  0
   -1.1407   -0.6991    0.0681 C   0  0  0  0  0  0  0  0  0  0  0  0
   -2.3459   -1.3439   -0.1917 C   0  0  0  0  0  0  0  0  0  0  0  0
   -2.3704   -2.6416   -0.6786 C   0  0  0  0  0  0  0  0  0  0  0  0
   -1.1836   -3.3188   -0.9145 C   0  0  0  0  0  0  0  0  0  0  0  0
    0.0247   -2.6876   -0.6607 C   0  0  0  0  0  0  0  0  0  0  0  0
    0.0427   -1.3897   -0.1738 C   0  0  0  0  0  0  0  0  0  0  0  0
   -0.2616    0.1519    2.5641 H   0  0  0  0  0  0  0  0  0  0  0  0
   -2.0238    0.1857    2.5508 H   0  0  0  0  0  0  0  0  0  0  0  0
   -1.1133    1.7019    2.5700 H   0  0  0  0  0  0  0  0  0  0  0  0
   -1.9816    1.2524    0.2768 H   0  0  0  0  0  0  0  0  0  0  0  0
   -3.2782   -0.8196   -0.0126 H   0  0  0  0  0  0  0  0  0  0  0  0
   -3.3192   -3.1243   -0.8779 H   0  0  0  0  0  0  0  0  0  0  0  0
   -1.2002   -4.3312   -1.2975 H   0  0  0  0  0  0  0  0  0  0  0  0
    0.9571   -3.2064   -0.8458 H   0  0  0  0  0  0  0  0  0  0  0  0
    0.9917   -0.9016    0.0194 H   0  0  0  0  0  0  0  0  0  0  0  0
  1  2  1  0
  1  5  1  0
  1  6  1  0
  1  7  1  0
  2  4  1  0
  2  3  1  0
  3  9  1  0
  4 10  1  0
  4 11  1  0
  4 12  1  0
  8 14  1  0
 13 14  1  0
 13 21  1  0
 13 22  1  0
 13 23  1  0
 14 15  1  0
 14 24  1  0
 15 16  2  0
 15 20  1  0
 16 17  1  0
 16 25  1  0
 17 18  2  0
 17 26  1  0
 18 19  1  0
 18 27  1  0
 19 20  2  0
 19 28  1  0
 20 29  1  0
M  RAD  1   2   2
M  END
>  <reaction>  (9) 
rxn_1923

>  <mol_properties>  (9) 
{"1": {"label": "*3", "atom_type": "Cs"}, "2": {"label": "*4", "atom_type": "S2s"}, "7": {"label": "*2", "atom_type": "H0"}, "13": {"label": "*1", "atom_type": "Cs"}, "14": {"label": "*0", "atom_type": "Cd"}}

>  <type>  (9) 
unop_5

>  <geom_source>  (9) 
Heuristics

$$$$

     RDKit          3D

 29 27  0  0  0  0  0  0  0  0999 V2000
    0.3429    0.7093   -3.0707 C   0  0  0  0  0  0  0  0  0  0  0  0
    0.3429    0.7093   -1.5484 C   0  0  0  0  0  1  0  0  0  0  0  0
    1.6980   -0.3070   -0.8648 S   0  0  0  0  0  0  0  0  0  0  0  0
    0.3429    2.1193   -0.9744 C   0  0  0  0  0  3  0  0  0  0  0  0
    0.3144   -0.3049   -3.4674 H   0  0  0  0  0  0  0  0  0  0  0  0
    1.2413    1.1990   -3.4543 H   0  0  0  0  0  0  0  0  0  0  0  0
   -0.5240    1.2567   -3.4496 H   0  0  0  0  0  0  0  0  0  0  0  0
   -0.7250    0.0774   -1.1234 H   0  0  0  0  0  0  0  0  0  0  0  0
    2.7039    0.4288   -1.3597 H   0  0  0  0  0  0  0  0  0  0  0  0
   -0.5240    2.6766   -1.3386 H   0  0  0  0  0  0  0  0  0  0  0  0
    1.2413    2.6592   -1.2834 H   0  0  0  0  0  0  0  0  0  0  0  0
    0.3144    2.1043    0.1145 H   0  0  0  0  0  0  0  0  0  0  0  0
   -2.9407    0.4421   -0.5339 C   0  0  0  0  0  0  0  0  0  0  0  0
   -1.7925   -0.5542   -0.6985 C   0  0  0  0  0  0  0  0  0  0  0  0
   -0.8739   -0.5667    0.4949 C   0  0  0  0  0  0  0  0  0  0  0  0
   -1.1196   -1.4087    1.5749 C   0  0  0  0  0  0  0  0  0  0  0  0
   -0.3024   -1.3900    2.6946 C   0  0  0  0  0  0  0  0  0  0  0  0
    0.7792   -0.5242    2.7522 C   0  0  0  0  0  0  0  0  0  0  0  0
    1.0360    0.3196    1.6823 C   0  0  0  0  0  3  0  0  0  0  0  0
    0.2151    0.2963    0.5654 C   0  0  0  0  0  0  0  0  0  0  0  0
   -2.5574    1.4556   -0.4011 H   0  0  0  0  0  0  0  0  0  0  0  0
   -3.5421    0.1977    0.3437 H   0  0  0  0  0  0  0  0  0  0  0  0
   -3.5939    0.4359   -1.4081 H   0  0  0  0  0  0  0  0  0  0  0  0
   -2.2003   -1.5557   -0.8547 H   0  0  0  0  0  0  0  0  0  0  0  0
   -1.9619   -2.0908    1.5359 H   0  0  0  0  0  0  0  0  0  0  0  0
   -0.5087   -2.0562    3.5232 H   0  0  0  0  0  0  0  0  0  0  0  0
    1.4205   -0.5100    3.6243 H   0  0  0  0  0  0  0  0  0  0  0  0
    1.8809    0.9963    1.7158 H   0  0  0  0  0  0  0  0  0  0  0  0
    0.4242    0.9571   -0.2688 H   0  0  0  0  0  0  0  0  0  0  0  0
  1  2  1  0
  1  5  1  0
  1  6  1  0
  1  7  1  0
  3 20  1  0
  3  9  1  0
  4 10  1  0
  4 11  1  0
  4 12  1  0
  8 14  1  0
 13 14  1  0
 13 21  1  0
 13 22  1  0
 13 23  1  0
 14 15  1  0
 14 24  1  0
 15 16  2  0
 15 20  1  0
 16 17  1  0
 16 25  1  0
 17 18  2  0
 17 26  1  0
 18 19  1  0
 18 27  1  0
 19 20  1  0
 19 28  1  0
 20 29  1  0
M  RAD  3   2   2   4   2  19   2
M  END
>  <reaction>  (10) 
rxn_1923

>  <mol_properties>  (10) 
{"1": {"label": "*3", "atom_type": "Cs"}, "2": {"label": "*4", "atom_type": "S2s"}, "7": {"label": "*2", "atom_type": "H0"}, "13": {"label": "*1", "atom_type": "Cs"}, "14": {"label": "*0", "atom_type": "Cd"}}

>  <type>  (10) 
unop_6

>  <geom_source>  (10) 
Heuristics

$$$$

     RDKit          3D

 29 27  0  0  0  0  0  0  0  0999 V2000
    0.1454    1.2230   -2.8025 C   0  0  0  0  0  0  0  0  0  0  0  0
    0.1454    1.2230   -1.2802 C   0  0  0  0  0  2  0  0  0  0  0  0
    1.5005    0.2067   -0.5966 S   0  0  0  0  0  1  0  0  0  0  0  0
    0.1454    2.6330   -0.7062 C   0  0  0  0  0  0  0  0  0  0  0  0
    0.1168    0.2087   -3.1992 H   0  0  0  0  0  0  0  0  0  0  0  0
    1.0438    1.7127   -3.1861 H   0  0  0  0  0  0  0  0  0  0  0  0
   -0.7216    1.7704   -3.1814 H   0  0  0  0  0  0  0  0  0  0  0  0
   -0.9225    0.5911   -0.8552 H   0  0  0  0  0  0  0  0  0  0  0  0
    2.5064    0.9425   -1.0915 H   0  0  0  0  0  0  0  0  0  0  0  0
   -0.7216    3.1903   -1.0704 H   0  0  0  0  0  0  0  0  0  0  0  0
    1.0438    3.1729   -1.0152 H   0  0  0  0  0  0  0  0  0  0  0  0
    0.1168    2.6180    0.3828 H   0  0  0  0  0  0  0  0  0  0  0  0
   -2.8387    0.9085    0.4165 C   0  0  0  0  0  0  0  0  0  0  0  0
   -1.9900   -0.0405   -0.4303 C   0  0  0  0  0  0  0  0  0  0  0  0
   -0.8701   -0.6629    0.3613 C   0  0  0  0  0  0  0  0  0  0  0  0
   -1.0631   -1.8535    1.0548 C   0  0  0  0  0  0  0  0  0  0  0  0
   -0.0485   -2.4053    1.8216 C   0  0  0  0  0  0  0  0  0  0  0  0
    1.1818   -1.7714    1.9076 C   0  0  0  0  0  0  0  0  0  0  0  0
    1.3879   -0.5846    1.2208 C   0  0  0  0  0  0  0  0  0  0  0  0
    0.3693   -0.0378    0.4556 C   0  0  0  0  0  0  0  0  0  0  0  0
   -2.2281    1.7190    0.8187 H   0  0  0  0  0  0  0  0  0  0  0  0
   -3.2849    0.3795    1.2607 H   0  0  0  0  0  0  0  0  0  0  0  0
   -3.6436    1.3484   -0.1748 H   0  0  0  0  0  0  0  0  0  0  0  0
   -2.6264   -0.8277   -0.8417 H   0  0  0  0  0  0  0  0  0  0  0  0
   -2.0217   -2.3567    0.9898 H   0  0  0  0  0  0  0  0  0  0  0  0
   -0.2179   -3.3349    2.3507 H   0  0  0  0  0  0  0  0  0  0  0  0
    1.9766   -2.2019    2.5034 H   0  0  0  0  0  0  0  0  0  0  0  0
    2.3466   -0.0842    1.2780 H   0  0  0  0  0  0  0  0  0  0  0  0
    0.5391    0.8891   -0.0812 H   0  0  0  0  0  0  0  0  0  0  0  0
  1  2  1  0
  1  5  1  0
  1  6  1  0
  1  7  1  0
  2  4  1  0
  3  9  1  0
  4 10  1  0
  4 11  1  0
  4 12  1  0
  8 14  1  0
 13 14  1  0
 13 21  1  0
 13 22  1  0
 13 23  1  0
 14 15  1  0
 14 24  1  0
 15 16  2  0
 15 20  1  0
 16 17  1  0
 16 25  1  0
 17 18  2  0
 17 26  1  0
 18 19  1  0
 18 27  1  0
 19 20  2  0
 19 28  1  0
 20 29  1  0
M  RAD  2   2   3   3   2
M  END
>  <reaction>  (11) 
rxn_1923

>  <mol_properties>  (11) 
{"1": {"label": "*3", "atom_type": "Cs"}, "2": {"label": "*4", "atom_type": "S2s"}, "7": {"label": "*2", "atom_type": "H0"}, "13": {"label": "*1", "atom_type": "Cs"}, "14": {"label": "*0", "atom_type": "Cd"}}

>  <type>  (11) 
unop_7

>  <geom_source>  (11) 
Heuristics

$$$$

     RDKit          3D

 29 28  0  0  0  0  0  0  0  0999 V2000
    2.1964    0.7283   -1.9980 C   0  0  0  0  0  0  0  0  0  0  0  0
    2.1964    0.7283   -0.4757 C   0  0  0  0  0  3  0  0  0  0  0  0
    3.5515   -0.2880    0.2079 S   0  0  0  0  0  0  0  0  0  0  0  0
    2.1964    2.1383    0.0983 C   0  0  0  0  0  0  0  0  0  0  0  0
    2.1679   -0.2859   -2.3947 H   0  0  0  0  0  0  0  0  0  0  0  0
    3.0948    1.2180   -2.3816 H   0  0  0  0  0  0  0  0  0  0  0  0
    1.3295    1.2757   -2.3769 H   0  0  0  0  0  0  0  0  0  0  0  0
    1.1285    0.0964   -0.0507 H   0  0  0  0  0  0  0  0  0  0  0  0
    4.5574    0.4478   -0.2870 H   0  0  0  0  0  0  0  0  0  0  0  0
    1.3295    2.6956   -0.2659 H   0  0  0  0  0  0  0  0  0  0  0  0
    3.0948    2.6782   -0.2107 H   0  0  0  0  0  0  0  0  0  0  0  0
    2.1679    2.1233    1.1873 H   0  0  0  0  0  0  0  0  0  0  0  0
    0.3817   -2.0212    0.5389 C   0  0  0  0  0  0  0  0  0  0  0  0
    0.0610   -0.5352    0.3742 C   0  0  0  0  0  0  0  0  0  0  0  0
   -1.4201   -0.2795    0.2784 C   0  0  0  0  0  0  0  0  0  0  0  0
   -2.1815   -0.0621    1.4224 C   0  0  0  0  0  0  0  0  0  0  0  0
   -3.5523    0.1281    1.3418 C   0  0  0  0  0  0  0  0  0  0  0  0
   -4.1868    0.1034    0.1091 C   0  0  0  0  0  0  0  0  0  0  0  0
   -3.4398   -0.1115   -1.0391 C   0  0  0  0  0  0  0  0  0  0  0  0
   -2.0692   -0.3010   -0.9520 C   0  0  0  0  0  0  0  0  0  0  0  0
    0.0012   -2.5952   -0.3081 H   0  0  0  0  0  0  0  0  0  0  0  0
   -0.0817   -2.4190    1.4437 H   0  0  0  0  0  0  0  0  0  0  0  0
    1.4586   -2.1851    0.6063 H   0  0  0  0  0  0  0  0  0  0  0  0
    0.4727    0.0210    1.2197 H   0  0  0  0  0  0  0  0  0  0  0  0
   -1.6918   -0.0383    2.3899 H   0  0  0  0  0  0  0  0  0  0  0  0
   -4.1263    0.2996    2.2440 H   0  0  0  0  0  0  0  0  0  0  0  0
   -5.2568    0.2546    0.0433 H   0  0  0  0  0  0  0  0  0  0  0  0
   -3.9253   -0.1281   -2.0070 H   0  0  0  0  0  0  0  0  0  0  0  0
   -1.4912   -0.4654   -1.8548 H   0  0  0  0  0  0  0  0  0  0  0  0
  1  2  1  0
  1  5  1  0
  1  6  1  0
  1  7  1  0
  2  4  1  0
  2  3  1  0
  3  9  1  0
  4 10  1  0
  4 11  1  0
  4 12  1  0
  8 14  1  0
 13 14  1  0
 13 21  1  0
 13 22  1  0
 13 23  1  0
 14 15  1  0
 14 24  1  0
 15 16  2  0
 15 20  1  0
 16 17  1  0
 16 25  1  0
 17 18  2  0
 17 26  1  0
 18 19  1  0
 18 27  1  0
 19 20  2  0
 19 28  1  0
 20 29  1  0
M  RAD  1   2   2
M  END
>  <reaction>  (12) 
rxn_1923

>  <mol_properties>  (12) 
{"1": {"label": "*3", "atom_type": "Cs"}, "2": {"label": "*4", "atom_type": "S2s"}, "7": {"label": "*2", "atom_type": "H0"}, "13": {"label": "*1", "atom_type": "Cs"}, "14": {"label": "*0", "atom_type": "Cd"}}

>  <type>  (12) 
unop_8

>  <geom_source>  (12) 
Heuristics

$$$$

     RDKit          3D

 29 27  0  0  0  0  0  0  0  0999 V2000
    1.2618    0.0476   -2.9661 C   0  0  0  0  0  0  0  0  0  0  0  0
    1.2618    0.0476   -1.4438 C   0  0  0  0  0  2  0  0  0  0  0  0
    2.6169   -0.9687   -0.7602 S   0  0  0  0  0  0  0  0  0  0  0  0
    1.2618    1.4576   -0.8698 C   0  0  0  0  0  3  0  0  0  0  0  0
    1.2332   -0.9666   -3.3628 H   0  0  0  0  0  0  0  0  0  0  0  0
    2.1602    0.5373   -3.3497 H   0  0  0  0  0  0  0  0  0  0  0  0
    0.3948    0.5950   -3.3450 H   0  0  0  0  0  0  0  0  0  0  0  0
    0.1939   -0.5843   -1.0188 H   0  0  0  0  0  0  0  0  0  0  0  0
    3.6228   -0.2329   -1.2552 H   0  0  0  0  0  0  0  0  0  0  0  0
    0.3948    2.0149   -1.2340 H   0  0  0  0  0  0  0  0  0  0  0  0
    2.1602    1.9975   -1.1788 H   0  0  0  0  0  0  0  0  0  0  0  0
    1.2332    1.4426    0.2191 H   0  0  0  0  0  0  0  0  0  0  0  0
   -2.0029   -1.0463   -1.6109 C   0  0  0  0  0  0  0  0  0  0  0  0
   -0.8736   -1.2159   -0.5940 C   0  0  0  0  0  0  0  0  0  0  0  0
   -1.0589   -0.3367    0.6147 C   0  0  0  0  0  0  0  0  0  0  0  0
   -1.7824   -0.7823    1.7164 C   0  0  0  0  0  0  0  0  0  0  0  0
   -1.9939    0.0407    2.8117 C   0  0  0  0  0  0  0  0  0  0  0  0
   -1.4825    1.3296    2.8224 C   0  0  0  0  0  0  0  0  0  0  0  0
   -0.7588    1.7861    1.7313 C   0  0  0  0  0  0  0  0  0  0  0  0
   -0.5508    0.9583    0.6390 C   0  0  0  0  0  0  0  0  0  0  0  0
   -2.0581   -0.0131   -1.9589 H   0  0  0  0  0  0  0  0  0  0  0  0
   -2.9667   -1.2973   -1.1641 H   0  0  0  0  0  0  0  0  0  0  0  0
   -1.8502   -1.6911   -2.4780 H   0  0  0  0  0  0  0  0  0  0  0  0
   -0.8220   -2.2610   -0.2796 H   0  0  0  0  0  0  0  0  0  0  0  0
   -2.1829   -1.7903    1.7166 H   0  0  0  0  0  0  0  0  0  0  0  0
   -2.5566   -0.3267    3.6609 H   0  0  0  0  0  0  0  0  0  0  0  0
   -1.6438    1.9732    3.6779 H   0  0  0  0  0  0  0  0  0  0  0  0
   -0.3515    2.7896    1.7320 H   0  0  0  0  0  0  0  0  0  0  0  0
    0.0190    1.3214   -0.2094 H   0  0  0  0  0  0  0  0  0  0  0  0
  1  2  1  0
  1  5  1  0
  1  6  1  0
  1  7  1  0
  2  3  1  0
  3  9  1  0
  4 10  1  0
  4 11  1  0
  4 12  1  0
  8 14  1  0
 13 14  1  0
 13 21  1  0
 13 22  1  0
 13 23  1  0
 14 15  1  0
 14 24  1  0
 15 16  2  0
 15 20  1  0
 16 17  1  0
 16 25  1  0
 17 18  2  0
 17 26  1  0
 18 19  1  0
 18 27  1  0
 19 20  2  0
 19 28  1  0
 20 29  1  0
M  RAD  2   2   3   4   2
M  END
>  <reaction>  (13) 
rxn_1923

>  <mol_properties>  (13) 
{"1": {"label": "*3", "atom_type": "Cs"}, "2": {"label": "*4", "atom_type": "S2s"}, "7": {"label": "*2", "atom_type": "H0"}, "13": {"label": "*1", "atom_type": "Cs"}, "14": {"label": "*0", "atom_type": "Cd"}}

>  <type>  (13) 
unop_9

>  <geom_source>  (13) 
Heuristics

$$$$

     RDKit          3D

 29 28  0  0  0  0  0  0  0  0999 V2000
    2.1579    0.5289   -2.2253 C   0  0  0  0  0  0  0  0  0  0  0  0
    2.1579    0.5289   -0.7029 C   0  0  0  0  0  3  0  0  0  0  0  0
    3.5131   -0.4874   -0.0194 S   0  0  0  0  0  0  0  0  0  0  0  0
    2.1579    1.9389   -0.1290 C   0  0  0  0  0  0  0  0  0  0  0  0
    2.1294   -0.4854   -2.6220 H   0  0  0  0  0  0  0  0  0  0  0  0
    3.0564    1.0186   -2.6089 H   0  0  0  0  0  0  0  0  0  0  0  0
    1.2910    1.0763   -2.6041 H   0  0  0  0  0  0  0  0  0  0  0  0
    1.0901   -0.1030   -0.2779 H   0  0  0  0  0  0  0  0  0  0  0  0
    4.5190    0.2484   -0.5143 H   0  0  0  0  0  0  0  0  0  0  0  0
    1.2910    2.4962   -0.4932 H   0  0  0  0  0  0  0  0  0  0  0  0
    3.0564    2.4788   -0.4379 H   0  0  0  0  0  0  0  0  0  0  0  0
    2.1294    1.9239    0.9600 H   0  0  0  0  0  0  0  0  0  0  0  0
    0.0437   -2.1734   -0.3706 C   0  0  0  0  0  0  0  0  0  0  0  0
    0.0226   -0.7347    0.1469 C   0  0  0  0  0  0  0  0  0  0  0  0
   -1.3774   -0.2430    0.4052 C   0  0  0  0  0  0  0  0  0  0  0  0
   -1.9830   -0.4338    1.6431 C   0  0  0  0  0  0  0  0  0  0  0  0
   -3.2876   -0.0235    1.8701 C   0  0  0  0  0  0  0  0  0  0  0  0
   -4.0111    0.5872    0.8570 C   0  0  0  0  0  0  0  0  0  0  0  0
   -3.4192    0.7844   -0.3813 C   0  0  0  0  0  0  0  0  0  0  0  0
   -2.1143    0.3719   -0.6021 C   0  0  0  0  0  0  0  0  0  0  0  0
   -0.5136   -2.2564   -1.3055 H   0  0  0  0  0  0  0  0  0  0  0  0
   -0.4168   -2.8508    0.3509 H   0  0  0  0  0  0  0  0  0  0  0  0
    1.0659   -2.5103   -0.5513 H   0  0  0  0  0  0  0  0  0  0  0  0
    0.6065   -0.6715    1.0682 H   0  0  0  0  0  0  0  0  0  0  0  0
   -1.4224   -0.9080    2.4413 H   0  0  0  0  0  0  0  0  0  0  0  0
   -3.7395   -0.1780    2.8421 H   0  0  0  0  0  0  0  0  0  0  0  0
   -5.0290    0.9112    1.0328 H   0  0  0  0  0  0  0  0  0  0  0  0
   -3.9744    1.2645   -1.1776 H   0  0  0  0  0  0  0  0  0  0  0  0
   -1.6571    0.5323   -1.5724 H   0  0  0  0  0  0  0  0  0  0  0  0
  1  2  1  0
  1  5  1  0
  1  6  1  0
  1  7  1  0
  2  4  1  0
  2  3  1  0
  3  9  1  0
  4 10  1  0
  4 11  1  0
  4 12  1  0
  8 14  1  0
 13 14  1  0
 13 21  1  0
 13 22  1  0
 13 23  1  0
 14 15  1  0
 14 24  1  0
 15 16  2  0
 15 20  1  0
 16 17  1  0
 16 25  1  0
 17 18  2  0
 17 26  1  0
 18 19  1  0
 18 27  1  0
 19 20  2  0
 19 28  1  0
 20 29  1  0
M  RAD  1   2   2
M  END
>  <reaction>  (14) 
rxn_1923

>  <mol_properties>  (14) 
{"1": {"label": "*3", "atom_type": "Cs"}, "2": {"label": "*4", "atom_type": "S2s"}, "7": {"label": "*2", "atom_type": "H0"}, "13": {"label": "*1", "atom_type": "Cs"}, "14": {"label": "*0", "atom_type": "Cd"}}

>  <type>  (14) 
unop_10

>  <geom_source>  (14) 
Heuristics

$$$$

     RDKit          3D

 29 28  0  0  0  0  0  0  0  0999 V2000
    0.2921    1.7408   -2.3239 C   0  0  0  0  0  0  0  0  0  0  0  0
    0.2921    1.7408   -0.8015 C   0  0  0  0  0  0  0  0  0  0  0  0
    1.6472    0.7245   -0.1179 S   0  0  0  0  0  4  0  0  0  0  0  0
    0.2921    3.1508   -0.2275 C   0  0  0  0  0  0  0  0  0  0  0  0
    0.2635    0.7265   -2.7205 H   0  0  0  0  0  0  0  0  0  0  0  0
    1.1905    2.2305   -2.7074 H   0  0  0  0  0  0  0  0  0  0  0  0
   -0.5749    2.2882   -2.7027 H   0  0  0  0  0  0  0  0  0  0  0  0
   -0.7758    1.1089   -0.3765 H   0  0  0  0  0  0  0  0  0  0  0  0
    2.6531    1.4603   -0.6129 H   0  0  0  0  0  0  0  0  0  0  0  0
   -0.5749    3.7081   -0.5917 H   0  0  0  0  0  0  0  0  0  0  0  0
    1.1905    3.6907   -0.5365 H   0  0  0  0  0  0  0  0  0  0  0  0
    0.2635    3.1357    0.8614 H   0  0  0  0  0  0  0  0  0  0  0  0
   -2.2760    1.0591    1.3946 C   0  0  0  0  0  0  0  0  0  0  0  0
   -1.8433    0.4772    0.0483 C   0  0  0  0  0  0  0  0  0  0  0  0
   -0.9476   -0.7229    0.2082 C   0  0  0  0  0  0  0  0  0  0  0  0
   -1.4824   -2.0034    0.3083 C   0  0  0  0  0  0  0  0  0  0  0  0
   -0.6640   -3.1055    0.5015 C   0  0  0  0  0  0  0  0  0  0  0  0
    0.7097   -2.9435    0.5983 C   0  0  0  0  0  0  0  0  0  0  0  0
    1.2560   -1.6729    0.4994 C   0  0  0  0  0  0  0  0  0  0  0  0
    0.4323   -0.5747    0.3062 C   0  0  0  0  0  3  0  0  0  0  0  0
   -1.4078    1.3700    1.9786 H   0  0  0  0  0  0  0  0  0  0  0  0
   -2.8204    0.3159    1.9802 H   0  0  0  0  0  0  0  0  0  0  0  0
   -2.9236    1.9267    1.2571 H   0  0  0  0  0  0  0  0  0  0  0  0
   -2.7285    0.1969   -0.5275 H   0  0  0  0  0  0  0  0  0  0  0  0
   -2.5557   -2.1384    0.2304 H   0  0  0  0  0  0  0  0  0  0  0  0
   -1.0999   -4.0943    0.5730 H   0  0  0  0  0  0  0  0  0  0  0  0
    1.3512   -3.8030    0.7462 H   0  0  0  0  0  0  0  0  0  0  0  0
    2.3281   -1.5364    0.5692 H   0  0  0  0  0  0  0  0  0  0  0  0
    0.8672    0.4157    0.2267 H   0  0  0  0  0  0  0  0  0  0  0  0
  1  2  1  0
  1  5  1  0
  1  6  1  0
  1  7  1  0
  2  4  1  0
  2  3  2  3
  3  9  1  0
  3 29  1  0
  4 10  1  0
  4 11  1  0
  4 12  1  0
  8 14  1  0
 13 14  1  0
 13 21  1  0
 13 22  1  0
 13 23  1  0
 14 15  1  0
 14 24  1  0
 15 16  2  0
 15 20  1  0
 16 17  1  0
 16 25  1  0
 17 18  2  0
 17 26  1  0
 18 19  1  0
 18 27  1  0
 19 20  2  0
 19 28  1  0
M  RAD  1  20   2
M  END
>  <reaction>  (15) 
rxn_1923

>  <mol_properties>  (15) 
{"1": {"label": "*3", "atom_type": "Cs"}, "2": {"label": "*4", "atom_type": "S2s"}, "7": {"label": "*2", "atom_type": "H0"}, "13": {"label": "*1", "atom_type": "Cs"}, "14": {"label": "*0", "atom_type": "Cd"}}

>  <type>  (15) 
unop_11

>  <geom_source>  (15) 
Heuristics

$$$$

     RDKit          3D

 29 28  0  0  0  0  0  0  0  0999 V2000
    1.7383    0.0890   -2.6918 C   0  0  0  0  0  0  0  0  0  0  0  0
    1.7383    0.0890   -1.1695 C   0  0  0  0  0  3  0  0  0  0  0  0
    3.0934   -0.9273   -0.4859 S   0  0  0  0  0  0  0  0  0  0  0  0
    1.7383    1.4990   -0.5955 C   0  0  0  0  0  0  0  0  0  0  0  0
    1.7097   -0.9253   -3.0885 H   0  0  0  0  0  0  0  0  0  0  0  0
    2.6367    0.5787   -3.0754 H   0  0  0  0  0  0  0  0  0  0  0  0
    0.8714    0.6364   -3.0707 H   0  0  0  0  0  0  0  0  0  0  0  0
    0.6704   -0.5429   -0.7445 H   0  0  0  0  0  0  0  0  0  0  0  0
    4.0993   -0.1915   -0.9808 H   0  0  0  0  0  0  0  0  0  0  0  0
    0.8714    2.0563   -0.9597 H   0  0  0  0  0  0  0  0  0  0  0  0
    2.6367    2.0389   -0.9045 H   0  0  0  0  0  0  0  0  0  0  0  0
    1.7097    1.4839    0.4935 H   0  0  0  0  0  0  0  0  0  0  0  0
   -1.2131   -1.6574   -1.5193 C   0  0  0  0  0  0  0  0  0  0  0  0
   -0.3971   -1.1746   -0.3196 C   0  0  0  0  0  0  0  0  0  0  0  0
   -1.1921   -0.2668    0.5815 C   0  0  0  0  0  0  0  0  0  0  0  0
   -1.9535   -0.7857    1.6240 C   0  0  0  0  0  0  0  0  0  0  0  0
   -2.7227    0.0424    2.4268 C   0  0  0  0  0  0  0  0  0  0  0  0
   -2.7428    1.4099    2.1983 C   0  0  0  0  0  0  0  0  0  0  0  0
   -1.9879    1.9404    1.1632 C   0  0  0  0  0  0  0  0  0  0  0  0
   -1.2208    1.1071    0.3639 C   0  0  0  0  0  0  0  0  0  0  0  0
   -1.5551   -0.8124   -2.1198 H   0  0  0  0  0  0  0  0  0  0  0  0
   -2.0957   -2.2088   -1.1901 H   0  0  0  0  0  0  0  0  0  0  0  0
   -0.6197   -2.3130   -2.1590 H   0  0  0  0  0  0  0  0  0  0  0  0
   -0.0453   -2.0373    0.2511 H   0  0  0  0  0  0  0  0  0  0  0  0
   -1.9405   -1.8540    1.8108 H   0  0  0  0  0  0  0  0  0  0  0  0
   -3.3053   -0.3810    3.2356 H   0  0  0  0  0  0  0  0  0  0  0  0
   -3.3403    2.0590    2.8258 H   0  0  0  0  0  0  0  0  0  0  0  0
   -1.9934    3.0077    0.9795 H   0  0  0  0  0  0  0  0  0  0  0  0
   -0.6305    1.5297   -0.4419 H   0  0  0  0  0  0  0  0  0  0  0  0
  1  2  1  0
  1  5  1  0
  1  6  1  0
  1  7  1  0
  2  4  1  0
  2  3  1  0
  3  9  1  0
  4 10  1  0
  4 11  1  0
  4 12  1  0
  8 14  1  0
 13 14  1  0
 13 21  1  0
 13 22  1  0
 13 23  1  0
 14 15  1  0
 14 24  1  0
 15 16  2  0
 15 20  1  0
 16 17  1  0
 16 25  1  0
 17 18  2  0
 17 26  1  0
 18 19  1  0
 18 27  1  0
 19 20  2  0
 19 28  1  0
 20 29  1  0
M  RAD  1   2   2
M  END
>  <reaction>  (16) 
rxn_1923

>  <mol_properties>  (16) 
{"1": {"label": "*3", "atom_type": "Cs"}, "2": {"label": "*4", "atom_type": "S2s"}, "7": {"label": "*2", "atom_type": "H0"}, "13": {"label": "*1", "atom_type": "Cs"}, "14": {"label": "*0", "atom_type": "Cd"}}

>  <type>  (16) 
unop_12

>  <geom_source>  (16) 
Heuristics

$$$$

     RDKit          3D

 29 28  0  0  0  0  0  0  0  0999 V2000
   -1.7623    0.6432    2.2498 S   0  0  0  0  0  0  0  0  0  0  0  0
    0.0264    0.2547   -1.0047 C   0  0  0  0  0  0  0  0  0  0  0  0
    0.0936   -0.6218   -2.2496 C   0  0  0  0  0  0  0  0  0  0  0  0
   -3.0462    1.1617   -0.1334 C   0  0  0  0  0  0  0  0  0  0  0  0
   -2.6549   -1.2556    0.4720 C   0  0  0  0  0  0  0  0  0  0  0  0
    1.2926    0.1405   -0.2020 C   0  0  0  0  0  0  0  0  0  0  0  0
   -2.0965    0.1633    0.5241 C   0  0  0  0  0  0  0  0  0  0  0  0
    1.4099   -0.8415    0.7948 C   0  0  0  0  0  3  0  0  0  0  0  0
    2.3859    0.9791   -0.4761 C   0  0  0  0  0  0  0  0  0  0  0  0
    2.5978   -0.9675    1.5221 C   0  0  0  0  0  0  0  0  0  0  0  0
    3.6773   -0.1213    1.2530 C   0  0  0  0  0  0  0  0  0  0  0  0
    3.5720    0.8499    0.2534 C   0  0  0  0  0  0  0  0  0  0  0  0
   -0.1419    1.3115   -1.3065 H   0  0  0  0  0  0  0  0  0  0  0  0
   -1.0437   -0.1311   -0.2457 H   0  0  0  0  0  0  0  0  0  0  0  0
    0.9379   -0.3064   -2.8994 H   0  0  0  0  0  0  0  0  0  0  0  0
   -0.8530   -0.5244   -2.8209 H   0  0  0  0  0  0  0  0  0  0  0  0
    0.2273   -1.6863   -1.9620 H   0  0  0  0  0  0  0  0  0  0  0  0
   -2.5954    2.1759   -0.1170 H   0  0  0  0  0  0  0  0  0  0  0  0
   -3.2219    0.8773   -1.1922 H   0  0  0  0  0  0  0  0  0  0  0  0
   -4.0185    1.1880    0.4037 H   0  0  0  0  0  0  0  0  0  0  0  0
   -3.6171   -1.3180    1.0241 H   0  0  0  0  0  0  0  0  0  0  0  0
   -1.9283   -1.9600    0.9284 H   0  0  0  0  0  0  0  0  0  0  0  0
   -2.8190   -1.5602   -0.5831 H   0  0  0  0  0  0  0  0  0  0  0  0
    0.5843   -1.5095    1.0071 H   0  0  0  0  0  0  0  0  0  0  0  0
    2.6827   -1.7234    2.2921 H   0  0  0  0  0  0  0  0  0  0  0  0
    2.3195    1.7301   -1.2537 H   0  0  0  0  0  0  0  0  0  0  0  0
    4.5963   -0.2210    1.8160 H   0  0  0  0  0  0  0  0  0  0  0  0
    4.4106    1.5006    0.0417 H   0  0  0  0  0  0  0  0  0  0  0  0
   -1.0153    1.7722    1.8640 H   0  0  0  0  0  0  0  0  0  0  0  0
  1  7  1  0
  1 29  1  0
  2  3  1  0
  2  6  2  3
  2 13  1  0
  3 15  1  0
  3 16  1  0
  3 17  1  0
  4  7  1  0
  4 18  1  0
  4 19  1  0
  4 20  1  0
  5  7  1  0
  5 21  1  0
  5 22  1  0
  5 23  1  0
  6  8  1  0
  6  9  1  0
  7 14  1  0
  8 10  1  0
  8 24  1  0
  9 12  2  0
  9 26  1  0
 10 11  2  0
 10 25  1  0
 11 12  1  0
 11 27  1  0
 12 28  1  0
M  RAD  1   8   2
M  END
>  <reaction>  (17) 
rxn_1923

>  <mol_properties>  (17) 
{"1": {"label": "*3", "atom_type": "Cs"}, "2": {"label": "*4", "atom_type": "S2s"}, "7": {"label": "*2", "atom_type": "H0"}, "13": {"label": "*1", "atom_type": "Cs"}, "14": {"label": "*0", "atom_type": "Cd"}}

>  <type>  (17) 
unop_13

>  <geom_source>  (17) 
AutoTST

$$$$
