
     RDKit          3D

  7  6  0  0  0  0  0  0  0  0999 V2000
    1.2985   -0.0065   -0.2721 C   0  0  0  0  0  0  0  0  0  0  0  0
    0.0000    0.0000   -0.2926 C   0  0  0  0  0  0  0  0  0  0  0  0
   -1.2985    0.0065   -0.3130 C   0  0  0  0  0  0  0  0  0  0  0  0
    1.8444   -0.7551    0.2895 H   0  0  0  0  0  0  0  0  0  0  0  0
    1.8693    0.7364   -0.8162 H   0  0  0  0  0  0  0  0  0  0  0  0
   -1.8658    0.5623    0.4239 H   0  0  0  0  0  0  0  0  0  0  0  0
   -1.8479   -0.5437   -1.0675 H   0  0  0  0  0  0  0  0  0  0  0  0
  1  2  2  0
  1  4  1  0
  1  5  1  0
  2  3  2  0
  3  6  1  0
  3  7  1  0
M  END
>  <reaction>  (1) 
rxn_1810

>  <mol_properties>  (1) 
{"0": {"label": "donator", "atom_type": "Cd"}, "3": {"label": "d_hydrogen", "atom_type": "H0"}}

>  <type>  (1) 
r1h

$$$$

     RDKit          3D

 12 11  0  0  0  0  0  0  0  0999 V2000
    2.7049    0.9350   -0.4404 S   0  0  0  0  0  1  0  0  0  0  0  0
    1.0313    1.0813   -0.4080 C   0  0  0  0  0  0  0  0  0  0  0  0
    0.1364    0.1019   -0.0473 C   0  0  0  0  0  0  0  0  0  0  0  0
    0.5360   -1.2679    0.3784 C   0  0  0  0  0  0  0  0  0  0  0  0
   -1.3304    0.3842   -0.0689 C   0  0  0  0  0  0  0  0  0  0  0  0
    0.6069    2.0398   -0.6990 H   0  0  0  0  0  0  0  0  0  0  0  0
    0.1578   -1.4699    1.3849 H   0  0  0  0  0  0  0  0  0  0  0  0
    0.0783   -2.0109   -0.2814 H   0  0  0  0  0  0  0  0  0  0  0  0
    1.6154   -1.3973    0.3689 H   0  0  0  0  0  0  0  0  0  0  0  0
   -1.8406   -0.3126   -0.7406 H   0  0  0  0  0  0  0  0  0  0  0  0
   -1.5514    1.4016   -0.3887 H   0  0  0  0  0  0  0  0  0  0  0  0
   -1.7610    0.2281    0.9247 H   0  0  0  0  0  0  0  0  0  0  0  0
  1  2  1  0
  2  3  2  3
  2  6  1  0
  3  4  1  0
  3  5  1  0
  4  7  1  0
  4  8  1  0
  4  9  1  0
  5 10  1  0
  5 11  1  0
  5 12  1  0
M  RAD  1   1   2
M  END
>  <reaction>  (2) 
rxn_1810

>  <mol_properties>  (2) 
{"2": {"label": "acceptor", "atom_type": "Cs"}}

>  <type>  (2) 
r2

$$$$

     RDKit          3D

 13 12  0  0  0  0  0  0  0  0999 V2000
    2.7452   -1.1134   -0.3601 S   0  0  0  0  0  0  0  0  0  0  0  0
    1.4120   -0.4899    0.2856 C   0  0  0  0  0  0  0  0  0  0  0  0
    0.1714   -0.0257   -0.4180 C   0  0  0  0  0  0  0  0  0  0  0  0
   -0.0717    1.4493   -0.0658 C   0  0  0  0  0  0  0  0  0  0  0  0
    0.1609   -0.2576   -1.9191 C   0  0  0  0  0  0  0  0  0  0  0  0
    1.3665   -0.3550    1.3690 H   0  0  0  0  0  0  0  0  0  0  0  0
   -0.6453   -0.6023    0.0382 H   0  0  0  0  0  0  0  0  0  0  0  0
    0.7161    2.0755   -0.4895 H   0  0  0  0  0  0  0  0  0  0  0  0
   -0.0915    1.6095    1.0136 H   0  0  0  0  0  0  0  0  0  0  0  0
   -1.0268    1.7797   -0.4755 H   0  0  0  0  0  0  0  0  0  0  0  0
    0.3131   -1.3093   -2.1616 H   0  0  0  0  0  0  0  0  0  0  0  0
    0.9567    0.3095   -2.4051 H   0  0  0  0  0  0  0  0  0  0  0  0
   -0.7945    0.0619   -2.3384 H   0  0  0  0  0  0  0  0  0  0  0  0
  1  2  2  0
  2  3  1  0
  2  6  1  0
  3  4  1  0
  3  5  1  0
  3  7  1  0
  4  8  1  0
  4  9  1  0
  4 10  1  0
  5 11  1  0
  5 12  1  0
  5 13  1  0
M  END
>  <reaction>  (3) 
rxn_1810

>  <mol_properties>  (3) 
{"0": {"label": "a_hydrogen", "atom_type": "H0"}, "3": {"label": "acceptor", "atom_type": "Cs"}}

>  <type>  (3) 
r2h

$$$$

     RDKit          3D

 19 17  0  0  0  0  0  0  0  0999 V2000
    1.1563    2.0695   -0.2031 C   0  0  0  0  0  0  0  0  0  0  0  0
    1.2314    1.8779   -1.4455 C   0  0  0  0  0  0  0  0  0  0  0  0
    1.2148    1.5572   -2.7304 C   0  0  0  0  0  3  0  0  0  0  0  0
    0.3068    1.0520    0.4073 H   0  0  0  0  0  0  0  0  0  0  0  0
    1.5336    2.7369    0.5498 H   0  0  0  0  0  0  0  0  0  0  0  0
    0.4839    1.9896   -3.4015 H   0  0  0  0  0  0  0  0  0  0  0  0
    1.9441    0.8699   -3.1391 H   0  0  0  0  0  0  0  0  0  0  0  0
   -0.3491   -1.8024   -0.9207 S   0  0  0  0  0  0  0  0  0  0  0  0
   -0.9255   -0.5111   -0.1216 C   0  0  0  0  0  0  0  0  0  0  0  0
   -0.3273    0.1604    1.0240 C   0  0  0  0  0  0  0  0  0  0  0  0
   -1.3011    0.9421    1.8866 C   0  0  0  0  0  0  0  0  0  0  0  0
    0.7442   -0.5758    1.7944 C   0  0  0  0  0  0  0  0  0  0  0  0
   -1.8297   -0.0290   -0.4976 H   0  0  0  0  0  0  0  0  0  0  0  0
   -1.8671    0.2670    2.5340 H   0  0  0  0  0  0  0  0  0  0  0  0
   -0.7676    1.6452    2.5284 H   0  0  0  0  0  0  0  0  0  0  0  0
   -2.0111    1.5060    1.2795 H   0  0  0  0  0  0  0  0  0  0  0  0
    1.2451    0.1028    2.4870 H   0  0  0  0  0  0  0  0  0  0  0  0
    1.4848   -1.0094    1.1245 H   0  0  0  0  0  0  0  0  0  0  0  0
    0.3027   -1.3898    2.3754 H   0  0  0  0  0  0  0  0  0  0  0  0
  1  2  3  0
  1  5  1  0
  2  3  1  0
  3  6  1  0
  3  7  1  0
  4 10  1  0
  8  9  2  0
  9 10  1  0
  9 13  1  0
 10 11  1  0
 10 12  1  0
 11 14  1  0
 11 15  1  0
 11 16  1  0
 12 17  1  0
 12 18  1  0
 12 19  1  0
M  RAD  1   3   2
M  END
>  <reaction>  (4) 
rxn_1810

>  <mol_properties>  (4) 
{"0": {"label": "*3", "atom_type": "Ct"}, "1": {"label": "*4", "atom_type": "Ct"}, "3": {"label": "*2", "atom_type": "H0"}, "8": {"label": "*0", "atom_type": "CS"}, "9": {"label": "*1", "atom_type": "Cs"}}

>  <type>  (4) 
ts

$$$$

     RDKit          3D

 19 17  0  0  0  0  0  0  0  0999 V2000
    0.6104    1.3533   -1.2047 C   0  0  0  0  0  0  0  0  0  0  0  0
    0.6104    1.3533   -2.5033 C   0  0  0  0  0  0  0  0  0  0  0  0
    0.6104    1.3533   -3.8020 C   0  0  0  0  0  0  0  0  0  0  0  0
   -0.0532    0.4584   -0.5346 H   0  0  0  0  0  0  0  0  0  0  0  0
    1.1634    2.0991   -0.6462 H   0  0  0  0  0  0  0  0  0  0  0  0
   -0.1354    1.9063   -4.3604 H   0  0  0  0  0  0  0  0  0  0  0  0
    1.3561    0.8003   -4.3604 H   0  0  0  0  0  0  0  0  0  0  0  0
    0.8743   -0.7622    2.4146 S   0  0  0  0  0  1  0  0  0  0  0  0
    0.3069   -1.1629    0.9653 C   0  0  0  0  0  0  0  0  0  0  0  0
   -0.7264   -0.4493    0.1451 C   0  0  0  0  0  0  0  0  0  0  0  0
   -1.8780   -1.4216   -0.1503 C   0  0  0  0  0  0  0  0  0  0  0  0
   -1.2269    0.8561    0.7391 C   0  0  0  0  0  0  0  0  0  0  0  0
    0.6824   -2.0706    0.4867 H   0  0  0  0  0  0  0  0  0  0  0  0
   -2.4073   -1.6740    0.7708 H   0  0  0  0  0  0  0  0  0  0  0  0
   -2.5896   -0.9618   -0.8370 H   0  0  0  0  0  0  0  0  0  0  0  0
   -1.5195   -2.3479   -0.6026 H   0  0  0  0  0  0  0  0  0  0  0  0
   -1.9337    1.3292    0.0555 H   0  0  0  0  0  0  0  0  0  0  0  0
   -0.4072    1.5493    0.9269 H   0  0  0  0  0  0  0  0  0  0  0  0
   -1.7329    0.6810    1.6901 H   0  0  0  0  0  0  0  0  0  0  0  0
  1  2  2  0
  1  4  1  0
  1  5  1  0
  2  3  2  0
  3  6  1  0
  3  7  1  0
  8  9  1  0
  9 10  2  3
  9 13  1  0
 10 11  1  0
 10 12  1  0
 11 14  1  0
 11 15  1  0
 11 16  1  0
 12 17  1  0
 12 18  1  0
 12 19  1  0
M  RAD  1   8   2
M  END
>  <reaction>  (5) 
rxn_1810

>  <mol_properties>  (5) 
{"0": {"label": "*3", "atom_type": "Ct"}, "1": {"label": "*4", "atom_type": "Ct"}, "3": {"label": "*2", "atom_type": "H0"}, "8": {"label": "*0", "atom_type": "CS"}, "9": {"label": "*1", "atom_type": "Cs"}}

>  <type>  (5) 
unop_1

>  <geom_source>  (5) 
Heuristics

$$$$

     RDKit          3D

 19 17  0  0  0  0  0  0  0  0999 V2000
    0.7580    1.9785   -0.4469 C   0  0  0  0  0  0  0  0  0  0  0  0
    0.7580    1.9785   -1.7455 C   0  0  0  0  0  0  0  0  0  0  0  0
    0.7580    1.9785   -3.0442 C   0  0  0  0  0  0  0  0  0  0  0  0
    0.0944    1.0836    0.2232 H   0  0  0  0  0  0  0  0  0  0  0  0
    1.3110    2.7243    0.1116 H   0  0  0  0  0  0  0  0  0  0  0  0
    0.0123    2.5315   -3.6026 H   0  0  0  0  0  0  0  0  0  0  0  0
    1.5038    1.4255   -3.6026 H   0  0  0  0  0  0  0  0  0  0  0  0
    0.2820   -2.3876    0.1970 S   0  0  0  0  0  1  0  0  0  0  0  0
   -0.5793   -1.0414    0.0267 C   0  0  0  0  0  0  0  0  0  0  0  0
   -0.5787    0.1759    0.9029 C   0  0  0  0  0  0  0  0  0  0  0  0
   -2.0081    0.4183    1.4097 C   0  0  0  0  0  0  0  0  0  0  0  0
    0.4271    0.1462    2.0409 C   0  0  0  0  0  0  0  0  0  0  0  0
   -1.2773   -0.9666   -0.8107 H   0  0  0  0  0  0  0  0  0  0  0  0
   -2.3136   -0.3853    2.0828 H   0  0  0  0  0  0  0  0  0  0  0  0
   -2.0562    1.3593    1.9588 H   0  0  0  0  0  0  0  0  0  0  0  0
   -2.7256    0.4671    0.5887 H   0  0  0  0  0  0  0  0  0  0  0  0
    0.3932    1.0873    2.5922 H   0  0  0  0  0  0  0  0  0  0  0  0
    1.4417   -0.0053    1.6729 H   0  0  0  0  0  0  0  0  0  0  0  0
    0.2049   -0.6667    2.7343 H   0  0  0  0  0  0  0  0  0  0  0  0
  1  2  2  0
  1  4  1  0
  1  5  1  0
  2  3  2  0
  3  6  1  0
  3  7  1  0
  8  9  1  0
  9 10  2  3
  9 13  1  0
 10 11  1  0
 10 12  1  0
 11 14  1  0
 11 15  1  0
 11 16  1  0
 12 17  1  0
 12 18  1  0
 12 19  1  0
M  RAD  1   8   2
M  END
>  <reaction>  (6) 
rxn_1810

>  <mol_properties>  (6) 
{"0": {"label": "*3", "atom_type": "Ct"}, "1": {"label": "*4", "atom_type": "Ct"}, "3": {"label": "*2", "atom_type": "H0"}, "8": {"label": "*0", "atom_type": "CS"}, "9": {"label": "*1", "atom_type": "Cs"}}

>  <type>  (6) 
unop_2

>  <geom_source>  (6) 
Heuristics

$$$$

     RDKit          3D

 19 17  0  0  0  0  0  0  0  0999 V2000
    0.9110    1.1841   -1.2770 C   0  0  0  0  0  0  0  0  0  0  0  0
    0.9110    1.1841   -2.5756 C   0  0  0  0  0  0  0  0  0  0  0  0
    0.9110    1.1841   -3.8743 C   0  0  0  0  0  0  0  0  0  0  0  0
    0.2474    0.2891   -0.6069 H   0  0  0  0  0  0  0  0  0  0  0  0
    1.4640    1.9298   -0.7185 H   0  0  0  0  0  0  0  0  0  0  0  0
    0.1652    1.7371   -4.4327 H   0  0  0  0  0  0  0  0  0  0  0  0
    1.6567    0.6311   -4.4327 H   0  0  0  0  0  0  0  0  0  0  0  0
    0.0563   -0.1323    2.7824 S   0  0  0  0  0  1  0  0  0  0  0  0
    0.3443   -0.7966    1.3475 C   0  0  0  0  0  0  0  0  0  0  0  0
   -0.4257   -0.6186    0.0728 C   0  0  0  0  0  0  0  0  0  0  0  0
   -0.9030   -1.9960   -0.4106 C   0  0  0  0  0  0  0  0  0  0  0  0
   -1.5671    0.3810    0.1476 C   0  0  0  0  0  0  0  0  0  0  0  0
    1.1884   -1.4830    1.2463 H   0  0  0  0  0  0  0  0  0  0  0  0
   -1.6402   -2.4069    0.2822 H   0  0  0  0  0  0  0  0  0  0  0  0
   -1.3702   -1.9074   -1.3920 H   0  0  0  0  0  0  0  0  0  0  0  0
   -0.0773   -2.7052   -0.4903 H   0  0  0  0  0  0  0  0  0  0  0  0
   -2.0366    0.4838   -0.8321 H   0  0  0  0  0  0  0  0  0  0  0  0
   -1.2183    1.3616    0.4710 H   0  0  0  0  0  0  0  0  0  0  0  0
   -2.3258    0.0514    0.8596 H   0  0  0  0  0  0  0  0  0  0  0  0
  1  2  2  0
  1  4  1  0
  1  5  1  0
  2  3  2  0
  3  6  1  0
  3  7  1  0
  8  9  1  0
  9 10  2  3
  9 13  1  0
 10 11  1  0
 10 12  1  0
 11 14  1  0
 11 15  1  0
 11 16  1  0
 12 17  1  0
 12 18  1  0
 12 19  1  0
M  RAD  1   8   2
M  END
>  <reaction>  (7) 
rxn_1810

>  <mol_properties>  (7) 
{"0": {"label": "*3", "atom_type": "Ct"}, "1": {"label": "*4", "atom_type": "Ct"}, "3": {"label": "*2", "atom_type": "H0"}, "8": {"label": "*0", "atom_type": "CS"}, "9": {"label": "*1", "atom_type": "Cs"}}

>  <type>  (7) 
unop_3

>  <geom_source>  (7) 
Heuristics

$$$$

     RDKit          3D

 19 17  0  0  0  0  0  0  0  0999 V2000
    1.6364    1.4833   -0.5598 C   0  0  0  0  0  0  0  0  0  0  0  0
    1.6364    1.4833   -1.8585 C   0  0  0  0  0  0  0  0  0  0  0  0
    1.6364    1.4833   -3.1572 C   0  0  0  0  0  0  0  0  0  0  0  0
    0.9728    0.5884    0.1103 H   0  0  0  0  0  0  0  0  0  0  0  0
    2.1894    2.2290   -0.0014 H   0  0  0  0  0  0  0  0  0  0  0  0
    0.8906    2.0363   -3.7156 H   0  0  0  0  0  0  0  0  0  0  0  0
    2.3821    0.9303   -3.7156 H   0  0  0  0  0  0  0  0  0  0  0  0
   -2.3166   -1.2195    0.3956 S   0  0  0  0  0  1  0  0  0  0  0  0
   -1.1282   -0.1379    0.3683 C   0  0  0  0  0  0  0  0  0  0  0  0
    0.2996   -0.3194    0.7900 C   0  0  0  0  0  0  0  0  0  0  0  0
    0.6253    0.7106    1.8817 C   0  0  0  0  0  0  0  0  0  0  0  0
    0.6680   -1.7302    1.2159 C   0  0  0  0  0  0  0  0  0  0  0  0
   -1.3471    0.8745    0.0203 H   0  0  0  0  0  0  0  0  0  0  0  0
    0.0577    0.4943    2.7890 H   0  0  0  0  0  0  0  0  0  0  0  0
    1.6872    0.6731    2.1272 H   0  0  0  0  0  0  0  0  0  0  0  0
    0.3859    1.7268    1.5636 H   0  0  0  0  0  0  0  0  0  0  0  0
    1.7313   -1.7809    1.4558 H   0  0  0  0  0  0  0  0  0  0  0  0
    0.4539   -2.4533    0.4290 H   0  0  0  0  0  0  0  0  0  0  0  0
    0.1014   -2.0293    2.0994 H   0  0  0  0  0  0  0  0  0  0  0  0
  1  2  2  0
  1  4  1  0
  1  5  1  0
  2  3  2  0
  3  6  1  0
  3  7  1  0
  8  9  1  0
  9 10  2  3
  9 13  1  0
 10 11  1  0
 10 12  1  0
 11 14  1  0
 11 15  1  0
 11 16  1  0
 12 17  1  0
 12 18  1  0
 12 19  1  0
M  RAD  1   8   2
M  END
>  <reaction>  (8) 
rxn_1810

>  <mol_properties>  (8) 
{"0": {"label": "*3", "atom_type": "Ct"}, "1": {"label": "*4", "atom_type": "Ct"}, "3": {"label": "*2", "atom_type": "H0"}, "8": {"label": "*0", "atom_type": "CS"}, "9": {"label": "*1", "atom_type": "Cs"}}

>  <type>  (8) 
unop_4

>  <geom_source>  (8) 
Heuristics

$$$$

     RDKit          3D

 19 17  0  0  0  0  0  0  0  0999 V2000
    1.1937    1.2036   -1.2258 C   0  0  0  0  0  0  0  0  0  0  0  0
    1.1937    1.2036   -2.5245 C   0  0  0  0  0  0  0  0  0  0  0  0
    1.1937    1.2036   -3.8232 C   0  0  0  0  0  0  0  0  0  0  0  0
    0.5301    0.3087   -0.5557 H   0  0  0  0  0  0  0  0  0  0  0  0
    1.7467    1.9494   -0.6674 H   0  0  0  0  0  0  0  0  0  0  0  0
    0.4479    1.7566   -4.3816 H   0  0  0  0  0  0  0  0  0  0  0  0
    1.9395    0.6506   -4.3816 H   0  0  0  0  0  0  0  0  0  0  0  0
   -0.9774    0.0431    2.7128 S   0  0  0  0  0  1  0  0  0  0  0  0
    0.1046   -0.2651    1.5650 C   0  0  0  0  0  0  0  0  0  0  0  0
   -0.1430   -0.5991    0.1240 C   0  0  0  0  0  0  0  0  0  0  0  0
    0.5025   -1.9581   -0.1844 C   0  0  0  0  0  0  0  0  0  0  0  0
   -1.6001   -0.5554   -0.3030 C   0  0  0  0  0  0  0  0  0  0  0  0
    1.1654   -0.2559    1.8269 H   0  0  0  0  0  0  0  0  0  0  0  0
   -0.0115   -2.7542    0.3580 H   0  0  0  0  0  0  0  0  0  0  0  0
    0.4323   -2.1726   -1.2514 H   0  0  0  0  0  0  0  0  0  0  0  0
    1.5567   -1.9786    0.0975 H   0  0  0  0  0  0  0  0  0  0  0  0
   -1.6811   -0.7604   -1.3717 H   0  0  0  0  0  0  0  0  0  0  0  0
   -2.0463    0.4182   -0.1006 H   0  0  0  0  0  0  0  0  0  0  0  0
   -2.1851   -1.3028    0.2358 H   0  0  0  0  0  0  0  0  0  0  0  0
  1  2  2  0
  1  4  1  0
  1  5  1  0
  2  3  2  0
  3  6  1  0
  3  7  1  0
  8  9  1  0
  9 10  2  3
  9 13  1  0
 10 11  1  0
 10 12  1  0
 11 14  1  0
 11 15  1  0
 11 16  1  0
 12 17  1  0
 12 18  1  0
 12 19  1  0
M  RAD  1   8   2
M  END
>  <reaction>  (9) 
rxn_1810

>  <mol_properties>  (9) 
{"0": {"label": "*3", "atom_type": "Ct"}, "1": {"label": "*4", "atom_type": "Ct"}, "3": {"label": "*2", "atom_type": "H0"}, "8": {"label": "*0", "atom_type": "CS"}, "9": {"label": "*1", "atom_type": "Cs"}}

>  <type>  (9) 
unop_5

>  <geom_source>  (9) 
Heuristics

$$$$

     RDKit          3D

 19 17  0  0  0  0  0  0  0  0999 V2000
    1.6132    1.3092   -0.8172 C   0  0  0  0  0  0  0  0  0  0  0  0
    1.6132    1.3092   -2.1159 C   0  0  0  0  0  0  0  0  0  0  0  0
    1.6132    1.3092   -3.4146 C   0  0  0  0  0  0  0  0  0  0  0  0
    0.9496    0.4143   -0.1471 H   0  0  0  0  0  0  0  0  0  0  0  0
    2.1662    2.0550   -0.2588 H   0  0  0  0  0  0  0  0  0  0  0  0
    0.8674    1.8622   -3.9730 H   0  0  0  0  0  0  0  0  0  0  0  0
    2.3589    0.7562   -3.9730 H   0  0  0  0  0  0  0  0  0  0  0  0
   -2.4511   -0.6476    1.1218 S   0  0  0  0  0  1  0  0  0  0  0  0
   -1.0849    0.1037    0.7318 C   0  0  0  0  0  0  0  0  0  0  0  0
    0.2764   -0.4934    0.5326 C   0  0  0  0  0  0  0  0  0  0  0  0
    1.2576    0.1835    1.5010 C   0  0  0  0  0  0  0  0  0  0  0  0
    0.3338   -2.0078    0.6366 C   0  0  0  0  0  0  0  0  0  0  0  0
   -1.1008    1.1883    0.6004 H   0  0  0  0  0  0  0  0  0  0  0  0
    1.0104   -0.0736    2.5330 H   0  0  0  0  0  0  0  0  0  0  0  0
    2.2750   -0.1540    1.3003 H   0  0  0  0  0  0  0  0  0  0  0  0
    1.2352    1.2705    1.4054 H   0  0  0  0  0  0  0  0  0  0  0  0
    1.3465   -2.3571    0.4289 H   0  0  0  0  0  0  0  0  0  0  0  0
   -0.3494   -2.4824   -0.0677 H   0  0  0  0  0  0  0  0  0  0  0  0
    0.0545   -2.3389    1.6383 H   0  0  0  0  0  0  0  0  0  0  0  0
  1  2  2  0
  1  4  1  0
  1  5  1  0
  2  3  2  0
  3  6  1  0
  3  7  1  0
  8  9  1  0
  9 10  2  3
  9 13  1  0
 10 11  1  0
 10 12  1  0
 11 14  1  0
 11 15  1  0
 11 16  1  0
 12 17  1  0
 12 18  1  0
 12 19  1  0
M  RAD  1   8   2
M  END
>  <reaction>  (10) 
rxn_1810

>  <mol_properties>  (10) 
{"0": {"label": "*3", "atom_type": "Ct"}, "1": {"label": "*4", "atom_type": "Ct"}, "3": {"label": "*2", "atom_type": "H0"}, "8": {"label": "*0", "atom_type": "CS"}, "9": {"label": "*1", "atom_type": "Cs"}}

>  <type>  (10) 
unop_6

>  <geom_source>  (10) 
Heuristics

$$$$

     RDKit          3D

 19 17  0  0  0  0  0  0  0  0999 V2000
    1.4785    1.2490   -1.0314 C   0  0  0  0  0  0  0  0  0  0  0  0
    1.4785    1.2490   -2.3300 C   0  0  0  0  0  0  0  0  0  0  0  0
    1.4785    1.2490   -3.6287 C   0  0  0  0  0  0  0  0  0  0  0  0
    0.8149    0.3541   -0.3612 H   0  0  0  0  0  0  0  0  0  0  0  0
    2.0315    1.9948   -0.4729 H   0  0  0  0  0  0  0  0  0  0  0  0
    0.7327    1.8020   -4.1871 H   0  0  0  0  0  0  0  0  0  0  0  0
    2.2243    0.6960   -4.1871 H   0  0  0  0  0  0  0  0  0  0  0  0
   -2.1923   -0.2958    1.8338 S   0  0  0  0  0  1  0  0  0  0  0  0
   -0.8411    0.2278    1.1386 C   0  0  0  0  0  0  0  0  0  0  0  0
    0.1418   -0.5536    0.3185 C   0  0  0  0  0  0  0  0  0  0  0  0
    1.5263   -0.4455    0.9744 C   0  0  0  0  0  0  0  0  0  0  0  0
   -0.2479   -1.9981    0.0553 C   0  0  0  0  0  0  0  0  0  0  0  0
   -0.5563    1.2749    1.2665 H   0  0  0  0  0  0  0  0  0  0  0  0
    1.5300   -0.9564    1.9394 H   0  0  0  0  0  0  0  0  0  0  0  0
    2.2794   -0.9127    0.3388 H   0  0  0  0  0  0  0  0  0  0  0  0
    1.8167    0.5938    1.1374 H   0  0  0  0  0  0  0  0  0  0  0  0
    0.4952   -2.4729   -0.5874 H   0  0  0  0  0  0  0  0  0  0  0  0
   -1.2218   -2.0668   -0.4291 H   0  0  0  0  0  0  0  0  0  0  0  0
   -0.3053   -2.5608    0.9886 H   0  0  0  0  0  0  0  0  0  0  0  0
  1  2  2  0
  1  4  1  0
  1  5  1  0
  2  3  2  0
  3  6  1  0
  3  7  1  0
  8  9  1  0
  9 10  2  3
  9 13  1  0
 10 11  1  0
 10 12  1  0
 11 14  1  0
 11 15  1  0
 11 16  1  0
 12 17  1  0
 12 18  1  0
 12 19  1  0
M  RAD  1   8   2
M  END
>  <reaction>  (11) 
rxn_1810

>  <mol_properties>  (11) 
{"0": {"label": "*3", "atom_type": "Ct"}, "1": {"label": "*4", "atom_type": "Ct"}, "3": {"label": "*2", "atom_type": "H0"}, "8": {"label": "*0", "atom_type": "CS"}, "9": {"label": "*1", "atom_type": "Cs"}}

>  <type>  (11) 
unop_7

>  <geom_source>  (11) 
Heuristics

$$$$

     RDKit          3D

 19 17  0  0  0  0  0  0  0  0999 V2000
    0.4582    1.6134   -0.9947 C   0  0  0  0  0  0  0  0  0  0  0  0
    0.4582    1.6134   -2.2933 C   0  0  0  0  0  0  0  0  0  0  0  0
    0.4582    1.6134   -3.5920 C   0  0  0  0  0  0  0  0  0  0  0  0
   -0.2054    0.7185   -0.3246 H   0  0  0  0  0  0  0  0  0  0  0  0
    1.0112    2.3592   -0.4362 H   0  0  0  0  0  0  0  0  0  0  0  0
   -0.2875    2.1664   -4.1504 H   0  0  0  0  0  0  0  0  0  0  0  0
    1.2040    1.0604   -4.1504 H   0  0  0  0  0  0  0  0  0  0  0  0
    1.1848   -1.4933    1.7164 S   0  0  0  0  0  1  0  0  0  0  0  0
    0.0883   -1.3184    0.5543 C   0  0  0  0  0  0  0  0  0  0  0  0
   -0.8785   -0.1892    0.3551 C   0  0  0  0  0  0  0  0  0  0  0  0
   -2.3052   -0.7577    0.3497 C   0  0  0  0  0  0  0  0  0  0  0  0
   -0.7320    0.9609    1.3365 C   0  0  0  0  0  0  0  0  0  0  0  0
   -0.0101   -2.1049   -0.1978 H   0  0  0  0  0  0  0  0  0  0  0  0
   -2.5621   -1.1476    1.3368 H   0  0  0  0  0  0  0  0  0  0  0  0
   -3.0199    0.0262    0.0967 H   0  0  0  0  0  0  0  0  0  0  0  0
   -2.4162   -1.5655   -0.3757 H   0  0  0  0  0  0  0  0  0  0  0  0
   -1.4372    1.7553    1.0870 H   0  0  0  0  0  0  0  0  0  0  0  0
    0.2768    1.3733    1.3203 H   0  0  0  0  0  0  0  0  0  0  0  0
   -0.9344    0.6292    2.3564 H   0  0  0  0  0  0  0  0  0  0  0  0
  1  2  2  0
  1  4  1  0
  1  5  1  0
  2  3  2  0
  3  6  1  0
  3  7  1  0
  8  9  1  0
  9 10  2  3
  9 13  1  0
 10 11  1  0
 10 12  1  0
 11 14  1  0
 11 15  1  0
 11 16  1  0
 12 17  1  0
 12 18  1  0
 12 19  1  0
M  RAD  1   8   2
M  END
>  <reaction>  (12) 
rxn_1810

>  <mol_properties>  (12) 
{"0": {"label": "*3", "atom_type": "Ct"}, "1": {"label": "*4", "atom_type": "Ct"}, "3": {"label": "*2", "atom_type": "H0"}, "8": {"label": "*0", "atom_type": "CS"}, "9": {"label": "*1", "atom_type": "Cs"}}

>  <type>  (12) 
unop_8

>  <geom_source>  (12) 
Heuristics

$$$$

     RDKit          3D

 19 17  0  0  0  0  0  0  0  0999 V2000
    1.4735    1.7312   -0.3558 C   0  0  0  0  0  0  0  0  0  0  0  0
    1.4735    1.7312   -1.6545 C   0  0  0  0  0  0  0  0  0  0  0  0
    1.4735    1.7312   -2.9532 C   0  0  0  0  0  0  0  0  0  0  0  0
    0.8099    0.8363    0.3143 H   0  0  0  0  0  0  0  0  0  0  0  0
    2.0265    2.4770    0.2026 H   0  0  0  0  0  0  0  0  0  0  0  0
    0.7277    2.2843   -3.5116 H   0  0  0  0  0  0  0  0  0  0  0  0
    2.2192    1.1782   -3.5116 H   0  0  0  0  0  0  0  0  0  0  0  0
   -1.6977   -1.8688   -0.1080 S   0  0  0  0  0  1  0  0  0  0  0  0
   -1.0278   -0.4254    0.1177 C   0  0  0  0  0  0  0  0  0  0  0  0
    0.1367   -0.0714    0.9940 C   0  0  0  0  0  0  0  0  0  0  0  0
   -0.3117    0.9986    2.0003 C   0  0  0  0  0  0  0  0  0  0  0  0
    0.8033   -1.2504    1.6818 C   0  0  0  0  0  0  0  0  0  0  0  0
   -1.4521    0.4376   -0.4012 H   0  0  0  0  0  0  0  0  0  0  0  0
   -1.0426    0.5823    2.6965 H   0  0  0  0  0  0  0  0  0  0  0  0
    0.5439    1.3531    2.5763 H   0  0  0  0  0  0  0  0  0  0  0  0
   -0.7653    1.8575    1.5025 H   0  0  0  0  0  0  0  0  0  0  0  0
    1.6666   -0.9077    2.2545 H   0  0  0  0  0  0  0  0  0  0  0  0
    1.1378   -1.9961    0.9608 H   0  0  0  0  0  0  0  0  0  0  0  0
    0.1103   -1.7432    2.3659 H   0  0  0  0  0  0  0  0  0  0  0  0
  1  2  2  0
  1  4  1  0
  1  5  1  0
  2  3  2  0
  3  6  1  0
  3  7  1  0
  8  9  1  0
  9 10  2  3
  9 13  1  0
 10 11  1  0
 10 12  1  0
 11 14  1  0
 11 15  1  0
 11 16  1  0
 12 17  1  0
 12 18  1  0
 12 19  1  0
M  RAD  1   8   2
M  END
>  <reaction>  (13) 
rxn_1810

>  <mol_properties>  (13) 
{"0": {"label": "*3", "atom_type": "Ct"}, "1": {"label": "*4", "atom_type": "Ct"}, "3": {"label": "*2", "atom_type": "H0"}, "8": {"label": "*0", "atom_type": "CS"}, "9": {"label": "*1", "atom_type": "Cs"}}

>  <type>  (13) 
unop_9

>  <geom_source>  (13) 
Heuristics

$$$$

     RDKit          3D

 19 17  0  0  0  0  0  0  0  0999 V2000
    0.5084    1.8499   -0.7108 C   0  0  0  0  0  0  0  0  0  0  0  0
    0.5084    1.8499   -2.0094 C   0  0  0  0  0  0  0  0  0  0  0  0
    0.5084    1.8499   -3.3081 C   0  0  0  0  0  0  0  0  0  0  0  0
   -0.1552    0.9550   -0.0407 H   0  0  0  0  0  0  0  0  0  0  0  0
    1.0614    2.5957   -0.1523 H   0  0  0  0  0  0  0  0  0  0  0  0
   -0.2374    2.4029   -3.8665 H   0  0  0  0  0  0  0  0  0  0  0  0
    1.2542    1.2969   -3.8665 H   0  0  0  0  0  0  0  0  0  0  0  0
    0.9659   -2.0793    0.9014 S   0  0  0  0  0  1  0  0  0  0  0  0
   -0.2400   -1.2663    0.2173 C   0  0  0  0  0  0  0  0  0  0  0  0
   -0.8283    0.0473    0.6390 C   0  0  0  0  0  0  0  0  0  0  0  0
   -2.3289   -0.1472    0.9023 C   0  0  0  0  0  0  0  0  0  0  0  0
   -0.1307    0.7154    1.8114 C   0  0  0  0  0  0  0  0  0  0  0  0
   -0.7323   -1.6951   -0.6588 H   0  0  0  0  0  0  0  0  0  0  0  0
   -2.4815   -0.7904    1.7713 H   0  0  0  0  0  0  0  0  0  0  0  0
   -2.8017    0.8148    1.1033 H   0  0  0  0  0  0  0  0  0  0  0  0
   -2.8339   -0.6020    0.0482 H   0  0  0  0  0  0  0  0  0  0  0  0
   -0.5908    1.6836    2.0156 H   0  0  0  0  0  0  0  0  0  0  0  0
    0.9293    0.8695    1.6099 H   0  0  0  0  0  0  0  0  0  0  0  0
   -0.2079    0.1014    2.7103 H   0  0  0  0  0  0  0  0  0  0  0  0
  1  2  2  0
  1  4  1  0
  1  5  1  0
  2  3  2  0
  3  6  1  0
  3  7  1  0
  8  9  1  0
  9 10  2  3
  9 13  1  0
 10 11  1  0
 10 12  1  0
 11 14  1  0
 11 15  1  0
 11 16  1  0
 12 17  1  0
 12 18  1  0
 12 19  1  0
M  RAD  1   8   2
M  END
>  <reaction>  (14) 
rxn_1810

>  <mol_properties>  (14) 
{"0": {"label": "*3", "atom_type": "Ct"}, "1": {"label": "*4", "atom_type": "Ct"}, "3": {"label": "*2", "atom_type": "H0"}, "8": {"label": "*0", "atom_type": "CS"}, "9": {"label": "*1", "atom_type": "Cs"}}

>  <type>  (14) 
unop_10

>  <geom_source>  (14) 
Heuristics

$$$$

     RDKit          3D

 19 17  0  0  0  0  0  0  0  0999 V2000
    1.3347    1.2541   -1.1535 C   0  0  0  0  0  0  0  0  0  0  0  0
    1.3347    1.2541   -2.4522 C   0  0  0  0  0  0  0  0  0  0  0  0
    1.3347    1.2541   -3.7508 C   0  0  0  0  0  0  0  0  0  0  0  0
    0.6711    0.3591   -0.4834 H   0  0  0  0  0  0  0  0  0  0  0  0
    1.8877    1.9998   -0.5951 H   0  0  0  0  0  0  0  0  0  0  0  0
    0.5890    1.8071   -4.3093 H   0  0  0  0  0  0  0  0  0  0  0  0
    2.0805    0.7011   -4.3093 H   0  0  0  0  0  0  0  0  0  0  0  0
   -1.7055   -0.1134    2.3687 S   0  0  0  0  0  1  0  0  0  0  0  0
   -0.3960    0.1366    1.4710 C   0  0  0  0  0  0  0  0  0  0  0  0
   -0.0020   -0.5486    0.1963 C   0  0  0  0  0  0  0  0  0  0  0  0
    1.3780   -1.1942    0.3905 C   0  0  0  0  0  0  0  0  0  0  0  0
   -1.0199   -1.5407   -0.3394 C   0  0  0  0  0  0  0  0  0  0  0  0
    0.3337    0.8796    1.8017 H   0  0  0  0  0  0  0  0  0  0  0  0
    1.3172   -2.0092    1.1146 H   0  0  0  0  0  0  0  0  0  0  0  0
    1.7361   -1.6042   -0.5545 H   0  0  0  0  0  0  0  0  0  0  0  0
    2.1150   -0.4734    0.7491 H   0  0  0  0  0  0  0  0  0  0  0  0
   -0.6751   -1.9510   -1.2900 H   0  0  0  0  0  0  0  0  0  0  0  0
   -1.9912   -1.0713   -0.4948 H   0  0  0  0  0  0  0  0  0  0  0  0
   -1.1626   -2.3663    0.3599 H   0  0  0  0  0  0  0  0  0  0  0  0
  1  2  2  0
  1  4  1  0
  1  5  1  0
  2  3  2  0
  3  6  1  0
  3  7  1  0
  8  9  1  0
  9 10  2  3
  9 13  1  0
 10 11  1  0
 10 12  1  0
 11 14  1  0
 11 15  1  0
 11 16  1  0
 12 17  1  0
 12 18  1  0
 12 19  1  0
M  RAD  1   8   2
M  END
>  <reaction>  (15) 
rxn_1810

>  <mol_properties>  (15) 
{"0": {"label": "*3", "atom_type": "Ct"}, "1": {"label": "*4", "atom_type": "Ct"}, "3": {"label": "*2", "atom_type": "H0"}, "8": {"label": "*0", "atom_type": "CS"}, "9": {"label": "*1", "atom_type": "Cs"}}

>  <type>  (15) 
unop_11

>  <geom_source>  (15) 
Heuristics

$$$$

     RDKit          3D

 19 17  0  0  0  0  0  0  0  0999 V2000
    1.1343    1.9359   -0.3067 C   0  0  0  0  0  0  0  0  0  0  0  0
    1.1343    1.9359   -1.6053 C   0  0  0  0  0  0  0  0  0  0  0  0
    1.1343    1.9359   -2.9040 C   0  0  0  0  0  0  0  0  0  0  0  0
    0.4707    1.0410    0.3634 H   0  0  0  0  0  0  0  0  0  0  0  0
    1.6873    2.6816    0.2518 H   0  0  0  0  0  0  0  0  0  0  0  0
    0.3886    2.4889   -3.4624 H   0  0  0  0  0  0  0  0  0  0  0  0
    1.8801    1.3829   -3.4624 H   0  0  0  0  0  0  0  0  0  0  0  0
   -0.7137   -2.3237   -0.1868 S   0  0  0  0  0  1  0  0  0  0  0  0
   -0.8446   -0.7328    0.0005 C   0  0  0  0  0  0  0  0  0  0  0  0
   -0.2024    0.1332    1.0431 C   0  0  0  0  0  0  0  0  0  0  0  0
   -1.3043    0.8769    1.8124 C   0  0  0  0  0  0  0  0  0  0  0  0
    0.7508   -0.5900    1.9790 C   0  0  0  0  0  0  0  0  0  0  0  0
   -1.4840   -0.1737   -0.6869 H   0  0  0  0  0  0  0  0  0  0  0  0
   -1.9029    0.1725    2.3935 H   0  0  0  0  0  0  0  0  0  0  0  0
   -0.8600    1.5958    2.5016 H   0  0  0  0  0  0  0  0  0  0  0  0
   -1.9719    1.4187    1.1401 H   0  0  0  0  0  0  0  0  0  0  0  0
    1.2078    0.1222    2.6679 H   0  0  0  0  0  0  0  0  0  0  0  0
    1.5421   -1.0981    1.4281 H   0  0  0  0  0  0  0  0  0  0  0  0
    0.2223   -1.3442    2.5645 H   0  0  0  0  0  0  0  0  0  0  0  0
  1  2  2  0
  1  4  1  0
  1  5  1  0
  2  3  2  0
  3  6  1  0
  3  7  1  0
  8  9  1  0
  9 10  2  3
  9 13  1  0
 10 11  1  0
 10 12  1  0
 11 14  1  0
 11 15  1  0
 11 16  1  0
 12 17  1  0
 12 18  1  0
 12 19  1  0
M  RAD  1   8   2
M  END
>  <reaction>  (16) 
rxn_1810

>  <mol_properties>  (16) 
{"0": {"label": "*3", "atom_type": "Ct"}, "1": {"label": "*4", "atom_type": "Ct"}, "3": {"label": "*2", "atom_type": "H0"}, "8": {"label": "*0", "atom_type": "CS"}, "9": {"label": "*1", "atom_type": "Cs"}}

>  <type>  (16) 
unop_12

>  <geom_source>  (16) 
Heuristics

$$$$

     RDKit          3D

 19 17  0  0  0  0  0  0  0  0999 V2000
   -1.2119    0.6843    2.4476 S   0  0  0  0  0  1  0  0  0  0  0  0
   -0.9054   -0.0599   -0.0149 C   0  0  0  0  0  0  0  0  0  0  0  0
   -1.6961    1.0798   -0.6680 C   0  0  0  0  0  0  0  0  0  0  0  0
   -1.7396   -1.3442    0.0592 C   0  0  0  0  0  0  0  0  0  0  0  0
   -0.3594    0.3367    1.3400 C   0  0  0  0  0  0  0  0  0  0  0  0
    3.4125    0.5166    0.3337 C   0  0  0  0  0  0  0  0  0  0  0  0
    2.4175   -0.0050   -0.3255 C   0  0  0  0  0  0  0  0  0  0  0  0
    1.4226   -0.5266   -0.9848 C   0  0  0  0  0  0  0  0  0  0  0  0
    0.1851   -0.3258   -0.8361 H   0  0  0  0  0  0  0  0  0  0  0  0
   -1.0680    1.9942   -0.7222 H   0  0  0  0  0  0  0  0  0  0  0  0
   -2.6179    1.3067   -0.0904 H   0  0  0  0  0  0  0  0  0  0  0  0
   -1.9838    0.7950   -1.7020 H   0  0  0  0  0  0  0  0  0  0  0  0
   -2.0279   -1.6661   -0.9638 H   0  0  0  0  0  0  0  0  0  0  0  0
   -1.1424   -2.1576    0.5232 H   0  0  0  0  0  0  0  0  0  0  0  0
   -2.6625   -1.1854    0.6571 H   0  0  0  0  0  0  0  0  0  0  0  0
    0.7159    0.3597    1.4807 H   0  0  0  0  0  0  0  0  0  0  0  0
    3.2258    1.2641    1.0926 H   0  0  0  0  0  0  0  0  0  0  0  0
    4.4253    0.2021    0.1222 H   0  0  0  0  0  0  0  0  0  0  0  0
    1.6101   -1.2687   -1.7487 H   0  0  0  0  0  0  0  0  0  0  0  0
  1  5  1  0
  2  3  1  0
  2  4  1  0
  2  5  2  3
  3 10  1  0
  3 11  1  0
  3 12  1  0
  4 13  1  0
  4 14  1  0
  4 15  1  0
  5 16  1  0
  6  7  2  0
  6 17  1  0
  6 18  1  0
  7  8  2  0
  8  9  1  0
  8 19  1  0
M  RAD  1   1   2
M  END
>  <reaction>  (17) 
rxn_1810

>  <mol_properties>  (17) 
{"0": {"label": "*3", "atom_type": "Ct"}, "1": {"label": "*4", "atom_type": "Ct"}, "3": {"label": "*2", "atom_type": "H0"}, "8": {"label": "*0", "atom_type": "CS"}, "9": {"label": "*1", "atom_type": "Cs"}}

>  <type>  (17) 
unop_13

>  <geom_source>  (17) 
AutoTST

$$$$
