
     RDKit          3D

 15 14  0  0  0  0  0  0  0  0999 V2000
    2.1256    0.4849   -0.6284 C   0  0  0  0  0  0  0  0  0  0  0  0
    1.1128    0.2141    0.1794 C   0  0  0  0  0  0  0  0  0  0  0  0
   -0.3017   -0.0425   -0.2513 C   0  0  0  0  0  0  0  0  0  0  0  0
   -1.2427    1.0075    0.3423 C   0  0  0  0  0  0  0  0  0  0  0  0
   -0.7381   -1.4526    0.1504 C   0  0  0  0  0  0  0  0  0  0  0  0
    3.1243    0.6602   -0.2486 H   0  0  0  0  0  0  0  0  0  0  0  0
    1.9908    0.5411   -1.7036 H   0  0  0  0  0  0  0  0  0  0  0  0
    1.2888    0.1665    1.2533 H   0  0  0  0  0  0  0  0  0  0  0  0
   -0.3426    0.0343   -1.3424 H   0  0  0  0  0  0  0  0  0  0  0  0
   -0.9570    2.0133    0.0315 H   0  0  0  0  0  0  0  0  0  0  0  0
   -1.2189    0.9728    1.4350 H   0  0  0  0  0  0  0  0  0  0  0  0
   -2.2723    0.8287    0.0254 H   0  0  0  0  0  0  0  0  0  0  0  0
   -0.6964   -1.5744    1.2363 H   0  0  0  0  0  0  0  0  0  0  0  0
   -0.0911   -2.2079   -0.2978 H   0  0  0  0  0  0  0  0  0  0  0  0
   -1.7646   -1.6461   -0.1677 H   0  0  0  0  0  0  0  0  0  0  0  0
  1  2  2  3
  1  6  1  0
  1  7  1  0
  2  3  1  0
  2  8  1  0
  3  4  1  0
  3  5  1  0
  3  9  1  0
  4 10  1  0
  4 11  1  0
  4 12  1  0
  5 13  1  0
  5 14  1  0
  5 15  1  0
M  END
>  <reaction>  (1) 
rxn_1085

>  <mol_properties>  (1) 
{"2": {"label": "donator", "atom_type": "Cs"}, "8": {"label": "d_hydrogen", "atom_type": "H0"}}

>  <type>  (1) 
r1h

$$$$

     RDKit          3D

 13 12  0  0  0  0  0  0  0  0999 V2000
   -1.3650   -0.5967   -0.3476 C   0  0  0  0  0  0  0  0  0  0  0  0
   -0.1601   -0.2776    0.4668 C   0  0  0  0  0  3  0  0  0  0  0  0
    1.1241   -0.9572    0.1414 C   0  0  0  0  0  0  0  0  0  0  0  0
   -0.1186    1.0131    1.2080 C   0  0  0  0  0  0  0  0  0  0  0  0
   -1.4259   -1.6630   -0.5780 H   0  0  0  0  0  0  0  0  0  0  0  0
   -2.2860   -0.3016    0.1610 H   0  0  0  0  0  0  0  0  0  0  0  0
   -1.3542   -0.0656   -1.3131 H   0  0  0  0  0  0  0  0  0  0  0  0
    1.6174   -0.4967   -0.7298 H   0  0  0  0  0  0  0  0  0  0  0  0
    0.9721   -2.0106   -0.1062 H   0  0  0  0  0  0  0  0  0  0  0  0
    1.8338   -0.8977    0.9701 H   0  0  0  0  0  0  0  0  0  0  0  0
   -1.0851    1.2512    1.6587 H   0  0  0  0  0  0  0  0  0  0  0  0
    0.6357    1.0008    1.9984 H   0  0  0  0  0  0  0  0  0  0  0  0
    0.1351    1.8545    0.5432 H   0  0  0  0  0  0  0  0  0  0  0  0
  1  2  1  0
  1  5  1  0
  1  6  1  0
  1  7  1  0
  2  3  1  0
  2  4  1  0
  3  8  1  0
  3  9  1  0
  3 10  1  0
  4 11  1  0
  4 12  1  0
  4 13  1  0
M  RAD  1   2   2
M  END
>  <reaction>  (2) 
rxn_1085

>  <mol_properties>  (2) 
{"1": {"label": "acceptor", "atom_type": "Cs"}}

>  <type>  (2) 
r2

$$$$

     RDKit          3D

 14 13  0  0  0  0  0  0  0  0999 V2000
   -0.7647   -1.2352   -0.0349 C   0  0  0  0  0  0  0  0  0  0  0  0
    0.0570   -0.0126    0.3624 C   0  0  0  0  0  0  0  0  0  0  0  0
    1.4161   -0.0194   -0.3307 C   0  0  0  0  0  0  0  0  0  0  0  0
   -0.7022    1.2765    0.0629 C   0  0  0  0  0  0  0  0  0  0  0  0
   -0.2387   -2.1618    0.2039 H   0  0  0  0  0  0  0  0  0  0  0  0
   -0.9625   -1.2315   -1.1108 H   0  0  0  0  0  0  0  0  0  0  0  0
   -1.7273   -1.2512    0.4806 H   0  0  0  0  0  0  0  0  0  0  0  0
    0.2295   -0.0589    1.4432 H   0  0  0  0  0  0  0  0  0  0  0  0
    1.2933    0.0260   -1.4168 H   0  0  0  0  0  0  0  0  0  0  0  0
    2.0206    0.8381   -0.0278 H   0  0  0  0  0  0  0  0  0  0  0  0
    1.9767   -0.9269   -0.0966 H   0  0  0  0  0  0  0  0  0  0  0  0
   -1.6638    1.3002    0.5799 H   0  0  0  0  0  0  0  0  0  0  0  0
   -0.8978    1.3664   -1.0096 H   0  0  0  0  0  0  0  0  0  0  0  0
   -0.1313    2.1545    0.3721 H   0  0  0  0  0  0  0  0  0  0  0  0
  1  2  1  0
  1  5  1  0
  1  6  1  0
  1  7  1  0
  2  3  1  0
  2  4  1  0
  2  8  1  0
  3  9  1  0
  3 10  1  0
  3 11  1  0
  4 12  1  0
  4 13  1  0
  4 14  1  0
M  END
>  <reaction>  (3) 
rxn_1085

>  <mol_properties>  (3) 
{"0": {"label": "a_hydrogen", "atom_type": "H0"}, "2": {"label": "acceptor", "atom_type": "Cs"}}

>  <type>  (3) 
r2h

$$$$

     RDKit          3D

 28 26  0  0  0  0  0  0  0  0999 V2000
    0.6186   -2.6885   -0.7703 C   0  0  0  0  0  0  0  0  0  0  0  0
    0.8175   -1.7624    0.1687 C   0  0  0  0  0  0  0  0  0  0  0  0
   -0.1859   -0.8641    0.7563 C   0  0  0  0  0  0  0  0  0  0  0  0
    0.0705   -0.5154    2.2092 C   0  0  0  0  0  0  0  0  0  0  0  0
   -1.6335   -1.1748    0.4503 C   0  0  0  0  0  0  0  0  0  0  0  0
    1.4423   -3.2732   -1.1588 H   0  0  0  0  0  0  0  0  0  0  0  0
   -0.3638   -2.9008   -1.1743 H   0  0  0  0  0  0  0  0  0  0  0  0
    1.8328   -1.6155    0.5318 H   0  0  0  0  0  0  0  0  0  0  0  0
    0.0124    0.2590    0.1484 H   0  0  0  0  0  0  0  0  0  0  0  0
    1.1099   -0.2195    2.3674 H   0  0  0  0  0  0  0  0  0  0  0  0
   -0.1355   -1.3689    2.8635 H   0  0  0  0  0  0  0  0  0  0  0  0
   -0.5684    0.3100    2.5305 H   0  0  0  0  0  0  0  0  0  0  0  0
   -1.9361   -2.1287    0.8949 H   0  0  0  0  0  0  0  0  0  0  0  0
   -1.8148   -1.2360   -0.6240 H   0  0  0  0  0  0  0  0  0  0  0  0
   -2.2843   -0.3964    0.8535 H   0  0  0  0  0  0  0  0  0  0  0  0
   -0.3216    1.1686   -1.9086 C   0  0  0  0  0  0  0  0  0  0  0  0
    0.2052    1.4782   -0.5332 C   0  0  0  0  0  3  0  0  0  0  0  0
    1.6996    1.6372   -0.4553 C   0  0  0  0  0  0  0  0  0  0  0  0
   -0.5887    2.4933    0.2437 C   0  0  0  0  0  0  0  0  0  0  0  0
    0.1688    0.2866   -2.3269 H   0  0  0  0  0  0  0  0  0  0  0  0
   -1.3978    0.9849   -1.8912 H   0  0  0  0  0  0  0  0  0  0  0  0
   -0.1415    2.0053   -2.5964 H   0  0  0  0  0  0  0  0  0  0  0  0
    2.0301    2.5338   -0.9954 H   0  0  0  0  0  0  0  0  0  0  0  0
    2.2090    0.7798   -0.9014 H   0  0  0  0  0  0  0  0  0  0  0  0
    2.0367    1.7351    0.5792 H   0  0  0  0  0  0  0  0  0  0  0  0
   -1.6473    2.2263    0.2816 H   0  0  0  0  0  0  0  0  0  0  0  0
   -0.2227    2.5873    1.2682 H   0  0  0  0  0  0  0  0  0  0  0  0
   -0.5195    3.4860   -0.2208 H   0  0  0  0  0  0  0  0  0  0  0  0
  1  2  2  3
  1  6  1  0
  1  7  1  0
  2  3  1  0
  2  8  1  0
  3  4  1  0
  3  5  1  0
  3  9  1  0
  4 10  1  0
  4 11  1  0
  4 12  1  0
  5 13  1  0
  5 14  1  0
  5 15  1  0
 16 17  1  0
 16 20  1  0
 16 21  1  0
 16 22  1  0
 17 18  1  0
 17 19  1  0
 18 23  1  0
 18 24  1  0
 18 25  1  0
 19 26  1  0
 19 27  1  0
 19 28  1  0
M  RAD  1  17   2
M  END
>  <reaction>  (4) 
rxn_1085

>  <mol_properties>  (4) 
{"1": {"label": "*0", "atom_type": "Cd"}, "2": {"label": "*1", "atom_type": "Cs"}, "8": {"label": "*2", "atom_type": "H0"}, "15": {"label": "*4", "atom_type": "Cs"}, "16": {"label": "*3", "atom_type": "Cs"}}

>  <type>  (4) 
ts

$$$$

     RDKit          3D

 28 26  0  0  0  0  0  0  0  0999 V2000
   -0.0421   -2.0915   -1.3607 C   0  0  0  0  0  0  0  0  0  0  0  0
   -0.0421   -2.0915   -0.0372 C   0  0  0  0  0  0  0  0  0  0  0  0
   -0.0421   -0.8701    0.8348 C   0  0  0  0  0  0  0  0  0  0  0  0
    1.2172   -0.8296    1.7025 C   0  0  0  0  0  0  0  0  0  0  0  0
   -1.3015   -0.8296    1.7025 C   0  0  0  0  0  0  0  0  0  0  0  0
   -0.0421   -3.0132   -1.9290 H   0  0  0  0  0  0  0  0  0  0  0  0
   -0.0421   -1.1649   -1.9253 H   0  0  0  0  0  0  0  0  0  0  0  0
   -0.0421   -3.0428    0.4933 H   0  0  0  0  0  0  0  0  0  0  0  0
   -0.0421    0.1863    0.0544 H   0  0  0  0  0  0  0  0  0  0  0  0
    2.1187   -0.8237    1.0883 H   0  0  0  0  0  0  0  0  0  0  0  0
    1.2617   -1.7035    2.3583 H   0  0  0  0  0  0  0  0  0  0  0  0
    1.2247    0.0616    2.3335 H   0  0  0  0  0  0  0  0  0  0  0  0
   -1.3460   -1.7035    2.3583 H   0  0  0  0  0  0  0  0  0  0  0  0
   -2.2030   -0.8237    1.0883 H   0  0  0  0  0  0  0  0  0  0  0  0
   -1.3090    0.0616    2.3335 H   0  0  0  0  0  0  0  0  0  0  0  0
   -1.2993    2.0526   -0.4220 C   0  0  0  0  0  0  0  0  0  0  0  0
   -0.0421    1.2436   -0.7267 C   0  0  0  0  0  3  0  0  0  0  0  0
    0.4700    1.5395   -2.1331 C   0  0  0  0  0  0  0  0  0  0  0  0
    1.0413    1.5051    0.3152 C   0  0  0  0  0  0  0  0  0  0  0  0
   -2.0890    1.8477   -1.1478 H   0  0  0  0  0  0  0  0  0  0  0  0
   -1.6875    1.8235    0.5727 H   0  0  0  0  0  0  0  0  0  0  0  0
   -1.0838    3.1246   -0.4572 H   0  0  0  0  0  0  0  0  0  0  0  0
    0.7463    2.5938   -2.2271 H   0  0  0  0  0  0  0  0  0  0  0  0
   -0.2918    1.3264   -2.8860 H   0  0  0  0  0  0  0  0  0  0  0  0
    1.3530    0.9415   -2.3681 H   0  0  0  0  0  0  0  0  0  0  0  0
    0.6901    1.2673    1.3215 H   0  0  0  0  0  0  0  0  0  0  0  0
    1.9335    0.9066    0.1190 H   0  0  0  0  0  0  0  0  0  0  0  0
    1.3372    2.5582    0.3052 H   0  0  0  0  0  0  0  0  0  0  0  0
  1  2  2  3
  1  6  1  0
  1  7  1  0
  2  3  1  0
  2  8  1  0
  3  4  1  0
  3  5  1  0
  3  9  1  0
  4 10  1  0
  4 11  1  0
  4 12  1  0
  5 13  1  0
  5 14  1  0
  5 15  1  0
 16 17  1  0
 16 20  1  0
 16 21  1  0
 16 22  1  0
 17 18  1  0
 17 19  1  0
 18 23  1  0
 18 24  1  0
 18 25  1  0
 19 26  1  0
 19 27  1  0
 19 28  1  0
M  RAD  1  17   2
M  END
>  <reaction>  (5) 
rxn_1085

>  <mol_properties>  (5) 
{"1": {"label": "*0", "atom_type": "Cd"}, "2": {"label": "*1", "atom_type": "Cs"}, "8": {"label": "*2", "atom_type": "H0"}, "15": {"label": "*4", "atom_type": "Cs"}, "16": {"label": "*3", "atom_type": "Cs"}}

>  <type>  (5) 
unop_1

>  <geom_source>  (5) 
Heuristics

$$$$

     RDKit          3D

 28 26  0  0  0  0  0  0  0  0999 V2000
    0.0465   -2.0702   -1.2879 C   0  0  0  0  0  0  0  0  0  0  0  0
    0.0465   -2.0702    0.0356 C   0  0  0  0  0  0  0  0  0  0  0  0
    0.0465   -0.8488    0.9077 C   0  0  0  0  0  0  0  0  0  0  0  0
    1.3058   -0.8084    1.7753 C   0  0  0  0  0  0  0  0  0  0  0  0
   -1.2128   -0.8084    1.7753 C   0  0  0  0  0  0  0  0  0  0  0  0
    0.0465   -2.9919   -1.8561 H   0  0  0  0  0  0  0  0  0  0  0  0
    0.0465   -1.1437   -1.8524 H   0  0  0  0  0  0  0  0  0  0  0  0
    0.0465   -3.0215    0.5662 H   0  0  0  0  0  0  0  0  0  0  0  0
    0.0465    0.2076    0.1272 H   0  0  0  0  0  0  0  0  0  0  0  0
    2.2074   -0.8025    1.1612 H   0  0  0  0  0  0  0  0  0  0  0  0
    1.3504   -1.6822    2.4311 H   0  0  0  0  0  0  0  0  0  0  0  0
    1.3134    0.0828    2.4063 H   0  0  0  0  0  0  0  0  0  0  0  0
   -1.2574   -1.6822    2.4311 H   0  0  0  0  0  0  0  0  0  0  0  0
   -2.1143   -0.8025    1.1612 H   0  0  0  0  0  0  0  0  0  0  0  0
   -1.2203    0.0828    2.4063 H   0  0  0  0  0  0  0  0  0  0  0  0
   -0.6793    0.8956   -1.9441 C   0  0  0  0  0  0  0  0  0  0  0  0
    0.0465    1.2649   -0.6539 C   0  0  0  0  0  3  0  0  0  0  0  0
    1.3172    2.0560   -0.9494 C   0  0  0  0  0  0  0  0  0  0  0  0
   -0.8720    2.0386    0.2871 C   0  0  0  0  0  0  0  0  0  0  0  0
   -0.0360    0.3162   -2.6097 H   0  0  0  0  0  0  0  0  0  0  0  0
   -1.5744    0.3040   -1.7407 H   0  0  0  0  0  0  0  0  0  0  0  0
   -0.9898    1.7966   -2.4811 H   0  0  0  0  0  0  0  0  0  0  0  0
    1.0752    2.9969   -1.4523 H   0  0  0  0  0  0  0  0  0  0  0  0
    1.9921    1.4950   -1.5993 H   0  0  0  0  0  0  0  0  0  0  0  0
    1.8567    2.2981   -0.0314 H   0  0  0  0  0  0  0  0  0  0  0  0
   -1.7701    1.4651    0.5257 H   0  0  0  0  0  0  0  0  0  0  0  0
   -0.3672    2.2805    1.2247 H   0  0  0  0  0  0  0  0  0  0  0  0
   -1.1891    2.9789   -0.1733 H   0  0  0  0  0  0  0  0  0  0  0  0
  1  2  2  3
  1  6  1  0
  1  7  1  0
  2  3  1  0
  2  8  1  0
  3  4  1  0
  3  5  1  0
  3  9  1  0
  4 10  1  0
  4 11  1  0
  4 12  1  0
  5 13  1  0
  5 14  1  0
  5 15  1  0
 16 17  1  0
 16 20  1  0
 16 21  1  0
 16 22  1  0
 17 18  1  0
 17 19  1  0
 18 23  1  0
 18 24  1  0
 18 25  1  0
 19 26  1  0
 19 27  1  0
 19 28  1  0
M  RAD  1  17   2
M  END
>  <reaction>  (6) 
rxn_1085

>  <mol_properties>  (6) 
{"1": {"label": "*0", "atom_type": "Cd"}, "2": {"label": "*1", "atom_type": "Cs"}, "8": {"label": "*2", "atom_type": "H0"}, "15": {"label": "*4", "atom_type": "Cs"}, "16": {"label": "*3", "atom_type": "Cs"}}

>  <type>  (6) 
unop_2

>  <geom_source>  (6) 
Heuristics

$$$$

     RDKit          3D

 28 26  0  0  0  0  0  0  0  0999 V2000
   -0.0627   -2.0739   -1.3084 C   0  0  0  0  0  0  0  0  0  0  0  0
   -0.0627   -2.0739    0.0151 C   0  0  0  0  0  0  0  0  0  0  0  0
   -0.0627   -0.8525    0.8871 C   0  0  0  0  0  0  0  0  0  0  0  0
    1.1966   -0.8121    1.7548 C   0  0  0  0  0  0  0  0  0  0  0  0
   -1.3220   -0.8121    1.7548 C   0  0  0  0  0  0  0  0  0  0  0  0
   -0.0627   -2.9956   -1.8767 H   0  0  0  0  0  0  0  0  0  0  0  0
   -0.0627   -1.1474   -1.8730 H   0  0  0  0  0  0  0  0  0  0  0  0
   -0.0627   -3.0252    0.5456 H   0  0  0  0  0  0  0  0  0  0  0  0
   -0.0627    0.2039    0.1067 H   0  0  0  0  0  0  0  0  0  0  0  0
    2.0982   -0.8062    1.1406 H   0  0  0  0  0  0  0  0  0  0  0  0
    1.2412   -1.6859    2.4106 H   0  0  0  0  0  0  0  0  0  0  0  0
    1.2041    0.0791    2.3857 H   0  0  0  0  0  0  0  0  0  0  0  0
   -1.3666   -1.6859    2.4106 H   0  0  0  0  0  0  0  0  0  0  0  0
   -2.2235   -0.8062    1.1406 H   0  0  0  0  0  0  0  0  0  0  0  0
   -1.3295    0.0791    2.3858 H   0  0  0  0  0  0  0  0  0  0  0  0
   -0.7885    2.3859    0.0577 C   0  0  0  0  0  0  0  0  0  0  0  0
   -0.0627    1.2612   -0.6744 C   0  0  0  0  0  3  0  0  0  0  0  0
   -0.3311    1.3240   -2.1750 C   0  0  0  0  0  0  0  0  0  0  0  0
    1.4349    1.2989   -0.3856 C   0  0  0  0  0  0  0  0  0  0  0  0
   -1.8650    2.3467   -0.1218 H   0  0  0  0  0  0  0  0  0  0  0  0
   -0.6240    2.3290    1.1357 H   0  0  0  0  0  0  0  0  0  0  0  0
   -0.4287    3.3609   -0.2837 H   0  0  0  0  0  0  0  0  0  0  0  0
    0.0445    2.2626   -2.5931 H   0  0  0  0  0  0  0  0  0  0  0  0
   -1.4003    1.2680   -2.3898 H   0  0  0  0  0  0  0  0  0  0  0  0
    0.1621    0.5041   -2.7013 H   0  0  0  0  0  0  0  0  0  0  0  0
    1.6347    1.2248    0.6855 H   0  0  0  0  0  0  0  0  0  0  0  0
    1.9561    0.4785   -0.8835 H   0  0  0  0  0  0  0  0  0  0  0  0
    1.8711    2.2366   -0.7422 H   0  0  0  0  0  0  0  0  0  0  0  0
  1  2  2  3
  1  6  1  0
  1  7  1  0
  2  3  1  0
  2  8  1  0
  3  4  1  0
  3  5  1  0
  3  9  1  0
  4 10  1  0
  4 11  1  0
  4 12  1  0
  5 13  1  0
  5 14  1  0
  5 15  1  0
 16 17  1  0
 16 20  1  0
 16 21  1  0
 16 22  1  0
 17 18  1  0
 17 19  1  0
 18 23  1  0
 18 24  1  0
 18 25  1  0
 19 26  1  0
 19 27  1  0
 19 28  1  0
M  RAD  1  17   2
M  END
>  <reaction>  (7) 
rxn_1085

>  <mol_properties>  (7) 
{"1": {"label": "*0", "atom_type": "Cd"}, "2": {"label": "*1", "atom_type": "Cs"}, "8": {"label": "*2", "atom_type": "H0"}, "15": {"label": "*4", "atom_type": "Cs"}, "16": {"label": "*3", "atom_type": "Cs"}}

>  <type>  (7) 
unop_3

>  <geom_source>  (7) 
Heuristics

$$$$

     RDKit          3D

 28 26  0  0  0  0  0  0  0  0999 V2000
   -0.0504   -2.0862   -1.3359 C   0  0  0  0  0  0  0  0  0  0  0  0
   -0.0504   -2.0862   -0.0124 C   0  0  0  0  0  0  0  0  0  0  0  0
   -0.0504   -0.8648    0.8596 C   0  0  0  0  0  0  0  0  0  0  0  0
    1.2089   -0.8244    1.7273 C   0  0  0  0  0  0  0  0  0  0  0  0
   -1.3097   -0.8244    1.7273 C   0  0  0  0  0  0  0  0  0  0  0  0
   -0.0504   -3.0079   -1.9042 H   0  0  0  0  0  0  0  0  0  0  0  0
   -0.0504   -1.1597   -1.9005 H   0  0  0  0  0  0  0  0  0  0  0  0
   -0.0504   -3.0375    0.5181 H   0  0  0  0  0  0  0  0  0  0  0  0
   -0.0504    0.1915    0.0792 H   0  0  0  0  0  0  0  0  0  0  0  0
    2.1104   -0.8185    1.1131 H   0  0  0  0  0  0  0  0  0  0  0  0
    1.2535   -1.6982    2.3831 H   0  0  0  0  0  0  0  0  0  0  0  0
    1.2164    0.0668    2.3583 H   0  0  0  0  0  0  0  0  0  0  0  0
   -1.3543   -1.6982    2.3831 H   0  0  0  0  0  0  0  0  0  0  0  0
   -2.2113   -0.8185    1.1131 H   0  0  0  0  0  0  0  0  0  0  0  0
   -1.3173    0.0668    2.3583 H   0  0  0  0  0  0  0  0  0  0  0  0
    1.2067    1.1953   -1.5647 C   0  0  0  0  0  0  0  0  0  0  0  0
   -0.0504    1.2489   -0.7019 C   0  0  0  0  0  3  0  0  0  0  0  0
    0.2344    1.9232    0.6367 C   0  0  0  0  0  0  0  0  0  0  0  0
   -1.1875    1.9524   -1.4367 C   0  0  0  0  0  0  0  0  0  0  0  0
    2.0156    0.6671   -1.0555 H   0  0  0  0  0  0  0  0  0  0  0  0
    1.0164    0.6875   -2.5126 H   0  0  0  0  0  0  0  0  0  0  0  0
    1.5593    2.2055   -1.7923 H   0  0  0  0  0  0  0  0  0  0  0  0
    0.5535    2.9585    0.4847 H   0  0  0  0  0  0  0  0  0  0  0  0
    1.0279    1.4065    1.1807 H   0  0  0  0  0  0  0  0  0  0  0  0
   -0.6546    1.9384    1.2707 H   0  0  0  0  0  0  0  0  0  0  0  0
   -1.4157    1.4566   -2.3826 H   0  0  0  0  0  0  0  0  0  0  0  0
   -2.0990    1.9681   -0.8356 H   0  0  0  0  0  0  0  0  0  0  0  0
   -0.9171    2.9886   -1.6599 H   0  0  0  0  0  0  0  0  0  0  0  0
  1  2  2  3
  1  6  1  0
  1  7  1  0
  2  3  1  0
  2  8  1  0
  3  4  1  0
  3  5  1  0
  3  9  1  0
  4 10  1  0
  4 11  1  0
  4 12  1  0
  5 13  1  0
  5 14  1  0
  5 15  1  0
 16 17  1  0
 16 20  1  0
 16 21  1  0
 16 22  1  0
 17 18  1  0
 17 19  1  0
 18 23  1  0
 18 24  1  0
 18 25  1  0
 19 26  1  0
 19 27  1  0
 19 28  1  0
M  RAD  1  17   2
M  END
>  <reaction>  (8) 
rxn_1085

>  <mol_properties>  (8) 
{"1": {"label": "*0", "atom_type": "Cd"}, "2": {"label": "*1", "atom_type": "Cs"}, "8": {"label": "*2", "atom_type": "H0"}, "15": {"label": "*4", "atom_type": "Cs"}, "16": {"label": "*3", "atom_type": "Cs"}}

>  <type>  (8) 
unop_4

>  <geom_source>  (8) 
Heuristics

$$$$

     RDKit          3D

 28 26  0  0  0  0  0  0  0  0999 V2000
    0.0000   -2.0624   -1.2639 C   0  0  0  0  0  0  0  0  0  0  0  0
    0.0000   -2.0624    0.0596 C   0  0  0  0  0  0  0  0  0  0  0  0
    0.0000   -0.8410    0.9316 C   0  0  0  0  0  0  0  0  0  0  0  0
    1.2593   -0.8006    1.7993 C   0  0  0  0  0  0  0  0  0  0  0  0
   -1.2593   -0.8006    1.7993 C   0  0  0  0  0  0  0  0  0  0  0  0
    0.0000   -2.9841   -1.8322 H   0  0  0  0  0  0  0  0  0  0  0  0
    0.0000   -1.1359   -1.8285 H   0  0  0  0  0  0  0  0  0  0  0  0
    0.0000   -3.0137    0.5901 H   0  0  0  0  0  0  0  0  0  0  0  0
    0.0000    0.2154    0.1512 H   0  0  0  0  0  0  0  0  0  0  0  0
    2.1609   -0.7947    1.1851 H   0  0  0  0  0  0  0  0  0  0  0  0
    1.3039   -1.6744    2.4551 H   0  0  0  0  0  0  0  0  0  0  0  0
    1.2668    0.0906    2.4303 H   0  0  0  0  0  0  0  0  0  0  0  0
   -1.3039   -1.6744    2.4551 H   0  0  0  0  0  0  0  0  0  0  0  0
   -2.1609   -0.7947    1.1851 H   0  0  0  0  0  0  0  0  0  0  0  0
   -1.2668    0.0906    2.4303 H   0  0  0  0  0  0  0  0  0  0  0  0
    0.0000    2.5129    0.2586 C   0  0  0  0  0  0  0  0  0  0  0  0
    0.0000    1.2727   -0.6299 C   0  0  0  0  0  3  0  0  0  0  0  0
   -1.2572    1.2191   -1.4927 C   0  0  0  0  0  0  0  0  0  0  0  0
    1.2572    1.2191   -1.4928 C   0  0  0  0  0  0  0  0  0  0  0  0
   -0.8835    2.5420    0.8999 H   0  0  0  0  0  0  0  0  0  0  0  0
    0.8834    2.5420    0.8999 H   0  0  0  0  0  0  0  0  0  0  0  0
    0.0000    3.4215   -0.3506 H   0  0  0  0  0  0  0  0  0  0  0  0
   -1.3003    2.0832   -2.1622 H   0  0  0  0  0  0  0  0  0  0  0  0
   -2.1605    1.2277   -0.8792 H   0  0  0  0  0  0  0  0  0  0  0  0
   -1.2771    0.3184   -2.1099 H   0  0  0  0  0  0  0  0  0  0  0  0
    2.1605    1.2277   -0.8792 H   0  0  0  0  0  0  0  0  0  0  0  0
    1.2771    0.3184   -2.1099 H   0  0  0  0  0  0  0  0  0  0  0  0
    1.3003    2.0832   -2.1622 H   0  0  0  0  0  0  0  0  0  0  0  0
  1  2  2  3
  1  6  1  0
  1  7  1  0
  2  3  1  0
  2  8  1  0
  3  4  1  0
  3  5  1  0
  3  9  1  0
  4 10  1  0
  4 11  1  0
  4 12  1  0
  5 13  1  0
  5 14  1  0
  5 15  1  0
 16 17  1  0
 16 20  1  0
 16 21  1  0
 16 22  1  0
 17 18  1  0
 17 19  1  0
 18 23  1  0
 18 24  1  0
 18 25  1  0
 19 26  1  0
 19 27  1  0
 19 28  1  0
M  RAD  1  17   2
M  END
>  <reaction>  (9) 
rxn_1085

>  <mol_properties>  (9) 
{"1": {"label": "*0", "atom_type": "Cd"}, "2": {"label": "*1", "atom_type": "Cs"}, "8": {"label": "*2", "atom_type": "H0"}, "15": {"label": "*4", "atom_type": "Cs"}, "16": {"label": "*3", "atom_type": "Cs"}}

>  <type>  (9) 
unop_5

>  <geom_source>  (9) 
Heuristics

$$$$

     RDKit          3D

 28 26  0  0  0  0  0  0  0  0999 V2000
   -0.0113   -2.0964   -1.3684 C   0  0  0  0  0  0  0  0  0  0  0  0
   -0.0113   -2.0964   -0.0449 C   0  0  0  0  0  0  0  0  0  0  0  0
   -0.0113   -0.8750    0.8271 C   0  0  0  0  0  0  0  0  0  0  0  0
    1.2481   -0.8346    1.6948 C   0  0  0  0  0  0  0  0  0  0  0  0
   -1.2706   -0.8346    1.6948 C   0  0  0  0  0  0  0  0  0  0  0  0
   -0.0112   -3.0181   -1.9367 H   0  0  0  0  0  0  0  0  0  0  0  0
   -0.0112   -1.1698   -1.9330 H   0  0  0  0  0  0  0  0  0  0  0  0
   -0.0113   -3.0477    0.4856 H   0  0  0  0  0  0  0  0  0  0  0  0
   -0.0112    0.1814    0.0467 H   0  0  0  0  0  0  0  0  0  0  0  0
    2.1496   -0.8287    1.0806 H   0  0  0  0  0  0  0  0  0  0  0  0
    1.2926   -1.7084    2.3506 H   0  0  0  0  0  0  0  0  0  0  0  0
    1.2556    0.0566    2.3258 H   0  0  0  0  0  0  0  0  0  0  0  0
   -1.3151   -1.7084    2.3506 H   0  0  0  0  0  0  0  0  0  0  0  0
   -2.1721   -0.8287    1.0806 H   0  0  0  0  0  0  0  0  0  0  0  0
   -1.2781    0.0566    2.3258 H   0  0  0  0  0  0  0  0  0  0  0  0
    1.4404    1.6164   -1.0135 C   0  0  0  0  0  0  0  0  0  0  0  0
   -0.0112    1.2387   -0.7344 C   0  0  0  0  0  3  0  0  0  0  0  0
   -0.4503    1.7354    0.6397 C   0  0  0  0  0  0  0  0  0  0  0  0
   -0.9335    1.7701   -1.8275 C   0  0  0  0  0  0  0  0  0  0  0  0
    2.1092    1.2139   -0.2498 H   0  0  0  0  0  0  0  0  0  0  0  0
    1.7696    1.2382   -1.9836 H   0  0  0  0  0  0  0  0  0  0  0  0
    1.5593    2.7038   -1.0215 H   0  0  0  0  0  0  0  0  0  0  0  0
   -0.3964    2.8270    0.6885 H   0  0  0  0  0  0  0  0  0  0  0  0
    0.1887    1.3348    1.4295 H   0  0  0  0  0  0  0  0  0  0  0  0
   -1.4795    1.4427    0.8575 H   0  0  0  0  0  0  0  0  0  0  0  0
   -0.6418    1.3944   -2.8105 H   0  0  0  0  0  0  0  0  0  0  0  0
   -1.9705    1.4780   -1.6487 H   0  0  0  0  0  0  0  0  0  0  0  0
   -0.8962    2.8629   -1.8634 H   0  0  0  0  0  0  0  0  0  0  0  0
  1  2  2  3
  1  6  1  0
  1  7  1  0
  2  3  1  0
  2  8  1  0
  3  4  1  0
  3  5  1  0
  3  9  1  0
  4 10  1  0
  4 11  1  0
  4 12  1  0
  5 13  1  0
  5 14  1  0
  5 15  1  0
 16 17  1  0
 16 20  1  0
 16 21  1  0
 16 22  1  0
 17 18  1  0
 17 19  1  0
 18 23  1  0
 18 24  1  0
 18 25  1  0
 19 26  1  0
 19 27  1  0
 19 28  1  0
M  RAD  1  17   2
M  END
>  <reaction>  (10) 
rxn_1085

>  <mol_properties>  (10) 
{"1": {"label": "*0", "atom_type": "Cd"}, "2": {"label": "*1", "atom_type": "Cs"}, "8": {"label": "*2", "atom_type": "H0"}, "15": {"label": "*4", "atom_type": "Cs"}, "16": {"label": "*3", "atom_type": "Cs"}}

>  <type>  (10) 
unop_6

>  <geom_source>  (10) 
Heuristics

$$$$

     RDKit          3D

 28 26  0  0  0  0  0  0  0  0999 V2000
    0.0421   -2.0915   -1.3607 C   0  0  0  0  0  0  0  0  0  0  0  0
    0.0421   -2.0915   -0.0372 C   0  0  0  0  0  0  0  0  0  0  0  0
    0.0421   -0.8701    0.8348 C   0  0  0  0  0  0  0  0  0  0  0  0
    1.3014   -0.8296    1.7025 C   0  0  0  0  0  0  0  0  0  0  0  0
   -1.2172   -0.8296    1.7025 C   0  0  0  0  0  0  0  0  0  0  0  0
    0.0421   -3.0132   -1.9290 H   0  0  0  0  0  0  0  0  0  0  0  0
    0.0421   -1.1649   -1.9253 H   0  0  0  0  0  0  0  0  0  0  0  0
    0.0421   -3.0428    0.4933 H   0  0  0  0  0  0  0  0  0  0  0  0
    0.0421    0.1863    0.0544 H   0  0  0  0  0  0  0  0  0  0  0  0
    2.2030   -0.8237    1.0883 H   0  0  0  0  0  0  0  0  0  0  0  0
    1.3460   -1.7035    2.3583 H   0  0  0  0  0  0  0  0  0  0  0  0
    1.3090    0.0616    2.3335 H   0  0  0  0  0  0  0  0  0  0  0  0
   -1.2617   -1.7035    2.3583 H   0  0  0  0  0  0  0  0  0  0  0  0
   -2.1187   -0.8237    1.0883 H   0  0  0  0  0  0  0  0  0  0  0  0
   -1.2247    0.0616    2.3335 H   0  0  0  0  0  0  0  0  0  0  0  0
    1.2993    2.0526   -0.4220 C   0  0  0  0  0  0  0  0  0  0  0  0
    0.0421    1.2436   -0.7267 C   0  0  0  0  0  3  0  0  0  0  0  0
   -1.0413    1.5050    0.3152 C   0  0  0  0  0  0  0  0  0  0  0  0
   -0.4700    1.5395   -2.1331 C   0  0  0  0  0  0  0  0  0  0  0  0
    1.6875    1.8235    0.5727 H   0  0  0  0  0  0  0  0  0  0  0  0
    2.0890    1.8476   -1.1478 H   0  0  0  0  0  0  0  0  0  0  0  0
    1.0838    3.1246   -0.4572 H   0  0  0  0  0  0  0  0  0  0  0  0
   -1.3372    2.5582    0.3052 H   0  0  0  0  0  0  0  0  0  0  0  0
   -0.6901    1.2673    1.3215 H   0  0  0  0  0  0  0  0  0  0  0  0
   -1.9334    0.9066    0.1190 H   0  0  0  0  0  0  0  0  0  0  0  0
    0.2918    1.3264   -2.8860 H   0  0  0  0  0  0  0  0  0  0  0  0
   -1.3530    0.9415   -2.3681 H   0  0  0  0  0  0  0  0  0  0  0  0
   -0.7463    2.5938   -2.2271 H   0  0  0  0  0  0  0  0  0  0  0  0
  1  2  2  3
  1  6  1  0
  1  7  1  0
  2  3  1  0
  2  8  1  0
  3  4  1  0
  3  5  1  0
  3  9  1  0
  4 10  1  0
  4 11  1  0
  4 12  1  0
  5 13  1  0
  5 14  1  0
  5 15  1  0
 16 17  1  0
 16 20  1  0
 16 21  1  0
 16 22  1  0
 17 18  1  0
 17 19  1  0
 18 23  1  0
 18 24  1  0
 18 25  1  0
 19 26  1  0
 19 27  1  0
 19 28  1  0
M  RAD  1  17   2
M  END
>  <reaction>  (11) 
rxn_1085

>  <mol_properties>  (11) 
{"1": {"label": "*0", "atom_type": "Cd"}, "2": {"label": "*1", "atom_type": "Cs"}, "8": {"label": "*2", "atom_type": "H0"}, "15": {"label": "*4", "atom_type": "Cs"}, "16": {"label": "*3", "atom_type": "Cs"}}

>  <type>  (11) 
unop_7

>  <geom_source>  (11) 
Heuristics

$$$$

     RDKit          3D

 28 26  0  0  0  0  0  0  0  0999 V2000
    0.0112   -2.0964   -1.3684 C   0  0  0  0  0  0  0  0  0  0  0  0
    0.0112   -2.0964   -0.0449 C   0  0  0  0  0  0  0  0  0  0  0  0
    0.0112   -0.8750    0.8271 C   0  0  0  0  0  0  0  0  0  0  0  0
    1.2706   -0.8346    1.6948 C   0  0  0  0  0  0  0  0  0  0  0  0
   -1.2481   -0.8346    1.6948 C   0  0  0  0  0  0  0  0  0  0  0  0
    0.0112   -3.0181   -1.9367 H   0  0  0  0  0  0  0  0  0  0  0  0
    0.0112   -1.1698   -1.9330 H   0  0  0  0  0  0  0  0  0  0  0  0
    0.0112   -3.0477    0.4856 H   0  0  0  0  0  0  0  0  0  0  0  0
    0.0112    0.1814    0.0467 H   0  0  0  0  0  0  0  0  0  0  0  0
    2.1721   -0.8287    1.0806 H   0  0  0  0  0  0  0  0  0  0  0  0
    1.3151   -1.7084    2.3506 H   0  0  0  0  0  0  0  0  0  0  0  0
    1.2781    0.0566    2.3258 H   0  0  0  0  0  0  0  0  0  0  0  0
   -1.2926   -1.7084    2.3506 H   0  0  0  0  0  0  0  0  0  0  0  0
   -2.1496   -0.8287    1.0806 H   0  0  0  0  0  0  0  0  0  0  0  0
   -1.2556    0.0566    2.3258 H   0  0  0  0  0  0  0  0  0  0  0  0
   -1.4404    1.6164   -1.0135 C   0  0  0  0  0  0  0  0  0  0  0  0
    0.0112    1.2387   -0.7344 C   0  0  0  0  0  3  0  0  0  0  0  0
    0.9335    1.7701   -1.8275 C   0  0  0  0  0  0  0  0  0  0  0  0
    0.4503    1.7355    0.6397 C   0  0  0  0  0  0  0  0  0  0  0  0
   -1.7696    1.2383   -1.9836 H   0  0  0  0  0  0  0  0  0  0  0  0
   -2.1092    1.2138   -0.2498 H   0  0  0  0  0  0  0  0  0  0  0  0
   -1.5593    2.7038   -1.0214 H   0  0  0  0  0  0  0  0  0  0  0  0
    0.8962    2.8628   -1.8634 H   0  0  0  0  0  0  0  0  0  0  0  0
    0.6418    1.3944   -2.8105 H   0  0  0  0  0  0  0  0  0  0  0  0
    1.9705    1.4780   -1.6488 H   0  0  0  0  0  0  0  0  0  0  0  0
   -0.1887    1.3348    1.4295 H   0  0  0  0  0  0  0  0  0  0  0  0
    1.4796    1.4428    0.8575 H   0  0  0  0  0  0  0  0  0  0  0  0
    0.3964    2.8270    0.6885 H   0  0  0  0  0  0  0  0  0  0  0  0
  1  2  2  3
  1  6  1  0
  1  7  1  0
  2  3  1  0
  2  8  1  0
  3  4  1  0
  3  5  1  0
  3  9  1  0
  4 10  1  0
  4 11  1  0
  4 12  1  0
  5 13  1  0
  5 14  1  0
  5 15  1  0
 16 17  1  0
 16 20  1  0
 16 21  1  0
 16 22  1  0
 17 18  1  0
 17 19  1  0
 18 23  1  0
 18 24  1  0
 18 25  1  0
 19 26  1  0
 19 27  1  0
 19 28  1  0
M  RAD  1  17   2
M  END
>  <reaction>  (12) 
rxn_1085

>  <mol_properties>  (12) 
{"1": {"label": "*0", "atom_type": "Cd"}, "2": {"label": "*1", "atom_type": "Cs"}, "8": {"label": "*2", "atom_type": "H0"}, "15": {"label": "*4", "atom_type": "Cs"}, "16": {"label": "*3", "atom_type": "Cs"}}

>  <type>  (12) 
unop_8

>  <geom_source>  (12) 
Heuristics

$$$$

     RDKit          3D

 28 26  0  0  0  0  0  0  0  0999 V2000
   -0.0465   -2.0702   -1.2879 C   0  0  0  0  0  0  0  0  0  0  0  0
   -0.0465   -2.0702    0.0356 C   0  0  0  0  0  0  0  0  0  0  0  0
   -0.0465   -0.8488    0.9077 C   0  0  0  0  0  0  0  0  0  0  0  0
    1.2128   -0.8084    1.7753 C   0  0  0  0  0  0  0  0  0  0  0  0
   -1.3058   -0.8084    1.7753 C   0  0  0  0  0  0  0  0  0  0  0  0
   -0.0465   -2.9919   -1.8561 H   0  0  0  0  0  0  0  0  0  0  0  0
   -0.0465   -1.1437   -1.8524 H   0  0  0  0  0  0  0  0  0  0  0  0
   -0.0465   -3.0215    0.5662 H   0  0  0  0  0  0  0  0  0  0  0  0
   -0.0465    0.2076    0.1272 H   0  0  0  0  0  0  0  0  0  0  0  0
    2.1143   -0.8025    1.1612 H   0  0  0  0  0  0  0  0  0  0  0  0
    1.2574   -1.6822    2.4311 H   0  0  0  0  0  0  0  0  0  0  0  0
    1.2203    0.0828    2.4063 H   0  0  0  0  0  0  0  0  0  0  0  0
   -1.3504   -1.6822    2.4311 H   0  0  0  0  0  0  0  0  0  0  0  0
   -2.2074   -0.8025    1.1612 H   0  0  0  0  0  0  0  0  0  0  0  0
   -1.3134    0.0828    2.4063 H   0  0  0  0  0  0  0  0  0  0  0  0
    0.6793    0.8956   -1.9441 C   0  0  0  0  0  0  0  0  0  0  0  0
   -0.0465    1.2649   -0.6539 C   0  0  0  0  0  3  0  0  0  0  0  0
    0.8720    2.0386    0.2871 C   0  0  0  0  0  0  0  0  0  0  0  0
   -1.3172    2.0560   -0.9494 C   0  0  0  0  0  0  0  0  0  0  0  0
    1.5744    0.3040   -1.7407 H   0  0  0  0  0  0  0  0  0  0  0  0
    0.0360    0.3162   -2.6096 H   0  0  0  0  0  0  0  0  0  0  0  0
    0.9898    1.7966   -2.4811 H   0  0  0  0  0  0  0  0  0  0  0  0
    1.1891    2.9789   -0.1733 H   0  0  0  0  0  0  0  0  0  0  0  0
    1.7702    1.4651    0.5257 H   0  0  0  0  0  0  0  0  0  0  0  0
    0.3672    2.2805    1.2248 H   0  0  0  0  0  0  0  0  0  0  0  0
   -1.9920    1.4950   -1.5993 H   0  0  0  0  0  0  0  0  0  0  0  0
   -1.8567    2.2982   -0.0314 H   0  0  0  0  0  0  0  0  0  0  0  0
   -1.0752    2.9969   -1.4523 H   0  0  0  0  0  0  0  0  0  0  0  0
  1  2  2  3
  1  6  1  0
  1  7  1  0
  2  3  1  0
  2  8  1  0
  3  4  1  0
  3  5  1  0
  3  9  1  0
  4 10  1  0
  4 11  1  0
  4 12  1  0
  5 13  1  0
  5 14  1  0
  5 15  1  0
 16 17  1  0
 16 20  1  0
 16 21  1  0
 16 22  1  0
 17 18  1  0
 17 19  1  0
 18 23  1  0
 18 24  1  0
 18 25  1  0
 19 26  1  0
 19 27  1  0
 19 28  1  0
M  RAD  1  17   2
M  END
>  <reaction>  (13) 
rxn_1085

>  <mol_properties>  (13) 
{"1": {"label": "*0", "atom_type": "Cd"}, "2": {"label": "*1", "atom_type": "Cs"}, "8": {"label": "*2", "atom_type": "H0"}, "15": {"label": "*4", "atom_type": "Cs"}, "16": {"label": "*3", "atom_type": "Cs"}}

>  <type>  (13) 
unop_9

>  <geom_source>  (13) 
Heuristics

$$$$

     RDKit          3D

 28 26  0  0  0  0  0  0  0  0999 V2000
    0.0504   -2.0862   -1.3359 C   0  0  0  0  0  0  0  0  0  0  0  0
    0.0504   -2.0862   -0.0124 C   0  0  0  0  0  0  0  0  0  0  0  0
    0.0504   -0.8648    0.8596 C   0  0  0  0  0  0  0  0  0  0  0  0
    1.3097   -0.8244    1.7273 C   0  0  0  0  0  0  0  0  0  0  0  0
   -1.2089   -0.8244    1.7273 C   0  0  0  0  0  0  0  0  0  0  0  0
    0.0504   -3.0079   -1.9042 H   0  0  0  0  0  0  0  0  0  0  0  0
    0.0504   -1.1597   -1.9005 H   0  0  0  0  0  0  0  0  0  0  0  0
    0.0504   -3.0375    0.5181 H   0  0  0  0  0  0  0  0  0  0  0  0
    0.0504    0.1915    0.0792 H   0  0  0  0  0  0  0  0  0  0  0  0
    2.2113   -0.8185    1.1131 H   0  0  0  0  0  0  0  0  0  0  0  0
    1.3543   -1.6982    2.3831 H   0  0  0  0  0  0  0  0  0  0  0  0
    1.3173    0.0668    2.3583 H   0  0  0  0  0  0  0  0  0  0  0  0
   -1.2535   -1.6982    2.3831 H   0  0  0  0  0  0  0  0  0  0  0  0
   -2.1104   -0.8185    1.1131 H   0  0  0  0  0  0  0  0  0  0  0  0
   -1.2164    0.0668    2.3583 H   0  0  0  0  0  0  0  0  0  0  0  0
   -1.2067    1.1953   -1.5647 C   0  0  0  0  0  0  0  0  0  0  0  0
    0.0504    1.2489   -0.7019 C   0  0  0  0  0  3  0  0  0  0  0  0
    1.1875    1.9523   -1.4368 C   0  0  0  0  0  0  0  0  0  0  0  0
   -0.2344    1.9232    0.6367 C   0  0  0  0  0  0  0  0  0  0  0  0
   -1.0164    0.6876   -2.5126 H   0  0  0  0  0  0  0  0  0  0  0  0
   -2.0156    0.6670   -1.0556 H   0  0  0  0  0  0  0  0  0  0  0  0
   -1.5594    2.2055   -1.7923 H   0  0  0  0  0  0  0  0  0  0  0  0
    0.9171    2.9886   -1.6599 H   0  0  0  0  0  0  0  0  0  0  0  0
    1.4156    1.4566   -2.3826 H   0  0  0  0  0  0  0  0  0  0  0  0
    2.0990    1.9680   -0.8356 H   0  0  0  0  0  0  0  0  0  0  0  0
   -1.0278    1.4065    1.1807 H   0  0  0  0  0  0  0  0  0  0  0  0
    0.6546    1.9385    1.2707 H   0  0  0  0  0  0  0  0  0  0  0  0
   -0.5535    2.9585    0.4847 H   0  0  0  0  0  0  0  0  0  0  0  0
  1  2  2  3
  1  6  1  0
  1  7  1  0
  2  3  1  0
  2  8  1  0
  3  4  1  0
  3  5  1  0
  3  9  1  0
  4 10  1  0
  4 11  1  0
  4 12  1  0
  5 13  1  0
  5 14  1  0
  5 15  1  0
 16 17  1  0
 16 20  1  0
 16 21  1  0
 16 22  1  0
 17 18  1  0
 17 19  1  0
 18 23  1  0
 18 24  1  0
 18 25  1  0
 19 26  1  0
 19 27  1  0
 19 28  1  0
M  RAD  1  17   2
M  END
>  <reaction>  (14) 
rxn_1085

>  <mol_properties>  (14) 
{"1": {"label": "*0", "atom_type": "Cd"}, "2": {"label": "*1", "atom_type": "Cs"}, "8": {"label": "*2", "atom_type": "H0"}, "15": {"label": "*4", "atom_type": "Cs"}, "16": {"label": "*3", "atom_type": "Cs"}}

>  <type>  (14) 
unop_10

>  <geom_source>  (14) 
Heuristics

$$$$

     RDKit          3D

 28 26  0  0  0  0  0  0  0  0999 V2000
    0.0627   -2.0739   -1.3084 C   0  0  0  0  0  0  0  0  0  0  0  0
    0.0627   -2.0739    0.0151 C   0  0  0  0  0  0  0  0  0  0  0  0
    0.0627   -0.8525    0.8871 C   0  0  0  0  0  0  0  0  0  0  0  0
    1.3220   -0.8121    1.7548 C   0  0  0  0  0  0  0  0  0  0  0  0
   -1.1966   -0.8121    1.7548 C   0  0  0  0  0  0  0  0  0  0  0  0
    0.0627   -2.9956   -1.8767 H   0  0  0  0  0  0  0  0  0  0  0  0
    0.0627   -1.1474   -1.8730 H   0  0  0  0  0  0  0  0  0  0  0  0
    0.0627   -3.0252    0.5456 H   0  0  0  0  0  0  0  0  0  0  0  0
    0.0627    0.2039    0.1067 H   0  0  0  0  0  0  0  0  0  0  0  0
    2.2235   -0.8062    1.1406 H   0  0  0  0  0  0  0  0  0  0  0  0
    1.3666   -1.6859    2.4106 H   0  0  0  0  0  0  0  0  0  0  0  0
    1.3295    0.0791    2.3857 H   0  0  0  0  0  0  0  0  0  0  0  0
   -1.2412   -1.6859    2.4106 H   0  0  0  0  0  0  0  0  0  0  0  0
   -2.0982   -0.8062    1.1406 H   0  0  0  0  0  0  0  0  0  0  0  0
   -1.2041    0.0791    2.3857 H   0  0  0  0  0  0  0  0  0  0  0  0
    0.7885    2.3859    0.0577 C   0  0  0  0  0  0  0  0  0  0  0  0
    0.0627    1.2612   -0.6744 C   0  0  0  0  0  3  0  0  0  0  0  0
   -1.4349    1.2989   -0.3855 C   0  0  0  0  0  0  0  0  0  0  0  0
    0.3311    1.3240   -2.1750 C   0  0  0  0  0  0  0  0  0  0  0  0
    0.6239    2.3290    1.1357 H   0  0  0  0  0  0  0  0  0  0  0  0
    1.8650    2.3466   -0.1218 H   0  0  0  0  0  0  0  0  0  0  0  0
    0.4287    3.3609   -0.2837 H   0  0  0  0  0  0  0  0  0  0  0  0
   -1.8711    2.2366   -0.7422 H   0  0  0  0  0  0  0  0  0  0  0  0
   -1.6347    1.2248    0.6855 H   0  0  0  0  0  0  0  0  0  0  0  0
   -1.9561    0.4785   -0.8834 H   0  0  0  0  0  0  0  0  0  0  0  0
    1.4003    1.2680   -2.3898 H   0  0  0  0  0  0  0  0  0  0  0  0
   -0.1621    0.5041   -2.7013 H   0  0  0  0  0  0  0  0  0  0  0  0
   -0.0445    2.2626   -2.5931 H   0  0  0  0  0  0  0  0  0  0  0  0
  1  2  2  3
  1  6  1  0
  1  7  1  0
  2  3  1  0
  2  8  1  0
  3  4  1  0
  3  5  1  0
  3  9  1  0
  4 10  1  0
  4 11  1  0
  4 12  1  0
  5 13  1  0
  5 14  1  0
  5 15  1  0
 16 17  1  0
 16 20  1  0
 16 21  1  0
 16 22  1  0
 17 18  1  0
 17 19  1  0
 18 23  1  0
 18 24  1  0
 18 25  1  0
 19 26  1  0
 19 27  1  0
 19 28  1  0
M  RAD  1  17   2
M  END
>  <reaction>  (15) 
rxn_1085

>  <mol_properties>  (15) 
{"1": {"label": "*0", "atom_type": "Cd"}, "2": {"label": "*1", "atom_type": "Cs"}, "8": {"label": "*2", "atom_type": "H0"}, "15": {"label": "*4", "atom_type": "Cs"}, "16": {"label": "*3", "atom_type": "Cs"}}

>  <type>  (15) 
unop_11

>  <geom_source>  (15) 
Heuristics

$$$$

     RDKit          3D

 28 26  0  0  0  0  0  0  0  0999 V2000
   -0.0000   -2.0624   -1.2639 C   0  0  0  0  0  0  0  0  0  0  0  0
   -0.0000   -2.0624    0.0596 C   0  0  0  0  0  0  0  0  0  0  0  0
   -0.0000   -0.8410    0.9316 C   0  0  0  0  0  0  0  0  0  0  0  0
    1.2593   -0.8006    1.7993 C   0  0  0  0  0  0  0  0  0  0  0  0
   -1.2593   -0.8006    1.7993 C   0  0  0  0  0  0  0  0  0  0  0  0
   -0.0000   -2.9841   -1.8322 H   0  0  0  0  0  0  0  0  0  0  0  0
   -0.0000   -1.1359   -1.8285 H   0  0  0  0  0  0  0  0  0  0  0  0
   -0.0000   -3.0137    0.5901 H   0  0  0  0  0  0  0  0  0  0  0  0
   -0.0000    0.2154    0.1512 H   0  0  0  0  0  0  0  0  0  0  0  0
    2.1609   -0.7947    1.1851 H   0  0  0  0  0  0  0  0  0  0  0  0
    1.3039   -1.6744    2.4551 H   0  0  0  0  0  0  0  0  0  0  0  0
    1.2668    0.0906    2.4303 H   0  0  0  0  0  0  0  0  0  0  0  0
   -1.3039   -1.6744    2.4551 H   0  0  0  0  0  0  0  0  0  0  0  0
   -2.1609   -0.7947    1.1851 H   0  0  0  0  0  0  0  0  0  0  0  0
   -1.2668    0.0906    2.4303 H   0  0  0  0  0  0  0  0  0  0  0  0
   -0.0000    0.7878   -2.0765 C   0  0  0  0  0  0  0  0  0  0  0  0
   -0.0000    1.2727   -0.6299 C   0  0  0  0  0  3  0  0  0  0  0  0
    1.2572    2.0816   -0.3252 C   0  0  0  0  0  0  0  0  0  0  0  0
   -1.2572    2.0817   -0.3252 C   0  0  0  0  0  0  0  0  0  0  0  0
    0.8835    0.1834   -2.2927 H   0  0  0  0  0  0  0  0  0  0  0  0
   -0.8834    0.1833   -2.2927 H   0  0  0  0  0  0  0  0  0  0  0  0
   -0.0000    1.6372   -2.7660 H   0  0  0  0  0  0  0  0  0  0  0  0
    1.3003    2.9755   -0.9544 H   0  0  0  0  0  0  0  0  0  0  0  0
    2.1605    1.4977   -0.5137 H   0  0  0  0  0  0  0  0  0  0  0  0
    1.2771    2.4068    0.7171 H   0  0  0  0  0  0  0  0  0  0  0  0
   -2.1605    1.4977   -0.5137 H   0  0  0  0  0  0  0  0  0  0  0  0
   -1.2771    2.4069    0.7171 H   0  0  0  0  0  0  0  0  0  0  0  0
   -1.3003    2.9755   -0.9544 H   0  0  0  0  0  0  0  0  0  0  0  0
  1  2  2  3
  1  6  1  0
  1  7  1  0
  2  3  1  0
  2  8  1  0
  3  4  1  0
  3  5  1  0
  3  9  1  0
  4 10  1  0
  4 11  1  0
  4 12  1  0
  5 13  1  0
  5 14  1  0
  5 15  1  0
 16 17  1  0
 16 20  1  0
 16 21  1  0
 16 22  1  0
 17 18  1  0
 17 19  1  0
 18 23  1  0
 18 24  1  0
 18 25  1  0
 19 26  1  0
 19 27  1  0
 19 28  1  0
M  RAD  1  17   2
M  END
>  <reaction>  (16) 
rxn_1085

>  <mol_properties>  (16) 
{"1": {"label": "*0", "atom_type": "Cd"}, "2": {"label": "*1", "atom_type": "Cs"}, "8": {"label": "*2", "atom_type": "H0"}, "15": {"label": "*4", "atom_type": "Cs"}, "16": {"label": "*3", "atom_type": "Cs"}}

>  <type>  (16) 
unop_12

>  <geom_source>  (16) 
Heuristics

$$$$

     RDKit          3D

 28 26  0  0  0  0  0  0  0  0999 V2000
   -1.2728    0.2208    0.0057 C   0  0  0  0  0  0  0  0  0  0  0  0
   -1.5397    1.7190    0.1780 C   0  0  0  0  0  0  0  0  0  0  0  0
   -2.0273   -0.3271   -1.2092 C   0  0  0  0  0  0  0  0  0  0  0  0
   -1.6586   -0.5469    1.2736 C   0  0  0  0  0  0  0  0  0  0  0  0
    1.4203   -0.7225   -1.4824 C   0  0  0  0  0  0  0  0  0  0  0  0
    1.4574   -1.7719    0.8147 C   0  0  0  0  0  0  0  0  0  0  0  0
    1.2196   -0.4892    0.0165 C   0  0  0  0  0  3  0  0  0  0  0  0
    2.0926    0.6328    0.5133 C   0  0  0  0  0  0  0  0  0  0  0  0
    1.7727    1.9065    0.2748 C   0  0  0  0  0  0  0  0  0  0  0  0
    0.0264    0.0521   -0.2022 H   0  0  0  0  0  0  0  0  0  0  0  0
   -0.9585    2.1124    1.0388 H   0  0  0  0  0  0  0  0  0  0  0  0
   -1.2217    2.2693   -0.7328 H   0  0  0  0  0  0  0  0  0  0  0  0
   -2.6204    1.9085    0.3553 H   0  0  0  0  0  0  0  0  0  0  0  0
   -3.1244   -0.2063   -1.0785 H   0  0  0  0  0  0  0  0  0  0  0  0
   -1.7120    0.2119   -2.1277 H   0  0  0  0  0  0  0  0  0  0  0  0
   -1.7969   -1.4049   -1.3459 H   0  0  0  0  0  0  0  0  0  0  0  0
   -1.4261   -1.6259    1.1506 H   0  0  0  0  0  0  0  0  0  0  0  0
   -2.7432   -0.4335    1.4877 H   0  0  0  0  0  0  0  0  0  0  0  0
   -1.0781   -0.1660    2.1404 H   0  0  0  0  0  0  0  0  0  0  0  0
    0.7419   -1.5279   -1.8346 H   0  0  0  0  0  0  0  0  0  0  0  0
    2.4714   -1.0141   -1.6955 H   0  0  0  0  0  0  0  0  0  0  0  0
    1.1788    0.2017   -2.0485 H   0  0  0  0  0  0  0  0  0  0  0  0
    1.2717   -1.5846    1.8935 H   0  0  0  0  0  0  0  0  0  0  0  0
    2.5013   -2.1298    0.6821 H   0  0  0  0  0  0  0  0  0  0  0  0
    0.7567   -2.5637    0.4757 H   0  0  0  0  0  0  0  0  0  0  0  0
    2.9822    0.4130    1.0977 H   0  0  0  0  0  0  0  0  0  0  0  0
    2.4049    2.7048    0.6499 H   0  0  0  0  0  0  0  0  0  0  0  0
    0.8817    2.1618   -0.2910 H   0  0  0  0  0  0  0  0  0  0  0  0
  1  2  1  0
  1  3  1  0
  1  4  1  0
  1 10  1  0
  2 11  1  0
  2 12  1  0
  2 13  1  0
  3 14  1  0
  3 15  1  0
  3 16  1  0
  4 17  1  0
  4 18  1  0
  4 19  1  0
  5  7  1  0
  5 20  1  0
  5 21  1  0
  5 22  1  0
  6  7  1  0
  6 23  1  0
  6 24  1  0
  6 25  1  0
  7  8  1  0
  8  9  2  3
  8 26  1  0
  9 27  1  0
  9 28  1  0
M  RAD  1   7   2
M  END
>  <reaction>  (17) 
rxn_1085

>  <mol_properties>  (17) 
{"1": {"label": "*0", "atom_type": "Cd"}, "2": {"label": "*1", "atom_type": "Cs"}, "8": {"label": "*2", "atom_type": "H0"}, "15": {"label": "*4", "atom_type": "Cs"}, "16": {"label": "*3", "atom_type": "Cs"}}

>  <type>  (17) 
unop_13

>  <geom_source>  (17) 
AutoTST

$$$$

     RDKit          3D

 28 26  0  0  0  0  0  0  0  0999 V2000
    0.0465   -2.0702   -1.2878 C   0  0  0  0  0  0  0  0  0  0  0  0
    0.0465   -2.0702    0.0356 C   0  0  0  0  0  0  0  0  0  0  0  0
    0.0465   -0.8488    0.9077 C   0  0  0  0  0  0  0  0  0  0  0  0
    1.3058   -0.8084    1.7753 C   0  0  0  0  0  0  0  0  0  0  0  0
   -1.2128   -0.8084    1.7753 C   0  0  0  0  0  0  0  0  0  0  0  0
    0.0465   -2.9919   -1.8561 H   0  0  0  0  0  0  0  0  0  0  0  0
    0.0465   -1.1437   -1.8524 H   0  0  0  0  0  0  0  0  0  0  0  0
    0.0465   -3.0215    0.5662 H   0  0  0  0  0  0  0  0  0  0  0  0
    0.0465    0.2076    0.1272 H   0  0  0  0  0  0  0  0  0  0  0  0
    2.2074   -0.8025    1.1612 H   0  0  0  0  0  0  0  0  0  0  0  0
    1.3504   -1.6822    2.4311 H   0  0  0  0  0  0  0  0  0  0  0  0
    1.3134    0.0828    2.4063 H   0  0  0  0  0  0  0  0  0  0  0  0
   -1.2574   -1.6822    2.4311 H   0  0  0  0  0  0  0  0  0  0  0  0
   -2.1143   -0.8025    1.1612 H   0  0  0  0  0  0  0  0  0  0  0  0
   -1.2203    0.0828    2.4063 H   0  0  0  0  0  0  0  0  0  0  0  0
   -0.6793    0.8956   -1.9441 C   0  0  0  0  0  0  0  0  0  0  0  0
    0.0465    1.2649   -0.6539 C   0  0  0  0  0  3  0  0  0  0  0  0
    1.3172    2.0560   -0.9494 C   0  0  0  0  0  0  0  0  0  0  0  0
   -0.8720    2.0386    0.2871 C   0  0  0  0  0  0  0  0  0  0  0  0
   -0.0360    0.3162   -2.6096 H   0  0  0  0  0  0  0  0  0  0  0  0
   -1.5744    0.3040   -1.7407 H   0  0  0  0  0  0  0  0  0  0  0  0
   -0.9898    1.7966   -2.4811 H   0  0  0  0  0  0  0  0  0  0  0  0
    1.0752    2.9969   -1.4523 H   0  0  0  0  0  0  0  0  0  0  0  0
    1.9921    1.4950   -1.5993 H   0  0  0  0  0  0  0  0  0  0  0  0
    1.8567    2.2981   -0.0314 H   0  0  0  0  0  0  0  0  0  0  0  0
   -1.7701    1.4651    0.5257 H   0  0  0  0  0  0  0  0  0  0  0  0
   -0.3671    2.2805    1.2247 H   0  0  0  0  0  0  0  0  0  0  0  0
   -1.1890    2.9789   -0.1733 H   0  0  0  0  0  0  0  0  0  0  0  0
  1  2  2  3
  1  6  1  0
  1  7  1  0
  2  3  1  0
  2  8  1  0
  3  4  1  0
  3  5  1  0
  3  9  1  0
  4 10  1  0
  4 11  1  0
  4 12  1  0
  5 13  1  0
  5 14  1  0
  5 15  1  0
 16 17  1  0
 16 20  1  0
 16 21  1  0
 16 22  1  0
 17 18  1  0
 17 19  1  0
 18 23  1  0
 18 24  1  0
 18 25  1  0
 19 26  1  0
 19 27  1  0
 19 28  1  0
M  RAD  1  17   2
M  END
>  <reaction>  (18) 
rxn_1085

>  <mol_properties>  (18) 
{"1": {"label": "*0", "atom_type": "Cd"}, "2": {"label": "*1", "atom_type": "Cs"}, "8": {"label": "*2", "atom_type": "H0"}, "15": {"label": "*4", "atom_type": "Cs"}, "16": {"label": "*3", "atom_type": "Cs"}}

>  <type>  (18) 
unop_14

>  <geom_source>  (18) 
gaussian_log

$$$$
