
     RDKit          3D

 16 15  0  0  0  0  0  0  0  0999 V2000
    1.7961   -0.3807    1.6176 C   0  0  0  0  0  0  0  0  0  0  0  0
    0.8562   -0.8708    0.8256 C   0  0  0  0  0  0  0  0  0  0  0  0
    0.0895   -0.0826   -0.2048 C   0  0  0  0  0  0  0  0  0  0  0  0
   -1.4061   -0.1111    0.0982 C   0  0  0  0  0  0  0  0  0  0  0  0
    0.4476   -0.5902   -1.5797 C   0  0  0  0  0  0  0  0  0  0  0  0
   -0.3793   -1.1113   -2.4728 C   0  0  0  0  0  0  0  0  0  0  0  0
    2.3110   -1.0032    2.3386 H   0  0  0  0  0  0  0  0  0  0  0  0
    2.0846    0.6643    1.5737 H   0  0  0  0  0  0  0  0  0  0  0  0
    0.5921   -1.9241    0.8925 H   0  0  0  0  0  0  0  0  0  0  0  0
    0.4358    0.9557   -0.1462 H   0  0  0  0  0  0  0  0  0  0  0  0
   -1.5968    0.3080    1.0865 H   0  0  0  0  0  0  0  0  0  0  0  0
   -1.9674    0.4693   -0.6359 H   0  0  0  0  0  0  0  0  0  0  0  0
   -1.7902   -1.1338    0.0883 H   0  0  0  0  0  0  0  0  0  0  0  0
    1.5049   -0.5197   -1.8214 H   0  0  0  0  0  0  0  0  0  0  0  0
   -1.4421   -1.2131   -2.2889 H   0  0  0  0  0  0  0  0  0  0  0  0
   -0.0162   -1.4558   -3.4328 H   0  0  0  0  0  0  0  0  0  0  0  0
  1  2  2  3
  1  7  1  0
  1  8  1  0
  2  3  1  0
  2  9  1  0
  3  4  1  0
  3  5  1  0
  3 10  1  0
  4 11  1  0
  4 12  1  0
  4 13  1  0
  5  6  2  3
  5 14  1  0
  6 15  1  0
  6 16  1  0
M  END
>  <reaction>  (1) 
rxn_1183

>  <mol_properties>  (1) 
{"2": {"label": "donator", "atom_type": "Cs"}, "9": {"label": "d_hydrogen", "atom_type": "H0"}}

>  <type>  (1) 
r1h

$$$$

     RDKit          3D

 14 14  0  0  0  0  0  0  0  0999 V2000
    2.3111    0.1295    0.0255 C   0  0  0  0  0  0  0  0  0  0  0  0
    0.9132    0.0511    0.0101 C   0  0  0  0  0  0  0  0  0  0  0  0
    0.2446   -1.1981    0.0389 C   0  0  0  0  0  3  0  0  0  0  0  0
   -1.1306   -1.2689    0.0235 C   0  0  0  0  0  0  0  0  0  0  0  0
   -1.8967   -0.1062   -0.0209 C   0  0  0  0  0  0  0  0  0  0  0  0
   -1.2644    1.1347   -0.0499 C   0  0  0  0  0  0  0  0  0  0  0  0
    0.1101    1.2180   -0.0350 C   0  0  0  0  0  0  0  0  0  0  0  0
    2.9188   -0.7647    0.0599 H   0  0  0  0  0  0  0  0  0  0  0  0
    2.8158    1.0859    0.0034 H   0  0  0  0  0  0  0  0  0  0  0  0
    0.8353   -2.1058    0.0735 H   0  0  0  0  0  0  0  0  0  0  0  0
   -1.6191   -2.2351    0.0461 H   0  0  0  0  0  0  0  0  0  0  0  0
   -2.9772   -0.1668   -0.0328 H   0  0  0  0  0  0  0  0  0  0  0  0
   -1.8572    2.0404   -0.0845 H   0  0  0  0  0  0  0  0  0  0  0  0
    0.5964    2.1860   -0.0577 H   0  0  0  0  0  0  0  0  0  0  0  0
  1  2  2  3
  1  8  1  0
  1  9  1  0
  2  3  1  0
  2  7  1  0
  3  4  1  0
  3 10  1  0
  4  5  2  0
  4 11  1  0
  5  6  1  0
  5 12  1  0
  6  7  2  0
  6 13  1  0
  7 14  1  0
M  RAD  1   3   2
M  END
>  <reaction>  (2) 
rxn_1183

>  <mol_properties>  (2) 
{"0": {"label": "acceptor", "atom_type": "Cs"}}

>  <type>  (2) 
r2

$$$$

     RDKit          3D

 15 15  0  0  0  0  0  0  0  0999 V2000
    2.2031   -0.2111   -0.1693 C   0  0  0  0  0  0  0  0  0  0  0  0
    0.7140   -0.0314   -0.0623 C   0  0  0  0  0  0  0  0  0  0  0  0
   -0.0114    0.5491   -1.0982 C   0  0  0  0  0  0  0  0  0  0  0  0
   -1.3882    0.6886   -1.0150 C   0  0  0  0  0  0  0  0  0  0  0  0
   -2.0661    0.2493    0.1118 C   0  0  0  0  0  0  0  0  0  0  0  0
   -1.3551   -0.3278    1.1528 C   0  0  0  0  0  0  0  0  0  0  0  0
    0.0216   -0.4648    1.0642 C   0  0  0  0  0  0  0  0  0  0  0  0
    2.6776   -0.1836    0.8122 H   0  0  0  0  0  0  0  0  0  0  0  0
    2.4446   -1.1749   -0.6249 H   0  0  0  0  0  0  0  0  0  0  0  0
    2.6532    0.5664   -0.7875 H   0  0  0  0  0  0  0  0  0  0  0  0
    0.5104    0.8989   -1.9819 H   0  0  0  0  0  0  0  0  0  0  0  0
   -1.9328    1.1452   -1.8322 H   0  0  0  0  0  0  0  0  0  0  0  0
   -3.1409    0.3597    0.1800 H   0  0  0  0  0  0  0  0  0  0  0  0
   -1.8736   -0.6702    2.0398 H   0  0  0  0  0  0  0  0  0  0  0  0
    0.5695   -0.9141    1.8849 H   0  0  0  0  0  0  0  0  0  0  0  0
  1  2  1  0
  1  8  1  0
  1  9  1  0
  1 10  1  0
  2  3  2  0
  2  7  1  0
  3  4  1  0
  3 11  1  0
  4  5  2  0
  4 12  1  0
  5  6  1  0
  5 13  1  0
  6  7  2  0
  6 14  1  0
  7 15  1  0
M  END
>  <reaction>  (3) 
rxn_1183

>  <mol_properties>  (3) 
{"0": {"label": "a_hydrogen", "atom_type": "H0"}, "1": {"label": "acceptor", "atom_type": "Cs"}}

>  <type>  (3) 
r2h

$$$$

     RDKit          3D

 30 29  0  0  0  0  0  0  0  0999 V2000
   -1.6523   -2.2207   -0.8967 C   0  0  0  0  0  0  0  0  0  0  0  0
   -2.0918   -1.4828    0.1193 C   0  0  0  0  0  0  0  0  0  0  0  0
   -1.2777   -0.8917    1.2020 C   0  0  0  0  0  0  0  0  0  0  0  0
    0.1487   -1.3740    1.3203 C   0  0  0  0  0  0  0  0  0  0  0  0
   -2.0242   -0.6970    2.4629 C   0  0  0  0  0  0  0  0  0  0  0  0
   -1.5352   -0.7581    3.6981 C   0  0  0  0  0  0  0  0  0  0  0  0
   -2.3357   -2.5804   -1.6550 H   0  0  0  0  0  0  0  0  0  0  0  0
   -0.6114   -2.4982   -1.0052 H   0  0  0  0  0  0  0  0  0  0  0  0
   -3.1527   -1.2471    0.1606 H   0  0  0  0  0  0  0  0  0  0  0  0
   -1.1178    0.3093    0.7774 H   0  0  0  0  0  0  0  0  0  0  0  0
    0.6648   -1.3101    0.3623 H   0  0  0  0  0  0  0  0  0  0  0  0
    0.7095   -0.7602    2.0257 H   0  0  0  0  0  0  0  0  0  0  0  0
    0.1827   -2.4115    1.6634 H   0  0  0  0  0  0  0  0  0  0  0  0
   -3.0773   -0.4548    2.3394 H   0  0  0  0  0  0  0  0  0  0  0  0
   -0.5008   -1.0054    3.9015 H   0  0  0  0  0  0  0  0  0  0  0  0
   -2.1702   -0.5729    4.5547 H   0  0  0  0  0  0  0  0  0  0  0  0
   -0.7995    1.5950    0.2057 C   0  0  0  0  0  0  0  0  0  0  0  0
    0.4153    1.3779   -0.5485 C   0  0  0  0  0  0  0  0  0  0  0  0
    0.3704    0.8430   -1.8443 C   0  0  0  0  0  3  0  0  0  0  0  0
    1.5328    0.5544   -2.5346 C   0  0  0  0  0  0  0  0  0  0  0  0
    2.7716    0.7918   -1.9527 C   0  0  0  0  0  0  0  0  0  0  0  0
    2.8348    1.3262   -0.6719 C   0  0  0  0  0  0  0  0  0  0  0  0
    1.6744    1.6136    0.0217 C   0  0  0  0  0  0  0  0  0  0  0  0
   -1.7169    1.7298   -0.3594 H   0  0  0  0  0  0  0  0  0  0  0  0
   -0.7296    2.1979    1.1059 H   0  0  0  0  0  0  0  0  0  0  0  0
   -0.5933    0.6441   -2.2979 H   0  0  0  0  0  0  0  0  0  0  0  0
    1.4750    0.1407   -3.5338 H   0  0  0  0  0  0  0  0  0  0  0  0
    3.6809    0.5656   -2.4945 H   0  0  0  0  0  0  0  0  0  0  0  0
    3.7968    1.5186   -0.2131 H   0  0  0  0  0  0  0  0  0  0  0  0
    1.7308    2.0241    1.0233 H   0  0  0  0  0  0  0  0  0  0  0  0
  1  2  2  3
  1  7  1  0
  1  8  1  0
  2  3  1  0
  2  9  1  0
  3  4  1  0
  3  5  1  0
  3 10  1  0
  4 11  1  0
  4 12  1  0
  4 13  1  0
  5  6  2  3
  5 14  1  0
  6 15  1  0
  6 16  1  0
 17 18  2  3
 17 24  1  0
 17 25  1  0
 18 19  1  0
 18 23  1  0
 19 20  1  0
 19 26  1  0
 20 21  2  0
 20 27  1  0
 21 22  1  0
 21 28  1  0
 22 23  2  0
 22 29  1  0
 23 30  1  0
M  RAD  1  19   2
M  END
>  <reaction>  (4) 
rxn_1183

>  <mol_properties>  (4) 
{"1": {"label": "*0", "atom_type": "Cd"}, "2": {"label": "*1", "atom_type": "Cs"}, "9": {"label": "*2", "atom_type": "H0"}, "16": {"label": "*3", "atom_type": "Cd"}, "17": {"label": "*4", "atom_type": "Cd"}}

>  <type>  (4) 
ts

$$$$

     RDKit          3D

 30 29  0  0  0  0  0  0  0  0999 V2000
    1.1086   -2.9221   -1.5690 C   0  0  0  0  0  0  0  0  0  0  0  0
    1.1086   -2.9221   -0.2457 C   0  0  0  0  0  0  0  0  0  0  0  0
    1.1086   -1.6913    0.6237 C   0  0  0  0  0  3  0  0  0  0  0  0
    2.3469   -1.6615    1.5153 C   0  0  0  0  0  0  0  0  0  0  0  0
   -0.1950   -1.6227    1.3802 C   0  0  0  0  0  0  0  0  0  0  0  0
   -0.3496   -1.6225    2.6951 C   0  0  0  0  0  0  0  0  0  0  0  0
    1.1078   -3.8447   -2.1357 H   0  0  0  0  0  0  0  0  0  0  0  0
    1.1103   -1.9963   -2.1347 H   0  0  0  0  0  0  0  0  0  0  0  0
    1.1038   -3.8679    0.2919 H   0  0  0  0  0  0  0  0  0  0  0  0
    1.1452   -0.6470   -0.1751 H   0  0  0  0  0  0  0  0  0  0  0  0
    3.2497   -1.6699    0.9040 H   0  0  0  0  0  0  0  0  0  0  0  0
    2.3616   -0.7658    2.1384 H   0  0  0  0  0  0  0  0  0  0  0  0
    2.3795   -2.5333    2.1729 H   0  0  0  0  0  0  0  0  0  0  0  0
   -1.0781   -1.5870    0.7477 H   0  0  0  0  0  0  0  0  0  0  0  0
    0.4908   -1.6618    3.3777 H   0  0  0  0  0  0  0  0  0  0  0  0
   -1.3360   -1.5794    3.1394 H   0  0  0  0  0  0  0  0  0  0  0  0
    1.1816    0.3920   -0.9699 C   0  0  0  0  0  0  0  0  0  0  0  0
   -0.0218    1.2724   -0.7748 C   0  0  0  0  0  0  0  0  0  0  0  0
    0.1028    2.5364   -0.2066 C   0  0  0  0  0  0  0  0  0  0  0  0
   -1.0002    3.3623   -0.0531 C   0  0  0  0  0  0  0  0  0  0  0  0
   -2.2530    2.9352   -0.4660 C   0  0  0  0  0  0  0  0  0  0  0  0
   -2.3918    1.6766   -1.0307 C   0  0  0  0  0  0  0  0  0  0  0  0
   -1.2854    0.8550   -1.1817 C   0  0  0  0  0  0  0  0  0  0  0  0
    1.9385    0.5801   -0.2077 H   0  0  0  0  0  0  0  0  0  0  0  0
    1.6421    0.5767   -1.9438 H   0  0  0  0  0  0  0  0  0  0  0  0
    1.0778    2.8777    0.1227 H   0  0  0  0  0  0  0  0  0  0  0  0
   -0.8807    4.3416    0.3936 H   0  0  0  0  0  0  0  0  0  0  0  0
   -3.1160    3.5774   -0.3448 H   0  0  0  0  0  0  0  0  0  0  0  0
   -3.3663    1.3308   -1.3525 H   0  0  0  0  0  0  0  0  0  0  0  0
   -1.4044   -0.1290   -1.6211 H   0  0  0  0  0  0  0  0  0  0  0  0
  1  2  2  3
  1  7  1  0
  1  8  1  0
  2  3  1  0
  2  9  1  0
  3  4  1  0
  3  5  1  0
  4 11  1  0
  4 12  1  0
  4 13  1  0
  5  6  2  3
  5 14  1  0
  6 15  1  0
  6 16  1  0
 10 17  1  0
 17 18  1  0
 17 24  1  0
 17 25  1  0
 18 19  2  0
 18 23  1  0
 19 20  1  0
 19 26  1  0
 20 21  2  0
 20 27  1  0
 21 22  1  0
 21 28  1  0
 22 23  2  0
 22 29  1  0
 23 30  1  0
M  RAD  1   3   2
M  END
>  <reaction>  (5) 
rxn_1183

>  <mol_properties>  (5) 
{"1": {"label": "*0", "atom_type": "Cd"}, "2": {"label": "*1", "atom_type": "Cs"}, "9": {"label": "*2", "atom_type": "H0"}, "16": {"label": "*3", "atom_type": "Cd"}, "17": {"label": "*4", "atom_type": "Cd"}}

>  <type>  (5) 
unop_1

>  <geom_source>  (5) 
Heuristics

$$$$

     RDKit          3D

 30 29  0  0  0  0  0  0  0  0999 V2000
    0.6458   -1.9082   -0.2670 C   0  0  0  0  0  0  0  0  0  0  0  0
    0.6458   -1.9082    1.0563 C   0  0  0  0  0  0  0  0  0  0  0  0
    0.6458   -0.6774    1.9257 C   0  0  0  0  0  3  0  0  0  0  0  0
    1.8842   -0.6476    2.8173 C   0  0  0  0  0  0  0  0  0  0  0  0
   -0.6577   -0.6088    2.6822 C   0  0  0  0  0  0  0  0  0  0  0  0
   -0.8123   -0.6086    3.9971 C   0  0  0  0  0  0  0  0  0  0  0  0
    0.6451   -2.8308   -0.8337 H   0  0  0  0  0  0  0  0  0  0  0  0
    0.6476   -0.9824   -0.8327 H   0  0  0  0  0  0  0  0  0  0  0  0
    0.6411   -2.8540    1.5939 H   0  0  0  0  0  0  0  0  0  0  0  0
    0.6824    0.3669    1.1269 H   0  0  0  0  0  0  0  0  0  0  0  0
    2.7870   -0.6560    2.2060 H   0  0  0  0  0  0  0  0  0  0  0  0
    1.8989    0.2481    3.4404 H   0  0  0  0  0  0  0  0  0  0  0  0
    1.9168   -1.5194    3.4749 H   0  0  0  0  0  0  0  0  0  0  0  0
   -1.5409   -0.5731    2.0497 H   0  0  0  0  0  0  0  0  0  0  0  0
    0.0280   -0.6479    4.6797 H   0  0  0  0  0  0  0  0  0  0  0  0
   -1.7987   -0.5655    4.4414 H   0  0  0  0  0  0  0  0  0  0  0  0
    0.7188    1.4059    0.3321 C   0  0  0  0  0  0  0  0  0  0  0  0
    0.0445    1.1149   -0.9801 C   0  0  0  0  0  0  0  0  0  0  0  0
   -0.8685    2.0107   -1.5279 C   0  0  0  0  0  0  0  0  0  0  0  0
   -1.4690    1.7594   -2.7519 C   0  0  0  0  0  0  0  0  0  0  0  0
   -1.1663    0.6013   -3.4516 C   0  0  0  0  0  0  0  0  0  0  0  0
   -0.2608   -0.3015   -2.9156 C   0  0  0  0  0  0  0  0  0  0  0  0
    0.3367   -0.0450   -1.6912 C   0  0  0  0  0  0  0  0  0  0  0  0
    0.0811    2.0070    0.9811 H   0  0  0  0  0  0  0  0  0  0  0  0
    1.6465    1.9622    0.1752 H   0  0  0  0  0  0  0  0  0  0  0  0
   -1.1143    2.9173   -0.9864 H   0  0  0  0  0  0  0  0  0  0  0  0
   -2.1784    2.4694   -3.1587 H   0  0  0  0  0  0  0  0  0  0  0  0
   -1.6361    0.4018   -4.4063 H   0  0  0  0  0  0  0  0  0  0  0  0
   -0.0204   -1.2116   -3.4511 H   0  0  0  0  0  0  0  0  0  0  0  0
    1.0408   -0.7587   -1.2784 H   0  0  0  0  0  0  0  0  0  0  0  0
  1  2  2  3
  1  7  1  0
  1  8  1  0
  2  3  1  0
  2  9  1  0
  3  4  1  0
  3  5  1  0
  4 11  1  0
  4 12  1  0
  4 13  1  0
  5  6  2  3
  5 14  1  0
  6 15  1  0
  6 16  1  0
 10 17  1  0
 17 18  1  0
 17 24  1  0
 17 25  1  0
 18 19  2  0
 18 23  1  0
 19 20  1  0
 19 26  1  0
 20 21  2  0
 20 27  1  0
 21 22  1  0
 21 28  1  0
 22 23  2  0
 22 29  1  0
 23 30  1  0
M  RAD  1   3   2
M  END
>  <reaction>  (6) 
rxn_1183

>  <mol_properties>  (6) 
{"1": {"label": "*0", "atom_type": "Cd"}, "2": {"label": "*1", "atom_type": "Cs"}, "9": {"label": "*2", "atom_type": "H0"}, "16": {"label": "*3", "atom_type": "Cd"}, "17": {"label": "*4", "atom_type": "Cd"}}

>  <type>  (6) 
unop_2

>  <geom_source>  (6) 
Heuristics

$$$$

     RDKit          3D

 30 29  0  0  0  0  0  0  0  0999 V2000
    0.6734   -3.1825   -1.9300 C   0  0  0  0  0  0  0  0  0  0  0  0
    0.6734   -3.1825   -0.6068 C   0  0  0  0  0  0  0  0  0  0  0  0
    0.6734   -1.9517    0.2626 C   0  0  0  0  0  3  0  0  0  0  0  0
    1.9118   -1.9219    1.1542 C   0  0  0  0  0  0  0  0  0  0  0  0
   -0.6301   -1.8831    1.0191 C   0  0  0  0  0  0  0  0  0  0  0  0
   -0.7847   -1.8829    2.3340 C   0  0  0  0  0  0  0  0  0  0  0  0
    0.6727   -4.1051   -2.4967 H   0  0  0  0  0  0  0  0  0  0  0  0
    0.6752   -2.2567   -2.4957 H   0  0  0  0  0  0  0  0  0  0  0  0
    0.6687   -4.1283   -0.0692 H   0  0  0  0  0  0  0  0  0  0  0  0
    0.7100   -0.9074   -0.5362 H   0  0  0  0  0  0  0  0  0  0  0  0
    2.8145   -1.9303    0.5430 H   0  0  0  0  0  0  0  0  0  0  0  0
    1.9265   -1.0262    1.7773 H   0  0  0  0  0  0  0  0  0  0  0  0
    1.9444   -2.7937    1.8118 H   0  0  0  0  0  0  0  0  0  0  0  0
   -1.5133   -1.8474    0.3866 H   0  0  0  0  0  0  0  0  0  0  0  0
    0.0556   -1.9222    3.0166 H   0  0  0  0  0  0  0  0  0  0  0  0
   -1.7711   -1.8398    2.7783 H   0  0  0  0  0  0  0  0  0  0  0  0
    0.7464    0.1316   -1.3310 C   0  0  0  0  0  0  0  0  0  0  0  0
    0.0510    1.3150   -0.7166 C   0  0  0  0  0  0  0  0  0  0  0  0
    0.7258    2.5155   -0.5175 C   0  0  0  0  0  0  0  0  0  0  0  0
    0.0792    3.6173    0.0208 C   0  0  0  0  0  0  0  0  0  0  0  0
   -1.2595    3.5364    0.3724 C   0  0  0  0  0  0  0  0  0  0  0  0
   -1.9429    2.3451    0.1825 C   0  0  0  0  0  0  0  0  0  0  0  0
   -1.2912    1.2464   -0.3562 C   0  0  0  0  0  0  0  0  0  0  0  0
    1.8114    0.1316   -1.0964 H   0  0  0  0  0  0  0  0  0  0  0  0
    0.6490    0.1481   -2.4195 H   0  0  0  0  0  0  0  0  0  0  0  0
    1.7738    2.5873   -0.7861 H   0  0  0  0  0  0  0  0  0  0  0  0
    0.6242    4.5414    0.1691 H   0  0  0  0  0  0  0  0  0  0  0  0
   -1.7658    4.3948    0.7954 H   0  0  0  0  0  0  0  0  0  0  0  0
   -2.9876    2.2690    0.4579 H   0  0  0  0  0  0  0  0  0  0  0  0
   -1.8331    0.3180   -0.4976 H   0  0  0  0  0  0  0  0  0  0  0  0
  1  2  2  3
  1  7  1  0
  1  8  1  0
  2  3  1  0
  2  9  1  0
  3  4  1  0
  3  5  1  0
  4 11  1  0
  4 12  1  0
  4 13  1  0
  5  6  2  3
  5 14  1  0
  6 15  1  0
  6 16  1  0
 10 17  1  0
 17 18  1  0
 17 24  1  0
 17 25  1  0
 18 19  2  0
 18 23  1  0
 19 20  1  0
 19 26  1  0
 20 21  2  0
 20 27  1  0
 21 22  1  0
 21 28  1  0
 22 23  2  0
 22 29  1  0
 23 30  1  0
M  RAD  1   3   2
M  END
>  <reaction>  (7) 
rxn_1183

>  <mol_properties>  (7) 
{"1": {"label": "*0", "atom_type": "Cd"}, "2": {"label": "*1", "atom_type": "Cs"}, "9": {"label": "*2", "atom_type": "H0"}, "16": {"label": "*3", "atom_type": "Cd"}, "17": {"label": "*4", "atom_type": "Cd"}}

>  <type>  (7) 
unop_3

>  <geom_source>  (7) 
Heuristics

$$$$

     RDKit          3D

 30 29  0  0  0  0  0  0  0  0999 V2000
   -1.0062   -2.1508   -0.6764 C   0  0  0  0  0  0  0  0  0  0  0  0
   -1.0062   -2.1508    0.6468 C   0  0  0  0  0  0  0  0  0  0  0  0
   -1.0062   -0.9200    1.5162 C   0  0  0  0  0  3  0  0  0  0  0  0
    0.2321   -0.8902    2.4078 C   0  0  0  0  0  0  0  0  0  0  0  0
   -2.3098   -0.8514    2.2728 C   0  0  0  0  0  0  0  0  0  0  0  0
   -2.4644   -0.8512    3.5877 C   0  0  0  0  0  0  0  0  0  0  0  0
   -1.0070   -3.0734   -1.2431 H   0  0  0  0  0  0  0  0  0  0  0  0
   -1.0045   -1.2250   -1.2421 H   0  0  0  0  0  0  0  0  0  0  0  0
   -1.0110   -3.0966    1.1845 H   0  0  0  0  0  0  0  0  0  0  0  0
   -0.9696    0.1243    0.7174 H   0  0  0  0  0  0  0  0  0  0  0  0
    1.1349   -0.8986    1.7966 H   0  0  0  0  0  0  0  0  0  0  0  0
    0.2468    0.0055    3.0309 H   0  0  0  0  0  0  0  0  0  0  0  0
    0.2647   -1.7620    3.0655 H   0  0  0  0  0  0  0  0  0  0  0  0
   -3.1929   -0.8157    1.6402 H   0  0  0  0  0  0  0  0  0  0  0  0
   -1.6240   -0.8905    4.2702 H   0  0  0  0  0  0  0  0  0  0  0  0
   -3.4508   -0.8081    4.0319 H   0  0  0  0  0  0  0  0  0  0  0  0
   -0.9332    1.1634   -0.0773 C   0  0  0  0  0  0  0  0  0  0  0  0
    0.3006    1.1517   -0.9368 C   0  0  0  0  0  0  0  0  0  0  0  0
    0.5684    2.1966   -1.8159 C   0  0  0  0  0  0  0  0  0  0  0  0
    1.7201    2.2033   -2.5875 C   0  0  0  0  0  0  0  0  0  0  0  0
    2.6274    1.1591   -2.4938 C   0  0  0  0  0  0  0  0  0  0  0  0
    2.3712    0.1099   -1.6244 C   0  0  0  0  0  0  0  0  0  0  0  0
    1.2178    0.1085   -0.8552 C   0  0  0  0  0  0  0  0  0  0  0  0
   -1.7510    1.6955   -0.5644 H   0  0  0  0  0  0  0  0  0  0  0  0
   -0.7365    1.6626    0.8749 H   0  0  0  0  0  0  0  0  0  0  0  0
   -0.1370    3.0159   -1.8987 H   0  0  0  0  0  0  0  0  0  0  0  0
    1.9077    3.0257   -3.2667 H   0  0  0  0  0  0  0  0  0  0  0  0
    3.5262    1.1610   -3.0973 H   0  0  0  0  0  0  0  0  0  0  0  0
    3.0706   -0.7134   -1.5465 H   0  0  0  0  0  0  0  0  0  0  0  0
    1.0243   -0.7182   -0.1808 H   0  0  0  0  0  0  0  0  0  0  0  0
  1  2  2  3
  1  7  1  0
  1  8  1  0
  2  3  1  0
  2  9  1  0
  3  4  1  0
  3  5  1  0
  4 11  1  0
  4 12  1  0
  4 13  1  0
  5  6  2  3
  5 14  1  0
  6 15  1  0
  6 16  1  0
 10 17  1  0
 17 18  1  0
 17 24  1  0
 17 25  1  0
 18 19  2  0
 18 23  1  0
 19 20  1  0
 19 26  1  0
 20 21  2  0
 20 27  1  0
 21 22  1  0
 21 28  1  0
 22 23  2  0
 22 29  1  0
 23 30  1  0
M  RAD  1   3   2
M  END
>  <reaction>  (8) 
rxn_1183

>  <mol_properties>  (8) 
{"1": {"label": "*0", "atom_type": "Cd"}, "2": {"label": "*1", "atom_type": "Cs"}, "9": {"label": "*2", "atom_type": "H0"}, "16": {"label": "*3", "atom_type": "Cd"}, "17": {"label": "*4", "atom_type": "Cd"}}

>  <type>  (8) 
unop_4

>  <geom_source>  (8) 
Heuristics

$$$$

     RDKit          3D

 30 29  0  0  0  0  0  0  0  0999 V2000
    0.0788   -3.2700   -2.0778 C   0  0  0  0  0  0  0  0  0  0  0  0
    0.0788   -3.2700   -0.7546 C   0  0  0  0  0  0  0  0  0  0  0  0
    0.0788   -2.0392    0.1148 C   0  0  0  0  0  3  0  0  0  0  0  0
    1.3172   -2.0095    1.0064 C   0  0  0  0  0  0  0  0  0  0  0  0
   -1.2247   -1.9707    0.8713 C   0  0  0  0  0  0  0  0  0  0  0  0
   -1.3793   -1.9704    2.1862 C   0  0  0  0  0  0  0  0  0  0  0  0
    0.0781   -4.1926   -2.6445 H   0  0  0  0  0  0  0  0  0  0  0  0
    0.0806   -2.3442   -2.6435 H   0  0  0  0  0  0  0  0  0  0  0  0
    0.0741   -4.2158   -0.2170 H   0  0  0  0  0  0  0  0  0  0  0  0
    0.1154   -0.9949   -0.6840 H   0  0  0  0  0  0  0  0  0  0  0  0
    2.2200   -2.0178    0.3952 H   0  0  0  0  0  0  0  0  0  0  0  0
    1.3319   -1.1137    1.6295 H   0  0  0  0  0  0  0  0  0  0  0  0
    1.3498   -2.8812    1.6640 H   0  0  0  0  0  0  0  0  0  0  0  0
   -2.1078   -1.9349    0.2388 H   0  0  0  0  0  0  0  0  0  0  0  0
   -0.5389   -2.0098    2.8688 H   0  0  0  0  0  0  0  0  0  0  0  0
   -2.3657   -1.9273    2.6305 H   0  0  0  0  0  0  0  0  0  0  0  0
    0.1519    0.0441   -1.4788 C   0  0  0  0  0  0  0  0  0  0  0  0
    0.1549    1.3297   -0.6987 C   0  0  0  0  0  0  0  0  0  0  0  0
    0.7645    2.4723   -1.2077 C   0  0  0  0  0  0  0  0  0  0  0  0
    0.7428    3.6668   -0.5044 C   0  0  0  0  0  0  0  0  0  0  0  0
    0.1093    3.7389    0.7268 C   0  0  0  0  0  0  0  0  0  0  0  0
   -0.4991    2.6069    1.2472 C   0  0  0  0  0  0  0  0  0  0  0  0
   -0.4743    1.4151    0.5395 C   0  0  0  0  0  0  0  0  0  0  0  0
    1.0379   -0.0396   -2.1090 H   0  0  0  0  0  0  0  0  0  0  0  0
   -0.7230   -0.0100   -2.1317 H   0  0  0  0  0  0  0  0  0  0  0  0
    1.2654    2.4248   -2.1681 H   0  0  0  0  0  0  0  0  0  0  0  0
    1.2254    4.5435   -0.9184 H   0  0  0  0  0  0  0  0  0  0  0  0
    0.0934    4.6700    1.2789 H   0  0  0  0  0  0  0  0  0  0  0  0
   -0.9927    2.6504    2.2102 H   0  0  0  0  0  0  0  0  0  0  0  0
   -0.9497    0.5342    0.9563 H   0  0  0  0  0  0  0  0  0  0  0  0
  1  2  2  3
  1  7  1  0
  1  8  1  0
  2  3  1  0
  2  9  1  0
  3  4  1  0
  3  5  1  0
  4 11  1  0
  4 12  1  0
  4 13  1  0
  5  6  2  3
  5 14  1  0
  6 15  1  0
  6 16  1  0
 10 17  1  0
 17 18  1  0
 17 24  1  0
 17 25  1  0
 18 19  2  0
 18 23  1  0
 19 20  1  0
 19 26  1  0
 20 21  2  0
 20 27  1  0
 21 22  1  0
 21 28  1  0
 22 23  2  0
 22 29  1  0
 23 30  1  0
M  RAD  1   3   2
M  END
>  <reaction>  (9) 
rxn_1183

>  <mol_properties>  (9) 
{"1": {"label": "*0", "atom_type": "Cd"}, "2": {"label": "*1", "atom_type": "Cs"}, "9": {"label": "*2", "atom_type": "H0"}, "16": {"label": "*3", "atom_type": "Cd"}, "17": {"label": "*4", "atom_type": "Cd"}}

>  <type>  (9) 
unop_5

>  <geom_source>  (9) 
Heuristics

$$$$

     RDKit          3D

 30 29  0  0  0  0  0  0  0  0999 V2000
   -1.1560   -2.5167   -1.1651 C   0  0  0  0  0  0  0  0  0  0  0  0
   -1.1560   -2.5167    0.1582 C   0  0  0  0  0  0  0  0  0  0  0  0
   -1.1560   -1.2859    1.0276 C   0  0  0  0  0  3  0  0  0  0  0  0
    0.0824   -1.2561    1.9192 C   0  0  0  0  0  0  0  0  0  0  0  0
   -2.4595   -1.2174    1.7841 C   0  0  0  0  0  0  0  0  0  0  0  0
   -2.6141   -1.2171    3.0990 C   0  0  0  0  0  0  0  0  0  0  0  0
   -1.1567   -3.4393   -1.7318 H   0  0  0  0  0  0  0  0  0  0  0  0
   -1.1542   -1.5909   -1.7308 H   0  0  0  0  0  0  0  0  0  0  0  0
   -1.1607   -3.4625    0.6958 H   0  0  0  0  0  0  0  0  0  0  0  0
   -1.1194   -0.2416    0.2288 H   0  0  0  0  0  0  0  0  0  0  0  0
    0.9851   -1.2645    1.3079 H   0  0  0  0  0  0  0  0  0  0  0  0
    0.0971   -0.3604    2.5423 H   0  0  0  0  0  0  0  0  0  0  0  0
    0.1150   -2.1279    2.5768 H   0  0  0  0  0  0  0  0  0  0  0  0
   -3.3427   -1.1816    1.1516 H   0  0  0  0  0  0  0  0  0  0  0  0
   -1.7738   -1.2564    3.7816 H   0  0  0  0  0  0  0  0  0  0  0  0
   -3.6005   -1.1740    3.5433 H   0  0  0  0  0  0  0  0  0  0  0  0
   -1.0830    0.7974   -0.5660 C   0  0  0  0  0  0  0  0  0  0  0  0
    0.3323    1.2082   -0.8649 C   0  0  0  0  0  0  0  0  0  0  0  0
    0.6058    2.4105   -1.5099 C   0  0  0  0  0  0  0  0  0  0  0  0
    1.9108    2.8060   -1.7598 C   0  0  0  0  0  0  0  0  0  0  0  0
    2.9698    2.0012   -1.3684 C   0  0  0  0  0  0  0  0  0  0  0  0
    2.7113    0.7990   -0.7279 C   0  0  0  0  0  0  0  0  0  0  0  0
    1.4043    0.4085   -0.4805 C   0  0  0  0  0  0  0  0  0  0  0  0
   -1.7762    1.1929   -1.3091 H   0  0  0  0  0  0  0  0  0  0  0  0
   -1.3970    1.1743    0.4107 H   0  0  0  0  0  0  0  0  0  0  0  0
   -0.2158    3.0449   -1.8229 H   0  0  0  0  0  0  0  0  0  0  0  0
    2.1008    3.7449   -2.2651 H   0  0  0  0  0  0  0  0  0  0  0  0
    3.9895    2.3068   -1.5649 H   0  0  0  0  0  0  0  0  0  0  0  0
    3.5305    0.1601   -0.4219 H   0  0  0  0  0  0  0  0  0  0  0  0
    1.2119   -0.5351    0.0177 H   0  0  0  0  0  0  0  0  0  0  0  0
  1  2  2  3
  1  7  1  0
  1  8  1  0
  2  3  1  0
  2  9  1  0
  3  4  1  0
  3  5  1  0
  4 11  1  0
  4 12  1  0
  4 13  1  0
  5  6  2  3
  5 14  1  0
  6 15  1  0
  6 16  1  0
 10 17  1  0
 17 18  1  0
 17 24  1  0
 17 25  1  0
 18 19  2  0
 18 23  1  0
 19 20  1  0
 19 26  1  0
 20 21  2  0
 20 27  1  0
 21 22  1  0
 21 28  1  0
 22 23  2  0
 22 29  1  0
 23 30  1  0
M  RAD  1   3   2
M  END
>  <reaction>  (10) 
rxn_1183

>  <mol_properties>  (10) 
{"1": {"label": "*0", "atom_type": "Cd"}, "2": {"label": "*1", "atom_type": "Cs"}, "9": {"label": "*2", "atom_type": "H0"}, "16": {"label": "*3", "atom_type": "Cd"}, "17": {"label": "*4", "atom_type": "Cd"}}

>  <type>  (10) 
unop_6

>  <geom_source>  (10) 
Heuristics

$$$$

     RDKit          3D

 30 29  0  0  0  0  0  0  0  0999 V2000
   -0.9799   -2.8870   -1.6413 C   0  0  0  0  0  0  0  0  0  0  0  0
   -0.9799   -2.8870   -0.3180 C   0  0  0  0  0  0  0  0  0  0  0  0
   -0.9799   -1.6562    0.5514 C   0  0  0  0  0  3  0  0  0  0  0  0
    0.2585   -1.6264    1.4430 C   0  0  0  0  0  0  0  0  0  0  0  0
   -2.2834   -1.5876    1.3079 C   0  0  0  0  0  0  0  0  0  0  0  0
   -2.4380   -1.5874    2.6228 C   0  0  0  0  0  0  0  0  0  0  0  0
   -0.9806   -3.8096   -2.2080 H   0  0  0  0  0  0  0  0  0  0  0  0
   -0.9781   -1.9612   -2.2070 H   0  0  0  0  0  0  0  0  0  0  0  0
   -0.9846   -3.8328    0.2196 H   0  0  0  0  0  0  0  0  0  0  0  0
   -0.9433   -0.6118   -0.2474 H   0  0  0  0  0  0  0  0  0  0  0  0
    1.1613   -1.6348    0.8317 H   0  0  0  0  0  0  0  0  0  0  0  0
    0.2732   -0.7306    2.0661 H   0  0  0  0  0  0  0  0  0  0  0  0
    0.2911   -2.4982    2.1006 H   0  0  0  0  0  0  0  0  0  0  0  0
   -3.1665   -1.5519    0.6754 H   0  0  0  0  0  0  0  0  0  0  0  0
   -1.5976   -1.6267    3.3054 H   0  0  0  0  0  0  0  0  0  0  0  0
   -3.4244   -1.5443    3.0671 H   0  0  0  0  0  0  0  0  0  0  0  0
   -0.9069    0.4272   -1.0422 C   0  0  0  0  0  0  0  0  0  0  0  0
    0.3148    1.2667   -0.7894 C   0  0  0  0  0  0  0  0  0  0  0  0
    0.4430    2.5303   -1.3580 C   0  0  0  0  0  0  0  0  0  0  0  0
    1.5543    3.3188   -1.1026 C   0  0  0  0  0  0  0  0  0  0  0  0
    2.5619    2.8543   -0.2712 C   0  0  0  0  0  0  0  0  0  0  0  0
    2.4485    1.5956    0.2991 C   0  0  0  0  0  0  0  0  0  0  0  0
    1.3350    0.8114    0.0402 C   0  0  0  0  0  0  0  0  0  0  0  0
   -1.3346    0.6345   -2.0237 H   0  0  0  0  0  0  0  0  0  0  0  0
   -1.6788    0.6332   -0.2964 H   0  0  0  0  0  0  0  0  0  0  0  0
   -0.3381    2.9007   -2.0123 H   0  0  0  0  0  0  0  0  0  0  0  0
    1.6346    4.2984   -1.5573 H   0  0  0  0  0  0  0  0  0  0  0  0
    3.4318    3.4673   -0.0725 H   0  0  0  0  0  0  0  0  0  0  0  0
    3.2317    1.2206    0.9463 H   0  0  0  0  0  0  0  0  0  0  0  0
    1.2568   -0.1730    0.4879 H   0  0  0  0  0  0  0  0  0  0  0  0
  1  2  2  3
  1  7  1  0
  1  8  1  0
  2  3  1  0
  2  9  1  0
  3  4  1  0
  3  5  1  0
  4 11  1  0
  4 12  1  0
  4 13  1  0
  5  6  2  3
  5 14  1  0
  6 15  1  0
  6 16  1  0
 10 17  1  0
 17 18  1  0
 17 24  1  0
 17 25  1  0
 18 19  2  0
 18 23  1  0
 19 20  1  0
 19 26  1  0
 20 21  2  0
 20 27  1  0
 21 22  1  0
 21 28  1  0
 22 23  2  0
 22 29  1  0
 23 30  1  0
M  RAD  1   3   2
M  END
>  <reaction>  (11) 
rxn_1183

>  <mol_properties>  (11) 
{"1": {"label": "*0", "atom_type": "Cd"}, "2": {"label": "*1", "atom_type": "Cs"}, "9": {"label": "*2", "atom_type": "H0"}, "16": {"label": "*3", "atom_type": "Cd"}, "17": {"label": "*4", "atom_type": "Cd"}}

>  <type>  (11) 
unop_7

>  <geom_source>  (11) 
Heuristics

$$$$

     RDKit          3D

 30 29  0  0  0  0  0  0  0  0999 V2000
    1.2647   -2.5574   -1.0851 C   0  0  0  0  0  0  0  0  0  0  0  0
    1.2647   -2.5574    0.2382 C   0  0  0  0  0  0  0  0  0  0  0  0
    1.2647   -1.3266    1.1076 C   0  0  0  0  0  3  0  0  0  0  0  0
    2.5031   -1.2969    1.9992 C   0  0  0  0  0  0  0  0  0  0  0  0
   -0.0388   -1.2581    1.8641 C   0  0  0  0  0  0  0  0  0  0  0  0
   -0.1934   -1.2578    3.1790 C   0  0  0  0  0  0  0  0  0  0  0  0
    1.2640   -3.4801   -1.6518 H   0  0  0  0  0  0  0  0  0  0  0  0
    1.2665   -1.6316   -1.6508 H   0  0  0  0  0  0  0  0  0  0  0  0
    1.2600   -3.5033    0.7758 H   0  0  0  0  0  0  0  0  0  0  0  0
    1.3013   -0.2823    0.3087 H   0  0  0  0  0  0  0  0  0  0  0  0
    3.4059   -1.3052    1.3879 H   0  0  0  0  0  0  0  0  0  0  0  0
    2.5178   -0.4011    2.6223 H   0  0  0  0  0  0  0  0  0  0  0  0
    2.5357   -2.1686    2.6568 H   0  0  0  0  0  0  0  0  0  0  0  0
   -0.9220   -1.2223    1.2315 H   0  0  0  0  0  0  0  0  0  0  0  0
    0.6470   -1.2972    3.8615 H   0  0  0  0  0  0  0  0  0  0  0  0
   -1.1798   -1.2147    3.6232 H   0  0  0  0  0  0  0  0  0  0  0  0
    1.3377    0.7567   -0.4860 C   0  0  0  0  0  0  0  0  0  0  0  0
   -0.0471    1.2146   -0.8516 C   0  0  0  0  0  0  0  0  0  0  0  0
   -0.5424    2.4302   -0.3899 C   0  0  0  0  0  0  0  0  0  0  0  0
   -1.8073    2.8690   -0.7497 C   0  0  0  0  0  0  0  0  0  0  0  0
   -2.6030    2.0949   -1.5804 C   0  0  0  0  0  0  0  0  0  0  0  0
   -2.1231    0.8799   -2.0449 C   0  0  0  0  0  0  0  0  0  0  0  0
   -0.8574    0.4461   -1.6817 C   0  0  0  0  0  0  0  0  0  0  0  0
    1.6358    1.1362    0.4919 H   0  0  0  0  0  0  0  0  0  0  0  0
    2.0688    1.1154   -1.2151 H   0  0  0  0  0  0  0  0  0  0  0  0
    0.0711    3.0409    0.2631 H   0  0  0  0  0  0  0  0  0  0  0  0
   -2.1737    3.8176   -0.3771 H   0  0  0  0  0  0  0  0  0  0  0  0
   -3.5920    2.4344   -1.8606 H   0  0  0  0  0  0  0  0  0  0  0  0
   -2.7378    0.2648   -2.6904 H   0  0  0  0  0  0  0  0  0  0  0  0
   -0.4922   -0.5072   -2.0470 H   0  0  0  0  0  0  0  0  0  0  0  0
  1  2  2  3
  1  7  1  0
  1  8  1  0
  2  3  1  0
  2  9  1  0
  3  4  1  0
  3  5  1  0
  4 11  1  0
  4 12  1  0
  4 13  1  0
  5  6  2  3
  5 14  1  0
  6 15  1  0
  6 16  1  0
 10 17  1  0
 17 18  1  0
 17 24  1  0
 17 25  1  0
 18 19  2  0
 18 23  1  0
 19 20  1  0
 19 26  1  0
 20 21  2  0
 20 27  1  0
 21 22  1  0
 21 28  1  0
 22 23  2  0
 22 29  1  0
 23 30  1  0
M  RAD  1   3   2
M  END
>  <reaction>  (12) 
rxn_1183

>  <mol_properties>  (12) 
{"1": {"label": "*0", "atom_type": "Cd"}, "2": {"label": "*1", "atom_type": "Cs"}, "9": {"label": "*2", "atom_type": "H0"}, "16": {"label": "*3", "atom_type": "Cd"}, "17": {"label": "*4", "atom_type": "Cd"}}

>  <type>  (12) 
unop_8

>  <geom_source>  (12) 
Heuristics

$$$$

     RDKit          3D

 30 29  0  0  0  0  0  0  0  0999 V2000
   -0.5704   -1.8877   -0.3068 C   0  0  0  0  0  0  0  0  0  0  0  0
   -0.5704   -1.8877    1.0164 C   0  0  0  0  0  0  0  0  0  0  0  0
   -0.5704   -0.6569    1.8858 C   0  0  0  0  0  3  0  0  0  0  0  0
    0.6680   -0.6272    2.7774 C   0  0  0  0  0  0  0  0  0  0  0  0
   -1.8739   -0.5884    2.6423 C   0  0  0  0  0  0  0  0  0  0  0  0
   -2.0285   -0.5881    3.9572 C   0  0  0  0  0  0  0  0  0  0  0  0
   -0.5711   -2.8103   -0.8735 H   0  0  0  0  0  0  0  0  0  0  0  0
   -0.5686   -0.9619   -0.8725 H   0  0  0  0  0  0  0  0  0  0  0  0
   -0.5751   -2.8335    1.5540 H   0  0  0  0  0  0  0  0  0  0  0  0
   -0.5338    0.3874    1.0870 H   0  0  0  0  0  0  0  0  0  0  0  0
    1.5707   -0.6355    2.1662 H   0  0  0  0  0  0  0  0  0  0  0  0
    0.6826    0.2686    3.4005 H   0  0  0  0  0  0  0  0  0  0  0  0
    0.7006   -1.4989    3.4350 H   0  0  0  0  0  0  0  0  0  0  0  0
   -2.7571   -0.5526    2.0098 H   0  0  0  0  0  0  0  0  0  0  0  0
   -1.1882   -0.6275    4.6398 H   0  0  0  0  0  0  0  0  0  0  0  0
   -3.0149   -0.5450    4.4015 H   0  0  0  0  0  0  0  0  0  0  0  0
   -0.4974    1.4264    0.2922 C   0  0  0  0  0  0  0  0  0  0  0  0
    0.2284    1.1118   -0.9866 C   0  0  0  0  0  0  0  0  0  0  0  0
    0.1927    1.9926   -2.0632 C   0  0  0  0  0  0  0  0  0  0  0  0
    0.8854    1.7196   -3.2326 C   0  0  0  0  0  0  0  0  0  0  0  0
    1.6282    0.5543   -3.3463 C   0  0  0  0  0  0  0  0  0  0  0  0
    1.6696   -0.3337   -2.2824 C   0  0  0  0  0  0  0  0  0  0  0  0
    0.9748   -0.0555   -1.1154 C   0  0  0  0  0  0  0  0  0  0  0  0
   -1.3854    2.0314    0.1059 H   0  0  0  0  0  0  0  0  0  0  0  0
    0.1463    1.9878    0.9742 H   0  0  0  0  0  0  0  0  0  0  0  0
   -0.3883    2.9047   -1.9850 H   0  0  0  0  0  0  0  0  0  0  0  0
    0.8421    2.4182   -4.0590 H   0  0  0  0  0  0  0  0  0  0  0  0
    2.1678    0.3378   -4.2595 H   0  0  0  0  0  0  0  0  0  0  0  0
    2.2426   -1.2492   -2.3618 H   0  0  0  0  0  0  0  0  0  0  0  0
    1.0103   -0.7578   -0.2901 H   0  0  0  0  0  0  0  0  0  0  0  0
  1  2  2  3
  1  7  1  0
  1  8  1  0
  2  3  1  0
  2  9  1  0
  3  4  1  0
  3  5  1  0
  4 11  1  0
  4 12  1  0
  4 13  1  0
  5  6  2  3
  5 14  1  0
  6 15  1  0
  6 16  1  0
 10 17  1  0
 17 18  1  0
 17 24  1  0
 17 25  1  0
 18 19  2  0
 18 23  1  0
 19 20  1  0
 19 26  1  0
 20 21  2  0
 20 27  1  0
 21 22  1  0
 21 28  1  0
 22 23  2  0
 22 29  1  0
 23 30  1  0
M  RAD  1   3   2
M  END
>  <reaction>  (13) 
rxn_1183

>  <mol_properties>  (13) 
{"1": {"label": "*0", "atom_type": "Cd"}, "2": {"label": "*1", "atom_type": "Cs"}, "9": {"label": "*2", "atom_type": "H0"}, "16": {"label": "*3", "atom_type": "Cd"}, "17": {"label": "*4", "atom_type": "Cd"}}

>  <type>  (13) 
unop_9

>  <geom_source>  (13) 
Heuristics

$$$$

     RDKit          3D

 30 29  0  0  0  0  0  0  0  0999 V2000
    1.0961   -2.1861   -0.6078 C   0  0  0  0  0  0  0  0  0  0  0  0
    1.0961   -2.1861    0.7154 C   0  0  0  0  0  0  0  0  0  0  0  0
    1.0961   -0.9554    1.5848 C   0  0  0  0  0  3  0  0  0  0  0  0
    2.3345   -0.9256    2.4764 C   0  0  0  0  0  0  0  0  0  0  0  0
   -0.2074   -0.8868    2.3413 C   0  0  0  0  0  0  0  0  0  0  0  0
   -0.3620   -0.8865    3.6563 C   0  0  0  0  0  0  0  0  0  0  0  0
    1.0954   -3.1088   -1.1745 H   0  0  0  0  0  0  0  0  0  0  0  0
    1.0979   -1.2603   -1.1735 H   0  0  0  0  0  0  0  0  0  0  0  0
    1.0914   -3.1320    1.2530 H   0  0  0  0  0  0  0  0  0  0  0  0
    1.1327    0.0890    0.7860 H   0  0  0  0  0  0  0  0  0  0  0  0
    3.2372   -0.9339    1.8652 H   0  0  0  0  0  0  0  0  0  0  0  0
    2.3492   -0.0298    3.0995 H   0  0  0  0  0  0  0  0  0  0  0  0
    2.3671   -1.7973    3.1340 H   0  0  0  0  0  0  0  0  0  0  0  0
   -1.0906   -0.8510    1.7088 H   0  0  0  0  0  0  0  0  0  0  0  0
    0.4783   -0.9259    4.3388 H   0  0  0  0  0  0  0  0  0  0  0  0
   -1.3484   -0.8434    4.1005 H   0  0  0  0  0  0  0  0  0  0  0  0
    1.1691    1.1280   -0.0087 C   0  0  0  0  0  0  0  0  0  0  0  0
   -0.0221    1.1571   -0.9260 C   0  0  0  0  0  0  0  0  0  0  0  0
   -0.9175    2.2220   -0.9000 C   0  0  0  0  0  0  0  0  0  0  0  0
   -1.9998    2.2662   -1.7652 C   0  0  0  0  0  0  0  0  0  0  0  0
   -2.2070    1.2404   -2.6747 C   0  0  0  0  0  0  0  0  0  0  0  0
   -1.3244    0.1717   -2.7088 C   0  0  0  0  0  0  0  0  0  0  0  0
   -0.2438    0.1327   -1.8412 C   0  0  0  0  0  0  0  0  0  0  0  0
    0.9629    1.6504    0.9260 H   0  0  0  0  0  0  0  0  0  0  0  0
    2.0288    1.6155   -0.4756 H   0  0  0  0  0  0  0  0  0  0  0  0
   -0.7657    3.0271   -0.1898 H   0  0  0  0  0  0  0  0  0  0  0  0
   -2.6854    3.1036   -1.7264 H   0  0  0  0  0  0  0  0  0  0  0  0
   -3.0529    1.2716   -3.3494 H   0  0  0  0  0  0  0  0  0  0  0  0
   -1.4791   -0.6375   -3.4118 H   0  0  0  0  0  0  0  0  0  0  0  0
    0.4390   -0.7090   -1.8730 H   0  0  0  0  0  0  0  0  0  0  0  0
  1  2  2  3
  1  7  1  0
  1  8  1  0
  2  3  1  0
  2  9  1  0
  3  4  1  0
  3  5  1  0
  4 11  1  0
  4 12  1  0
  4 13  1  0
  5  6  2  3
  5 14  1  0
  6 15  1  0
  6 16  1  0
 10 17  1  0
 17 18  1  0
 17 24  1  0
 17 25  1  0
 18 19  2  0
 18 23  1  0
 19 20  1  0
 19 26  1  0
 20 21  2  0
 20 27  1  0
 21 22  1  0
 21 28  1  0
 22 23  2  0
 22 29  1  0
 23 30  1  0
M  RAD  1   3   2
M  END
>  <reaction>  (14) 
rxn_1183

>  <mol_properties>  (14) 
{"1": {"label": "*0", "atom_type": "Cd"}, "2": {"label": "*1", "atom_type": "Cs"}, "9": {"label": "*2", "atom_type": "H0"}, "16": {"label": "*3", "atom_type": "Cd"}, "17": {"label": "*4", "atom_type": "Cd"}}

>  <type>  (14) 
unop_10

>  <geom_source>  (14) 
Heuristics

$$$$

     RDKit          3D

 30 29  0  0  0  0  0  0  0  0999 V2000
   -0.5260   -3.1623   -1.9756 C   0  0  0  0  0  0  0  0  0  0  0  0
   -0.5260   -3.1623   -0.6524 C   0  0  0  0  0  0  0  0  0  0  0  0
   -0.5260   -1.9315    0.2170 C   0  0  0  0  0  3  0  0  0  0  0  0
    0.7124   -1.9018    1.1086 C   0  0  0  0  0  0  0  0  0  0  0  0
   -1.8295   -1.8630    0.9735 C   0  0  0  0  0  0  0  0  0  0  0  0
   -1.9841   -1.8627    2.2884 C   0  0  0  0  0  0  0  0  0  0  0  0
   -0.5267   -4.0849   -2.5423 H   0  0  0  0  0  0  0  0  0  0  0  0
   -0.5242   -2.2365   -2.5413 H   0  0  0  0  0  0  0  0  0  0  0  0
   -0.5307   -4.1081   -0.1148 H   0  0  0  0  0  0  0  0  0  0  0  0
   -0.4894   -0.8872   -0.5818 H   0  0  0  0  0  0  0  0  0  0  0  0
    1.6152   -1.9101    0.4974 H   0  0  0  0  0  0  0  0  0  0  0  0
    0.7271   -1.0060    1.7317 H   0  0  0  0  0  0  0  0  0  0  0  0
    0.7450   -2.7735    1.7662 H   0  0  0  0  0  0  0  0  0  0  0  0
   -2.7126   -1.8272    0.3410 H   0  0  0  0  0  0  0  0  0  0  0  0
   -1.1437   -1.9021    2.9710 H   0  0  0  0  0  0  0  0  0  0  0  0
   -2.9705   -1.8196    2.7327 H   0  0  0  0  0  0  0  0  0  0  0  0
   -0.4529    0.1518   -1.3766 C   0  0  0  0  0  0  0  0  0  0  0  0
    0.2518    1.3116   -0.7288 C   0  0  0  0  0  0  0  0  0  0  0  0
    0.4034    2.5206   -1.4008 C   0  0  0  0  0  0  0  0  0  0  0  0
    1.0259    3.6011   -0.7951 C   0  0  0  0  0  0  0  0  0  0  0  0
    1.5113    3.4898    0.4989 C   0  0  0  0  0  0  0  0  0  0  0  0
    1.3699    2.2897    1.1786 C   0  0  0  0  0  0  0  0  0  0  0  0
    0.7465    1.2125    0.5679 C   0  0  0  0  0  0  0  0  0  0  0  0
   -0.3289    0.1671   -2.4599 H   0  0  0  0  0  0  0  0  0  0  0  0
   -1.5252    0.1852   -1.1675 H   0  0  0  0  0  0  0  0  0  0  0  0
    0.0302    2.6161   -2.4144 H   0  0  0  0  0  0  0  0  0  0  0  0
    1.1350    4.5322   -1.3373 H   0  0  0  0  0  0  0  0  0  0  0  0
    2.0001    4.3314    0.9729 H   0  0  0  0  0  0  0  0  0  0  0  0
    1.7495    2.1899    2.1880 H   0  0  0  0  0  0  0  0  0  0  0  0
    0.6439    0.2769    1.1062 H   0  0  0  0  0  0  0  0  0  0  0  0
  1  2  2  3
  1  7  1  0
  1  8  1  0
  2  3  1  0
  2  9  1  0
  3  4  1  0
  3  5  1  0
  4 11  1  0
  4 12  1  0
  4 13  1  0
  5  6  2  3
  5 14  1  0
  6 15  1  0
  6 16  1  0
 10 17  1  0
 17 18  1  0
 17 24  1  0
 17 25  1  0
 18 19  2  0
 18 23  1  0
 19 20  1  0
 19 26  1  0
 20 21  2  0
 20 27  1  0
 21 22  1  0
 21 28  1  0
 22 23  2  0
 22 29  1  0
 23 30  1  0
M  RAD  1   3   2
M  END
>  <reaction>  (15) 
rxn_1183

>  <mol_properties>  (15) 
{"1": {"label": "*0", "atom_type": "Cd"}, "2": {"label": "*1", "atom_type": "Cs"}, "9": {"label": "*2", "atom_type": "H0"}, "16": {"label": "*3", "atom_type": "Cd"}, "17": {"label": "*4", "atom_type": "Cd"}}

>  <type>  (15) 
unop_11

>  <geom_source>  (15) 
Heuristics

$$$$

     RDKit          3D

 30 29  0  0  0  0  0  0  0  0999 V2000
    0.0349   -1.7988   -0.1565 C   0  0  0  0  0  0  0  0  0  0  0  0
    0.0349   -1.7988    1.1668 C   0  0  0  0  0  0  0  0  0  0  0  0
    0.0349   -0.5680    2.0362 C   0  0  0  0  0  3  0  0  0  0  0  0
    1.2733   -0.5382    2.9278 C   0  0  0  0  0  0  0  0  0  0  0  0
   -1.2686   -0.4995    2.7927 C   0  0  0  0  0  0  0  0  0  0  0  0
   -1.4232   -0.4992    4.1076 C   0  0  0  0  0  0  0  0  0  0  0  0
    0.0342   -2.7214   -0.7232 H   0  0  0  0  0  0  0  0  0  0  0  0
    0.0367   -0.8730   -0.7222 H   0  0  0  0  0  0  0  0  0  0  0  0
    0.0302   -2.7446    1.7044 H   0  0  0  0  0  0  0  0  0  0  0  0
    0.0715    0.4763    1.2374 H   0  0  0  0  0  0  0  0  0  0  0  0
    2.1760   -0.5466    2.3165 H   0  0  0  0  0  0  0  0  0  0  0  0
    1.2879    0.3575    3.5509 H   0  0  0  0  0  0  0  0  0  0  0  0
    1.3058   -1.4100    3.5854 H   0  0  0  0  0  0  0  0  0  0  0  0
   -2.1518   -0.4637    2.1602 H   0  0  0  0  0  0  0  0  0  0  0  0
   -0.5829   -0.5385    4.7902 H   0  0  0  0  0  0  0  0  0  0  0  0
   -2.4096   -0.4561    4.5518 H   0  0  0  0  0  0  0  0  0  0  0  0
    0.1079    1.5153    0.4426 C   0  0  0  0  0  0  0  0  0  0  0  0
    0.1353    1.0984   -1.0019 C   0  0  0  0  0  0  0  0  0  0  0  0
   -0.4056    1.9142   -1.9909 C   0  0  0  0  0  0  0  0  0  0  0  0
   -0.3550    1.5466   -3.3267 C   0  0  0  0  0  0  0  0  0  0  0  0
    0.2391    0.3500   -3.6977 C   0  0  0  0  0  0  0  0  0  0  0  0
    0.7789   -0.4740   -2.7220 C   0  0  0  0  0  0  0  0  0  0  0  0
    0.7254   -0.1012   -1.3878 C   0  0  0  0  0  0  0  0  0  0  0  0
   -0.7591    2.1404    0.6587 H   0  0  0  0  0  0  0  0  0  0  0  0
    1.0011    2.0923    0.6957 H   0  0  0  0  0  0  0  0  0  0  0  0
   -0.8755    2.8502   -1.7101 H   0  0  0  0  0  0  0  0  0  0  0  0
   -0.7841    2.1958   -4.0798 H   0  0  0  0  0  0  0  0  0  0  0  0
    0.2775    0.0597   -4.7399 H   0  0  0  0  0  0  0  0  0  0  0  0
    1.2412   -1.4131   -2.9999 H   0  0  0  0  0  0  0  0  0  0  0  0
    1.1471   -0.7538   -0.6316 H   0  0  0  0  0  0  0  0  0  0  0  0
  1  2  2  3
  1  7  1  0
  1  8  1  0
  2  3  1  0
  2  9  1  0
  3  4  1  0
  3  5  1  0
  4 11  1  0
  4 12  1  0
  4 13  1  0
  5  6  2  3
  5 14  1  0
  6 15  1  0
  6 16  1  0
 10 17  1  0
 17 18  1  0
 17 24  1  0
 17 25  1  0
 18 19  2  0
 18 23  1  0
 19 20  1  0
 19 26  1  0
 20 21  2  0
 20 27  1  0
 21 22  1  0
 21 28  1  0
 22 23  2  0
 22 29  1  0
 23 30  1  0
M  RAD  1   3   2
M  END
>  <reaction>  (16) 
rxn_1183

>  <mol_properties>  (16) 
{"1": {"label": "*0", "atom_type": "Cd"}, "2": {"label": "*1", "atom_type": "Cs"}, "9": {"label": "*2", "atom_type": "H0"}, "16": {"label": "*3", "atom_type": "Cd"}, "17": {"label": "*4", "atom_type": "Cd"}}

>  <type>  (16) 
unop_12

>  <geom_source>  (16) 
Heuristics

$$$$

     RDKit          3D

 30 29  0  0  0  0  0  0  0  0999 V2000
   -0.3132   -1.1156    0.6693 C   0  0  0  0  0  0  0  0  0  0  0  0
    1.1144    0.4801   -1.3725 C   0  0  0  0  0  0  0  0  0  0  0  0
    1.8794    0.0337   -0.1272 C   0  0  0  0  0  3  0  0  0  0  0  0
   -1.6925   -0.6148    0.3645 C   0  0  0  0  0  0  0  0  0  0  0  0
   -2.7612   -0.9158    1.2242 C   0  0  0  0  0  0  0  0  0  0  0  0
   -1.9381    0.1025   -0.8170 C   0  0  0  0  0  0  0  0  0  0  0  0
    2.2190    1.1934    0.7636 C   0  0  0  0  0  0  0  0  0  0  0  0
    3.0960   -0.7911   -0.4578 C   0  0  0  0  0  0  0  0  0  0  0  0
   -4.0540   -0.4779    0.9192 C   0  0  0  0  0  0  0  0  0  0  0  0
   -3.2324    0.5387   -1.1187 C   0  0  0  0  0  0  0  0  0  0  0  0
   -4.2891    0.2509   -0.2501 C   0  0  0  0  0  0  0  0  0  0  0  0
    1.8053    1.2178    2.0308 C   0  0  0  0  0  0  0  0  0  0  0  0
    4.1312   -0.3056   -1.1525 C   0  0  0  0  0  0  0  0  0  0  0  0
   -0.1423   -1.1454    1.7665 H   0  0  0  0  0  0  0  0  0  0  0  0
   -0.1913   -2.1380    0.2548 H   0  0  0  0  0  0  0  0  0  0  0  0
    0.5849   -0.3324    0.1414 H   0  0  0  0  0  0  0  0  0  0  0  0
    0.8526   -0.4039   -1.9914 H   0  0  0  0  0  0  0  0  0  0  0  0
    1.7215    1.1838   -1.9811 H   0  0  0  0  0  0  0  0  0  0  0  0
    0.1726    0.9856   -1.0713 H   0  0  0  0  0  0  0  0  0  0  0  0
   -2.5935   -1.4875    2.1287 H   0  0  0  0  0  0  0  0  0  0  0  0
   -1.1303    0.3238   -1.5035 H   0  0  0  0  0  0  0  0  0  0  0  0
   -4.8742   -0.7068    1.5874 H   0  0  0  0  0  0  0  0  0  0  0  0
   -3.4168    1.0965   -2.0278 H   0  0  0  0  0  0  0  0  0  0  0  0
   -5.2903    0.5880   -0.4856 H   0  0  0  0  0  0  0  0  0  0  0  0
    2.8167    2.0148    0.3782 H   0  0  0  0  0  0  0  0  0  0  0  0
    3.1305   -1.8173   -0.1065 H   0  0  0  0  0  0  0  0  0  0  0  0
    2.0604    2.0571    2.6694 H   0  0  0  0  0  0  0  0  0  0  0  0
    1.2119    0.4050    2.4391 H   0  0  0  0  0  0  0  0  0  0  0  0
    4.9876   -0.9381   -1.3621 H   0  0  0  0  0  0  0  0  0  0  0  0
    4.1352    0.7185   -1.5121 H   0  0  0  0  0  0  0  0  0  0  0  0
  1  4  1  0
  1 14  1  0
  1 15  1  0
  1 16  1  0
  2  3  1  0
  2 17  1  0
  2 18  1  0
  2 19  1  0
  3  7  1  0
  3  8  1  0
  4  5  2  0
  4  6  1  0
  5  9  1  0
  5 20  1  0
  6 10  2  0
  6 21  1  0
  7 12  2  3
  7 25  1  0
  8 13  2  3
  8 26  1  0
  9 11  2  0
  9 22  1  0
 10 11  1  0
 10 23  1  0
 11 24  1  0
 12 27  1  0
 12 28  1  0
 13 29  1  0
 13 30  1  0
M  RAD  1   3   2
M  END
>  <reaction>  (17) 
rxn_1183

>  <mol_properties>  (17) 
{"1": {"label": "*0", "atom_type": "Cd"}, "2": {"label": "*1", "atom_type": "Cs"}, "9": {"label": "*2", "atom_type": "H0"}, "16": {"label": "*3", "atom_type": "Cd"}, "17": {"label": "*4", "atom_type": "Cd"}}

>  <type>  (17) 
unop_13

>  <geom_source>  (17) 
AutoTST

$$$$

     RDKit          3D

 30 29  0  0  0  0  0  0  0  0999 V2000
    0.6458   -1.9082   -0.2670 C   0  0  0  0  0  0  0  0  0  0  0  0
    0.6458   -1.9082    1.0563 C   0  0  0  0  0  0  0  0  0  0  0  0
    0.6458   -0.6774    1.9257 C   0  0  0  0  0  3  0  0  0  0  0  0
    1.8842   -0.6476    2.8173 C   0  0  0  0  0  0  0  0  0  0  0  0
   -0.6577   -0.6088    2.6822 C   0  0  0  0  0  0  0  0  0  0  0  0
   -0.8123   -0.6086    3.9971 C   0  0  0  0  0  0  0  0  0  0  0  0
    0.6451   -2.8308   -0.8337 H   0  0  0  0  0  0  0  0  0  0  0  0
    0.6476   -0.9824   -0.8327 H   0  0  0  0  0  0  0  0  0  0  0  0
    0.6411   -2.8540    1.5939 H   0  0  0  0  0  0  0  0  0  0  0  0
    0.6824    0.3669    1.1269 H   0  0  0  0  0  0  0  0  0  0  0  0
    2.7870   -0.6560    2.2060 H   0  0  0  0  0  0  0  0  0  0  0  0
    1.8989    0.2481    3.4404 H   0  0  0  0  0  0  0  0  0  0  0  0
    1.9168   -1.5194    3.4749 H   0  0  0  0  0  0  0  0  0  0  0  0
   -1.5409   -0.5731    2.0497 H   0  0  0  0  0  0  0  0  0  0  0  0
    0.0280   -0.6479    4.6797 H   0  0  0  0  0  0  0  0  0  0  0  0
   -1.7987   -0.5655    4.4413 H   0  0  0  0  0  0  0  0  0  0  0  0
    0.7188    1.4059    0.3321 C   0  0  0  0  0  0  0  0  0  0  0  0
    0.0445    1.1149   -0.9801 C   0  0  0  0  0  0  0  0  0  0  0  0
   -0.8685    2.0107   -1.5279 C   0  0  0  0  0  0  0  0  0  0  0  0
   -1.4690    1.7594   -2.7519 C   0  0  0  0  0  0  0  0  0  0  0  0
   -1.1663    0.6014   -3.4516 C   0  0  0  0  0  0  0  0  0  0  0  0
   -0.2608   -0.3015   -2.9156 C   0  0  0  0  0  0  0  0  0  0  0  0
    0.3367   -0.0450   -1.6912 C   0  0  0  0  0  0  0  0  0  0  0  0
    0.0811    2.0070    0.9811 H   0  0  0  0  0  0  0  0  0  0  0  0
    1.6465    1.9622    0.1752 H   0  0  0  0  0  0  0  0  0  0  0  0
   -1.1143    2.9173   -0.9864 H   0  0  0  0  0  0  0  0  0  0  0  0
   -2.1784    2.4694   -3.1587 H   0  0  0  0  0  0  0  0  0  0  0  0
   -1.6361    0.4018   -4.4063 H   0  0  0  0  0  0  0  0  0  0  0  0
   -0.0204   -1.2116   -3.4512 H   0  0  0  0  0  0  0  0  0  0  0  0
    1.0408   -0.7587   -1.2784 H   0  0  0  0  0  0  0  0  0  0  0  0
  1  2  2  3
  1  7  1  0
  1  8  1  0
  2  3  1  0
  2  9  1  0
  3  4  1  0
  3  5  1  0
  4 11  1  0
  4 12  1  0
  4 13  1  0
  5  6  2  3
  5 14  1  0
  6 15  1  0
  6 16  1  0
 10 17  1  0
 17 18  1  0
 17 24  1  0
 17 25  1  0
 18 19  2  0
 18 23  1  0
 19 20  1  0
 19 26  1  0
 20 21  2  0
 20 27  1  0
 21 22  1  0
 21 28  1  0
 22 23  2  0
 22 29  1  0
 23 30  1  0
M  RAD  1   3   2
M  END
>  <reaction>  (18) 
rxn_1183

>  <mol_properties>  (18) 
{"1": {"label": "*0", "atom_type": "Cd"}, "2": {"label": "*1", "atom_type": "Cs"}, "9": {"label": "*2", "atom_type": "H0"}, "16": {"label": "*3", "atom_type": "Cd"}, "17": {"label": "*4", "atom_type": "Cd"}}

>  <type>  (18) 
unop_14

>  <geom_source>  (18) 
gaussian_log

$$$$
