
     RDKit          3D

  5  4  0  0  0  0  0  0  0  0999 V2000
    0.0000    0.0000    0.0000 C   0  0  0  0  0  0  0  0  0  0  0  0
   -0.6486   -0.7720   -0.4113 H   0  0  0  0  0  0  0  0  0  0  0  0
   -0.3482    0.9787   -0.3267 H   0  0  0  0  0  0  0  0  0  0  0  0
   -0.0223   -0.0487    1.0876 H   0  0  0  0  0  0  0  0  0  0  0  0
    1.0191   -0.1580   -0.3496 H   0  0  0  0  0  0  0  0  0  0  0  0
  1  2  1  0
  1  3  1  0
  1  4  1  0
  1  5  1  0
M  END
>  <reaction>  (1) 
rxn_848

>  <mol_properties>  (1) 
{"0": {"label": "donator", "atom_type": "Cs"}, "1": {"label": "d_hydrogen", "atom_type": "H0"}}

>  <type>  (1) 
r1h

$$$$

     RDKit          3D

  8  7  0  0  0  0  0  0  0  0999 V2000
   -1.0607    0.1793   -0.1423 C   0  0  0  0  0  0  0  0  0  0  0  0
    0.2796    0.0327    0.4820 C   0  0  0  0  0  3  0  0  0  0  0  0
    0.8817   -1.4663    1.0791 S   0  0  0  0  0  0  0  0  0  0  0  0
   -1.3043    1.2328   -0.2850 H   0  0  0  0  0  0  0  0  0  0  0  0
   -1.8444   -0.2641    0.4799 H   0  0  0  0  0  0  0  0  0  0  0  0
   -1.1164   -0.3100   -1.1237 H   0  0  0  0  0  0  0  0  0  0  0  0
    1.0449    0.7826    0.3391 H   0  0  0  0  0  0  0  0  0  0  0  0
   -0.2993   -2.0726    1.2718 H   0  0  0  0  0  0  0  0  0  0  0  0
  1  2  1  0
  1  4  1  0
  1  5  1  0
  1  6  1  0
  2  3  1  0
  2  7  1  0
  3  8  1  0
M  RAD  1   2   2
M  END
>  <reaction>  (2) 
rxn_848

>  <mol_properties>  (2) 
{"1": {"label": "acceptor", "atom_type": "Cs"}}

>  <type>  (2) 
r2

$$$$

     RDKit          3D

  9  8  0  0  0  0  0  0  0  0999 V2000
   -0.8818   -0.3578    0.1297 C   0  0  0  0  0  0  0  0  0  0  0  0
    0.6153   -0.3021   -0.1188 C   0  0  0  0  0  0  0  0  0  0  0  0
    1.5354   -1.7170    0.5545 S   0  0  0  0  0  0  0  0  0  0  0  0
   -1.1018   -0.3317    1.1984 H   0  0  0  0  0  0  0  0  0  0  0  0
   -1.3114   -1.2723   -0.2799 H   0  0  0  0  0  0  0  0  0  0  0  0
   -1.3767    0.4976   -0.3363 H   0  0  0  0  0  0  0  0  0  0  0  0
    1.0467    0.6194    0.2718 H   0  0  0  0  0  0  0  0  0  0  0  0
    0.8295   -0.3275   -1.1882 H   0  0  0  0  0  0  0  0  0  0  0  0
    1.2306   -1.5077    1.8423 H   0  0  0  0  0  0  0  0  0  0  0  0
  1  2  1  0
  1  4  1  0
  1  5  1  0
  1  6  1  0
  2  3  1  0
  2  7  1  0
  2  8  1  0
  3  9  1  0
M  END
>  <reaction>  (3) 
rxn_848

>  <mol_properties>  (3) 
{"1": {"label": "acceptor", "atom_type": "Cs"}, "8": {"label": "a_hydrogen", "atom_type": "H0"}}

>  <type>  (3) 
r2h

$$$$

     RDKit          3D

 13 11  0  0  0  0  0  0  0  0999 V2000
   -1.2390    0.8164   -0.6857 C   0  0  0  0  0  0  0  0  0  0  0  0
   -0.8575   -0.1757    0.3852 C   0  0  0  0  0  0  0  0  0  0  0  0
    0.5483    0.2373    1.4042 S   0  0  0  0  0  0  0  0  0  0  0  0
   -2.0958    0.4474   -1.2536 H   0  0  0  0  0  0  0  0  0  0  0  0
   -0.4140    0.9696   -1.3849 H   0  0  0  0  0  0  0  0  0  0  0  0
   -1.5004    1.7864   -0.2571 H   0  0  0  0  0  0  0  0  0  0  0  0
   -1.6775   -0.4202    1.0602 H   0  0  0  0  0  0  0  0  0  0  0  0
    1.4127    0.4572    0.4031 H   0  0  0  0  0  0  0  0  0  0  0  0
   -0.3474   -2.4699   -0.9304 C   0  0  0  0  0  3  0  0  0  0  0  0
   -0.6145   -1.2821   -0.2082 H   0  0  0  0  0  0  0  0  0  0  0  0
   -1.3190   -2.8409   -1.2414 H   0  0  0  0  0  0  0  0  0  0  0  0
    0.2871   -2.1451   -1.7496 H   0  0  0  0  0  0  0  0  0  0  0  0
    0.1562   -3.0890   -0.1950 H   0  0  0  0  0  0  0  0  0  0  0  0
  1  2  1  0
  1  4  1  0
  1  5  1  0
  1  6  1  0
  2  3  1  0
  2  7  1  0
  2 10  1  0
  3  8  1  0
  9 11  1  0
  9 12  1  0
  9 13  1  0
M  RAD  1   9   2
M  END
>  <reaction>  (4) 
rxn_848

>  <mol_properties>  (4) 
{"1": {"label": "*1", "atom_type": "Cs"}, "2": {"label": "*0", "atom_type": "S2s"}, "8": {"label": "*3", "atom_type": "Cs"}, "9": {"label": "*2", "atom_type": "H0"}, "10": {"label": "*4", "atom_type": "H0"}}

>  <type>  (4) 
ts

$$$$

     RDKit          3D

 13 11  0  0  0  0  0  0  0  0999 V2000
   -1.3428    0.0985    1.1045 C   0  0  0  0  0  0  0  0  0  0  0  0
   -0.1171   -0.1847    0.2538 C   0  0  0  0  0  3  0  0  0  0  0  0
    0.7515    1.3045   -0.3204 S   0  0  0  0  0  0  0  0  0  0  0  0
   -1.7904   -0.8365    1.4498 H   0  0  0  0  0  0  0  0  0  0  0  0
   -2.0981    0.6412    0.5332 H   0  0  0  0  0  0  0  0  0  0  0  0
   -1.0826    0.7008    1.9753 H   0  0  0  0  0  0  0  0  0  0  0  0
    0.6339   -0.7280    0.8292 H   0  0  0  0  0  0  0  0  0  0  0  0
   -0.2573    1.8094   -1.0431 H   0  0  0  0  0  0  0  0  0  0  0  0
   -0.1171   -2.6497   -0.6177 C   0  0  0  0  0  0  0  0  0  0  0  0
   -0.1171   -1.4177   -0.1821 H   0  0  0  0  0  0  0  0  0  0  0  0
    0.7720   -3.1630   -0.2547 H   0  0  0  0  0  0  0  0  0  0  0  0
   -1.0062   -3.1630   -0.2547 H   0  0  0  0  0  0  0  0  0  0  0  0
   -0.1171   -2.6497   -1.7066 H   0  0  0  0  0  0  0  0  0  0  0  0
  1  2  1  0
  1  4  1  0
  1  5  1  0
  1  6  1  0
  2  3  1  0
  2  7  1  0
  3  8  1  0
  9 10  1  0
  9 11  1  0
  9 12  1  0
  9 13  1  0
M  RAD  1   2   2
M  END
>  <reaction>  (5) 
rxn_848

>  <mol_properties>  (5) 
{"1": {"label": "*1", "atom_type": "Cs"}, "2": {"label": "*0", "atom_type": "S2s"}, "8": {"label": "*3", "atom_type": "Cs"}, "9": {"label": "*2", "atom_type": "H0"}, "10": {"label": "*4", "atom_type": "H0"}}

>  <type>  (5) 
unop_1

>  <geom_source>  (5) 
Heuristics

$$$$

     RDKit          3D

 13 11  0  0  0  0  0  0  0  0999 V2000
   -1.1919    0.9382   -0.9254 C   0  0  0  0  0  0  0  0  0  0  0  0
   -0.4843    0.0106    0.0467 C   0  0  0  0  0  3  0  0  0  0  0  0
    0.9843    0.7358    0.8336 S   0  0  0  0  0  0  0  0  0  0  0  0
   -2.0861    0.4566   -1.3282 H   0  0  0  0  0  0  0  0  0  0  0  0
   -0.5422    1.1948   -1.7641 H   0  0  0  0  0  0  0  0  0  0  0  0
   -1.4888    1.8652   -0.4342 H   0  0  0  0  0  0  0  0  0  0  0  0
   -1.1383   -0.2434    0.8821 H   0  0  0  0  0  0  0  0  0  0  0  0
    1.6912    0.9231   -0.2890 H   0  0  0  0  0  0  0  0  0  0  0  0
   -0.4843   -2.4544   -0.8248 C   0  0  0  0  0  0  0  0  0  0  0  0
   -0.4843   -1.2224   -0.3893 H   0  0  0  0  0  0  0  0  0  0  0  0
    0.4049   -2.9677   -0.4619 H   0  0  0  0  0  0  0  0  0  0  0  0
   -1.3734   -2.9677   -0.4619 H   0  0  0  0  0  0  0  0  0  0  0  0
   -0.4843   -2.4544   -1.9138 H   0  0  0  0  0  0  0  0  0  0  0  0
  1  2  1  0
  1  4  1  0
  1  5  1  0
  1  6  1  0
  2  3  1  0
  2  7  1  0
  3  8  1  0
  9 10  1  0
  9 11  1  0
  9 12  1  0
  9 13  1  0
M  RAD  1   2   2
M  END
>  <reaction>  (6) 
rxn_848

>  <mol_properties>  (6) 
{"1": {"label": "*1", "atom_type": "Cs"}, "2": {"label": "*0", "atom_type": "S2s"}, "8": {"label": "*3", "atom_type": "Cs"}, "9": {"label": "*2", "atom_type": "H0"}, "10": {"label": "*4", "atom_type": "H0"}}

>  <type>  (6) 
unop_2

>  <geom_source>  (6) 
Heuristics

$$$$

     RDKit          3D

 13 11  0  0  0  0  0  0  0  0999 V2000
   -0.5412   -0.0514    1.6698 C   0  0  0  0  0  0  0  0  0  0  0  0
    0.1665   -0.1619    0.3307 C   0  0  0  0  0  3  0  0  0  0  0  0
    0.1248    1.3596   -0.6618 S   0  0  0  0  0  0  0  0  0  0  0  0
   -0.4415   -0.9837    2.2307 H   0  0  0  0  0  0  0  0  0  0  0  0
   -1.6059    0.1465    1.5340 H   0  0  0  0  0  0  0  0  0  0  0  0
   -0.1220    0.7589    2.2668 H   0  0  0  0  0  0  0  0  0  0  0  0
    1.2298   -0.3606    0.4722 H   0  0  0  0  0  0  0  0  0  0  0  0
   -1.2063    1.4243   -0.7995 H   0  0  0  0  0  0  0  0  0  0  0  0
    0.1665   -2.6269   -0.5408 C   0  0  0  0  0  0  0  0  0  0  0  0
    0.1665   -1.3949   -0.1052 H   0  0  0  0  0  0  0  0  0  0  0  0
    1.0556   -3.1402   -0.1778 H   0  0  0  0  0  0  0  0  0  0  0  0
   -0.7226   -3.1402   -0.1778 H   0  0  0  0  0  0  0  0  0  0  0  0
    0.1665   -2.6269   -1.6297 H   0  0  0  0  0  0  0  0  0  0  0  0
  1  2  1  0
  1  4  1  0
  1  5  1  0
  1  6  1  0
  2  3  1  0
  2  7  1  0
  3  8  1  0
  9 10  1  0
  9 11  1  0
  9 12  1  0
  9 13  1  0
M  RAD  1   2   2
M  END
>  <reaction>  (7) 
rxn_848

>  <mol_properties>  (7) 
{"1": {"label": "*1", "atom_type": "Cs"}, "2": {"label": "*0", "atom_type": "S2s"}, "8": {"label": "*3", "atom_type": "Cs"}, "9": {"label": "*2", "atom_type": "H0"}, "10": {"label": "*4", "atom_type": "H0"}}

>  <type>  (7) 
unop_3

>  <geom_source>  (7) 
Heuristics

$$$$

     RDKit          3D

 13 11  0  0  0  0  0  0  0  0999 V2000
    0.8837    1.4540   -0.8944 C   0  0  0  0  0  0  0  0  0  0  0  0
   -0.3421    0.6990   -0.4107 C   0  0  0  0  0  3  0  0  0  0  0  0
   -0.1346   -0.0989    1.2086 S   0  0  0  0  0  0  0  0  0  0  0  0
    0.6769    1.9427   -1.8495 H   0  0  0  0  0  0  0  0  0  0  0  0
    1.7275    0.7771   -1.0395 H   0  0  0  0  0  0  0  0  0  0  0  0
    1.1830    2.2148   -0.1731 H   0  0  0  0  0  0  0  0  0  0  0  0
   -1.1825    1.3799   -0.2684 H   0  0  0  0  0  0  0  0  0  0  0  0
    0.8583   -0.9255    0.8536 H   0  0  0  0  0  0  0  0  0  0  0  0
   -0.3421   -1.7660   -1.2822 C   0  0  0  0  0  0  0  0  0  0  0  0
   -0.3421   -0.5340   -0.8467 H   0  0  0  0  0  0  0  0  0  0  0  0
    0.5471   -2.2793   -0.9192 H   0  0  0  0  0  0  0  0  0  0  0  0
   -1.2312   -2.2793   -0.9192 H   0  0  0  0  0  0  0  0  0  0  0  0
   -0.3421   -1.7660   -2.3712 H   0  0  0  0  0  0  0  0  0  0  0  0
  1  2  1  0
  1  4  1  0
  1  5  1  0
  1  6  1  0
  2  3  1  0
  2  7  1  0
  3  8  1  0
  9 10  1  0
  9 11  1  0
  9 12  1  0
  9 13  1  0
M  RAD  1   2   2
M  END
>  <reaction>  (8) 
rxn_848

>  <mol_properties>  (8) 
{"1": {"label": "*1", "atom_type": "Cs"}, "2": {"label": "*0", "atom_type": "S2s"}, "8": {"label": "*3", "atom_type": "Cs"}, "9": {"label": "*2", "atom_type": "H0"}, "10": {"label": "*4", "atom_type": "H0"}}

>  <type>  (8) 
unop_4

>  <geom_source>  (8) 
Heuristics

$$$$

     RDKit          3D

 13 11  0  0  0  0  0  0  0  0999 V2000
    0.5903    0.1660    1.7166 C   0  0  0  0  0  0  0  0  0  0  0  0
    0.5903    0.1187    0.1986 C   0  0  0  0  0  3  0  0  0  0  0  0
   -0.7858    1.0188   -0.5748 S   0  0  0  0  0  0  0  0  0  0  0  0
    1.4639   -0.3565    2.1133 H   0  0  0  0  0  0  0  0  0  0  0  0
   -0.3015   -0.3149    2.1225 H   0  0  0  0  0  0  0  0  0  0  0  0
    0.6097    1.1956    2.0748 H   0  0  0  0  0  0  0  0  0  0  0  0
    1.4839    0.5996   -0.2017 H   0  0  0  0  0  0  0  0  0  0  0  0
   -1.7741    0.2834   -0.0481 H   0  0  0  0  0  0  0  0  0  0  0  0
    0.5903   -2.3463   -0.6729 C   0  0  0  0  0  0  0  0  0  0  0  0
    0.5903   -1.1143   -0.2373 H   0  0  0  0  0  0  0  0  0  0  0  0
    1.4794   -2.8596   -0.3099 H   0  0  0  0  0  0  0  0  0  0  0  0
   -0.2988   -2.8596   -0.3099 H   0  0  0  0  0  0  0  0  0  0  0  0
    0.5903   -2.3463   -1.7618 H   0  0  0  0  0  0  0  0  0  0  0  0
  1  2  1  0
  1  4  1  0
  1  5  1  0
  1  6  1  0
  2  3  1  0
  2  7  1  0
  3  8  1  0
  9 10  1  0
  9 11  1  0
  9 12  1  0
  9 13  1  0
M  RAD  1   2   2
M  END
>  <reaction>  (9) 
rxn_848

>  <mol_properties>  (9) 
{"1": {"label": "*1", "atom_type": "Cs"}, "2": {"label": "*0", "atom_type": "S2s"}, "8": {"label": "*3", "atom_type": "Cs"}, "9": {"label": "*2", "atom_type": "H0"}, "10": {"label": "*4", "atom_type": "H0"}}

>  <type>  (9) 
unop_5

>  <geom_source>  (9) 
Heuristics

$$$$

     RDKit          3D

 13 11  0  0  0  0  0  0  0  0999 V2000
    1.3951    1.3291   -0.2778 C   0  0  0  0  0  0  0  0  0  0  0  0
   -0.0203    0.8100   -0.4613 C   0  0  0  0  0  3  0  0  0  0  0  0
   -0.6571   -0.1339    0.9548 S   0  0  0  0  0  0  0  0  0  0  0  0
    1.6984    1.9210   -1.1446 H   0  0  0  0  0  0  0  0  0  0  0  0
    2.1026    0.5051   -0.1698 H   0  0  0  0  0  0  0  0  0  0  0  0
    1.4689    1.9545    0.6122 H   0  0  0  0  0  0  0  0  0  0  0  0
   -0.7229    1.6375   -0.5697 H   0  0  0  0  0  0  0  0  0  0  0  0
    0.2501   -1.1189    0.9113 H   0  0  0  0  0  0  0  0  0  0  0  0
   -0.0203   -1.6550   -1.3328 C   0  0  0  0  0  0  0  0  0  0  0  0
   -0.0203   -0.4230   -0.8972 H   0  0  0  0  0  0  0  0  0  0  0  0
    0.8688   -2.1683   -0.9698 H   0  0  0  0  0  0  0  0  0  0  0  0
   -0.9094   -2.1683   -0.9698 H   0  0  0  0  0  0  0  0  0  0  0  0
   -0.0203   -1.6550   -2.4217 H   0  0  0  0  0  0  0  0  0  0  0  0
  1  2  1  0
  1  4  1  0
  1  5  1  0
  1  6  1  0
  2  3  1  0
  2  7  1  0
  3  8  1  0
  9 10  1  0
  9 11  1  0
  9 12  1  0
  9 13  1  0
M  RAD  1   2   2
M  END
>  <reaction>  (10) 
rxn_848

>  <mol_properties>  (10) 
{"1": {"label": "*1", "atom_type": "Cs"}, "2": {"label": "*0", "atom_type": "S2s"}, "8": {"label": "*3", "atom_type": "Cs"}, "9": {"label": "*2", "atom_type": "H0"}, "10": {"label": "*4", "atom_type": "H0"}}

>  <type>  (10) 
unop_6

>  <geom_source>  (10) 
Heuristics

$$$$

     RDKit          3D

 13 11  0  0  0  0  0  0  0  0999 V2000
    1.5584    1.0705    0.4702 C   0  0  0  0  0  0  0  0  0  0  0  0
    0.3327    0.7873   -0.3805 C   0  0  0  0  0  3  0  0  0  0  0  0
   -1.0385    0.0105    0.5239 S   0  0  0  0  0  0  0  0  0  0  0  0
    2.3251    1.5742   -0.1232 H   0  0  0  0  0  0  0  0  0  0  0  0
    1.9879    0.1447    0.8572 H   0  0  0  0  0  0  0  0  0  0  0  0
    1.3054    1.7048    1.3201 H   0  0  0  0  0  0  0  0  0  0  0  0
   -0.0918    1.7157   -0.7654 H   0  0  0  0  0  0  0  0  0  0  0  0
   -0.3907   -1.1122    0.8632 H   0  0  0  0  0  0  0  0  0  0  0  0
    0.3327   -1.6777   -1.2520 C   0  0  0  0  0  0  0  0  0  0  0  0
    0.3327   -0.4457   -0.8164 H   0  0  0  0  0  0  0  0  0  0  0  0
    1.2218   -2.1910   -0.8890 H   0  0  0  0  0  0  0  0  0  0  0  0
   -0.5564   -2.1910   -0.8890 H   0  0  0  0  0  0  0  0  0  0  0  0
    0.3327   -1.6777   -2.3409 H   0  0  0  0  0  0  0  0  0  0  0  0
  1  2  1  0
  1  4  1  0
  1  5  1  0
  1  6  1  0
  2  3  1  0
  2  7  1  0
  3  8  1  0
  9 10  1  0
  9 11  1  0
  9 12  1  0
  9 13  1  0
M  RAD  1   2   2
M  END
>  <reaction>  (11) 
rxn_848

>  <mol_properties>  (11) 
{"1": {"label": "*1", "atom_type": "Cs"}, "2": {"label": "*0", "atom_type": "S2s"}, "8": {"label": "*3", "atom_type": "Cs"}, "9": {"label": "*2", "atom_type": "H0"}, "10": {"label": "*4", "atom_type": "H0"}}

>  <type>  (11) 
unop_7

>  <geom_source>  (11) 
Heuristics

$$$$

     RDKit          3D

 13 11  0  0  0  0  0  0  0  0999 V2000
   -1.6665    0.3669    0.3500 C   0  0  0  0  0  0  0  0  0  0  0  0
   -0.2512   -0.1522    0.1665 C   0  0  0  0  0  3  0  0  0  0  0  0
    1.0184    1.1469    0.1190 S   0  0  0  0  0  0  0  0  0  0  0  0
   -2.3717   -0.4653    0.4125 H   0  0  0  0  0  0  0  0  0  0  0  0
   -1.9639    0.9965   -0.4905 H   0  0  0  0  0  0  0  0  0  0  0  0
   -1.7493    0.9606    1.2607 H   0  0  0  0  0  0  0  0  0  0  0  0
    0.0405   -0.7814    1.0086 H   0  0  0  0  0  0  0  0  0  0  0  0
    0.5658    1.7729   -0.9757 H   0  0  0  0  0  0  0  0  0  0  0  0
   -0.2512   -2.6171   -0.7050 C   0  0  0  0  0  0  0  0  0  0  0  0
   -0.2512   -1.3851   -0.2694 H   0  0  0  0  0  0  0  0  0  0  0  0
    0.6379   -3.1304   -0.3420 H   0  0  0  0  0  0  0  0  0  0  0  0
   -1.1403   -3.1304   -0.3420 H   0  0  0  0  0  0  0  0  0  0  0  0
   -0.2512   -2.6171   -1.7939 H   0  0  0  0  0  0  0  0  0  0  0  0
  1  2  1  0
  1  4  1  0
  1  5  1  0
  1  6  1  0
  2  3  1  0
  2  7  1  0
  3  8  1  0
  9 10  1  0
  9 11  1  0
  9 12  1  0
  9 13  1  0
M  RAD  1   2   2
M  END
>  <reaction>  (12) 
rxn_848

>  <mol_properties>  (12) 
{"1": {"label": "*1", "atom_type": "Cs"}, "2": {"label": "*0", "atom_type": "S2s"}, "8": {"label": "*3", "atom_type": "Cs"}, "9": {"label": "*2", "atom_type": "H0"}, "10": {"label": "*4", "atom_type": "H0"}}

>  <type>  (12) 
unop_8

>  <geom_source>  (12) 
Heuristics

$$$$

     RDKit          3D

 13 11  0  0  0  0  0  0  0  0999 V2000
    0.1536    1.4087   -1.2324 C   0  0  0  0  0  0  0  0  0  0  0  0
   -0.5541    0.4810   -0.2603 C   0  0  0  0  0  3  0  0  0  0  0  0
    0.3980    0.1096    1.2422 S   0  0  0  0  0  0  0  0  0  0  0  0
   -0.4891    1.6233   -2.0895 H   0  0  0  0  0  0  0  0  0  0  0  0
    1.0726    0.9545   -1.6073 H   0  0  0  0  0  0  0  0  0  0  0  0
    0.4162    2.3511   -0.7513 H   0  0  0  0  0  0  0  0  0  0  0  0
   -1.4721    0.9393    0.1104 H   0  0  0  0  0  0  0  0  0  0  0  0
    1.4295   -0.4908    0.6336 H   0  0  0  0  0  0  0  0  0  0  0  0
   -0.5541   -1.9840   -1.1318 C   0  0  0  0  0  0  0  0  0  0  0  0
   -0.5541   -0.7520   -0.6962 H   0  0  0  0  0  0  0  0  0  0  0  0
    0.3350   -2.4973   -0.7688 H   0  0  0  0  0  0  0  0  0  0  0  0
   -1.4432   -2.4973   -0.7688 H   0  0  0  0  0  0  0  0  0  0  0  0
   -0.5541   -1.9840   -2.2207 H   0  0  0  0  0  0  0  0  0  0  0  0
  1  2  1  0
  1  4  1  0
  1  5  1  0
  1  6  1  0
  2  3  1  0
  2  7  1  0
  3  8  1  0
  9 10  1  0
  9 11  1  0
  9 12  1  0
  9 13  1  0
M  RAD  1   2   2
M  END
>  <reaction>  (13) 
rxn_848

>  <mol_properties>  (13) 
{"1": {"label": "*1", "atom_type": "Cs"}, "2": {"label": "*0", "atom_type": "S2s"}, "8": {"label": "*3", "atom_type": "Cs"}, "9": {"label": "*2", "atom_type": "H0"}, "10": {"label": "*4", "atom_type": "H0"}}

>  <type>  (13) 
unop_9

>  <geom_source>  (13) 
Heuristics

$$$$

     RDKit          3D

 13 11  0  0  0  0  0  0  0  0999 V2000
   -1.5806    0.6560   -0.3737 C   0  0  0  0  0  0  0  0  0  0  0  0
   -0.3549   -0.0990    0.1100 C   0  0  0  0  0  3  0  0  0  0  0  0
    1.0625    0.9633    0.5154 S   0  0  0  0  0  0  0  0  0  0  0  0
   -2.4055   -0.0363   -0.5581 H   0  0  0  0  0  0  0  0  0  0  0  0
   -1.3715    1.1847   -1.3054 H   0  0  0  0  0  0  0  0  0  0  0  0
   -1.9029    1.3906    0.3647 H   0  0  0  0  0  0  0  0  0  0  0  0
   -0.5697   -0.6262    1.0406 H   0  0  0  0  0  0  0  0  0  0  0  0
    1.2365    1.4729   -0.7114 H   0  0  0  0  0  0  0  0  0  0  0  0
   -0.3549   -2.5639   -0.7615 C   0  0  0  0  0  0  0  0  0  0  0  0
   -0.3549   -1.3320   -0.3260 H   0  0  0  0  0  0  0  0  0  0  0  0
    0.5342   -3.0773   -0.3986 H   0  0  0  0  0  0  0  0  0  0  0  0
   -1.2440   -3.0773   -0.3986 H   0  0  0  0  0  0  0  0  0  0  0  0
   -0.3549   -2.5639   -1.8505 H   0  0  0  0  0  0  0  0  0  0  0  0
  1  2  1  0
  1  4  1  0
  1  5  1  0
  1  6  1  0
  2  3  1  0
  2  7  1  0
  3  8  1  0
  9 10  1  0
  9 11  1  0
  9 12  1  0
  9 13  1  0
M  RAD  1   2   2
M  END
>  <reaction>  (14) 
rxn_848

>  <mol_properties>  (14) 
{"1": {"label": "*1", "atom_type": "Cs"}, "2": {"label": "*0", "atom_type": "S2s"}, "8": {"label": "*3", "atom_type": "Cs"}, "9": {"label": "*2", "atom_type": "H0"}, "10": {"label": "*4", "atom_type": "H0"}}

>  <type>  (14) 
unop_10

>  <geom_source>  (14) 
Heuristics

$$$$

     RDKit          3D

 13 11  0  0  0  0  0  0  0  0999 V2000
    1.3325    0.6823    1.1911 C   0  0  0  0  0  0  0  0  0  0  0  0
    0.6248    0.5718   -0.1480 C   0  0  0  0  0  3  0  0  0  0  0  0
   -1.1782    0.3830   -0.0245 S   0  0  0  0  0  0  0  0  0  0  0  0
    2.4041    0.8359    1.0434 H   0  0  0  0  0  0  0  0  0  0  0  0
    1.2017   -0.2283    1.7785 H   0  0  0  0  0  0  0  0  0  0  0  0
    0.9395    1.5168    1.7723 H   0  0  0  0  0  0  0  0  0  0  0  0
    0.7596    1.4839   -0.7313 H   0  0  0  0  0  0  0  0  0  0  0  0
   -1.1721   -0.7808    0.6393 H   0  0  0  0  0  0  0  0  0  0  0  0
    0.6248   -1.8932   -1.0195 C   0  0  0  0  0  0  0  0  0  0  0  0
    0.6248   -0.6612   -0.5840 H   0  0  0  0  0  0  0  0  0  0  0  0
    1.5139   -2.4065   -0.6566 H   0  0  0  0  0  0  0  0  0  0  0  0
   -0.2643   -2.4065   -0.6566 H   0  0  0  0  0  0  0  0  0  0  0  0
    0.6248   -1.8932   -2.1085 H   0  0  0  0  0  0  0  0  0  0  0  0
  1  2  1  0
  1  4  1  0
  1  5  1  0
  1  6  1  0
  2  3  1  0
  2  7  1  0
  3  8  1  0
  9 10  1  0
  9 11  1  0
  9 12  1  0
  9 13  1  0
M  RAD  1   2   2
M  END
>  <reaction>  (15) 
rxn_848

>  <mol_properties>  (15) 
{"1": {"label": "*1", "atom_type": "Cs"}, "2": {"label": "*0", "atom_type": "S2s"}, "8": {"label": "*3", "atom_type": "Cs"}, "9": {"label": "*2", "atom_type": "H0"}, "10": {"label": "*4", "atom_type": "H0"}}

>  <type>  (15) 
unop_11

>  <geom_source>  (15) 
Heuristics

$$$$

     RDKit          3D

 13 11  0  0  0  0  0  0  0  0999 V2000
   -0.5903    1.2080   -1.2308 C   0  0  0  0  0  0  0  0  0  0  0  0
   -0.5903    0.2171   -0.0799 C   0  0  0  0  0  3  0  0  0  0  0  0
    0.7858    0.4311    1.0874 S   0  0  0  0  0  0  0  0  0  0  0  0
   -1.4639    1.0510   -1.8678 H   0  0  0  0  0  0  0  0  0  0  0  0
    0.3015    1.0891   -1.8488 H   0  0  0  0  0  0  0  0  0  0  0  0
   -0.6097    2.2339   -0.8622 H   0  0  0  0  0  0  0  0  0  0  0  0
   -1.4839    0.3396    0.5338 H   0  0  0  0  0  0  0  0  0  0  0  0
    1.7741    0.1902    0.2155 H   0  0  0  0  0  0  0  0  0  0  0  0
   -0.5903   -2.2478   -0.9514 C   0  0  0  0  0  0  0  0  0  0  0  0
   -0.5903   -1.0158   -0.5158 H   0  0  0  0  0  0  0  0  0  0  0  0
    0.2988   -2.7611   -0.5884 H   0  0  0  0  0  0  0  0  0  0  0  0
   -1.4794   -2.7611   -0.5884 H   0  0  0  0  0  0  0  0  0  0  0  0
   -0.5903   -2.2478   -2.0403 H   0  0  0  0  0  0  0  0  0  0  0  0
  1  2  1  0
  1  4  1  0
  1  5  1  0
  1  6  1  0
  2  3  1  0
  2  7  1  0
  3  8  1  0
  9 10  1  0
  9 11  1  0
  9 12  1  0
  9 13  1  0
M  RAD  1   2   2
M  END
>  <reaction>  (16) 
rxn_848

>  <mol_properties>  (16) 
{"1": {"label": "*1", "atom_type": "Cs"}, "2": {"label": "*0", "atom_type": "S2s"}, "8": {"label": "*3", "atom_type": "Cs"}, "9": {"label": "*2", "atom_type": "H0"}, "10": {"label": "*4", "atom_type": "H0"}}

>  <type>  (16) 
unop_12

>  <geom_source>  (16) 
Heuristics

$$$$

     RDKit          3D

 13 11  0  0  0  0  0  0  0  0999 V2000
   -0.9047   -0.3363    2.0542 S   0  0  0  0  0  0  0  0  0  0  0  0
   -0.4359   -0.5600    0.3109 C   0  0  0  0  0  3  0  0  0  0  0  0
   -1.5780   -0.1503   -0.6060 C   0  0  0  0  0  0  0  0  0  0  0  0
    1.9391    0.3590   -0.3154 C   0  0  0  0  0  0  0  0  0  0  0  0
   -0.1863   -1.6281    0.1385 H   0  0  0  0  0  0  0  0  0  0  0  0
    0.7298    0.2474    0.0207 H   0  0  0  0  0  0  0  0  0  0  0  0
   -1.8192    0.9233   -0.4584 H   0  0  0  0  0  0  0  0  0  0  0  0
   -1.2766   -0.3055   -1.6629 H   0  0  0  0  0  0  0  0  0  0  0  0
   -2.4792   -0.7641   -0.3945 H   0  0  0  0  0  0  0  0  0  0  0  0
    2.2430    0.1019   -1.3509 H   0  0  0  0  0  0  0  0  0  0  0  0
    2.4133   -0.3484    0.3956 H   0  0  0  0  0  0  0  0  0  0  0  0
    2.2648    1.3932   -0.0805 H   0  0  0  0  0  0  0  0  0  0  0  0
   -0.9100    1.0677    1.9487 H   0  0  0  0  0  0  0  0  0  0  0  0
  1  2  1  0
  1 13  1  0
  2  3  1  0
  2  5  1  0
  3  7  1  0
  3  8  1  0
  3  9  1  0
  4  6  1  0
  4 10  1  0
  4 11  1  0
  4 12  1  0
M  RAD  1   2   2
M  END
>  <reaction>  (17) 
rxn_848

>  <mol_properties>  (17) 
{"1": {"label": "*1", "atom_type": "Cs"}, "2": {"label": "*0", "atom_type": "S2s"}, "8": {"label": "*3", "atom_type": "Cs"}, "9": {"label": "*2", "atom_type": "H0"}, "10": {"label": "*4", "atom_type": "H0"}}

>  <type>  (17) 
unop_13

>  <geom_source>  (17) 
AutoTST

$$$$
