
     RDKit          3D

  6  5  0  0  0  0  0  0  0  0999 V2000
    0.6594    0.0438   -0.0050 C   0  0  0  0  0  0  0  0  0  0  0  0
   -0.6594   -0.0438    0.0050 C   0  0  0  0  0  0  0  0  0  0  0  0
    1.1706    0.8681   -0.4881 H   0  0  0  0  0  0  0  0  0  0  0  0
    1.2824   -0.7051    0.4696 H   0  0  0  0  0  0  0  0  0  0  0  0
   -1.2824    0.7051   -0.4696 H   0  0  0  0  0  0  0  0  0  0  0  0
   -1.1706   -0.8681    0.4881 H   0  0  0  0  0  0  0  0  0  0  0  0
  1  2  2  3
  1  3  1  0
  1  4  1  0
  2  5  1  0
  2  6  1  0
M  END
>  <reaction>  (1) 
rxn_1603

>  <mol_properties>  (1) 
{"1": {"label": "donator", "atom_type": "Cd"}, "4": {"label": "d_hydrogen", "atom_type": "H0"}}

>  <type>  (1) 
r1h

$$$$

     RDKit          3D

  6  5  0  0  0  0  0  0  0  0999 V2000
   -0.5120    0.0788    0.0287 C   0  0  0  0  0  0  0  0  0  0  0  0
    0.8174   -0.5409    0.0937 C   0  0  0  0  0  3  0  0  0  0  0  0
    2.3072   -0.1796   -0.1880 S   0  0  0  0  0  0  0  0  0  0  0  0
   -1.1508   -0.5138   -0.6310 H   0  0  0  0  0  0  0  0  0  0  0  0
   -0.4886    1.1152   -0.3220 H   0  0  0  0  0  0  0  0  0  0  0  0
   -0.9732    0.0404    1.0187 H   0  0  0  0  0  0  0  0  0  0  0  0
  1  2  1  0
  1  4  1  0
  1  5  1  0
  1  6  1  0
  2  3  2  0
M  RAD  1   2   2
M  END
>  <reaction>  (2) 
rxn_1603

>  <mol_properties>  (2) 
{"1": {"label": "acceptor", "atom_type": "CS"}}

>  <type>  (2) 
r2

$$$$

     RDKit          3D

  7  6  0  0  0  0  0  0  0  0999 V2000
   -0.6782    0.0507    0.0301 C   0  0  0  0  0  0  0  0  0  0  0  0
    0.8092    0.0996    0.0213 C   0  0  0  0  0  0  0  0  0  0  0  0
    1.7473    0.7521    1.1507 S   0  0  0  0  0  0  0  0  0  0  0  0
   -1.0667    0.5456   -0.8653 H   0  0  0  0  0  0  0  0  0  0  0  0
   -1.0112   -0.9904   -0.0239 H   0  0  0  0  0  0  0  0  0  0  0  0
   -1.0920    0.5225    0.9188 H   0  0  0  0  0  0  0  0  0  0  0  0
    1.2740   -0.3620   -0.8520 H   0  0  0  0  0  0  0  0  0  0  0  0
  1  2  1  0
  1  4  1  0
  1  5  1  0
  1  6  1  0
  2  3  2  0
  2  7  1  0
M  END
>  <reaction>  (3) 
rxn_1603

>  <mol_properties>  (3) 
{"0": {"label": "a_hydrogen", "atom_type": "H0"}, "2": {"label": "acceptor", "atom_type": "CS"}}

>  <type>  (3) 
r2h

$$$$

     RDKit          3D

 12 10  0  0  0  0  0  0  0  0999 V2000
    0.3237   -1.7253   -2.2299 C   0  0  0  0  0  0  0  0  0  0  0  0
   -0.7409   -1.5718   -1.4829 C   0  0  0  0  0  3  0  0  0  0  0  0
    1.1444   -1.0127   -2.1884 H   0  0  0  0  0  0  0  0  0  0  0  0
    0.4355   -2.5616   -2.9177 H   0  0  0  0  0  0  0  0  0  0  0  0
   -0.6456   -0.3670   -0.6445 H   0  0  0  0  0  0  0  0  0  0  0  0
   -1.6325   -2.1830   -1.4069 H   0  0  0  0  0  0  0  0  0  0  0  0
   -1.5814    0.9787    0.9117 C   0  0  0  0  0  0  0  0  0  0  0  0
   -0.4448    0.6735    0.0092 C   0  0  0  0  0  0  0  0  0  0  0  0
    0.9192    1.4601   -0.2174 S   0  0  0  0  0  0  0  0  0  0  0  0
   -2.4948    1.0750    0.3173 H   0  0  0  0  0  0  0  0  0  0  0  0
   -1.4208    1.8871    1.4910 H   0  0  0  0  0  0  0  0  0  0  0  0
   -1.7403    0.1322    1.5862 H   0  0  0  0  0  0  0  0  0  0  0  0
  1  2  2  3
  1  3  1  0
  1  4  1  0
  2  6  1  0
  5  8  1  0
  7  8  1  0
  7 10  1  0
  7 11  1  0
  7 12  1  0
  8  9  2  0
M  RAD  1   2   2
M  END
>  <reaction>  (4) 
rxn_1603

>  <mol_properties>  (4) 
{"0": {"label": "*4", "atom_type": "Cd"}, "1": {"label": "*3", "atom_type": "Cd"}, "4": {"label": "*2", "atom_type": "H0"}, "7": {"label": "*1", "atom_type": "CS"}, "8": {"label": "*0", "atom_type": "S2d"}}

>  <type>  (4) 
ts

$$$$

     RDKit          3D

 12 10  0  0  0  0  0  0  0  0999 V2000
   -0.3481   -1.6714   -2.3280 C   0  0  0  0  0  0  0  0  0  0  0  0
   -0.3481   -1.6714   -1.0063 C   0  0  0  0  0  0  0  0  0  0  0  0
   -0.3481   -0.7488   -2.8964 H   0  0  0  0  0  0  0  0  0  0  0  0
   -0.3481   -2.5940   -2.8964 H   0  0  0  0  0  0  0  0  0  0  0  0
   -0.3481   -0.5643   -0.3242 H   0  0  0  0  0  0  0  0  0  0  0  0
   -0.3481   -2.5940   -0.4379 H   0  0  0  0  0  0  0  0  0  0  0  0
   -1.5198    0.7236    1.2639 C   0  0  0  0  0  0  0  0  0  0  0  0
   -0.3481    0.5510    0.3629 C   0  0  0  0  0  3  0  0  0  0  0  0
    1.1796    0.9095    0.7080 S   0  0  0  0  0  0  0  0  0  0  0  0
   -2.2553    1.3793    0.7876 H   0  0  0  0  0  0  0  0  0  0  0  0
   -1.2301    1.1366    2.2278 H   0  0  0  0  0  0  0  0  0  0  0  0
   -2.0155   -0.2411    1.4099 H   0  0  0  0  0  0  0  0  0  0  0  0
  1  2  2  3
  1  3  1  0
  1  4  1  0
  2  5  1  0
  2  6  1  0
  7  8  1  0
  7 10  1  0
  7 11  1  0
  7 12  1  0
  8  9  2  0
M  RAD  1   8   2
M  END
>  <reaction>  (5) 
rxn_1603

>  <mol_properties>  (5) 
{"0": {"label": "*4", "atom_type": "Cd"}, "1": {"label": "*3", "atom_type": "Cd"}, "4": {"label": "*2", "atom_type": "H0"}, "7": {"label": "*1", "atom_type": "CS"}, "8": {"label": "*0", "atom_type": "S2d"}}

>  <type>  (5) 
unop_1

>  <geom_source>  (5) 
Heuristics

$$$$

     RDKit          3D

 12 10  0  0  0  0  0  0  0  0999 V2000
   -0.0043   -1.6735   -2.4904 C   0  0  0  0  0  0  0  0  0  0  0  0
   -0.0043   -1.6735   -1.1687 C   0  0  0  0  0  0  0  0  0  0  0  0
   -0.0043   -0.7509   -3.0588 H   0  0  0  0  0  0  0  0  0  0  0  0
   -0.0043   -2.5960   -3.0588 H   0  0  0  0  0  0  0  0  0  0  0  0
   -0.0043   -0.5664   -0.4866 H   0  0  0  0  0  0  0  0  0  0  0  0
   -0.0043   -2.5960   -0.6003 H   0  0  0  0  0  0  0  0  0  0  0  0
   -0.6808    1.6911   -0.4721 C   0  0  0  0  0  0  0  0  0  0  0  0
   -0.0043    0.5490    0.2005 C   0  0  0  0  0  3  0  0  0  0  0  0
    0.3414    0.4344    1.7654 S   0  0  0  0  0  0  0  0  0  0  0  0
   -0.0327    2.0895   -1.2589 H   0  0  0  0  0  0  0  0  0  0  0  0
   -0.9323    2.4819    0.2314 H   0  0  0  0  0  0  0  0  0  0  0  0
   -1.5890    1.3377   -0.9701 H   0  0  0  0  0  0  0  0  0  0  0  0
  1  2  2  3
  1  3  1  0
  1  4  1  0
  2  5  1  0
  2  6  1  0
  7  8  1  0
  7 10  1  0
  7 11  1  0
  7 12  1  0
  8  9  2  0
M  RAD  1   8   2
M  END
>  <reaction>  (6) 
rxn_1603

>  <mol_properties>  (6) 
{"0": {"label": "*4", "atom_type": "Cd"}, "1": {"label": "*3", "atom_type": "Cd"}, "4": {"label": "*2", "atom_type": "H0"}, "7": {"label": "*1", "atom_type": "CS"}, "8": {"label": "*0", "atom_type": "S2d"}}

>  <type>  (6) 
unop_2

>  <geom_source>  (6) 
Heuristics

$$$$

     RDKit          3D

 12 10  0  0  0  0  0  0  0  0999 V2000
   -0.3328   -1.8408   -2.1407 C   0  0  0  0  0  0  0  0  0  0  0  0
   -0.3328   -1.8408   -0.8189 C   0  0  0  0  0  0  0  0  0  0  0  0
   -0.3328   -0.9182   -2.7090 H   0  0  0  0  0  0  0  0  0  0  0  0
   -0.3328   -2.7633   -2.7090 H   0  0  0  0  0  0  0  0  0  0  0  0
   -0.3328   -0.7337   -0.1369 H   0  0  0  0  0  0  0  0  0  0  0  0
   -0.3328   -2.7633   -0.2505 H   0  0  0  0  0  0  0  0  0  0  0  0
   -1.0094    0.2945    1.8729 C   0  0  0  0  0  0  0  0  0  0  0  0
   -0.3328    0.3817    0.5503 C   0  0  0  0  0  3  0  0  0  0  0  0
    0.9088    1.3302    0.1763 S   0  0  0  0  0  0  0  0  0  0  0  0
   -2.0719    0.5301    1.7576 H   0  0  0  0  0  0  0  0  0  0  0  0
   -0.5612    0.9681    2.6003 H   0  0  0  0  0  0  0  0  0  0  0  0
   -0.9599   -0.7342    2.2431 H   0  0  0  0  0  0  0  0  0  0  0  0
  1  2  2  3
  1  3  1  0
  1  4  1  0
  2  5  1  0
  2  6  1  0
  7  8  1  0
  7 10  1  0
  7 11  1  0
  7 12  1  0
  8  9  2  0
M  RAD  1   8   2
M  END
>  <reaction>  (7) 
rxn_1603

>  <mol_properties>  (7) 
{"0": {"label": "*4", "atom_type": "Cd"}, "1": {"label": "*3", "atom_type": "Cd"}, "4": {"label": "*2", "atom_type": "H0"}, "7": {"label": "*1", "atom_type": "CS"}, "8": {"label": "*0", "atom_type": "S2d"}}

>  <type>  (7) 
unop_3

>  <geom_source>  (7) 
Heuristics

$$$$

     RDKit          3D

 12 10  0  0  0  0  0  0  0  0999 V2000
    0.0835   -1.6162   -2.4999 C   0  0  0  0  0  0  0  0  0  0  0  0
    0.0835   -1.6162   -1.1781 C   0  0  0  0  0  0  0  0  0  0  0  0
    0.0835   -0.6936   -3.0682 H   0  0  0  0  0  0  0  0  0  0  0  0
    0.0835   -2.5388   -3.0682 H   0  0  0  0  0  0  0  0  0  0  0  0
    0.0835   -0.5091   -0.4961 H   0  0  0  0  0  0  0  0  0  0  0  0
    0.0835   -2.5388   -0.6097 H   0  0  0  0  0  0  0  0  0  0  0  0
    1.2553    1.4886   -0.0599 C   0  0  0  0  0  0  0  0  0  0  0  0
    0.0835    0.6062    0.1911 C   0  0  0  0  0  3  0  0  0  0  0  0
   -0.7227    0.4637    1.5735 S   0  0  0  0  0  0  0  0  0  0  0  0
    2.1064    0.8836   -0.3875 H   0  0  0  0  0  0  0  0  0  0  0  0
    1.5289    2.0574    0.8262 H   0  0  0  0  0  0  0  0  0  0  0  0
    1.0289    2.1736   -0.8828 H   0  0  0  0  0  0  0  0  0  0  0  0
  1  2  2  3
  1  3  1  0
  1  4  1  0
  2  5  1  0
  2  6  1  0
  7  8  1  0
  7 10  1  0
  7 11  1  0
  7 12  1  0
  8  9  2  0
M  RAD  1   8   2
M  END
>  <reaction>  (8) 
rxn_1603

>  <mol_properties>  (8) 
{"0": {"label": "*4", "atom_type": "Cd"}, "1": {"label": "*3", "atom_type": "Cd"}, "4": {"label": "*2", "atom_type": "H0"}, "7": {"label": "*1", "atom_type": "CS"}, "8": {"label": "*0", "atom_type": "S2d"}}

>  <type>  (8) 
unop_4

>  <geom_source>  (8) 
Heuristics

$$$$

     RDKit          3D

 12 10  0  0  0  0  0  0  0  0999 V2000
   -0.0000   -1.9894   -2.0172 C   0  0  0  0  0  0  0  0  0  0  0  0
   -0.0000   -1.9894   -0.6955 C   0  0  0  0  0  0  0  0  0  0  0  0
   -0.0000   -1.0668   -2.5856 H   0  0  0  0  0  0  0  0  0  0  0  0
   -0.0000   -2.9120   -2.5856 H   0  0  0  0  0  0  0  0  0  0  0  0
   -0.0000   -0.8823   -0.0134 H   0  0  0  0  0  0  0  0  0  0  0  0
   -0.0000   -2.9120   -0.1271 H   0  0  0  0  0  0  0  0  0  0  0  0
   -0.0000    0.0508    2.1507 C   0  0  0  0  0  0  0  0  0  0  0  0
   -0.0000    0.2330    0.6737 C   0  0  0  0  0  3  0  0  0  0  0  0
    0.0000    1.6338   -0.1131 S   0  0  0  0  0  0  0  0  0  0  0  0
   -0.8761   -0.5337    2.4481 H   0  0  0  0  0  0  0  0  0  0  0  0
   -0.0000    1.0042    2.6747 H   0  0  0  0  0  0  0  0  0  0  0  0
    0.8762   -0.5336    2.4481 H   0  0  0  0  0  0  0  0  0  0  0  0
  1  2  2  3
  1  3  1  0
  1  4  1  0
  2  5  1  0
  2  6  1  0
  7  8  1  0
  7 10  1  0
  7 11  1  0
  7 12  1  0
  8  9  2  0
M  RAD  1   8   2
M  END
>  <reaction>  (9) 
rxn_1603

>  <mol_properties>  (9) 
{"0": {"label": "*4", "atom_type": "Cd"}, "1": {"label": "*3", "atom_type": "Cd"}, "4": {"label": "*2", "atom_type": "H0"}, "7": {"label": "*1", "atom_type": "CS"}, "8": {"label": "*0", "atom_type": "S2d"}}

>  <type>  (9) 
unop_5

>  <geom_source>  (9) 
Heuristics

$$$$

     RDKit          3D

 12 10  0  0  0  0  0  0  0  0999 V2000
    0.2239   -1.6017   -2.4540 C   0  0  0  0  0  0  0  0  0  0  0  0
    0.2239   -1.6017   -1.1323 C   0  0  0  0  0  0  0  0  0  0  0  0
    0.2239   -0.6791   -3.0224 H   0  0  0  0  0  0  0  0  0  0  0  0
    0.2239   -2.5243   -3.0224 H   0  0  0  0  0  0  0  0  0  0  0  0
    0.2239   -0.4946   -0.4502 H   0  0  0  0  0  0  0  0  0  0  0  0
    0.2239   -2.5243   -0.5639 H   0  0  0  0  0  0  0  0  0  0  0  0
    1.5769    1.1482    0.5619 C   0  0  0  0  0  0  0  0  0  0  0  0
    0.2239    0.6207    0.2370 C   0  0  0  0  0  3  0  0  0  0  0  0
   -1.0547    0.6139    1.2099 S   0  0  0  0  0  0  0  0  0  0  0  0
    2.3183    0.3512    0.4485 H   0  0  0  0  0  0  0  0  0  0  0  0
    1.6214    1.5494    1.5722 H   0  0  0  0  0  0  0  0  0  0  0  0
    1.8492    1.9273   -0.1568 H   0  0  0  0  0  0  0  0  0  0  0  0
  1  2  2  3
  1  3  1  0
  1  4  1  0
  2  5  1  0
  2  6  1  0
  7  8  1  0
  7 10  1  0
  7 11  1  0
  7 12  1  0
  8  9  2  0
M  RAD  1   8   2
M  END
>  <reaction>  (10) 
rxn_1603

>  <mol_properties>  (10) 
{"0": {"label": "*4", "atom_type": "Cd"}, "1": {"label": "*3", "atom_type": "Cd"}, "4": {"label": "*2", "atom_type": "H0"}, "7": {"label": "*1", "atom_type": "CS"}, "8": {"label": "*0", "atom_type": "S2d"}}

>  <type>  (10) 
unop_6

>  <geom_source>  (10) 
Heuristics

$$$$

     RDKit          3D

 12 10  0  0  0  0  0  0  0  0999 V2000
    0.3481   -1.6714   -2.3280 C   0  0  0  0  0  0  0  0  0  0  0  0
    0.3481   -1.6714   -1.0063 C   0  0  0  0  0  0  0  0  0  0  0  0
    0.3481   -0.7489   -2.8964 H   0  0  0  0  0  0  0  0  0  0  0  0
    0.3481   -2.5940   -2.8964 H   0  0  0  0  0  0  0  0  0  0  0  0
    0.3481   -0.5643   -0.3242 H   0  0  0  0  0  0  0  0  0  0  0  0
    0.3481   -2.5940   -0.4379 H   0  0  0  0  0  0  0  0  0  0  0  0
    1.5198    0.7236    1.2639 C   0  0  0  0  0  0  0  0  0  0  0  0
    0.3481    0.5510    0.3629 C   0  0  0  0  0  3  0  0  0  0  0  0
   -1.1796    0.9095    0.7080 S   0  0  0  0  0  0  0  0  0  0  0  0
    2.0155   -0.2411    1.4099 H   0  0  0  0  0  0  0  0  0  0  0  0
    1.2301    1.1366    2.2278 H   0  0  0  0  0  0  0  0  0  0  0  0
    2.2552    1.3794    0.7876 H   0  0  0  0  0  0  0  0  0  0  0  0
  1  2  2  3
  1  3  1  0
  1  4  1  0
  2  5  1  0
  2  6  1  0
  7  8  1  0
  7 10  1  0
  7 11  1  0
  7 12  1  0
  8  9  2  0
M  RAD  1   8   2
M  END
>  <reaction>  (11) 
rxn_1603

>  <mol_properties>  (11) 
{"0": {"label": "*4", "atom_type": "Cd"}, "1": {"label": "*3", "atom_type": "Cd"}, "4": {"label": "*2", "atom_type": "H0"}, "7": {"label": "*1", "atom_type": "CS"}, "8": {"label": "*0", "atom_type": "S2d"}}

>  <type>  (11) 
unop_7

>  <geom_source>  (11) 
Heuristics

$$$$

     RDKit          3D

 12 10  0  0  0  0  0  0  0  0999 V2000
   -0.2239   -1.6017   -2.4540 C   0  0  0  0  0  0  0  0  0  0  0  0
   -0.2239   -1.6017   -1.1323 C   0  0  0  0  0  0  0  0  0  0  0  0
   -0.2239   -0.6791   -3.0224 H   0  0  0  0  0  0  0  0  0  0  0  0
   -0.2239   -2.5243   -3.0224 H   0  0  0  0  0  0  0  0  0  0  0  0
   -0.2239   -0.4946   -0.4502 H   0  0  0  0  0  0  0  0  0  0  0  0
   -0.2239   -2.5243   -0.5639 H   0  0  0  0  0  0  0  0  0  0  0  0
   -1.5769    1.1482    0.5619 C   0  0  0  0  0  0  0  0  0  0  0  0
   -0.2239    0.6207    0.2370 C   0  0  0  0  0  3  0  0  0  0  0  0
    1.0547    0.6138    1.2099 S   0  0  0  0  0  0  0  0  0  0  0  0
   -1.8492    1.9273   -0.1568 H   0  0  0  0  0  0  0  0  0  0  0  0
   -1.6214    1.5494    1.5722 H   0  0  0  0  0  0  0  0  0  0  0  0
   -2.3183    0.3512    0.4485 H   0  0  0  0  0  0  0  0  0  0  0  0
  1  2  2  3
  1  3  1  0
  1  4  1  0
  2  5  1  0
  2  6  1  0
  7  8  1  0
  7 10  1  0
  7 11  1  0
  7 12  1  0
  8  9  2  0
M  RAD  1   8   2
M  END
>  <reaction>  (12) 
rxn_1603

>  <mol_properties>  (12) 
{"0": {"label": "*4", "atom_type": "Cd"}, "1": {"label": "*3", "atom_type": "Cd"}, "4": {"label": "*2", "atom_type": "H0"}, "7": {"label": "*1", "atom_type": "CS"}, "8": {"label": "*0", "atom_type": "S2d"}}

>  <type>  (12) 
unop_8

>  <geom_source>  (12) 
Heuristics

$$$$

     RDKit          3D

 12 10  0  0  0  0  0  0  0  0999 V2000
    0.0043   -1.6735   -2.4904 C   0  0  0  0  0  0  0  0  0  0  0  0
    0.0043   -1.6735   -1.1687 C   0  0  0  0  0  0  0  0  0  0  0  0
    0.0043   -0.7509   -3.0588 H   0  0  0  0  0  0  0  0  0  0  0  0
    0.0043   -2.5960   -3.0588 H   0  0  0  0  0  0  0  0  0  0  0  0
    0.0043   -0.5664   -0.4866 H   0  0  0  0  0  0  0  0  0  0  0  0
    0.0043   -2.5960   -0.6003 H   0  0  0  0  0  0  0  0  0  0  0  0
    0.6808    1.6911   -0.4721 C   0  0  0  0  0  0  0  0  0  0  0  0
    0.0043    0.5490    0.2005 C   0  0  0  0  0  3  0  0  0  0  0  0
   -0.3414    0.4344    1.7654 S   0  0  0  0  0  0  0  0  0  0  0  0
    1.5890    1.3377   -0.9702 H   0  0  0  0  0  0  0  0  0  0  0  0
    0.9324    2.4819    0.2314 H   0  0  0  0  0  0  0  0  0  0  0  0
    0.0327    2.0895   -1.2588 H   0  0  0  0  0  0  0  0  0  0  0  0
  1  2  2  3
  1  3  1  0
  1  4  1  0
  2  5  1  0
  2  6  1  0
  7  8  1  0
  7 10  1  0
  7 11  1  0
  7 12  1  0
  8  9  2  0
M  RAD  1   8   2
M  END
>  <reaction>  (13) 
rxn_1603

>  <mol_properties>  (13) 
{"0": {"label": "*4", "atom_type": "Cd"}, "1": {"label": "*3", "atom_type": "Cd"}, "4": {"label": "*2", "atom_type": "H0"}, "7": {"label": "*1", "atom_type": "CS"}, "8": {"label": "*0", "atom_type": "S2d"}}

>  <type>  (13) 
unop_9

>  <geom_source>  (13) 
Heuristics

$$$$

     RDKit          3D

 12 10  0  0  0  0  0  0  0  0999 V2000
   -0.0835   -1.6162   -2.4999 C   0  0  0  0  0  0  0  0  0  0  0  0
   -0.0835   -1.6162   -1.1781 C   0  0  0  0  0  0  0  0  0  0  0  0
   -0.0835   -0.6936   -3.0682 H   0  0  0  0  0  0  0  0  0  0  0  0
   -0.0835   -2.5388   -3.0682 H   0  0  0  0  0  0  0  0  0  0  0  0
   -0.0835   -0.5091   -0.4961 H   0  0  0  0  0  0  0  0  0  0  0  0
   -0.0835   -2.5388   -0.6097 H   0  0  0  0  0  0  0  0  0  0  0  0
   -1.2553    1.4886   -0.0599 C   0  0  0  0  0  0  0  0  0  0  0  0
   -0.0835    0.6062    0.1911 C   0  0  0  0  0  3  0  0  0  0  0  0
    0.7227    0.4637    1.5735 S   0  0  0  0  0  0  0  0  0  0  0  0
   -1.0289    2.1736   -0.8828 H   0  0  0  0  0  0  0  0  0  0  0  0
   -1.5289    2.0574    0.8261 H   0  0  0  0  0  0  0  0  0  0  0  0
   -2.1064    0.8836   -0.3874 H   0  0  0  0  0  0  0  0  0  0  0  0
  1  2  2  3
  1  3  1  0
  1  4  1  0
  2  5  1  0
  2  6  1  0
  7  8  1  0
  7 10  1  0
  7 11  1  0
  7 12  1  0
  8  9  2  0
M  RAD  1   8   2
M  END
>  <reaction>  (14) 
rxn_1603

>  <mol_properties>  (14) 
{"0": {"label": "*4", "atom_type": "Cd"}, "1": {"label": "*3", "atom_type": "Cd"}, "4": {"label": "*2", "atom_type": "H0"}, "7": {"label": "*1", "atom_type": "CS"}, "8": {"label": "*0", "atom_type": "S2d"}}

>  <type>  (14) 
unop_10

>  <geom_source>  (14) 
Heuristics

$$$$

     RDKit          3D

 12 10  0  0  0  0  0  0  0  0999 V2000
    0.3328   -1.8408   -2.1407 C   0  0  0  0  0  0  0  0  0  0  0  0
    0.3328   -1.8408   -0.8189 C   0  0  0  0  0  0  0  0  0  0  0  0
    0.3328   -0.9182   -2.7090 H   0  0  0  0  0  0  0  0  0  0  0  0
    0.3328   -2.7634   -2.7090 H   0  0  0  0  0  0  0  0  0  0  0  0
    0.3328   -0.7337   -0.1369 H   0  0  0  0  0  0  0  0  0  0  0  0
    0.3328   -2.7634   -0.2505 H   0  0  0  0  0  0  0  0  0  0  0  0
    1.0094    0.2945    1.8729 C   0  0  0  0  0  0  0  0  0  0  0  0
    0.3328    0.3817    0.5503 C   0  0  0  0  0  3  0  0  0  0  0  0
   -0.9088    1.3302    0.1763 S   0  0  0  0  0  0  0  0  0  0  0  0
    0.9599   -0.7342    2.2431 H   0  0  0  0  0  0  0  0  0  0  0  0
    0.5612    0.9680    2.6003 H   0  0  0  0  0  0  0  0  0  0  0  0
    2.0719    0.5301    1.7576 H   0  0  0  0  0  0  0  0  0  0  0  0
  1  2  2  3
  1  3  1  0
  1  4  1  0
  2  5  1  0
  2  6  1  0
  7  8  1  0
  7 10  1  0
  7 11  1  0
  7 12  1  0
  8  9  2  0
M  RAD  1   8   2
M  END
>  <reaction>  (15) 
rxn_1603

>  <mol_properties>  (15) 
{"0": {"label": "*4", "atom_type": "Cd"}, "1": {"label": "*3", "atom_type": "Cd"}, "4": {"label": "*2", "atom_type": "H0"}, "7": {"label": "*1", "atom_type": "CS"}, "8": {"label": "*0", "atom_type": "S2d"}}

>  <type>  (15) 
unop_11

>  <geom_source>  (15) 
Heuristics

$$$$

     RDKit          3D

 12 10  0  0  0  0  0  0  0  0999 V2000
    0.0000   -1.7060   -2.4772 C   0  0  0  0  0  0  0  0  0  0  0  0
    0.0000   -1.7060   -1.1555 C   0  0  0  0  0  0  0  0  0  0  0  0
    0.0000   -0.7834   -3.0456 H   0  0  0  0  0  0  0  0  0  0  0  0
    0.0000   -2.6286   -3.0456 H   0  0  0  0  0  0  0  0  0  0  0  0
    0.0000   -0.5989   -0.4734 H   0  0  0  0  0  0  0  0  0  0  0  0
    0.0000   -2.6286   -0.5871 H   0  0  0  0  0  0  0  0  0  0  0  0
    0.0000    1.7536   -0.6133 C   0  0  0  0  0  0  0  0  0  0  0  0
    0.0000    0.5164    0.2137 C   0  0  0  0  0  3  0  0  0  0  0  0
   -0.0000    0.4436    1.8188 S   0  0  0  0  0  0  0  0  0  0  0  0
    0.8761    1.7564   -1.2691 H   0  0  0  0  0  0  0  0  0  0  0  0
    0.0000    2.6504    0.0027 H   0  0  0  0  0  0  0  0  0  0  0  0
   -0.8762    1.7564   -1.2690 H   0  0  0  0  0  0  0  0  0  0  0  0
  1  2  2  3
  1  3  1  0
  1  4  1  0
  2  5  1  0
  2  6  1  0
  7  8  1  0
  7 10  1  0
  7 11  1  0
  7 12  1  0
  8  9  2  0
M  RAD  1   8   2
M  END
>  <reaction>  (16) 
rxn_1603

>  <mol_properties>  (16) 
{"0": {"label": "*4", "atom_type": "Cd"}, "1": {"label": "*3", "atom_type": "Cd"}, "4": {"label": "*2", "atom_type": "H0"}, "7": {"label": "*1", "atom_type": "CS"}, "8": {"label": "*0", "atom_type": "S2d"}}

>  <type>  (16) 
unop_12

>  <geom_source>  (16) 
Heuristics

$$$$

     RDKit          3D

 12 10  0  0  0  0  0  0  0  0999 V2000
   -1.9368   -1.3987   -0.8391 S   0  0  0  0  0  0  0  0  0  0  0  0
   -1.7709    0.8565    0.3372 C   0  0  0  0  0  0  0  0  0  0  0  0
   -1.1363   -0.3150   -0.3423 C   0  0  0  0  0  3  0  0  0  0  0  0
    2.2579   -0.0392   -0.1323 C   0  0  0  0  0  0  0  0  0  0  0  0
    1.3399   -0.9995   -0.1924 C   0  0  0  0  0  0  0  0  0  0  0  0
   -0.9809    1.5737    0.6413 H   0  0  0  0  0  0  0  0  0  0  0  0
   -2.3198    0.5251    1.2446 H   0  0  0  0  0  0  0  0  0  0  0  0
   -2.4718    1.3706   -0.3549 H   0  0  0  0  0  0  0  0  0  0  0  0
    0.2768   -0.3566   -0.4985 H   0  0  0  0  0  0  0  0  0  0  0  0
    3.1541   -0.1736    0.4646 H   0  0  0  0  0  0  0  0  0  0  0  0
    2.1109    0.8836   -0.6825 H   0  0  0  0  0  0  0  0  0  0  0  0
    1.4769   -1.9269    0.3542 H   0  0  0  0  0  0  0  0  0  0  0  0
  1  3  2  0
  2  3  1  0
  2  6  1  0
  2  7  1  0
  2  8  1  0
  4  5  2  3
  4 10  1  0
  4 11  1  0
  5  9  1  0
  5 12  1  0
M  RAD  1   3   2
M  END
>  <reaction>  (17) 
rxn_1603

>  <mol_properties>  (17) 
{"0": {"label": "*4", "atom_type": "Cd"}, "1": {"label": "*3", "atom_type": "Cd"}, "4": {"label": "*2", "atom_type": "H0"}, "7": {"label": "*1", "atom_type": "CS"}, "8": {"label": "*0", "atom_type": "S2d"}}

>  <type>  (17) 
unop_13

>  <geom_source>  (17) 
AutoTST

$$$$
