
     RDKit          3D

 12 11  0  0  0  0  0  0  0  0999 V2000
    2.1696    0.6854    1.1310 C   0  0  0  0  0  0  0  0  0  0  0  0
    1.2518    0.4145    0.4134 C   0  0  0  0  0  0  0  0  0  0  0  0
    0.1391    0.0443   -0.4683 C   0  0  0  0  0  0  0  0  0  0  0  0
   -0.2054   -1.4492   -0.3339 C   0  0  0  0  0  0  0  0  0  0  0  0
   -1.0375    0.8853   -0.2222 C   0  0  0  0  0  0  0  0  0  0  0  0
   -2.0160    1.5463   -0.0311 C   0  0  0  0  0  0  0  0  0  0  0  0
    2.9819    0.9356    1.7702 H   0  0  0  0  0  0  0  0  0  0  0  0
    0.4629    0.2285   -1.4981 H   0  0  0  0  0  0  0  0  0  0  0  0
   -0.5327   -1.6703    0.6812 H   0  0  0  0  0  0  0  0  0  0  0  0
    0.6727   -2.0535   -0.5593 H   0  0  0  0  0  0  0  0  0  0  0  0
   -1.0064   -1.7081   -1.0256 H   0  0  0  0  0  0  0  0  0  0  0  0
   -2.8802    2.1413    0.1426 H   0  0  0  0  0  0  0  0  0  0  0  0
  1  2  3  0
  1  7  1  0
  2  3  1  0
  3  4  1  0
  3  5  1  0
  3  8  1  0
  4  9  1  0
  4 10  1  0
  4 11  1  0
  5  6  3  0
  6 12  1  0
M  END
>  <reaction>  (1) 
rxn_1421

>  <mol_properties>  (1) 
{"2": {"label": "donator", "atom_type": "Cs"}, "7": {"label": "d_hydrogen", "atom_type": "H0"}}

>  <type>  (1) 
r1h

$$$$

     RDKit          3D

  7  6  0  0  0  0  0  0  0  0999 V2000
    1.8092   -0.3013   -0.2242 S   0  0  0  0  0  0  0  0  0  0  0  0
    0.1552   -0.6967   -0.1137 C   0  0  0  0  0  0  0  0  0  0  0  0
   -0.8921    0.1788    0.1148 C   0  0  0  0  0  0  0  0  0  0  0  0
   -0.7548    1.8245    0.3328 S   0  0  0  0  0  1  0  0  0  0  0  0
    1.6168    1.0210   -0.0187 H   0  0  0  0  0  0  0  0  0  0  0  0
   -0.0550   -1.7522   -0.2412 H   0  0  0  0  0  0  0  0  0  0  0  0
   -1.8791   -0.2740    0.1502 H   0  0  0  0  0  0  0  0  0  0  0  0
  1  2  1  0
  1  5  1  0
  2  3  2  3
  2  6  1  0
  3  4  1  0
  3  7  1  0
M  RAD  1   4   2
M  END
>  <reaction>  (2) 
rxn_1421

>  <mol_properties>  (2) 
{"1": {"label": "acceptor", "atom_type": "Cs"}}

>  <type>  (2) 
r2

$$$$

     RDKit          3D

  8  7  0  0  0  0  0  0  0  0999 V2000
    1.7301   -0.0562    0.5281 S   0  0  0  0  0  0  0  0  0  0  0  0
    0.1858    0.6127   -0.1669 C   0  0  0  0  0  0  0  0  0  0  0  0
   -0.9621   -0.2567    0.2171 C   0  0  0  0  0  0  0  0  0  0  0  0
   -1.8663   -1.1002   -0.8086 S   0  0  0  0  0  0  0  0  0  0  0  0
    1.7025   -1.2092   -0.1540 H   0  0  0  0  0  0  0  0  0  0  0  0
    0.2619    0.7246   -1.2458 H   0  0  0  0  0  0  0  0  0  0  0  0
    0.0809    1.5982    0.2929 H   0  0  0  0  0  0  0  0  0  0  0  0
   -1.1456   -0.3126    1.2907 H   0  0  0  0  0  0  0  0  0  0  0  0
  1  2  1  0
  1  5  1  0
  2  3  1  0
  2  6  1  0
  2  7  1  0
  3  4  2  0
  3  8  1  0
M  END
>  <reaction>  (3) 
rxn_1421

>  <mol_properties>  (3) 
{"0": {"label": "a_hydrogen", "atom_type": "H0"}, "2": {"label": "acceptor", "atom_type": "Cs"}}

>  <type>  (3) 
r2h

$$$$

     RDKit          3D

 19 17  0  0  0  0  0  0  0  0999 V2000
   -1.6985   -1.1414   -2.2258 C   0  0  0  0  0  0  0  0  0  0  0  0
   -1.6998   -0.4382   -1.2525 C   0  0  0  0  0  0  0  0  0  0  0  0
   -1.5991    0.4117   -0.1080 C   0  0  0  0  0  3  0  0  0  0  0  0
   -1.5111    1.9015   -0.3741 C   0  0  0  0  0  0  0  0  0  0  0  0
   -2.3186    0.0054    1.0561 C   0  0  0  0  0  0  0  0  0  0  0  0
   -2.8648   -0.3220    2.0743 C   0  0  0  0  0  0  0  0  0  0  0  0
   -1.7274   -1.7615   -3.0896 H   0  0  0  0  0  0  0  0  0  0  0  0
   -0.2753    0.1598    0.2742 H   0  0  0  0  0  0  0  0  0  0  0  0
   -2.4768    2.2830   -0.7123 H   0  0  0  0  0  0  0  0  0  0  0  0
   -0.7689    2.0992   -1.1475 H   0  0  0  0  0  0  0  0  0  0  0  0
   -1.2283    2.4252    0.5385 H   0  0  0  0  0  0  0  0  0  0  0  0
   -3.3668   -0.6109    2.9664 H   0  0  0  0  0  0  0  0  0  0  0  0
    1.2515    1.1648    1.9517 S   0  0  0  0  0  0  0  0  0  0  0  0
    0.9564   -0.0277    0.6875 C   0  0  0  0  0  0  0  0  0  0  0  0
    1.6683    0.0010   -0.5698 C   0  0  0  0  0  0  0  0  0  0  0  0
    2.5064    1.2465   -1.1987 S   0  0  0  0  0  0  0  0  0  0  0  0
    1.8584    2.0421    1.1284 H   0  0  0  0  0  0  0  0  0  0  0  0
    0.8066   -1.0228    1.1029 H   0  0  0  0  0  0  0  0  0  0  0  0
    1.5427   -0.9062   -1.1587 H   0  0  0  0  0  0  0  0  0  0  0  0
  1  2  3  0
  1  7  1  0
  2  3  1  0
  3  4  1  0
  3  5  1  0
  4  9  1  0
  4 10  1  0
  4 11  1  0
  5  6  3  0
  6 12  1  0
  8 14  1  0
 13 14  1  0
 13 17  1  0
 14 15  1  0
 14 18  1  0
 15 16  2  0
 15 19  1  0
M  RAD  1   3   2
M  END
>  <reaction>  (4) 
rxn_1421

>  <mol_properties>  (4) 
{"1": {"label": "*4", "atom_type": "Ct"}, "2": {"label": "*3", "atom_type": "Cs"}, "7": {"label": "*2", "atom_type": "H0"}, "13": {"label": "*1", "atom_type": "Cs"}, "14": {"label": "*0", "atom_type": "CS"}}

>  <type>  (4) 
ts

$$$$

     RDKit          3D

 19 17  0  0  0  0  0  0  0  0999 V2000
   -1.6554    0.0535   -2.7294 C   0  0  0  0  0  0  0  0  0  0  0  0
   -1.6554    0.0535   -1.5333 C   0  0  0  0  0  0  0  0  0  0  0  0
   -1.6554    0.0935   -0.0667 C   0  0  0  0  0  3  0  0  0  0  0  0
   -2.2935    1.3927    0.4553 C   0  0  0  0  0  0  0  0  0  0  0  0
   -2.3173   -1.0877    0.4981 C   0  0  0  0  0  0  0  0  0  0  0  0
   -2.8655   -2.0330    0.9846 C   0  0  0  0  0  0  0  0  0  0  0  0
   -1.6554    0.0535   -3.7929 H   0  0  0  0  0  0  0  0  0  0  0  0
   -0.4018    0.0663    0.3264 H   0  0  0  0  0  0  0  0  0  0  0  0
   -3.3367    1.4500    0.1475 H   0  0  0  0  0  0  0  0  0  0  0  0
   -1.7608    2.2542    0.0536 H   0  0  0  0  0  0  0  0  0  0  0  0
   -2.2463    1.4172    1.5435 H   0  0  0  0  0  0  0  0  0  0  0  0
   -3.3529   -2.8734    1.4171 H   0  0  0  0  0  0  0  0  0  0  0  0
    1.2542    1.5273    1.6822 S   0  0  0  0  0  0  0  0  0  0  0  0
    0.8430    0.0392    0.7168 C   0  0  0  0  0  0  0  0  0  0  0  0
    2.0932   -0.6425    0.2776 C   0  0  0  0  0  0  0  0  0  0  0  0
    2.5619   -0.8200   -1.2489 S   0  0  0  0  0  0  0  0  0  0  0  0
    1.8742    2.1736    0.6856 H   0  0  0  0  0  0  0  0  0  0  0  0
    0.2926   -0.5977    1.4134 H   0  0  0  0  0  0  0  0  0  0  0  0
    2.7175   -1.0084    1.0936 H   0  0  0  0  0  0  0  0  0  0  0  0
  1  2  3  0
  1  7  1  0
  2  3  1  0
  3  4  1  0
  3  5  1  0
  4  9  1  0
  4 10  1  0
  4 11  1  0
  5  6  3  0
  6 12  1  0
  8 14  1  0
 13 14  1  0
 13 17  1  0
 14 15  1  0
 14 18  1  0
 15 16  2  0
 15 19  1  0
M  RAD  1   3   2
M  END
>  <reaction>  (5) 
rxn_1421

>  <mol_properties>  (5) 
{"1": {"label": "*4", "atom_type": "Ct"}, "2": {"label": "*3", "atom_type": "Cs"}, "7": {"label": "*2", "atom_type": "H0"}, "13": {"label": "*1", "atom_type": "Cs"}, "14": {"label": "*0", "atom_type": "CS"}}

>  <type>  (5) 
unop_1

>  <geom_source>  (5) 
Heuristics

$$$$

     RDKit          3D

 19 17  0  0  0  0  0  0  0  0999 V2000
   -1.4540    0.5770   -2.8358 C   0  0  0  0  0  0  0  0  0  0  0  0
   -1.4540    0.5770   -1.6396 C   0  0  0  0  0  0  0  0  0  0  0  0
   -1.4540    0.6170   -0.1731 C   0  0  0  0  0  3  0  0  0  0  0  0
   -2.0921    1.9163    0.3489 C   0  0  0  0  0  0  0  0  0  0  0  0
   -2.1159   -0.5642    0.3917 C   0  0  0  0  0  0  0  0  0  0  0  0
   -2.6641   -1.5095    0.8782 C   0  0  0  0  0  0  0  0  0  0  0  0
   -1.4540    0.5770   -3.8992 H   0  0  0  0  0  0  0  0  0  0  0  0
   -0.2004    0.5898    0.2201 H   0  0  0  0  0  0  0  0  0  0  0  0
   -3.1353    1.9735    0.0412 H   0  0  0  0  0  0  0  0  0  0  0  0
   -1.5594    2.7777   -0.0527 H   0  0  0  0  0  0  0  0  0  0  0  0
   -2.0449    1.9407    1.4371 H   0  0  0  0  0  0  0  0  0  0  0  0
   -3.1515   -2.3499    1.3107 H   0  0  0  0  0  0  0  0  0  0  0  0
    2.1299    1.3472   -0.6231 S   0  0  0  0  0  0  0  0  0  0  0  0
    1.0444    0.5627    0.6104 C   0  0  0  0  0  0  0  0  0  0  0  0
    1.7251   -0.6219    1.2054 C   0  0  0  0  0  0  0  0  0  0  0  0
    1.2313   -2.1435    1.0558 S   0  0  0  0  0  0  0  0  0  0  0  0
    2.1721    0.3002   -1.4582 H   0  0  0  0  0  0  0  0  0  0  0  0
    0.8929    1.3310    1.3724 H   0  0  0  0  0  0  0  0  0  0  0  0
    2.6391   -0.3887    1.7527 H   0  0  0  0  0  0  0  0  0  0  0  0
  1  2  3  0
  1  7  1  0
  2  3  1  0
  3  4  1  0
  3  5  1  0
  4  9  1  0
  4 10  1  0
  4 11  1  0
  5  6  3  0
  6 12  1  0
  8 14  1  0
 13 14  1  0
 13 17  1  0
 14 15  1  0
 14 18  1  0
 15 16  2  0
 15 19  1  0
M  RAD  1   3   2
M  END
>  <reaction>  (6) 
rxn_1421

>  <mol_properties>  (6) 
{"1": {"label": "*4", "atom_type": "Ct"}, "2": {"label": "*3", "atom_type": "Cs"}, "7": {"label": "*2", "atom_type": "H0"}, "13": {"label": "*1", "atom_type": "Cs"}, "14": {"label": "*0", "atom_type": "CS"}}

>  <type>  (6) 
unop_2

>  <geom_source>  (6) 
Heuristics

$$$$

     RDKit          3D

 19 17  0  0  0  0  0  0  0  0999 V2000
   -1.5720   -0.1919   -2.7787 C   0  0  0  0  0  0  0  0  0  0  0  0
   -1.5720   -0.1919   -1.5825 C   0  0  0  0  0  0  0  0  0  0  0  0
   -1.5720   -0.1518   -0.1160 C   0  0  0  0  0  3  0  0  0  0  0  0
   -2.2100    1.1474    0.4060 C   0  0  0  0  0  0  0  0  0  0  0  0
   -2.2338   -1.3330    0.4488 C   0  0  0  0  0  0  0  0  0  0  0  0
   -2.7821   -2.2783    0.9353 C   0  0  0  0  0  0  0  0  0  0  0  0
   -1.5720   -0.1919   -3.8421 H   0  0  0  0  0  0  0  0  0  0  0  0
   -0.3184   -0.1791    0.2772 H   0  0  0  0  0  0  0  0  0  0  0  0
   -3.2533    1.2047    0.0983 H   0  0  0  0  0  0  0  0  0  0  0  0
   -1.6774    2.0088    0.0044 H   0  0  0  0  0  0  0  0  0  0  0  0
   -2.1628    1.1718    1.4942 H   0  0  0  0  0  0  0  0  0  0  0  0
   -3.2695   -3.1187    1.3678 H   0  0  0  0  0  0  0  0  0  0  0  0
    1.1331    0.6818    2.2437 S   0  0  0  0  0  0  0  0  0  0  0  0
    0.9264   -0.2061    0.6675 C   0  0  0  0  0  0  0  0  0  0  0  0
    2.1999   -0.1712   -0.1056 C   0  0  0  0  0  0  0  0  0  0  0  0
    2.4010    0.5581   -1.5230 S   0  0  0  0  0  0  0  0  0  0  0  0
    1.3751    1.8813    1.6977 H   0  0  0  0  0  0  0  0  0  0  0  0
    0.6916   -1.2328    0.9584 H   0  0  0  0  0  0  0  0  0  0  0  0
    3.0376   -0.6702    0.3830 H   0  0  0  0  0  0  0  0  0  0  0  0
  1  2  3  0
  1  7  1  0
  2  3  1  0
  3  4  1  0
  3  5  1  0
  4  9  1  0
  4 10  1  0
  4 11  1  0
  5  6  3  0
  6 12  1  0
  8 14  1  0
 13 14  1  0
 13 17  1  0
 14 15  1  0
 14 18  1  0
 15 16  2  0
 15 19  1  0
M  RAD  1   3   2
M  END
>  <reaction>  (7) 
rxn_1421

>  <mol_properties>  (7) 
{"1": {"label": "*4", "atom_type": "Ct"}, "2": {"label": "*3", "atom_type": "Cs"}, "7": {"label": "*2", "atom_type": "H0"}, "13": {"label": "*1", "atom_type": "Cs"}, "14": {"label": "*0", "atom_type": "CS"}}

>  <type>  (7) 
unop_3

>  <geom_source>  (7) 
Heuristics

$$$$

     RDKit          3D

 19 17  0  0  0  0  0  0  0  0999 V2000
   -0.8670    0.4771   -3.2666 C   0  0  0  0  0  0  0  0  0  0  0  0
   -0.8670    0.4771   -2.0705 C   0  0  0  0  0  0  0  0  0  0  0  0
   -0.8670    0.5171   -0.6039 C   0  0  0  0  0  3  0  0  0  0  0  0
   -1.5050    1.8163   -0.0819 C   0  0  0  0  0  0  0  0  0  0  0  0
   -1.5288   -0.6641   -0.0391 C   0  0  0  0  0  0  0  0  0  0  0  0
   -2.0770   -1.6094    0.4474 C   0  0  0  0  0  0  0  0  0  0  0  0
   -0.8670    0.4771   -4.3301 H   0  0  0  0  0  0  0  0  0  0  0  0
    0.3866    0.4899   -0.2108 H   0  0  0  0  0  0  0  0  0  0  0  0
   -2.5483    1.8736   -0.3897 H   0  0  0  0  0  0  0  0  0  0  0  0
   -0.9724    2.6778   -0.4836 H   0  0  0  0  0  0  0  0  0  0  0  0
   -1.4578    1.8408    1.0063 H   0  0  0  0  0  0  0  0  0  0  0  0
   -2.5645   -2.4498    0.8799 H   0  0  0  0  0  0  0  0  0  0  0  0
    2.4609   -1.0522   -0.3967 S   0  0  0  0  0  0  0  0  0  0  0  0
    1.6315    0.4628    0.1796 C   0  0  0  0  0  0  0  0  0  0  0  0
    1.0635    0.2445    1.5399 C   0  0  0  0  0  0  0  0  0  0  0  0
   -0.5013    0.2695    1.9031 S   0  0  0  0  0  0  0  0  0  0  0  0
    1.3608   -1.8170   -0.4111 H   0  0  0  0  0  0  0  0  0  0  0  0
    2.4248    1.2130    0.2197 H   0  0  0  0  0  0  0  0  0  0  0  0
    1.8060    0.0284    2.3090 H   0  0  0  0  0  0  0  0  0  0  0  0
  1  2  3  0
  1  7  1  0
  2  3  1  0
  3  4  1  0
  3  5  1  0
  4  9  1  0
  4 10  1  0
  4 11  1  0
  5  6  3  0
  6 12  1  0
  8 14  1  0
 13 14  1  0
 13 17  1  0
 14 15  1  0
 14 18  1  0
 15 16  2  0
 15 19  1  0
M  RAD  1   3   2
M  END
>  <reaction>  (8) 
rxn_1421

>  <mol_properties>  (8) 
{"1": {"label": "*4", "atom_type": "Ct"}, "2": {"label": "*3", "atom_type": "Cs"}, "7": {"label": "*2", "atom_type": "H0"}, "13": {"label": "*1", "atom_type": "Cs"}, "14": {"label": "*0", "atom_type": "CS"}}

>  <type>  (8) 
unop_4

>  <geom_source>  (8) 
Heuristics

$$$$

     RDKit          3D

 19 17  0  0  0  0  0  0  0  0999 V2000
   -1.2693   -0.4129   -2.9831 C   0  0  0  0  0  0  0  0  0  0  0  0
   -1.2693   -0.4129   -1.7869 C   0  0  0  0  0  0  0  0  0  0  0  0
   -1.2693   -0.3728   -0.3204 C   0  0  0  0  0  3  0  0  0  0  0  0
   -1.9073    0.9264    0.2016 C   0  0  0  0  0  0  0  0  0  0  0  0
   -1.9311   -1.5541    0.2444 C   0  0  0  0  0  0  0  0  0  0  0  0
   -2.4793   -2.4994    0.7309 C   0  0  0  0  0  0  0  0  0  0  0  0
   -1.2693   -0.4129   -4.0465 H   0  0  0  0  0  0  0  0  0  0  0  0
   -0.0157   -0.4001    0.0728 H   0  0  0  0  0  0  0  0  0  0  0  0
   -2.9505    0.9836   -0.1061 H   0  0  0  0  0  0  0  0  0  0  0  0
   -1.3747    1.7878   -0.2000 H   0  0  0  0  0  0  0  0  0  0  0  0
   -1.8601    0.9508    1.2898 H   0  0  0  0  0  0  0  0  0  0  0  0
   -2.9668   -3.3398    1.1634 H   0  0  0  0  0  0  0  0  0  0  0  0
    1.3421   -0.3809    2.2799 S   0  0  0  0  0  0  0  0  0  0  0  0
    1.2292   -0.4271    0.4631 C   0  0  0  0  0  0  0  0  0  0  0  0
    2.0149    0.6952   -0.1231 C   0  0  0  0  0  0  0  0  0  0  0  0
    1.3964    1.9151   -0.9662 S   0  0  0  0  0  0  0  0  0  0  0  0
    0.7387    0.8064    2.4272 H   0  0  0  0  0  0  0  0  0  0  0  0
    1.6756   -1.3844    0.1837 H   0  0  0  0  0  0  0  0  0  0  0  0
    3.0843    0.6545    0.0868 H   0  0  0  0  0  0  0  0  0  0  0  0
  1  2  3  0
  1  7  1  0
  2  3  1  0
  3  4  1  0
  3  5  1  0
  4  9  1  0
  4 10  1  0
  4 11  1  0
  5  6  3  0
  6 12  1  0
  8 14  1  0
 13 14  1  0
 13 17  1  0
 14 15  1  0
 14 18  1  0
 15 16  2  0
 15 19  1  0
M  RAD  1   3   2
M  END
>  <reaction>  (9) 
rxn_1421

>  <mol_properties>  (9) 
{"1": {"label": "*4", "atom_type": "Ct"}, "2": {"label": "*3", "atom_type": "Cs"}, "7": {"label": "*2", "atom_type": "H0"}, "13": {"label": "*1", "atom_type": "Cs"}, "14": {"label": "*0", "atom_type": "CS"}}

>  <type>  (9) 
unop_5

>  <geom_source>  (9) 
Heuristics

$$$$

     RDKit          3D

 19 17  0  0  0  0  0  0  0  0999 V2000
   -0.7844    0.2566   -3.3395 C   0  0  0  0  0  0  0  0  0  0  0  0
   -0.7844    0.2566   -2.1433 C   0  0  0  0  0  0  0  0  0  0  0  0
   -0.7844    0.2967   -0.6768 C   0  0  0  0  0  3  0  0  0  0  0  0
   -1.4224    1.5959   -0.1548 C   0  0  0  0  0  0  0  0  0  0  0  0
   -1.4462   -0.8846   -0.1120 C   0  0  0  0  0  0  0  0  0  0  0  0
   -1.9945   -1.8298    0.3745 C   0  0  0  0  0  0  0  0  0  0  0  0
   -0.7844    0.2566   -4.4029 H   0  0  0  0  0  0  0  0  0  0  0  0
    0.4692    0.2694   -0.2836 H   0  0  0  0  0  0  0  0  0  0  0  0
   -2.4657    1.6532   -0.4625 H   0  0  0  0  0  0  0  0  0  0  0  0
   -0.8898    2.4573   -0.5564 H   0  0  0  0  0  0  0  0  0  0  0  0
   -1.3752    1.6203    0.9335 H   0  0  0  0  0  0  0  0  0  0  0  0
   -2.4819   -2.6703    0.8070 H   0  0  0  0  0  0  0  0  0  0  0  0
    2.2829   -1.4704    0.3477 S   0  0  0  0  0  0  0  0  0  0  0  0
    1.7140    0.2424    0.1068 C   0  0  0  0  0  0  0  0  0  0  0  0
    1.0215    0.7249    1.3349 C   0  0  0  0  0  0  0  0  0  0  0  0
   -0.5324    1.1234    1.4236 S   0  0  0  0  0  0  0  0  0  0  0  0
    1.0626   -2.0032    0.4977 H   0  0  0  0  0  0  0  0  0  0  0  0
    2.6292    0.8159   -0.0584 H   0  0  0  0  0  0  0  0  0  0  0  0
    1.6547    0.7680    2.2218 H   0  0  0  0  0  0  0  0  0  0  0  0
  1  2  3  0
  1  7  1  0
  2  3  1  0
  3  4  1  0
  3  5  1  0
  4  9  1  0
  4 10  1  0
  4 11  1  0
  5  6  3  0
  6 12  1  0
  8 14  1  0
 13 14  1  0
 13 17  1  0
 14 15  1  0
 14 18  1  0
 15 16  2  0
 15 19  1  0
M  RAD  1   3   2
M  END
>  <reaction>  (10) 
rxn_1421

>  <mol_properties>  (10) 
{"1": {"label": "*4", "atom_type": "Ct"}, "2": {"label": "*3", "atom_type": "Cs"}, "7": {"label": "*2", "atom_type": "H0"}, "13": {"label": "*1", "atom_type": "Cs"}, "14": {"label": "*0", "atom_type": "CS"}}

>  <type>  (10) 
unop_6

>  <geom_source>  (10) 
Heuristics

$$$$

     RDKit          3D

 19 17  0  0  0  0  0  0  0  0999 V2000
   -0.7861   -0.0029   -3.3412 C   0  0  0  0  0  3  0  0  0  0  0  0
   -0.7861   -0.0029   -2.1450 C   0  0  0  0  0  0  0  0  0  0  0  0
   -0.7861    0.0372   -0.6785 C   0  0  0  0  0  3  0  0  0  0  0  0
   -1.4241    1.3364   -0.1565 C   0  0  0  0  0  0  0  0  0  0  0  0
   -1.4480   -1.1441   -0.1137 C   0  0  0  0  0  0  0  0  0  0  0  0
   -1.9962   -2.0894    0.3728 C   0  0  0  0  0  0  0  0  0  0  0  0
   -0.7861   -0.0029   -4.4046 H   0  0  0  0  0  0  0  0  0  0  0  0
    0.4675    0.0099   -0.2853 H   0  0  0  0  0  0  0  0  0  0  0  0
   -2.4674    1.3936   -0.4642 H   0  0  0  0  0  0  0  0  0  0  0  0
   -0.8915    2.1978   -0.5581 H   0  0  0  0  0  0  0  0  0  0  0  0
   -1.3770    1.3608    0.9318 H   0  0  0  0  0  0  0  0  0  0  0  0
   -2.4836   -2.9298    0.8053 H   0  0  0  0  0  0  0  0  0  0  0  0
    2.0343   -1.4724    1.1509 S   0  0  0  0  0  0  0  0  0  0  0  0
    1.7123   -0.0171    0.1051 C   0  0  0  0  0  0  0  0  0  0  0  0
    1.1494    1.0876    0.9318 C   0  0  0  0  0  3  0  0  0  0  0  0
   -0.3245    1.7057    0.7683 S   0  0  0  0  0  0  0  0  0  0  0  0
    0.7566   -1.6823    1.4955 H   0  0  0  0  0  0  0  0  0  0  0  0
    2.6938    0.2662   -0.2825 H   0  0  0  0  0  0  0  0  0  0  0  0
    1.8185    1.4527    1.7118 H   0  0  0  0  0  0  0  0  0  0  0  0
  1  2  2  0
  1  7  1  0
  2  3  2  0
  3  5  1  0
  4 16  1  0
  4  9  1  0
  4 10  1  0
  4 11  1  0
  5  6  3  0
  6 12  1  0
  8 14  1  0
 13 14  1  0
 13 17  1  0
 14 15  1  0
 14 18  1  0
 15 16  1  0
 15 19  1  0
M  CHG  2   1   1   3  -1
M  RAD  1  15   2
M  END
>  <reaction>  (11) 
rxn_1421

>  <mol_properties>  (11) 
{"1": {"label": "*4", "atom_type": "Ct"}, "2": {"label": "*3", "atom_type": "Cs"}, "7": {"label": "*2", "atom_type": "H0"}, "13": {"label": "*1", "atom_type": "Cs"}, "14": {"label": "*0", "atom_type": "CS"}}

>  <type>  (11) 
unop_7

>  <geom_source>  (11) 
Heuristics

$$$$

     RDKit          3D

 19 17  0  0  0  0  0  0  0  0999 V2000
   -1.6484    0.2414   -2.7310 C   0  0  0  0  0  0  0  0  0  0  0  0
   -1.6484    0.2414   -1.5349 C   0  0  0  0  0  0  0  0  0  0  0  0
   -1.6484    0.2815   -0.0683 C   0  0  0  0  0  3  0  0  0  0  0  0
   -2.2864    1.5807    0.4537 C   0  0  0  0  0  0  0  0  0  0  0  0
   -2.3102   -0.8998    0.4964 C   0  0  0  0  0  0  0  0  0  0  0  0
   -2.8584   -1.8451    0.9829 C   0  0  0  0  0  0  0  0  0  0  0  0
   -1.6484    0.2414   -3.7945 H   0  0  0  0  0  0  0  0  0  0  0  0
   -0.3948    0.2542    0.3248 H   0  0  0  0  0  0  0  0  0  0  0  0
   -3.3296    1.6379    0.1459 H   0  0  0  0  0  0  0  0  0  0  0  0
   -1.7538    2.4421    0.0520 H   0  0  0  0  0  0  0  0  0  0  0  0
   -2.2392    1.6051    1.5419 H   0  0  0  0  0  0  0  0  0  0  0  0
   -3.3459   -2.6855    1.4154 H   0  0  0  0  0  0  0  0  0  0  0  0
    1.5219    1.9130    0.8633 S   0  0  0  0  0  0  0  0  0  0  0  0
    0.8501    0.2272    0.7152 C   0  0  0  0  0  0  0  0  0  0  0  0
    1.9641   -0.7620    0.6802 C   0  0  0  0  0  0  0  0  0  0  0  0
    2.3191   -1.7105   -0.5671 S   0  0  0  0  0  0  0  0  0  0  0  0
    2.1732    1.9073   -0.3077 H   0  0  0  0  0  0  0  0  0  0  0  0
    0.2526    0.0883    1.6194 H   0  0  0  0  0  0  0  0  0  0  0  0
    2.5728   -0.7874    1.5847 H   0  0  0  0  0  0  0  0  0  0  0  0
  1  2  3  0
  1  7  1  0
  2  3  1  0
  3  4  1  0
  3  5  1  0
  4  9  1  0
  4 10  1  0
  4 11  1  0
  5  6  3  0
  6 12  1  0
  8 14  1  0
 13 14  1  0
 13 17  1  0
 14 15  1  0
 14 18  1  0
 15 16  2  0
 15 19  1  0
M  RAD  1   3   2
M  END
>  <reaction>  (12) 
rxn_1421

>  <mol_properties>  (12) 
{"1": {"label": "*4", "atom_type": "Ct"}, "2": {"label": "*3", "atom_type": "Cs"}, "7": {"label": "*2", "atom_type": "H0"}, "13": {"label": "*1", "atom_type": "Cs"}, "14": {"label": "*0", "atom_type": "CS"}}

>  <type>  (12) 
unop_8

>  <geom_source>  (12) 
Heuristics

$$$$

     RDKit          3D

 19 17  0  0  0  0  0  0  0  0999 V2000
   -1.0290    0.6323   -3.1354 C   0  0  0  0  0  0  0  0  0  0  0  0
   -1.0290    0.6323   -1.9392 C   0  0  0  0  0  0  0  0  0  0  0  0
   -1.0290    0.6724   -0.4727 C   0  0  0  0  0  3  0  0  0  0  0  0
   -1.6670    1.9716    0.0493 C   0  0  0  0  0  0  0  0  0  0  0  0
   -1.6908   -0.5088    0.0921 C   0  0  0  0  0  0  0  0  0  0  0  0
   -2.2391   -1.4541    0.5786 C   0  0  0  0  0  0  0  0  0  0  0  0
   -1.0290    0.6323   -4.1988 H   0  0  0  0  0  0  0  0  0  0  0  0
    0.2246    0.6452   -0.0795 H   0  0  0  0  0  0  0  0  0  0  0  0
   -2.7103    2.0289   -0.2584 H   0  0  0  0  0  0  0  0  0  0  0  0
   -1.1344    2.8330   -0.3523 H   0  0  0  0  0  0  0  0  0  0  0  0
   -1.6198    1.9961    1.1375 H   0  0  0  0  0  0  0  0  0  0  0  0
   -2.7265   -2.2945    1.0111 H   0  0  0  0  0  0  0  0  0  0  0  0
    2.5035   -0.2968   -0.8763 S   0  0  0  0  0  0  0  0  0  0  0  0
    1.4694    0.6181    0.3108 C   0  0  0  0  0  0  0  0  0  0  0  0
    1.2535   -0.2039    1.5349 C   0  0  0  0  0  0  0  0  0  0  0  0
   -0.1671   -0.7659    2.0322 S   0  0  0  0  0  0  0  0  0  0  0  0
    1.6372   -1.3001   -1.0720 H   0  0  0  0  0  0  0  0  0  0  0  0
    2.0527    1.5092    0.5547 H   0  0  0  0  0  0  0  0  0  0  0  0
    2.1644   -0.4376    2.0873 H   0  0  0  0  0  0  0  0  0  0  0  0
  1  2  3  0
  1  7  1  0
  2  3  1  0
  3  4  1  0
  3  5  1  0
  4  9  1  0
  4 10  1  0
  4 11  1  0
  5  6  3  0
  6 12  1  0
  8 14  1  0
 13 14  1  0
 13 17  1  0
 14 15  1  0
 14 18  1  0
 15 16  2  0
 15 19  1  0
M  RAD  1   3   2
M  END
>  <reaction>  (13) 
rxn_1421

>  <mol_properties>  (13) 
{"1": {"label": "*4", "atom_type": "Ct"}, "2": {"label": "*3", "atom_type": "Cs"}, "7": {"label": "*2", "atom_type": "H0"}, "13": {"label": "*1", "atom_type": "Cs"}, "14": {"label": "*0", "atom_type": "CS"}}

>  <type>  (13) 
unop_9

>  <geom_source>  (13) 
Heuristics

$$$$

     RDKit          3D

 19 17  0  0  0  0  0  0  0  0999 V2000
   -1.5860    0.4146   -2.7600 C   0  0  0  0  0  0  0  0  0  0  0  0
   -1.5860    0.4146   -1.5638 C   0  0  0  0  0  0  0  0  0  0  0  0
   -1.5860    0.4547   -0.0973 C   0  0  0  0  0  3  0  0  0  0  0  0
   -2.2240    1.7539    0.4247 C   0  0  0  0  0  0  0  0  0  0  0  0
   -2.2478   -0.7265    0.4675 C   0  0  0  0  0  0  0  0  0  0  0  0
   -2.7961   -1.6718    0.9540 C   0  0  0  0  0  0  0  0  0  0  0  0
   -1.5860    0.4146   -3.8234 H   0  0  0  0  0  0  0  0  0  0  0  0
   -0.3324    0.4275    0.2959 H   0  0  0  0  0  0  0  0  0  0  0  0
   -3.2673    1.8112    0.1170 H   0  0  0  0  0  0  0  0  0  0  0  0
   -1.6914    2.6153    0.0231 H   0  0  0  0  0  0  0  0  0  0  0  0
   -2.1768    1.7784    1.5130 H   0  0  0  0  0  0  0  0  0  0  0  0
   -3.2835   -2.5122    1.3865 H   0  0  0  0  0  0  0  0  0  0  0  0
    1.8311    1.8287    0.0295 S   0  0  0  0  0  0  0  0  0  0  0  0
    0.9124    0.4004    0.6863 C   0  0  0  0  0  0  0  0  0  0  0  0
    1.8547   -0.7138    0.9886 C   0  0  0  0  0  0  0  0  0  0  0  0
    1.8651   -2.1413    0.2513 S   0  0  0  0  0  0  0  0  0  0  0  0
    2.2765    1.2130   -1.0740 H   0  0  0  0  0  0  0  0  0  0  0  0
    0.4558    0.7670    1.6087 H   0  0  0  0  0  0  0  0  0  0  0  0
    2.5921   -0.4840    1.7585 H   0  0  0  0  0  0  0  0  0  0  0  0
  1  2  3  0
  1  7  1  0
  2  3  1  0
  3  4  1  0
  3  5  1  0
  4  9  1  0
  4 10  1  0
  4 11  1  0
  5  6  3  0
  6 12  1  0
  8 14  1  0
 13 14  1  0
 13 17  1  0
 14 15  1  0
 14 18  1  0
 15 16  2  0
 15 19  1  0
M  RAD  1   3   2
M  END
>  <reaction>  (14) 
rxn_1421

>  <mol_properties>  (14) 
{"1": {"label": "*4", "atom_type": "Ct"}, "2": {"label": "*3", "atom_type": "Cs"}, "7": {"label": "*2", "atom_type": "H0"}, "13": {"label": "*1", "atom_type": "Cs"}, "14": {"label": "*0", "atom_type": "CS"}}

>  <type>  (14) 
unop_10

>  <geom_source>  (14) 
Heuristics

$$$$

     RDKit          3D

 19 17  0  0  0  0  0  0  0  0999 V2000
   -0.9189   -0.2821   -3.2380 C   0  0  0  0  0  0  0  0  0  0  0  0
   -0.9189   -0.2821   -2.0418 C   0  0  0  0  0  0  0  0  0  0  0  0
   -0.9189   -0.2420   -0.5753 C   0  0  0  0  0  3  0  0  0  0  0  0
   -1.5569    1.0572   -0.0533 C   0  0  0  0  0  0  0  0  0  0  0  0
   -1.5807   -1.4233   -0.0105 C   0  0  0  0  0  0  0  0  0  0  0  0
   -2.1290   -2.3686    0.4760 C   0  0  0  0  0  0  0  0  0  0  0  0
   -0.9189   -0.2821   -4.3015 H   0  0  0  0  0  0  0  0  0  0  0  0
    0.3347   -0.2693   -0.1821 H   0  0  0  0  0  0  0  0  0  0  0  0
   -2.6002    1.1144   -0.3610 H   0  0  0  0  0  0  0  0  0  0  0  0
   -1.0243    1.9186   -0.4549 H   0  0  0  0  0  0  0  0  0  0  0  0
   -1.5097    1.0816    1.0349 H   0  0  0  0  0  0  0  0  0  0  0  0
   -2.6164   -3.2090    0.9085 H   0  0  0  0  0  0  0  0  0  0  0  0
    1.7347   -1.1078    1.8309 S   0  0  0  0  0  0  0  0  0  0  0  0
    1.5795   -0.2963    0.2082 C   0  0  0  0  0  0  0  0  0  0  0  0
    1.4908    1.1806    0.3856 C   0  0  0  0  0  0  0  0  0  0  0  0
    0.2163    2.0822    0.0061 S   0  0  0  0  0  0  0  0  0  0  0  0
    0.5430   -0.7128    2.2992 H   0  0  0  0  0  0  0  0  0  0  0  0
    2.5003   -0.5568   -0.3192 H   0  0  0  0  0  0  0  0  0  0  0  0
    2.3743    1.6343    0.8362 H   0  0  0  0  0  0  0  0  0  0  0  0
  1  2  3  0
  1  7  1  0
  2  3  1  0
  3  4  1  0
  3  5  1  0
  4  9  1  0
  4 10  1  0
  4 11  1  0
  5  6  3  0
  6 12  1  0
  8 14  1  0
 13 14  1  0
 13 17  1  0
 14 15  1  0
 14 18  1  0
 15 16  2  0
 15 19  1  0
M  RAD  1   3   2
M  END
>  <reaction>  (15) 
rxn_1421

>  <mol_properties>  (15) 
{"1": {"label": "*4", "atom_type": "Ct"}, "2": {"label": "*3", "atom_type": "Cs"}, "7": {"label": "*2", "atom_type": "H0"}, "13": {"label": "*1", "atom_type": "Cs"}, "14": {"label": "*0", "atom_type": "CS"}}

>  <type>  (15) 
unop_11

>  <geom_source>  (15) 
Heuristics

$$$$

     RDKit          3D

 19 17  0  0  0  0  0  0  0  0999 V2000
   -1.2489    0.6710   -2.9728 C   0  0  0  0  0  0  0  0  0  0  0  0
   -1.2489    0.6710   -1.7766 C   0  0  0  0  0  0  0  0  0  0  0  0
   -1.2489    0.7111   -0.3101 C   0  0  0  0  0  3  0  0  0  0  0  0
   -1.8870    2.0103    0.2119 C   0  0  0  0  0  0  0  0  0  0  0  0
   -1.9108   -0.4701    0.2547 C   0  0  0  0  0  0  0  0  0  0  0  0
   -2.4590   -1.4154    0.7412 C   0  0  0  0  0  0  0  0  0  0  0  0
   -1.2489    0.6710   -4.0362 H   0  0  0  0  0  0  0  0  0  0  0  0
    0.0047    0.6839    0.0831 H   0  0  0  0  0  0  0  0  0  0  0  0
   -2.9302    2.0676   -0.0958 H   0  0  0  0  0  0  0  0  0  0  0  0
   -1.3543    2.8717   -0.1897 H   0  0  0  0  0  0  0  0  0  0  0  0
   -1.8398    2.0348    1.3002 H   0  0  0  0  0  0  0  0  0  0  0  0
   -2.9464   -2.2558    1.1737 H   0  0  0  0  0  0  0  0  0  0  0  0
    2.3773    0.5836   -0.9542 S   0  0  0  0  0  0  0  0  0  0  0  0
    1.2495    0.6568    0.4735 C   0  0  0  0  0  0  0  0  0  0  0  0
    1.5149   -0.4884    1.3893 C   0  0  0  0  0  0  0  0  0  0  0  0
    0.4781   -1.6723    1.7133 S   0  0  0  0  0  0  0  0  0  0  0  0
    1.9196   -0.5806   -1.4343 H   0  0  0  0  0  0  0  0  0  0  0  0
    1.4939    1.5991    0.9696 H   0  0  0  0  0  0  0  0  0  0  0  0
    2.5133   -0.4926    1.8280 H   0  0  0  0  0  0  0  0  0  0  0  0
  1  2  3  0
  1  7  1  0
  2  3  1  0
  3  4  1  0
  3  5  1  0
  4  9  1  0
  4 10  1  0
  4 11  1  0
  5  6  3  0
  6 12  1  0
  8 14  1  0
 13 14  1  0
 13 17  1  0
 14 15  1  0
 14 18  1  0
 15 16  2  0
 15 19  1  0
M  RAD  1   3   2
M  END
>  <reaction>  (16) 
rxn_1421

>  <mol_properties>  (16) 
{"1": {"label": "*4", "atom_type": "Ct"}, "2": {"label": "*3", "atom_type": "Cs"}, "7": {"label": "*2", "atom_type": "H0"}, "13": {"label": "*1", "atom_type": "Cs"}, "14": {"label": "*0", "atom_type": "CS"}}

>  <type>  (16) 
unop_12

>  <geom_source>  (16) 
Heuristics

$$$$

     RDKit          3D

 19 17  0  0  0  0  0  0  0  0999 V2000
    2.1618   -0.4385   -1.7408 S   0  0  0  0  0  0  0  0  0  0  0  0
    3.5014   -0.9246    1.5737 S   0  0  0  0  0  1  0  0  0  0  0  0
    1.6464   -0.1689   -0.0173 C   0  0  0  0  0  0  0  0  0  0  0  0
   -1.3191    0.7954   -1.4823 C   0  0  0  0  0  0  0  0  0  0  0  0
   -0.9253    0.2313   -0.1202 C   0  0  0  0  0  0  0  0  0  0  0  0
    2.2746   -1.1967    0.8765 C   0  0  0  0  0  0  0  0  0  0  0  0
   -1.0646    1.2526    0.9250 C   0  0  0  0  0  0  0  0  0  0  0  0
   -1.7492   -0.9361    0.2165 C   0  0  0  0  0  0  0  0  0  0  0  0
   -1.1774    2.0921    1.7832 C   0  0  0  0  0  0  0  0  0  0  0  0
   -2.4249   -1.8960    0.4922 C   0  0  0  0  0  0  0  0  0  0  0  0
    1.9100    0.8665    0.2930 H   0  0  0  0  0  0  0  0  0  0  0  0
    0.2952   -0.2988    0.0549 H   0  0  0  0  0  0  0  0  0  0  0  0
   -2.3805    1.1275   -1.4826 H   0  0  0  0  0  0  0  0  0  0  0  0
   -1.1821    0.0202   -2.2661 H   0  0  0  0  0  0  0  0  0  0  0  0
   -0.6692    1.6601   -1.7352 H   0  0  0  0  0  0  0  0  0  0  0  0
    1.9037   -2.2157    0.8436 H   0  0  0  0  0  0  0  0  0  0  0  0
    3.4940   -0.0607   -1.4847 H   0  0  0  0  0  0  0  0  0  0  0  0
   -1.2767    2.8289    2.5364 H   0  0  0  0  0  0  0  0  0  0  0  0
   -3.0181   -2.7384    0.7341 H   0  0  0  0  0  0  0  0  0  0  0  0
  1  3  1  0
  1 17  1  0
  2  6  1  0
  3  6  2  3
  3 11  1  0
  4  5  1  0
  4 13  1  0
  4 14  1  0
  4 15  1  0
  5  7  1  0
  5  8  1  0
  5 12  1  0
  6 16  1  0
  7  9  3  0
  8 10  3  0
  9 18  1  0
 10 19  1  0
M  RAD  1   2   2
M  END
>  <reaction>  (17) 
rxn_1421

>  <mol_properties>  (17) 
{"1": {"label": "*4", "atom_type": "Ct"}, "2": {"label": "*3", "atom_type": "Cs"}, "7": {"label": "*2", "atom_type": "H0"}, "13": {"label": "*1", "atom_type": "Cs"}, "14": {"label": "*0", "atom_type": "CS"}}

>  <type>  (17) 
unop_13

>  <geom_source>  (17) 
AutoTST

$$$$
