
     RDKit          3D

  8  7  0  0  0  0  0  0  0  0999 V2000
    0.7610    0.0250    0.0051 C   0  0  0  0  0  0  0  0  0  0  0  0
   -0.7610   -0.0250   -0.0051 C   0  0  0  0  0  0  0  0  0  0  0  0
    1.1904   -0.9237   -0.3217 H   0  0  0  0  0  0  0  0  0  0  0  0
    1.1359    0.8041   -0.6609 H   0  0  0  0  0  0  0  0  0  0  0  0
    1.1435    0.2336    1.0058 H   0  0  0  0  0  0  0  0  0  0  0  0
   -1.1435   -0.2336   -1.0058 H   0  0  0  0  0  0  0  0  0  0  0  0
   -1.1904    0.9237    0.3216 H   0  0  0  0  0  0  0  0  0  0  0  0
   -1.1359   -0.8041    0.6609 H   0  0  0  0  0  0  0  0  0  0  0  0
  1  2  1  0
  1  3  1  0
  1  4  1  0
  1  5  1  0
  2  6  1  0
  2  7  1  0
  2  8  1  0
M  END
>  <reaction>  (1) 
rxn_872

>  <mol_properties>  (1) 
{"1": {"label": "donator", "atom_type": "Cs"}, "5": {"label": "d_hydrogen", "atom_type": "H0"}}

>  <type>  (1) 
r1h

$$$$

     RDKit          3D

 14 13  0  0  0  0  0  0  0  0999 V2000
    1.0767   -1.6838    1.2931 C   0  0  0  0  0  0  0  0  0  0  0  0
    1.0020   -0.3665    0.9163 C   0  0  0  0  0  0  0  0  0  0  0  0
    1.3965    0.7260    1.6806 C   0  0  0  0  0  3  0  0  0  0  0  0
    1.2666    2.1197    1.1619 C   0  0  0  0  0  0  0  0  0  0  0  0
    1.9670    0.5479    3.0536 C   0  0  0  0  0  0  0  0  0  0  0  0
    0.7448   -2.4705    0.6300 H   0  0  0  0  0  0  0  0  0  0  0  0
    1.4663   -1.9826    2.2578 H   0  0  0  0  0  0  0  0  0  0  0  0
    0.5980   -0.1511   -0.0695 H   0  0  0  0  0  0  0  0  0  0  0  0
    0.6296    2.7241    1.8172 H   0  0  0  0  0  0  0  0  0  0  0  0
    2.2410    2.6200    1.1341 H   0  0  0  0  0  0  0  0  0  0  0  0
    0.8426    2.1448    0.1579 H   0  0  0  0  0  0  0  0  0  0  0  0
    2.8745   -0.0634    3.0328 H   0  0  0  0  0  0  0  0  0  0  0  0
    1.2599    0.0408    3.7173 H   0  0  0  0  0  0  0  0  0  0  0  0
    2.2205    1.5071    3.5054 H   0  0  0  0  0  0  0  0  0  0  0  0
  1  2  2  3
  1  6  1  0
  1  7  1  0
  2  3  1  0
  2  8  1  0
  3  4  1  0
  3  5  1  0
  4  9  1  0
  4 10  1  0
  4 11  1  0
  5 12  1  0
  5 13  1  0
  5 14  1  0
M  RAD  1   3   2
M  END
>  <reaction>  (2) 
rxn_872

>  <mol_properties>  (2) 
{"2": {"label": "acceptor", "atom_type": "Cs"}}

>  <type>  (2) 
r2

$$$$

     RDKit          3D

 15 14  0  0  0  0  0  0  0  0999 V2000
    2.1256    0.4849   -0.6284 C   0  0  0  0  0  0  0  0  0  0  0  0
    1.1128    0.2141    0.1794 C   0  0  0  0  0  0  0  0  0  0  0  0
   -0.3017   -0.0425   -0.2513 C   0  0  0  0  0  0  0  0  0  0  0  0
   -1.2427    1.0075    0.3423 C   0  0  0  0  0  0  0  0  0  0  0  0
   -0.7381   -1.4526    0.1504 C   0  0  0  0  0  0  0  0  0  0  0  0
    3.1243    0.6602   -0.2486 H   0  0  0  0  0  0  0  0  0  0  0  0
    1.9908    0.5411   -1.7036 H   0  0  0  0  0  0  0  0  0  0  0  0
    1.2888    0.1665    1.2533 H   0  0  0  0  0  0  0  0  0  0  0  0
   -0.3426    0.0343   -1.3424 H   0  0  0  0  0  0  0  0  0  0  0  0
   -0.9570    2.0133    0.0315 H   0  0  0  0  0  0  0  0  0  0  0  0
   -1.2189    0.9728    1.4350 H   0  0  0  0  0  0  0  0  0  0  0  0
   -2.2723    0.8287    0.0254 H   0  0  0  0  0  0  0  0  0  0  0  0
   -0.6964   -1.5744    1.2363 H   0  0  0  0  0  0  0  0  0  0  0  0
   -0.0911   -2.2079   -0.2978 H   0  0  0  0  0  0  0  0  0  0  0  0
   -1.7646   -1.6461   -0.1677 H   0  0  0  0  0  0  0  0  0  0  0  0
  1  2  2  3
  1  6  1  0
  1  7  1  0
  2  3  1  0
  2  8  1  0
  3  4  1  0
  3  5  1  0
  3  9  1  0
  4 10  1  0
  4 11  1  0
  4 12  1  0
  5 13  1  0
  5 14  1  0
  5 15  1  0
M  END
>  <reaction>  (3) 
rxn_872

>  <mol_properties>  (3) 
{"2": {"label": "acceptor", "atom_type": "Cs"}, "14": {"label": "a_hydrogen", "atom_type": "H0"}}

>  <type>  (3) 
r2h

$$$$

     RDKit          3D

 22 20  0  0  0  0  0  0  0  0999 V2000
   -1.8379    1.4004   -0.2620 C   0  0  0  0  0  0  0  0  0  0  0  0
   -1.2353    0.5326    0.5481 C   0  0  0  0  0  0  0  0  0  0  0  0
    0.2150    0.3007    0.6825 C   0  0  0  0  0  0  0  0  0  0  0  0
    0.6574    0.0183    2.1061 C   0  0  0  0  0  0  0  0  0  0  0  0
    1.1184    1.2667   -0.0511 C   0  0  0  0  0  0  0  0  0  0  0  0
   -2.9175    1.4686   -0.3014 H   0  0  0  0  0  0  0  0  0  0  0  0
   -1.2828    2.0739   -0.9036 H   0  0  0  0  0  0  0  0  0  0  0  0
   -1.8602   -0.1052    1.1702 H   0  0  0  0  0  0  0  0  0  0  0  0
    1.6854   -0.3498    2.1271 H   0  0  0  0  0  0  0  0  0  0  0  0
    0.6138    0.9247    2.7181 H   0  0  0  0  0  0  0  0  0  0  0  0
    0.0201   -0.7329    2.5771 H   0  0  0  0  0  0  0  0  0  0  0  0
    1.0338    2.2774    0.3607 H   0  0  0  0  0  0  0  0  0  0  0  0
    0.8749    1.3176   -1.1138 H   0  0  0  0  0  0  0  0  0  0  0  0
    2.1606    0.9546    0.0376 H   0  0  0  0  0  0  0  0  0  0  0  0
    0.1640   -1.6808   -2.0435 C   0  0  0  0  0  0  0  0  0  0  0  0
    0.6719   -2.0063   -0.6707 C   0  0  0  0  0  3  0  0  0  0  0  0
   -0.8747   -1.3448   -2.0080 H   0  0  0  0  0  0  0  0  0  0  0  0
    0.7548   -0.8887   -2.5072 H   0  0  0  0  0  0  0  0  0  0  0  0
    0.2050   -2.5504   -2.7089 H   0  0  0  0  0  0  0  0  0  0  0  0
    0.4085   -0.8020    0.0936 H   0  0  0  0  0  0  0  0  0  0  0  0
    1.7465   -2.1365   -0.5686 H   0  0  0  0  0  0  0  0  0  0  0  0
    0.1009   -2.7431   -0.1107 H   0  0  0  0  0  0  0  0  0  0  0  0
  1  2  2  3
  1  6  1  0
  1  7  1  0
  2  3  1  0
  2  8  1  0
  3  4  1  0
  3  5  1  0
  3 20  1  0
  4  9  1  0
  4 10  1  0
  4 11  1  0
  5 12  1  0
  5 13  1  0
  5 14  1  0
 15 16  1  0
 15 17  1  0
 15 18  1  0
 15 19  1  0
 16 21  1  0
 16 22  1  0
M  RAD  1  16   2
M  END
>  <reaction>  (4) 
rxn_872

>  <mol_properties>  (4) 
{"1": {"label": "*0", "atom_type": "Cd"}, "2": {"label": "*1", "atom_type": "Cs"}, "14": {"label": "*4", "atom_type": "Cs"}, "15": {"label": "*3", "atom_type": "Cs"}, "19": {"label": "*2", "atom_type": "H0"}}

>  <type>  (4) 
ts

$$$$

     RDKit          3D

 22 20  0  0  0  0  0  0  0  0999 V2000
   -2.1692    0.3385    0.8274 C   0  0  0  0  0  0  0  0  0  0  0  0
   -0.9754    0.8354    1.1094 C   0  0  0  0  0  0  0  0  0  0  0  0
    0.2606    0.6615    0.2760 C   0  0  0  0  0  3  0  0  0  0  0  0
    1.3425   -0.0759    1.0672 C   0  0  0  0  0  0  0  0  0  0  0  0
    0.7737    2.0173   -0.2129 C   0  0  0  0  0  0  0  0  0  0  0  0
   -3.0209    0.5033    1.4754 H   0  0  0  0  0  0  0  0  0  0  0  0
   -2.3376   -0.2537   -0.0661 H   0  0  0  0  0  0  0  0  0  0  0  0
   -0.8468    1.4249    2.0162 H   0  0  0  0  0  0  0  0  0  0  0  0
    2.2412   -0.2109    0.4619 H   0  0  0  0  0  0  0  0  0  0  0  0
    1.6226    0.4919    1.9588 H   0  0  0  0  0  0  0  0  0  0  0  0
    0.9943   -1.0581    1.3897 H   0  0  0  0  0  0  0  0  0  0  0  0
    1.0337    2.6591    0.6333 H   0  0  0  0  0  0  0  0  0  0  0  0
    0.0183    2.5335   -0.8069 H   0  0  0  0  0  0  0  0  0  0  0  0
    1.6690    1.8947   -0.8259 H   0  0  0  0  0  0  0  0  0  0  0  0
    0.2606   -1.7830   -2.1981 C   0  0  0  0  0  0  0  0  0  0  0  0
    0.2606   -1.7830   -0.6754 C   0  0  0  0  0  0  0  0  0  0  0  0
   -0.6203   -1.2744   -2.5940 H   0  0  0  0  0  0  0  0  0  0  0  0
    1.1414   -1.2744   -2.5940 H   0  0  0  0  0  0  0  0  0  0  0  0
    0.2606   -2.8001   -2.5940 H   0  0  0  0  0  0  0  0  0  0  0  0
    0.2606   -0.5624   -0.2003 H   0  0  0  0  0  0  0  0  0  0  0  0
    1.1414   -2.2915   -0.2795 H   0  0  0  0  0  0  0  0  0  0  0  0
   -0.6203   -2.2915   -0.2795 H   0  0  0  0  0  0  0  0  0  0  0  0
  1  2  2  3
  1  6  1  0
  1  7  1  0
  2  3  1  0
  2  8  1  0
  3  4  1  0
  3  5  1  0
  4  9  1  0
  4 10  1  0
  4 11  1  0
  5 12  1  0
  5 13  1  0
  5 14  1  0
 15 16  1  0
 15 17  1  0
 15 18  1  0
 15 19  1  0
 16 20  1  0
 16 21  1  0
 16 22  1  0
M  RAD  1   3   2
M  END
>  <reaction>  (5) 
rxn_872

>  <mol_properties>  (5) 
{"1": {"label": "*0", "atom_type": "Cd"}, "2": {"label": "*1", "atom_type": "Cs"}, "14": {"label": "*4", "atom_type": "Cs"}, "15": {"label": "*3", "atom_type": "Cs"}, "19": {"label": "*2", "atom_type": "H0"}}

>  <type>  (5) 
unop_1

>  <geom_source>  (5) 
Heuristics

$$$$

     RDKit          3D

 22 20  0  0  0  0  0  0  0  0999 V2000
   -0.7669    1.0692   -1.5465 C   0  0  0  0  0  0  0  0  0  0  0  0
   -0.5351    1.3638   -0.2773 C   0  0  0  0  0  0  0  0  0  0  0  0
    0.1785    0.4830    0.7061 C   0  0  0  0  0  3  0  0  0  0  0  0
   -0.7477    0.1126    1.8660 C   0  0  0  0  0  0  0  0  0  0  0  0
    1.4458    1.1685    1.2202 C   0  0  0  0  0  0  0  0  0  0  0  0
   -1.2897    1.7539   -2.2026 H   0  0  0  0  0  0  0  0  0  0  0  0
   -0.4404    0.1280   -1.9764 H   0  0  0  0  0  0  0  0  0  0  0  0
   -0.8789    2.3193    0.1169 H   0  0  0  0  0  0  0  0  0  0  0  0
   -0.2345   -0.5345    2.5804 H   0  0  0  0  0  0  0  0  0  0  0  0
   -1.0728    1.0090    2.4011 H   0  0  0  0  0  0  0  0  0  0  0  0
   -1.6377   -0.4073    1.5089 H   0  0  0  0  0  0  0  0  0  0  0  0
    1.1983    2.1023    1.7325 H   0  0  0  0  0  0  0  0  0  0  0  0
    2.1261    1.4046    0.4008 H   0  0  0  0  0  0  0  0  0  0  0  0
    1.9721    0.5277    1.9308 H   0  0  0  0  0  0  0  0  0  0  0  0
    0.1785   -1.9615   -1.7680 C   0  0  0  0  0  0  0  0  0  0  0  0
    0.1785   -1.9615   -0.2452 C   0  0  0  0  0  0  0  0  0  0  0  0
   -0.7023   -1.4530   -2.1639 H   0  0  0  0  0  0  0  0  0  0  0  0
    1.0594   -1.4530   -2.1639 H   0  0  0  0  0  0  0  0  0  0  0  0
    0.1785   -2.9787   -2.1639 H   0  0  0  0  0  0  0  0  0  0  0  0
    0.1785   -0.7410    0.2298 H   0  0  0  0  0  0  0  0  0  0  0  0
    1.0594   -2.4701    0.1506 H   0  0  0  0  0  0  0  0  0  0  0  0
   -0.7023   -2.4701    0.1506 H   0  0  0  0  0  0  0  0  0  0  0  0
  1  2  2  3
  1  6  1  0
  1  7  1  0
  2  3  1  0
  2  8  1  0
  3  4  1  0
  3  5  1  0
  4  9  1  0
  4 10  1  0
  4 11  1  0
  5 12  1  0
  5 13  1  0
  5 14  1  0
 15 16  1  0
 15 17  1  0
 15 18  1  0
 15 19  1  0
 16 20  1  0
 16 21  1  0
 16 22  1  0
M  RAD  1   3   2
M  END
>  <reaction>  (6) 
rxn_872

>  <mol_properties>  (6) 
{"1": {"label": "*0", "atom_type": "Cd"}, "2": {"label": "*1", "atom_type": "Cs"}, "14": {"label": "*4", "atom_type": "Cs"}, "15": {"label": "*3", "atom_type": "Cs"}, "19": {"label": "*2", "atom_type": "H0"}}

>  <type>  (6) 
unop_2

>  <geom_source>  (6) 
Heuristics

$$$$

     RDKit          3D

 22 20  0  0  0  0  0  0  0  0999 V2000
   -1.5160   -0.1885    1.8611 C   0  0  0  0  0  0  0  0  0  0  0  0
   -0.5784    0.6746    1.5039 C   0  0  0  0  0  0  0  0  0  0  0  0
    0.1352    0.6902    0.1838 C   0  0  0  0  0  3  0  0  0  0  0  0
    1.6363    0.4720    0.3820 C   0  0  0  0  0  0  0  0  0  0  0  0
   -0.1302    2.0035   -0.5547 C   0  0  0  0  0  0  0  0  0  0  0  0
   -1.9909   -0.1417    2.8331 H   0  0  0  0  0  0  0  0  0  0  0  0
   -1.8434   -0.9761    1.1905 H   0  0  0  0  0  0  0  0  0  0  0  0
   -0.2771    1.4513    2.2057 H   0  0  0  0  0  0  0  0  0  0  0  0
    2.1585    0.4753   -0.5770 H   0  0  0  0  0  0  0  0  0  0  0  0
    2.0637    1.2681    0.9977 H   0  0  0  0  0  0  0  0  0  0  0  0
    1.8340   -0.4794    0.8778 H   0  0  0  0  0  0  0  0  0  0  0  0
    0.2347    2.8539    0.0279 H   0  0  0  0  0  0  0  0  0  0  0  0
   -1.1971    2.1486   -0.7294 H   0  0  0  0  0  0  0  0  0  0  0  0
    0.3815    2.0160   -1.5193 H   0  0  0  0  0  0  0  0  0  0  0  0
    0.1352   -1.7543   -2.2904 C   0  0  0  0  0  0  0  0  0  0  0  0
    0.1352   -1.7543   -0.7676 C   0  0  0  0  0  0  0  0  0  0  0  0
   -0.7457   -1.2457   -2.6862 H   0  0  0  0  0  0  0  0  0  0  0  0
    1.0160   -1.2457   -2.6862 H   0  0  0  0  0  0  0  0  0  0  0  0
    0.1352   -2.7714   -2.6862 H   0  0  0  0  0  0  0  0  0  0  0  0
    0.1352   -0.5337   -0.2926 H   0  0  0  0  0  0  0  0  0  0  0  0
    1.0160   -2.2628   -0.3718 H   0  0  0  0  0  0  0  0  0  0  0  0
   -0.7457   -2.2628   -0.3718 H   0  0  0  0  0  0  0  0  0  0  0  0
  1  2  2  3
  1  6  1  0
  1  7  1  0
  2  3  1  0
  2  8  1  0
  3  4  1  0
  3  5  1  0
  4  9  1  0
  4 10  1  0
  4 11  1  0
  5 12  1  0
  5 13  1  0
  5 14  1  0
 15 16  1  0
 15 17  1  0
 15 18  1  0
 15 19  1  0
 16 20  1  0
 16 21  1  0
 16 22  1  0
M  RAD  1   3   2
M  END
>  <reaction>  (7) 
rxn_872

>  <mol_properties>  (7) 
{"1": {"label": "*0", "atom_type": "Cd"}, "2": {"label": "*1", "atom_type": "Cs"}, "14": {"label": "*4", "atom_type": "Cs"}, "15": {"label": "*3", "atom_type": "Cs"}, "19": {"label": "*2", "atom_type": "H0"}}

>  <type>  (7) 
unop_3

>  <geom_source>  (7) 
Heuristics

$$$$

     RDKit          3D

 22 20  0  0  0  0  0  0  0  0999 V2000
    1.5348    1.0006   -1.0744 C   0  0  0  0  0  0  0  0  0  0  0  0
    0.9387    1.2296    0.0848 C   0  0  0  0  0  0  0  0  0  0  0  0
   -0.2972    0.5382    0.5814 C   0  0  0  0  0  3  0  0  0  0  0  0
   -1.4290    1.5459    0.7910 C   0  0  0  0  0  0  0  0  0  0  0  0
   -0.0030   -0.2251    1.8741 C   0  0  0  0  0  0  0  0  0  0  0  0
    2.4271    1.5379   -1.3706 H   0  0  0  0  0  0  0  0  0  0  0  0
    1.1495    0.2639   -1.7716 H   0  0  0  0  0  0  0  0  0  0  0  0
    1.3565    1.9774    0.7576 H   0  0  0  0  0  0  0  0  0  0  0  0
   -2.3327    1.0458    1.1454 H   0  0  0  0  0  0  0  0  0  0  0  0
   -1.1464    2.2934    1.5374 H   0  0  0  0  0  0  0  0  0  0  0  0
   -1.6669    2.0696   -0.1360 H   0  0  0  0  0  0  0  0  0  0  0  0
    0.3301    0.4596    2.6589 H   0  0  0  0  0  0  0  0  0  0  0  0
    0.7801   -0.9694    1.7226 H   0  0  0  0  0  0  0  0  0  0  0  0
   -0.8981   -0.7358    2.2351 H   0  0  0  0  0  0  0  0  0  0  0  0
   -0.2972   -1.9063   -1.8928 C   0  0  0  0  0  0  0  0  0  0  0  0
   -0.2972   -1.9063   -0.3700 C   0  0  0  0  0  0  0  0  0  0  0  0
   -1.1781   -1.3978   -2.2886 H   0  0  0  0  0  0  0  0  0  0  0  0
    0.5836   -1.3978   -2.2886 H   0  0  0  0  0  0  0  0  0  0  0  0
   -0.2972   -2.9235   -2.2886 H   0  0  0  0  0  0  0  0  0  0  0  0
   -0.2972   -0.6858    0.1051 H   0  0  0  0  0  0  0  0  0  0  0  0
    0.5836   -2.4149    0.0259 H   0  0  0  0  0  0  0  0  0  0  0  0
   -1.1781   -2.4149    0.0259 H   0  0  0  0  0  0  0  0  0  0  0  0
  1  2  2  3
  1  6  1  0
  1  7  1  0
  2  3  1  0
  2  8  1  0
  3  4  1  0
  3  5  1  0
  4  9  1  0
  4 10  1  0
  4 11  1  0
  5 12  1  0
  5 13  1  0
  5 14  1  0
 15 16  1  0
 15 17  1  0
 15 18  1  0
 15 19  1  0
 16 20  1  0
 16 21  1  0
 16 22  1  0
M  RAD  1   3   2
M  END
>  <reaction>  (8) 
rxn_872

>  <mol_properties>  (8) 
{"1": {"label": "*0", "atom_type": "Cd"}, "2": {"label": "*1", "atom_type": "Cs"}, "14": {"label": "*4", "atom_type": "Cs"}, "15": {"label": "*3", "atom_type": "Cs"}, "19": {"label": "*2", "atom_type": "H0"}}

>  <type>  (8) 
unop_4

>  <geom_source>  (8) 
Heuristics

$$$$

     RDKit          3D

 22 20  0  0  0  0  0  0  0  0999 V2000
   -0.0000   -0.5107    2.3622 C   0  0  0  0  0  0  0  0  0  0  0  0
   -0.0000    0.6083    1.6554 C   0  0  0  0  0  0  0  0  0  0  0  0
   -0.0000    0.6933    0.1571 C   0  0  0  0  0  3  0  0  0  0  0  0
    1.2593    1.4053   -0.3405 C   0  0  0  0  0  0  0  0  0  0  0  0
   -1.2593    1.4053   -0.3405 C   0  0  0  0  0  0  0  0  0  0  0  0
   -0.0000   -0.4989    3.4450 H   0  0  0  0  0  0  0  0  0  0  0  0
   -0.0000   -1.4828    1.8804 H   0  0  0  0  0  0  0  0  0  0  0  0
    0.0000    1.5649    2.1764 H   0  0  0  0  0  0  0  0  0  0  0  0
    1.2668    1.4628   -1.4309 H   0  0  0  0  0  0  0  0  0  0  0  0
    1.3039    2.4264    0.0481 H   0  0  0  0  0  0  0  0  0  0  0  0
    2.1609    0.8828   -0.0175 H   0  0  0  0  0  0  0  0  0  0  0  0
   -1.3039    2.4264    0.0481 H   0  0  0  0  0  0  0  0  0  0  0  0
   -2.1609    0.8828   -0.0175 H   0  0  0  0  0  0  0  0  0  0  0  0
   -1.2668    1.4628   -1.4309 H   0  0  0  0  0  0  0  0  0  0  0  0
   -0.0000   -1.7513   -2.3171 C   0  0  0  0  0  0  0  0  0  0  0  0
   -0.0000   -1.7513   -0.7943 C   0  0  0  0  0  0  0  0  0  0  0  0
   -0.8808   -1.2427   -2.7129 H   0  0  0  0  0  0  0  0  0  0  0  0
    0.8808   -1.2427   -2.7129 H   0  0  0  0  0  0  0  0  0  0  0  0
   -0.0000   -2.7684   -2.7129 H   0  0  0  0  0  0  0  0  0  0  0  0
   -0.0000   -0.5307   -0.3193 H   0  0  0  0  0  0  0  0  0  0  0  0
    0.8808   -2.2598   -0.3984 H   0  0  0  0  0  0  0  0  0  0  0  0
   -0.8808   -2.2598   -0.3984 H   0  0  0  0  0  0  0  0  0  0  0  0
  1  2  2  3
  1  6  1  0
  1  7  1  0
  2  3  1  0
  2  8  1  0
  3  4  1  0
  3  5  1  0
  4  9  1  0
  4 10  1  0
  4 11  1  0
  5 12  1  0
  5 13  1  0
  5 14  1  0
 15 16  1  0
 15 17  1  0
 15 18  1  0
 15 19  1  0
 16 20  1  0
 16 21  1  0
 16 22  1  0
M  RAD  1   3   2
M  END
>  <reaction>  (9) 
rxn_872

>  <mol_properties>  (9) 
{"1": {"label": "*0", "atom_type": "Cd"}, "2": {"label": "*1", "atom_type": "Cs"}, "14": {"label": "*4", "atom_type": "Cs"}, "15": {"label": "*3", "atom_type": "Cs"}, "19": {"label": "*2", "atom_type": "H0"}}

>  <type>  (9) 
unop_5

>  <geom_source>  (9) 
Heuristics

$$$$

     RDKit          3D

 22 20  0  0  0  0  0  0  0  0999 V2000
    2.0939    0.7583   -0.2408 C   0  0  0  0  0  0  0  0  0  0  0  0
    1.1025    1.0376    0.5903 C   0  0  0  0  0  0  0  0  0  0  0  0
   -0.3246    0.6050    0.4219 C   0  0  0  0  0  3  0  0  0  0  0  0
   -1.2437    1.8217    0.2985 C   0  0  0  0  0  0  0  0  0  0  0  0
   -0.7567   -0.2864    1.5877 C   0  0  0  0  0  0  0  0  0  0  0  0
    3.1036    1.1037   -0.0574 H   0  0  0  0  0  0  0  0  0  0  0  0
    1.9297    0.1714   -1.1385 H   0  0  0  0  0  0  0  0  0  0  0  0
    1.3079    1.6298    1.4811 H   0  0  0  0  0  0  0  0  0  0  0  0
   -2.2825    1.5112    0.1684 H   0  0  0  0  0  0  0  0  0  0  0  0
   -1.1899    2.4386    1.1997 H   0  0  0  0  0  0  0  0  0  0  0  0
   -0.9616    2.4437   -0.5522 H   0  0  0  0  0  0  0  0  0  0  0  0
   -0.6857    0.2559    2.5346 H   0  0  0  0  0  0  0  0  0  0  0  0
   -0.1261   -1.1736    1.6601 H   0  0  0  0  0  0  0  0  0  0  0  0
   -1.7926   -0.6095    1.4654 H   0  0  0  0  0  0  0  0  0  0  0  0
   -0.3246   -1.8395   -2.0522 C   0  0  0  0  0  0  0  0  0  0  0  0
   -0.3246   -1.8395   -0.5294 C   0  0  0  0  0  0  0  0  0  0  0  0
   -1.2055   -1.3310   -2.4481 H   0  0  0  0  0  0  0  0  0  0  0  0
    0.5562   -1.3310   -2.4481 H   0  0  0  0  0  0  0  0  0  0  0  0
   -0.3246   -2.8566   -2.4481 H   0  0  0  0  0  0  0  0  0  0  0  0
   -0.3246   -0.6190   -0.0544 H   0  0  0  0  0  0  0  0  0  0  0  0
    0.5562   -2.3481   -0.1336 H   0  0  0  0  0  0  0  0  0  0  0  0
   -1.2055   -2.3481   -0.1336 H   0  0  0  0  0  0  0  0  0  0  0  0
  1  2  2  3
  1  6  1  0
  1  7  1  0
  2  3  1  0
  2  8  1  0
  3  4  1  0
  3  5  1  0
  4  9  1  0
  4 10  1  0
  4 11  1  0
  5 12  1  0
  5 13  1  0
  5 14  1  0
 15 16  1  0
 15 17  1  0
 15 18  1  0
 15 19  1  0
 16 20  1  0
 16 21  1  0
 16 22  1  0
M  RAD  1   3   2
M  END
>  <reaction>  (10) 
rxn_872

>  <mol_properties>  (10) 
{"1": {"label": "*0", "atom_type": "Cd"}, "2": {"label": "*1", "atom_type": "Cs"}, "14": {"label": "*4", "atom_type": "Cs"}, "15": {"label": "*3", "atom_type": "Cs"}, "19": {"label": "*2", "atom_type": "H0"}}

>  <type>  (10) 
unop_6

>  <geom_source>  (10) 
Heuristics

$$$$

     RDKit          3D

 22 20  0  0  0  0  0  0  0  0999 V2000
    2.1692    0.3385    0.8274 C   0  0  0  0  0  0  0  0  0  0  0  0
    0.9754    0.8354    1.1094 C   0  0  0  0  0  0  0  0  0  0  0  0
   -0.2606    0.6615    0.2760 C   0  0  0  0  0  3  0  0  0  0  0  0
   -0.7737    2.0173   -0.2129 C   0  0  0  0  0  0  0  0  0  0  0  0
   -1.3425   -0.0759    1.0672 C   0  0  0  0  0  0  0  0  0  0  0  0
    3.0209    0.5033    1.4754 H   0  0  0  0  0  0  0  0  0  0  0  0
    2.3376   -0.2537   -0.0661 H   0  0  0  0  0  0  0  0  0  0  0  0
    0.8468    1.4249    2.0162 H   0  0  0  0  0  0  0  0  0  0  0  0
   -1.6690    1.8947   -0.8259 H   0  0  0  0  0  0  0  0  0  0  0  0
   -1.0337    2.6591    0.6333 H   0  0  0  0  0  0  0  0  0  0  0  0
   -0.0183    2.5335   -0.8069 H   0  0  0  0  0  0  0  0  0  0  0  0
   -1.6226    0.4919    1.9588 H   0  0  0  0  0  0  0  0  0  0  0  0
   -0.9943   -1.0581    1.3897 H   0  0  0  0  0  0  0  0  0  0  0  0
   -2.2412   -0.2109    0.4619 H   0  0  0  0  0  0  0  0  0  0  0  0
   -0.2606   -1.7830   -2.1981 C   0  0  0  0  0  0  0  0  0  0  0  0
   -0.2606   -1.7830   -0.6754 C   0  0  0  0  0  0  0  0  0  0  0  0
   -1.1414   -1.2744   -2.5940 H   0  0  0  0  0  0  0  0  0  0  0  0
    0.6203   -1.2744   -2.5940 H   0  0  0  0  0  0  0  0  0  0  0  0
   -0.2606   -2.8001   -2.5940 H   0  0  0  0  0  0  0  0  0  0  0  0
   -0.2606   -0.5624   -0.2003 H   0  0  0  0  0  0  0  0  0  0  0  0
    0.6203   -2.2915   -0.2795 H   0  0  0  0  0  0  0  0  0  0  0  0
   -1.1414   -2.2915   -0.2795 H   0  0  0  0  0  0  0  0  0  0  0  0
  1  2  2  3
  1  6  1  0
  1  7  1  0
  2  3  1  0
  2  8  1  0
  3  4  1  0
  3  5  1  0
  4  9  1  0
  4 10  1  0
  4 11  1  0
  5 12  1  0
  5 13  1  0
  5 14  1  0
 15 16  1  0
 15 17  1  0
 15 18  1  0
 15 19  1  0
 16 20  1  0
 16 21  1  0
 16 22  1  0
M  RAD  1   3   2
M  END
>  <reaction>  (11) 
rxn_872

>  <mol_properties>  (11) 
{"1": {"label": "*0", "atom_type": "Cd"}, "2": {"label": "*1", "atom_type": "Cs"}, "14": {"label": "*4", "atom_type": "Cs"}, "15": {"label": "*3", "atom_type": "Cs"}, "19": {"label": "*2", "atom_type": "H0"}}

>  <type>  (11) 
unop_7

>  <geom_source>  (11) 
Heuristics

$$$$

     RDKit          3D

 22 20  0  0  0  0  0  0  0  0999 V2000
   -2.0939    0.7583   -0.2408 C   0  0  0  0  0  0  0  0  0  0  0  0
   -1.1025    1.0376    0.5903 C   0  0  0  0  0  0  0  0  0  0  0  0
    0.3246    0.6050    0.4219 C   0  0  0  0  0  3  0  0  0  0  0  0
    0.7567   -0.2864    1.5877 C   0  0  0  0  0  0  0  0  0  0  0  0
    1.2437    1.8217    0.2985 C   0  0  0  0  0  0  0  0  0  0  0  0
   -3.1036    1.1037   -0.0574 H   0  0  0  0  0  0  0  0  0  0  0  0
   -1.9297    0.1714   -1.1385 H   0  0  0  0  0  0  0  0  0  0  0  0
   -1.3079    1.6298    1.4811 H   0  0  0  0  0  0  0  0  0  0  0  0
    1.7926   -0.6095    1.4654 H   0  0  0  0  0  0  0  0  0  0  0  0
    0.6857    0.2559    2.5346 H   0  0  0  0  0  0  0  0  0  0  0  0
    0.1261   -1.1736    1.6601 H   0  0  0  0  0  0  0  0  0  0  0  0
    1.1899    2.4386    1.1997 H   0  0  0  0  0  0  0  0  0  0  0  0
    0.9616    2.4437   -0.5522 H   0  0  0  0  0  0  0  0  0  0  0  0
    2.2825    1.5112    0.1684 H   0  0  0  0  0  0  0  0  0  0  0  0
    0.3246   -1.8395   -2.0522 C   0  0  0  0  0  0  0  0  0  0  0  0
    0.3246   -1.8395   -0.5294 C   0  0  0  0  0  0  0  0  0  0  0  0
   -0.5562   -1.3310   -2.4481 H   0  0  0  0  0  0  0  0  0  0  0  0
    1.2055   -1.3310   -2.4481 H   0  0  0  0  0  0  0  0  0  0  0  0
    0.3246   -2.8566   -2.4481 H   0  0  0  0  0  0  0  0  0  0  0  0
    0.3246   -0.6190   -0.0544 H   0  0  0  0  0  0  0  0  0  0  0  0
    1.2055   -2.3481   -0.1336 H   0  0  0  0  0  0  0  0  0  0  0  0
   -0.5562   -2.3481   -0.1336 H   0  0  0  0  0  0  0  0  0  0  0  0
  1  2  2  3
  1  6  1  0
  1  7  1  0
  2  3  1  0
  2  8  1  0
  3  4  1  0
  3  5  1  0
  4  9  1  0
  4 10  1  0
  4 11  1  0
  5 12  1  0
  5 13  1  0
  5 14  1  0
 15 16  1  0
 15 17  1  0
 15 18  1  0
 15 19  1  0
 16 20  1  0
 16 21  1  0
 16 22  1  0
M  RAD  1   3   2
M  END
>  <reaction>  (12) 
rxn_872

>  <mol_properties>  (12) 
{"1": {"label": "*0", "atom_type": "Cd"}, "2": {"label": "*1", "atom_type": "Cs"}, "14": {"label": "*4", "atom_type": "Cs"}, "15": {"label": "*3", "atom_type": "Cs"}, "19": {"label": "*2", "atom_type": "H0"}}

>  <type>  (12) 
unop_8

>  <geom_source>  (12) 
Heuristics

$$$$

     RDKit          3D

 22 20  0  0  0  0  0  0  0  0999 V2000
    0.7669    1.0692   -1.5465 C   0  0  0  0  0  0  0  0  0  0  0  0
    0.5351    1.3638   -0.2773 C   0  0  0  0  0  0  0  0  0  0  0  0
   -0.1785    0.4830    0.7061 C   0  0  0  0  0  3  0  0  0  0  0  0
   -1.4458    1.1685    1.2202 C   0  0  0  0  0  0  0  0  0  0  0  0
    0.7477    0.1126    1.8660 C   0  0  0  0  0  0  0  0  0  0  0  0
    1.2897    1.7539   -2.2026 H   0  0  0  0  0  0  0  0  0  0  0  0
    0.4404    0.1280   -1.9764 H   0  0  0  0  0  0  0  0  0  0  0  0
    0.8789    2.3193    0.1169 H   0  0  0  0  0  0  0  0  0  0  0  0
   -1.9721    0.5277    1.9308 H   0  0  0  0  0  0  0  0  0  0  0  0
   -1.1983    2.1023    1.7325 H   0  0  0  0  0  0  0  0  0  0  0  0
   -2.1261    1.4046    0.4008 H   0  0  0  0  0  0  0  0  0  0  0  0
    1.0728    1.0090    2.4011 H   0  0  0  0  0  0  0  0  0  0  0  0
    1.6377   -0.4073    1.5089 H   0  0  0  0  0  0  0  0  0  0  0  0
    0.2345   -0.5345    2.5804 H   0  0  0  0  0  0  0  0  0  0  0  0
   -0.1785   -1.9615   -1.7680 C   0  0  0  0  0  0  0  0  0  0  0  0
   -0.1785   -1.9615   -0.2452 C   0  0  0  0  0  0  0  0  0  0  0  0
   -1.0593   -1.4530   -2.1639 H   0  0  0  0  0  0  0  0  0  0  0  0
    0.7023   -1.4530   -2.1639 H   0  0  0  0  0  0  0  0  0  0  0  0
   -0.1785   -2.9787   -2.1639 H   0  0  0  0  0  0  0  0  0  0  0  0
   -0.1785   -0.7410    0.2298 H   0  0  0  0  0  0  0  0  0  0  0  0
    0.7023   -2.4701    0.1506 H   0  0  0  0  0  0  0  0  0  0  0  0
   -1.0593   -2.4701    0.1506 H   0  0  0  0  0  0  0  0  0  0  0  0
  1  2  2  3
  1  6  1  0
  1  7  1  0
  2  3  1  0
  2  8  1  0
  3  4  1  0
  3  5  1  0
  4  9  1  0
  4 10  1  0
  4 11  1  0
  5 12  1  0
  5 13  1  0
  5 14  1  0
 15 16  1  0
 15 17  1  0
 15 18  1  0
 15 19  1  0
 16 20  1  0
 16 21  1  0
 16 22  1  0
M  RAD  1   3   2
M  END
>  <reaction>  (13) 
rxn_872

>  <mol_properties>  (13) 
{"1": {"label": "*0", "atom_type": "Cd"}, "2": {"label": "*1", "atom_type": "Cs"}, "14": {"label": "*4", "atom_type": "Cs"}, "15": {"label": "*3", "atom_type": "Cs"}, "19": {"label": "*2", "atom_type": "H0"}}

>  <type>  (13) 
unop_9

>  <geom_source>  (13) 
Heuristics

$$$$

     RDKit          3D

 22 20  0  0  0  0  0  0  0  0999 V2000
   -1.5348    1.0006   -1.0744 C   0  0  0  0  0  0  0  0  0  0  0  0
   -0.9387    1.2296    0.0848 C   0  0  0  0  0  0  0  0  0  0  0  0
    0.2972    0.5382    0.5814 C   0  0  0  0  0  3  0  0  0  0  0  0
    0.0030   -0.2251    1.8741 C   0  0  0  0  0  0  0  0  0  0  0  0
    1.4290    1.5459    0.7910 C   0  0  0  0  0  0  0  0  0  0  0  0
   -2.4271    1.5379   -1.3706 H   0  0  0  0  0  0  0  0  0  0  0  0
   -1.1495    0.2639   -1.7717 H   0  0  0  0  0  0  0  0  0  0  0  0
   -1.3565    1.9774    0.7576 H   0  0  0  0  0  0  0  0  0  0  0  0
    0.8981   -0.7358    2.2351 H   0  0  0  0  0  0  0  0  0  0  0  0
   -0.3301    0.4596    2.6589 H   0  0  0  0  0  0  0  0  0  0  0  0
   -0.7801   -0.9694    1.7226 H   0  0  0  0  0  0  0  0  0  0  0  0
    1.1464    2.2934    1.5374 H   0  0  0  0  0  0  0  0  0  0  0  0
    1.6669    2.0696   -0.1360 H   0  0  0  0  0  0  0  0  0  0  0  0
    2.3327    1.0458    1.1455 H   0  0  0  0  0  0  0  0  0  0  0  0
    0.2972   -1.9063   -1.8928 C   0  0  0  0  0  0  0  0  0  0  0  0
    0.2972   -1.9063   -0.3700 C   0  0  0  0  0  0  0  0  0  0  0  0
   -0.5836   -1.3978   -2.2886 H   0  0  0  0  0  0  0  0  0  0  0  0
    1.1781   -1.3978   -2.2886 H   0  0  0  0  0  0  0  0  0  0  0  0
    0.2972   -2.9235   -2.2886 H   0  0  0  0  0  0  0  0  0  0  0  0
    0.2972   -0.6858    0.1051 H   0  0  0  0  0  0  0  0  0  0  0  0
    1.1781   -2.4149    0.0259 H   0  0  0  0  0  0  0  0  0  0  0  0
   -0.5836   -2.4149    0.0259 H   0  0  0  0  0  0  0  0  0  0  0  0
  1  2  2  3
  1  6  1  0
  1  7  1  0
  2  3  1  0
  2  8  1  0
  3  4  1  0
  3  5  1  0
  4  9  1  0
  4 10  1  0
  4 11  1  0
  5 12  1  0
  5 13  1  0
  5 14  1  0
 15 16  1  0
 15 17  1  0
 15 18  1  0
 15 19  1  0
 16 20  1  0
 16 21  1  0
 16 22  1  0
M  RAD  1   3   2
M  END
>  <reaction>  (14) 
rxn_872

>  <mol_properties>  (14) 
{"1": {"label": "*0", "atom_type": "Cd"}, "2": {"label": "*1", "atom_type": "Cs"}, "14": {"label": "*4", "atom_type": "Cs"}, "15": {"label": "*3", "atom_type": "Cs"}, "19": {"label": "*2", "atom_type": "H0"}}

>  <type>  (14) 
unop_10

>  <geom_source>  (14) 
Heuristics

$$$$

     RDKit          3D

 22 20  0  0  0  0  0  0  0  0999 V2000
    1.5160   -0.1885    1.8611 C   0  0  0  0  0  0  0  0  0  0  0  0
    0.5784    0.6746    1.5039 C   0  0  0  0  0  0  0  0  0  0  0  0
   -0.1352    0.6902    0.1838 C   0  0  0  0  0  3  0  0  0  0  0  0
    0.1302    2.0035   -0.5547 C   0  0  0  0  0  0  0  0  0  0  0  0
   -1.6363    0.4720    0.3820 C   0  0  0  0  0  0  0  0  0  0  0  0
    1.9909   -0.1417    2.8331 H   0  0  0  0  0  0  0  0  0  0  0  0
    1.8434   -0.9761    1.1905 H   0  0  0  0  0  0  0  0  0  0  0  0
    0.2771    1.4513    2.2057 H   0  0  0  0  0  0  0  0  0  0  0  0
   -0.3815    2.0160   -1.5193 H   0  0  0  0  0  0  0  0  0  0  0  0
   -0.2347    2.8539    0.0279 H   0  0  0  0  0  0  0  0  0  0  0  0
    1.1971    2.1486   -0.7294 H   0  0  0  0  0  0  0  0  0  0  0  0
   -2.0637    1.2681    0.9977 H   0  0  0  0  0  0  0  0  0  0  0  0
   -1.8340   -0.4794    0.8778 H   0  0  0  0  0  0  0  0  0  0  0  0
   -2.1585    0.4754   -0.5770 H   0  0  0  0  0  0  0  0  0  0  0  0
   -0.1352   -1.7543   -2.2904 C   0  0  0  0  0  0  0  0  0  0  0  0
   -0.1352   -1.7543   -0.7676 C   0  0  0  0  0  0  0  0  0  0  0  0
   -1.0160   -1.2457   -2.6862 H   0  0  0  0  0  0  0  0  0  0  0  0
    0.7457   -1.2457   -2.6862 H   0  0  0  0  0  0  0  0  0  0  0  0
   -0.1352   -2.7714   -2.6862 H   0  0  0  0  0  0  0  0  0  0  0  0
   -0.1352   -0.5337   -0.2926 H   0  0  0  0  0  0  0  0  0  0  0  0
    0.7457   -2.2628   -0.3718 H   0  0  0  0  0  0  0  0  0  0  0  0
   -1.0160   -2.2628   -0.3718 H   0  0  0  0  0  0  0  0  0  0  0  0
  1  2  2  3
  1  6  1  0
  1  7  1  0
  2  3  1  0
  2  8  1  0
  3  4  1  0
  3  5  1  0
  4  9  1  0
  4 10  1  0
  4 11  1  0
  5 12  1  0
  5 13  1  0
  5 14  1  0
 15 16  1  0
 15 17  1  0
 15 18  1  0
 15 19  1  0
 16 20  1  0
 16 21  1  0
 16 22  1  0
M  RAD  1   3   2
M  END
>  <reaction>  (15) 
rxn_872

>  <mol_properties>  (15) 
{"1": {"label": "*0", "atom_type": "Cd"}, "2": {"label": "*1", "atom_type": "Cs"}, "14": {"label": "*4", "atom_type": "Cs"}, "15": {"label": "*3", "atom_type": "Cs"}, "19": {"label": "*2", "atom_type": "H0"}}

>  <type>  (15) 
unop_11

>  <geom_source>  (15) 
Heuristics

$$$$

     RDKit          3D

 22 20  0  0  0  0  0  0  0  0999 V2000
    0.0000    1.0645   -1.6851 C   0  0  0  0  0  0  0  0  0  0  0  0
   -0.0000    1.4113   -0.4078 C   0  0  0  0  0  0  0  0  0  0  0  0
   -0.0000    0.4610    0.7538 C   0  0  0  0  0  3  0  0  0  0  0  0
   -1.2593    0.6494    1.6017 C   0  0  0  0  0  0  0  0  0  0  0  0
    1.2593    0.6494    1.6017 C   0  0  0  0  0  0  0  0  0  0  0  0
    0.0000    1.8051   -2.4750 H   0  0  0  0  0  0  0  0  0  0  0  0
    0.0000    0.0223   -1.9871 H   0  0  0  0  0  0  0  0  0  0  0  0
   -0.0000    2.4683   -0.1451 H   0  0  0  0  0  0  0  0  0  0  0  0
   -1.2668   -0.0454    2.4442 H   0  0  0  0  0  0  0  0  0  0  0  0
   -1.3039    1.6645    2.0056 H   0  0  0  0  0  0  0  0  0  0  0  0
   -2.1609    0.4828    1.0106 H   0  0  0  0  0  0  0  0  0  0  0  0
    1.3039    1.6645    2.0056 H   0  0  0  0  0  0  0  0  0  0  0  0
    2.1609    0.4828    1.0106 H   0  0  0  0  0  0  0  0  0  0  0  0
    1.2668   -0.0454    2.4442 H   0  0  0  0  0  0  0  0  0  0  0  0
   -0.0000   -1.9835   -1.7204 C   0  0  0  0  0  0  0  0  0  0  0  0
   -0.0000   -1.9835   -0.1976 C   0  0  0  0  0  0  0  0  0  0  0  0
   -0.8808   -1.4749   -2.1162 H   0  0  0  0  0  0  0  0  0  0  0  0
    0.8808   -1.4749   -2.1162 H   0  0  0  0  0  0  0  0  0  0  0  0
   -0.0000   -3.0006   -2.1162 H   0  0  0  0  0  0  0  0  0  0  0  0
   -0.0000   -0.7629    0.2774 H   0  0  0  0  0  0  0  0  0  0  0  0
    0.8808   -2.4920    0.1982 H   0  0  0  0  0  0  0  0  0  0  0  0
   -0.8808   -2.4920    0.1982 H   0  0  0  0  0  0  0  0  0  0  0  0
  1  2  2  3
  1  6  1  0
  1  7  1  0
  2  3  1  0
  2  8  1  0
  3  4  1  0
  3  5  1  0
  4  9  1  0
  4 10  1  0
  4 11  1  0
  5 12  1  0
  5 13  1  0
  5 14  1  0
 15 16  1  0
 15 17  1  0
 15 18  1  0
 15 19  1  0
 16 20  1  0
 16 21  1  0
 16 22  1  0
M  RAD  1   3   2
M  END
>  <reaction>  (16) 
rxn_872

>  <mol_properties>  (16) 
{"1": {"label": "*0", "atom_type": "Cd"}, "2": {"label": "*1", "atom_type": "Cs"}, "14": {"label": "*4", "atom_type": "Cs"}, "15": {"label": "*3", "atom_type": "Cs"}, "19": {"label": "*2", "atom_type": "H0"}}

>  <type>  (16) 
unop_12

>  <geom_source>  (16) 
Heuristics

$$$$

     RDKit          3D

 22 20  0  0  0  0  0  0  0  0999 V2000
   -0.5880   -0.1640    0.1165 C   0  0  0  0  0  3  0  0  0  0  0  0
   -0.7327   -1.1746   -1.0256 C   0  0  0  0  0  0  0  0  0  0  0  0
   -1.1199   -0.7341    1.4351 C   0  0  0  0  0  0  0  0  0  0  0  0
    2.9998   -0.2039    0.1312 C   0  0  0  0  0  0  0  0  0  0  0  0
   -1.2479    1.1523   -0.2229 C   0  0  0  0  0  0  0  0  0  0  0  0
    1.8282    0.7466   -0.0318 C   0  0  0  0  0  0  0  0  0  0  0  0
   -2.5613    1.2713   -0.4509 C   0  0  0  0  0  0  0  0  0  0  0  0
    0.7623    0.0792    0.2855 H   0  0  0  0  0  0  0  0  0  0  0  0
   -0.1511   -2.0915   -0.7929 H   0  0  0  0  0  0  0  0  0  0  0  0
   -1.7963   -1.4563   -1.1782 H   0  0  0  0  0  0  0  0  0  0  0  0
   -0.3341   -0.7415   -1.9676 H   0  0  0  0  0  0  0  0  0  0  0  0
   -0.9975    0.0130    2.2478 H   0  0  0  0  0  0  0  0  0  0  0  0
   -0.5451   -1.6433    1.7112 H   0  0  0  0  0  0  0  0  0  0  0  0
   -2.1941   -1.0039    1.3499 H   0  0  0  0  0  0  0  0  0  0  0  0
    2.7192   -1.2086   -0.2479 H   0  0  0  0  0  0  0  0  0  0  0  0
    3.2680   -0.2831    1.2052 H   0  0  0  0  0  0  0  0  0  0  0  0
    3.8749    0.1727   -0.4392 H   0  0  0  0  0  0  0  0  0  0  0  0
   -0.6245    2.0389   -0.2835 H   0  0  0  0  0  0  0  0  0  0  0  0
    1.5480    0.8244   -1.1034 H   0  0  0  0  0  0  0  0  0  0  0  0
    2.0981    1.7524    0.3535 H   0  0  0  0  0  0  0  0  0  0  0  0
   -3.2225    0.4123   -0.4012 H   0  0  0  0  0  0  0  0  0  0  0  0
   -2.9833    2.2417   -0.6910 H   0  0  0  0  0  0  0  0  0  0  0  0
  1  2  1  0
  1  3  1  0
  1  5  1  0
  2  9  1  0
  2 10  1  0
  2 11  1  0
  3 12  1  0
  3 13  1  0
  3 14  1  0
  4  6  1  0
  4 15  1  0
  4 16  1  0
  4 17  1  0
  5  7  2  3
  5 18  1  0
  6  8  1  0
  6 19  1  0
  6 20  1  0
  7 21  1  0
  7 22  1  0
M  RAD  1   1   2
M  END
>  <reaction>  (17) 
rxn_872

>  <mol_properties>  (17) 
{"1": {"label": "*0", "atom_type": "Cd"}, "2": {"label": "*1", "atom_type": "Cs"}, "14": {"label": "*4", "atom_type": "Cs"}, "15": {"label": "*3", "atom_type": "Cs"}, "19": {"label": "*2", "atom_type": "H0"}}

>  <type>  (17) 
unop_13

>  <geom_source>  (17) 
AutoTST

$$$$

     RDKit          3D

 22 20  0  0  0  0  0  0  0  0999 V2000
   -0.7669    1.0692   -1.5466 C   0  0  0  0  0  0  0  0  0  0  0  0
   -0.5351    1.3638   -0.2773 C   0  0  0  0  0  0  0  0  0  0  0  0
    0.1785    0.4830    0.7061 C   0  0  0  0  0  3  0  0  0  0  0  0
   -0.7477    0.1126    1.8660 C   0  0  0  0  0  0  0  0  0  0  0  0
    1.4458    1.1685    1.2202 C   0  0  0  0  0  0  0  0  0  0  0  0
   -1.2897    1.7539   -2.2026 H   0  0  0  0  0  0  0  0  0  0  0  0
   -0.4404    0.1280   -1.9764 H   0  0  0  0  0  0  0  0  0  0  0  0
   -0.8789    2.3192    0.1169 H   0  0  0  0  0  0  0  0  0  0  0  0
   -0.2345   -0.5345    2.5804 H   0  0  0  0  0  0  0  0  0  0  0  0
   -1.0729    1.0090    2.4011 H   0  0  0  0  0  0  0  0  0  0  0  0
   -1.6377   -0.4073    1.5089 H   0  0  0  0  0  0  0  0  0  0  0  0
    1.1983    2.1023    1.7325 H   0  0  0  0  0  0  0  0  0  0  0  0
    2.1261    1.4045    0.4008 H   0  0  0  0  0  0  0  0  0  0  0  0
    1.9721    0.5277    1.9308 H   0  0  0  0  0  0  0  0  0  0  0  0
    0.1785   -1.9615   -1.7680 C   0  0  0  0  0  0  0  0  0  0  0  0
    0.1785   -1.9615   -0.2452 C   0  0  0  0  0  0  0  0  0  0  0  0
   -0.7023   -1.4530   -2.1639 H   0  0  0  0  0  0  0  0  0  0  0  0
    1.0594   -1.4530   -2.1639 H   0  0  0  0  0  0  0  0  0  0  0  0
    0.1785   -2.9787   -2.1639 H   0  0  0  0  0  0  0  0  0  0  0  0
    0.1785   -0.7410    0.2298 H   0  0  0  0  0  0  0  0  0  0  0  0
    1.0594   -2.4701    0.1506 H   0  0  0  0  0  0  0  0  0  0  0  0
   -0.7023   -2.4701    0.1506 H   0  0  0  0  0  0  0  0  0  0  0  0
  1  2  2  3
  1  6  1  0
  1  7  1  0
  2  3  1  0
  2  8  1  0
  3  4  1  0
  3  5  1  0
  4  9  1  0
  4 10  1  0
  4 11  1  0
  5 12  1  0
  5 13  1  0
  5 14  1  0
 15 16  1  0
 15 17  1  0
 15 18  1  0
 15 19  1  0
 16 20  1  0
 16 21  1  0
 16 22  1  0
M  RAD  1   3   2
M  END
>  <reaction>  (18) 
rxn_872

>  <mol_properties>  (18) 
{"1": {"label": "*0", "atom_type": "Cd"}, "2": {"label": "*1", "atom_type": "Cs"}, "14": {"label": "*4", "atom_type": "Cs"}, "15": {"label": "*3", "atom_type": "Cs"}, "19": {"label": "*2", "atom_type": "H0"}}

>  <type>  (18) 
unop_14

>  <geom_source>  (18) 
gaussian_log

$$$$
