
     RDKit          3D

  6  5  0  0  0  0  0  0  0  0999 V2000
   -0.5072   -0.0291   -0.0097 C   0  0  0  0  0  0  0  0  0  0  0  0
    1.1321   -0.1527   -0.7687 S   0  0  0  0  0  0  0  0  0  0  0  0
   -0.6174   -0.7330    0.8127 H   0  0  0  0  0  0  0  0  0  0  0  0
   -0.5863    0.9827    0.3845 H   0  0  0  0  0  0  0  0  0  0  0  0
   -1.2962   -0.1800   -0.7434 H   0  0  0  0  0  0  0  0  0  0  0  0
    1.0312   -1.4237   -1.1764 H   0  0  0  0  0  0  0  0  0  0  0  0
  1  2  1  0
  1  3  1  0
  1  4  1  0
  1  5  1  0
  2  6  1  0
M  END
>  <reaction>  (1) 
rxn_1845

>  <mol_properties>  (1) 
{"0": {"label": "donator", "atom_type": "Cs"}, "2": {"label": "d_hydrogen", "atom_type": "H0"}}

>  <type>  (1) 
r1h

$$$$

     RDKit          3D

  6  5  0  0  0  0  0  0  0  0999 V2000
   -0.7309   -0.0987    0.0327 C   0  0  0  0  0  0  0  0  0  0  0  0
    0.6208    0.0065   -0.0096 C   0  0  0  0  0  0  0  0  0  0  0  0
    1.6572   -1.2972    0.2837 S   0  0  0  0  0  1  0  0  0  0  0  0
   -1.3651    0.7588   -0.1608 H   0  0  0  0  0  0  0  0  0  0  0  0
   -1.2044   -1.0453    0.2616 H   0  0  0  0  0  0  0  0  0  0  0  0
    1.0609    0.9725   -0.2426 H   0  0  0  0  0  0  0  0  0  0  0  0
  1  2  2  3
  1  4  1  0
  1  5  1  0
  2  3  1  0
  2  6  1  0
M  RAD  1   3   2
M  END
>  <reaction>  (2) 
rxn_1845

>  <mol_properties>  (2) 
{"0": {"label": "acceptor", "atom_type": "Cs"}}

>  <type>  (2) 
r2

$$$$

     RDKit          3D

  7  6  0  0  0  0  0  0  0  0999 V2000
   -0.6782    0.0507    0.0301 C   0  0  0  0  0  0  0  0  0  0  0  0
    0.8092    0.0996    0.0213 C   0  0  0  0  0  0  0  0  0  0  0  0
    1.7473    0.7521    1.1507 S   0  0  0  0  0  0  0  0  0  0  0  0
   -1.0667    0.5456   -0.8653 H   0  0  0  0  0  0  0  0  0  0  0  0
   -1.0112   -0.9904   -0.0239 H   0  0  0  0  0  0  0  0  0  0  0  0
   -1.0920    0.5225    0.9188 H   0  0  0  0  0  0  0  0  0  0  0  0
    1.2740   -0.3620   -0.8520 H   0  0  0  0  0  0  0  0  0  0  0  0
  1  2  1  0
  1  4  1  0
  1  5  1  0
  1  6  1  0
  2  3  2  0
  2  7  1  0
M  END
>  <reaction>  (3) 
rxn_1845

>  <mol_properties>  (3) 
{"0": {"label": "a_hydrogen", "atom_type": "H0"}, "1": {"label": "acceptor", "atom_type": "Cs"}}

>  <type>  (3) 
r2h

$$$$

     RDKit          3D

 12 10  0  0  0  0  0  0  0  0999 V2000
    1.0655   -1.9413   -0.2469 C   0  0  0  0  0  3  0  0  0  0  0  0
   -0.1976   -1.8924   -1.4417 S   0  0  0  0  0  0  0  0  0  0  0  0
    0.7286   -0.9401    0.7377 H   0  0  0  0  0  0  0  0  0  0  0  0
    1.0643   -2.8704    0.3137 H   0  0  0  0  0  0  0  0  0  0  0  0
    2.0462   -1.5999   -0.5592 H   0  0  0  0  0  0  0  0  0  0  0  0
    0.1809   -0.7597   -2.0491 H   0  0  0  0  0  0  0  0  0  0  0  0
    0.4843    0.0534    1.4975 C   0  0  0  0  0  0  0  0  0  0  0  0
   -0.3456    0.9056    0.6908 C   0  0  0  0  0  0  0  0  0  0  0  0
    0.2036    2.0140   -0.3780 S   0  0  0  0  0  0  0  0  0  0  0  0
    0.0037   -0.4024    2.3609 H   0  0  0  0  0  0  0  0  0  0  0  0
    1.4863    0.4280    1.6910 H   0  0  0  0  0  0  0  0  0  0  0  0
   -1.4196    0.7386    0.7669 H   0  0  0  0  0  0  0  0  0  0  0  0
  1  2  1  0
  1  4  1  0
  1  5  1  0
  2  6  1  0
  3  7  1  0
  7  8  1  0
  7 10  1  0
  7 11  1  0
  8  9  2  0
  8 12  1  0
M  RAD  1   1   2
M  END
>  <reaction>  (4) 
rxn_1845

>  <mol_properties>  (4) 
{"0": {"label": "*3", "atom_type": "Cs"}, "1": {"label": "*4", "atom_type": "S2s"}, "2": {"label": "*2", "atom_type": "H0"}, "6": {"label": "*1", "atom_type": "Cs"}, "7": {"label": "*0", "atom_type": "CS"}}

>  <type>  (4) 
ts

$$$$

     RDKit          3D

 12 10  0  0  0  0  0  0  0  0999 V2000
    0.6834   -1.8575   -0.4595 C   0  0  0  0  0  0  0  0  0  0  0  0
    0.6834   -1.8575   -2.2702 S   0  0  0  0  0  0  0  0  0  0  0  0
    0.6834   -0.6416    0.0162 H   0  0  0  0  0  0  0  0  0  0  0  0
   -0.2373   -2.3516   -0.1536 H   0  0  0  0  0  0  0  0  0  0  0  0
    1.5277   -2.4175   -0.0631 H   0  0  0  0  0  0  0  0  0  0  0  0
    1.8537   -1.2293   -2.4366 H   0  0  0  0  0  0  0  0  0  0  0  0
    0.6834    0.5813    0.4948 C   0  0  0  0  0  0  0  0  0  0  0  0
   -0.5309    0.7903    1.3294 C   0  0  0  0  0  0  0  0  0  0  0  0
   -1.1660    2.2051    1.7494 S   0  0  0  0  0  1  0  0  0  0  0  0
    1.4203    0.0007    1.0583 H   0  0  0  0  0  0  0  0  0  0  0  0
    1.1233    1.5251    0.1795 H   0  0  0  0  0  0  0  0  0  0  0  0
   -1.0107   -0.1286    1.6718 H   0  0  0  0  0  0  0  0  0  0  0  0
  1  2  1  0
  1  3  1  0
  1  4  1  0
  1  5  1  0
  2  6  1  0
  7  8  2  3
  7 10  1  0
  7 11  1  0
  8  9  1  0
  8 12  1  0
M  RAD  1   9   2
M  END
>  <reaction>  (5) 
rxn_1845

>  <mol_properties>  (5) 
{"0": {"label": "*3", "atom_type": "Cs"}, "1": {"label": "*4", "atom_type": "S2s"}, "2": {"label": "*2", "atom_type": "H0"}, "6": {"label": "*1", "atom_type": "Cs"}, "7": {"label": "*0", "atom_type": "CS"}}

>  <type>  (5) 
unop_1

>  <geom_source>  (5) 
Heuristics

$$$$

     RDKit          3D

 12 10  0  0  0  0  0  0  0  0999 V2000
    0.1600   -2.1781    0.5298 C   0  0  0  0  0  0  0  0  0  0  0  0
    0.1600   -2.1781   -1.2808 S   0  0  0  0  0  0  0  0  0  0  0  0
    0.1600   -0.9623    1.0056 H   0  0  0  0  0  0  0  0  0  0  0  0
   -0.7607   -2.6723    0.8358 H   0  0  0  0  0  0  0  0  0  0  0  0
    1.0043   -2.7381    0.9263 H   0  0  0  0  0  0  0  0  0  0  0  0
    1.3303   -1.5500   -1.4472 H   0  0  0  0  0  0  0  0  0  0  0  0
    0.1600    0.2607    1.4842 C   0  0  0  0  0  0  0  0  0  0  0  0
   -0.5411    1.1676    0.5352 C   0  0  0  0  0  0  0  0  0  0  0  0
   -0.1027    2.6640    0.1477 S   0  0  0  0  0  1  0  0  0  0  0  0
   -0.5262   -0.0348    2.2839 H   0  0  0  0  0  0  0  0  0  0  0  0
    1.0427    0.7301    1.9131 H   0  0  0  0  0  0  0  0  0  0  0  0
   -1.4357    0.7420    0.0766 H   0  0  0  0  0  0  0  0  0  0  0  0
  1  2  1  0
  1  3  1  0
  1  4  1  0
  1  5  1  0
  2  6  1  0
  7  8  2  3
  7 10  1  0
  7 11  1  0
  8  9  1  0
  8 12  1  0
M  RAD  1   9   2
M  END
>  <reaction>  (6) 
rxn_1845

>  <mol_properties>  (6) 
{"0": {"label": "*3", "atom_type": "Cs"}, "1": {"label": "*4", "atom_type": "S2s"}, "2": {"label": "*2", "atom_type": "H0"}, "6": {"label": "*1", "atom_type": "Cs"}, "7": {"label": "*0", "atom_type": "CS"}}

>  <type>  (6) 
unop_2

>  <geom_source>  (6) 
Heuristics

$$$$

     RDKit          3D

 12 10  0  0  0  0  0  0  0  0999 V2000
    0.5220   -1.7272   -0.7157 C   0  0  0  0  0  0  0  0  0  0  0  0
    0.5220   -1.7272   -2.5263 S   0  0  0  0  0  0  0  0  0  0  0  0
    0.5220   -0.5114   -0.2399 H   0  0  0  0  0  0  0  0  0  0  0  0
   -0.3986   -2.2214   -0.4097 H   0  0  0  0  0  0  0  0  0  0  0  0
    1.3664   -2.2872   -0.3192 H   0  0  0  0  0  0  0  0  0  0  0  0
    1.6923   -1.0991   -2.6927 H   0  0  0  0  0  0  0  0  0  0  0  0
    0.5220    0.7115    0.2387 C   0  0  0  0  0  0  0  0  0  0  0  0
   -0.1790    0.7335    1.5512 C   0  0  0  0  0  0  0  0  0  0  0  0
   -1.0068    1.9644    2.1684 S   0  0  0  0  0  1  0  0  0  0  0  0
    1.5830    0.4923    0.3932 H   0  0  0  0  0  0  0  0  0  0  0  0
    0.4160    1.6559   -0.2910 H   0  0  0  0  0  0  0  0  0  0  0  0
   -0.1023   -0.1933    2.1230 H   0  0  0  0  0  0  0  0  0  0  0  0
  1  2  1  0
  1  3  1  0
  1  4  1  0
  1  5  1  0
  2  6  1  0
  7  8  2  3
  7 10  1  0
  7 11  1  0
  8  9  1  0
  8 12  1  0
M  RAD  1   9   2
M  END
>  <reaction>  (7) 
rxn_1845

>  <mol_properties>  (7) 
{"0": {"label": "*3", "atom_type": "Cs"}, "1": {"label": "*4", "atom_type": "S2s"}, "2": {"label": "*2", "atom_type": "H0"}, "6": {"label": "*1", "atom_type": "Cs"}, "7": {"label": "*0", "atom_type": "CS"}}

>  <type>  (7) 
unop_3

>  <geom_source>  (7) 
Heuristics

$$$$

     RDKit          3D

 12 10  0  0  0  0  0  0  0  0999 V2000
   -0.9386   -1.6782   -0.0029 C   0  0  0  0  0  0  0  0  0  0  0  0
   -0.9386   -1.6782   -1.8136 S   0  0  0  0  0  0  0  0  0  0  0  0
   -0.9386   -0.4623    0.4729 H   0  0  0  0  0  0  0  0  0  0  0  0
   -1.8593   -2.1723    0.3030 H   0  0  0  0  0  0  0  0  0  0  0  0
   -0.0943   -2.2382    0.3936 H   0  0  0  0  0  0  0  0  0  0  0  0
    0.2317   -1.0500   -1.9800 H   0  0  0  0  0  0  0  0  0  0  0  0
   -0.9386    0.7606    0.9514 C   0  0  0  0  0  0  0  0  0  0  0  0
    0.2756    1.4805    0.4803 C   0  0  0  0  0  0  0  0  0  0  0  0
    1.6986    1.5360    1.2242 S   0  0  0  0  0  1  0  0  0  0  0  0
   -1.7648    1.4695    1.0638 H   0  0  0  0  0  0  0  0  0  0  0  0
   -0.7633    0.2490    1.8955 H   0  0  0  0  0  0  0  0  0  0  0  0
    0.1510    2.0113   -0.4655 H   0  0  0  0  0  0  0  0  0  0  0  0
  1  2  1  0
  1  3  1  0
  1  4  1  0
  1  5  1  0
  2  6  1  0
  7  8  2  3
  7 10  1  0
  7 11  1  0
  8  9  1  0
  8 12  1  0
M  RAD  1   9   2
M  END
>  <reaction>  (8) 
rxn_1845

>  <mol_properties>  (8) 
{"0": {"label": "*3", "atom_type": "Cs"}, "1": {"label": "*4", "atom_type": "S2s"}, "2": {"label": "*2", "atom_type": "H0"}, "6": {"label": "*1", "atom_type": "Cs"}, "7": {"label": "*0", "atom_type": "CS"}}

>  <type>  (8) 
unop_4

>  <geom_source>  (8) 
Heuristics

$$$$

     RDKit          3D

 12 10  0  0  0  0  0  0  0  0999 V2000
    0.3097   -1.5319   -0.8909 C   0  0  0  0  0  0  0  0  0  0  0  0
    0.3097   -1.5319   -2.7016 S   0  0  0  0  0  0  0  0  0  0  0  0
    0.3097   -0.3161   -0.4151 H   0  0  0  0  0  0  0  0  0  0  0  0
   -0.6110   -2.0260   -0.5850 H   0  0  0  0  0  0  0  0  0  0  0  0
    1.1540   -2.0919   -0.4944 H   0  0  0  0  0  0  0  0  0  0  0  0
    1.4800   -0.9038   -2.8680 H   0  0  0  0  0  0  0  0  0  0  0  0
    0.3097    0.9069    0.0634 C   0  0  0  0  0  0  0  0  0  0  0  0
    0.3097    0.8604    1.5509 C   0  0  0  0  0  0  0  0  0  0  0  0
   -0.7898    1.5125    2.5242 S   0  0  0  0  0  1  0  0  0  0  0  0
    1.2335    1.3760   -0.2889 H   0  0  0  0  0  0  0  0  0  0  0  0
   -0.5489    1.4520   -0.3230 H   0  0  0  0  0  0  0  0  0  0  0  0
    1.1531    0.3232    1.9888 H   0  0  0  0  0  0  0  0  0  0  0  0
  1  2  1  0
  1  3  1  0
  1  4  1  0
  1  5  1  0
  2  6  1  0
  7  8  2  3
  7 10  1  0
  7 11  1  0
  8  9  1  0
  8 12  1  0
M  RAD  1   9   2
M  END
>  <reaction>  (9) 
rxn_1845

>  <mol_properties>  (9) 
{"0": {"label": "*3", "atom_type": "Cs"}, "1": {"label": "*4", "atom_type": "S2s"}, "2": {"label": "*2", "atom_type": "H0"}, "6": {"label": "*1", "atom_type": "Cs"}, "7": {"label": "*0", "atom_type": "CS"}}

>  <type>  (9) 
unop_5

>  <geom_source>  (9) 
Heuristics

$$$$

     RDKit          3D

 12 10  0  0  0  0  0  0  0  0999 V2000
   -0.8782   -1.4625   -0.4286 C   0  0  0  0  0  0  0  0  0  0  0  0
   -0.8782   -1.4625   -2.2393 S   0  0  0  0  0  0  0  0  0  0  0  0
   -0.8782   -0.2467    0.0472 H   0  0  0  0  0  0  0  0  0  0  0  0
   -1.7989   -1.9566   -0.1227 H   0  0  0  0  0  0  0  0  0  0  0  0
   -0.0338   -2.0225   -0.0321 H   0  0  0  0  0  0  0  0  0  0  0  0
    0.2921   -0.8344   -2.4057 H   0  0  0  0  0  0  0  0  0  0  0  0
   -0.8782    0.9763    0.5257 C   0  0  0  0  0  0  0  0  0  0  0  0
    0.5239    1.4407    0.7075 C   0  0  0  0  0  0  0  0  0  0  0  0
    1.4751    1.1293    1.9643 S   0  0  0  0  0  1  0  0  0  0  0  0
   -1.5377    1.8407    0.4015 H   0  0  0  0  0  0  0  0  0  0  0  0
   -1.2161    0.3751    1.3671 H   0  0  0  0  0  0  0  0  0  0  0  0
    0.9108    2.0496   -0.1119 H   0  0  0  0  0  0  0  0  0  0  0  0
  1  2  1  0
  1  3  1  0
  1  4  1  0
  1  5  1  0
  2  6  1  0
  7  8  2  3
  7 10  1  0
  7 11  1  0
  8  9  1  0
  8 12  1  0
M  RAD  1   9   2
M  END
>  <reaction>  (10) 
rxn_1845

>  <mol_properties>  (10) 
{"0": {"label": "*3", "atom_type": "Cs"}, "1": {"label": "*4", "atom_type": "S2s"}, "2": {"label": "*2", "atom_type": "H0"}, "6": {"label": "*1", "atom_type": "Cs"}, "7": {"label": "*0", "atom_type": "CS"}}

>  <type>  (10) 
unop_6

>  <geom_source>  (10) 
Heuristics

$$$$

     RDKit          3D

 12 10  0  0  0  0  0  0  0  0999 V2000
   -0.5721   -1.3226   -0.7853 C   0  0  0  0  0  0  0  0  0  0  0  0
   -0.5721   -1.3226   -2.5959 S   0  0  0  0  0  0  0  0  0  0  0  0
   -0.5721   -0.1068   -0.3095 H   0  0  0  0  0  0  0  0  0  0  0  0
   -1.4928   -1.8168   -0.4793 H   0  0  0  0  0  0  0  0  0  0  0  0
    0.2722   -1.8826   -0.3888 H   0  0  0  0  0  0  0  0  0  0  0  0
    0.5982   -0.6945   -2.7623 H   0  0  0  0  0  0  0  0  0  0  0  0
   -0.5721    1.1162    0.1691 C   0  0  0  0  0  0  0  0  0  0  0  0
    0.6421    1.3252    1.0037 C   0  0  0  0  0  0  0  0  0  0  0  0
    0.8243    0.9021    2.5429 S   0  0  0  0  0  1  0  0  0  0  0  0
   -0.9284    2.0798   -0.2078 H   0  0  0  0  0  0  0  0  0  0  0  0
   -1.3658    0.6247    0.7278 H   0  0  0  0  0  0  0  0  0  0  0  0
    1.4694    1.8161    0.4876 H   0  0  0  0  0  0  0  0  0  0  0  0
  1  2  1  0
  1  3  1  0
  1  4  1  0
  1  5  1  0
  2  6  1  0
  7  8  2  3
  7 10  1  0
  7 11  1  0
  8  9  1  0
  8 12  1  0
M  RAD  1   9   2
M  END
>  <reaction>  (11) 
rxn_1845

>  <mol_properties>  (11) 
{"0": {"label": "*3", "atom_type": "Cs"}, "1": {"label": "*4", "atom_type": "S2s"}, "2": {"label": "*2", "atom_type": "H0"}, "6": {"label": "*1", "atom_type": "Cs"}, "7": {"label": "*0", "atom_type": "CS"}}

>  <type>  (11) 
unop_7

>  <geom_source>  (11) 
Heuristics

$$$$

     RDKit          3D

 12 10  0  0  0  0  0  0  0  0999 V2000
    0.7228   -1.9968   -0.1032 C   0  0  0  0  0  0  0  0  0  0  0  0
    0.7228   -1.9968   -1.9139 S   0  0  0  0  0  0  0  0  0  0  0  0
    0.7228   -0.7810    0.3725 H   0  0  0  0  0  0  0  0  0  0  0  0
   -0.1979   -2.4909    0.2027 H   0  0  0  0  0  0  0  0  0  0  0  0
    1.5671   -2.5568    0.2932 H   0  0  0  0  0  0  0  0  0  0  0  0
    1.8931   -1.3687   -2.0803 H   0  0  0  0  0  0  0  0  0  0  0  0
    0.7228    0.4420    0.8511 C   0  0  0  0  0  0  0  0  0  0  0  0
   -0.6793    0.9064    1.0329 C   0  0  0  0  0  0  0  0  0  0  0  0
   -1.1673    2.4309    1.1716 S   0  0  0  0  0  1  0  0  0  0  0  0
    0.9930   -0.2363    1.6663 H   0  0  0  0  0  0  0  0  0  0  0  0
    1.4225    1.2745    0.8194 H   0  0  0  0  0  0  0  0  0  0  0  0
   -1.4216    0.1069    1.0711 H   0  0  0  0  0  0  0  0  0  0  0  0
  1  2  1  0
  1  3  1  0
  1  4  1  0
  1  5  1  0
  2  6  1  0
  7  8  2  3
  7 10  1  0
  7 11  1  0
  8  9  1  0
  8 12  1  0
M  RAD  1   9   2
M  END
>  <reaction>  (12) 
rxn_1845

>  <mol_properties>  (12) 
{"0": {"label": "*3", "atom_type": "Cs"}, "1": {"label": "*4", "atom_type": "S2s"}, "2": {"label": "*2", "atom_type": "H0"}, "6": {"label": "*1", "atom_type": "Cs"}, "7": {"label": "*0", "atom_type": "CS"}}

>  <type>  (12) 
unop_8

>  <geom_source>  (12) 
Heuristics

$$$$

     RDKit          3D

 12 10  0  0  0  0  0  0  0  0999 V2000
   -0.7407   -1.9137    0.3688 C   0  0  0  0  0  0  0  0  0  0  0  0
   -0.7407   -1.9137   -1.4419 S   0  0  0  0  0  0  0  0  0  0  0  0
   -0.7407   -0.6979    0.8446 H   0  0  0  0  0  0  0  0  0  0  0  0
   -1.6613   -2.4078    0.6747 H   0  0  0  0  0  0  0  0  0  0  0  0
    0.1037   -2.4737    0.7653 H   0  0  0  0  0  0  0  0  0  0  0  0
    0.4297   -1.2855   -1.6083 H   0  0  0  0  0  0  0  0  0  0  0  0
   -0.7407    0.5251    1.3231 C   0  0  0  0  0  0  0  0  0  0  0  0
   -0.0396    1.4320    0.3741 C   0  0  0  0  0  0  0  0  0  0  0  0
    1.4465    2.0198    0.5400 S   0  0  0  0  0  1  0  0  0  0  0  0
   -1.6715    0.9931    1.6579 H   0  0  0  0  0  0  0  0  0  0  0  0
   -0.1205    0.2850    2.1842 H   0  0  0  0  0  0  0  0  0  0  0  0
   -0.6213    1.7034   -0.5089 H   0  0  0  0  0  0  0  0  0  0  0  0
  1  2  1  0
  1  3  1  0
  1  4  1  0
  1  5  1  0
  2  6  1  0
  7  8  2  3
  7 10  1  0
  7 11  1  0
  8  9  1  0
  8 12  1  0
M  RAD  1   9   2
M  END
>  <reaction>  (13) 
rxn_1845

>  <mol_properties>  (13) 
{"0": {"label": "*3", "atom_type": "Cs"}, "1": {"label": "*4", "atom_type": "S2s"}, "2": {"label": "*2", "atom_type": "H0"}, "6": {"label": "*1", "atom_type": "Cs"}, "7": {"label": "*0", "atom_type": "CS"}}

>  <type>  (13) 
unop_9

>  <geom_source>  (13) 
Heuristics

$$$$

     RDKit          3D

 12 10  0  0  0  0  0  0  0  0999 V2000
    0.5482   -2.1242    0.2687 C   0  0  0  0  0  0  0  0  0  0  0  0
    0.5482   -2.1242   -1.5419 S   0  0  0  0  0  0  0  0  0  0  0  0
    0.5482   -0.9084    0.7445 H   0  0  0  0  0  0  0  0  0  0  0  0
   -0.3725   -2.6184    0.5747 H   0  0  0  0  0  0  0  0  0  0  0  0
    1.3926   -2.6842    0.6652 H   0  0  0  0  0  0  0  0  0  0  0  0
    1.7185   -1.4961   -1.7083 H   0  0  0  0  0  0  0  0  0  0  0  0
    0.5482    0.3146    1.2231 C   0  0  0  0  0  0  0  0  0  0  0  0
   -0.6661    1.0345    0.7520 C   0  0  0  0  0  0  0  0  0  0  0  0
   -0.8182    2.6227    0.5625 S   0  0  0  0  0  1  0  0  0  0  0  0
    0.3065   -0.2645    2.1197 H   0  0  0  0  0  0  0  0  0  0  0  0
    1.3653    0.9999    1.4382 H   0  0  0  0  0  0  0  0  0  0  0  0
   -1.5163    0.3895    0.5222 H   0  0  0  0  0  0  0  0  0  0  0  0
  1  2  1  0
  1  3  1  0
  1  4  1  0
  1  5  1  0
  2  6  1  0
  7  8  2  3
  7 10  1  0
  7 11  1  0
  8  9  1  0
  8 12  1  0
M  RAD  1   9   2
M  END
>  <reaction>  (14) 
rxn_1845

>  <mol_properties>  (14) 
{"0": {"label": "*3", "atom_type": "Cs"}, "1": {"label": "*4", "atom_type": "S2s"}, "2": {"label": "*2", "atom_type": "H0"}, "6": {"label": "*1", "atom_type": "Cs"}, "7": {"label": "*0", "atom_type": "CS"}}

>  <type>  (14) 
unop_10

>  <geom_source>  (14) 
Heuristics

$$$$

     RDKit          3D

 12 10  0  0  0  0  0  0  0  0999 V2000
   -0.1026   -1.3304   -0.9573 C   0  0  0  0  0  0  0  0  0  0  0  0
   -0.1026   -1.3304   -2.7680 S   0  0  0  0  0  0  0  0  0  0  0  0
   -0.1026   -0.1146   -0.4815 H   0  0  0  0  0  0  0  0  0  0  0  0
   -1.0233   -1.8245   -0.6514 H   0  0  0  0  0  0  0  0  0  0  0  0
    0.7418   -1.8904   -0.5608 H   0  0  0  0  0  0  0  0  0  0  0  0
    1.0677   -0.7023   -2.9344 H   0  0  0  0  0  0  0  0  0  0  0  0
   -0.1026    1.1084   -0.0030 C   0  0  0  0  0  0  0  0  0  0  0  0
    0.5984    1.1303    1.3095 C   0  0  0  0  0  0  0  0  0  0  0  0
   -0.0858    0.9976    2.7571 S   0  0  0  0  0  1  0  0  0  0  0  0
    0.1069    2.0350   -0.5462 H   0  0  0  0  0  0  0  0  0  0  0  0
   -1.1773    0.9878    0.1158 H   0  0  0  0  0  0  0  0  0  0  0  0
    1.6816    1.2496    1.2443 H   0  0  0  0  0  0  0  0  0  0  0  0
  1  2  1  0
  1  3  1  0
  1  4  1  0
  1  5  1  0
  2  6  1  0
  7  8  2  3
  7 10  1  0
  7 11  1  0
  8  9  1  0
  8 12  1  0
M  RAD  1   9   2
M  END
>  <reaction>  (15) 
rxn_1845

>  <mol_properties>  (15) 
{"0": {"label": "*3", "atom_type": "Cs"}, "1": {"label": "*4", "atom_type": "S2s"}, "2": {"label": "*2", "atom_type": "H0"}, "6": {"label": "*1", "atom_type": "Cs"}, "7": {"label": "*0", "atom_type": "CS"}}

>  <type>  (15) 
unop_11

>  <geom_source>  (15) 
Heuristics

$$$$

     RDKit          3D

 12 10  0  0  0  0  0  0  0  0999 V2000
   -0.3303   -2.1040    0.5710 C   0  0  0  0  0  0  0  0  0  0  0  0
   -0.3303   -2.1040   -1.2396 S   0  0  0  0  0  0  0  0  0  0  0  0
   -0.3303   -0.8882    1.0468 H   0  0  0  0  0  0  0  0  0  0  0  0
   -1.2510   -2.5981    0.8770 H   0  0  0  0  0  0  0  0  0  0  0  0
    0.5141   -2.6640    0.9675 H   0  0  0  0  0  0  0  0  0  0  0  0
    0.8400   -1.4759   -1.4060 H   0  0  0  0  0  0  0  0  0  0  0  0
   -0.3303    0.3348    1.5254 C   0  0  0  0  0  0  0  0  0  0  0  0
   -0.3303    1.3102    0.4015 C   0  0  0  0  0  0  0  0  0  0  0  0
    0.7692    2.4497    0.1292 S   0  0  0  0  0  1  0  0  0  0  0  0
   -1.2541    0.4402    2.1025 H   0  0  0  0  0  0  0  0  0  0  0  0
    0.5283    0.4728    2.1792 H   0  0  0  0  0  0  0  0  0  0  0  0
   -1.1737    1.2128   -0.2848 H   0  0  0  0  0  0  0  0  0  0  0  0
  1  2  1  0
  1  3  1  0
  1  4  1  0
  1  5  1  0
  2  6  1  0
  7  8  2  3
  7 10  1  0
  7 11  1  0
  8  9  1  0
  8 12  1  0
M  RAD  1   9   2
M  END
>  <reaction>  (16) 
rxn_1845

>  <mol_properties>  (16) 
{"0": {"label": "*3", "atom_type": "Cs"}, "1": {"label": "*4", "atom_type": "S2s"}, "2": {"label": "*2", "atom_type": "H0"}, "6": {"label": "*1", "atom_type": "Cs"}, "7": {"label": "*0", "atom_type": "CS"}}

>  <type>  (16) 
unop_12

>  <geom_source>  (16) 
Heuristics

$$$$

     RDKit          3D

 12 10  0  0  0  0  0  0  0  0999 V2000
   -2.4366   -0.4502   -0.6390 S   0  0  0  0  0  0  0  0  0  0  0  0
    2.1745    1.3079   -0.5515 S   0  0  0  0  0  0  0  0  0  0  0  0
    0.8515   -0.6245    0.4450 C   0  0  0  0  0  0  0  0  0  0  0  0
    1.9566   -0.1045   -0.4179 C   0  0  0  0  0  0  0  0  0  0  0  0
   -1.2703    0.8084   -0.0499 C   0  0  0  0  0  3  0  0  0  0  0  0
    0.8259   -1.7329    0.3898 H   0  0  0  0  0  0  0  0  0  0  0  0
    1.0156   -0.3242    1.5021 H   0  0  0  0  0  0  0  0  0  0  0  0
   -0.3207   -0.1462    0.0233 H   0  0  0  0  0  0  0  0  0  0  0  0
    2.5890   -0.7969   -0.9639 H   0  0  0  0  0  0  0  0  0  0  0  0
   -1.8210    1.5944    0.5071 H   0  0  0  0  0  0  0  0  0  0  0  0
   -0.7521    1.2663   -0.9174 H   0  0  0  0  0  0  0  0  0  0  0  0
   -2.8124   -0.7975    0.6723 H   0  0  0  0  0  0  0  0  0  0  0  0
  1  5  1  0
  1 12  1  0
  2  4  2  0
  3  4  1  0
  3  6  1  0
  3  7  1  0
  3  8  1  0
  4  9  1  0
  5 10  1  0
  5 11  1  0
M  RAD  1   5   2
M  END
>  <reaction>  (17) 
rxn_1845

>  <mol_properties>  (17) 
{"0": {"label": "*3", "atom_type": "Cs"}, "1": {"label": "*4", "atom_type": "S2s"}, "2": {"label": "*2", "atom_type": "H0"}, "6": {"label": "*1", "atom_type": "Cs"}, "7": {"label": "*0", "atom_type": "CS"}}

>  <type>  (17) 
unop_13

>  <geom_source>  (17) 
AutoTST

$$$$
