
     RDKit          3D

  6  5  0  0  0  0  0  0  0  0999 V2000
   -0.5072   -0.0291   -0.0097 C   0  0  0  0  0  0  0  0  0  0  0  0
    1.1321   -0.1527   -0.7687 S   0  0  0  0  0  0  0  0  0  0  0  0
   -0.6174   -0.7330    0.8127 H   0  0  0  0  0  0  0  0  0  0  0  0
   -0.5863    0.9827    0.3845 H   0  0  0  0  0  0  0  0  0  0  0  0
   -1.2962   -0.1800   -0.7434 H   0  0  0  0  0  0  0  0  0  0  0  0
    1.0312   -1.4237   -1.1764 H   0  0  0  0  0  0  0  0  0  0  0  0
  1  2  1  0
  1  3  1  0
  1  4  1  0
  1  5  1  0
  2  6  1  0
M  END
>  <reaction>  (1) 
rxn_1797

>  <mol_properties>  (1) 
{"0": {"label": "donator", "atom_type": "Cs"}, "2": {"label": "d_hydrogen", "atom_type": "H0"}}

>  <type>  (1) 
r1h

$$$$

     RDKit          3D

  1  0  0  0  0  0  0  0  0  0999 V2000
    0.0000    0.0000    0.0000 H   0  0  0  0  0 15  0  0  0  0  0  0
M  END
>  <reaction>  (2) 
rxn_1797

>  <mol_properties>  (2) 
{"0": {"label": "acceptor", "atom_type": "H0"}}

>  <type>  (2) 
r2

$$$$

     RDKit          3D

  2  1  0  0  0  0  0  0  0  0999 V2000
    0.0000    0.0000    0.3721 H   0  0  0  0  0  0  0  0  0  0  0  0
    0.0000    0.0000   -0.3721 H   0  0  0  0  0  0  0  0  0  0  0  0
  1  2  1  0
M  END
>  <reaction>  (3) 
rxn_1797

>  <mol_properties>  (3) 
{"0": {"label": "acceptor", "atom_type": "H0"}, "1": {"label": "a_hydrogen", "atom_type": "H0"}}

>  <type>  (3) 
r2h

$$$$

     RDKit          3D

  7  5  0  0  0  0  0  0  0  0999 V2000
   -0.0622    2.0036    2.0891 H   0  0  0  0  0 15  0  0  0  0  0  0
   -0.0229   -0.0632    1.1321 C   0  0  0  0  0  0  0  0  0  0  0  0
   -0.0573   -0.0003   -0.6362 S   0  0  0  0  0  0  0  0  0  0  0  0
   -0.0465    1.1069    1.6394 H   0  0  0  0  0  0  0  0  0  0  0  0
   -0.9356   -0.5265    1.4985 H   0  0  0  0  0  0  0  0  0  0  0  0
    0.8653   -0.5278    1.5521 H   0  0  0  0  0  0  0  0  0  0  0  0
    1.1958    0.4361   -0.8156 H   0  0  0  0  0  0  0  0  0  0  0  0
  2  3  1  0
  2  4  1  0
  2  5  1  0
  2  6  1  0
  3  7  1  0
M  END
>  <reaction>  (4) 
rxn_1797

>  <mol_properties>  (4) 
{"0": {"label": "*1", "atom_type": "H0"}, "1": {"label": "*3", "atom_type": "Cs"}, "2": {"label": "*4", "atom_type": "S2s"}, "3": {"label": "*2", "atom_type": "H0"}}

>  <type>  (4) 
ts

$$$$

     RDKit          3D

  7  5  0  0  0  0  0  0  0  0999 V2000
   -0.0225    1.9891    1.9823 H   0  0  0  0  0 15  0  0  0  0  0  0
   -0.0225   -0.0583    1.1811 C   0  0  0  0  0  0  0  0  0  0  0  0
   -0.0225   -0.0583   -0.6295 S   0  0  0  0  0  0  0  0  0  0  0  0
   -0.0225    1.1575    1.6569 H   0  0  0  0  0  0  0  0  0  0  0  0
   -0.9432   -0.5525    1.4871 H   0  0  0  0  0  0  0  0  0  0  0  0
    0.8219   -0.6183    1.5776 H   0  0  0  0  0  0  0  0  0  0  0  0
    1.1478    0.5698   -0.7959 H   0  0  0  0  0  0  0  0  0  0  0  0
  2  3  1  0
  2  4  1  0
  2  5  1  0
  2  6  1  0
  3  7  1  0
M  END
>  <reaction>  (5) 
rxn_1797

>  <mol_properties>  (5) 
{"0": {"label": "*1", "atom_type": "H0"}, "1": {"label": "*3", "atom_type": "Cs"}, "2": {"label": "*4", "atom_type": "S2s"}, "3": {"label": "*2", "atom_type": "H0"}}

>  <type>  (5) 
unop_1

>  <geom_source>  (5) 
Heuristics

$$$$

     RDKit          3D

  7  5  0  0  0  0  0  0  0  0999 V2000
    1.7142    0.2307   -0.0574 S   0  0  0  0  0  0  0  0  0  0  0  0
   -0.0802    0.4591   -0.1966 C   0  0  0  0  0  0  0  0  0  0  0  0
   -0.5559    0.2785    0.7895 H   0  0  0  0  0  0  0  0  0  0  0  0
   -0.2959    1.4965   -0.5251 H   0  0  0  0  0  0  0  0  0  0  0  0
    1.5715   -1.1234    0.2995 H   0  0  0  0  0  0  0  0  0  0  0  0
   -1.5822   -1.1201    0.0753 H   0  0  0  0  0 15  0  0  0  0  0  0
   -0.7715   -0.2214   -0.3852 H   0  0  0  0  0  0  0  0  0  0  0  0
  1  2  1  0
  1  5  1  0
  2  3  1  0
  2  4  1  0
  2  7  1  0
M  END
>  <reaction>  (6) 
rxn_1797

>  <mol_properties>  (6) 
{"0": {"label": "*1", "atom_type": "H0"}, "1": {"label": "*3", "atom_type": "Cs"}, "2": {"label": "*4", "atom_type": "S2s"}, "3": {"label": "*2", "atom_type": "H0"}}

>  <type>  (6) 
unop_2

>  <geom_source>  (6) 
AutoTST

$$$$
