
     RDKit          3D

 10  9  0  0  0  0  0  0  0  0999 V2000
   -1.1508    0.0666    0.2839 C   0  0  0  0  0  0  0  0  0  0  0  0
    0.1022   -0.3749   -0.4771 C   0  0  0  0  0  0  0  0  0  0  0  0
    1.3428    0.1620    0.1542 C   0  0  0  0  0  0  0  0  0  0  0  0
    2.5613   -0.6971    0.7526 S   0  0  0  0  0  0  0  0  0  0  0  0
   -1.2137    1.1546    0.3481 H   0  0  0  0  0  0  0  0  0  0  0  0
   -2.0472   -0.2935   -0.2212 H   0  0  0  0  0  0  0  0  0  0  0  0
   -1.1467   -0.3334    1.2987 H   0  0  0  0  0  0  0  0  0  0  0  0
    0.1602   -1.4616   -0.5369 H   0  0  0  0  0  0  0  0  0  0  0  0
    0.0536    0.0174   -1.4997 H   0  0  0  0  0  0  0  0  0  0  0  0
    1.3824    1.2528    0.2110 H   0  0  0  0  0  0  0  0  0  0  0  0
  1  2  1  0
  1  5  1  0
  1  6  1  0
  1  7  1  0
  2  3  1  0
  2  8  1  0
  2  9  1  0
  3  4  2  0
  3 10  1  0
M  END
>  <reaction>  (1) 
rxn_2019

>  <mol_properties>  (1) 
{"1": {"label": "donator", "atom_type": "Cs"}, "7": {"label": "d_hydrogen", "atom_type": "H0"}}

>  <type>  (1) 
r1h

$$$$

     RDKit          3D

  8  7  0  0  0  0  0  0  0  0999 V2000
   -1.0607    0.1793   -0.1423 C   0  0  0  0  0  0  0  0  0  0  0  0
    0.2796    0.0327    0.4820 C   0  0  0  0  0  3  0  0  0  0  0  0
    0.8817   -1.4663    1.0791 S   0  0  0  0  0  0  0  0  0  0  0  0
   -1.3043    1.2328   -0.2850 H   0  0  0  0  0  0  0  0  0  0  0  0
   -1.8444   -0.2641    0.4799 H   0  0  0  0  0  0  0  0  0  0  0  0
   -1.1164   -0.3100   -1.1237 H   0  0  0  0  0  0  0  0  0  0  0  0
    1.0449    0.7826    0.3391 H   0  0  0  0  0  0  0  0  0  0  0  0
   -0.2993   -2.0726    1.2718 H   0  0  0  0  0  0  0  0  0  0  0  0
  1  2  1  0
  1  4  1  0
  1  5  1  0
  1  6  1  0
  2  3  1  0
  2  7  1  0
  3  8  1  0
M  RAD  1   2   2
M  END
>  <reaction>  (2) 
rxn_2019

>  <mol_properties>  (2) 
{"1": {"label": "acceptor", "atom_type": "Cs"}}

>  <type>  (2) 
r2

$$$$

     RDKit          3D

  9  8  0  0  0  0  0  0  0  0999 V2000
   -0.8818   -0.3578    0.1297 C   0  0  0  0  0  0  0  0  0  0  0  0
    0.6153   -0.3021   -0.1188 C   0  0  0  0  0  0  0  0  0  0  0  0
    1.5354   -1.7170    0.5545 S   0  0  0  0  0  0  0  0  0  0  0  0
   -1.1018   -0.3317    1.1984 H   0  0  0  0  0  0  0  0  0  0  0  0
   -1.3114   -1.2723   -0.2799 H   0  0  0  0  0  0  0  0  0  0  0  0
   -1.3767    0.4976   -0.3363 H   0  0  0  0  0  0  0  0  0  0  0  0
    1.0467    0.6194    0.2718 H   0  0  0  0  0  0  0  0  0  0  0  0
    0.8295   -0.3275   -1.1882 H   0  0  0  0  0  0  0  0  0  0  0  0
    1.2306   -1.5077    1.8423 H   0  0  0  0  0  0  0  0  0  0  0  0
  1  2  1  0
  1  4  1  0
  1  5  1  0
  1  6  1  0
  2  3  1  0
  2  7  1  0
  2  8  1  0
  3  9  1  0
M  END
>  <reaction>  (3) 
rxn_2019

>  <mol_properties>  (3) 
{"1": {"label": "acceptor", "atom_type": "Cs"}, "8": {"label": "a_hydrogen", "atom_type": "H0"}}

>  <type>  (3) 
r2h

$$$$

     RDKit          3D

 18 16  0  0  0  0  0  0  0  0999 V2000
   -1.9101   -0.7777   -0.1869 C   0  0  0  0  0  0  0  0  0  0  0  0
   -0.6436   -1.3810    0.3448 C   0  0  0  0  0  3  0  0  0  0  0  0
   -0.1282   -0.9973    1.9736 S   0  0  0  0  0  0  0  0  0  0  0  0
   -2.0710   -1.0799   -1.2223 H   0  0  0  0  0  0  0  0  0  0  0  0
   -1.8625    0.3132   -0.1552 H   0  0  0  0  0  0  0  0  0  0  0  0
   -2.7745   -1.0973    0.4024 H   0  0  0  0  0  0  0  0  0  0  0  0
   -0.4959   -2.4408    0.1515 H   0  0  0  0  0  0  0  0  0  0  0  0
   -0.4591    0.3028    1.9469 H   0  0  0  0  0  0  0  0  0  0  0  0
    0.4130    0.0765   -2.5408 C   0  0  0  0  0  0  0  0  0  0  0  0
    1.1597   -0.0981   -1.2400 C   0  0  0  0  0  0  0  0  0  0  0  0
    1.4365    1.0480   -0.4056 C   0  0  0  0  0  0  0  0  0  0  0  0
    0.6180    2.4638   -0.3867 S   0  0  0  0  0  0  0  0  0  0  0  0
    1.0438    0.5762   -3.2793 H   0  0  0  0  0  0  0  0  0  0  0  0
    0.1173   -0.8918   -2.9475 H   0  0  0  0  0  0  0  0  0  0  0  0
   -0.4762    0.6903   -2.4036 H   0  0  0  0  0  0  0  0  0  0  0  0
    0.3834   -0.7668   -0.4923 H   0  0  0  0  0  0  0  0  0  0  0  0
    2.0079   -0.7812   -1.3035 H   0  0  0  0  0  0  0  0  0  0  0  0
    2.2342    0.9024    0.3219 H   0  0  0  0  0  0  0  0  0  0  0  0
  1  2  1  0
  1  4  1  0
  1  5  1  0
  1  6  1  0
  2  3  1  0
  2  7  1  0
  3  8  1  0
  9 10  1  0
  9 13  1  0
  9 14  1  0
  9 15  1  0
 10 11  1  0
 10 16  1  0
 10 17  1  0
 11 12  2  0
 11 18  1  0
M  RAD  1   2   2
M  END
>  <reaction>  (4) 
rxn_2019

>  <mol_properties>  (4) 
{"1": {"label": "*3", "atom_type": "Cs"}, "2": {"label": "*4", "atom_type": "S2s"}, "9": {"label": "*1", "atom_type": "Cs"}, "10": {"label": "*0", "atom_type": "CS"}, "15": {"label": "*2", "atom_type": "H0"}}

>  <type>  (4) 
ts

$$$$

     RDKit          3D

 18 16  0  0  0  0  0  0  0  0999 V2000
   -0.0537   -2.3502    1.1718 C   0  0  0  0  0  0  0  0  0  0  0  0
   -0.4964   -1.1779    0.3138 C   0  0  0  0  0  0  0  0  0  0  0  0
   -2.2313   -1.2590   -0.2205 S   0  0  0  0  0  0  0  0  0  0  0  0
    0.9824   -2.2172    1.4921 H   0  0  0  0  0  0  0  0  0  0  0  0
   -0.1153   -3.2871    0.6152 H   0  0  0  0  0  0  0  0  0  0  0  0
   -0.6814   -2.4438    2.0583 H   0  0  0  0  0  0  0  0  0  0  0  0
   -0.4319   -0.2443    0.8745 H   0  0  0  0  0  0  0  0  0  0  0  0
   -2.1275   -2.3911   -0.9295 H   0  0  0  0  0  0  0  0  0  0  0  0
    1.5589    0.1407   -2.1546 C   0  0  0  0  0  0  0  0  0  0  0  0
    1.5589    0.1407   -0.6235 C   0  0  0  0  0  0  0  0  0  0  0  0
    1.5589    1.5289   -0.0768 C   0  0  0  0  0  0  0  0  0  0  0  0
    0.4393    2.1846    0.8707 S   0  0  0  0  0  1  0  0  0  0  0  0
    2.4141    0.6909   -2.5517 H   0  0  0  0  0  0  0  0  0  0  0  0
    1.6097   -0.8802   -2.5332 H   0  0  0  0  0  0  0  0  0  0  0  0
    0.6494    0.6031   -2.5402 H   0  0  0  0  0  0  0  0  0  0  0  0
    0.5312   -0.5186   -0.1548 H   0  0  0  0  0  0  0  0  0  0  0  0
    2.4692   -0.3560   -0.2681 H   0  0  0  0  0  0  0  0  0  0  0  0
    2.4143    2.1342   -0.3871 H   0  0  0  0  0  0  0  0  0  0  0  0
  1  2  1  0
  1  4  1  0
  1  5  1  0
  1  6  1  0
  2  3  1  0
  2  7  1  0
  2 16  1  0
  3  8  1  0
  9 10  1  0
  9 13  1  0
  9 14  1  0
  9 15  1  0
 10 11  2  3
 10 17  1  0
 11 12  1  0
 11 18  1  0
M  RAD  1  12   2
M  END
>  <reaction>  (5) 
rxn_2019

>  <mol_properties>  (5) 
{"1": {"label": "*3", "atom_type": "Cs"}, "2": {"label": "*4", "atom_type": "S2s"}, "9": {"label": "*1", "atom_type": "Cs"}, "10": {"label": "*0", "atom_type": "CS"}, "15": {"label": "*2", "atom_type": "H0"}}

>  <type>  (5) 
unop_1

>  <geom_source>  (5) 
Heuristics

$$$$

     RDKit          3D

 18 16  0  0  0  0  0  0  0  0999 V2000
   -0.8998   -2.5265   -0.7484 C   0  0  0  0  0  0  0  0  0  0  0  0
   -0.4797   -1.4161    0.1986 C   0  0  0  0  0  0  0  0  0  0  0  0
   -1.8653   -0.5603    1.0046 S   0  0  0  0  0  0  0  0  0  0  0  0
   -0.0208   -3.0249   -1.1639 H   0  0  0  0  0  0  0  0  0  0  0  0
   -1.4853   -2.1302   -1.5799 H   0  0  0  0  0  0  0  0  0  0  0  0
   -1.5084   -3.2696   -0.2326 H   0  0  0  0  0  0  0  0  0  0  0  0
    0.1059   -1.8174    1.0270 H   0  0  0  0  0  0  0  0  0  0  0  0
   -2.4298   -0.0825   -0.1126 H   0  0  0  0  0  0  0  0  0  0  0  0
    1.5756   -0.0974   -2.2697 C   0  0  0  0  0  0  0  0  0  0  0  0
    1.5756   -0.0974   -0.7386 C   0  0  0  0  0  0  0  0  0  0  0  0
    1.5756    1.2908   -0.1920 C   0  0  0  0  0  0  0  0  0  0  0  0
    0.4560    1.9465    0.7556 S   0  0  0  0  0  1  0  0  0  0  0  0
    2.4308    0.4528   -2.6668 H   0  0  0  0  0  0  0  0  0  0  0  0
    1.6264   -1.1183   -2.6484 H   0  0  0  0  0  0  0  0  0  0  0  0
    0.6661    0.3650   -2.6554 H   0  0  0  0  0  0  0  0  0  0  0  0
    0.5479   -0.7568   -0.2700 H   0  0  0  0  0  0  0  0  0  0  0  0
    2.4859   -0.5941   -0.3832 H   0  0  0  0  0  0  0  0  0  0  0  0
    2.4310    1.8960   -0.5023 H   0  0  0  0  0  0  0  0  0  0  0  0
  1  2  1  0
  1  4  1  0
  1  5  1  0
  1  6  1  0
  2  3  1  0
  2  7  1  0
  2 16  1  0
  3  8  1  0
  9 10  1  0
  9 13  1  0
  9 14  1  0
  9 15  1  0
 10 11  2  3
 10 17  1  0
 11 12  1  0
 11 18  1  0
M  RAD  1  12   2
M  END
>  <reaction>  (6) 
rxn_2019

>  <mol_properties>  (6) 
{"1": {"label": "*3", "atom_type": "Cs"}, "2": {"label": "*4", "atom_type": "S2s"}, "9": {"label": "*1", "atom_type": "Cs"}, "10": {"label": "*0", "atom_type": "CS"}, "15": {"label": "*2", "atom_type": "H0"}}

>  <type>  (6) 
unop_2

>  <geom_source>  (6) 
Heuristics

$$$$

     RDKit          3D

 18 16  0  0  0  0  0  0  0  0999 V2000
   -0.2746   -1.6842    1.6996 C   0  0  0  0  0  0  0  0  0  0  0  0
   -0.5938   -1.0482    0.3580 C   0  0  0  0  0  0  0  0  0  0  0  0
   -1.8736   -1.9189   -0.5936 S   0  0  0  0  0  0  0  0  0  0  0  0
    0.4686   -1.0889    2.2355 H   0  0  0  0  0  0  0  0  0  0  0  0
    0.1309   -2.6891    1.5691 H   0  0  0  0  0  0  0  0  0  0  0  0
   -1.1693   -1.7602    2.3180 H   0  0  0  0  0  0  0  0  0  0  0  0
   -0.9976   -0.0439    0.4942 H   0  0  0  0  0  0  0  0  0  0  0  0
   -1.2123   -3.0761   -0.7295 H   0  0  0  0  0  0  0  0  0  0  0  0
    1.4615    0.2705   -2.1103 C   0  0  0  0  0  0  0  0  0  0  0  0
    1.4615    0.2705   -0.5793 C   0  0  0  0  0  0  0  0  0  0  0  0
    1.4615    1.6587   -0.0326 C   0  0  0  0  0  0  0  0  0  0  0  0
    0.3420    2.3144    0.9149 S   0  0  0  0  0  1  0  0  0  0  0  0
    2.3167    0.8207   -2.5075 H   0  0  0  0  0  0  0  0  0  0  0  0
    1.5123   -0.7504   -2.4890 H   0  0  0  0  0  0  0  0  0  0  0  0
    0.5520    0.7329   -2.4960 H   0  0  0  0  0  0  0  0  0  0  0  0
    0.4338   -0.3888   -0.1106 H   0  0  0  0  0  0  0  0  0  0  0  0
    2.3719   -0.2262   -0.2238 H   0  0  0  0  0  0  0  0  0  0  0  0
    2.3170    2.2640   -0.3429 H   0  0  0  0  0  0  0  0  0  0  0  0
  1  2  1  0
  1  4  1  0
  1  5  1  0
  1  6  1  0
  2  3  1  0
  2  7  1  0
  2 16  1  0
  3  8  1  0
  9 10  1  0
  9 13  1  0
  9 14  1  0
  9 15  1  0
 10 11  2  3
 10 17  1  0
 11 12  1  0
 11 18  1  0
M  RAD  1  12   2
M  END
>  <reaction>  (7) 
rxn_2019

>  <mol_properties>  (7) 
{"1": {"label": "*3", "atom_type": "Cs"}, "2": {"label": "*4", "atom_type": "S2s"}, "9": {"label": "*1", "atom_type": "Cs"}, "10": {"label": "*0", "atom_type": "CS"}, "15": {"label": "*2", "atom_type": "H0"}}

>  <type>  (7) 
unop_3

>  <geom_source>  (7) 
Heuristics

$$$$

     RDKit          3D

 18 16  0  0  0  0  0  0  0  0999 V2000
   -2.1678   -0.9465   -0.5151 C   0  0  0  0  0  0  0  0  0  0  0  0
   -0.8598   -1.5636   -0.0518 C   0  0  0  0  0  0  0  0  0  0  0  0
   -0.2642   -0.9350    1.5457 S   0  0  0  0  0  0  0  0  0  0  0  0
   -2.4888   -1.3981   -1.4568 H   0  0  0  0  0  0  0  0  0  0  0  0
   -2.0572    0.1270   -0.6782 H   0  0  0  0  0  0  0  0  0  0  0  0
   -2.9534   -1.0949    0.2261 H   0  0  0  0  0  0  0  0  0  0  0  0
   -0.9757   -2.6365    0.1087 H   0  0  0  0  0  0  0  0  0  0  0  0
   -0.1129    0.3418    1.1688 H   0  0  0  0  0  0  0  0  0  0  0  0
    1.1954   -0.2449   -2.5201 C   0  0  0  0  0  0  0  0  0  0  0  0
    1.1954   -0.2449   -0.9891 C   0  0  0  0  0  0  0  0  0  0  0  0
    1.1954    1.1433   -0.4424 C   0  0  0  0  0  0  0  0  0  0  0  0
    0.0759    1.7990    0.5052 S   0  0  0  0  0  1  0  0  0  0  0  0
    2.0506    0.3052   -2.9172 H   0  0  0  0  0  0  0  0  0  0  0  0
    1.2463   -1.2658   -2.8988 H   0  0  0  0  0  0  0  0  0  0  0  0
    0.2860    0.2175   -2.9058 H   0  0  0  0  0  0  0  0  0  0  0  0
    0.1678   -0.9043   -0.5204 H   0  0  0  0  0  0  0  0  0  0  0  0
    2.1058   -0.7416   -0.6336 H   0  0  0  0  0  0  0  0  0  0  0  0
    2.0509    1.7485   -0.7527 H   0  0  0  0  0  0  0  0  0  0  0  0
  1  2  1  0
  1  4  1  0
  1  5  1  0
  1  6  1  0
  2  3  1  0
  2  7  1  0
  2 16  1  0
  3  8  1  0
  9 10  1  0
  9 13  1  0
  9 14  1  0
  9 15  1  0
 10 11  2  3
 10 17  1  0
 11 12  1  0
 11 18  1  0
M  RAD  1  12   2
M  END
>  <reaction>  (8) 
rxn_2019

>  <mol_properties>  (8) 
{"1": {"label": "*3", "atom_type": "Cs"}, "2": {"label": "*4", "atom_type": "S2s"}, "9": {"label": "*1", "atom_type": "Cs"}, "10": {"label": "*0", "atom_type": "CS"}, "15": {"label": "*2", "atom_type": "H0"}}

>  <type>  (8) 
unop_4

>  <geom_source>  (8) 
Heuristics

$$$$

     RDKit          3D

 18 16  0  0  0  0  0  0  0  0999 V2000
   -0.8665   -0.9359    1.8056 C   0  0  0  0  0  0  0  0  0  0  0  0
   -0.8607   -0.9322    0.2870 C   0  0  0  0  0  0  0  0  0  0  0  0
   -0.8923   -2.5873   -0.4622 S   0  0  0  0  0  0  0  0  0  0  0  0
   -0.8897    0.0873    2.1883 H   0  0  0  0  0  0  0  0  0  0  0  0
    0.0288   -1.4210    2.1986 H   0  0  0  0  0  0  0  0  0  0  0  0
   -1.7352   -1.4701    2.1911 H   0  0  0  0  0  0  0  0  0  0  0  0
   -1.7569   -0.4454   -0.1004 H   0  0  0  0  0  0  0  0  0  0  0  0
    0.2720   -3.0146    0.0447 H   0  0  0  0  0  0  0  0  0  0  0  0
    1.1946    0.3865   -2.1814 C   0  0  0  0  0  0  0  0  0  0  0  0
    1.1946    0.3865   -0.6503 C   0  0  0  0  0  0  0  0  0  0  0  0
    1.1946    1.7747   -0.1036 C   0  0  0  0  0  0  0  0  0  0  0  0
    0.0750    2.4304    0.8439 S   0  0  0  0  0  1  0  0  0  0  0  0
    2.0498    0.9367   -2.5785 H   0  0  0  0  0  0  0  0  0  0  0  0
    1.2454   -0.6344   -2.5601 H   0  0  0  0  0  0  0  0  0  0  0  0
    0.2851    0.8489   -2.5670 H   0  0  0  0  0  0  0  0  0  0  0  0
    0.1669   -0.2728   -0.1817 H   0  0  0  0  0  0  0  0  0  0  0  0
    2.1049   -0.1102   -0.2949 H   0  0  0  0  0  0  0  0  0  0  0  0
    2.0500    2.3800   -0.4140 H   0  0  0  0  0  0  0  0  0  0  0  0
  1  2  1  0
  1  4  1  0
  1  5  1  0
  1  6  1  0
  2  3  1  0
  2  7  1  0
  2 16  1  0
  3  8  1  0
  9 10  1  0
  9 13  1  0
  9 14  1  0
  9 15  1  0
 10 11  2  3
 10 17  1  0
 11 12  1  0
 11 18  1  0
M  RAD  1  12   2
M  END
>  <reaction>  (9) 
rxn_2019

>  <mol_properties>  (9) 
{"1": {"label": "*3", "atom_type": "Cs"}, "2": {"label": "*4", "atom_type": "S2s"}, "9": {"label": "*1", "atom_type": "Cs"}, "10": {"label": "*0", "atom_type": "CS"}, "15": {"label": "*2", "atom_type": "H0"}}

>  <type>  (9) 
unop_5

>  <geom_source>  (9) 
Heuristics

$$$$

     RDKit          3D

 18 16  0  0  0  0  0  0  0  0999 V2000
   -2.2098   -0.5300    0.1184 C   0  0  0  0  0  0  0  0  0  0  0  0
   -1.0129   -1.4437   -0.0789 C   0  0  0  0  0  0  0  0  0  0  0  0
    0.1569   -1.4497    1.3115 S   0  0  0  0  0  0  0  0  0  0  0  0
   -2.8911   -0.6067   -0.7324 H   0  0  0  0  0  0  0  0  0  0  0  0
   -1.8962    0.5118    0.2044 H   0  0  0  0  0  0  0  0  0  0  0  0
   -2.7559   -0.7928    1.0247 H   0  0  0  0  0  0  0  0  0  0  0  0
   -1.3321   -2.4833   -0.1653 H   0  0  0  0  0  0  0  0  0  0  0  0
    0.4948   -0.1551    1.2418 H   0  0  0  0  0  0  0  0  0  0  0  0
    1.0424   -0.1250   -2.5473 C   0  0  0  0  0  0  0  0  0  0  0  0
    1.0424   -0.1250   -1.0162 C   0  0  0  0  0  0  0  0  0  0  0  0
    1.0424    1.2632   -0.4695 C   0  0  0  0  0  0  0  0  0  0  0  0
   -0.0772    1.9189    0.4780 S   0  0  0  0  0  1  0  0  0  0  0  0
    1.8976    0.4252   -2.9444 H   0  0  0  0  0  0  0  0  0  0  0  0
    1.0932   -1.1459   -2.9259 H   0  0  0  0  0  0  0  0  0  0  0  0
    0.1329    0.3374   -2.9329 H   0  0  0  0  0  0  0  0  0  0  0  0
    0.0147   -0.7844   -0.5476 H   0  0  0  0  0  0  0  0  0  0  0  0
    1.9527   -0.6217   -0.6608 H   0  0  0  0  0  0  0  0  0  0  0  0
    1.8978    1.8684   -0.7799 H   0  0  0  0  0  0  0  0  0  0  0  0
  1  2  1  0
  1  4  1  0
  1  5  1  0
  1  6  1  0
  2  3  1  0
  2  7  1  0
  2 16  1  0
  3  8  1  0
  9 10  1  0
  9 13  1  0
  9 14  1  0
  9 15  1  0
 10 11  2  3
 10 17  1  0
 11 12  1  0
 11 18  1  0
M  RAD  1  12   2
M  END
>  <reaction>  (10) 
rxn_2019

>  <mol_properties>  (10) 
{"1": {"label": "*3", "atom_type": "Cs"}, "2": {"label": "*4", "atom_type": "S2s"}, "9": {"label": "*1", "atom_type": "Cs"}, "10": {"label": "*0", "atom_type": "CS"}, "15": {"label": "*2", "atom_type": "H0"}}

>  <type>  (10) 
unop_6

>  <geom_source>  (10) 
Heuristics

$$$$

     RDKit          3D

 18 16  0  0  0  0  0  0  0  0999 V2000
   -1.9908   -0.3755    0.8248 C   0  0  0  0  0  0  0  0  0  0  0  0
   -1.1097   -1.2665   -0.0332 C   0  0  0  0  0  0  0  0  0  0  0  0
    0.3047   -1.9883    0.8502 S   0  0  0  0  0  0  0  0  0  0  0  0
   -2.8420   -0.0107    0.2450 H   0  0  0  0  0  0  0  0  0  0  0  0
   -1.4352    0.4913    1.1870 H   0  0  0  0  0  0  0  0  0  0  0  0
   -2.3688   -0.9187    1.6913 H   0  0  0  0  0  0  0  0  0  0  0  0
   -1.6702   -2.1305   -0.3932 H   0  0  0  0  0  0  0  0  0  0  0  0
    0.9070   -0.8322    1.1594 H   0  0  0  0  0  0  0  0  0  0  0  0
    0.9455    0.0522   -2.5015 C   0  0  0  0  0  0  0  0  0  0  0  0
    0.9455    0.0522   -0.9705 C   0  0  0  0  0  0  0  0  0  0  0  0
    0.9455    1.4403   -0.4238 C   0  0  0  0  0  0  0  0  0  0  0  0
   -0.1740    2.0960    0.5238 S   0  0  0  0  0  1  0  0  0  0  0  0
    1.8007    0.6023   -2.8986 H   0  0  0  0  0  0  0  0  0  0  0  0
    0.9964   -0.9687   -2.8802 H   0  0  0  0  0  0  0  0  0  0  0  0
    0.0360    0.5145   -2.8872 H   0  0  0  0  0  0  0  0  0  0  0  0
   -0.0821   -0.6072   -0.5018 H   0  0  0  0  0  0  0  0  0  0  0  0
    1.8559   -0.4445   -0.6150 H   0  0  0  0  0  0  0  0  0  0  0  0
    1.8010    2.0456   -0.7341 H   0  0  0  0  0  0  0  0  0  0  0  0
  1  2  1  0
  1  4  1  0
  1  5  1  0
  1  6  1  0
  2  3  1  0
  2  7  1  0
  2 16  1  0
  3  8  1  0
  9 10  1  0
  9 13  1  0
  9 14  1  0
  9 15  1  0
 10 11  2  3
 10 17  1  0
 11 12  1  0
 11 18  1  0
M  RAD  1  12   2
M  END
>  <reaction>  (11) 
rxn_2019

>  <mol_properties>  (11) 
{"1": {"label": "*3", "atom_type": "Cs"}, "2": {"label": "*4", "atom_type": "S2s"}, "9": {"label": "*1", "atom_type": "Cs"}, "10": {"label": "*0", "atom_type": "CS"}, "15": {"label": "*2", "atom_type": "H0"}}

>  <type>  (11) 
unop_7

>  <geom_source>  (11) 
Heuristics

$$$$

     RDKit          3D

 18 16  0  0  0  0  0  0  0  0999 V2000
   -0.1402   -2.7219    0.4618 C   0  0  0  0  0  0  0  0  0  0  0  0
   -0.4718   -1.2531    0.2645 C   0  0  0  0  0  0  0  0  0  0  0  0
   -2.2515   -0.8864    0.2516 S   0  0  0  0  0  0  0  0  0  0  0  0
    0.9422   -2.8653    0.5021 H   0  0  0  0  0  0  0  0  0  0  0  0
   -0.5281   -3.3241   -0.3616 H   0  0  0  0  0  0  0  0  0  0  0  0
   -0.5746   -3.0989    1.3880 H   0  0  0  0  0  0  0  0  0  0  0  0
   -0.0810   -0.6558    1.0896 H   0  0  0  0  0  0  0  0  0  0  0  0
   -2.5583   -1.6211   -0.8259 H   0  0  0  0  0  0  0  0  0  0  0  0
    1.5834    0.0656   -2.2038 C   0  0  0  0  0  0  0  0  0  0  0  0
    1.5834    0.0656   -0.6728 C   0  0  0  0  0  0  0  0  0  0  0  0
    1.5834    1.4538   -0.1261 C   0  0  0  0  0  0  0  0  0  0  0  0
    0.4639    2.1095    0.8215 S   0  0  0  0  0  1  0  0  0  0  0  0
    2.4386    0.6158   -2.6009 H   0  0  0  0  0  0  0  0  0  0  0  0
    1.6343   -0.9553   -2.5825 H   0  0  0  0  0  0  0  0  0  0  0  0
    0.6739    0.5280   -2.5895 H   0  0  0  0  0  0  0  0  0  0  0  0
    0.5558   -0.5938   -0.2041 H   0  0  0  0  0  0  0  0  0  0  0  0
    2.4938   -0.4311   -0.3173 H   0  0  0  0  0  0  0  0  0  0  0  0
    2.4389    2.0590   -0.4364 H   0  0  0  0  0  0  0  0  0  0  0  0
  1  2  1  0
  1  4  1  0
  1  5  1  0
  1  6  1  0
  2  3  1  0
  2  7  1  0
  2 16  1  0
  3  8  1  0
  9 10  1  0
  9 13  1  0
  9 14  1  0
  9 15  1  0
 10 11  2  3
 10 17  1  0
 11 12  1  0
 11 18  1  0
M  RAD  1  12   2
M  END
>  <reaction>  (12) 
rxn_2019

>  <mol_properties>  (12) 
{"1": {"label": "*3", "atom_type": "Cs"}, "2": {"label": "*4", "atom_type": "S2s"}, "9": {"label": "*1", "atom_type": "Cs"}, "10": {"label": "*0", "atom_type": "CS"}, "15": {"label": "*2", "atom_type": "H0"}}

>  <type>  (12) 
unop_8

>  <geom_source>  (12) 
Heuristics

$$$$

     RDKit          3D

 18 16  0  0  0  0  0  0  0  0999 V2000
   -1.8724   -1.5162   -0.9163 C   0  0  0  0  0  0  0  0  0  0  0  0
   -0.6879   -1.5970    0.0307 C   0  0  0  0  0  0  0  0  0  0  0  0
   -0.8559   -0.5737    1.5228 S   0  0  0  0  0  0  0  0  0  0  0  0
   -1.7251   -2.1853   -1.7674 H   0  0  0  0  0  0  0  0  0  0  0  0
   -1.9949   -0.5030   -1.3032 H   0  0  0  0  0  0  0  0  0  0  0  0
   -2.7963   -1.7970   -0.4102 H   0  0  0  0  0  0  0  0  0  0  0  0
   -0.5694   -2.6117    0.4135 H   0  0  0  0  0  0  0  0  0  0  0  0
   -0.9214    0.6099    0.8984 H   0  0  0  0  0  0  0  0  0  0  0  0
    1.3674   -0.2783   -2.4376 C   0  0  0  0  0  0  0  0  0  0  0  0
    1.3674   -0.2783   -0.9066 C   0  0  0  0  0  0  0  0  0  0  0  0
    1.3674    1.1098   -0.3599 C   0  0  0  0  0  0  0  0  0  0  0  0
    0.2478    1.7655    0.5876 S   0  0  0  0  0  1  0  0  0  0  0  0
    2.2226    0.2718   -2.8348 H   0  0  0  0  0  0  0  0  0  0  0  0
    1.4182   -1.2993   -2.8163 H   0  0  0  0  0  0  0  0  0  0  0  0
    0.4579    0.1840   -2.8233 H   0  0  0  0  0  0  0  0  0  0  0  0
    0.3397   -0.9377   -0.4379 H   0  0  0  0  0  0  0  0  0  0  0  0
    2.2777   -0.7751   -0.5511 H   0  0  0  0  0  0  0  0  0  0  0  0
    2.2228    1.7151   -0.6702 H   0  0  0  0  0  0  0  0  0  0  0  0
  1  2  1  0
  1  4  1  0
  1  5  1  0
  1  6  1  0
  2  3  1  0
  2  7  1  0
  2 16  1  0
  3  8  1  0
  9 10  1  0
  9 13  1  0
  9 14  1  0
  9 15  1  0
 10 11  2  3
 10 17  1  0
 11 12  1  0
 11 18  1  0
M  RAD  1  12   2
M  END
>  <reaction>  (13) 
rxn_2019

>  <mol_properties>  (13) 
{"1": {"label": "*3", "atom_type": "Cs"}, "2": {"label": "*4", "atom_type": "S2s"}, "9": {"label": "*1", "atom_type": "Cs"}, "10": {"label": "*0", "atom_type": "CS"}, "15": {"label": "*2", "atom_type": "H0"}}

>  <type>  (13) 
unop_9

>  <geom_source>  (13) 
Heuristics

$$$$

     RDKit          3D

 18 16  0  0  0  0  0  0  0  0999 V2000
   -0.4503   -2.7659   -0.2303 C   0  0  0  0  0  0  0  0  0  0  0  0
   -0.4661   -1.3197    0.2331 C   0  0  0  0  0  0  0  0  0  0  0  0
   -2.1162   -0.6944    0.6667 S   0  0  0  0  0  0  0  0  0  0  0  0
    0.5735   -3.0891   -0.4331 H   0  0  0  0  0  0  0  0  0  0  0  0
   -1.0289   -2.8887   -1.1476 H   0  0  0  0  0  0  0  0  0  0  0  0
   -0.8777   -3.4230    0.5274 H   0  0  0  0  0  0  0  0  0  0  0  0
    0.1143   -1.2025    1.1493 H   0  0  0  0  0  0  0  0  0  0  0  0
   -2.6665   -0.8406   -0.5461 H   0  0  0  0  0  0  0  0  0  0  0  0
    1.5891   -0.0010   -2.2353 C   0  0  0  0  0  0  0  0  0  0  0  0
    1.5891   -0.0010   -0.7042 C   0  0  0  0  0  0  0  0  0  0  0  0
    1.5891    1.3871   -0.1575 C   0  0  0  0  0  0  0  0  0  0  0  0
    0.4696    2.0428    0.7900 S   0  0  0  0  0  1  0  0  0  0  0  0
    2.4443    0.5491   -2.6324 H   0  0  0  0  0  0  0  0  0  0  0  0
    1.6400   -1.0220   -2.6139 H   0  0  0  0  0  0  0  0  0  0  0  0
    0.6796    0.4613   -2.6209 H   0  0  0  0  0  0  0  0  0  0  0  0
    0.5615   -0.6604   -0.2356 H   0  0  0  0  0  0  0  0  0  0  0  0
    2.4995   -0.4978   -0.3488 H   0  0  0  0  0  0  0  0  0  0  0  0
    2.4446    1.9924   -0.4679 H   0  0  0  0  0  0  0  0  0  0  0  0
  1  2  1  0
  1  4  1  0
  1  5  1  0
  1  6  1  0
  2  3  1  0
  2  7  1  0
  2 16  1  0
  3  8  1  0
  9 10  1  0
  9 13  1  0
  9 14  1  0
  9 15  1  0
 10 11  2  3
 10 17  1  0
 11 12  1  0
 11 18  1  0
M  RAD  1  12   2
M  END
>  <reaction>  (14) 
rxn_2019

>  <mol_properties>  (14) 
{"1": {"label": "*3", "atom_type": "Cs"}, "2": {"label": "*4", "atom_type": "S2s"}, "9": {"label": "*1", "atom_type": "Cs"}, "10": {"label": "*0", "atom_type": "CS"}, "15": {"label": "*2", "atom_type": "H0"}}

>  <type>  (14) 
unop_10

>  <geom_source>  (14) 
Heuristics

$$$$

     RDKit          3D

 18 16  0  0  0  0  0  0  0  0999 V2000
   -1.5384   -0.5027    1.4377 C   0  0  0  0  0  0  0  0  0  0  0  0
   -1.0933   -1.0580    0.0961 C   0  0  0  0  0  0  0  0  0  0  0  0
    0.0420   -2.4718    0.2146 S   0  0  0  0  0  0  0  0  0  0  0  0
   -2.2496    0.3142    1.2942 H   0  0  0  0  0  0  0  0  0  0  0  0
   -0.6885   -0.1128    2.0007 H   0  0  0  0  0  0  0  0  0  0  0  0
   -2.0152   -1.2757    2.0410 H   0  0  0  0  0  0  0  0  0  0  0  0
   -1.9465   -1.4453   -0.4626 H   0  0  0  0  0  0  0  0  0  0  0  0
    1.0327   -1.8288    0.8472 H   0  0  0  0  0  0  0  0  0  0  0  0
    0.9620    0.2607   -2.3722 C   0  0  0  0  0  0  0  0  0  0  0  0
    0.9620    0.2607   -0.8412 C   0  0  0  0  0  0  0  0  0  0  0  0
    0.9620    1.6489   -0.2945 C   0  0  0  0  0  0  0  0  0  0  0  0
   -0.1576    2.3046    0.6531 S   0  0  0  0  0  1  0  0  0  0  0  0
    1.8172    0.8109   -2.7693 H   0  0  0  0  0  0  0  0  0  0  0  0
    1.0128   -0.7602   -2.7509 H   0  0  0  0  0  0  0  0  0  0  0  0
    0.0525    0.7231   -2.7579 H   0  0  0  0  0  0  0  0  0  0  0  0
   -0.0657   -0.3986   -0.3725 H   0  0  0  0  0  0  0  0  0  0  0  0
    1.8723   -0.2360   -0.4857 H   0  0  0  0  0  0  0  0  0  0  0  0
    1.8174    2.2542   -0.6048 H   0  0  0  0  0  0  0  0  0  0  0  0
  1  2  1  0
  1  4  1  0
  1  5  1  0
  1  6  1  0
  2  3  1  0
  2  7  1  0
  2 16  1  0
  3  8  1  0
  9 10  1  0
  9 13  1  0
  9 14  1  0
  9 15  1  0
 10 11  2  3
 10 17  1  0
 11 12  1  0
 11 18  1  0
M  RAD  1  12   2
M  END
>  <reaction>  (15) 
rxn_2019

>  <mol_properties>  (15) 
{"1": {"label": "*3", "atom_type": "Cs"}, "2": {"label": "*4", "atom_type": "S2s"}, "9": {"label": "*1", "atom_type": "Cs"}, "10": {"label": "*0", "atom_type": "CS"}, "15": {"label": "*2", "atom_type": "H0"}}

>  <type>  (15) 
unop_11

>  <geom_source>  (15) 
Heuristics

$$$$

     RDKit          3D

 18 16  0  0  0  0  0  0  0  0999 V2000
   -1.4073   -2.0831   -0.9945 C   0  0  0  0  0  0  0  0  0  0  0  0
   -0.5478   -1.5317    0.1296 C   0  0  0  0  0  0  0  0  0  0  0  0
   -1.4447   -0.4723    1.3022 S   0  0  0  0  0  0  0  0  0  0  0  0
   -0.8177   -2.7428   -1.6355 H   0  0  0  0  0  0  0  0  0  0  0  0
   -1.8027   -1.2773   -1.6154 H   0  0  0  0  0  0  0  0  0  0  0  0
   -2.2517   -2.6480   -0.5987 H   0  0  0  0  0  0  0  0  0  0  0  0
   -0.1545   -2.3411    0.7463 H   0  0  0  0  0  0  0  0  0  0  0  0
   -1.7953    0.4771    0.4242 H   0  0  0  0  0  0  0  0  0  0  0  0
    1.5075   -0.2130   -2.3388 C   0  0  0  0  0  0  0  0  0  0  0  0
    1.5075   -0.2130   -0.8077 C   0  0  0  0  0  0  0  0  0  0  0  0
    1.5075    1.1752   -0.2610 C   0  0  0  0  0  0  0  0  0  0  0  0
    0.3879    1.8309    0.6865 S   0  0  0  0  0  1  0  0  0  0  0  0
    2.3627    0.3372   -2.7359 H   0  0  0  0  0  0  0  0  0  0  0  0
    1.5583   -1.2339   -2.7174 H   0  0  0  0  0  0  0  0  0  0  0  0
    0.5980    0.2494   -2.7244 H   0  0  0  0  0  0  0  0  0  0  0  0
    0.4798   -0.8724   -0.3390 H   0  0  0  0  0  0  0  0  0  0  0  0
    2.4178   -0.7097   -0.4523 H   0  0  0  0  0  0  0  0  0  0  0  0
    2.3629    1.7805   -0.5713 H   0  0  0  0  0  0  0  0  0  0  0  0
  1  2  1  0
  1  4  1  0
  1  5  1  0
  1  6  1  0
  2  3  1  0
  2  7  1  0
  2 16  1  0
  3  8  1  0
  9 10  1  0
  9 13  1  0
  9 14  1  0
  9 15  1  0
 10 11  2  3
 10 17  1  0
 11 12  1  0
 11 18  1  0
M  RAD  1  12   2
M  END
>  <reaction>  (16) 
rxn_2019

>  <mol_properties>  (16) 
{"1": {"label": "*3", "atom_type": "Cs"}, "2": {"label": "*4", "atom_type": "S2s"}, "9": {"label": "*1", "atom_type": "Cs"}, "10": {"label": "*0", "atom_type": "CS"}, "15": {"label": "*2", "atom_type": "H0"}}

>  <type>  (16) 
unop_12

>  <geom_source>  (16) 
Heuristics

$$$$

     RDKit          3D

 18 16  0  0  0  0  0  0  0  0999 V2000
    1.9908    1.6474   -1.0595 S   0  0  0  0  0  0  0  0  0  0  0  0
   -1.4970    2.3822   -0.7441 S   0  0  0  0  0  1  0  0  0  0  0  0
    1.2598    0.4041    0.0500 C   0  0  0  0  0  0  0  0  0  0  0  0
    2.2027   -0.7768    0.2240 C   0  0  0  0  0  0  0  0  0  0  0  0
   -1.8077   -0.9627    0.7050 C   0  0  0  0  0  0  0  0  0  0  0  0
   -1.2709   -0.1245   -0.4466 C   0  0  0  0  0  0  0  0  0  0  0  0
   -2.1138    1.0907   -0.6638 C   0  0  0  0  0  0  0  0  0  0  0  0
    1.0499    0.8681    1.0370 H   0  0  0  0  0  0  0  0  0  0  0  0
    0.1019   -0.0289   -0.4819 H   0  0  0  0  0  0  0  0  0  0  0  0
    3.1577   -0.4433    0.6824 H   0  0  0  0  0  0  0  0  0  0  0  0
    1.7311   -1.5317    0.8872 H   0  0  0  0  0  0  0  0  0  0  0  0
    2.4100   -1.2460   -0.7608 H   0  0  0  0  0  0  0  0  0  0  0  0
   -1.1496   -1.8437    0.8550 H   0  0  0  0  0  0  0  0  0  0  0  0
   -1.8181   -0.3638    1.6403 H   0  0  0  0  0  0  0  0  0  0  0  0
   -2.8365   -1.3168    0.4798 H   0  0  0  0  0  0  0  0  0  0  0  0
   -1.2412   -0.7301   -1.3774 H   0  0  0  0  0  0  0  0  0  0  0  0
   -3.1711    0.9870   -0.8860 H   0  0  0  0  0  0  0  0  0  0  0  0
    3.0018    1.9888   -0.1405 H   0  0  0  0  0  0  0  0  0  0  0  0
  1  3  1  0
  1 18  1  0
  2  7  1  0
  3  4  1  0
  3  8  1  0
  3  9  1  0
  4 10  1  0
  4 11  1  0
  4 12  1  0
  5  6  1  0
  5 13  1  0
  5 14  1  0
  5 15  1  0
  6  7  2  3
  6 16  1  0
  7 17  1  0
M  RAD  1   2   2
M  END
>  <reaction>  (17) 
rxn_2019

>  <mol_properties>  (17) 
{"1": {"label": "*3", "atom_type": "Cs"}, "2": {"label": "*4", "atom_type": "S2s"}, "9": {"label": "*1", "atom_type": "Cs"}, "10": {"label": "*0", "atom_type": "CS"}, "15": {"label": "*2", "atom_type": "H0"}}

>  <type>  (17) 
unop_13

>  <geom_source>  (17) 
AutoTST

$$$$
