
     RDKit          3D

  9  8  0  0  0  0  0  0  0  0999 V2000
   -2.1022   -0.6873    0.3932 C   0  0  0  0  0  0  0  0  0  0  0  0
   -1.2072   -0.1086   -0.1482 C   0  0  0  0  0  0  0  0  0  0  0  0
   -0.1242    0.6105   -0.8193 C   0  0  0  0  0  0  0  0  0  0  0  0
    1.2067    0.1106   -0.4741 C   0  0  0  0  0  0  0  0  0  0  0  0
    2.3005   -0.2875   -0.2012 C   0  0  0  0  0  0  0  0  0  0  0  0
   -2.8942   -1.2059    0.8778 H   0  0  0  0  0  0  0  0  0  0  0  0
   -0.1862    1.6723   -0.5649 H   0  0  0  0  0  0  0  0  0  0  0  0
   -0.2641    0.5418   -1.9017 H   0  0  0  0  0  0  0  0  0  0  0  0
    3.2709   -0.6459    0.0455 H   0  0  0  0  0  0  0  0  0  0  0  0
  1  2  3  0
  1  6  1  0
  2  3  1  0
  3  4  1  0
  3  7  1  0
  3  8  1  0
  4  5  3  0
  5  9  1  0
M  END
>  <reaction>  (1) 
rxn_1358

>  <mol_properties>  (1) 
{"2": {"label": "donator", "atom_type": "Cs"}, "6": {"label": "d_hydrogen", "atom_type": "H0"}}

>  <type>  (1) 
r1h

$$$$

     RDKit          3D

 11 10  0  0  0  0  0  0  0  0999 V2000
   -0.9580    1.1013   -2.2955 C   0  0  0  0  0  0  0  0  0  0  0  0
   -0.5129    0.5941   -1.2929 C   0  0  0  0  0  0  0  0  0  0  0  0
   -0.0301   -0.0160   -0.1357 C   0  0  0  0  0  3  0  0  0  0  0  0
   -0.6593   -1.2845    0.3661 C   0  0  0  0  0  0  0  0  0  0  0  0
    1.0691    0.5292    0.5269 C   0  0  0  0  0  0  0  0  0  0  0  0
    2.0168    0.9794    1.1266 C   0  0  0  0  0  0  0  0  0  0  0  0
   -1.3415    1.5561   -3.1769 H   0  0  0  0  0  0  0  0  0  0  0  0
   -1.7166   -1.3186    0.1054 H   0  0  0  0  0  0  0  0  0  0  0  0
   -0.1742   -2.1550   -0.0865 H   0  0  0  0  0  0  0  0  0  0  0  0
   -0.5505   -1.3663    1.4470 H   0  0  0  0  0  0  0  0  0  0  0  0
    2.8514    1.3842    1.6465 H   0  0  0  0  0  0  0  0  0  0  0  0
  1  2  3  0
  1  7  1  0
  2  3  1  0
  3  4  1  0
  3  5  1  0
  4  8  1  0
  4  9  1  0
  4 10  1  0
  5  6  3  0
  6 11  1  0
M  RAD  1   3   2
M  END
>  <reaction>  (2) 
rxn_1358

>  <mol_properties>  (2) 
{"2": {"label": "acceptor", "atom_type": "Cs"}}

>  <type>  (2) 
r2

$$$$

     RDKit          3D

 12 11  0  0  0  0  0  0  0  0999 V2000
    2.1696    0.6854    1.1310 C   0  0  0  0  0  0  0  0  0  0  0  0
    1.2518    0.4145    0.4134 C   0  0  0  0  0  0  0  0  0  0  0  0
    0.1391    0.0443   -0.4683 C   0  0  0  0  0  0  0  0  0  0  0  0
   -0.2054   -1.4492   -0.3339 C   0  0  0  0  0  0  0  0  0  0  0  0
   -1.0375    0.8853   -0.2222 C   0  0  0  0  0  0  0  0  0  0  0  0
   -2.0160    1.5463   -0.0311 C   0  0  0  0  0  0  0  0  0  0  0  0
    2.9819    0.9356    1.7702 H   0  0  0  0  0  0  0  0  0  0  0  0
    0.4629    0.2285   -1.4981 H   0  0  0  0  0  0  0  0  0  0  0  0
   -0.5327   -1.6703    0.6812 H   0  0  0  0  0  0  0  0  0  0  0  0
    0.6727   -2.0535   -0.5593 H   0  0  0  0  0  0  0  0  0  0  0  0
   -1.0064   -1.7081   -1.0256 H   0  0  0  0  0  0  0  0  0  0  0  0
   -2.8802    2.1413    0.1426 H   0  0  0  0  0  0  0  0  0  0  0  0
  1  2  3  0
  1  7  1  0
  2  3  1  0
  3  4  1  0
  3  5  1  0
  3  8  1  0
  4  9  1  0
  4 10  1  0
  4 11  1  0
  5  6  3  0
  6 12  1  0
M  END
>  <reaction>  (3) 
rxn_1358

>  <mol_properties>  (3) 
{"0": {"label": "a_hydrogen", "atom_type": "H0"}, "3": {"label": "acceptor", "atom_type": "Cs"}}

>  <type>  (3) 
r2h

$$$$

     RDKit          3D

 20 18  0  0  0  0  0  0  0  0999 V2000
   -2.9891    0.2322   -0.5130 C   0  0  0  0  0  0  0  0  0  0  0  0
   -1.9624   -0.3632   -0.6951 C   0  0  0  0  0  0  0  0  0  0  0  0
   -0.7034   -1.0067   -0.8850 C   0  0  0  0  0  3  0  0  0  0  0  0
   -0.4783   -2.2563   -0.2346 C   0  0  0  0  0  0  0  0  0  0  0  0
   -0.2346   -3.2811    0.3417 C   0  0  0  0  0  0  0  0  0  0  0  0
   -3.9081    0.7456   -0.3622 H   0  0  0  0  0  0  0  0  0  0  0  0
    0.1928   -0.1591   -0.2891 H   0  0  0  0  0  0  0  0  0  0  0  0
   -0.3161   -0.9503   -1.9013 H   0  0  0  0  0  0  0  0  0  0  0  0
   -0.0322   -4.1982    0.8405 H   0  0  0  0  0  0  0  0  0  0  0  0
    3.3337   -0.5356    0.0333 C   0  0  0  0  0  0  0  0  0  0  0  0
    2.2910    0.0343    0.2015 C   0  0  0  0  0  0  0  0  0  0  0  0
    1.0086    0.6470    0.3953 C   0  0  0  0  0  0  0  0  0  0  0  0
    0.4181    0.5236    1.7910 C   0  0  0  0  0  0  0  0  0  0  0  0
    0.8195    1.9113   -0.2552 C   0  0  0  0  0  0  0  0  0  0  0  0
    0.6008    2.9502   -0.8147 C   0  0  0  0  0  0  0  0  0  0  0  0
    4.2651   -1.0273   -0.1131 H   0  0  0  0  0  0  0  0  0  0  0  0
    0.4566   -0.5157    2.1167 H   0  0  0  0  0  0  0  0  0  0  0  0
    0.9794    1.1359    2.4988 H   0  0  0  0  0  0  0  0  0  0  0  0
   -0.6195    0.8569    1.7828 H   0  0  0  0  0  0  0  0  0  0  0  0
    0.4209    3.8760   -1.3060 H   0  0  0  0  0  0  0  0  0  0  0  0
  1  2  3  0
  1  6  1  0
  2  3  1  0
  3  4  1  0
  3  8  1  0
  4  5  3  0
  5  9  1  0
  7 12  1  0
 10 11  3  0
 10 16  1  0
 11 12  1  0
 12 13  1  0
 12 14  1  0
 13 17  1  0
 13 18  1  0
 13 19  1  0
 14 15  3  0
 15 20  1  0
M  RAD  1   3   2
M  END
>  <reaction>  (4) 
rxn_1358

>  <mol_properties>  (4) 
{"1": {"label": "*4", "atom_type": "Ct"}, "2": {"label": "*3", "atom_type": "Cs"}, "6": {"label": "*2", "atom_type": "H0"}, "10": {"label": "*0", "atom_type": "Ct"}, "11": {"label": "*1", "atom_type": "Cs"}}

>  <type>  (4) 
ts

$$$$

     RDKit          3D

 20 18  0  0  0  0  0  0  0  0999 V2000
   -0.6346   -1.0538   -3.2464 C   0  0  0  0  0  0  0  0  0  0  0  0
   -0.6346   -1.0538   -2.0509 C   0  0  0  0  0  0  0  0  0  0  0  0
   -0.6346   -1.0538   -0.5879 C   0  0  0  0  0  0  0  0  0  0  0  0
   -1.9486   -0.7782   -0.0068 C   0  0  0  0  0  0  0  0  0  0  0  0
   -3.0224   -0.5530    0.4681 C   0  0  0  0  0  0  0  0  0  0  0  0
   -0.6346   -1.0538   -4.3099 H   0  0  0  0  0  0  0  0  0  0  0  0
    0.2235   -0.1594   -0.1569 H   0  0  0  0  0  0  0  0  0  0  0  0
   -0.2792   -2.0237   -0.2287 H   0  0  0  0  0  0  0  0  0  0  0  0
   -3.9776   -0.3527    0.8906 H   0  0  0  0  0  0  0  0  0  0  0  0
   -0.2610    2.5249    1.7191 C   0  0  0  0  0  0  0  0  0  0  0  0
    0.3350    1.7082    1.0798 C   0  0  0  0  0  0  0  0  0  0  0  0
    1.0828    0.7362    0.2747 C   0  0  0  0  0  3  0  0  0  0  0  0
    2.3808    1.3510   -0.2774 C   0  0  0  0  0  0  0  0  0  0  0  0
    1.3564   -0.4875    1.0363 C   0  0  0  0  0  0  0  0  0  0  0  0
    1.6066   -1.4897    1.6396 C   0  0  0  0  0  0  0  0  0  0  0  0
   -0.7908    3.2510    2.2874 H   0  0  0  0  0  0  0  0  0  0  0  0
    2.1487    2.2346   -0.8710 H   0  0  0  0  0  0  0  0  0  0  0  0
    3.0382    1.6406    0.5414 H   0  0  0  0  0  0  0  0  0  0  0  0
    2.8979    0.6241   -0.9029 H   0  0  0  0  0  0  0  0  0  0  0  0
    1.8290   -2.3806    2.1759 H   0  0  0  0  0  0  0  0  0  0  0  0
  1  2  3  0
  1  6  1  0
  2  3  1  0
  3  4  1  0
  3  7  1  0
  3  8  1  0
  4  5  3  0
  5  9  1  0
 10 11  3  0
 10 16  1  0
 11 12  1  0
 12 13  1  0
 12 14  1  0
 13 17  1  0
 13 18  1  0
 13 19  1  0
 14 15  3  0
 15 20  1  0
M  RAD  1  12   2
M  END
>  <reaction>  (5) 
rxn_1358

>  <mol_properties>  (5) 
{"1": {"label": "*4", "atom_type": "Ct"}, "2": {"label": "*3", "atom_type": "Cs"}, "6": {"label": "*2", "atom_type": "H0"}, "10": {"label": "*0", "atom_type": "Ct"}, "11": {"label": "*1", "atom_type": "Cs"}}

>  <type>  (5) 
unop_1

>  <geom_source>  (5) 
Heuristics

$$$$

     RDKit          3D

 20 18  0  0  0  0  0  0  0  0999 V2000
   -0.5589   -1.3728   -2.9945 C   0  0  0  0  0  0  0  0  0  0  0  0
   -0.5589   -1.3728   -1.7990 C   0  0  0  0  0  0  0  0  0  0  0  0
   -0.5589   -1.3728   -0.3360 C   0  0  0  0  0  0  0  0  0  0  0  0
   -1.8729   -1.0972    0.2451 C   0  0  0  0  0  0  0  0  0  0  0  0
   -2.9467   -0.8720    0.7200 C   0  0  0  0  0  0  0  0  0  0  0  0
   -0.5589   -1.3728   -4.0580 H   0  0  0  0  0  0  0  0  0  0  0  0
    0.2992   -0.4784    0.0950 H   0  0  0  0  0  0  0  0  0  0  0  0
   -0.2036   -2.3426    0.0232 H   0  0  0  0  0  0  0  0  0  0  0  0
   -3.9019   -0.6716    1.1425 H   0  0  0  0  0  0  0  0  0  0  0  0
    1.2920    2.3510   -1.2994 C   0  0  0  0  0  0  0  0  0  0  0  0
    1.2154    1.4878   -0.4749 C   0  0  0  0  0  0  0  0  0  0  0  0
    1.1585    0.4172    0.5266 C   0  0  0  0  0  3  0  0  0  0  0  0
    2.5663    0.0401    1.0199 C   0  0  0  0  0  0  0  0  0  0  0  0
    0.2831    0.7816    1.6461 C   0  0  0  0  0  0  0  0  0  0  0  0
   -0.4125    1.0598    2.5786 C   0  0  0  0  0  0  0  0  0  0  0  0
    1.3601    3.1184   -2.0324 H   0  0  0  0  0  0  0  0  0  0  0  0
    3.1851   -0.2641    0.1762 H   0  0  0  0  0  0  0  0  0  0  0  0
    3.0347    0.8928    1.5097 H   0  0  0  0  0  0  0  0  0  0  0  0
    2.5013   -0.7820    1.7319 H   0  0  0  0  0  0  0  0  0  0  0  0
   -1.0310    1.3072    3.4075 H   0  0  0  0  0  0  0  0  0  0  0  0
  1  2  3  0
  1  6  1  0
  2  3  1  0
  3  4  1  0
  3  7  1  0
  3  8  1  0
  4  5  3  0
  5  9  1  0
 10 11  3  0
 10 16  1  0
 11 12  1  0
 12 13  1  0
 12 14  1  0
 13 17  1  0
 13 18  1  0
 13 19  1  0
 14 15  3  0
 15 20  1  0
M  RAD  1  12   2
M  END
>  <reaction>  (6) 
rxn_1358

>  <mol_properties>  (6) 
{"1": {"label": "*4", "atom_type": "Ct"}, "2": {"label": "*3", "atom_type": "Cs"}, "6": {"label": "*2", "atom_type": "H0"}, "10": {"label": "*0", "atom_type": "Ct"}, "11": {"label": "*1", "atom_type": "Cs"}}

>  <type>  (6) 
unop_2

>  <geom_source>  (6) 
Heuristics

$$$$

     RDKit          3D

 20 18  0  0  0  0  0  0  0  0999 V2000
   -0.7880   -1.0073   -3.1929 C   0  0  0  0  0  0  0  0  0  0  0  0
   -0.7880   -1.0073   -1.9974 C   0  0  0  0  0  0  0  0  0  0  0  0
   -0.7880   -1.0073   -0.5344 C   0  0  0  0  0  0  0  0  0  0  0  0
   -2.1020   -0.7317    0.0468 C   0  0  0  0  0  0  0  0  0  0  0  0
   -3.1758   -0.5065    0.5216 C   0  0  0  0  0  0  0  0  0  0  0  0
   -0.7880   -1.0073   -4.2564 H   0  0  0  0  0  0  0  0  0  0  0  0
    0.0702   -0.1129   -0.1034 H   0  0  0  0  0  0  0  0  0  0  0  0
   -0.4326   -1.9771   -0.1752 H   0  0  0  0  0  0  0  0  0  0  0  0
   -4.1309   -0.3061    0.9441 H   0  0  0  0  0  0  0  0  0  0  0  0
    0.0294    1.7126    2.6556 C   0  0  0  0  0  0  0  0  0  0  0  0
    0.4349    1.2785    1.6174 C   0  0  0  0  0  0  0  0  0  0  0  0
    0.9294    0.7827    0.3282 C   0  0  0  0  0  3  0  0  0  0  0  0
    1.6215    1.9010   -0.4705 C   0  0  0  0  0  0  0  0  0  0  0  0
    1.8182   -0.3707    0.5070 C   0  0  0  0  0  0  0  0  0  0  0  0
    2.5586   -1.3027    0.6254 C   0  0  0  0  0  0  0  0  0  0  0  0
   -0.3311    2.0986    3.5787 H   0  0  0  0  0  0  0  0  0  0  0  0
    0.9300    2.7288   -0.6240 H   0  0  0  0  0  0  0  0  0  0  0  0
    2.4927    2.2669    0.0713 H   0  0  0  0  0  0  0  0  0  0  0  0
    1.9446    1.5192   -1.4384 H   0  0  0  0  0  0  0  0  0  0  0  0
    3.2169   -2.1313    0.7307 H   0  0  0  0  0  0  0  0  0  0  0  0
  1  2  3  0
  1  6  1  0
  2  3  1  0
  3  4  1  0
  3  7  1  0
  3  8  1  0
  4  5  3  0
  5  9  1  0
 10 11  3  0
 10 16  1  0
 11 12  1  0
 12 13  1  0
 12 14  1  0
 13 17  1  0
 13 18  1  0
 13 19  1  0
 14 15  3  0
 15 20  1  0
M  RAD  1  12   2
M  END
>  <reaction>  (7) 
rxn_1358

>  <mol_properties>  (7) 
{"1": {"label": "*4", "atom_type": "Ct"}, "2": {"label": "*3", "atom_type": "Cs"}, "6": {"label": "*2", "atom_type": "H0"}, "10": {"label": "*0", "atom_type": "Ct"}, "11": {"label": "*1", "atom_type": "Cs"}}

>  <type>  (7) 
unop_3

>  <geom_source>  (7) 
Heuristics

$$$$

     RDKit          3D

 20 18  0  0  0  0  0  0  0  0999 V2000
   -0.8804   -1.2429   -2.9634 C   0  0  0  0  0  0  0  0  0  0  0  0
   -0.8804   -1.2429   -1.7679 C   0  0  0  0  0  0  0  0  0  0  0  0
   -0.8804   -1.2429   -0.3049 C   0  0  0  0  0  0  0  0  0  0  0  0
   -2.1944   -0.9673    0.2762 C   0  0  0  0  0  0  0  0  0  0  0  0
   -3.2681   -0.7421    0.7511 C   0  0  0  0  0  0  0  0  0  0  0  0
   -0.8804   -1.2429   -4.0269 H   0  0  0  0  0  0  0  0  0  0  0  0
   -0.0222   -0.3485    0.1261 H   0  0  0  0  0  0  0  0  0  0  0  0
   -0.5250   -2.2128    0.0543 H   0  0  0  0  0  0  0  0  0  0  0  0
   -4.2233   -0.5418    1.1736 H   0  0  0  0  0  0  0  0  0  0  0  0
    3.2320   -0.1624   -0.3657 C   0  0  0  0  0  0  0  0  0  0  0  0
    2.1576    0.1719    0.0403 C   0  0  0  0  0  0  0  0  0  0  0  0
    0.8371    0.5471    0.5577 C   0  0  0  0  0  3  0  0  0  0  0  0
    0.5344   -0.1699    1.8851 C   0  0  0  0  0  0  0  0  0  0  0  0
    0.7147    2.0021    0.6998 C   0  0  0  0  0  0  0  0  0  0  0  0
    0.5938    3.1839    0.8401 C   0  0  0  0  0  0  0  0  0  0  0  0
    4.1872   -0.4596   -0.7266 H   0  0  0  0  0  0  0  0  0  0  0  0
    0.5929   -1.2488    1.7449 H   0  0  0  0  0  0  0  0  0  0  0  0
    1.2562    0.1252    2.6456 H   0  0  0  0  0  0  0  0  0  0  0  0
   -0.4655    0.0936    2.2286 H   0  0  0  0  0  0  0  0  0  0  0  0
    0.4863    4.2345    0.9648 H   0  0  0  0  0  0  0  0  0  0  0  0
  1  2  3  0
  1  6  1  0
  2  3  1  0
  3  4  1  0
  3  7  1  0
  3  8  1  0
  4  5  3  0
  5  9  1  0
 10 11  3  0
 10 16  1  0
 11 12  1  0
 12 13  1  0
 12 14  1  0
 13 17  1  0
 13 18  1  0
 13 19  1  0
 14 15  3  0
 15 20  1  0
M  RAD  1  12   2
M  END
>  <reaction>  (8) 
rxn_1358

>  <mol_properties>  (8) 
{"1": {"label": "*4", "atom_type": "Ct"}, "2": {"label": "*3", "atom_type": "Cs"}, "6": {"label": "*2", "atom_type": "H0"}, "10": {"label": "*0", "atom_type": "Ct"}, "11": {"label": "*1", "atom_type": "Cs"}}

>  <type>  (8) 
unop_4

>  <geom_source>  (8) 
Heuristics

$$$$

     RDKit          3D

 20 18  0  0  0  0  0  0  0  0999 V2000
   -0.8890   -1.0998   -3.0912 C   0  0  0  0  0  0  0  0  0  0  0  0
   -0.8890   -1.0998   -1.8957 C   0  0  0  0  0  0  0  0  0  0  0  0
   -0.8890   -1.0998   -0.4327 C   0  0  0  0  0  0  0  0  0  0  0  0
   -2.2030   -0.8242    0.1484 C   0  0  0  0  0  0  0  0  0  0  0  0
   -3.2768   -0.5989    0.6233 C   0  0  0  0  0  0  0  0  0  0  0  0
   -0.8890   -1.0998   -4.1547 H   0  0  0  0  0  0  0  0  0  0  0  0
   -0.0309   -0.2054   -0.0017 H   0  0  0  0  0  0  0  0  0  0  0  0
   -0.5336   -2.0696   -0.0735 H   0  0  0  0  0  0  0  0  0  0  0  0
   -4.2320   -0.3986    1.0458 H   0  0  0  0  0  0  0  0  0  0  0  0
    0.7474    0.6529    3.0914 C   0  0  0  0  0  0  0  0  0  0  0  0
    0.7964    0.6568    1.8963 C   0  0  0  0  0  0  0  0  0  0  0  0
    0.8284    0.6902    0.4299 C   0  0  0  0  0  3  0  0  0  0  0  0
    0.3963    2.0664   -0.1058 C   0  0  0  0  0  0  0  0  0  0  0  0
    2.1500    0.3117   -0.0824 C   0  0  0  0  0  0  0  0  0  0  0  0
    3.2223    0.0219   -0.5263 C   0  0  0  0  0  0  0  0  0  0  0  0
    0.7038    0.6495    4.1540 H   0  0  0  0  0  0  0  0  0  0  0  0
   -0.6027    2.3075    0.2561 H   0  0  0  0  0  0  0  0  0  0  0  0
    1.0881    2.8365    0.2331 H   0  0  0  0  0  0  0  0  0  0  0  0
    0.3901    2.0544   -1.1952 H   0  0  0  0  0  0  0  0  0  0  0  0
    4.1756   -0.2358   -0.9209 H   0  0  0  0  0  0  0  0  0  0  0  0
  1  2  3  0
  1  6  1  0
  2  3  1  0
  3  4  1  0
  3  7  1  0
  3  8  1  0
  4  5  3  0
  5  9  1  0
 10 11  3  0
 10 16  1  0
 11 12  1  0
 12 13  1  0
 12 14  1  0
 13 17  1  0
 13 18  1  0
 13 19  1  0
 14 15  3  0
 15 20  1  0
M  RAD  1  12   2
M  END
>  <reaction>  (9) 
rxn_1358

>  <mol_properties>  (9) 
{"1": {"label": "*4", "atom_type": "Ct"}, "2": {"label": "*3", "atom_type": "Cs"}, "6": {"label": "*2", "atom_type": "H0"}, "10": {"label": "*0", "atom_type": "Ct"}, "11": {"label": "*1", "atom_type": "Cs"}}

>  <type>  (9) 
unop_5

>  <geom_source>  (9) 
Heuristics

$$$$

     RDKit          3D

 20 18  0  0  0  0  0  0  0  0999 V2000
   -0.8778   -1.2120   -3.0326 C   0  0  0  0  0  0  0  0  0  0  0  0
   -0.8778   -1.2120   -1.8371 C   0  0  0  0  0  0  0  0  0  0  0  0
   -0.8778   -1.2120   -0.3741 C   0  0  0  0  0  0  0  0  0  0  0  0
   -2.1919   -0.9364    0.2071 C   0  0  0  0  0  0  0  0  0  0  0  0
   -3.2656   -0.7112    0.6820 C   0  0  0  0  0  0  0  0  0  0  0  0
   -0.8778   -1.2120   -4.0961 H   0  0  0  0  0  0  0  0  0  0  0  0
   -0.0197   -0.3176    0.0569 H   0  0  0  0  0  0  0  0  0  0  0  0
   -0.5225   -2.1819   -0.0149 H   0  0  0  0  0  0  0  0  0  0  0  0
   -4.2208   -0.5108    1.1044 H   0  0  0  0  0  0  0  0  0  0  0  0
    3.1792   -0.6627    0.7682 C   0  0  0  0  0  0  0  0  0  0  0  0
    2.1363   -0.0929    0.6324 C   0  0  0  0  0  0  0  0  0  0  0  0
    0.8396    0.5780    0.4886 C   0  0  0  0  0  3  0  0  0  0  0  0
   -0.0797    0.2763    1.6849 C   0  0  0  0  0  0  0  0  0  0  0  0
    1.0062    2.0230    0.2976 C   0  0  0  0  0  0  0  0  0  0  0  0
    1.1130    3.2060    0.1561 C   0  0  0  0  0  0  0  0  0  0  0  0
    4.1064   -1.1693    0.8889 H   0  0  0  0  0  0  0  0  0  0  0  0
   -0.2197   -0.7998    1.7822 H   0  0  0  0  0  0  0  0  0  0  0  0
    0.3618    0.6576    2.6047 H   0  0  0  0  0  0  0  0  0  0  0  0
   -1.0486    0.7521    1.5366 H   0  0  0  0  0  0  0  0  0  0  0  0
    1.2079    4.2577    0.0303 H   0  0  0  0  0  0  0  0  0  0  0  0
  1  2  3  0
  1  6  1  0
  2  3  1  0
  3  4  1  0
  3  7  1  0
  3  8  1  0
  4  5  3  0
  5  9  1  0
 10 11  3  0
 10 16  1  0
 11 12  1  0
 12 13  1  0
 12 14  1  0
 13 17  1  0
 13 18  1  0
 13 19  1  0
 14 15  3  0
 15 20  1  0
M  RAD  1  12   2
M  END
>  <reaction>  (10) 
rxn_1358

>  <mol_properties>  (10) 
{"1": {"label": "*4", "atom_type": "Ct"}, "2": {"label": "*3", "atom_type": "Cs"}, "6": {"label": "*2", "atom_type": "H0"}, "10": {"label": "*0", "atom_type": "Ct"}, "11": {"label": "*1", "atom_type": "Cs"}}

>  <type>  (10) 
unop_6

>  <geom_source>  (10) 
Heuristics

$$$$

     RDKit          3D

 20 18  0  0  0  0  0  0  0  0999 V2000
   -0.8563   -1.2163   -3.0668 C   0  0  0  0  0  0  0  0  0  0  0  0
   -0.8563   -1.2163   -1.8713 C   0  0  0  0  0  0  0  0  0  0  0  0
   -0.8563   -1.2163   -0.4083 C   0  0  0  0  0  0  0  0  0  0  0  0
   -2.1704   -0.9407    0.1728 C   0  0  0  0  0  0  0  0  0  0  0  0
   -3.2441   -0.7155    0.6477 C   0  0  0  0  0  0  0  0  0  0  0  0
   -0.8563   -1.2163   -4.1303 H   0  0  0  0  0  0  0  0  0  0  0  0
    0.0018   -0.3219    0.0227 H   0  0  0  0  0  0  0  0  0  0  0  0
   -0.5010   -2.1862   -0.0492 H   0  0  0  0  0  0  0  0  0  0  0  0
   -4.1993   -0.5151    1.0702 H   0  0  0  0  0  0  0  0  0  0  0  0
    2.6562   -0.7225    1.9338 C   0  0  0  0  0  0  0  0  0  0  0  0
    1.8632   -0.1333    1.2594 C   0  0  0  0  0  0  0  0  0  0  0  0
    0.8611    0.5737    0.4543 C   0  0  0  0  0  3  0  0  0  0  0  0
   -0.4242    0.8272    1.2613 C   0  0  0  0  0  0  0  0  0  0  0  0
    1.4016    1.8240   -0.0907 C   0  0  0  0  0  0  0  0  0  0  0  0
    1.8122    2.8560   -0.5346 C   0  0  0  0  0  0  0  0  0  0  0  0
    3.3612   -1.2464    2.5333 H   0  0  0  0  0  0  0  0  0  0  0  0
   -0.8277   -0.1185    1.6218 H   0  0  0  0  0  0  0  0  0  0  0  0
   -0.2117    1.4673    2.1166 H   0  0  0  0  0  0  0  0  0  0  0  0
   -1.1662    1.3171    0.6316 H   0  0  0  0  0  0  0  0  0  0  0  0
    2.1773    3.7735   -0.9293 H   0  0  0  0  0  0  0  0  0  0  0  0
  1  2  3  0
  1  6  1  0
  2  3  1  0
  3  4  1  0
  3  7  1  0
  3  8  1  0
  4  5  3  0
  5  9  1  0
 10 11  3  0
 10 16  1  0
 11 12  1  0
 12 13  1  0
 12 14  1  0
 13 17  1  0
 13 18  1  0
 13 19  1  0
 14 15  3  0
 15 20  1  0
M  RAD  1  12   2
M  END
>  <reaction>  (11) 
rxn_1358

>  <mol_properties>  (11) 
{"1": {"label": "*4", "atom_type": "Ct"}, "2": {"label": "*3", "atom_type": "Cs"}, "6": {"label": "*2", "atom_type": "H0"}, "10": {"label": "*0", "atom_type": "Ct"}, "11": {"label": "*1", "atom_type": "Cs"}}

>  <type>  (11) 
unop_7

>  <geom_source>  (11) 
Heuristics

$$$$

     RDKit          3D

 20 18  0  0  0  0  0  0  0  0999 V2000
   -0.5261   -1.1702   -3.2141 C   0  0  0  0  0  0  0  0  0  0  0  0
   -0.5261   -1.1702   -2.0186 C   0  0  0  0  0  0  0  0  0  0  0  0
   -0.5261   -1.1702   -0.5556 C   0  0  0  0  0  0  0  0  0  0  0  0
   -1.8401   -0.8946    0.0256 C   0  0  0  0  0  0  0  0  0  0  0  0
   -2.9139   -0.6694    0.5005 C   0  0  0  0  0  0  0  0  0  0  0  0
   -0.5261   -1.1702   -4.2776 H   0  0  0  0  0  0  0  0  0  0  0  0
    0.3320   -0.2759   -0.1246 H   0  0  0  0  0  0  0  0  0  0  0  0
   -0.1707   -2.1401   -0.1964 H   0  0  0  0  0  0  0  0  0  0  0  0
   -3.8691   -0.4691    0.9229 H   0  0  0  0  0  0  0  0  0  0  0  0
   -0.0994    2.9363    0.5512 C   0  0  0  0  0  0  0  0  0  0  0  0
    0.4673    1.8876    0.4509 C   0  0  0  0  0  0  0  0  0  0  0  0
    1.1913    0.6198    0.3071 C   0  0  0  0  0  3  0  0  0  0  0  0
    2.7012    0.8572    0.1299 C   0  0  0  0  0  0  0  0  0  0  0  0
    0.9234   -0.2773    1.4366 C   0  0  0  0  0  0  0  0  0  0  0  0
    0.7345   -1.0220    2.3534 C   0  0  0  0  0  0  0  0  0  0  0  0
   -0.6032    3.8685    0.6404 H   0  0  0  0  0  0  0  0  0  0  0  0
    2.8768    1.4932   -0.7371 H   0  0  0  0  0  0  0  0  0  0  0  0
    3.1117    1.3456    1.0128 H   0  0  0  0  0  0  0  0  0  0  0  0
    3.2113   -0.0947   -0.0141 H   0  0  0  0  0  0  0  0  0  0  0  0
    0.5666   -1.6841    3.1685 H   0  0  0  0  0  0  0  0  0  0  0  0
  1  2  3  0
  1  6  1  0
  2  3  1  0
  3  4  1  0
  3  7  1  0
  3  8  1  0
  4  5  3  0
  5  9  1  0
 10 11  3  0
 10 16  1  0
 11 12  1  0
 12 13  1  0
 12 14  1  0
 13 17  1  0
 13 18  1  0
 13 19  1  0
 14 15  3  0
 15 20  1  0
M  RAD  1  12   2
M  END
>  <reaction>  (12) 
rxn_1358

>  <mol_properties>  (12) 
{"1": {"label": "*4", "atom_type": "Ct"}, "2": {"label": "*3", "atom_type": "Cs"}, "6": {"label": "*2", "atom_type": "H0"}, "10": {"label": "*0", "atom_type": "Ct"}, "11": {"label": "*1", "atom_type": "Cs"}}

>  <type>  (12) 
unop_8

>  <geom_source>  (12) 
Heuristics

$$$$

     RDKit          3D

 20 18  0  0  0  0  0  0  0  0999 V2000
   -0.8201   -1.3131   -2.9032 C   0  0  0  0  0  0  0  0  0  0  0  0
   -0.8201   -1.3131   -1.7077 C   0  0  0  0  0  0  0  0  0  0  0  0
   -0.8201   -1.3131   -0.2447 C   0  0  0  0  0  0  0  0  0  0  0  0
   -2.1341   -1.0375    0.3365 C   0  0  0  0  0  0  0  0  0  0  0  0
   -3.2079   -0.8123    0.8114 C   0  0  0  0  0  0  0  0  0  0  0  0
   -0.8201   -1.3131   -3.9667 H   0  0  0  0  0  0  0  0  0  0  0  0
    0.0381   -0.4187    0.1864 H   0  0  0  0  0  0  0  0  0  0  0  0
   -0.4647   -2.2830    0.1145 H   0  0  0  0  0  0  0  0  0  0  0  0
   -4.1630   -0.6120    1.2338 H   0  0  0  0  0  0  0  0  0  0  0  0
    2.8463    0.6316   -1.1902 C   0  0  0  0  0  0  0  0  0  0  0  0
    1.9646    0.5780   -0.3835 C   0  0  0  0  0  0  0  0  0  0  0  0
    0.8973    0.4769    0.6180 C   0  0  0  0  0  3  0  0  0  0  0  0
    1.3267   -0.4062    1.8027 C   0  0  0  0  0  0  0  0  0  0  0  0
    0.4666    1.8035    1.0728 C   0  0  0  0  0  0  0  0  0  0  0  0
    0.1074    2.8722    1.4724 C   0  0  0  0  0  0  0  0  0  0  0  0
    3.6301    0.6791   -1.9073 H   0  0  0  0  0  0  0  0  0  0  0  0
    1.6040   -1.3970    1.4445 H   0  0  0  0  0  0  0  0  0  0  0  0
    2.1825    0.0359    2.3110 H   0  0  0  0  0  0  0  0  0  0  0  0
    0.5053   -0.4982    2.5126 H   0  0  0  0  0  0  0  0  0  0  0  0
   -0.2120    3.8223    1.8278 H   0  0  0  0  0  0  0  0  0  0  0  0
  1  2  3  0
  1  6  1  0
  2  3  1  0
  3  4  1  0
  3  7  1  0
  3  8  1  0
  4  5  3  0
  5  9  1  0
 10 11  3  0
 10 16  1  0
 11 12  1  0
 12 13  1  0
 12 14  1  0
 13 17  1  0
 13 18  1  0
 13 19  1  0
 14 15  3  0
 15 20  1  0
M  RAD  1  12   2
M  END
>  <reaction>  (13) 
rxn_1358

>  <mol_properties>  (13) 
{"1": {"label": "*4", "atom_type": "Ct"}, "2": {"label": "*3", "atom_type": "Cs"}, "6": {"label": "*2", "atom_type": "H0"}, "10": {"label": "*0", "atom_type": "Ct"}, "11": {"label": "*1", "atom_type": "Cs"}}

>  <type>  (13) 
unop_9

>  <geom_source>  (13) 
Heuristics

$$$$

     RDKit          3D

 20 18  0  0  0  0  0  0  0  0999 V2000
   -0.4963   -1.2920   -3.1163 C   0  0  0  0  0  0  0  0  0  0  0  0
   -0.4963   -1.2920   -1.9208 C   0  0  0  0  0  0  0  0  0  0  0  0
   -0.4963   -1.2920   -0.4578 C   0  0  0  0  0  0  0  0  0  0  0  0
   -1.8103   -1.0164    0.1234 C   0  0  0  0  0  0  0  0  0  0  0  0
   -2.8841   -0.7912    0.5983 C   0  0  0  0  0  0  0  0  0  0  0  0
   -0.4963   -1.2920   -4.1798 H   0  0  0  0  0  0  0  0  0  0  0  0
    0.3618   -0.3976   -0.0268 H   0  0  0  0  0  0  0  0  0  0  0  0
   -0.1409   -2.2618   -0.0986 H   0  0  0  0  0  0  0  0  0  0  0  0
   -3.8393   -0.5908    1.0207 H   0  0  0  0  0  0  0  0  0  0  0  0
    0.4709    2.8687   -0.5484 C   0  0  0  0  0  0  0  0  0  0  0  0
    0.7917    1.8020   -0.1126 C   0  0  0  0  0  0  0  0  0  0  0  0
    1.2211    0.4980    0.4049 C   0  0  0  0  0  3  0  0  0  0  0  0
    2.7493    0.4419    0.5753 C   0  0  0  0  0  0  0  0  0  0  0  0
    0.5342    0.1706    1.6592 C   0  0  0  0  0  0  0  0  0  0  0  0
    0.0001   -0.1139    2.6910 C   0  0  0  0  0  0  0  0  0  0  0  0
    0.1856    3.8171   -0.9359 H   0  0  0  0  0  0  0  0  0  0  0  0
    3.2359    0.6495   -0.3772 H   0  0  0  0  0  0  0  0  0  0  0  0
    3.0743    1.1827    1.3046 H   0  0  0  0  0  0  0  0  0  0  0  0
    3.0471   -0.5470    0.9223 H   0  0  0  0  0  0  0  0  0  0  0  0
   -0.4747   -0.3670    3.6083 H   0  0  0  0  0  0  0  0  0  0  0  0
  1  2  3  0
  1  6  1  0
  2  3  1  0
  3  4  1  0
  3  7  1  0
  3  8  1  0
  4  5  3  0
  5  9  1  0
 10 11  3  0
 10 16  1  0
 11 12  1  0
 12 13  1  0
 12 14  1  0
 13 17  1  0
 13 18  1  0
 13 19  1  0
 14 15  3  0
 15 20  1  0
M  RAD  1  12   2
M  END
>  <reaction>  (14) 
rxn_1358

>  <mol_properties>  (14) 
{"1": {"label": "*4", "atom_type": "Ct"}, "2": {"label": "*3", "atom_type": "Cs"}, "6": {"label": "*2", "atom_type": "H0"}, "10": {"label": "*0", "atom_type": "Ct"}, "11": {"label": "*1", "atom_type": "Cs"}}

>  <type>  (14) 
unop_10

>  <geom_source>  (14) 
Heuristics

$$$$

     RDKit          3D

 20 18  0  0  0  0  0  0  0  0999 V2000
   -0.8665   -1.2050   -3.0623 C   0  0  0  0  0  0  0  0  0  0  0  0
   -0.8665   -1.2050   -1.8668 C   0  0  0  0  0  0  0  0  0  0  0  0
   -0.8665   -1.2050   -0.4038 C   0  0  0  0  0  0  0  0  0  0  0  0
   -2.1805   -0.9294    0.1774 C   0  0  0  0  0  0  0  0  0  0  0  0
   -3.2542   -0.7041    0.6523 C   0  0  0  0  0  0  0  0  0  0  0  0
   -0.8665   -1.2050   -4.1257 H   0  0  0  0  0  0  0  0  0  0  0  0
   -0.0083   -0.3106    0.0273 H   0  0  0  0  0  0  0  0  0  0  0  0
   -0.5111   -2.1748   -0.0446 H   0  0  0  0  0  0  0  0  0  0  0  0
   -4.2094   -0.5038    1.0748 H   0  0  0  0  0  0  0  0  0  0  0  0
    1.7573   -0.2716    2.8118 C   0  0  0  0  0  0  0  0  0  0  0  0
    1.3668    0.1114    1.7481 C   0  0  0  0  0  0  0  0  0  0  0  0
    0.8510    0.5850    0.4589 C   0  0  0  0  0  3  0  0  0  0  0  0
   -0.3826    1.4850    0.6488 C   0  0  0  0  0  0  0  0  0  0  0  0
    1.8942    1.2694   -0.3129 C   0  0  0  0  0  0  0  0  0  0  0  0
    2.7217    1.8457   -0.9563 C   0  0  0  0  0  0  0  0  0  0  0  0
    2.1046   -0.6121    3.7575 H   0  0  0  0  0  0  0  0  0  0  0  0
   -1.1572    0.9421    1.1895 H   0  0  0  0  0  0  0  0  0  0  0  0
   -0.1155    2.3749    1.2172 H   0  0  0  0  0  0  0  0  0  0  0  0
   -0.7703    1.7914   -0.3221 H   0  0  0  0  0  0  0  0  0  0  0  0
    3.4574    2.3580   -1.5283 H   0  0  0  0  0  0  0  0  0  0  0  0
  1  2  3  0
  1  6  1  0
  2  3  1  0
  3  4  1  0
  3  7  1  0
  3  8  1  0
  4  5  3  0
  5  9  1  0
 10 11  3  0
 10 16  1  0
 11 12  1  0
 12 13  1  0
 12 14  1  0
 13 17  1  0
 13 18  1  0
 13 19  1  0
 14 15  3  0
 15 20  1  0
M  RAD  1  12   2
M  END
>  <reaction>  (15) 
rxn_1358

>  <mol_properties>  (15) 
{"1": {"label": "*4", "atom_type": "Ct"}, "2": {"label": "*3", "atom_type": "Cs"}, "6": {"label": "*2", "atom_type": "H0"}, "10": {"label": "*0", "atom_type": "Ct"}, "11": {"label": "*1", "atom_type": "Cs"}}

>  <type>  (15) 
unop_11

>  <geom_source>  (15) 
Heuristics

$$$$

     RDKit          3D

 20 18  0  0  0  0  0  0  0  0999 V2000
   -0.6919   -1.3771   -2.9080 C   0  0  0  0  0  0  0  0  0  0  0  0
   -0.6919   -1.3771   -1.7126 C   0  0  0  0  0  0  0  0  0  0  0  0
   -0.6919   -1.3771   -0.2496 C   0  0  0  0  0  0  0  0  0  0  0  0
   -2.0060   -1.1015    0.3316 C   0  0  0  0  0  0  0  0  0  0  0  0
   -3.0797   -0.8763    0.8065 C   0  0  0  0  0  0  0  0  0  0  0  0
   -0.6919   -1.3771   -3.9715 H   0  0  0  0  0  0  0  0  0  0  0  0
    0.1662   -0.4827    0.1815 H   0  0  0  0  0  0  0  0  0  0  0  0
   -0.3366   -2.3470    0.1096 H   0  0  0  0  0  0  0  0  0  0  0  0
   -4.0349   -0.6759    1.2290 H   0  0  0  0  0  0  0  0  0  0  0  0
    2.1473    1.5349   -1.5257 C   0  0  0  0  0  0  0  0  0  0  0  0
    1.6303    1.0432   -0.5656 C   0  0  0  0  0  0  0  0  0  0  0  0
    1.0255    0.4129    0.6131 C   0  0  0  0  0  3  0  0  0  0  0  0
    2.0846   -0.3098    1.4637 C   0  0  0  0  0  0  0  0  0  0  0  0
    0.2766    1.3884    1.4131 C   0  0  0  0  0  0  0  0  0  0  0  0
   -0.3276    2.1660    2.0921 C   0  0  0  0  0  0  0  0  0  0  0  0
    2.6069    1.9721   -2.3792 H   0  0  0  0  0  0  0  0  0  0  0  0
    2.5996   -1.0553    0.8588 H   0  0  0  0  0  0  0  0  0  0  0  0
    2.8165    0.4039    1.8399 H   0  0  0  0  0  0  0  0  0  0  0  0
    1.6068   -0.8022    2.3100 H   0  0  0  0  0  0  0  0  0  0  0  0
   -0.8648    2.8573    2.6957 H   0  0  0  0  0  0  0  0  0  0  0  0
  1  2  3  0
  1  6  1  0
  2  3  1  0
  3  4  1  0
  3  7  1  0
  3  8  1  0
  4  5  3  0
  5  9  1  0
 10 11  3  0
 10 16  1  0
 11 12  1  0
 12 13  1  0
 12 14  1  0
 13 17  1  0
 13 18  1  0
 13 19  1  0
 14 15  3  0
 15 20  1  0
M  RAD  1  12   2
M  END
>  <reaction>  (16) 
rxn_1358

>  <mol_properties>  (16) 
{"1": {"label": "*4", "atom_type": "Ct"}, "2": {"label": "*3", "atom_type": "Cs"}, "6": {"label": "*2", "atom_type": "H0"}, "10": {"label": "*0", "atom_type": "Ct"}, "11": {"label": "*1", "atom_type": "Cs"}}

>  <type>  (16) 
unop_12

>  <geom_source>  (16) 
Heuristics

$$$$

     RDKit          3D

 20 18  0  0  0  0  0  0  0  0999 V2000
   -1.0464    0.2436   -0.0555 C   0  0  0  0  0  0  0  0  0  0  0  0
   -1.4731    0.9204   -1.3561 C   0  0  0  0  0  0  0  0  0  0  0  0
    1.4580   -0.3121   -0.5678 C   0  0  0  0  0  3  0  0  0  0  0  0
   -1.6394   -1.0958    0.0426 C   0  0  0  0  0  0  0  0  0  0  0  0
   -1.4645    1.0467    1.1001 C   0  0  0  0  0  0  0  0  0  0  0  0
    1.8675   -1.5125    0.1638 C   0  0  0  0  0  0  0  0  0  0  0  0
    2.3446    0.8021   -0.2264 C   0  0  0  0  0  0  0  0  0  0  0  0
   -2.1250   -2.1967    0.1223 C   0  0  0  0  0  0  0  0  0  0  0  0
   -1.8062    1.7073    2.0493 C   0  0  0  0  0  0  0  0  0  0  0  0
    2.2031   -2.5020    0.7655 C   0  0  0  0  0  0  0  0  0  0  0  0
    3.0735    1.7208    0.0536 C   0  0  0  0  0  0  0  0  0  0  0  0
    0.2641    0.1292   -0.0407 H   0  0  0  0  0  0  0  0  0  0  0  0
   -1.0056    1.9254   -1.4322 H   0  0  0  0  0  0  0  0  0  0  0  0
   -1.1369    0.3168   -2.2263 H   0  0  0  0  0  0  0  0  0  0  0  0
   -2.5787    1.0329   -1.4011 H   0  0  0  0  0  0  0  0  0  0  0  0
    1.5115   -0.5070   -1.6587 H   0  0  0  0  0  0  0  0  0  0  0  0
   -2.5514   -3.1627    0.1922 H   0  0  0  0  0  0  0  0  0  0  0  0
   -2.1063    2.2870    2.8822 H   0  0  0  0  0  0  0  0  0  0  0  0
    2.4979   -3.3704    1.2937 H   0  0  0  0  0  0  0  0  0  0  0  0
    3.7134    2.5271    0.2994 H   0  0  0  0  0  0  0  0  0  0  0  0
  1  2  1  0
  1  4  1  0
  1  5  1  0
  1 12  1  0
  2 13  1  0
  2 14  1  0
  2 15  1  0
  3  6  1  0
  3  7  1  0
  3 16  1  0
  4  8  3  0
  5  9  3  0
  6 10  3  0
  7 11  3  0
  8 17  1  0
  9 18  1  0
 10 19  1  0
 11 20  1  0
M  RAD  1   3   2
M  END
>  <reaction>  (17) 
rxn_1358

>  <mol_properties>  (17) 
{"1": {"label": "*4", "atom_type": "Ct"}, "2": {"label": "*3", "atom_type": "Cs"}, "6": {"label": "*2", "atom_type": "H0"}, "10": {"label": "*0", "atom_type": "Ct"}, "11": {"label": "*1", "atom_type": "Cs"}}

>  <type>  (17) 
unop_13

>  <geom_source>  (17) 
AutoTST

$$$$
