
     RDKit          3D

  5  4  0  0  0  0  0  0  0  0999 V2000
    0.0000    0.0000    0.0000 C   0  0  0  0  0  0  0  0  0  0  0  0
   -0.6486   -0.7720   -0.4113 H   0  0  0  0  0  0  0  0  0  0  0  0
   -0.3482    0.9787   -0.3267 H   0  0  0  0  0  0  0  0  0  0  0  0
   -0.0223   -0.0487    1.0876 H   0  0  0  0  0  0  0  0  0  0  0  0
    1.0191   -0.1580   -0.3496 H   0  0  0  0  0  0  0  0  0  0  0  0
  1  2  1  0
  1  3  1  0
  1  4  1  0
  1  5  1  0
M  END
>  <reaction>  (1) 
rxn_838

>  <mol_properties>  (1) 
{"0": {"label": "donator", "atom_type": "Cs"}, "1": {"label": "d_hydrogen", "atom_type": "H0"}}

>  <type>  (1) 
r1h

$$$$

     RDKit          3D

 11 10  0  0  0  0  0  0  0  0999 V2000
   -0.9580    1.1013   -2.2955 C   0  0  0  0  0  0  0  0  0  0  0  0
   -0.5129    0.5941   -1.2929 C   0  0  0  0  0  0  0  0  0  0  0  0
   -0.0301   -0.0160   -0.1357 C   0  0  0  0  0  3  0  0  0  0  0  0
   -0.6593   -1.2845    0.3661 C   0  0  0  0  0  0  0  0  0  0  0  0
    1.0691    0.5292    0.5269 C   0  0  0  0  0  0  0  0  0  0  0  0
    2.0168    0.9794    1.1266 C   0  0  0  0  0  0  0  0  0  0  0  0
   -1.3415    1.5561   -3.1769 H   0  0  0  0  0  0  0  0  0  0  0  0
   -1.7166   -1.3186    0.1054 H   0  0  0  0  0  0  0  0  0  0  0  0
   -0.1742   -2.1550   -0.0865 H   0  0  0  0  0  0  0  0  0  0  0  0
   -0.5505   -1.3663    1.4470 H   0  0  0  0  0  0  0  0  0  0  0  0
    2.8514    1.3842    1.6465 H   0  0  0  0  0  0  0  0  0  0  0  0
  1  2  3  0
  1  7  1  0
  2  3  1  0
  3  4  1  0
  3  5  1  0
  4  8  1  0
  4  9  1  0
  4 10  1  0
  5  6  3  0
  6 11  1  0
M  RAD  1   3   2
M  END
>  <reaction>  (2) 
rxn_838

>  <mol_properties>  (2) 
{"2": {"label": "acceptor", "atom_type": "Cs"}}

>  <type>  (2) 
r2

$$$$

     RDKit          3D

 12 11  0  0  0  0  0  0  0  0999 V2000
    2.1696    0.6854    1.1310 C   0  0  0  0  0  0  0  0  0  0  0  0
    1.2518    0.4145    0.4134 C   0  0  0  0  0  0  0  0  0  0  0  0
    0.1391    0.0443   -0.4683 C   0  0  0  0  0  0  0  0  0  0  0  0
   -0.2054   -1.4492   -0.3339 C   0  0  0  0  0  0  0  0  0  0  0  0
   -1.0375    0.8853   -0.2222 C   0  0  0  0  0  0  0  0  0  0  0  0
   -2.0160    1.5463   -0.0311 C   0  0  0  0  0  0  0  0  0  0  0  0
    2.9819    0.9356    1.7702 H   0  0  0  0  0  0  0  0  0  0  0  0
    0.4629    0.2285   -1.4981 H   0  0  0  0  0  0  0  0  0  0  0  0
   -0.5327   -1.6703    0.6812 H   0  0  0  0  0  0  0  0  0  0  0  0
    0.6727   -2.0535   -0.5593 H   0  0  0  0  0  0  0  0  0  0  0  0
   -1.0064   -1.7081   -1.0256 H   0  0  0  0  0  0  0  0  0  0  0  0
   -2.8802    2.1413    0.1426 H   0  0  0  0  0  0  0  0  0  0  0  0
  1  2  3  0
  1  7  1  0
  2  3  1  0
  3  4  1  0
  3  5  1  0
  3  8  1  0
  4  9  1  0
  4 10  1  0
  4 11  1  0
  5  6  3  0
  6 12  1  0
M  END
>  <reaction>  (3) 
rxn_838

>  <mol_properties>  (3) 
{"2": {"label": "acceptor", "atom_type": "Cs"}, "11": {"label": "a_hydrogen", "atom_type": "H0"}}

>  <type>  (3) 
r2h

$$$$

     RDKit          3D

 16 14  0  0  0  0  0  0  0  0999 V2000
   -2.1297    0.5298    1.2954 C   0  0  0  0  0  0  0  0  0  0  0  0
   -1.0831    0.4021    0.7257 C   0  0  0  0  0  0  0  0  0  0  0  0
    0.1474    0.2295   -0.0174 C   0  0  0  0  0  0  0  0  0  0  0  0
    0.4348    1.3584   -1.0061 C   0  0  0  0  0  0  0  0  0  0  0  0
    1.2822   -0.1284    0.8073 C   0  0  0  0  0  0  0  0  0  0  0  0
    2.2434   -0.4511    1.4463 C   0  0  0  0  0  0  0  0  0  0  0  0
   -3.0499    0.6479    1.8150 H   0  0  0  0  0  0  0  0  0  0  0  0
   -0.4213    1.4992   -1.6657 H   0  0  0  0  0  0  0  0  0  0  0  0
    0.6262    2.2932   -0.4780 H   0  0  0  0  0  0  0  0  0  0  0  0
    1.3103    1.1108   -1.6059 H   0  0  0  0  0  0  0  0  0  0  0  0
    3.0897   -0.7293    2.0270 H   0  0  0  0  0  0  0  0  0  0  0  0
   -0.2769   -1.9143   -1.6561 C   0  0  0  0  0  3  0  0  0  0  0  0
   -0.0501   -0.7612   -0.7344 H   0  0  0  0  0  0  0  0  0  0  0  0
   -0.4781   -2.7046   -0.9426 H   0  0  0  0  0  0  0  0  0  0  0  0
   -1.1249   -1.5790   -2.2422 H   0  0  0  0  0  0  0  0  0  0  0  0
    0.6689   -1.9807   -2.1813 H   0  0  0  0  0  0  0  0  0  0  0  0
  1  2  3  0
  1  7  1  0
  2  3  1  0
  3  4  1  0
  3  5  1  0
  3 13  1  0
  4  8  1  0
  4  9  1  0
  4 10  1  0
  5  6  3  0
  6 11  1  0
 12 14  1  0
 12 15  1  0
 12 16  1  0
M  RAD  1  12   2
M  END
>  <reaction>  (4) 
rxn_838

>  <mol_properties>  (4) 
{"1": {"label": "*0", "atom_type": "Ct"}, "2": {"label": "*1", "atom_type": "Cs"}, "11": {"label": "*3", "atom_type": "Cs"}, "12": {"label": "*2", "atom_type": "H0"}, "13": {"label": "*4", "atom_type": "H0"}}

>  <type>  (4) 
ts

$$$$

     RDKit          3D

 16 14  0  0  0  0  0  0  0  0999 V2000
   -2.2313    0.7445    1.0826 C   0  0  0  0  0  0  0  0  0  0  0  0
   -1.2359    0.5711    0.4424 C   0  0  0  0  0  0  0  0  0  0  0  0
   -0.0233    0.3916   -0.3636 C   0  0  0  0  0  3  0  0  0  0  0  0
    0.4877    1.7367   -0.9087 C   0  0  0  0  0  0  0  0  0  0  0  0
    1.0214   -0.3059    0.3944 C   0  0  0  0  0  0  0  0  0  0  0  0
    1.8957   -0.8590    0.9948 C   0  0  0  0  0  0  0  0  0  0  0  0
   -3.1163    0.8987    1.6517 H   0  0  0  0  0  0  0  0  0  0  0  0
   -0.2915    2.2166   -1.4999 H   0  0  0  0  0  0  0  0  0  0  0  0
    0.7616    2.3965   -0.0866 H   0  0  0  0  0  0  0  0  0  0  0  0
    1.3641    1.5734   -1.5352 H   0  0  0  0  0  0  0  0  0  0  0  0
    2.6730   -1.3507    1.5286 H   0  0  0  0  0  0  0  0  0  0  0  0
   -0.0233   -2.0793   -1.2372 C   0  0  0  0  0  0  0  0  0  0  0  0
   -0.0233   -0.8473   -0.8016 H   0  0  0  0  0  0  0  0  0  0  0  0
    0.8658   -2.5927   -0.8742 H   0  0  0  0  0  0  0  0  0  0  0  0
   -0.9124   -2.5926   -0.8742 H   0  0  0  0  0  0  0  0  0  0  0  0
   -0.0233   -2.0793   -2.3261 H   0  0  0  0  0  0  0  0  0  0  0  0
  1  2  3  0
  1  7  1  0
  2  3  1  0
  3  4  1  0
  3  5  1  0
  4  8  1  0
  4  9  1  0
  4 10  1  0
  5  6  3  0
  6 11  1  0
 12 13  1  0
 12 14  1  0
 12 15  1  0
 12 16  1  0
M  RAD  1   3   2
M  END
>  <reaction>  (5) 
rxn_838

>  <mol_properties>  (5) 
{"1": {"label": "*0", "atom_type": "Ct"}, "2": {"label": "*1", "atom_type": "Cs"}, "11": {"label": "*3", "atom_type": "Cs"}, "12": {"label": "*2", "atom_type": "H0"}, "13": {"label": "*4", "atom_type": "H0"}}

>  <type>  (5) 
unop_1

>  <geom_source>  (5) 
Heuristics

$$$$

     RDKit          3D

 16 14  0  0  0  0  0  0  0  0999 V2000
   -0.8482    1.6174   -1.8015 C   0  0  0  0  0  0  0  0  0  0  0  0
   -0.3059    0.9372   -0.9805 C   0  0  0  0  0  0  0  0  0  0  0  0
    0.3942    0.1202    0.0168 C   0  0  0  0  0  3  0  0  0  0  0  0
    1.6712    0.8202    0.5137 C   0  0  0  0  0  0  0  0  0  0  0  0
   -0.4897   -0.2287    1.1345 C   0  0  0  0  0  0  0  0  0  0  0  0
   -1.1843   -0.5144    2.0655 C   0  0  0  0  0  0  0  0  0  0  0  0
   -1.3304    2.2221   -2.5314 H   0  0  0  0  0  0  0  0  0  0  0  0
    2.3283    1.0334   -0.3289 H   0  0  0  0  0  0  0  0  0  0  0  0
    1.4188    1.7572    1.0083 H   0  0  0  0  0  0  0  0  0  0  0  0
    2.1934    0.1782    1.2224 H   0  0  0  0  0  0  0  0  0  0  0  0
   -1.8018   -0.7684    2.8932 H   0  0  0  0  0  0  0  0  0  0  0  0
    0.3942   -2.3507   -0.8568 C   0  0  0  0  0  0  0  0  0  0  0  0
    0.3942   -1.1188   -0.4212 H   0  0  0  0  0  0  0  0  0  0  0  0
    1.2834   -2.8641   -0.4938 H   0  0  0  0  0  0  0  0  0  0  0  0
   -0.4949   -2.8641   -0.4938 H   0  0  0  0  0  0  0  0  0  0  0  0
    0.3942   -2.3507   -1.9457 H   0  0  0  0  0  0  0  0  0  0  0  0
  1  2  3  0
  1  7  1  0
  2  3  1  0
  3  4  1  0
  3  5  1  0
  4  8  1  0
  4  9  1  0
  4 10  1  0
  5  6  3  0
  6 11  1  0
 12 13  1  0
 12 14  1  0
 12 15  1  0
 12 16  1  0
M  RAD  1   3   2
M  END
>  <reaction>  (6) 
rxn_838

>  <mol_properties>  (6) 
{"1": {"label": "*0", "atom_type": "Ct"}, "2": {"label": "*1", "atom_type": "Cs"}, "11": {"label": "*3", "atom_type": "Cs"}, "12": {"label": "*2", "atom_type": "H0"}, "13": {"label": "*4", "atom_type": "H0"}}

>  <type>  (6) 
unop_2

>  <geom_source>  (6) 
Heuristics

$$$$

     RDKit          3D

 16 14  0  0  0  0  0  0  0  0999 V2000
   -1.5331    0.3170    2.0445 C   0  0  0  0  0  0  0  0  0  0  0  0
   -0.9400    0.2898    1.0062 C   0  0  0  0  0  0  0  0  0  0  0  0
   -0.2399    0.2811   -0.2831 C   0  0  0  0  0  3  0  0  0  0  0  0
   -0.5147    1.5713   -1.0752 C   0  0  0  0  0  0  0  0  0  0  0  0
    1.2000    0.0632   -0.1054 C   0  0  0  0  0  0  0  0  0  0  0  0
    2.3795   -0.0973    0.0122 C   0  0  0  0  0  0  0  0  0  0  0  0
   -2.0605    0.3411    2.9677 H   0  0  0  0  0  0  0  0  0  0  0  0
   -1.5868    1.6906   -1.2280 H   0  0  0  0  0  0  0  0  0  0  0  0
   -0.1394    2.4357   -0.5289 H   0  0  0  0  0  0  0  0  0  0  0  0
   -0.0172    1.5244   -2.0433 H   0  0  0  0  0  0  0  0  0  0  0  0
    3.4282   -0.2401    0.1167 H   0  0  0  0  0  0  0  0  0  0  0  0
   -0.2399   -2.1898   -1.1567 C   0  0  0  0  0  0  0  0  0  0  0  0
   -0.2399   -0.9578   -0.7211 H   0  0  0  0  0  0  0  0  0  0  0  0
    0.6493   -2.7031   -0.7937 H   0  0  0  0  0  0  0  0  0  0  0  0
   -1.1290   -2.7031   -0.7937 H   0  0  0  0  0  0  0  0  0  0  0  0
   -0.2399   -2.1898   -2.2456 H   0  0  0  0  0  0  0  0  0  0  0  0
  1  2  3  0
  1  7  1  0
  2  3  1  0
  3  4  1  0
  3  5  1  0
  4  8  1  0
  4  9  1  0
  4 10  1  0
  5  6  3  0
  6 11  1  0
 12 13  1  0
 12 14  1  0
 12 15  1  0
 12 16  1  0
M  RAD  1   3   2
M  END
>  <reaction>  (7) 
rxn_838

>  <mol_properties>  (7) 
{"1": {"label": "*0", "atom_type": "Ct"}, "2": {"label": "*1", "atom_type": "Cs"}, "11": {"label": "*3", "atom_type": "Cs"}, "12": {"label": "*2", "atom_type": "H0"}, "13": {"label": "*4", "atom_type": "H0"}}

>  <type>  (7) 
unop_3

>  <geom_source>  (7) 
Heuristics

$$$$

     RDKit          3D

 16 14  0  0  0  0  0  0  0  0999 V2000
    2.1257    1.0755   -0.8545 C   0  0  0  0  0  0  0  0  0  0  0  0
    1.1190    0.5709   -0.4511 C   0  0  0  0  0  0  0  0  0  0  0  0
   -0.0936   -0.0754    0.0630 C   0  0  0  0  0  3  0  0  0  0  0  0
    0.1843   -0.8091    1.3866 C   0  0  0  0  0  0  0  0  0  0  0  0
   -1.1893    0.8891    0.2100 C   0  0  0  0  0  0  0  0  0  0  0  0
   -2.0947    1.6574    0.3543 C   0  0  0  0  0  0  0  0  0  0  0  0
    3.0207    1.5242   -1.2131 H   0  0  0  0  0  0  0  0  0  0  0  0
    0.9735   -1.5464    1.2425 H   0  0  0  0  0  0  0  0  0  0  0  0
    0.5009   -0.1004    2.1507 H   0  0  0  0  0  0  0  0  0  0  0  0
   -0.7195   -1.3130    1.7274 H   0  0  0  0  0  0  0  0  0  0  0  0
   -2.8996    2.3404    0.4825 H   0  0  0  0  0  0  0  0  0  0  0  0
   -0.0936   -2.5463   -0.8106 C   0  0  0  0  0  0  0  0  0  0  0  0
   -0.0936   -1.3143   -0.3751 H   0  0  0  0  0  0  0  0  0  0  0  0
    0.7955   -3.0596   -0.4477 H   0  0  0  0  0  0  0  0  0  0  0  0
   -0.9827   -3.0596   -0.4477 H   0  0  0  0  0  0  0  0  0  0  0  0
   -0.0936   -2.5463   -1.8996 H   0  0  0  0  0  0  0  0  0  0  0  0
  1  2  3  0
  1  7  1  0
  2  3  1  0
  3  4  1  0
  3  5  1  0
  4  8  1  0
  4  9  1  0
  4 10  1  0
  5  6  3  0
  6 11  1  0
 12 13  1  0
 12 14  1  0
 12 15  1  0
 12 16  1  0
M  RAD  1   3   2
M  END
>  <reaction>  (8) 
rxn_838

>  <mol_properties>  (8) 
{"1": {"label": "*0", "atom_type": "Ct"}, "2": {"label": "*1", "atom_type": "Cs"}, "11": {"label": "*3", "atom_type": "Cs"}, "12": {"label": "*2", "atom_type": "H0"}, "13": {"label": "*4", "atom_type": "H0"}}

>  <type>  (8) 
unop_4

>  <geom_source>  (8) 
Heuristics

$$$$

     RDKit          3D

 16 14  0  0  0  0  0  0  0  0999 V2000
   -0.2859   -0.0236    2.5310 C   0  0  0  0  0  0  0  0  0  0  0  0
   -0.2533    0.0193    1.3361 C   0  0  0  0  0  0  0  0  0  0  0  0
   -0.2533    0.0732   -0.1300 C   0  0  0  0  0  3  0  0  0  0  0  0
   -1.5179    0.7698   -0.6621 C   0  0  0  0  0  0  0  0  0  0  0  0
    0.9624    0.7176   -0.6390 C   0  0  0  0  0  0  0  0  0  0  0  0
    1.9368    1.2531   -1.0801 C   0  0  0  0  0  0  0  0  0  0  0  0
   -0.3150   -0.0617    3.5934 H   0  0  0  0  0  0  0  0  0  0  0  0
   -2.4056    0.2503   -0.3030 H   0  0  0  0  0  0  0  0  0  0  0  0
   -1.5519    1.8026   -0.3179 H   0  0  0  0  0  0  0  0  0  0  0  0
   -1.5140    0.7625   -1.7516 H   0  0  0  0  0  0  0  0  0  0  0  0
    2.8031    1.7293   -1.4723 H   0  0  0  0  0  0  0  0  0  0  0  0
   -0.2533   -2.3977   -1.0036 C   0  0  0  0  0  0  0  0  0  0  0  0
   -0.2533   -1.1657   -0.5681 H   0  0  0  0  0  0  0  0  0  0  0  0
    0.6358   -2.9111   -0.6406 H   0  0  0  0  0  0  0  0  0  0  0  0
   -1.1424   -2.9111   -0.6406 H   0  0  0  0  0  0  0  0  0  0  0  0
   -0.2533   -2.3977   -2.0926 H   0  0  0  0  0  0  0  0  0  0  0  0
  1  2  3  0
  1  7  1  0
  2  3  1  0
  3  4  1  0
  3  5  1  0
  4  8  1  0
  4  9  1  0
  4 10  1  0
  5  6  3  0
  6 11  1  0
 12 13  1  0
 12 14  1  0
 12 15  1  0
 12 16  1  0
M  RAD  1   3   2
M  END
>  <reaction>  (9) 
rxn_838

>  <mol_properties>  (9) 
{"1": {"label": "*0", "atom_type": "Ct"}, "2": {"label": "*1", "atom_type": "Cs"}, "11": {"label": "*3", "atom_type": "Cs"}, "12": {"label": "*2", "atom_type": "H0"}, "13": {"label": "*4", "atom_type": "H0"}}

>  <type>  (9) 
unop_5

>  <geom_source>  (9) 
Heuristics

$$$$

     RDKit          3D

 16 14  0  0  0  0  0  0  0  0999 V2000
    2.4240    0.6847    0.2417 C   0  0  0  0  0  0  0  0  0  0  0  0
    1.2769    0.3745    0.1043 C   0  0  0  0  0  0  0  0  0  0  0  0
   -0.1233   -0.0383   -0.0417 C   0  0  0  0  0  3  0  0  0  0  0  0
   -0.5778   -0.8987    1.1502 C   0  0  0  0  0  0  0  0  0  0  0  0
   -1.0035    1.1207   -0.2267 C   0  0  0  0  0  0  0  0  0  0  0  0
   -1.7455    2.0489   -0.3634 C   0  0  0  0  0  0  0  0  0  0  0  0
    3.4437    0.9605    0.3638 H   0  0  0  0  0  0  0  0  0  0  0  0
    0.0663   -1.7726    1.2430 H   0  0  0  0  0  0  0  0  0  0  0  0
   -0.5232   -0.3226    2.0730 H   0  0  0  0  0  0  0  0  0  0  0  0
   -1.6063   -1.2253    1.0003 H   0  0  0  0  0  0  0  0  0  0  0  0
   -2.4051    2.8742   -0.4849 H   0  0  0  0  0  0  0  0  0  0  0  0
   -0.1233   -2.5093   -0.9153 C   0  0  0  0  0  0  0  0  0  0  0  0
   -0.1233   -1.2773   -0.4797 H   0  0  0  0  0  0  0  0  0  0  0  0
    0.7658   -3.0226   -0.5523 H   0  0  0  0  0  0  0  0  0  0  0  0
   -1.0124   -3.0226   -0.5523 H   0  0  0  0  0  0  0  0  0  0  0  0
   -0.1233   -2.5093   -2.0042 H   0  0  0  0  0  0  0  0  0  0  0  0
  1  2  3  0
  1  7  1  0
  2  3  1  0
  3  4  1  0
  3  5  1  0
  4  8  1  0
  4  9  1  0
  4 10  1  0
  5  6  3  0
  6 11  1  0
 12 13  1  0
 12 14  1  0
 12 15  1  0
 12 16  1  0
M  RAD  1   3   2
M  END
>  <reaction>  (10) 
rxn_838

>  <mol_properties>  (10) 
{"1": {"label": "*0", "atom_type": "Ct"}, "2": {"label": "*1", "atom_type": "Cs"}, "11": {"label": "*3", "atom_type": "Cs"}, "12": {"label": "*2", "atom_type": "H0"}, "13": {"label": "*4", "atom_type": "H0"}}

>  <type>  (10) 
unop_6

>  <geom_source>  (10) 
Heuristics

$$$$

     RDKit          3D

 16 14  0  0  0  0  0  0  0  0999 V2000
    2.0975    0.2796    1.3875 C   0  0  0  0  0  0  0  0  0  0  0  0
    1.1173    0.1593    0.7125 C   0  0  0  0  0  0  0  0  0  0  0  0
   -0.0953   -0.0202   -0.0935 C   0  0  0  0  0  3  0  0  0  0  0  0
   -1.1983   -0.7313    0.7098 C   0  0  0  0  0  0  0  0  0  0  0  0
   -0.5708    1.2590   -0.6319 C   0  0  0  0  0  0  0  0  0  0  0  0
   -0.9890    2.2902   -1.0705 C   0  0  0  0  0  0  0  0  0  0  0  0
    2.9689    0.3866    1.9876 H   0  0  0  0  0  0  0  0  0  0  0  0
   -0.8346   -1.6949    1.0653 H   0  0  0  0  0  0  0  0  0  0  0  0
   -1.4881   -0.1267    1.5682 H   0  0  0  0  0  0  0  0  0  0  0  0
   -2.0728   -0.8883    0.0793 H   0  0  0  0  0  0  0  0  0  0  0  0
   -1.3608    3.2071   -1.4605 H   0  0  0  0  0  0  0  0  0  0  0  0
   -0.0953   -2.4911   -0.9671 C   0  0  0  0  0  0  0  0  0  0  0  0
   -0.0953   -1.2592   -0.5316 H   0  0  0  0  0  0  0  0  0  0  0  0
    0.7938   -3.0045   -0.6042 H   0  0  0  0  0  0  0  0  0  0  0  0
   -0.9844   -3.0045   -0.6042 H   0  0  0  0  0  0  0  0  0  0  0  0
   -0.0953   -2.4911   -2.0561 H   0  0  0  0  0  0  0  0  0  0  0  0
  1  2  3  0
  1  7  1  0
  2  3  1  0
  3  4  1  0
  3  5  1  0
  4  8  1  0
  4  9  1  0
  4 10  1  0
  5  6  3  0
  6 11  1  0
 12 13  1  0
 12 14  1  0
 12 15  1  0
 12 16  1  0
M  RAD  1   3   2
M  END
>  <reaction>  (11) 
rxn_838

>  <mol_properties>  (11) 
{"1": {"label": "*0", "atom_type": "Ct"}, "2": {"label": "*1", "atom_type": "Cs"}, "11": {"label": "*3", "atom_type": "Cs"}, "12": {"label": "*2", "atom_type": "H0"}, "13": {"label": "*4", "atom_type": "H0"}}

>  <type>  (11) 
unop_7

>  <geom_source>  (11) 
Heuristics

$$$$

     RDKit          3D

 16 14  0  0  0  0  0  0  0  0999 V2000
   -2.3175    1.1545   -0.0665 C   0  0  0  0  0  0  0  0  0  0  0  0
   -1.1826    0.7907   -0.1687 C   0  0  0  0  0  0  0  0  0  0  0  0
    0.2176    0.3778   -0.3147 C   0  0  0  0  0  3  0  0  0  0  0  0
    1.1427    1.5954   -0.4855 C   0  0  0  0  0  0  0  0  0  0  0  0
    0.6453   -0.4608    0.8105 C   0  0  0  0  0  0  0  0  0  0  0  0
    1.0246   -1.1337    1.7239 C   0  0  0  0  0  0  0  0  0  0  0  0
   -3.3265    1.4780    0.0244 H   0  0  0  0  0  0  0  0  0  0  0  0
    0.8291    2.1804   -1.3495 H   0  0  0  0  0  0  0  0  0  0  0  0
    1.1007    2.2274    0.4006 H   0  0  0  0  0  0  0  0  0  0  0  0
    2.1698    1.2624   -0.6313 H   0  0  0  0  0  0  0  0  0  0  0  0
    1.3618   -1.7319    2.5359 H   0  0  0  0  0  0  0  0  0  0  0  0
    0.2176   -2.0931   -1.1883 C   0  0  0  0  0  0  0  0  0  0  0  0
    0.2176   -0.8611   -0.7527 H   0  0  0  0  0  0  0  0  0  0  0  0
    1.1067   -2.6064   -0.8253 H   0  0  0  0  0  0  0  0  0  0  0  0
   -0.6715   -2.6064   -0.8253 H   0  0  0  0  0  0  0  0  0  0  0  0
    0.2176   -2.0931   -2.2772 H   0  0  0  0  0  0  0  0  0  0  0  0
  1  2  3  0
  1  7  1  0
  2  3  1  0
  3  4  1  0
  3  5  1  0
  4  8  1  0
  4  9  1  0
  4 10  1  0
  5  6  3  0
  6 11  1  0
 12 13  1  0
 12 14  1  0
 12 15  1  0
 12 16  1  0
M  RAD  1   3   2
M  END
>  <reaction>  (12) 
rxn_838

>  <mol_properties>  (12) 
{"1": {"label": "*0", "atom_type": "Ct"}, "2": {"label": "*1", "atom_type": "Cs"}, "11": {"label": "*3", "atom_type": "Cs"}, "12": {"label": "*2", "atom_type": "H0"}, "13": {"label": "*4", "atom_type": "H0"}}

>  <type>  (12) 
unop_8

>  <geom_source>  (12) 
Heuristics

$$$$

     RDKit          3D

 16 14  0  0  0  0  0  0  0  0999 V2000
    1.3452    1.3809   -1.6464 C   0  0  0  0  0  0  0  0  0  0  0  0
    0.7461    0.7277   -0.8431 C   0  0  0  0  0  0  0  0  0  0  0  0
    0.0460   -0.0894    0.1542 C   0  0  0  0  0  3  0  0  0  0  0  0
    0.9671   -0.4354    1.3371 C   0  0  0  0  0  0  0  0  0  0  0  0
   -1.1833    0.5674    0.6124 C   0  0  0  0  0  0  0  0  0  0  0  0
   -2.1823    1.0877    1.0147 C   0  0  0  0  0  0  0  0  0  0  0  0
    1.8779    1.9616   -2.3605 H   0  0  0  0  0  0  0  0  0  0  0  0
    1.8533   -0.9565    0.9762 H   0  0  0  0  0  0  0  0  0  0  0  0
    1.2787    0.4735    1.8502 H   0  0  0  0  0  0  0  0  0  0  0  0
    0.4382   -1.0741    2.0437 H   0  0  0  0  0  0  0  0  0  0  0  0
   -3.0706    1.5503    1.3725 H   0  0  0  0  0  0  0  0  0  0  0  0
    0.0460   -2.5603   -0.7194 C   0  0  0  0  0  0  0  0  0  0  0  0
    0.0460   -1.3283   -0.2838 H   0  0  0  0  0  0  0  0  0  0  0  0
    0.9351   -3.0736   -0.3564 H   0  0  0  0  0  0  0  0  0  0  0  0
   -0.8431   -3.0736   -0.3564 H   0  0  0  0  0  0  0  0  0  0  0  0
    0.0460   -2.5603   -1.8083 H   0  0  0  0  0  0  0  0  0  0  0  0
  1  2  3  0
  1  7  1  0
  2  3  1  0
  3  4  1  0
  3  5  1  0
  4  8  1  0
  4  9  1  0
  4 10  1  0
  5  6  3  0
  6 11  1  0
 12 13  1  0
 12 14  1  0
 12 15  1  0
 12 16  1  0
M  RAD  1   3   2
M  END
>  <reaction>  (13) 
rxn_838

>  <mol_properties>  (13) 
{"1": {"label": "*0", "atom_type": "Ct"}, "2": {"label": "*1", "atom_type": "Cs"}, "11": {"label": "*3", "atom_type": "Cs"}, "12": {"label": "*2", "atom_type": "H0"}, "13": {"label": "*4", "atom_type": "H0"}}

>  <type>  (13) 
unop_9

>  <geom_source>  (13) 
Heuristics

$$$$

     RDKit          3D

 16 14  0  0  0  0  0  0  0  0999 V2000
   -1.8047    1.4713   -1.1141 C   0  0  0  0  0  0  0  0  0  0  0  0
   -0.8347    0.9215   -0.6811 C   0  0  0  0  0  0  0  0  0  0  0  0
    0.3779    0.2752   -0.1670 C   0  0  0  0  0  3  0  0  0  0  0  0
    1.5195    1.2918    0.0087 C   0  0  0  0  0  0  0  0  0  0  0  0
    0.1089   -0.4431    1.0837 C   0  0  0  0  0  0  0  0  0  0  0  0
   -0.0794   -1.0235    2.1125 C   0  0  0  0  0  0  0  0  0  0  0  0
   -2.6671    1.9602   -1.4990 H   0  0  0  0  0  0  0  0  0  0  0  0
    1.7269    1.7834   -0.9412 H   0  0  0  0  0  0  0  0  0  0  0  0
    1.2411    2.0476    0.7419 H   0  0  0  0  0  0  0  0  0  0  0  0
    2.4190    0.7826    0.3531 H   0  0  0  0  0  0  0  0  0  0  0  0
   -0.2469   -1.5395    3.0271 H   0  0  0  0  0  0  0  0  0  0  0  0
    0.3779   -2.1957   -1.0406 C   0  0  0  0  0  0  0  0  0  0  0  0
    0.3779   -0.9637   -0.6050 H   0  0  0  0  0  0  0  0  0  0  0  0
    1.2670   -2.7090   -0.6776 H   0  0  0  0  0  0  0  0  0  0  0  0
   -0.5112   -2.7090   -0.6776 H   0  0  0  0  0  0  0  0  0  0  0  0
    0.3779   -2.1957   -2.1295 H   0  0  0  0  0  0  0  0  0  0  0  0
  1  2  3  0
  1  7  1  0
  2  3  1  0
  3  4  1  0
  3  5  1  0
  4  8  1  0
  4  9  1  0
  4 10  1  0
  5  6  3  0
  6 11  1  0
 12 13  1  0
 12 14  1  0
 12 15  1  0
 12 16  1  0
M  RAD  1   3   2
M  END
>  <reaction>  (14) 
rxn_838

>  <mol_properties>  (14) 
{"1": {"label": "*0", "atom_type": "Ct"}, "2": {"label": "*1", "atom_type": "Cs"}, "11": {"label": "*3", "atom_type": "Cs"}, "12": {"label": "*2", "atom_type": "H0"}, "13": {"label": "*4", "atom_type": "H0"}}

>  <type>  (14) 
unop_10

>  <geom_source>  (14) 
Heuristics

$$$$

     RDKit          3D

 16 14  0  0  0  0  0  0  0  0999 V2000
    1.1288   -0.0212    2.2664 C   0  0  0  0  0  0  0  0  0  0  0  0
    0.5818   -0.0098    1.2027 C   0  0  0  0  0  0  0  0  0  0  0  0
   -0.1183   -0.0185   -0.0866 C   0  0  0  0  0  3  0  0  0  0  0  0
   -1.6314   -0.2241    0.1023 C   0  0  0  0  0  0  0  0  0  0  0  0
    0.1607    1.2016   -0.8520 C   0  0  0  0  0  0  0  0  0  0  0  0
    0.3589    2.1936   -1.4903 C   0  0  0  0  0  0  0  0  0  0  0  0
    1.6152   -0.0314    3.2121 H   0  0  0  0  0  0  0  0  0  0  0  0
   -1.8145   -1.1549    0.6381 H   0  0  0  0  0  0  0  0  0  0  0  0
   -2.0548    0.6001    0.6750 H   0  0  0  0  0  0  0  0  0  0  0  0
   -2.1234   -0.2664   -0.8689 H   0  0  0  0  0  0  0  0  0  0  0  0
    0.5351    3.0756   -2.0578 H   0  0  0  0  0  0  0  0  0  0  0  0
   -0.1183   -2.4894   -0.9602 C   0  0  0  0  0  0  0  0  0  0  0  0
   -0.1183   -1.2574   -0.5246 H   0  0  0  0  0  0  0  0  0  0  0  0
    0.7709   -3.0027   -0.5972 H   0  0  0  0  0  0  0  0  0  0  0  0
   -1.0074   -3.0027   -0.5972 H   0  0  0  0  0  0  0  0  0  0  0  0
   -0.1183   -2.4894   -2.0491 H   0  0  0  0  0  0  0  0  0  0  0  0
  1  2  3  0
  1  7  1  0
  2  3  1  0
  3  4  1  0
  3  5  1  0
  4  8  1  0
  4  9  1  0
  4 10  1  0
  5  6  3  0
  6 11  1  0
 12 13  1  0
 12 14  1  0
 12 15  1  0
 12 16  1  0
M  RAD  1   3   2
M  END
>  <reaction>  (15) 
rxn_838

>  <mol_properties>  (15) 
{"1": {"label": "*0", "atom_type": "Ct"}, "2": {"label": "*1", "atom_type": "Cs"}, "11": {"label": "*3", "atom_type": "Cs"}, "12": {"label": "*2", "atom_type": "H0"}, "13": {"label": "*4", "atom_type": "H0"}}

>  <type>  (15) 
unop_11

>  <geom_source>  (15) 
Heuristics

$$$$

     RDKit          3D

 16 14  0  0  0  0  0  0  0  0999 V2000
    0.2859    1.5725   -1.9834 C   0  0  0  0  0  0  0  0  0  0  0  0
    0.2533    0.8548   -1.0270 C   0  0  0  0  0  0  0  0  0  0  0  0
    0.2533   -0.0248    0.1471 C   0  0  0  0  0  3  0  0  0  0  0  0
    1.5179    0.1826    0.9988 C   0  0  0  0  0  0  0  0  0  0  0  0
   -0.9624    0.1565    0.9481 C   0  0  0  0  0  0  0  0  0  0  0  0
   -1.9368    0.2958    1.6278 C   0  0  0  0  0  0  0  0  0  0  0  0
    0.3150    2.2106   -2.8337 H   0  0  0  0  0  0  0  0  0  0  0  0
    2.4056    0.0043    0.3930 H   0  0  0  0  0  0  0  0  0  0  0  0
    1.5519    1.2023    1.3803 H   0  0  0  0  0  0  0  0  0  0  0  0
    1.5140   -0.5079    1.8416 H   0  0  0  0  0  0  0  0  0  0  0  0
   -2.8031    0.4196    2.2321 H   0  0  0  0  0  0  0  0  0  0  0  0
    0.2533   -2.4957   -0.7265 C   0  0  0  0  0  0  0  0  0  0  0  0
    0.2533   -1.2637   -0.2909 H   0  0  0  0  0  0  0  0  0  0  0  0
    1.1424   -3.0090   -0.3635 H   0  0  0  0  0  0  0  0  0  0  0  0
   -0.6358   -3.0090   -0.3635 H   0  0  0  0  0  0  0  0  0  0  0  0
    0.2533   -2.4957   -1.8154 H   0  0  0  0  0  0  0  0  0  0  0  0
  1  2  3  0
  1  7  1  0
  2  3  1  0
  3  4  1  0
  3  5  1  0
  4  8  1  0
  4  9  1  0
  4 10  1  0
  5  6  3  0
  6 11  1  0
 12 13  1  0
 12 14  1  0
 12 15  1  0
 12 16  1  0
M  RAD  1   3   2
M  END
>  <reaction>  (16) 
rxn_838

>  <mol_properties>  (16) 
{"1": {"label": "*0", "atom_type": "Ct"}, "2": {"label": "*1", "atom_type": "Cs"}, "11": {"label": "*3", "atom_type": "Cs"}, "12": {"label": "*2", "atom_type": "H0"}, "13": {"label": "*4", "atom_type": "H0"}}

>  <type>  (16) 
unop_12

>  <geom_source>  (16) 
Heuristics

$$$$

     RDKit          3D

 16 14  0  0  0  0  0  0  0  0999 V2000
   -0.2967   -0.1846   -0.1285 C   0  0  0  0  0  3  0  0  0  0  0  0
   -0.3971   -1.5889   -0.7190 C   0  0  0  0  0  0  0  0  0  0  0  0
    2.0985    0.7721    0.2546 C   0  0  0  0  0  0  0  0  0  0  0  0
   -0.7420   -0.1846    1.2704 C   0  0  0  0  0  0  0  0  0  0  0  0
   -1.1183    0.7554   -0.9009 C   0  0  0  0  0  0  0  0  0  0  0  0
   -1.1059   -0.1850    2.4200 C   0  0  0  0  0  0  0  0  0  0  0  0
   -1.7917    1.5279   -1.5365 C   0  0  0  0  0  0  0  0  0  0  0  0
    1.0541    0.2411   -0.1783 H   0  0  0  0  0  0  0  0  0  0  0  0
    0.2426   -2.2896   -0.1410 H   0  0  0  0  0  0  0  0  0  0  0  0
   -0.0399   -1.5840   -1.7711 H   0  0  0  0  0  0  0  0  0  0  0  0
   -1.4468   -1.9557   -0.6959 H   0  0  0  0  0  0  0  0  0  0  0  0
    2.1803    1.6740    0.8955 H   0  0  0  0  0  0  0  0  0  0  0  0
    2.4353    1.0173   -0.7736 H   0  0  0  0  0  0  0  0  0  0  0  0
    2.7358   -0.0356    0.6697 H   0  0  0  0  0  0  0  0  0  0  0  0
   -1.4254   -0.1854    3.4289 H   0  0  0  0  0  0  0  0  0  0  0  0
   -2.3827    2.2057   -2.0943 H   0  0  0  0  0  0  0  0  0  0  0  0
  1  2  1  0
  1  4  1  0
  1  5  1  0
  2  9  1  0
  2 10  1  0
  2 11  1  0
  3  8  1  0
  3 12  1  0
  3 13  1  0
  3 14  1  0
  4  6  3  0
  5  7  3  0
  6 15  1  0
  7 16  1  0
M  RAD  1   1   2
M  END
>  <reaction>  (17) 
rxn_838

>  <mol_properties>  (17) 
{"1": {"label": "*0", "atom_type": "Ct"}, "2": {"label": "*1", "atom_type": "Cs"}, "11": {"label": "*3", "atom_type": "Cs"}, "12": {"label": "*2", "atom_type": "H0"}, "13": {"label": "*4", "atom_type": "H0"}}

>  <type>  (17) 
unop_13

>  <geom_source>  (17) 
AutoTST

$$$$

     RDKit          3D

 16 14  0  0  0  0  0  0  0  0999 V2000
   -0.8482    1.6174   -1.8015 C   0  0  0  0  0  0  0  0  0  0  0  0
   -0.3059    0.9372   -0.9805 C   0  0  0  0  0  0  0  0  0  0  0  0
    0.3942    0.1202    0.0168 C   0  0  0  0  0  3  0  0  0  0  0  0
    1.6712    0.8202    0.5137 C   0  0  0  0  0  0  0  0  0  0  0  0
   -0.4897   -0.2287    1.1345 C   0  0  0  0  0  0  0  0  0  0  0  0
   -1.1843   -0.5144    2.0655 C   0  0  0  0  0  0  0  0  0  0  0  0
   -1.3304    2.2221   -2.5314 H   0  0  0  0  0  0  0  0  0  0  0  0
    2.3283    1.0334   -0.3289 H   0  0  0  0  0  0  0  0  0  0  0  0
    1.4188    1.7572    1.0083 H   0  0  0  0  0  0  0  0  0  0  0  0
    2.1934    0.1782    1.2224 H   0  0  0  0  0  0  0  0  0  0  0  0
   -1.8018   -0.7684    2.8932 H   0  0  0  0  0  0  0  0  0  0  0  0
    0.3942   -2.3508   -0.8568 C   0  0  0  0  0  0  0  0  0  0  0  0
    0.3942   -1.1188   -0.4212 H   0  0  0  0  0  0  0  0  0  0  0  0
    1.2834   -2.8641   -0.4938 H   0  0  0  0  0  0  0  0  0  0  0  0
   -0.4949   -2.8641   -0.4938 H   0  0  0  0  0  0  0  0  0  0  0  0
    0.3942   -2.3508   -1.9457 H   0  0  0  0  0  0  0  0  0  0  0  0
  1  2  3  0
  1  7  1  0
  2  3  1  0
  3  4  1  0
  3  5  1  0
  4  8  1  0
  4  9  1  0
  4 10  1  0
  5  6  3  0
  6 11  1  0
 12 13  1  0
 12 14  1  0
 12 15  1  0
 12 16  1  0
M  RAD  1   3   2
M  END
>  <reaction>  (18) 
rxn_838

>  <mol_properties>  (18) 
{"1": {"label": "*0", "atom_type": "Ct"}, "2": {"label": "*1", "atom_type": "Cs"}, "11": {"label": "*3", "atom_type": "Cs"}, "12": {"label": "*2", "atom_type": "H0"}, "13": {"label": "*4", "atom_type": "H0"}}

>  <type>  (18) 
unop_14

>  <geom_source>  (18) 
gaussian_log

$$$$
