
     RDKit          3D

  6  5  0  0  0  0  0  0  0  0999 V2000
   -0.3669    0.0060    0.0609 C   0  0  0  0  0  0  0  0  0  0  0  0
    0.9818   -0.0507    0.4695 O   0  0  0  0  0  0  0  0  0  0  0  0
   -0.6066    0.9462   -0.4488 H   0  0  0  0  0  0  0  0  0  0  0  0
   -0.5221   -0.8115   -0.6420 H   0  0  0  0  0  0  0  0  0  0  0  0
   -1.0602   -0.1268    0.8992 H   0  0  0  0  0  0  0  0  0  0  0  0
    1.1451    0.6595    1.0897 H   0  0  0  0  0  0  0  0  0  0  0  0
  1  2  1  0
  1  3  1  0
  1  4  1  0
  1  5  1  0
  2  6  1  0
M  END
>  <reaction>  (1) 
rxn_3211

>  <mol_properties>  (1) 
{"1": {"label": "donator", "atom_type": "O2s"}, "5": {"label": "d_hydrogen", "atom_type": "H0"}}

>  <type>  (1) 
r1h

$$$$

     RDKit          3D

  7  6  0  0  0  0  0  0  0  0999 V2000
   -1.3059    0.5497   -0.1304 N   0  0  0  0  0  2  0  0  0  0  0  0
   -0.2700   -0.4288    0.0448 C   0  0  0  0  0  0  0  0  0  0  0  0
    1.1109    0.0669    0.0401 C   0  0  0  0  0  0  0  0  0  0  0  0
    2.1758    0.4925    0.0308 N   0  0  0  0  0  0  0  0  0  0  0  0
   -0.8815    1.4733   -0.2339 H   0  0  0  0  0  0  0  0  0  0  0  0
   -0.3767   -1.1909   -0.7373 H   0  0  0  0  0  0  0  0  0  0  0  0
   -0.4527   -0.9628    0.9858 H   0  0  0  0  0  0  0  0  0  0  0  0
  1  2  1  0
  1  5  1  0
  2  3  1  0
  2  6  1  0
  2  7  1  0
  3  4  3  0
M  RAD  1   1   2
M  END
>  <reaction>  (2) 
rxn_3211

>  <mol_properties>  (2) 
{"0": {"label": "acceptor", "atom_type": "N3s"}}

>  <type>  (2) 
r2

$$$$

     RDKit          3D

  8  7  0  0  0  0  0  0  0  0999 V2000
   -1.0805    0.5317    0.0204 N   0  0  0  0  0  0  0  0  0  0  0  0
   -0.1080   -0.5393    0.0956 C   0  0  0  0  0  0  0  0  0  0  0  0
    1.2945   -0.1247   -0.1005 C   0  0  0  0  0  0  0  0  0  0  0  0
    2.3714    0.2386   -0.2580 N   0  0  0  0  0  0  0  0  0  0  0  0
   -1.0516    0.9857   -0.8822 H   0  0  0  0  0  0  0  0  0  0  0  0
   -0.9009    1.2352    0.7235 H   0  0  0  0  0  0  0  0  0  0  0  0
   -0.3427   -1.2965   -0.6542 H   0  0  0  0  0  0  0  0  0  0  0  0
   -0.1810   -1.0288    1.0680 H   0  0  0  0  0  0  0  0  0  0  0  0
  1  2  1  0
  1  5  1  0
  1  6  1  0
  2  3  1  0
  2  7  1  0
  2  8  1  0
  3  4  3  0
M  END
>  <reaction>  (3) 
rxn_3211

>  <mol_properties>  (3) 
{"0": {"label": "acceptor", "atom_type": "N3s"}, "7": {"label": "a_hydrogen", "atom_type": "H0"}}

>  <type>  (3) 
r2h

$$$$

     RDKit          3D

 13 11  0  0  0  0  0  0  0  0999 V2000
    0.0132    0.2180    1.3745 N   0  0  0  0  0  2  0  0  0  0  0  0
   -0.7721    1.2499    0.7313 C   0  0  0  0  0  0  0  0  0  0  0  0
   -0.4200    1.4834   -0.6762 C   0  0  0  0  0  0  0  0  0  0  0  0
   -0.1003    1.6404   -1.7665 N   0  0  0  0  0  0  0  0  0  0  0  0
    0.9893    0.3140    1.1011 H   0  0  0  0  0  0  0  0  0  0  0  0
   -0.6369    2.1912    1.2751 H   0  0  0  0  0  0  0  0  0  0  0  0
   -1.8282    0.9872    0.7919 H   0  0  0  0  0  0  0  0  0  0  0  0
    0.2930   -2.0399   -0.6900 C   0  0  0  0  0  0  0  0  0  0  0  0
   -0.7046   -1.6851    0.2165 O   0  0  0  0  0  0  0  0  0  0  0  0
    1.2265   -2.3352   -0.1963 H   0  0  0  0  0  0  0  0  0  0  0  0
   -0.0838   -2.9058   -1.2442 H   0  0  0  0  0  0  0  0  0  0  0  0
    0.4927   -1.2468   -1.4199 H   0  0  0  0  0  0  0  0  0  0  0  0
   -0.3571   -0.8691    1.0023 H   0  0  0  0  0  0  0  0  0  0  0  0
  1  2  1  0
  1  5  1  0
  2  3  1  0
  2  6  1  0
  2  7  1  0
  3  4  3  0
  8  9  1  0
  8 10  1  0
  8 11  1  0
  8 12  1  0
  9 13  1  0
M  RAD  1   1   2
M  END
>  <reaction>  (4) 
rxn_3211

>  <mol_properties>  (4) 
{"0": {"label": "*3", "atom_type": "N3s"}, "1": {"label": "*4", "atom_type": "Cs"}, "7": {"label": "*0", "atom_type": "Cs"}, "8": {"label": "*1", "atom_type": "O2s"}, "12": {"label": "*2", "atom_type": "H0"}}

>  <type>  (4) 
ts

$$$$

     RDKit          3D

 13 11  0  0  0  0  0  0  0  0999 V2000
    0.9845    0.3615    0.4465 N   0  0  0  0  0  2  0  0  0  0  0  0
   -0.1863    0.6373    1.2538 C   0  0  0  0  0  0  0  0  0  0  0  0
   -1.2569    1.3851    0.5667 C   0  0  0  0  0  0  0  0  0  0  0  0
   -2.0648    1.9672   -0.0034 N   0  0  0  0  0  0  0  0  0  0  0  0
    1.4119    1.2181    0.1223 H   0  0  0  0  0  0  0  0  0  0  0  0
    0.1073    1.2062    2.1373 H   0  0  0  0  0  0  0  0  0  0  0  0
   -0.6096   -0.3020    1.6129 H   0  0  0  0  0  0  0  0  0  0  0  0
    0.9845   -1.8748   -1.7220 C   0  0  0  0  0  0  0  0  0  0  0  0
    0.9845   -1.8748   -0.3116 O   0  0  0  0  0  0  0  0  0  0  0  0
    1.8753   -1.3894   -2.1367 H   0  0  0  0  0  0  0  0  0  0  0  0
    0.9845   -2.9162   -2.0411 H   0  0  0  0  0  0  0  0  0  0  0  0
    0.0937   -1.3894   -2.1367 H   0  0  0  0  0  0  0  0  0  0  0  0
    0.9845   -0.7871    0.0571 H   0  0  0  0  0  0  0  0  0  0  0  0
  1  2  1  0
  1  5  1  0
  2  3  1  0
  2  6  1  0
  2  7  1  0
  3  4  3  0
  8  9  1  0
  8 10  1  0
  8 11  1  0
  8 12  1  0
  9 13  1  0
M  RAD  1   1   2
M  END
>  <reaction>  (5) 
rxn_3211

>  <mol_properties>  (5) 
{"0": {"label": "*3", "atom_type": "N3s"}, "1": {"label": "*4", "atom_type": "Cs"}, "7": {"label": "*0", "atom_type": "Cs"}, "8": {"label": "*1", "atom_type": "O2s"}, "12": {"label": "*2", "atom_type": "H0"}}

>  <type>  (5) 
unop_1

>  <geom_source>  (5) 
Heuristics

$$$$

     RDKit          3D

 13 11  0  0  0  0  0  0  0  0999 V2000
   -0.0287    0.2420    1.4554 N   0  0  0  0  0  2  0  0  0  0  0  0
   -0.7047    1.1107    0.5136 C   0  0  0  0  0  0  0  0  0  0  0  0
    0.0944    1.4962   -0.6655 C   0  0  0  0  0  0  0  0  0  0  0  0
    0.7488    1.7722   -1.5667 N   0  0  0  0  0  0  0  0  0  0  0  0
    0.8054    0.6811    1.8202 H   0  0  0  0  0  0  0  0  0  0  0  0
   -1.0166    2.0246    1.0216 H   0  0  0  0  0  0  0  0  0  0  0  0
   -1.6144    0.6240    0.1586 H   0  0  0  0  0  0  0  0  0  0  0  0
   -0.0287   -1.9943   -0.7131 C   0  0  0  0  0  0  0  0  0  0  0  0
   -0.0287   -1.9943    0.6973 O   0  0  0  0  0  0  0  0  0  0  0  0
    0.8621   -1.5089   -1.1279 H   0  0  0  0  0  0  0  0  0  0  0  0
   -0.0287   -3.0357   -1.0322 H   0  0  0  0  0  0  0  0  0  0  0  0
   -0.9195   -1.5089   -1.1279 H   0  0  0  0  0  0  0  0  0  0  0  0
   -0.0287   -0.9066    1.0660 H   0  0  0  0  0  0  0  0  0  0  0  0
  1  2  1  0
  1  5  1  0
  2  3  1  0
  2  6  1  0
  2  7  1  0
  3  4  3  0
  8  9  1  0
  8 10  1  0
  8 11  1  0
  8 12  1  0
  9 13  1  0
M  RAD  1   1   2
M  END
>  <reaction>  (6) 
rxn_3211

>  <mol_properties>  (6) 
{"0": {"label": "*3", "atom_type": "N3s"}, "1": {"label": "*4", "atom_type": "Cs"}, "7": {"label": "*0", "atom_type": "Cs"}, "8": {"label": "*1", "atom_type": "O2s"}, "12": {"label": "*2", "atom_type": "H0"}}

>  <type>  (6) 
unop_2

>  <geom_source>  (6) 
Heuristics

$$$$

     RDKit          3D

 13 11  0  0  0  0  0  0  0  0999 V2000
    0.9161    0.6245   -0.0205 N   0  0  0  0  0  2  0  0  0  0  0  0
    0.2401    0.7414    1.2554 C   0  0  0  0  0  0  0  0  0  0  0  0
   -1.2037    1.0349    1.1730 C   0  0  0  0  0  0  0  0  0  0  0  0
   -2.3231    1.2630    1.0655 N   0  0  0  0  0  0  0  0  0  0  0  0
    0.8395    1.4809   -0.5518 H   0  0  0  0  0  0  0  0  0  0  0  0
    0.7103    1.5301    1.8448 H   0  0  0  0  0  0  0  0  0  0  0  0
    0.3631   -0.1853    1.8181 H   0  0  0  0  0  0  0  0  0  0  0  0
    0.9161   -1.6118   -2.1890 C   0  0  0  0  0  0  0  0  0  0  0  0
    0.9161   -1.6118   -0.7786 O   0  0  0  0  0  0  0  0  0  0  0  0
    1.8069   -1.1264   -2.6037 H   0  0  0  0  0  0  0  0  0  0  0  0
    0.9161   -2.6532   -2.5081 H   0  0  0  0  0  0  0  0  0  0  0  0
    0.0252   -1.1264   -2.6037 H   0  0  0  0  0  0  0  0  0  0  0  0
    0.9161   -0.5242   -0.4099 H   0  0  0  0  0  0  0  0  0  0  0  0
  1  2  1  0
  1  5  1  0
  2  3  1  0
  2  6  1  0
  2  7  1  0
  3  4  3  0
  8  9  1  0
  8 10  1  0
  8 11  1  0
  8 12  1  0
  9 13  1  0
M  RAD  1   1   2
M  END
>  <reaction>  (7) 
rxn_3211

>  <mol_properties>  (7) 
{"0": {"label": "*3", "atom_type": "N3s"}, "1": {"label": "*4", "atom_type": "Cs"}, "7": {"label": "*0", "atom_type": "Cs"}, "8": {"label": "*1", "atom_type": "O2s"}, "12": {"label": "*2", "atom_type": "H0"}}

>  <type>  (7) 
unop_3

>  <geom_source>  (7) 
Heuristics

$$$$

     RDKit          3D

 13 11  0  0  0  0  0  0  0  0999 V2000
   -1.0352    0.8404    0.8567 N   0  0  0  0  0  2  0  0  0  0  0  0
    0.1356    1.5502    0.3835 C   0  0  0  0  0  0  0  0  0  0  0  0
    1.3106    0.7020    0.1058 C   0  0  0  0  0  0  0  0  0  0  0  0
    2.2011    0.0077   -0.0982 N   0  0  0  0  0  0  0  0  0  0  0  0
   -0.8393    0.3511    1.7191 H   0  0  0  0  0  0  0  0  0  0  0  0
    0.4287    2.2996    1.1205 H   0  0  0  0  0  0  0  0  0  0  0  0
   -0.1123    2.0911   -0.5311 H   0  0  0  0  0  0  0  0  0  0  0  0
   -1.0352   -1.3959   -1.3118 C   0  0  0  0  0  0  0  0  0  0  0  0
   -1.0352   -1.3959    0.0986 O   0  0  0  0  0  0  0  0  0  0  0  0
   -0.1444   -0.9105   -1.7266 H   0  0  0  0  0  0  0  0  0  0  0  0
   -1.0352   -2.4373   -1.6310 H   0  0  0  0  0  0  0  0  0  0  0  0
   -1.9260   -0.9106   -1.7266 H   0  0  0  0  0  0  0  0  0  0  0  0
   -1.0352   -0.3083    0.4673 H   0  0  0  0  0  0  0  0  0  0  0  0
  1  2  1  0
  1  5  1  0
  2  3  1  0
  2  6  1  0
  2  7  1  0
  3  4  3  0
  8  9  1  0
  8 10  1  0
  8 11  1  0
  8 12  1  0
  9 13  1  0
M  RAD  1   1   2
M  END
>  <reaction>  (8) 
rxn_3211

>  <mol_properties>  (8) 
{"0": {"label": "*3", "atom_type": "N3s"}, "1": {"label": "*4", "atom_type": "Cs"}, "7": {"label": "*0", "atom_type": "Cs"}, "8": {"label": "*1", "atom_type": "O2s"}, "12": {"label": "*2", "atom_type": "H0"}}

>  <type>  (8) 
unop_4

>  <geom_source>  (8) 
Heuristics

$$$$

     RDKit          3D

 13 11  0  0  0  0  0  0  0  0999 V2000
    0.4912    1.0469   -0.4075 N   0  0  0  0  0  2  0  0  0  0  0  0
    0.4912    1.1057    1.0399 C   0  0  0  0  0  0  0  0  0  0  0  0
   -0.6653    0.4610    1.6914 C   0  0  0  0  0  0  0  0  0  0  0  0
   -1.5798   -0.0507    2.1586 N   0  0  0  0  0  0  0  0  0  0  0  0
   -0.3275    1.5004   -0.7893 H   0  0  0  0  0  0  0  0  0  0  0  0
    0.5200    2.1480    1.3612 H   0  0  0  0  0  0  0  0  0  0  0  0
    1.3981    0.6350    1.4227 H   0  0  0  0  0  0  0  0  0  0  0  0
    0.4912   -1.1894   -2.5760 C   0  0  0  0  0  0  0  0  0  0  0  0
    0.4912   -1.1894   -1.1656 O   0  0  0  0  0  0  0  0  0  0  0  0
    1.3820   -0.7040   -2.9908 H   0  0  0  0  0  0  0  0  0  0  0  0
    0.4912   -2.2308   -2.8952 H   0  0  0  0  0  0  0  0  0  0  0  0
   -0.3996   -0.7040   -2.9908 H   0  0  0  0  0  0  0  0  0  0  0  0
    0.4912   -0.1018   -0.7969 H   0  0  0  0  0  0  0  0  0  0  0  0
  1  2  1  0
  1  5  1  0
  2  3  1  0
  2  6  1  0
  2  7  1  0
  3  4  3  0
  8  9  1  0
  8 10  1  0
  8 11  1  0
  8 12  1  0
  9 13  1  0
M  RAD  1   1   2
M  END
>  <reaction>  (9) 
rxn_3211

>  <mol_properties>  (9) 
{"0": {"label": "*3", "atom_type": "N3s"}, "1": {"label": "*4", "atom_type": "Cs"}, "7": {"label": "*0", "atom_type": "Cs"}, "8": {"label": "*1", "atom_type": "O2s"}, "12": {"label": "*2", "atom_type": "H0"}}

>  <type>  (9) 
unop_5

>  <geom_source>  (9) 
Heuristics

$$$$

     RDKit          3D

 13 11  0  0  0  0  0  0  0  0999 V2000
   -1.0571    1.0238    0.4063 N   0  0  0  0  0  2  0  0  0  0  0  0
    0.2948    1.5167    0.5734 C   0  0  0  0  0  0  0  0  0  0  0  0
    1.3335    0.4726    0.6657 C   0  0  0  0  0  0  0  0  0  0  0  0
    2.1101   -0.3694    0.7333 N   0  0  0  0  0  0  0  0  0  0  0  0
   -1.3274    0.4351    1.1821 H   0  0  0  0  0  0  0  0  0  0  0  0
    0.3503    2.1267    1.4763 H   0  0  0  0  0  0  0  0  0  0  0  0
    0.5491    2.1707   -0.2622 H   0  0  0  0  0  0  0  0  0  0  0  0
   -1.0571   -1.2124   -1.7622 C   0  0  0  0  0  0  0  0  0  0  0  0
   -1.0571   -1.2124   -0.3518 O   0  0  0  0  0  0  0  0  0  0  0  0
   -0.1663   -0.7271   -2.1770 H   0  0  0  0  0  0  0  0  0  0  0  0
   -1.0571   -2.2539   -2.0813 H   0  0  0  0  0  0  0  0  0  0  0  0
   -1.9479   -0.7271   -2.1770 H   0  0  0  0  0  0  0  0  0  0  0  0
   -1.0571   -0.1248    0.0169 H   0  0  0  0  0  0  0  0  0  0  0  0
  1  2  1  0
  1  5  1  0
  2  3  1  0
  2  6  1  0
  2  7  1  0
  3  4  3  0
  8  9  1  0
  8 10  1  0
  8 11  1  0
  8 12  1  0
  9 13  1  0
M  RAD  1   1   2
M  END
>  <reaction>  (10) 
rxn_3211

>  <mol_properties>  (10) 
{"0": {"label": "*3", "atom_type": "N3s"}, "1": {"label": "*4", "atom_type": "Cs"}, "7": {"label": "*0", "atom_type": "Cs"}, "8": {"label": "*1", "atom_type": "O2s"}, "12": {"label": "*2", "atom_type": "H0"}}

>  <type>  (10) 
unop_6

>  <geom_source>  (10) 
Heuristics

$$$$

     RDKit          3D

 13 11  0  0  0  0  0  0  0  0999 V2000
   -0.8267    1.1859   -0.0639 N   0  0  0  0  0  2  0  0  0  0  0  0
    0.3441    1.4617    0.7433 C   0  0  0  0  0  0  0  0  0  0  0  0
    1.0432    0.2685    1.2581 C   0  0  0  0  0  0  0  0  0  0  0  0
    1.5573   -0.6842    1.6385 N   0  0  0  0  0  0  0  0  0  0  0  0
   -1.5171    0.6685    0.4626 H   0  0  0  0  0  0  0  0  0  0  0  0
    0.0598    2.0790    1.5968 H   0  0  0  0  0  0  0  0  0  0  0  0
    1.0587    2.0443    0.1599 H   0  0  0  0  0  0  0  0  0  0  0  0
   -0.8267   -1.0504   -2.2324 C   0  0  0  0  0  0  0  0  0  0  0  0
   -0.8267   -1.0504   -0.8221 O   0  0  0  0  0  0  0  0  0  0  0  0
    0.0641   -0.5651   -2.6472 H   0  0  0  0  0  0  0  0  0  0  0  0
   -0.8267   -2.0919   -2.5516 H   0  0  0  0  0  0  0  0  0  0  0  0
   -1.7175   -0.5651   -2.6472 H   0  0  0  0  0  0  0  0  0  0  0  0
   -0.8267    0.0372   -0.4533 H   0  0  0  0  0  0  0  0  0  0  0  0
  1  2  1  0
  1  5  1  0
  2  3  1  0
  2  6  1  0
  2  7  1  0
  3  4  3  0
  8  9  1  0
  8 10  1  0
  8 11  1  0
  8 12  1  0
  9 13  1  0
M  RAD  1   1   2
M  END
>  <reaction>  (11) 
rxn_3211

>  <mol_properties>  (11) 
{"0": {"label": "*3", "atom_type": "N3s"}, "1": {"label": "*4", "atom_type": "Cs"}, "7": {"label": "*0", "atom_type": "Cs"}, "8": {"label": "*1", "atom_type": "O2s"}, "12": {"label": "*2", "atom_type": "H0"}}

>  <type>  (11) 
unop_7

>  <geom_source>  (11) 
Heuristics

$$$$

     RDKit          3D

 13 11  0  0  0  0  0  0  0  0999 V2000
    0.8234    0.2126    0.9086 N   0  0  0  0  0  2  0  0  0  0  0  0
   -0.5285    0.7055    1.0757 C   0  0  0  0  0  0  0  0  0  0  0  0
   -1.0170    1.5714   -0.0147 C   0  0  0  0  0  0  0  0  0  0  0  0
   -1.3586    2.2398   -0.8825 N   0  0  0  0  0  0  0  0  0  0  0  0
    1.4831    0.9759    0.8472 H   0  0  0  0  0  0  0  0  0  0  0  0
   -0.5976    1.2678    2.0082 H   0  0  0  0  0  0  0  0  0  0  0  0
   -1.2141   -0.1383    1.1677 H   0  0  0  0  0  0  0  0  0  0  0  0
    0.8234   -2.0237   -1.2598 C   0  0  0  0  0  0  0  0  0  0  0  0
    0.8234   -2.0237    0.1505 O   0  0  0  0  0  0  0  0  0  0  0  0
    1.7142   -1.5383   -1.6746 H   0  0  0  0  0  0  0  0  0  0  0  0
    0.8235   -3.0651   -1.5790 H   0  0  0  0  0  0  0  0  0  0  0  0
   -0.0674   -1.5383   -1.6746 H   0  0  0  0  0  0  0  0  0  0  0  0
    0.8234   -0.9360    0.5193 H   0  0  0  0  0  0  0  0  0  0  0  0
  1  2  1  0
  1  5  1  0
  2  3  1  0
  2  6  1  0
  2  7  1  0
  3  4  3  0
  8  9  1  0
  8 10  1  0
  8 11  1  0
  8 12  1  0
  9 13  1  0
M  RAD  1   1   2
M  END
>  <reaction>  (12) 
rxn_3211

>  <mol_properties>  (12) 
{"0": {"label": "*3", "atom_type": "N3s"}, "1": {"label": "*4", "atom_type": "Cs"}, "7": {"label": "*0", "atom_type": "Cs"}, "8": {"label": "*1", "atom_type": "O2s"}, "12": {"label": "*2", "atom_type": "H0"}}

>  <type>  (12) 
unop_8

>  <geom_source>  (12) 
Heuristics

$$$$

     RDKit          3D

 13 11  0  0  0  0  0  0  0  0999 V2000
   -0.8329    0.6432    1.2070 N   0  0  0  0  0  2  0  0  0  0  0  0
   -0.1569    1.5119    0.2652 C   0  0  0  0  0  0  0  0  0  0  0  0
    1.0726    0.9528   -0.3290 C   0  0  0  0  0  0  0  0  0  0  0  0
    2.0225    0.4819   -0.7677 N   0  0  0  0  0  0  0  0  0  0  0  0
   -0.2309    0.4136    1.9858 H   0  0  0  0  0  0  0  0  0  0  0  0
    0.1044    2.4493    0.7586 H   0  0  0  0  0  0  0  0  0  0  0  0
   -0.8381    1.7658   -0.5484 H   0  0  0  0  0  0  0  0  0  0  0  0
   -0.8329   -1.5931   -0.9615 C   0  0  0  0  0  0  0  0  0  0  0  0
   -0.8329   -1.5931    0.4489 O   0  0  0  0  0  0  0  0  0  0  0  0
    0.0579   -1.1077   -1.3763 H   0  0  0  0  0  0  0  0  0  0  0  0
   -0.8329   -2.6345   -1.2807 H   0  0  0  0  0  0  0  0  0  0  0  0
   -1.7237   -1.1078   -1.3763 H   0  0  0  0  0  0  0  0  0  0  0  0
   -0.8329   -0.5055    0.8176 H   0  0  0  0  0  0  0  0  0  0  0  0
  1  2  1  0
  1  5  1  0
  2  3  1  0
  2  6  1  0
  2  7  1  0
  3  4  3  0
  8  9  1  0
  8 10  1  0
  8 11  1  0
  8 12  1  0
  9 13  1  0
M  RAD  1   1   2
M  END
>  <reaction>  (13) 
rxn_3211

>  <mol_properties>  (13) 
{"0": {"label": "*3", "atom_type": "N3s"}, "1": {"label": "*4", "atom_type": "Cs"}, "7": {"label": "*0", "atom_type": "Cs"}, "8": {"label": "*1", "atom_type": "O2s"}, "12": {"label": "*2", "atom_type": "H0"}}

>  <type>  (13) 
unop_9

>  <geom_source>  (13) 
Heuristics

$$$$

     RDKit          3D

 13 11  0  0  0  0  0  0  0  0999 V2000
    0.4569    0.1652    1.2747 N   0  0  0  0  0  2  0  0  0  0  0  0
   -0.7139    0.8751    0.8016 C   0  0  0  0  0  0  0  0  0  0  0  0
   -0.5274    1.6164   -0.4605 C   0  0  0  0  0  0  0  0  0  0  0  0
   -0.3412    2.1792   -1.4430 N   0  0  0  0  0  0  0  0  0  0  0  0
    1.2248    0.8012    1.4403 H   0  0  0  0  0  0  0  0  0  0  0  0
   -1.0409    1.5848    1.5631 H   0  0  0  0  0  0  0  0  0  0  0  0
   -1.5337    0.1694    0.6589 H   0  0  0  0  0  0  0  0  0  0  0  0
    0.4569   -2.0711   -0.8937 C   0  0  0  0  0  0  0  0  0  0  0  0
    0.4569   -2.0711    0.5166 O   0  0  0  0  0  0  0  0  0  0  0  0
    1.3477   -1.5857   -1.3085 H   0  0  0  0  0  0  0  0  0  0  0  0
    0.4569   -3.1125   -1.2129 H   0  0  0  0  0  0  0  0  0  0  0  0
   -0.4339   -1.5857   -1.3085 H   0  0  0  0  0  0  0  0  0  0  0  0
    0.4569   -0.9834    0.8853 H   0  0  0  0  0  0  0  0  0  0  0  0
  1  2  1  0
  1  5  1  0
  2  3  1  0
  2  6  1  0
  2  7  1  0
  3  4  3  0
  8  9  1  0
  8 10  1  0
  8 11  1  0
  8 12  1  0
  9 13  1  0
M  RAD  1   1   2
M  END
>  <reaction>  (14) 
rxn_3211

>  <mol_properties>  (14) 
{"0": {"label": "*3", "atom_type": "N3s"}, "1": {"label": "*4", "atom_type": "Cs"}, "7": {"label": "*0", "atom_type": "Cs"}, "8": {"label": "*1", "atom_type": "O2s"}, "12": {"label": "*2", "atom_type": "H0"}}

>  <type>  (14) 
unop_10

>  <geom_source>  (14) 
Heuristics

$$$$

     RDKit          3D

 13 11  0  0  0  0  0  0  0  0999 V2000
   -0.2813    1.2619   -0.4152 N   0  0  0  0  0  2  0  0  0  0  0  0
    0.3947    1.3788    0.8607 C   0  0  0  0  0  0  0  0  0  0  0  0
    0.3439    0.1715    1.7076 C   0  0  0  0  0  0  0  0  0  0  0  0
    0.2814   -0.7871    2.3351 N   0  0  0  0  0  0  0  0  0  0  0  0
   -1.2627    1.0559   -0.2886 H   0  0  0  0  0  0  0  0  0  0  0  0
   -0.0382    2.2050    1.4269 H   0  0  0  0  0  0  0  0  0  0  0  0
    1.4436    1.6290    0.6946 H   0  0  0  0  0  0  0  0  0  0  0  0
   -0.2813   -0.9744   -2.5837 C   0  0  0  0  0  0  0  0  0  0  0  0
   -0.2813   -0.9744   -1.1733 O   0  0  0  0  0  0  0  0  0  0  0  0
    0.6095   -0.4890   -2.9984 H   0  0  0  0  0  0  0  0  0  0  0  0
   -0.2813   -2.0158   -2.9028 H   0  0  0  0  0  0  0  0  0  0  0  0
   -1.1721   -0.4890   -2.9984 H   0  0  0  0  0  0  0  0  0  0  0  0
   -0.2813    0.1132   -0.8046 H   0  0  0  0  0  0  0  0  0  0  0  0
  1  2  1  0
  1  5  1  0
  2  3  1  0
  2  6  1  0
  2  7  1  0
  3  4  3  0
  8  9  1  0
  8 10  1  0
  8 11  1  0
  8 12  1  0
  9 13  1  0
M  RAD  1   1   2
M  END
>  <reaction>  (15) 
rxn_3211

>  <mol_properties>  (15) 
{"0": {"label": "*3", "atom_type": "N3s"}, "1": {"label": "*4", "atom_type": "Cs"}, "7": {"label": "*0", "atom_type": "Cs"}, "8": {"label": "*1", "atom_type": "O2s"}, "12": {"label": "*2", "atom_type": "H0"}}

>  <type>  (15) 
unop_11

>  <geom_source>  (15) 
Heuristics

$$$$

     RDKit          3D

 13 11  0  0  0  0  0  0  0  0999 V2000
   -0.4912    0.4273    1.4201 N   0  0  0  0  0  2  0  0  0  0  0  0
   -0.4912    1.3542    0.3068 C   0  0  0  0  0  0  0  0  0  0  0  0
    0.6653    1.2386   -0.6024 C   0  0  0  0  0  0  0  0  0  0  0  0
    1.5798    1.1165   -1.2845 N   0  0  0  0  0  0  0  0  0  0  0  0
    0.3275    0.5551    1.9990 H   0  0  0  0  0  0  0  0  0  0  0  0
   -0.5200    2.3770    0.6856 H   0  0  0  0  0  0  0  0  0  0  0  0
   -1.3981    1.2133   -0.2833 H   0  0  0  0  0  0  0  0  0  0  0  0
   -0.4912   -1.8090   -0.7484 C   0  0  0  0  0  0  0  0  0  0  0  0
   -0.4912   -1.8090    0.6620 O   0  0  0  0  0  0  0  0  0  0  0  0
    0.3996   -1.3236   -1.1631 H   0  0  0  0  0  0  0  0  0  0  0  0
   -0.4912   -2.8504   -1.0675 H   0  0  0  0  0  0  0  0  0  0  0  0
   -1.3820   -1.3236   -1.1631 H   0  0  0  0  0  0  0  0  0  0  0  0
   -0.4912   -0.7213    1.0307 H   0  0  0  0  0  0  0  0  0  0  0  0
  1  2  1  0
  1  5  1  0
  2  3  1  0
  2  6  1  0
  2  7  1  0
  3  4  3  0
  8  9  1  0
  8 10  1  0
  8 11  1  0
  8 12  1  0
  9 13  1  0
M  RAD  1   1   2
M  END
>  <reaction>  (16) 
rxn_3211

>  <mol_properties>  (16) 
{"0": {"label": "*3", "atom_type": "N3s"}, "1": {"label": "*4", "atom_type": "Cs"}, "7": {"label": "*0", "atom_type": "Cs"}, "8": {"label": "*1", "atom_type": "O2s"}, "12": {"label": "*2", "atom_type": "H0"}}

>  <type>  (16) 
unop_12

>  <geom_source>  (16) 
Heuristics

$$$$

     RDKit          3D

 13 11  0  0  0  0  0  0  0  0999 V2000
   -0.0287    0.2420    1.4554 N   0  0  0  0  0  2  0  0  0  0  0  0
   -0.7047    1.1107    0.5136 C   0  0  0  0  0  0  0  0  0  0  0  0
    0.0944    1.4962   -0.6655 C   0  0  0  0  0  0  0  0  0  0  0  0
    0.7488    1.7722   -1.5667 N   0  0  0  0  0  0  0  0  0  0  0  0
    0.8054    0.6811    1.8201 H   0  0  0  0  0  0  0  0  0  0  0  0
   -1.0166    2.0246    1.0216 H   0  0  0  0  0  0  0  0  0  0  0  0
   -1.6144    0.6240    0.1586 H   0  0  0  0  0  0  0  0  0  0  0  0
   -0.0287   -1.9943   -0.7131 C   0  0  0  0  0  0  0  0  0  0  0  0
   -0.0287   -1.9943    0.6973 O   0  0  0  0  0  0  0  0  0  0  0  0
    0.8621   -1.5089   -1.1279 H   0  0  0  0  0  0  0  0  0  0  0  0
   -0.0287   -3.0357   -1.0322 H   0  0  0  0  0  0  0  0  0  0  0  0
   -0.9195   -1.5089   -1.1279 H   0  0  0  0  0  0  0  0  0  0  0  0
   -0.0287   -0.9066    1.0660 H   0  0  0  0  0  0  0  0  0  0  0  0
  1  2  1  0
  1  5  1  0
  2  3  1  0
  2  6  1  0
  2  7  1  0
  3  4  3  0
  8  9  1  0
  8 10  1  0
  8 11  1  0
  8 12  1  0
  9 13  1  0
M  RAD  1   1   2
M  END
>  <reaction>  (17) 
rxn_3211

>  <mol_properties>  (17) 
{"0": {"label": "*3", "atom_type": "N3s"}, "1": {"label": "*4", "atom_type": "Cs"}, "7": {"label": "*0", "atom_type": "Cs"}, "8": {"label": "*1", "atom_type": "O2s"}, "12": {"label": "*2", "atom_type": "H0"}}

>  <type>  (17) 
unop_13

>  <geom_source>  (17) 
gaussian_log

$$$$
