
     RDKit          3D

  7  6  0  0  0  0  0  0  0  0999 V2000
   -0.8134   -0.1164    0.3300 C   0  0  0  0  0  0  0  0  0  0  0  0
    0.2313    0.4515   -0.2553 C   0  0  0  0  0  0  0  0  0  0  0  0
    1.4449   -0.1043   -0.4662 O   0  0  0  0  0  0  0  0  0  0  0  0
   -1.7342    0.4365    0.4394 H   0  0  0  0  0  0  0  0  0  0  0  0
   -0.7819   -1.1311    0.7105 H   0  0  0  0  0  0  0  0  0  0  0  0
    0.2022    1.4650   -0.6362 H   0  0  0  0  0  0  0  0  0  0  0  0
    1.4512   -1.0012   -0.1223 H   0  0  0  0  0  0  0  0  0  0  0  0
  1  2  2  3
  1  4  1  0
  1  5  1  0
  2  3  1  0
  2  6  1  0
  3  7  1  0
M  END
>  <reaction>  (1) 
rxn_693

>  <mol_properties>  (1) 
{"2": {"label": "donator", "atom_type": "O2s"}, "6": {"label": "d_hydrogen", "atom_type": "H0"}}

>  <type>  (1) 
r1h

$$$$

     RDKit          3D

  4  3  0  0  0  0  0  0  0  0999 V2000
    0.0000    0.0000    0.0000 C   0  0  0  0  0  3  0  0  0  0  0  0
    1.0638   -0.1747    0.0540 H   0  0  0  0  0  0  0  0  0  0  0  0
   -0.6833   -0.8351   -0.0280 H   0  0  0  0  0  0  0  0  0  0  0  0
   -0.3805    1.0098   -0.0260 H   0  0  0  0  0  0  0  0  0  0  0  0
  1  2  1  0
  1  3  1  0
  1  4  1  0
M  RAD  1   1   2
M  END
>  <reaction>  (2) 
rxn_693

>  <mol_properties>  (2) 
{"0": {"label": "acceptor", "atom_type": "Cs"}}

>  <type>  (2) 
r2

$$$$

     RDKit          3D

  5  4  0  0  0  0  0  0  0  0999 V2000
    0.0000    0.0000    0.0000 C   0  0  0  0  0  0  0  0  0  0  0  0
   -0.6486   -0.7720   -0.4113 H   0  0  0  0  0  0  0  0  0  0  0  0
   -0.3482    0.9787   -0.3267 H   0  0  0  0  0  0  0  0  0  0  0  0
   -0.0223   -0.0487    1.0876 H   0  0  0  0  0  0  0  0  0  0  0  0
    1.0191   -0.1580   -0.3496 H   0  0  0  0  0  0  0  0  0  0  0  0
  1  2  1  0
  1  3  1  0
  1  4  1  0
  1  5  1  0
M  END
>  <reaction>  (3) 
rxn_693

>  <mol_properties>  (3) 
{"0": {"label": "a_hydrogen", "atom_type": "H0"}, "1": {"label": "acceptor", "atom_type": "Cs"}}

>  <type>  (3) 
r2h

$$$$

     RDKit          3D

 11  9  0  0  0  0  0  0  0  0999 V2000
   -0.0975   -1.1566   -1.1217 C   0  0  0  0  0  0  0  0  0  0  0  0
   -0.0140   -1.1318    0.2067 C   0  0  0  0  0  0  0  0  0  0  0  0
   -0.2386   -0.1183    1.0377 O   0  0  0  0  0  0  0  0  0  0  0  0
    0.1276   -2.0704   -1.6507 H   0  0  0  0  0  0  0  0  0  0  0  0
   -0.3516   -0.2776   -1.6990 H   0  0  0  0  0  0  0  0  0  0  0  0
    0.2885   -2.0220    0.7590 H   0  0  0  0  0  0  0  0  0  0  0  0
   -0.1480    0.9567    0.4498 H   0  0  0  0  0  0  0  0  0  0  0  0
    0.0819    2.0553   -0.1686 C   0  0  0  0  0  3  0  0  0  0  0  0
    0.9807    1.8562   -0.7446 H   0  0  0  0  0  0  0  0  0  0  0  0
   -0.8047    2.2282   -0.7712 H   0  0  0  0  0  0  0  0  0  0  0  0
    0.2169    2.7711    0.6370 H   0  0  0  0  0  0  0  0  0  0  0  0
  1  2  2  3
  1  4  1  0
  1  5  1  0
  2  3  1  0
  2  6  1  0
  3  7  1  0
  8  9  1  0
  8 10  1  0
  8 11  1  0
M  RAD  1   8   2
M  END
>  <reaction>  (4) 
rxn_693

>  <mol_properties>  (4) 
{"1": {"label": "*0", "atom_type": "Cd"}, "2": {"label": "*1", "atom_type": "O2s"}, "6": {"label": "*2", "atom_type": "H0"}, "7": {"label": "*3", "atom_type": "Cs"}, "8": {"label": "*4", "atom_type": "H0"}}

>  <type>  (4) 
ts

$$$$

     RDKit          3D

 11  9  0  0  0  0  0  0  0  0999 V2000
   -0.0020   -1.1304   -1.0860 C   0  0  0  0  0  0  0  0  0  0  0  0
   -0.0020   -1.1304    0.2393 C   0  0  0  0  0  0  0  0  0  0  0  0
   -0.0020   -0.0499    1.0510 O   0  0  0  0  0  0  0  0  0  0  0  0
   -0.0020   -2.0667   -1.6232 H   0  0  0  0  0  0  0  0  0  0  0  0
   -0.0020   -0.2132   -1.6640 H   0  0  0  0  0  0  0  0  0  0  0  0
   -0.0020   -2.0455    0.8189 H   0  0  0  0  0  0  0  0  0  0  0  0
   -0.0020    0.9105    0.4135 H   0  0  0  0  0  0  0  0  0  0  0  0
   -0.0020    1.9992   -0.3091 C   0  0  0  0  0  3  0  0  0  0  0  0
   -0.8911    2.5855   -0.0822 H   0  0  0  0  0  0  0  0  0  0  0  0
    0.6834    2.3100    0.4779 H   0  0  0  0  0  0  0  0  0  0  0  0
    0.3173    2.4269   -1.2583 H   0  0  0  0  0  0  0  0  0  0  0  0
  1  2  2  3
  1  4  1  0
  1  5  1  0
  2  3  1  0
  2  6  1  0
  3  7  1  0
  8  9  1  0
  8 10  1  0
  8 11  1  0
M  RAD  1   8   2
M  END
>  <reaction>  (5) 
rxn_693

>  <mol_properties>  (5) 
{"1": {"label": "*0", "atom_type": "Cd"}, "2": {"label": "*1", "atom_type": "O2s"}, "6": {"label": "*2", "atom_type": "H0"}, "7": {"label": "*3", "atom_type": "Cs"}, "8": {"label": "*4", "atom_type": "H0"}}

>  <type>  (5) 
unop_1

>  <geom_source>  (5) 
Heuristics

$$$$

     RDKit          3D

 11  9  0  0  0  0  0  0  0  0999 V2000
    0.0003   -1.1159   -1.0850 C   0  0  0  0  0  0  0  0  0  0  0  0
    0.0003   -1.1159    0.2403 C   0  0  0  0  0  0  0  0  0  0  0  0
    0.0003   -0.0354    1.0520 O   0  0  0  0  0  0  0  0  0  0  0  0
    0.0003   -2.0522   -1.6222 H   0  0  0  0  0  0  0  0  0  0  0  0
    0.0003   -0.1987   -1.6629 H   0  0  0  0  0  0  0  0  0  0  0  0
    0.0003   -2.0310    0.8199 H   0  0  0  0  0  0  0  0  0  0  0  0
    0.0003    0.9250    0.4146 H   0  0  0  0  0  0  0  0  0  0  0  0
    0.0003    2.0137   -0.3081 C   0  0  0  0  0  3  0  0  0  0  0  0
   -0.5131    1.8244   -1.2496 H   0  0  0  0  0  0  0  0  0  0  0  0
   -0.5287    2.3168    0.5942 H   0  0  0  0  0  0  0  0  0  0  0  0
    1.0268    2.3746   -0.2656 H   0  0  0  0  0  0  0  0  0  0  0  0
  1  2  2  3
  1  4  1  0
  1  5  1  0
  2  3  1  0
  2  6  1  0
  3  7  1  0
  8  9  1  0
  8 10  1  0
  8 11  1  0
M  RAD  1   8   2
M  END
>  <reaction>  (6) 
rxn_693

>  <mol_properties>  (6) 
{"1": {"label": "*0", "atom_type": "Cd"}, "2": {"label": "*1", "atom_type": "O2s"}, "6": {"label": "*2", "atom_type": "H0"}, "7": {"label": "*3", "atom_type": "Cs"}, "8": {"label": "*4", "atom_type": "H0"}}

>  <type>  (6) 
unop_2

>  <geom_source>  (6) 
Heuristics

$$$$

     RDKit          3D

 11  9  0  0  0  0  0  0  0  0999 V2000
   -0.0040   -1.1345   -1.0829 C   0  0  0  0  0  0  0  0  0  0  0  0
   -0.0040   -1.1345    0.2424 C   0  0  0  0  0  0  0  0  0  0  0  0
   -0.0040   -0.0540    1.0541 O   0  0  0  0  0  0  0  0  0  0  0  0
   -0.0040   -2.0709   -1.6201 H   0  0  0  0  0  0  0  0  0  0  0  0
   -0.0040   -0.2173   -1.6609 H   0  0  0  0  0  0  0  0  0  0  0  0
   -0.0040   -2.0496    0.8219 H   0  0  0  0  0  0  0  0  0  0  0  0
   -0.0040    0.9064    0.4166 H   0  0  0  0  0  0  0  0  0  0  0  0
   -0.0040    1.9951   -0.3061 C   0  0  0  0  0  3  0  0  0  0  0  0
   -0.5173    2.7892    0.2340 H   0  0  0  0  0  0  0  0  0  0  0  0
    0.9799    2.3375    0.0109 H   0  0  0  0  0  0  0  0  0  0  0  0
   -0.2419    2.4243   -1.2781 H   0  0  0  0  0  0  0  0  0  0  0  0
  1  2  2  3
  1  4  1  0
  1  5  1  0
  2  3  1  0
  2  6  1  0
  3  7  1  0
  8  9  1  0
  8 10  1  0
  8 11  1  0
M  RAD  1   8   2
M  END
>  <reaction>  (7) 
rxn_693

>  <mol_properties>  (7) 
{"1": {"label": "*0", "atom_type": "Cd"}, "2": {"label": "*1", "atom_type": "O2s"}, "6": {"label": "*2", "atom_type": "H0"}, "7": {"label": "*3", "atom_type": "Cs"}, "8": {"label": "*4", "atom_type": "H0"}}

>  <type>  (7) 
unop_3

>  <geom_source>  (7) 
Heuristics

$$$$

     RDKit          3D

 11  9  0  0  0  0  0  0  0  0999 V2000
   -0.0009   -1.1198   -1.0851 C   0  0  0  0  0  0  0  0  0  0  0  0
   -0.0009   -1.1198    0.2402 C   0  0  0  0  0  0  0  0  0  0  0  0
   -0.0009   -0.0393    1.0519 O   0  0  0  0  0  0  0  0  0  0  0  0
   -0.0009   -2.0561   -1.6223 H   0  0  0  0  0  0  0  0  0  0  0  0
   -0.0009   -0.2026   -1.6630 H   0  0  0  0  0  0  0  0  0  0  0  0
   -0.0009   -2.0349    0.8198 H   0  0  0  0  0  0  0  0  0  0  0  0
   -0.0009    0.9211    0.4144 H   0  0  0  0  0  0  0  0  0  0  0  0
   -0.0009    2.0098   -0.3082 C   0  0  0  0  0  3  0  0  0  0  0  0
    0.8882    2.0283   -0.9367 H   0  0  0  0  0  0  0  0  0  0  0  0
   -0.9332    2.4008   -0.7128 H   0  0  0  0  0  0  0  0  0  0  0  0
    0.0930    2.3033    0.7362 H   0  0  0  0  0  0  0  0  0  0  0  0
  1  2  2  3
  1  4  1  0
  1  5  1  0
  2  3  1  0
  2  6  1  0
  3  7  1  0
  8  9  1  0
  8 10  1  0
  8 11  1  0
M  RAD  1   8   2
M  END
>  <reaction>  (8) 
rxn_693

>  <mol_properties>  (8) 
{"1": {"label": "*0", "atom_type": "Cd"}, "2": {"label": "*1", "atom_type": "O2s"}, "6": {"label": "*2", "atom_type": "H0"}, "7": {"label": "*3", "atom_type": "Cs"}, "8": {"label": "*4", "atom_type": "H0"}}

>  <type>  (8) 
unop_4

>  <geom_source>  (8) 
Heuristics

$$$$

     RDKit          3D

 11  9  0  0  0  0  0  0  0  0999 V2000
   -0.0000   -1.1362   -1.0794 C   0  0  0  0  0  0  0  0  0  0  0  0
   -0.0000   -1.1362    0.2459 C   0  0  0  0  0  0  0  0  0  0  0  0
   -0.0000   -0.0557    1.0576 O   0  0  0  0  0  0  0  0  0  0  0  0
   -0.0000   -2.0725   -1.6166 H   0  0  0  0  0  0  0  0  0  0  0  0
    0.0000   -0.2190   -1.6574 H   0  0  0  0  0  0  0  0  0  0  0  0
   -0.0000   -2.0512    0.8254 H   0  0  0  0  0  0  0  0  0  0  0  0
    0.0000    0.9047    0.4201 H   0  0  0  0  0  0  0  0  0  0  0  0
    0.0000    1.9934   -0.3026 C   0  0  0  0  0  3  0  0  0  0  0  0
    0.0000    2.8636    0.3521 H   0  0  0  0  0  0  0  0  0  0  0  0
    0.8891    2.3900   -0.7904 H   0  0  0  0  0  0  0  0  0  0  0  0
   -0.8891    2.3900   -0.7904 H   0  0  0  0  0  0  0  0  0  0  0  0
  1  2  2  3
  1  4  1  0
  1  5  1  0
  2  3  1  0
  2  6  1  0
  3  7  1  0
  8  9  1  0
  8 10  1  0
  8 11  1  0
M  RAD  1   8   2
M  END
>  <reaction>  (9) 
rxn_693

>  <mol_properties>  (9) 
{"1": {"label": "*0", "atom_type": "Cd"}, "2": {"label": "*1", "atom_type": "O2s"}, "6": {"label": "*2", "atom_type": "H0"}, "7": {"label": "*3", "atom_type": "Cs"}, "8": {"label": "*4", "atom_type": "H0"}}

>  <type>  (9) 
unop_5

>  <geom_source>  (9) 
Heuristics

$$$$

     RDKit          3D

 11  9  0  0  0  0  0  0  0  0999 V2000
   -0.0004   -1.1251   -1.0860 C   0  0  0  0  0  0  0  0  0  0  0  0
   -0.0004   -1.1251    0.2393 C   0  0  0  0  0  0  0  0  0  0  0  0
   -0.0004   -0.0446    1.0510 O   0  0  0  0  0  0  0  0  0  0  0  0
   -0.0004   -2.0614   -1.6232 H   0  0  0  0  0  0  0  0  0  0  0  0
   -0.0004   -0.2079   -1.6639 H   0  0  0  0  0  0  0  0  0  0  0  0
   -0.0004   -2.0401    0.8189 H   0  0  0  0  0  0  0  0  0  0  0  0
   -0.0004    0.9158    0.4135 H   0  0  0  0  0  0  0  0  0  0  0  0
   -0.0004    2.0045   -0.3091 C   0  0  0  0  0  3  0  0  0  0  0  0
    1.0263    2.3069   -0.5099 H   0  0  0  0  0  0  0  0  0  0  0  0
   -0.6890    2.4178   -1.0445 H   0  0  0  0  0  0  0  0  0  0  0  0
   -0.3155    2.3011    0.6902 H   0  0  0  0  0  0  0  0  0  0  0  0
  1  2  2  3
  1  4  1  0
  1  5  1  0
  2  3  1  0
  2  6  1  0
  3  7  1  0
  8  9  1  0
  8 10  1  0
  8 11  1  0
M  RAD  1   8   2
M  END
>  <reaction>  (10) 
rxn_693

>  <mol_properties>  (10) 
{"1": {"label": "*0", "atom_type": "Cd"}, "2": {"label": "*1", "atom_type": "O2s"}, "6": {"label": "*2", "atom_type": "H0"}, "7": {"label": "*3", "atom_type": "Cs"}, "8": {"label": "*4", "atom_type": "H0"}}

>  <type>  (10) 
unop_6

>  <geom_source>  (10) 
Heuristics

$$$$

     RDKit          3D

 11  9  0  0  0  0  0  0  0  0999 V2000
    0.0020   -1.1304   -1.0860 C   0  0  0  0  0  0  0  0  0  0  0  0
    0.0020   -1.1304    0.2393 C   0  0  0  0  0  0  0  0  0  0  0  0
    0.0020   -0.0499    1.0510 O   0  0  0  0  0  0  0  0  0  0  0  0
    0.0020   -2.0667   -1.6232 H   0  0  0  0  0  0  0  0  0  0  0  0
    0.0020   -0.2132   -1.6640 H   0  0  0  0  0  0  0  0  0  0  0  0
    0.0020   -2.0455    0.8189 H   0  0  0  0  0  0  0  0  0  0  0  0
    0.0020    0.9105    0.4135 H   0  0  0  0  0  0  0  0  0  0  0  0
    0.0020    1.9992   -0.3091 C   0  0  0  0  0  3  0  0  0  0  0  0
    0.8911    2.5855   -0.0822 H   0  0  0  0  0  0  0  0  0  0  0  0
   -0.3173    2.4269   -1.2583 H   0  0  0  0  0  0  0  0  0  0  0  0
   -0.6834    2.3100    0.4779 H   0  0  0  0  0  0  0  0  0  0  0  0
  1  2  2  3
  1  4  1  0
  1  5  1  0
  2  3  1  0
  2  6  1  0
  3  7  1  0
  8  9  1  0
  8 10  1  0
  8 11  1  0
M  RAD  1   8   2
M  END
>  <reaction>  (11) 
rxn_693

>  <mol_properties>  (11) 
{"1": {"label": "*0", "atom_type": "Cd"}, "2": {"label": "*1", "atom_type": "O2s"}, "6": {"label": "*2", "atom_type": "H0"}, "7": {"label": "*3", "atom_type": "Cs"}, "8": {"label": "*4", "atom_type": "H0"}}

>  <type>  (11) 
unop_7

>  <geom_source>  (11) 
Heuristics

$$$$

     RDKit          3D

 11  9  0  0  0  0  0  0  0  0999 V2000
    0.0004   -1.1251   -1.0860 C   0  0  0  0  0  0  0  0  0  0  0  0
    0.0004   -1.1251    0.2393 C   0  0  0  0  0  0  0  0  0  0  0  0
    0.0004   -0.0446    1.0510 O   0  0  0  0  0  0  0  0  0  0  0  0
    0.0004   -2.0614   -1.6232 H   0  0  0  0  0  0  0  0  0  0  0  0
    0.0004   -0.2079   -1.6639 H   0  0  0  0  0  0  0  0  0  0  0  0
    0.0004   -2.0401    0.8189 H   0  0  0  0  0  0  0  0  0  0  0  0
    0.0004    0.9158    0.4135 H   0  0  0  0  0  0  0  0  0  0  0  0
    0.0004    2.0045   -0.3091 C   0  0  0  0  0  3  0  0  0  0  0  0
   -1.0263    2.3069   -0.5099 H   0  0  0  0  0  0  0  0  0  0  0  0
    0.3155    2.3011    0.6902 H   0  0  0  0  0  0  0  0  0  0  0  0
    0.6890    2.4178   -1.0445 H   0  0  0  0  0  0  0  0  0  0  0  0
  1  2  2  3
  1  4  1  0
  1  5  1  0
  2  3  1  0
  2  6  1  0
  3  7  1  0
  8  9  1  0
  8 10  1  0
  8 11  1  0
M  RAD  1   8   2
M  END
>  <reaction>  (12) 
rxn_693

>  <mol_properties>  (12) 
{"1": {"label": "*0", "atom_type": "Cd"}, "2": {"label": "*1", "atom_type": "O2s"}, "6": {"label": "*2", "atom_type": "H0"}, "7": {"label": "*3", "atom_type": "Cs"}, "8": {"label": "*4", "atom_type": "H0"}}

>  <type>  (12) 
unop_8

>  <geom_source>  (12) 
Heuristics

$$$$

     RDKit          3D

 11  9  0  0  0  0  0  0  0  0999 V2000
   -0.0003   -1.1159   -1.0850 C   0  0  0  0  0  0  0  0  0  0  0  0
   -0.0003   -1.1159    0.2403 C   0  0  0  0  0  0  0  0  0  0  0  0
   -0.0003   -0.0354    1.0520 O   0  0  0  0  0  0  0  0  0  0  0  0
   -0.0003   -2.0522   -1.6222 H   0  0  0  0  0  0  0  0  0  0  0  0
   -0.0003   -0.1987   -1.6629 H   0  0  0  0  0  0  0  0  0  0  0  0
   -0.0003   -2.0310    0.8199 H   0  0  0  0  0  0  0  0  0  0  0  0
   -0.0003    0.9250    0.4146 H   0  0  0  0  0  0  0  0  0  0  0  0
   -0.0003    2.0137   -0.3081 C   0  0  0  0  0  3  0  0  0  0  0  0
    0.5131    1.8244   -1.2496 H   0  0  0  0  0  0  0  0  0  0  0  0
   -1.0268    2.3746   -0.2656 H   0  0  0  0  0  0  0  0  0  0  0  0
    0.5287    2.3168    0.5942 H   0  0  0  0  0  0  0  0  0  0  0  0
  1  2  2  3
  1  4  1  0
  1  5  1  0
  2  3  1  0
  2  6  1  0
  3  7  1  0
  8  9  1  0
  8 10  1  0
  8 11  1  0
M  RAD  1   8   2
M  END
>  <reaction>  (13) 
rxn_693

>  <mol_properties>  (13) 
{"1": {"label": "*0", "atom_type": "Cd"}, "2": {"label": "*1", "atom_type": "O2s"}, "6": {"label": "*2", "atom_type": "H0"}, "7": {"label": "*3", "atom_type": "Cs"}, "8": {"label": "*4", "atom_type": "H0"}}

>  <type>  (13) 
unop_9

>  <geom_source>  (13) 
Heuristics

$$$$

     RDKit          3D

 11  9  0  0  0  0  0  0  0  0999 V2000
    0.0009   -1.1198   -1.0851 C   0  0  0  0  0  0  0  0  0  0  0  0
    0.0009   -1.1198    0.2402 C   0  0  0  0  0  0  0  0  0  0  0  0
    0.0009   -0.0393    1.0519 O   0  0  0  0  0  0  0  0  0  0  0  0
    0.0009   -2.0561   -1.6223 H   0  0  0  0  0  0  0  0  0  0  0  0
    0.0009   -0.2026   -1.6630 H   0  0  0  0  0  0  0  0  0  0  0  0
    0.0009   -2.0349    0.8198 H   0  0  0  0  0  0  0  0  0  0  0  0
    0.0009    0.9211    0.4144 H   0  0  0  0  0  0  0  0  0  0  0  0
    0.0009    2.0098   -0.3082 C   0  0  0  0  0  3  0  0  0  0  0  0
   -0.8882    2.0283   -0.9367 H   0  0  0  0  0  0  0  0  0  0  0  0
   -0.0930    2.3033    0.7362 H   0  0  0  0  0  0  0  0  0  0  0  0
    0.9332    2.4008   -0.7128 H   0  0  0  0  0  0  0  0  0  0  0  0
  1  2  2  3
  1  4  1  0
  1  5  1  0
  2  3  1  0
  2  6  1  0
  3  7  1  0
  8  9  1  0
  8 10  1  0
  8 11  1  0
M  RAD  1   8   2
M  END
>  <reaction>  (14) 
rxn_693

>  <mol_properties>  (14) 
{"1": {"label": "*0", "atom_type": "Cd"}, "2": {"label": "*1", "atom_type": "O2s"}, "6": {"label": "*2", "atom_type": "H0"}, "7": {"label": "*3", "atom_type": "Cs"}, "8": {"label": "*4", "atom_type": "H0"}}

>  <type>  (14) 
unop_10

>  <geom_source>  (14) 
Heuristics

$$$$

     RDKit          3D

 11  9  0  0  0  0  0  0  0  0999 V2000
    0.0040   -1.1345   -1.0829 C   0  0  0  0  0  0  0  0  0  0  0  0
    0.0040   -1.1345    0.2424 C   0  0  0  0  0  0  0  0  0  0  0  0
    0.0040   -0.0540    1.0541 O   0  0  0  0  0  0  0  0  0  0  0  0
    0.0040   -2.0709   -1.6201 H   0  0  0  0  0  0  0  0  0  0  0  0
    0.0040   -0.2173   -1.6609 H   0  0  0  0  0  0  0  0  0  0  0  0
    0.0040   -2.0496    0.8219 H   0  0  0  0  0  0  0  0  0  0  0  0
    0.0040    0.9064    0.4166 H   0  0  0  0  0  0  0  0  0  0  0  0
    0.0040    1.9951   -0.3061 C   0  0  0  0  0  3  0  0  0  0  0  0
    0.5173    2.7892    0.2340 H   0  0  0  0  0  0  0  0  0  0  0  0
    0.2420    2.4243   -1.2781 H   0  0  0  0  0  0  0  0  0  0  0  0
   -0.9799    2.3375    0.0109 H   0  0  0  0  0  0  0  0  0  0  0  0
  1  2  2  3
  1  4  1  0
  1  5  1  0
  2  3  1  0
  2  6  1  0
  3  7  1  0
  8  9  1  0
  8 10  1  0
  8 11  1  0
M  RAD  1   8   2
M  END
>  <reaction>  (15) 
rxn_693

>  <mol_properties>  (15) 
{"1": {"label": "*0", "atom_type": "Cd"}, "2": {"label": "*1", "atom_type": "O2s"}, "6": {"label": "*2", "atom_type": "H0"}, "7": {"label": "*3", "atom_type": "Cs"}, "8": {"label": "*4", "atom_type": "H0"}}

>  <type>  (15) 
unop_11

>  <geom_source>  (15) 
Heuristics

$$$$

     RDKit          3D

 11  9  0  0  0  0  0  0  0  0999 V2000
   -0.0000   -1.1145   -1.0852 C   0  0  0  0  0  0  0  0  0  0  0  0
   -0.0000   -1.1145    0.2401 C   0  0  0  0  0  0  0  0  0  0  0  0
   -0.0000   -0.0340    1.0518 O   0  0  0  0  0  0  0  0  0  0  0  0
   -0.0000   -2.0508   -1.6224 H   0  0  0  0  0  0  0  0  0  0  0  0
    0.0000   -0.1972   -1.6631 H   0  0  0  0  0  0  0  0  0  0  0  0
   -0.0000   -2.0295    0.8197 H   0  0  0  0  0  0  0  0  0  0  0  0
    0.0000    0.9264    0.4143 H   0  0  0  0  0  0  0  0  0  0  0  0
    0.0000    2.0151   -0.3083 C   0  0  0  0  0  3  0  0  0  0  0  0
    0.0000    1.7498   -1.3644 H   0  0  0  0  0  0  0  0  0  0  0  0
   -0.8891    2.3428    0.2282 H   0  0  0  0  0  0  0  0  0  0  0  0
    0.8891    2.3428    0.2282 H   0  0  0  0  0  0  0  0  0  0  0  0
  1  2  2  3
  1  4  1  0
  1  5  1  0
  2  3  1  0
  2  6  1  0
  3  7  1  0
  8  9  1  0
  8 10  1  0
  8 11  1  0
M  RAD  1   8   2
M  END
>  <reaction>  (16) 
rxn_693

>  <mol_properties>  (16) 
{"1": {"label": "*0", "atom_type": "Cd"}, "2": {"label": "*1", "atom_type": "O2s"}, "6": {"label": "*2", "atom_type": "H0"}, "7": {"label": "*3", "atom_type": "Cs"}, "8": {"label": "*4", "atom_type": "H0"}}

>  <type>  (16) 
unop_12

>  <geom_source>  (16) 
Heuristics

$$$$

     RDKit          3D

 11  9  0  0  0  0  0  0  0  0999 V2000
    0.5253   -1.2264    0.4485 O   0  0  0  0  0  1  0  0  0  0  0  0
   -1.4452   -0.4864   -0.5404 C   0  0  0  0  0  0  0  0  0  0  0  0
    1.1766   -0.0733    0.8679 C   0  0  0  0  0  0  0  0  0  0  0  0
    1.2626    0.9765    0.0618 C   0  0  0  0  0  0  0  0  0  0  0  0
   -1.9496   -0.4190    0.4454 H   0  0  0  0  0  0  0  0  0  0  0  0
   -1.2344    0.5350   -0.9186 H   0  0  0  0  0  0  0  0  0  0  0  0
   -2.1044   -1.0175   -1.2575 H   0  0  0  0  0  0  0  0  0  0  0  0
   -0.4427   -1.0734   -0.4253 H   0  0  0  0  0  0  0  0  0  0  0  0
    1.6140   -0.0357    1.8571 H   0  0  0  0  0  0  0  0  0  0  0  0
    0.8274    0.9462   -0.9289 H   0  0  0  0  0  0  0  0  0  0  0  0
    1.7703    1.8741    0.3901 H   0  0  0  0  0  0  0  0  0  0  0  0
  1  3  1  0
  2  5  1  0
  2  6  1  0
  2  7  1  0
  2  8  1  0
  3  4  2  3
  3  9  1  0
  4 10  1  0
  4 11  1  0
M  RAD  1   1   2
M  END
>  <reaction>  (17) 
rxn_693

>  <mol_properties>  (17) 
{"1": {"label": "*0", "atom_type": "Cd"}, "2": {"label": "*1", "atom_type": "O2s"}, "6": {"label": "*2", "atom_type": "H0"}, "7": {"label": "*3", "atom_type": "Cs"}, "8": {"label": "*4", "atom_type": "H0"}}

>  <type>  (17) 
unop_13

>  <geom_source>  (17) 
AutoTST

$$$$
