
     RDKit          3D

  9  8  0  0  0  0  0  0  0  0999 V2000
   -0.8818   -0.3578    0.1297 C   0  0  0  0  0  0  0  0  0  0  0  0
    0.6153   -0.3021   -0.1188 C   0  0  0  0  0  0  0  0  0  0  0  0
    1.5354   -1.7170    0.5545 S   0  0  0  0  0  0  0  0  0  0  0  0
   -1.1018   -0.3317    1.1984 H   0  0  0  0  0  0  0  0  0  0  0  0
   -1.3114   -1.2723   -0.2799 H   0  0  0  0  0  0  0  0  0  0  0  0
   -1.3767    0.4976   -0.3363 H   0  0  0  0  0  0  0  0  0  0  0  0
    1.0467    0.6194    0.2718 H   0  0  0  0  0  0  0  0  0  0  0  0
    0.8295   -0.3275   -1.1882 H   0  0  0  0  0  0  0  0  0  0  0  0
    1.2306   -1.5077    1.8423 H   0  0  0  0  0  0  0  0  0  0  0  0
  1  2  1  0
  1  4  1  0
  1  5  1  0
  1  6  1  0
  2  3  1  0
  2  7  1  0
  2  8  1  0
  3  9  1  0
M  END
>  <reaction>  (1) 
rxn_1902

>  <mol_properties>  (1) 
{"1": {"label": "donator", "atom_type": "Cs"}, "6": {"label": "d_hydrogen", "atom_type": "H0"}}

>  <type>  (1) 
r1h

$$$$

     RDKit          3D

  6  5  0  0  0  0  0  0  0  0999 V2000
   -0.5044    0.1171    0.0332 C   0  0  0  0  0  0  0  0  0  0  0  0
    0.9512    0.1178    0.2257 C   0  0  0  0  0  3  0  0  0  0  0  0
    2.2111   -0.6562   -0.2671 S   0  0  0  0  0  0  0  0  0  0  0  0
   -0.8469   -0.6516   -0.6665 H   0  0  0  0  0  0  0  0  0  0  0  0
   -0.8181    1.1007   -0.3253 H   0  0  0  0  0  0  0  0  0  0  0  0
   -0.9929   -0.0278    1.0000 H   0  0  0  0  0  0  0  0  0  0  0  0
  1  2  1  0
  1  4  1  0
  1  5  1  0
  1  6  1  0
  2  3  2  0
M  RAD  1   2   2
M  END
>  <reaction>  (2) 
rxn_1902

>  <mol_properties>  (2) 
{"1": {"label": "acceptor", "atom_type": "CS"}}

>  <type>  (2) 
r2

$$$$

     RDKit          3D

  7  6  0  0  0  0  0  0  0  0999 V2000
   -0.6782    0.0507    0.0301 C   0  0  0  0  0  0  0  0  0  0  0  0
    0.8092    0.0996    0.0213 C   0  0  0  0  0  0  0  0  0  0  0  0
    1.7473    0.7521    1.1507 S   0  0  0  0  0  0  0  0  0  0  0  0
   -1.0667    0.5456   -0.8653 H   0  0  0  0  0  0  0  0  0  0  0  0
   -1.0112   -0.9904   -0.0239 H   0  0  0  0  0  0  0  0  0  0  0  0
   -1.0920    0.5225    0.9188 H   0  0  0  0  0  0  0  0  0  0  0  0
    1.2740   -0.3620   -0.8520 H   0  0  0  0  0  0  0  0  0  0  0  0
  1  2  1  0
  1  4  1  0
  1  5  1  0
  1  6  1  0
  2  3  2  0
  2  7  1  0
M  END
>  <reaction>  (3) 
rxn_1902

>  <mol_properties>  (3) 
{"0": {"label": "a_hydrogen", "atom_type": "H0"}, "2": {"label": "acceptor", "atom_type": "CS"}}

>  <type>  (3) 
r2h

$$$$

     RDKit          3D

 15 13  0  0  0  0  0  0  0  0999 V2000
   -1.8446    0.0374   -1.7656 C   0  0  0  0  0  0  0  0  0  0  0  0
   -0.7908    0.7257   -0.9414 C   0  0  0  0  0  3  0  0  0  0  0  0
    0.0471    2.1171   -1.6606 S   0  0  0  0  0  0  0  0  0  0  0  0
   -1.4188   -0.3518   -2.6931 H   0  0  0  0  0  0  0  0  0  0  0  0
   -2.6594    0.7189   -2.0256 H   0  0  0  0  0  0  0  0  0  0  0  0
   -2.2629   -0.8071   -1.2147 H   0  0  0  0  0  0  0  0  0  0  0  0
    0.1517   -0.2339   -0.7319 H   0  0  0  0  0  0  0  0  0  0  0  0
   -1.1102    1.0084    0.0610 H   0  0  0  0  0  0  0  0  0  0  0  0
    0.3654    1.5275   -2.8226 H   0  0  0  0  0  0  0  0  0  0  0  0
    2.1313   -0.7055    0.3604 C   0  0  0  0  0  0  0  0  0  0  0  0
    1.1416   -1.1323   -0.6544 C   0  0  0  0  0  0  0  0  0  0  0  0
    1.1348   -2.3668   -1.6533 S   0  0  0  0  0  0  0  0  0  0  0  0
    3.0007   -1.3619    0.4048 H   0  0  0  0  0  0  0  0  0  0  0  0
    1.6463   -0.6689    1.3404 H   0  0  0  0  0  0  0  0  0  0  0  0
    2.4454    0.3182    0.1353 H   0  0  0  0  0  0  0  0  0  0  0  0
  1  2  1  0
  1  4  1  0
  1  5  1  0
  1  6  1  0
  2  3  1  0
  2  8  1  0
  3  9  1  0
  7 11  1  0
 10 11  1  0
 10 13  1  0
 10 14  1  0
 10 15  1  0
 11 12  2  0
M  RAD  1   2   2
M  END
>  <reaction>  (4) 
rxn_1902

>  <mol_properties>  (4) 
{"1": {"label": "*3", "atom_type": "Cs"}, "2": {"label": "*4", "atom_type": "S2s"}, "6": {"label": "*2", "atom_type": "H0"}, "10": {"label": "*1", "atom_type": "CS"}, "11": {"label": "*0", "atom_type": "S2d"}}

>  <type>  (4) 
ts

$$$$

     RDKit          3D

 15 13  0  0  0  0  0  0  0  0999 V2000
   -0.9854    0.5104   -2.1729 C   0  0  0  0  0  0  0  0  0  0  0  0
   -0.9854    0.5104   -0.6543 C   0  0  0  0  0  0  0  0  0  0  0  0
   -0.9854    2.1678    0.0907 S   0  0  0  0  0  0  0  0  0  0  0  0
   -0.0787    0.9758   -2.5637 H   0  0  0  0  0  0  0  0  0  0  0  0
   -1.8413    1.0616   -2.5630 H   0  0  0  0  0  0  0  0  0  0  0  0
   -1.0285   -0.5130   -2.5532 H   0  0  0  0  0  0  0  0  0  0  0  0
    0.0265   -0.1689   -0.1801 H   0  0  0  0  0  0  0  0  0  0  0  0
   -1.8930    0.0434   -0.2691 H   0  0  0  0  0  0  0  0  0  0  0  0
    0.1894    2.5694   -0.4128 H   0  0  0  0  0  0  0  0  0  0  0  0
    1.9690   -0.0617    1.1499 C   0  0  0  0  0  0  0  0  0  0  0  0
    1.0402   -0.8494    0.2948 C   0  0  0  0  0  3  0  0  0  0  0  0
    0.5330   -2.3490    0.5696 S   0  0  0  0  0  0  0  0  0  0  0  0
    2.2890   -0.6255    2.0236 H   0  0  0  0  0  0  0  0  0  0  0  0
    1.4793    0.8641    1.4673 H   0  0  0  0  0  0  0  0  0  0  0  0
    2.8432    0.2372    0.5633 H   0  0  0  0  0  0  0  0  0  0  0  0
  1  2  1  0
  1  4  1  0
  1  5  1  0
  1  6  1  0
  2  3  1  0
  2  7  1  0
  2  8  1  0
  3  9  1  0
 10 11  1  0
 10 13  1  0
 10 14  1  0
 10 15  1  0
 11 12  2  0
M  RAD  1  11   2
M  END
>  <reaction>  (5) 
rxn_1902

>  <mol_properties>  (5) 
{"1": {"label": "*3", "atom_type": "Cs"}, "2": {"label": "*4", "atom_type": "S2s"}, "6": {"label": "*2", "atom_type": "H0"}, "10": {"label": "*1", "atom_type": "CS"}, "11": {"label": "*0", "atom_type": "S2d"}}

>  <type>  (5) 
unop_1

>  <geom_source>  (5) 
Heuristics

$$$$

     RDKit          3D

 15 13  0  0  0  0  0  0  0  0999 V2000
   -1.1419    0.3177   -2.2875 C   0  0  0  0  0  0  0  0  0  0  0  0
   -1.1419    0.3177   -0.7689 C   0  0  0  0  0  0  0  0  0  0  0  0
   -1.1419    1.9750   -0.0239 S   0  0  0  0  0  0  0  0  0  0  0  0
   -0.2352    0.7831   -2.6783 H   0  0  0  0  0  0  0  0  0  0  0  0
   -1.9978    0.8689   -2.6777 H   0  0  0  0  0  0  0  0  0  0  0  0
   -1.1849   -0.7057   -2.6678 H   0  0  0  0  0  0  0  0  0  0  0  0
   -0.1299   -0.3617   -0.2948 H   0  0  0  0  0  0  0  0  0  0  0  0
   -2.0495   -0.1494   -0.3838 H   0  0  0  0  0  0  0  0  0  0  0  0
    0.0330    2.3767   -0.5274 H   0  0  0  0  0  0  0  0  0  0  0  0
    2.0929   -1.0391   -0.6873 C   0  0  0  0  0  0  0  0  0  0  0  0
    0.8837   -1.0422    0.1802 C   0  0  0  0  0  3  0  0  0  0  0  0
    0.8315   -1.4235    1.7401 S   0  0  0  0  0  0  0  0  0  0  0  0
    2.9842   -1.3345   -0.1377 H   0  0  0  0  0  0  0  0  0  0  0  0
    2.2360   -0.0413   -1.1134 H   0  0  0  0  0  0  0  0  0  0  0  0
    1.9394   -1.7166   -1.5329 H   0  0  0  0  0  0  0  0  0  0  0  0
  1  2  1  0
  1  4  1  0
  1  5  1  0
  1  6  1  0
  2  3  1  0
  2  7  1  0
  2  8  1  0
  3  9  1  0
 10 11  1  0
 10 13  1  0
 10 14  1  0
 10 15  1  0
 11 12  2  0
M  RAD  1  11   2
M  END
>  <reaction>  (6) 
rxn_1902

>  <mol_properties>  (6) 
{"1": {"label": "*3", "atom_type": "Cs"}, "2": {"label": "*4", "atom_type": "S2s"}, "6": {"label": "*2", "atom_type": "H0"}, "10": {"label": "*1", "atom_type": "CS"}, "11": {"label": "*0", "atom_type": "S2d"}}

>  <type>  (6) 
unop_2

>  <geom_source>  (6) 
Heuristics

$$$$

     RDKit          3D

 15 13  0  0  0  0  0  0  0  0999 V2000
   -1.0708    0.5546   -2.0185 C   0  0  0  0  0  0  0  0  0  0  0  0
   -1.0708    0.5546   -0.4998 C   0  0  0  0  0  0  0  0  0  0  0  0
   -1.0708    2.2119    0.2452 S   0  0  0  0  0  0  0  0  0  0  0  0
   -0.1641    1.0200   -2.4092 H   0  0  0  0  0  0  0  0  0  0  0  0
   -1.9267    1.1058   -2.4086 H   0  0  0  0  0  0  0  0  0  0  0  0
   -1.1138   -0.4688   -2.3988 H   0  0  0  0  0  0  0  0  0  0  0  0
   -0.0589   -0.1248   -0.0257 H   0  0  0  0  0  0  0  0  0  0  0  0
   -1.9784    0.0875   -0.1147 H   0  0  0  0  0  0  0  0  0  0  0  0
    0.1040    2.6136   -0.2584 H   0  0  0  0  0  0  0  0  0  0  0  0
    1.4585   -0.3286    1.7659 C   0  0  0  0  0  0  0  0  0  0  0  0
    0.9548   -0.8053    0.4493 C   0  0  0  0  0  3  0  0  0  0  0  0
    0.9813   -2.3187   -0.0895 S   0  0  0  0  0  0  0  0  0  0  0  0
    1.8676   -1.1431    2.3601 H   0  0  0  0  0  0  0  0  0  0  0  0
    0.6462    0.1571    2.3154 H   0  0  0  0  0  0  0  0  0  0  0  0
    2.2259    0.4359    1.6101 H   0  0  0  0  0  0  0  0  0  0  0  0
  1  2  1  0
  1  4  1  0
  1  5  1  0
  1  6  1  0
  2  3  1  0
  2  7  1  0
  2  8  1  0
  3  9  1  0
 10 11  1  0
 10 13  1  0
 10 14  1  0
 10 15  1  0
 11 12  2  0
M  RAD  1  11   2
M  END
>  <reaction>  (7) 
rxn_1902

>  <mol_properties>  (7) 
{"1": {"label": "*3", "atom_type": "Cs"}, "2": {"label": "*4", "atom_type": "S2s"}, "6": {"label": "*2", "atom_type": "H0"}, "10": {"label": "*1", "atom_type": "CS"}, "11": {"label": "*0", "atom_type": "S2d"}}

>  <type>  (7) 
unop_3

>  <geom_source>  (7) 
Heuristics

$$$$

     RDKit          3D

 15 13  0  0  0  0  0  0  0  0999 V2000
   -1.1444    0.2434   -2.3016 C   0  0  0  0  0  0  0  0  0  0  0  0
   -1.1444    0.2434   -0.7830 C   0  0  0  0  0  0  0  0  0  0  0  0
   -1.1444    1.9007   -0.0380 S   0  0  0  0  0  0  0  0  0  0  0  0
   -0.2378    0.7088   -2.6924 H   0  0  0  0  0  0  0  0  0  0  0  0
   -2.0004    0.7946   -2.6918 H   0  0  0  0  0  0  0  0  0  0  0  0
   -1.1875   -0.7800   -2.6819 H   0  0  0  0  0  0  0  0  0  0  0  0
   -0.1325   -0.4360   -0.3089 H   0  0  0  0  0  0  0  0  0  0  0  0
   -2.0520   -0.2237   -0.3979 H   0  0  0  0  0  0  0  0  0  0  0  0
    0.0304    2.3024   -0.5415 H   0  0  0  0  0  0  0  0  0  0  0  0
    0.9110   -2.5479   -0.2398 C   0  0  0  0  0  0  0  0  0  0  0  0
    0.8811   -1.1165    0.1661 C   0  0  0  0  0  3  0  0  0  0  0  0
    1.4209   -0.5079    1.5516 S   0  0  0  0  0  0  0  0  0  0  0  0
    1.3556   -3.1760    0.5293 H   0  0  0  0  0  0  0  0  0  0  0  0
    1.4736   -2.6529   -1.1726 H   0  0  0  0  0  0  0  0  0  0  0  0
   -0.1064   -2.8900   -0.4530 H   0  0  0  0  0  0  0  0  0  0  0  0
  1  2  1  0
  1  4  1  0
  1  5  1  0
  1  6  1  0
  2  3  1  0
  2  7  1  0
  2  8  1  0
  3  9  1  0
 10 11  1  0
 10 13  1  0
 10 14  1  0
 10 15  1  0
 11 12  2  0
M  RAD  1  11   2
M  END
>  <reaction>  (8) 
rxn_1902

>  <mol_properties>  (8) 
{"1": {"label": "*3", "atom_type": "Cs"}, "2": {"label": "*4", "atom_type": "S2s"}, "6": {"label": "*2", "atom_type": "H0"}, "10": {"label": "*1", "atom_type": "CS"}, "11": {"label": "*0", "atom_type": "S2d"}}

>  <type>  (8) 
unop_4

>  <geom_source>  (8) 
Heuristics

$$$$

     RDKit          3D

 15 13  0  0  0  0  0  0  0  0999 V2000
   -1.2782    0.4055   -1.9119 C   0  0  0  0  0  0  0  0  0  0  0  0
   -1.2782    0.4055   -0.3932 C   0  0  0  0  0  0  0  0  0  0  0  0
   -1.2782    2.0629    0.3518 S   0  0  0  0  0  0  0  0  0  0  0  0
   -0.3716    0.8709   -2.3026 H   0  0  0  0  0  0  0  0  0  0  0  0
   -2.1342    0.9567   -2.3020 H   0  0  0  0  0  0  0  0  0  0  0  0
   -1.3213   -0.6178   -2.2922 H   0  0  0  0  0  0  0  0  0  0  0  0
   -0.2663   -0.2738    0.0809 H   0  0  0  0  0  0  0  0  0  0  0  0
   -2.1858   -0.0615   -0.0081 H   0  0  0  0  0  0  0  0  0  0  0  0
   -0.1034    2.4646   -0.1518 H   0  0  0  0  0  0  0  0  0  0  0  0
    0.8194   -1.0027    2.0415 C   0  0  0  0  0  0  0  0  0  0  0  0
    0.7473   -0.9543    0.5558 C   0  0  0  0  0  3  0  0  0  0  0  0
    1.7736   -1.6433   -0.4705 S   0  0  0  0  0  0  0  0  0  0  0  0
    1.6765   -1.5781    2.3851 H   0  0  0  0  0  0  0  0  0  0  0  0
   -0.1017   -1.4396    2.4393 H   0  0  0  0  0  0  0  0  0  0  0  0
    0.8750    0.0152    2.4393 H   0  0  0  0  0  0  0  0  0  0  0  0
  1  2  1  0
  1  4  1  0
  1  5  1  0
  1  6  1  0
  2  3  1  0
  2  7  1  0
  2  8  1  0
  3  9  1  0
 10 11  1  0
 10 13  1  0
 10 14  1  0
 10 15  1  0
 11 12  2  0
M  RAD  1  11   2
M  END
>  <reaction>  (9) 
rxn_1902

>  <mol_properties>  (9) 
{"1": {"label": "*3", "atom_type": "Cs"}, "2": {"label": "*4", "atom_type": "S2s"}, "6": {"label": "*2", "atom_type": "H0"}, "10": {"label": "*1", "atom_type": "CS"}, "11": {"label": "*0", "atom_type": "S2d"}}

>  <type>  (9) 
unop_5

>  <geom_source>  (9) 
Heuristics

$$$$

     RDKit          3D

 15 13  0  0  0  0  0  0  0  0999 V2000
   -1.1872    0.1505   -2.2711 C   0  0  0  0  0  0  0  0  0  0  0  0
   -1.1872    0.1505   -0.7524 C   0  0  0  0  0  0  0  0  0  0  0  0
   -1.1872    1.8079   -0.0074 S   0  0  0  0  0  0  0  0  0  0  0  0
   -0.2806    0.6159   -2.6618 H   0  0  0  0  0  0  0  0  0  0  0  0
   -2.0432    0.7017   -2.6612 H   0  0  0  0  0  0  0  0  0  0  0  0
   -1.2303   -0.8728   -2.6514 H   0  0  0  0  0  0  0  0  0  0  0  0
   -0.1753   -0.5288   -0.2783 H   0  0  0  0  0  0  0  0  0  0  0  0
   -2.0948   -0.3165   -0.3673 H   0  0  0  0  0  0  0  0  0  0  0  0
   -0.0124    2.2096   -0.5110 H   0  0  0  0  0  0  0  0  0  0  0  0
    0.5635   -2.6545    0.4213 C   0  0  0  0  0  0  0  0  0  0  0  0
    0.8383   -1.2093    0.1967 C   0  0  0  0  0  3  0  0  0  0  0  0
    1.6909   -0.2417    1.1549 S   0  0  0  0  0  0  0  0  0  0  0  0
    1.0175   -3.0129    1.3428 H   0  0  0  0  0  0  0  0  0  0  0  0
    0.9406   -3.2356   -0.4260 H   0  0  0  0  0  0  0  0  0  0  0  0
   -0.5175   -2.8217    0.4533 H   0  0  0  0  0  0  0  0  0  0  0  0
  1  2  1  0
  1  4  1  0
  1  5  1  0
  1  6  1  0
  2  3  1  0
  2  7  1  0
  2  8  1  0
  3  9  1  0
 10 11  1  0
 10 13  1  0
 10 14  1  0
 10 15  1  0
 11 12  2  0
M  RAD  1  11   2
M  END
>  <reaction>  (10) 
rxn_1902

>  <mol_properties>  (10) 
{"1": {"label": "*3", "atom_type": "Cs"}, "2": {"label": "*4", "atom_type": "S2s"}, "6": {"label": "*2", "atom_type": "H0"}, "10": {"label": "*1", "atom_type": "CS"}, "11": {"label": "*0", "atom_type": "S2d"}}

>  <type>  (10) 
unop_6

>  <geom_source>  (10) 
Heuristics

$$$$

     RDKit          3D

 15 13  0  0  0  0  0  0  0  0999 V2000
   -1.2644    0.0948   -2.1729 C   0  0  0  0  0  0  0  0  0  0  0  0
   -1.2644    0.0948   -0.6543 C   0  0  0  0  0  0  0  0  0  0  0  0
   -1.2644    1.7521    0.0907 S   0  0  0  0  0  0  0  0  0  0  0  0
   -0.3578    0.5602   -2.5637 H   0  0  0  0  0  0  0  0  0  0  0  0
   -2.1204    0.6460   -2.5630 H   0  0  0  0  0  0  0  0  0  0  0  0
   -1.3075   -0.9286   -2.5532 H   0  0  0  0  0  0  0  0  0  0  0  0
   -0.2525   -0.5846   -0.1801 H   0  0  0  0  0  0  0  0  0  0  0  0
   -2.1720   -0.3723   -0.2691 H   0  0  0  0  0  0  0  0  0  0  0  0
   -0.0896    2.1538   -0.4128 H   0  0  0  0  0  0  0  0  0  0  0  0
    0.3837   -2.4231    1.1499 C   0  0  0  0  0  0  0  0  0  0  0  0
    0.7611   -1.2651    0.2948 C   0  0  0  0  0  3  0  0  0  0  0  0
    1.9570   -0.2279    0.5696 S   0  0  0  0  0  0  0  0  0  0  0  0
    1.0267   -2.5057    2.0237 H   0  0  0  0  0  0  0  0  0  0  0  0
    0.4381   -3.3453    0.5633 H   0  0  0  0  0  0  0  0  0  0  0  0
   -0.6586   -2.3204    1.4673 H   0  0  0  0  0  0  0  0  0  0  0  0
  1  2  1  0
  1  4  1  0
  1  5  1  0
  1  6  1  0
  2  3  1  0
  2  7  1  0
  2  8  1  0
  3  9  1  0
 10 11  1  0
 10 13  1  0
 10 14  1  0
 10 15  1  0
 11 12  2  0
M  RAD  1  11   2
M  END
>  <reaction>  (11) 
rxn_1902

>  <mol_properties>  (11) 
{"1": {"label": "*3", "atom_type": "Cs"}, "2": {"label": "*4", "atom_type": "S2s"}, "6": {"label": "*2", "atom_type": "H0"}, "10": {"label": "*1", "atom_type": "CS"}, "11": {"label": "*0", "atom_type": "S2d"}}

>  <type>  (11) 
unop_7

>  <geom_source>  (11) 
Heuristics

$$$$

     RDKit          3D

 15 13  0  0  0  0  0  0  0  0999 V2000
   -1.0078    0.4179   -2.2711 C   0  0  0  0  0  0  0  0  0  0  0  0
   -1.0078    0.4179   -0.7524 C   0  0  0  0  0  0  0  0  0  0  0  0
   -1.0078    2.0752   -0.0074 S   0  0  0  0  0  0  0  0  0  0  0  0
   -0.1011    0.8833   -2.6618 H   0  0  0  0  0  0  0  0  0  0  0  0
   -1.8637    0.9691   -2.6612 H   0  0  0  0  0  0  0  0  0  0  0  0
   -1.0508   -0.6055   -2.6514 H   0  0  0  0  0  0  0  0  0  0  0  0
    0.0042   -0.2615   -0.2783 H   0  0  0  0  0  0  0  0  0  0  0  0
   -1.9154   -0.0492   -0.3673 H   0  0  0  0  0  0  0  0  0  0  0  0
    0.1670    2.4769   -0.5110 H   0  0  0  0  0  0  0  0  0  0  0  0
    2.2514   -0.1404    0.4213 C   0  0  0  0  0  0  0  0  0  0  0  0
    1.0178   -0.9420    0.1967 C   0  0  0  0  0  3  0  0  0  0  0  0
    0.4451   -2.0974    1.1549 S   0  0  0  0  0  0  0  0  0  0  0  0
    2.7549   -0.4249    1.3427 H   0  0  0  0  0  0  0  0  0  0  0  0
    1.9967    0.9234    0.4533 H   0  0  0  0  0  0  0  0  0  0  0  0
    2.9319   -0.2694   -0.4260 H   0  0  0  0  0  0  0  0  0  0  0  0
  1  2  1  0
  1  4  1  0
  1  5  1  0
  1  6  1  0
  2  3  1  0
  2  7  1  0
  2  8  1  0
  3  9  1  0
 10 11  1  0
 10 13  1  0
 10 14  1  0
 10 15  1  0
 11 12  2  0
M  RAD  1  11   2
M  END
>  <reaction>  (12) 
rxn_1902

>  <mol_properties>  (12) 
{"1": {"label": "*3", "atom_type": "Cs"}, "2": {"label": "*4", "atom_type": "S2s"}, "6": {"label": "*2", "atom_type": "H0"}, "10": {"label": "*1", "atom_type": "CS"}, "11": {"label": "*0", "atom_type": "S2d"}}

>  <type>  (12) 
unop_8

>  <geom_source>  (12) 
Heuristics

$$$$

     RDKit          3D

 15 13  0  0  0  0  0  0  0  0999 V2000
   -1.1453    0.3126   -2.2875 C   0  0  0  0  0  0  0  0  0  0  0  0
   -1.1453    0.3126   -0.7689 C   0  0  0  0  0  0  0  0  0  0  0  0
   -1.1453    1.9699   -0.0239 S   0  0  0  0  0  0  0  0  0  0  0  0
   -0.2386    0.7780   -2.6783 H   0  0  0  0  0  0  0  0  0  0  0  0
   -2.0012    0.8638   -2.6777 H   0  0  0  0  0  0  0  0  0  0  0  0
   -1.1884   -0.7108   -2.6678 H   0  0  0  0  0  0  0  0  0  0  0  0
   -0.1334   -0.3668   -0.2948 H   0  0  0  0  0  0  0  0  0  0  0  0
   -2.0529   -0.1545   -0.3838 H   0  0  0  0  0  0  0  0  0  0  0  0
    0.0295    2.3716   -0.5274 H   0  0  0  0  0  0  0  0  0  0  0  0
    1.3353   -2.1676   -0.6873 C   0  0  0  0  0  0  0  0  0  0  0  0
    0.8803   -1.0473    0.1802 C   0  0  0  0  0  3  0  0  0  0  0  0
    1.2134   -0.8546    1.7401 S   0  0  0  0  0  0  0  0  0  0  0  0
    1.9462   -2.8807   -0.1377 H   0  0  0  0  0  0  0  0  0  0  0  0
    1.9042   -1.7690   -1.5329 H   0  0  0  0  0  0  0  0  0  0  0  0
    0.4660   -2.6779   -1.1135 H   0  0  0  0  0  0  0  0  0  0  0  0
  1  2  1  0
  1  4  1  0
  1  5  1  0
  1  6  1  0
  2  3  1  0
  2  7  1  0
  2  8  1  0
  3  9  1  0
 10 11  1  0
 10 13  1  0
 10 14  1  0
 10 15  1  0
 11 12  2  0
M  RAD  1  11   2
M  END
>  <reaction>  (13) 
rxn_1902

>  <mol_properties>  (13) 
{"1": {"label": "*3", "atom_type": "Cs"}, "2": {"label": "*4", "atom_type": "S2s"}, "6": {"label": "*2", "atom_type": "H0"}, "10": {"label": "*1", "atom_type": "CS"}, "11": {"label": "*0", "atom_type": "S2d"}}

>  <type>  (13) 
unop_9

>  <geom_source>  (13) 
Heuristics

$$$$

     RDKit          3D

 15 13  0  0  0  0  0  0  0  0999 V2000
   -1.0775    0.3431   -2.3016 C   0  0  0  0  0  0  0  0  0  0  0  0
   -1.0775    0.3431   -0.7830 C   0  0  0  0  0  0  0  0  0  0  0  0
   -1.0775    2.0004   -0.0380 S   0  0  0  0  0  0  0  0  0  0  0  0
   -0.1709    0.8085   -2.6924 H   0  0  0  0  0  0  0  0  0  0  0  0
   -1.9335    0.8943   -2.6918 H   0  0  0  0  0  0  0  0  0  0  0  0
   -1.1206   -0.6803   -2.6819 H   0  0  0  0  0  0  0  0  0  0  0  0
   -0.0656   -0.3363   -0.3089 H   0  0  0  0  0  0  0  0  0  0  0  0
   -1.9851   -0.1240   -0.3979 H   0  0  0  0  0  0  0  0  0  0  0  0
    0.0973    2.4021   -0.5415 H   0  0  0  0  0  0  0  0  0  0  0  0
    2.2842   -0.5024   -0.2398 C   0  0  0  0  0  0  0  0  0  0  0  0
    0.9481   -1.0168    0.1661 C   0  0  0  0  0  3  0  0  0  0  0  0
    0.5891   -1.7468    1.5516 S   0  0  0  0  0  0  0  0  0  0  0  0
    3.0339   -0.6761    0.5293 H   0  0  0  0  0  0  0  0  0  0  0  0
    2.2156    0.5688   -0.4529 H   0  0  0  0  0  0  0  0  0  0  0  0
    2.5944   -0.9833   -1.1726 H   0  0  0  0  0  0  0  0  0  0  0  0
  1  2  1  0
  1  4  1  0
  1  5  1  0
  1  6  1  0
  2  3  1  0
  2  7  1  0
  2  8  1  0
  3  9  1  0
 10 11  1  0
 10 13  1  0
 10 14  1  0
 10 15  1  0
 11 12  2  0
M  RAD  1  11   2
M  END
>  <reaction>  (14) 
rxn_1902

>  <mol_properties>  (14) 
{"1": {"label": "*3", "atom_type": "Cs"}, "2": {"label": "*4", "atom_type": "S2s"}, "6": {"label": "*2", "atom_type": "H0"}, "10": {"label": "*1", "atom_type": "CS"}, "11": {"label": "*0", "atom_type": "S2d"}}

>  <type>  (14) 
unop_10

>  <geom_source>  (14) 
Heuristics

$$$$

     RDKit          3D

 15 13  0  0  0  0  0  0  0  0999 V2000
   -1.3376    0.1571   -2.0185 C   0  0  0  0  0  0  0  0  0  0  0  0
   -1.3376    0.1571   -0.4998 C   0  0  0  0  0  0  0  0  0  0  0  0
   -1.3376    1.8144    0.2452 S   0  0  0  0  0  0  0  0  0  0  0  0
   -0.4310    0.6225   -2.4092 H   0  0  0  0  0  0  0  0  0  0  0  0
   -2.1936    0.7083   -2.4086 H   0  0  0  0  0  0  0  0  0  0  0  0
   -1.3807   -0.8663   -2.3988 H   0  0  0  0  0  0  0  0  0  0  0  0
   -0.3257   -0.5223   -0.0257 H   0  0  0  0  0  0  0  0  0  0  0  0
   -2.2452   -0.3100   -0.1147 H   0  0  0  0  0  0  0  0  0  0  0  0
   -0.1628    2.2161   -0.2584 H   0  0  0  0  0  0  0  0  0  0  0  0
    0.4375   -1.8495    1.7659 C   0  0  0  0  0  0  0  0  0  0  0  0
    0.6879   -1.2028    0.4493 C   0  0  0  0  0  3  0  0  0  0  0  0
    2.0987   -0.6543   -0.0895 S   0  0  0  0  0  0  0  0  0  0  0  0
    1.3462   -1.9197    2.3601 H   0  0  0  0  0  0  0  0  0  0  0  0
    0.0205   -2.8492    1.6101 H   0  0  0  0  0  0  0  0  0  0  0  0
   -0.3196   -1.2816    2.3154 H   0  0  0  0  0  0  0  0  0  0  0  0
  1  2  1  0
  1  4  1  0
  1  5  1  0
  1  6  1  0
  2  3  1  0
  2  7  1  0
  2  8  1  0
  3  9  1  0
 10 11  1  0
 10 13  1  0
 10 14  1  0
 10 15  1  0
 11 12  2  0
M  RAD  1  11   2
M  END
>  <reaction>  (15) 
rxn_1902

>  <mol_properties>  (15) 
{"1": {"label": "*3", "atom_type": "Cs"}, "2": {"label": "*4", "atom_type": "S2s"}, "6": {"label": "*2", "atom_type": "H0"}, "10": {"label": "*1", "atom_type": "CS"}, "11": {"label": "*0", "atom_type": "S2d"}}

>  <type>  (15) 
unop_11

>  <geom_source>  (15) 
Heuristics

$$$$

     RDKit          3D

 15 13  0  0  0  0  0  0  0  0999 V2000
   -1.1613    0.3270   -2.2740 C   0  0  0  0  0  0  0  0  0  0  0  0
   -1.1613    0.3270   -0.7553 C   0  0  0  0  0  0  0  0  0  0  0  0
   -1.1613    1.9844   -0.0103 S   0  0  0  0  0  0  0  0  0  0  0  0
   -0.2546    0.7924   -2.6647 H   0  0  0  0  0  0  0  0  0  0  0  0
   -2.0172    0.8782   -2.6641 H   0  0  0  0  0  0  0  0  0  0  0  0
   -1.2043   -0.6964   -2.6543 H   0  0  0  0  0  0  0  0  0  0  0  0
   -0.1494   -0.3523   -0.2812 H   0  0  0  0  0  0  0  0  0  0  0  0
   -2.0689   -0.1401   -0.3702 H   0  0  0  0  0  0  0  0  0  0  0  0
    0.0135    2.3860   -0.5139 H   0  0  0  0  0  0  0  0  0  0  0  0
    1.7509   -1.6281   -0.8426 C   0  0  0  0  0  0  0  0  0  0  0  0
    0.8643   -1.0328    0.1938 C   0  0  0  0  0  3  0  0  0  0  0  0
    1.0450   -1.1541    1.7856 S   0  0  0  0  0  0  0  0  0  0  0  0
    2.5755   -2.1817   -0.3984 H   0  0  0  0  0  0  0  0  0  0  0  0
    2.1435   -0.8364   -1.4882 H   0  0  0  0  0  0  0  0  0  0  0  0
    1.1668   -2.2912   -1.4882 H   0  0  0  0  0  0  0  0  0  0  0  0
  1  2  1  0
  1  4  1  0
  1  5  1  0
  1  6  1  0
  2  3  1  0
  2  7  1  0
  2  8  1  0
  3  9  1  0
 10 11  1  0
 10 13  1  0
 10 14  1  0
 10 15  1  0
 11 12  2  0
M  RAD  1  11   2
M  END
>  <reaction>  (16) 
rxn_1902

>  <mol_properties>  (16) 
{"1": {"label": "*3", "atom_type": "Cs"}, "2": {"label": "*4", "atom_type": "S2s"}, "6": {"label": "*2", "atom_type": "H0"}, "10": {"label": "*1", "atom_type": "CS"}, "11": {"label": "*0", "atom_type": "S2d"}}

>  <type>  (16) 
unop_12

>  <geom_source>  (16) 
Heuristics

$$$$

     RDKit          3D

 15 13  0  0  0  0  0  0  0  0999 V2000
   -1.0887    1.3822   -1.0595 S   0  0  0  0  0  0  0  0  0  0  0  0
    2.1061   -1.2793   -1.8203 S   0  0  0  0  0  0  0  0  0  0  0  0
   -2.0849   -0.3413    0.8392 C   0  0  0  0  0  0  0  0  0  0  0  0
    2.2003    0.3473    0.1398 C   0  0  0  0  0  0  0  0  0  0  0  0
   -1.1011   -0.2785   -0.3183 C   0  0  0  0  0  3  0  0  0  0  0  0
    1.4510   -0.6103   -0.7317 C   0  0  0  0  0  0  0  0  0  0  0  0
    2.5918    1.1933   -0.4649 H   0  0  0  0  0  0  0  0  0  0  0  0
    1.5157    0.7509    0.9142 H   0  0  0  0  0  0  0  0  0  0  0  0
    3.0436   -0.1703    0.6451 H   0  0  0  0  0  0  0  0  0  0  0  0
   -3.1107   -0.1053    0.4848 H   0  0  0  0  0  0  0  0  0  0  0  0
   -1.7901    0.3816    1.6284 H   0  0  0  0  0  0  0  0  0  0  0  0
   -2.0786   -1.3630    1.2724 H   0  0  0  0  0  0  0  0  0  0  0  0
   -1.3841   -1.0227   -1.0922 H   0  0  0  0  0  0  0  0  0  0  0  0
    0.1963   -0.8398   -0.5029 H   0  0  0  0  0  0  0  0  0  0  0  0
   -0.4665    1.9551    0.0659 H   0  0  0  0  0  0  0  0  0  0  0  0
  1  5  1  0
  1 15  1  0
  2  6  2  0
  3  5  1  0
  3 10  1  0
  3 11  1  0
  3 12  1  0
  4  6  1  0
  4  7  1  0
  4  8  1  0
  4  9  1  0
  5 13  1  0
  6 14  1  0
M  RAD  1   5   2
M  END
>  <reaction>  (17) 
rxn_1902

>  <mol_properties>  (17) 
{"1": {"label": "*3", "atom_type": "Cs"}, "2": {"label": "*4", "atom_type": "S2s"}, "6": {"label": "*2", "atom_type": "H0"}, "10": {"label": "*1", "atom_type": "CS"}, "11": {"label": "*0", "atom_type": "S2d"}}

>  <type>  (17) 
unop_13

>  <geom_source>  (17) 
AutoTST

$$$$
