
     RDKit          3D

  7  6  0  0  0  0  0  0  0  0999 V2000
    1.6964   -0.0938    0.0583 C   0  0  0  0  0  0  0  0  0  0  0  0
    0.5019   -0.0278    0.0173 C   0  0  0  0  0  0  0  0  0  0  0  0
   -0.9505    0.0525   -0.0327 C   0  0  0  0  0  0  0  0  0  0  0  0
    2.7574   -0.1524    0.0947 H   0  0  0  0  0  0  0  0  0  0  0  0
   -1.2692    0.9972   -0.4754 H   0  0  0  0  0  0  0  0  0  0  0  0
   -1.3749   -0.0147    0.9700 H   0  0  0  0  0  0  0  0  0  0  0  0
   -1.3610   -0.7611   -0.6323 H   0  0  0  0  0  0  0  0  0  0  0  0
  1  2  3  0
  1  4  1  0
  2  3  1  0
  3  5  1  0
  3  6  1  0
  3  7  1  0
M  END
>  <reaction>  (1) 
rxn_1223

>  <mol_properties>  (1) 
{"2": {"label": "donator", "atom_type": "Cs"}, "4": {"label": "d_hydrogen", "atom_type": "H0"}}

>  <type>  (1) 
r1h

$$$$

     RDKit          3D

  9  8  0  0  0  0  0  0  0  0999 V2000
    2.3038   -0.0269    0.1590 C   0  0  0  0  0  0  0  0  0  0  0  0
    1.1426    0.1377   -0.1648 C   0  0  0  0  0  0  0  0  0  0  0  0
   -0.1694    0.3175   -0.5203 C   0  0  0  0  0  3  0  0  0  0  0  0
   -1.3163   -0.1910    0.2856 C   0  0  0  0  0  0  0  0  0  0  0  0
    3.3199   -0.1683    0.4378 H   0  0  0  0  0  0  0  0  0  0  0  0
   -0.3786    0.8584   -1.4360 H   0  0  0  0  0  0  0  0  0  0  0  0
   -1.9694    0.6309    0.5951 H   0  0  0  0  0  0  0  0  0  0  0  0
   -1.9325   -0.8770   -0.3039 H   0  0  0  0  0  0  0  0  0  0  0  0
   -0.9753   -0.7144    1.1774 H   0  0  0  0  0  0  0  0  0  0  0  0
  1  2  3  0
  1  5  1  0
  2  3  1  0
  3  4  1  0
  3  6  1  0
  4  7  1  0
  4  8  1  0
  4  9  1  0
M  RAD  1   3   2
M  END
>  <reaction>  (2) 
rxn_1223

>  <mol_properties>  (2) 
{"2": {"label": "acceptor", "atom_type": "Cs"}}

>  <type>  (2) 
r2

$$$$

     RDKit          3D

 10  9  0  0  0  0  0  0  0  0999 V2000
    2.2738    0.0217   -0.0992 C   0  0  0  0  0  0  0  0  0  0  0  0
    1.1083    0.2960   -0.0695 C   0  0  0  0  0  0  0  0  0  0  0  0
   -0.3173    0.6046   -0.0227 C   0  0  0  0  0  0  0  0  0  0  0  0
   -1.1561   -0.5495    0.5292 C   0  0  0  0  0  0  0  0  0  0  0  0
    3.3097   -0.2166   -0.1277 H   0  0  0  0  0  0  0  0  0  0  0  0
   -0.6542    0.8617   -1.0302 H   0  0  0  0  0  0  0  0  0  0  0  0
   -0.4633    1.4978    0.5900 H   0  0  0  0  0  0  0  0  0  0  0  0
   -0.8485   -0.7997    1.5447 H   0  0  0  0  0  0  0  0  0  0  0  0
   -2.2115   -0.2752    0.5459 H   0  0  0  0  0  0  0  0  0  0  0  0
   -1.0409   -1.4407   -0.0879 H   0  0  0  0  0  0  0  0  0  0  0  0
  1  2  3  0
  1  5  1  0
  2  3  1  0
  3  4  1  0
  3  6  1  0
  3  7  1  0
  4  8  1  0
  4  9  1  0
  4 10  1  0
M  END
>  <reaction>  (3) 
rxn_1223

>  <mol_properties>  (3) 
{"0": {"label": "a_hydrogen", "atom_type": "H0"}, "3": {"label": "acceptor", "atom_type": "Cs"}}

>  <type>  (3) 
r2h

$$$$

     RDKit          3D

 16 14  0  0  0  0  0  0  0  0999 V2000
   -1.5369   -2.8879   -0.3401 C   0  0  0  0  0  0  0  0  0  0  0  0
   -0.5437   -2.2135   -0.4294 C   0  0  0  0  0  0  0  0  0  0  0  0
    0.5952   -1.3721   -0.4832 C   0  0  0  0  0  3  0  0  0  0  0  0
   -2.4040   -3.5002   -0.2786 H   0  0  0  0  0  0  0  0  0  0  0  0
    0.3741   -0.3297    0.3721 H   0  0  0  0  0  0  0  0  0  0  0  0
    0.7451   -0.8457   -1.4224 H   0  0  0  0  0  0  0  0  0  0  0  0
    1.5105   -1.7963   -0.0789 H   0  0  0  0  0  0  0  0  0  0  0  0
    1.9628    2.4559    0.7370 C   0  0  0  0  0  0  0  0  0  0  0  0
    1.0897    1.6599    0.9607 C   0  0  0  0  0  0  0  0  0  0  0  0
    0.0684    0.6854    1.1655 C   0  0  0  0  0  0  0  0  0  0  0  0
   -1.3376    1.0553    0.7493 C   0  0  0  0  0  0  0  0  0  0  0  0
    2.7307    3.1687    0.5557 H   0  0  0  0  0  0  0  0  0  0  0  0
    0.1296    0.2029    2.1405 H   0  0  0  0  0  0  0  0  0  0  0  0
   -1.9829    0.1768    0.7853 H   0  0  0  0  0  0  0  0  0  0  0  0
   -1.7538    1.8168    1.4131 H   0  0  0  0  0  0  0  0  0  0  0  0
   -1.3485    1.4517   -0.2664 H   0  0  0  0  0  0  0  0  0  0  0  0
  1  2  3  0
  1  4  1  0
  2  3  1  0
  3  6  1  0
  3  7  1  0
  5 10  1  0
  8  9  3  0
  8 12  1  0
  9 10  1  0
 10 11  1  0
 10 13  1  0
 11 14  1  0
 11 15  1  0
 11 16  1  0
M  RAD  1   3   2
M  END
>  <reaction>  (4) 
rxn_1223

>  <mol_properties>  (4) 
{"1": {"label": "*4", "atom_type": "Ct"}, "2": {"label": "*3", "atom_type": "Cs"}, "4": {"label": "*2", "atom_type": "H0"}, "8": {"label": "*0", "atom_type": "Ct"}, "9": {"label": "*1", "atom_type": "Cs"}}

>  <type>  (4) 
ts

$$$$

     RDKit          3D

 16 14  0  0  0  0  0  0  0  0999 V2000
    0.1433   -1.3919   -3.0713 C   0  0  0  0  0  0  0  0  0  0  0  0
    0.1433   -1.3919   -1.8743 C   0  0  0  0  0  0  0  0  0  0  0  0
    0.1433   -1.3919   -0.4189 C   0  0  0  0  0  0  0  0  0  0  0  0
    0.1433   -1.3919   -4.1346 H   0  0  0  0  0  0  0  0  0  0  0  0
    0.2548   -0.1723    0.0436 H   0  0  0  0  0  0  0  0  0  0  0  0
    0.9770   -1.9805   -0.0335 H   0  0  0  0  0  0  0  0  0  0  0  0
   -0.7833   -1.8196   -0.0335 H   0  0  0  0  0  0  0  0  0  0  0  0
   -1.7614    1.5900    2.0035 C   0  0  0  0  0  0  0  0  0  0  0  0
   -0.8078    1.3522    1.3190 C   0  0  0  0  0  0  0  0  0  0  0  0
    0.3665    1.0495    0.5069 C   0  0  0  0  0  3  0  0  0  0  0  0
    1.4447    0.2910    1.2829 C   0  0  0  0  0  0  0  0  0  0  0  0
   -2.6080    1.8012    2.6112 H   0  0  0  0  0  0  0  0  0  0  0  0
    0.7756    1.9857    0.1187 H   0  0  0  0  0  0  0  0  0  0  0  0
    2.3007    0.0868    0.6387 H   0  0  0  0  0  0  0  0  0  0  0  0
    1.7875    0.8737    2.1380 H   0  0  0  0  0  0  0  0  0  0  0  0
    1.0580   -0.6583    1.6541 H   0  0  0  0  0  0  0  0  0  0  0  0
  1  2  3  0
  1  4  1  0
  2  3  1  0
  3  5  1  0
  3  6  1  0
  3  7  1  0
  8  9  3  0
  8 12  1  0
  9 10  1  0
 10 11  1  0
 10 13  1  0
 11 14  1  0
 11 15  1  0
 11 16  1  0
M  RAD  1  10   2
M  END
>  <reaction>  (5) 
rxn_1223

>  <mol_properties>  (5) 
{"1": {"label": "*4", "atom_type": "Ct"}, "2": {"label": "*3", "atom_type": "Cs"}, "4": {"label": "*2", "atom_type": "H0"}, "8": {"label": "*0", "atom_type": "Ct"}, "9": {"label": "*1", "atom_type": "Cs"}}

>  <type>  (5) 
unop_1

>  <geom_source>  (5) 
Heuristics

$$$$

     RDKit          3D

 16 14  0  0  0  0  0  0  0  0999 V2000
    0.2518   -1.7171   -2.4643 C   0  0  0  0  0  0  0  0  0  0  0  0
    0.2518   -1.7171   -1.2672 C   0  0  0  0  0  0  0  0  0  0  0  0
    0.2518   -1.7171    0.1882 C   0  0  0  0  0  0  0  0  0  0  0  0
    0.2518   -1.7171   -3.5275 H   0  0  0  0  0  0  0  0  0  0  0  0
    0.3633   -0.4975    0.6506 H   0  0  0  0  0  0  0  0  0  0  0  0
    1.0855   -2.3057    0.5736 H   0  0  0  0  0  0  0  0  0  0  0  0
   -0.6748   -2.1448    0.5736 H   0  0  0  0  0  0  0  0  0  0  0  0
   -0.6536    2.4027   -0.6092 C   0  0  0  0  0  0  0  0  0  0  0  0
   -0.1348    1.6451    0.1598 C   0  0  0  0  0  0  0  0  0  0  0  0
    0.4750    0.7243    1.1139 C   0  0  0  0  0  3  0  0  0  0  0  0
   -0.4000    0.4804    2.3448 C   0  0  0  0  0  0  0  0  0  0  0  0
   -1.1141    3.0753   -1.2919 H   0  0  0  0  0  0  0  0  0  0  0  0
    1.4443    1.1263    1.4194 H   0  0  0  0  0  0  0  0  0  0  0  0
    0.0937   -0.2114    3.0282 H   0  0  0  0  0  0  0  0  0  0  0  0
   -0.5892    1.4137    2.8756 H   0  0  0  0  0  0  0  0  0  0  0  0
   -1.3614    0.0544    2.0573 H   0  0  0  0  0  0  0  0  0  0  0  0
  1  2  3  0
  1  4  1  0
  2  3  1  0
  3  5  1  0
  3  6  1  0
  3  7  1  0
  8  9  3  0
  8 12  1  0
  9 10  1  0
 10 11  1  0
 10 13  1  0
 11 14  1  0
 11 15  1  0
 11 16  1  0
M  RAD  1  10   2
M  END
>  <reaction>  (6) 
rxn_1223

>  <mol_properties>  (6) 
{"1": {"label": "*4", "atom_type": "Ct"}, "2": {"label": "*3", "atom_type": "Cs"}, "4": {"label": "*2", "atom_type": "H0"}, "8": {"label": "*0", "atom_type": "Ct"}, "9": {"label": "*1", "atom_type": "Cs"}}

>  <type>  (6) 
unop_2

>  <geom_source>  (6) 
Heuristics

$$$$

     RDKit          3D

 16 14  0  0  0  0  0  0  0  0999 V2000
   -0.1139   -1.3871   -3.1465 C   0  0  0  0  0  0  0  0  0  0  0  0
   -0.1139   -1.3871   -1.9495 C   0  0  0  0  0  0  0  0  0  0  0  0
   -0.1139   -1.3871   -0.4941 C   0  0  0  0  0  0  0  0  0  0  0  0
   -0.1139   -1.3871   -4.2098 H   0  0  0  0  0  0  0  0  0  0  0  0
   -0.0025   -0.1675   -0.0317 H   0  0  0  0  0  0  0  0  0  0  0  0
    0.7198   -1.9757   -0.1087 H   0  0  0  0  0  0  0  0  0  0  0  0
   -1.0405   -1.8148   -0.1087 H   0  0  0  0  0  0  0  0  0  0  0  0
   -1.1210    1.1935    2.7826 C   0  0  0  0  0  0  0  0  0  0  0  0
   -0.5775    1.1330    1.7170 C   0  0  0  0  0  0  0  0  0  0  0  0
    0.1092    1.0543    0.4316 C   0  0  0  0  0  3  0  0  0  0  0  0
    1.6070    0.7786    0.5754 C   0  0  0  0  0  0  0  0  0  0  0  0
   -1.6035    1.2472    3.7286 H   0  0  0  0  0  0  0  0  0  0  0  0
   -0.0471    1.9919   -0.1079 H   0  0  0  0  0  0  0  0  0  0  0  0
    2.0779    0.7283   -0.4070 H   0  0  0  0  0  0  0  0  0  0  0  0
    2.0918    1.5677    1.1504 H   0  0  0  0  0  0  0  0  0  0  0  0
    1.7783   -0.1676    1.0891 H   0  0  0  0  0  0  0  0  0  0  0  0
  1  2  3  0
  1  4  1  0
  2  3  1  0
  3  5  1  0
  3  6  1  0
  3  7  1  0
  8  9  3  0
  8 12  1  0
  9 10  1  0
 10 11  1  0
 10 13  1  0
 11 14  1  0
 11 15  1  0
 11 16  1  0
M  RAD  1  10   2
M  END
>  <reaction>  (7) 
rxn_1223

>  <mol_properties>  (7) 
{"1": {"label": "*4", "atom_type": "Ct"}, "2": {"label": "*3", "atom_type": "Cs"}, "4": {"label": "*2", "atom_type": "H0"}, "8": {"label": "*0", "atom_type": "Ct"}, "9": {"label": "*1", "atom_type": "Cs"}}

>  <type>  (7) 
unop_3

>  <geom_source>  (7) 
Heuristics

$$$$

     RDKit          3D

 16 14  0  0  0  0  0  0  0  0999 V2000
   -0.4398   -1.7939   -2.4974 C   0  0  0  0  0  0  0  0  0  0  0  0
   -0.4398   -1.7939   -1.3004 C   0  0  0  0  0  0  0  0  0  0  0  0
   -0.4398   -1.7939    0.1550 C   0  0  0  0  0  0  0  0  0  0  0  0
   -0.4398   -1.7939   -3.5607 H   0  0  0  0  0  0  0  0  0  0  0  0
   -0.3283   -0.5744    0.6175 H   0  0  0  0  0  0  0  0  0  0  0  0
    0.3939   -2.3825    0.5404 H   0  0  0  0  0  0  0  0  0  0  0  0
   -1.3664   -2.2216    0.5404 H   0  0  0  0  0  0  0  0  0  0  0  0
    2.0574    1.7082    0.2072 C   0  0  0  0  0  0  0  0  0  0  0  0
    1.0374    1.2185    0.5999 C   0  0  0  0  0  0  0  0  0  0  0  0
   -0.2167    0.6475    1.0808 C   0  0  0  0  0  3  0  0  0  0  0  0
   -1.2729    1.7105    1.3880 C   0  0  0  0  0  0  0  0  0  0  0  0
    2.9630    2.1430   -0.1414 H   0  0  0  0  0  0  0  0  0  0  0  0
   -0.0123    0.0554    1.9764 H   0  0  0  0  0  0  0  0  0  0  0  0
   -2.1904    1.2399    1.7431 H   0  0  0  0  0  0  0  0  0  0  0  0
   -0.9178    2.3976    2.1563 H   0  0  0  0  0  0  0  0  0  0  0  0
   -1.5065    2.2924    0.4962 H   0  0  0  0  0  0  0  0  0  0  0  0
  1  2  3  0
  1  4  1  0
  2  3  1  0
  3  5  1  0
  3  6  1  0
  3  7  1  0
  8  9  3  0
  8 12  1  0
  9 10  1  0
 10 11  1  0
 10 13  1  0
 11 14  1  0
 11 15  1  0
 11 16  1  0
M  RAD  1  10   2
M  END
>  <reaction>  (8) 
rxn_1223

>  <mol_properties>  (8) 
{"1": {"label": "*4", "atom_type": "Ct"}, "2": {"label": "*3", "atom_type": "Cs"}, "4": {"label": "*2", "atom_type": "H0"}, "8": {"label": "*0", "atom_type": "Ct"}, "9": {"label": "*1", "atom_type": "Cs"}}

>  <type>  (8) 
unop_4

>  <geom_source>  (8) 
Heuristics

$$$$

     RDKit          3D

 16 14  0  0  0  0  0  0  0  0999 V2000
   -0.3324   -1.4935   -3.0944 C   0  0  0  0  0  0  0  0  0  0  0  0
   -0.3324   -1.4935   -1.8974 C   0  0  0  0  0  0  0  0  0  0  0  0
   -0.3324   -1.4935   -0.4420 C   0  0  0  0  0  0  0  0  0  0  0  0
   -0.3324   -1.4935   -4.1577 H   0  0  0  0  0  0  0  0  0  0  0  0
   -0.2209   -0.2740    0.0205 H   0  0  0  0  0  0  0  0  0  0  0  0
    0.5013   -2.0821   -0.0566 H   0  0  0  0  0  0  0  0  0  0  0  0
   -1.2590   -1.9212   -0.0566 H   0  0  0  0  0  0  0  0  0  0  0  0
   -0.0968    0.8685    3.1396 C   0  0  0  0  0  0  0  0  0  0  0  0
   -0.1138    0.8985    1.9423 C   0  0  0  0  0  0  0  0  0  0  0  0
   -0.1093    0.9479    0.4838 C   0  0  0  0  0  3  0  0  0  0  0  0
    1.1489    1.6079   -0.0833 C   0  0  0  0  0  0  0  0  0  0  0  0
   -0.0818    0.8418    4.2024 H   0  0  0  0  0  0  0  0  0  0  0  0
   -0.9976    1.4889    0.1480 H   0  0  0  0  0  0  0  0  0  0  0  0
    1.1092    1.6228   -1.1731 H   0  0  0  0  0  0  0  0  0  0  0  0
    1.2410    2.6341    0.2727 H   0  0  0  0  0  0  0  0  0  0  0  0
    2.0423    1.0629    0.2220 H   0  0  0  0  0  0  0  0  0  0  0  0
  1  2  3  0
  1  4  1  0
  2  3  1  0
  3  5  1  0
  3  6  1  0
  3  7  1  0
  8  9  3  0
  8 12  1  0
  9 10  1  0
 10 11  1  0
 10 13  1  0
 11 14  1  0
 11 15  1  0
 11 16  1  0
M  RAD  1  10   2
M  END
>  <reaction>  (9) 
rxn_1223

>  <mol_properties>  (9) 
{"1": {"label": "*4", "atom_type": "Ct"}, "2": {"label": "*3", "atom_type": "Cs"}, "4": {"label": "*2", "atom_type": "H0"}, "8": {"label": "*0", "atom_type": "Ct"}, "9": {"label": "*1", "atom_type": "Cs"}}

>  <type>  (9) 
unop_5

>  <geom_source>  (9) 
Heuristics

$$$$

     RDKit          3D

 16 14  0  0  0  0  0  0  0  0999 V2000
   -0.5281   -1.7236   -2.6889 C   0  0  0  0  0  0  0  0  0  0  0  0
   -0.5281   -1.7236   -1.4919 C   0  0  0  0  0  0  0  0  0  0  0  0
   -0.5281   -1.7236   -0.0365 C   0  0  0  0  0  0  0  0  0  0  0  0
   -0.5281   -1.7236   -3.7522 H   0  0  0  0  0  0  0  0  0  0  0  0
   -0.4166   -0.5040    0.4260 H   0  0  0  0  0  0  0  0  0  0  0  0
    0.3056   -2.3122    0.3489 H   0  0  0  0  0  0  0  0  0  0  0  0
   -1.4547   -2.1513    0.3489 H   0  0  0  0  0  0  0  0  0  0  0  0
    2.2683    1.3066    1.1911 C   0  0  0  0  0  0  0  0  0  0  0  0
    1.1113    1.0288    1.0549 C   0  0  0  0  0  0  0  0  0  0  0  0
   -0.3050    0.7178    0.8893 C   0  0  0  0  0  3  0  0  0  0  0  0
   -1.1849    1.9682    0.8402 C   0  0  0  0  0  0  0  0  0  0  0  0
    3.2956    1.5533    1.3120 H   0  0  0  0  0  0  0  0  0  0  0  0
   -0.6211    0.0716    1.7121 H   0  0  0  0  0  0  0  0  0  0  0  0
   -2.2318    1.6888    0.7159 H   0  0  0  0  0  0  0  0  0  0  0  0
   -1.0885    2.5449    1.7602 H   0  0  0  0  0  0  0  0  0  0  0  0
   -0.8979    2.6103    0.0073 H   0  0  0  0  0  0  0  0  0  0  0  0
  1  2  3  0
  1  4  1  0
  2  3  1  0
  3  5  1  0
  3  6  1  0
  3  7  1  0
  8  9  3  0
  8 12  1  0
  9 10  1  0
 10 11  1  0
 10 13  1  0
 11 14  1  0
 11 15  1  0
 11 16  1  0
M  RAD  1  10   2
M  END
>  <reaction>  (10) 
rxn_1223

>  <mol_properties>  (10) 
{"1": {"label": "*4", "atom_type": "Ct"}, "2": {"label": "*3", "atom_type": "Cs"}, "4": {"label": "*2", "atom_type": "H0"}, "8": {"label": "*0", "atom_type": "Ct"}, "9": {"label": "*1", "atom_type": "Cs"}}

>  <type>  (10) 
unop_6

>  <geom_source>  (10) 
Heuristics

$$$$

     RDKit          3D

 16 14  0  0  0  0  0  0  0  0999 V2000
   -0.5067   -1.6569   -2.8695 C   0  0  0  0  0  0  0  0  0  0  0  0
   -0.5067   -1.6569   -1.6725 C   0  0  0  0  0  0  0  0  0  0  0  0
   -0.5067   -1.6569   -0.2171 C   0  0  0  0  0  0  0  0  0  0  0  0
   -0.5067   -1.6569   -3.9328 H   0  0  0  0  0  0  0  0  0  0  0  0
   -0.3953   -0.4373    0.2454 H   0  0  0  0  0  0  0  0  0  0  0  0
    0.3270   -2.2455    0.1683 H   0  0  0  0  0  0  0  0  0  0  0  0
   -1.4333   -2.0846    0.1683 H   0  0  0  0  0  0  0  0  0  0  0  0
    1.9184    0.9619    2.1850 C   0  0  0  0  0  0  0  0  0  0  0  0
    0.9260    0.8693    1.5208 C   0  0  0  0  0  0  0  0  0  0  0  0
   -0.2836    0.7845    0.7087 C   0  0  0  0  0  3  0  0  0  0  0  0
   -0.7876    2.1544    0.2508 C   0  0  0  0  0  0  0  0  0  0  0  0
    2.7993    1.0441    2.7747 H   0  0  0  0  0  0  0  0  0  0  0  0
   -1.0595    0.2759    1.2864 H   0  0  0  0  0  0  0  0  0  0  0  0
   -1.6903    2.0429   -0.3511 H   0  0  0  0  0  0  0  0  0  0  0  0
   -1.0202    2.7868    1.1077 H   0  0  0  0  0  0  0  0  0  0  0  0
   -0.0331    2.6629   -0.3496 H   0  0  0  0  0  0  0  0  0  0  0  0
  1  2  3  0
  1  4  1  0
  2  3  1  0
  3  5  1  0
  3  6  1  0
  3  7  1  0
  8  9  3  0
  8 12  1  0
  9 10  1  0
 10 11  1  0
 10 13  1  0
 11 14  1  0
 11 15  1  0
 11 16  1  0
M  RAD  1  10   2
M  END
>  <reaction>  (11) 
rxn_1223

>  <mol_properties>  (11) 
{"1": {"label": "*4", "atom_type": "Ct"}, "2": {"label": "*3", "atom_type": "Cs"}, "4": {"label": "*2", "atom_type": "H0"}, "8": {"label": "*0", "atom_type": "Ct"}, "9": {"label": "*1", "atom_type": "Cs"}}

>  <type>  (11) 
unop_7

>  <geom_source>  (11) 
Heuristics

$$$$

     RDKit          3D

 16 14  0  0  0  0  0  0  0  0999 V2000
    0.3147   -1.4751   -2.8914 C   0  0  0  0  0  0  0  0  0  0  0  0
    0.3147   -1.4751   -1.6943 C   0  0  0  0  0  0  0  0  0  0  0  0
    0.3147   -1.4751   -0.2389 C   0  0  0  0  0  0  0  0  0  0  0  0
    0.3147   -1.4751   -3.9546 H   0  0  0  0  0  0  0  0  0  0  0  0
    0.4261   -0.2556    0.2235 H   0  0  0  0  0  0  0  0  0  0  0  0
    1.1484   -2.0637    0.1465 H   0  0  0  0  0  0  0  0  0  0  0  0
   -0.6119   -1.9028    0.1465 H   0  0  0  0  0  0  0  0  0  0  0  0
   -1.8970    1.9801    1.0090 C   0  0  0  0  0  0  0  0  0  0  0  0
   -0.7986    1.5289    0.8524 C   0  0  0  0  0  0  0  0  0  0  0  0
    0.5378    0.9663    0.6868 C   0  0  0  0  0  3  0  0  0  0  0  0
    0.9708    0.1064    1.8757 C   0  0  0  0  0  0  0  0  0  0  0  0
   -2.8721    2.3807    1.1479 H   0  0  0  0  0  0  0  0  0  0  0  0
    1.2475    1.7844    0.5405 H   0  0  0  0  0  0  0  0  0  0  0  0
    1.9722   -0.2919    1.7090 H   0  0  0  0  0  0  0  0  0  0  0  0
    0.9815    0.6939    2.7939 H   0  0  0  0  0  0  0  0  0  0  0  0
    0.2860   -0.7298    2.0176 H   0  0  0  0  0  0  0  0  0  0  0  0
  1  2  3  0
  1  4  1  0
  2  3  1  0
  3  5  1  0
  3  6  1  0
  3  7  1  0
  8  9  3  0
  8 12  1  0
  9 10  1  0
 10 11  1  0
 10 13  1  0
 11 14  1  0
 11 15  1  0
 11 16  1  0
M  RAD  1  10   2
M  END
>  <reaction>  (12) 
rxn_1223

>  <mol_properties>  (12) 
{"1": {"label": "*4", "atom_type": "Ct"}, "2": {"label": "*3", "atom_type": "Cs"}, "4": {"label": "*2", "atom_type": "H0"}, "8": {"label": "*0", "atom_type": "Ct"}, "9": {"label": "*1", "atom_type": "Cs"}}

>  <type>  (12) 
unop_8

>  <geom_source>  (12) 
Heuristics

$$$$

     RDKit          3D

 16 14  0  0  0  0  0  0  0  0999 V2000
   -0.2345   -1.8348   -2.3634 C   0  0  0  0  0  0  0  0  0  0  0  0
   -0.2345   -1.8348   -1.1664 C   0  0  0  0  0  0  0  0  0  0  0  0
   -0.2345   -1.8348    0.2890 C   0  0  0  0  0  0  0  0  0  0  0  0
   -0.2345   -1.8348   -3.4267 H   0  0  0  0  0  0  0  0  0  0  0  0
   -0.1230   -0.6152    0.7515 H   0  0  0  0  0  0  0  0  0  0  0  0
    0.5992   -2.4234    0.6744 H   0  0  0  0  0  0  0  0  0  0  0  0
   -1.1611   -2.2625    0.6744 H   0  0  0  0  0  0  0  0  0  0  0  0
    1.3701    2.0719   -0.5185 C   0  0  0  0  0  0  0  0  0  0  0  0
    0.7552    1.4016    0.2607 C   0  0  0  0  0  0  0  0  0  0  0  0
   -0.0113    0.6066    1.2148 C   0  0  0  0  0  3  0  0  0  0  0  0
   -1.1790    1.3810    1.8289 C   0  0  0  0  0  0  0  0  0  0  0  0
    1.9160    2.6670   -1.2102 H   0  0  0  0  0  0  0  0  0  0  0  0
    0.6614    0.2595    2.0030 H   0  0  0  0  0  0  0  0  0  0  0  0
   -1.7219    0.7499    2.5335 H   0  0  0  0  0  0  0  0  0  0  0  0
   -0.8209    2.2628    2.3606 H   0  0  0  0  0  0  0  0  0  0  0  0
   -1.8729    1.7113    1.0558 H   0  0  0  0  0  0  0  0  0  0  0  0
  1  2  3  0
  1  4  1  0
  2  3  1  0
  3  5  1  0
  3  6  1  0
  3  7  1  0
  8  9  3  0
  8 12  1  0
  9 10  1  0
 10 11  1  0
 10 13  1  0
 11 14  1  0
 11 15  1  0
 11 16  1  0
M  RAD  1  10   2
M  END
>  <reaction>  (13) 
rxn_1223

>  <mol_properties>  (13) 
{"1": {"label": "*4", "atom_type": "Ct"}, "2": {"label": "*3", "atom_type": "Cs"}, "4": {"label": "*2", "atom_type": "H0"}, "8": {"label": "*0", "atom_type": "Ct"}, "9": {"label": "*1", "atom_type": "Cs"}}

>  <type>  (13) 
unop_9

>  <geom_source>  (13) 
Heuristics

$$$$

     RDKit          3D

 16 14  0  0  0  0  0  0  0  0999 V2000
    0.3541   -1.5938   -2.6670 C   0  0  0  0  0  0  0  0  0  0  0  0
    0.3541   -1.5938   -1.4700 C   0  0  0  0  0  0  0  0  0  0  0  0
    0.3541   -1.5938   -0.0145 C   0  0  0  0  0  0  0  0  0  0  0  0
    0.3541   -1.5938   -3.7303 H   0  0  0  0  0  0  0  0  0  0  0  0
    0.4656   -0.3743    0.4479 H   0  0  0  0  0  0  0  0  0  0  0  0
    1.1878   -2.1824    0.3708 H   0  0  0  0  0  0  0  0  0  0  0  0
   -0.5725   -2.0215    0.3708 H   0  0  0  0  0  0  0  0  0  0  0  0
   -1.4917    2.2778    0.0546 C   0  0  0  0  0  0  0  0  0  0  0  0
   -0.5526    1.6364    0.4303 C   0  0  0  0  0  0  0  0  0  0  0  0
    0.5772    0.8476    0.9112 C   0  0  0  0  0  3  0  0  0  0  0  0
    0.2996    0.1722    2.2554 C   0  0  0  0  0  0  0  0  0  0  0  0
   -2.3254    2.8473   -0.2789 H   0  0  0  0  0  0  0  0  0  0  0  0
    1.4504    1.4996    0.9949 H   0  0  0  0  0  0  0  0  0  0  0  0
    1.1683   -0.4045    2.5750 H   0  0  0  0  0  0  0  0  0  0  0  0
    0.0770    0.9145    3.0222 H   0  0  0  0  0  0  0  0  0  0  0  0
   -0.5537   -0.5021    2.1802 H   0  0  0  0  0  0  0  0  0  0  0  0
  1  2  3  0
  1  4  1  0
  2  3  1  0
  3  5  1  0
  3  6  1  0
  3  7  1  0
  8  9  3  0
  8 12  1  0
  9 10  1  0
 10 11  1  0
 10 13  1  0
 11 14  1  0
 11 15  1  0
 11 16  1  0
M  RAD  1  10   2
M  END
>  <reaction>  (14) 
rxn_1223

>  <mol_properties>  (14) 
{"1": {"label": "*4", "atom_type": "Ct"}, "2": {"label": "*3", "atom_type": "Cs"}, "4": {"label": "*2", "atom_type": "H0"}, "8": {"label": "*0", "atom_type": "Ct"}, "9": {"label": "*1", "atom_type": "Cs"}}

>  <type>  (14) 
unop_10

>  <geom_source>  (14) 
Heuristics

$$$$

     RDKit          3D

 16 14  0  0  0  0  0  0  0  0999 V2000
   -0.4310   -1.5971   -2.9979 C   0  0  0  0  0  0  0  0  0  0  0  0
   -0.4310   -1.5971   -1.8009 C   0  0  0  0  0  0  0  0  0  0  0  0
   -0.4310   -1.5971   -0.3454 C   0  0  0  0  0  0  0  0  0  0  0  0
   -0.4310   -1.5971   -4.0612 H   0  0  0  0  0  0  0  0  0  0  0  0
   -0.3195   -0.3775    0.1170 H   0  0  0  0  0  0  0  0  0  0  0  0
    0.4027   -2.1857    0.0399 H   0  0  0  0  0  0  0  0  0  0  0  0
   -1.3576   -2.0248    0.0399 H   0  0  0  0  0  0  0  0  0  0  0  0
    1.0565    0.7795    2.9163 C   0  0  0  0  0  0  0  0  0  0  0  0
    0.4817    0.7971    1.8656 C   0  0  0  0  0  0  0  0  0  0  0  0
   -0.2079    0.8443    0.5803 C   0  0  0  0  0  3  0  0  0  0  0  0
    0.0523    2.1432   -0.1849 C   0  0  0  0  0  0  0  0  0  0  0  0
    1.5667    0.7638    3.8491 H   0  0  0  0  0  0  0  0  0  0  0  0
   -1.2801    0.7214    0.7524 H   0  0  0  0  0  0  0  0  0  0  0  0
   -0.4811    2.1345   -1.1362 H   0  0  0  0  0  0  0  0  0  0  0  0
   -0.2840    3.0052    0.3914 H   0  0  0  0  0  0  0  0  0  0  0  0
    1.1164    2.2662   -0.3871 H   0  0  0  0  0  0  0  0  0  0  0  0
  1  2  3  0
  1  4  1  0
  2  3  1  0
  3  5  1  0
  3  6  1  0
  3  7  1  0
  8  9  3  0
  8 12  1  0
  9 10  1  0
 10 11  1  0
 10 13  1  0
 11 14  1  0
 11 15  1  0
 11 16  1  0
M  RAD  1  10   2
M  END
>  <reaction>  (15) 
rxn_1223

>  <mol_properties>  (15) 
{"1": {"label": "*4", "atom_type": "Ct"}, "2": {"label": "*3", "atom_type": "Cs"}, "4": {"label": "*2", "atom_type": "H0"}, "8": {"label": "*0", "atom_type": "Ct"}, "9": {"label": "*1", "atom_type": "Cs"}}

>  <type>  (15) 
unop_11

>  <geom_source>  (15) 
Heuristics

$$$$

     RDKit          3D

 16 14  0  0  0  0  0  0  0  0999 V2000
    0.0305   -1.8096   -2.3482 C   0  0  0  0  0  0  0  0  0  0  0  0
    0.0305   -1.8096   -1.1512 C   0  0  0  0  0  0  0  0  0  0  0  0
    0.0305   -1.8096    0.3042 C   0  0  0  0  0  0  0  0  0  0  0  0
    0.0305   -1.8096   -3.4115 H   0  0  0  0  0  0  0  0  0  0  0  0
    0.1420   -0.5901    0.7666 H   0  0  0  0  0  0  0  0  0  0  0  0
    0.8642   -2.3982    0.6896 H   0  0  0  0  0  0  0  0  0  0  0  0
   -0.8961   -2.2373    0.6896 H   0  0  0  0  0  0  0  0  0  0  0  0
    0.3886    2.3234   -0.8146 C   0  0  0  0  0  0  0  0  0  0  0  0
    0.3380    1.5548    0.1026 C   0  0  0  0  0  0  0  0  0  0  0  0
    0.2536    0.6318    1.2299 C   0  0  0  0  0  3  0  0  0  0  0  0
   -0.9157    0.9439    2.1656 C   0  0  0  0  0  0  0  0  0  0  0  0
    0.4335    3.0058   -1.6288 H   0  0  0  0  0  0  0  0  0  0  0  0
    1.1947    0.6680    1.7845 H   0  0  0  0  0  0  0  0  0  0  0  0
   -0.9397    0.2312    2.9909 H   0  0  0  0  0  0  0  0  0  0  0  0
   -0.8222    1.9480    2.5794 H   0  0  0  0  0  0  0  0  0  0  0  0
   -1.8642    0.8855    1.6315 H   0  0  0  0  0  0  0  0  0  0  0  0
  1  2  3  0
  1  4  1  0
  2  3  1  0
  3  5  1  0
  3  6  1  0
  3  7  1  0
  8  9  3  0
  8 12  1  0
  9 10  1  0
 10 11  1  0
 10 13  1  0
 11 14  1  0
 11 15  1  0
 11 16  1  0
M  RAD  1  10   2
M  END
>  <reaction>  (16) 
rxn_1223

>  <mol_properties>  (16) 
{"1": {"label": "*4", "atom_type": "Ct"}, "2": {"label": "*3", "atom_type": "Cs"}, "4": {"label": "*2", "atom_type": "H0"}, "8": {"label": "*0", "atom_type": "Ct"}, "9": {"label": "*1", "atom_type": "Cs"}}

>  <type>  (16) 
unop_12

>  <geom_source>  (16) 
Heuristics

$$$$

     RDKit          3D

 16 14  0  0  0  0  0  0  0  0999 V2000
   -1.0504    0.0707   -0.4033 C   0  0  0  0  0  3  0  0  0  0  0  0
   -2.2221   -0.5663    0.3310 C   0  0  0  0  0  0  0  0  0  0  0  0
    1.2848   -1.1286   -0.4845 C   0  0  0  0  0  0  0  0  0  0  0  0
   -0.8852    1.4702    0.0045 C   0  0  0  0  0  0  0  0  0  0  0  0
    2.5033   -0.5816    0.1126 C   0  0  0  0  0  0  0  0  0  0  0  0
   -0.7484    2.6202    0.3391 C   0  0  0  0  0  0  0  0  0  0  0  0
    3.5071   -0.1309    0.6048 C   0  0  0  0  0  0  0  0  0  0  0  0
   -1.2284    0.0291   -1.4985 H   0  0  0  0  0  0  0  0  0  0  0  0
    0.1151   -0.6309   -0.1078 H   0  0  0  0  0  0  0  0  0  0  0  0
   -2.0460   -0.5448    1.4277 H   0  0  0  0  0  0  0  0  0  0  0  0
   -2.3262   -1.6238    0.0098 H   0  0  0  0  0  0  0  0  0  0  0  0
   -3.1657   -0.0277    0.0974 H   0  0  0  0  0  0  0  0  0  0  0  0
    1.0935   -0.6308   -1.4574 H   0  0  0  0  0  0  0  0  0  0  0  0
    1.4086   -2.2194   -0.6453 H   0  0  0  0  0  0  0  0  0  0  0  0
   -0.6285    3.6298    0.6330 H   0  0  0  0  0  0  0  0  0  0  0  0
    4.3885    0.2648    1.0369 H   0  0  0  0  0  0  0  0  0  0  0  0
  1  2  1  0
  1  4  1  0
  1  8  1  0
  2 10  1  0
  2 11  1  0
  2 12  1  0
  3  5  1  0
  3  9  1  0
  3 13  1  0
  3 14  1  0
  4  6  3  0
  5  7  3  0
  6 15  1  0
  7 16  1  0
M  RAD  1   1   2
M  END
>  <reaction>  (17) 
rxn_1223

>  <mol_properties>  (17) 
{"1": {"label": "*4", "atom_type": "Ct"}, "2": {"label": "*3", "atom_type": "Cs"}, "4": {"label": "*2", "atom_type": "H0"}, "8": {"label": "*0", "atom_type": "Ct"}, "9": {"label": "*1", "atom_type": "Cs"}}

>  <type>  (17) 
unop_13

>  <geom_source>  (17) 
AutoTST

$$$$
