
     RDKit          3D

  9  8  0  0  0  0  0  0  0  0999 V2000
   -2.1022   -0.6873    0.3932 C   0  0  0  0  0  0  0  0  0  0  0  0
   -1.2072   -0.1086   -0.1482 C   0  0  0  0  0  0  0  0  0  0  0  0
   -0.1242    0.6105   -0.8193 C   0  0  0  0  0  0  0  0  0  0  0  0
    1.2067    0.1106   -0.4741 C   0  0  0  0  0  0  0  0  0  0  0  0
    2.3005   -0.2875   -0.2012 C   0  0  0  0  0  0  0  0  0  0  0  0
   -2.8942   -1.2059    0.8778 H   0  0  0  0  0  0  0  0  0  0  0  0
   -0.1862    1.6723   -0.5649 H   0  0  0  0  0  0  0  0  0  0  0  0
   -0.2641    0.5418   -1.9017 H   0  0  0  0  0  0  0  0  0  0  0  0
    3.2709   -0.6459    0.0455 H   0  0  0  0  0  0  0  0  0  0  0  0
  1  2  3  0
  1  6  1  0
  2  3  1  0
  3  4  1  0
  3  7  1  0
  3  8  1  0
  4  5  3  0
  5  9  1  0
M  END
>  <reaction>  (1) 
rxn_1348

>  <mol_properties>  (1) 
{"2": {"label": "donator", "atom_type": "Cs"}, "6": {"label": "d_hydrogen", "atom_type": "H0"}}

>  <type>  (1) 
r1h

$$$$

     RDKit          3D

 10  9  0  0  0  0  0  0  0  0999 V2000
    1.2930    0.1441    0.3288 C   0  0  0  0  0  0  0  0  0  0  0  0
   -0.0374   -0.1647    0.9100 C   0  0  0  0  0  3  0  0  0  0  0  0
   -1.2664    0.4569    0.3567 C   0  0  0  0  0  0  0  0  0  0  0  0
    1.4384    1.2242    0.2174 H   0  0  0  0  0  0  0  0  0  0  0  0
    2.1077   -0.2477    0.9385 H   0  0  0  0  0  0  0  0  0  0  0  0
    1.4057   -0.2836   -0.6789 H   0  0  0  0  0  0  0  0  0  0  0  0
   -0.1309   -0.9912    1.6030 H   0  0  0  0  0  0  0  0  0  0  0  0
   -1.5005    0.0716   -0.6471 H   0  0  0  0  0  0  0  0  0  0  0  0
   -2.1382    0.2713    0.9849 H   0  0  0  0  0  0  0  0  0  0  0  0
   -1.1497    1.5406    0.2456 H   0  0  0  0  0  0  0  0  0  0  0  0
  1  2  1  0
  1  4  1  0
  1  5  1  0
  1  6  1  0
  2  3  1  0
  2  7  1  0
  3  8  1  0
  3  9  1  0
  3 10  1  0
M  RAD  1   2   2
M  END
>  <reaction>  (2) 
rxn_1348

>  <mol_properties>  (2) 
{"1": {"label": "acceptor", "atom_type": "Cs"}}

>  <type>  (2) 
r2

$$$$

     RDKit          3D

 11 10  0  0  0  0  0  0  0  0999 V2000
   -1.2710    0.1907   -0.2084 C   0  0  0  0  0  0  0  0  0  0  0  0
    0.0202   -0.6130   -0.2928 C   0  0  0  0  0  0  0  0  0  0  0  0
    0.1086   -1.6953    0.7756 C   0  0  0  0  0  0  0  0  0  0  0  0
   -1.3607    0.6851    0.7620 H   0  0  0  0  0  0  0  0  0  0  0  0
   -2.1429   -0.4567   -0.3299 H   0  0  0  0  0  0  0  0  0  0  0  0
   -1.3158    0.9602   -0.9809 H   0  0  0  0  0  0  0  0  0  0  0  0
    0.8757    0.0616   -0.1992 H   0  0  0  0  0  0  0  0  0  0  0  0
    0.0997   -1.0712   -1.2825 H   0  0  0  0  0  0  0  0  0  0  0  0
   -0.7198   -2.4022    0.6850 H   0  0  0  0  0  0  0  0  0  0  0  0
    1.0395   -2.2596    0.6989 H   0  0  0  0  0  0  0  0  0  0  0  0
    0.0624   -1.2603    1.7770 H   0  0  0  0  0  0  0  0  0  0  0  0
  1  2  1  0
  1  4  1  0
  1  5  1  0
  1  6  1  0
  2  3  1  0
  2  7  1  0
  2  8  1  0
  3  9  1  0
  3 10  1  0
  3 11  1  0
M  END
>  <reaction>  (3) 
rxn_1348

>  <mol_properties>  (3) 
{"0": {"label": "a_hydrogen", "atom_type": "H0"}, "2": {"label": "acceptor", "atom_type": "Cs"}}

>  <type>  (3) 
r2h

$$$$

     RDKit          3D

 19 17  0  0  0  0  0  0  0  0999 V2000
    0.3846   -1.2091   -2.2920 C   0  0  0  0  0  0  0  0  0  0  0  0
   -0.0270   -1.1184   -1.1688 C   0  0  0  0  0  0  0  0  0  0  0  0
   -0.4560   -0.9669    0.1956 C   0  0  0  0  0  0  0  0  0  0  0  0
   -1.7789   -0.4405    0.3994 C   0  0  0  0  0  0  0  0  0  0  0  0
   -2.8570    0.0418    0.6080 C   0  0  0  0  0  0  0  0  0  0  0  0
    0.7285   -1.3050   -3.2935 H   0  0  0  0  0  0  0  0  0  0  0  0
    0.3478   -0.0990    0.7111 H   0  0  0  0  0  0  0  0  0  0  0  0
   -0.2581   -1.8534    0.7984 H   0  0  0  0  0  0  0  0  0  0  0  0
   -3.8225    0.4529    0.7796 H   0  0  0  0  0  0  0  0  0  0  0  0
    0.7902    2.0807    0.2782 C   0  0  0  0  0  0  0  0  0  0  0  0
    1.2462    0.9217    1.1130 C   0  0  0  0  0  3  0  0  0  0  0  0
    2.5973    0.3440    0.8130 C   0  0  0  0  0  0  0  0  0  0  0  0
    0.8694    1.8457   -0.7862 H   0  0  0  0  0  0  0  0  0  0  0  0
   -0.2463    2.3442    0.4927 H   0  0  0  0  0  0  0  0  0  0  0  0
    1.4085    2.9662    0.4669 H   0  0  0  0  0  0  0  0  0  0  0  0
    1.0032    0.9985    2.1721 H   0  0  0  0  0  0  0  0  0  0  0  0
    3.3888    1.0738    1.0209 H   0  0  0  0  0  0  0  0  0  0  0  0
    2.8014   -0.5433    1.4141 H   0  0  0  0  0  0  0  0  0  0  0  0
    2.6754    0.0695   -0.2420 H   0  0  0  0  0  0  0  0  0  0  0  0
  1  2  3  0
  1  6  1  0
  2  3  1  0
  3  4  1  0
  3  7  1  0
  3  8  1  0
  4  5  3  0
  5  9  1  0
 10 11  1  0
 10 13  1  0
 10 14  1  0
 10 15  1  0
 11 12  1  0
 11 16  1  0
 12 17  1  0
 12 18  1  0
 12 19  1  0
M  RAD  1  11   2
M  END
>  <reaction>  (4) 
rxn_1348

>  <mol_properties>  (4) 
{"1": {"label": "*0", "atom_type": "Ct"}, "2": {"label": "*1", "atom_type": "Cs"}, "6": {"label": "*2", "atom_type": "H0"}, "9": {"label": "*4", "atom_type": "Cs"}, "10": {"label": "*3", "atom_type": "Cs"}}

>  <type>  (4) 
ts

$$$$

     RDKit          3D

 19 17  0  0  0  0  0  0  0  0999 V2000
   -0.3484   -1.0297   -2.7698 C   0  0  0  0  0  0  0  0  0  0  0  0
   -0.3484   -1.0297   -1.5743 C   0  0  0  0  0  0  0  0  0  0  0  0
   -0.3484   -1.0297   -0.1113 C   0  0  0  0  0  3  0  0  0  0  0  0
   -1.6624   -0.7541    0.4699 C   0  0  0  0  0  0  0  0  0  0  0  0
   -2.7362   -0.5289    0.9448 C   0  0  0  0  0  0  0  0  0  0  0  0
   -0.3484   -1.0297   -3.8333 H   0  0  0  0  0  0  0  0  0  0  0  0
    0.5097   -0.1353    0.3197 H   0  0  0  0  0  0  0  0  0  0  0  0
    0.0069   -1.9996    0.2479 H   0  0  0  0  0  0  0  0  0  0  0  0
   -3.6914   -0.3286    1.3672 H   0  0  0  0  0  0  0  0  0  0  0  0
    0.6384    1.7956    1.5957 C   0  0  0  0  0  0  0  0  0  0  0  0
    1.3678    0.7590    0.7508 C   0  0  0  0  0  0  0  0  0  0  0  0
    2.7197    1.2540    0.2528 C   0  0  0  0  0  0  0  0  0  0  0  0
    0.4585    2.7092    1.0238 H   0  0  0  0  0  0  0  0  0  0  0  0
   -0.3269    1.4231    1.9428 H   0  0  0  0  0  0  0  0  0  0  0  0
    1.2277    2.0679    2.4747 H   0  0  0  0  0  0  0  0  0  0  0  0
    1.5075   -0.1543    1.3356 H   0  0  0  0  0  0  0  0  0  0  0  0
    3.3746    1.5092    1.0894 H   0  0  0  0  0  0  0  0  0  0  0  0
    3.2264    0.4983   -0.3499 H   0  0  0  0  0  0  0  0  0  0  0  0
    2.6054    2.1505   -0.3614 H   0  0  0  0  0  0  0  0  0  0  0  0
  1  2  3  0
  1  6  1  0
  2  3  1  0
  3  4  1  0
  3  8  1  0
  4  5  3  0
  5  9  1  0
  7 11  1  0
 10 11  1  0
 10 13  1  0
 10 14  1  0
 10 15  1  0
 11 12  1  0
 11 16  1  0
 12 17  1  0
 12 18  1  0
 12 19  1  0
M  RAD  1   3   2
M  END
>  <reaction>  (5) 
rxn_1348

>  <mol_properties>  (5) 
{"1": {"label": "*0", "atom_type": "Ct"}, "2": {"label": "*1", "atom_type": "Cs"}, "6": {"label": "*2", "atom_type": "H0"}, "9": {"label": "*4", "atom_type": "Cs"}, "10": {"label": "*3", "atom_type": "Cs"}}

>  <type>  (5) 
unop_1

>  <geom_source>  (5) 
Heuristics

$$$$

     RDKit          3D

 19 17  0  0  0  0  0  0  0  0999 V2000
   -0.4628   -0.9272   -2.6589 C   0  0  0  0  0  0  0  0  0  0  0  0
   -0.4628   -0.9272   -1.4634 C   0  0  0  0  0  0  0  0  0  0  0  0
   -0.4628   -0.9272   -0.0004 C   0  0  0  0  0  3  0  0  0  0  0  0
   -1.7768   -0.6516    0.5807 C   0  0  0  0  0  0  0  0  0  0  0  0
   -2.8506   -0.4264    1.0556 C   0  0  0  0  0  0  0  0  0  0  0  0
   -0.4628   -0.9272   -3.7224 H   0  0  0  0  0  0  0  0  0  0  0  0
    0.3954   -0.0329    0.4306 H   0  0  0  0  0  0  0  0  0  0  0  0
   -0.1074   -1.8971    0.3588 H   0  0  0  0  0  0  0  0  0  0  0  0
   -3.8057   -0.2261    1.4781 H   0  0  0  0  0  0  0  0  0  0  0  0
    1.3496    1.9992   -0.1468 C   0  0  0  0  0  0  0  0  0  0  0  0
    1.2534    0.8615    0.8616 C   0  0  0  0  0  0  0  0  0  0  0  0
    2.6062    0.4853    1.4526 C   0  0  0  0  0  0  0  0  0  0  0  0
    2.0033    1.7287   -0.9797 H   0  0  0  0  0  0  0  0  0  0  0  0
    0.3717    2.2540   -0.5586 H   0  0  0  0  0  0  0  0  0  0  0  0
    1.7621    2.8985    0.3170 H   0  0  0  0  0  0  0  0  0  0  0  0
    0.5707    1.1458    1.6671 H   0  0  0  0  0  0  0  0  0  0  0  0
    3.0582    1.3369    1.9668 H   0  0  0  0  0  0  0  0  0  0  0  0
    2.5168   -0.3305    2.1719 H   0  0  0  0  0  0  0  0  0  0  0  0
    3.2994    0.1672    0.6701 H   0  0  0  0  0  0  0  0  0  0  0  0
  1  2  3  0
  1  6  1  0
  2  3  1  0
  3  4  1  0
  3  8  1  0
  4  5  3  0
  5  9  1  0
  7 11  1  0
 10 11  1  0
 10 13  1  0
 10 14  1  0
 10 15  1  0
 11 12  1  0
 11 16  1  0
 12 17  1  0
 12 18  1  0
 12 19  1  0
M  RAD  1   3   2
M  END
>  <reaction>  (6) 
rxn_1348

>  <mol_properties>  (6) 
{"1": {"label": "*0", "atom_type": "Ct"}, "2": {"label": "*1", "atom_type": "Cs"}, "6": {"label": "*2", "atom_type": "H0"}, "9": {"label": "*4", "atom_type": "Cs"}, "10": {"label": "*3", "atom_type": "Cs"}}

>  <type>  (6) 
unop_2

>  <geom_source>  (6) 
Heuristics

$$$$

     RDKit          3D

 19 17  0  0  0  0  0  0  0  0999 V2000
   -0.3088   -1.0355   -2.7938 C   0  0  0  0  0  0  0  0  0  0  0  0
   -0.3088   -1.0355   -1.5983 C   0  0  0  0  0  0  0  0  0  0  0  0
   -0.3088   -1.0355   -0.1353 C   0  0  0  0  0  3  0  0  0  0  0  0
   -1.6228   -0.7598    0.4459 C   0  0  0  0  0  0  0  0  0  0  0  0
   -2.6966   -0.5346    0.9208 C   0  0  0  0  0  0  0  0  0  0  0  0
   -0.3088   -1.0355   -3.8573 H   0  0  0  0  0  0  0  0  0  0  0  0
    0.5493   -0.1411    0.2958 H   0  0  0  0  0  0  0  0  0  0  0  0
    0.0466   -2.0053    0.2239 H   0  0  0  0  0  0  0  0  0  0  0  0
   -3.6518   -0.3343    1.3432 H   0  0  0  0  0  0  0  0  0  0  0  0
    0.9378    1.3013    2.0683 C   0  0  0  0  0  0  0  0  0  0  0  0
    1.4074    0.7533    0.7268 C   0  0  0  0  0  0  0  0  0  0  0  0
    2.2010    1.7741   -0.0787 C   0  0  0  0  0  0  0  0  0  0  0  0
    0.2962    2.1750    1.9304 H   0  0  0  0  0  0  0  0  0  0  0  0
    0.3718    0.5563    2.6300 H   0  0  0  0  0  0  0  0  0  0  0  0
    1.7869    1.6099    2.6830 H   0  0  0  0  0  0  0  0  0  0  0  0
    2.0210   -0.1367    0.8918 H   0  0  0  0  0  0  0  0  0  0  0  0
    3.0899    2.0976    0.4684 H   0  0  0  0  0  0  0  0  0  0  0  0
    2.5283    1.3635   -1.0353 H   0  0  0  0  0  0  0  0  0  0  0  0
    1.5992    2.6627   -0.2842 H   0  0  0  0  0  0  0  0  0  0  0  0
  1  2  3  0
  1  6  1  0
  2  3  1  0
  3  4  1  0
  3  8  1  0
  4  5  3  0
  5  9  1  0
  7 11  1  0
 10 11  1  0
 10 13  1  0
 10 14  1  0
 10 15  1  0
 11 12  1  0
 11 16  1  0
 12 17  1  0
 12 18  1  0
 12 19  1  0
M  RAD  1   3   2
M  END
>  <reaction>  (7) 
rxn_1348

>  <mol_properties>  (7) 
{"1": {"label": "*0", "atom_type": "Ct"}, "2": {"label": "*1", "atom_type": "Cs"}, "6": {"label": "*2", "atom_type": "H0"}, "9": {"label": "*4", "atom_type": "Cs"}, "10": {"label": "*3", "atom_type": "Cs"}}

>  <type>  (7) 
unop_3

>  <geom_source>  (7) 
Heuristics

$$$$

     RDKit          3D

 19 17  0  0  0  0  0  0  0  0999 V2000
   -0.4152   -0.6774   -2.8377 C   0  0  0  0  0  0  0  0  0  0  0  0
   -0.4152   -0.6774   -1.6422 C   0  0  0  0  0  0  0  0  0  0  0  0
   -0.4152   -0.6774   -0.1792 C   0  0  0  0  0  3  0  0  0  0  0  0
   -1.7292   -0.4017    0.4020 C   0  0  0  0  0  0  0  0  0  0  0  0
   -2.8029   -0.1765    0.8769 C   0  0  0  0  0  0  0  0  0  0  0  0
   -0.4152   -0.6774   -3.9012 H   0  0  0  0  0  0  0  0  0  0  0  0
    0.4430    0.2170    0.2518 H   0  0  0  0  0  0  0  0  0  0  0  0
   -0.0598   -1.6472    0.1800 H   0  0  0  0  0  0  0  0  0  0  0  0
   -3.7581    0.0238    1.2993 H   0  0  0  0  0  0  0  0  0  0  0  0
    2.6936    0.7660    0.1710 C   0  0  0  0  0  0  0  0  0  0  0  0
    1.3011    1.1114    0.6829 C   0  0  0  0  0  0  0  0  0  0  0  0
    0.9980    0.4756    2.0336 C   0  0  0  0  0  0  0  0  0  0  0  0
    2.8101   -0.3142    0.0543 H   0  0  0  0  0  0  0  0  0  0  0  0
    2.8919    1.2300   -0.7966 H   0  0  0  0  0  0  0  0  0  0  0  0
    3.4621    1.1065    0.8693 H   0  0  0  0  0  0  0  0  0  0  0  0
    1.2011    2.1975    0.7611 H   0  0  0  0  0  0  0  0  0  0  0  0
    1.7130    0.8071    2.7905 H   0  0  0  0  0  0  0  0  0  0  0  0
   -0.0029    0.7344    2.3832 H   0  0  0  0  0  0  0  0  0  0  0  0
    1.0610   -0.6137    1.9756 H   0  0  0  0  0  0  0  0  0  0  0  0
  1  2  3  0
  1  6  1  0
  2  3  1  0
  3  4  1  0
  3  8  1  0
  4  5  3  0
  5  9  1  0
  7 11  1  0
 10 11  1  0
 10 13  1  0
 10 14  1  0
 10 15  1  0
 11 12  1  0
 11 16  1  0
 12 17  1  0
 12 18  1  0
 12 19  1  0
M  RAD  1   3   2
M  END
>  <reaction>  (8) 
rxn_1348

>  <mol_properties>  (8) 
{"1": {"label": "*0", "atom_type": "Ct"}, "2": {"label": "*1", "atom_type": "Cs"}, "6": {"label": "*2", "atom_type": "H0"}, "9": {"label": "*4", "atom_type": "Cs"}, "10": {"label": "*3", "atom_type": "Cs"}}

>  <type>  (8) 
unop_4

>  <geom_source>  (8) 
Heuristics

$$$$

     RDKit          3D

 19 17  0  0  0  0  0  0  0  0999 V2000
   -0.2139   -1.0109   -2.8474 C   0  0  0  0  0  0  0  0  0  0  0  0
   -0.2139   -1.0109   -1.6519 C   0  0  0  0  0  0  0  0  0  0  0  0
   -0.2139   -1.0109   -0.1889 C   0  0  0  0  0  3  0  0  0  0  0  0
   -1.5279   -0.7353    0.3922 C   0  0  0  0  0  0  0  0  0  0  0  0
   -2.6017   -0.5101    0.8671 C   0  0  0  0  0  0  0  0  0  0  0  0
   -0.2139   -1.0109   -3.9109 H   0  0  0  0  0  0  0  0  0  0  0  0
    0.6442   -0.1165    0.2421 H   0  0  0  0  0  0  0  0  0  0  0  0
    0.1414   -1.9807    0.1703 H   0  0  0  0  0  0  0  0  0  0  0  0
   -3.5569   -0.3097    1.2896 H   0  0  0  0  0  0  0  0  0  0  0  0
    1.5072    0.7830    2.1964 C   0  0  0  0  0  0  0  0  0  0  0  0
    1.5023    0.7779    0.6731 C   0  0  0  0  0  0  0  0  0  0  0  0
    1.1557    2.1388    0.0829 C   0  0  0  0  0  0  0  0  0  0  0  0
    0.5279    1.0668    2.5893 H   0  0  0  0  0  0  0  0  0  0  0  0
    1.7573   -0.1996    2.6001 H   0  0  0  0  0  0  0  0  0  0  0  0
    2.2370    1.4990    2.5823 H   0  0  0  0  0  0  0  0  0  0  0  0
    2.4829    0.4613    0.3070 H   0  0  0  0  0  0  0  0  0  0  0  0
    1.8744    2.8975    0.4022 H   0  0  0  0  0  0  0  0  0  0  0  0
    1.1573    2.1150   -1.0081 H   0  0  0  0  0  0  0  0  0  0  0  0
    0.1653    2.4653    0.4092 H   0  0  0  0  0  0  0  0  0  0  0  0
  1  2  3  0
  1  6  1  0
  2  3  1  0
  3  4  1  0
  3  8  1  0
  4  5  3  0
  5  9  1  0
  7 11  1  0
 10 11  1  0
 10 13  1  0
 10 14  1  0
 10 15  1  0
 11 12  1  0
 11 16  1  0
 12 17  1  0
 12 18  1  0
 12 19  1  0
M  RAD  1   3   2
M  END
>  <reaction>  (9) 
rxn_1348

>  <mol_properties>  (9) 
{"1": {"label": "*0", "atom_type": "Ct"}, "2": {"label": "*1", "atom_type": "Cs"}, "6": {"label": "*2", "atom_type": "H0"}, "9": {"label": "*4", "atom_type": "Cs"}, "10": {"label": "*3", "atom_type": "Cs"}}

>  <type>  (9) 
unop_5

>  <geom_source>  (9) 
Heuristics

$$$$

     RDKit          3D

 19 17  0  0  0  0  0  0  0  0999 V2000
   -0.3242   -0.6924   -2.9135 C   0  0  0  0  0  0  0  0  0  0  0  0
   -0.3242   -0.6924   -1.7180 C   0  0  0  0  0  0  0  0  0  0  0  0
   -0.3242   -0.6924   -0.2551 C   0  0  0  0  0  3  0  0  0  0  0  0
   -1.6383   -0.4168    0.3261 C   0  0  0  0  0  0  0  0  0  0  0  0
   -2.7120   -0.1916    0.8010 C   0  0  0  0  0  0  0  0  0  0  0  0
   -0.3242   -0.6924   -3.9770 H   0  0  0  0  0  0  0  0  0  0  0  0
    0.5339    0.2019    0.1760 H   0  0  0  0  0  0  0  0  0  0  0  0
    0.0311   -1.6623    0.1041 H   0  0  0  0  0  0  0  0  0  0  0  0
   -3.6672    0.0087    1.2235 H   0  0  0  0  0  0  0  0  0  0  0  0
    2.7601    0.4474    0.7735 C   0  0  0  0  0  0  0  0  0  0  0  0
    1.3920    1.0963    0.6070 C   0  0  0  0  0  0  0  0  0  0  0  0
    0.4837    0.8670    1.8082 C   0  0  0  0  0  0  0  0  0  0  0  0
    2.6663   -0.6330    0.9074 H   0  0  0  0  0  0  0  0  0  0  0  0
    3.3957    0.6225   -0.0961 H   0  0  0  0  0  0  0  0  0  0  0  0
    3.2765    0.8444    1.6509 H   0  0  0  0  0  0  0  0  0  0  0  0
    1.5160    2.1705    0.4442 H   0  0  0  0  0  0  0  0  0  0  0  0
    0.9284    1.2772    2.7182 H   0  0  0  0  0  0  0  0  0  0  0  0
   -0.4906    1.3388    1.6703 H   0  0  0  0  0  0  0  0  0  0  0  0
    0.3181   -0.2002    1.9747 H   0  0  0  0  0  0  0  0  0  0  0  0
  1  2  3  0
  1  6  1  0
  2  3  1  0
  3  4  1  0
  3  8  1  0
  4  5  3  0
  5  9  1  0
  7 11  1  0
 10 11  1  0
 10 13  1  0
 10 14  1  0
 10 15  1  0
 11 12  1  0
 11 16  1  0
 12 17  1  0
 12 18  1  0
 12 19  1  0
M  RAD  1   3   2
M  END
>  <reaction>  (10) 
rxn_1348

>  <mol_properties>  (10) 
{"1": {"label": "*0", "atom_type": "Ct"}, "2": {"label": "*1", "atom_type": "Cs"}, "6": {"label": "*2", "atom_type": "H0"}, "9": {"label": "*4", "atom_type": "Cs"}, "10": {"label": "*3", "atom_type": "Cs"}}

>  <type>  (10) 
unop_6

>  <geom_source>  (10) 
Heuristics

$$$$

     RDKit          3D

 19 17  0  0  0  0  0  0  0  0999 V2000
   -0.2296   -0.7653   -2.9506 C   0  0  0  0  0  0  0  0  0  0  0  0
   -0.2296   -0.7653   -1.7551 C   0  0  0  0  0  0  0  0  0  0  0  0
   -0.2296   -0.7653   -0.2921 C   0  0  0  0  0  3  0  0  0  0  0  0
   -1.5436   -0.4897    0.2890 C   0  0  0  0  0  0  0  0  0  0  0  0
   -2.6174   -0.2645    0.7639 C   0  0  0  0  0  0  0  0  0  0  0  0
   -0.2296   -0.7653   -4.0141 H   0  0  0  0  0  0  0  0  0  0  0  0
    0.6286    0.1291    0.1389 H   0  0  0  0  0  0  0  0  0  0  0  0
    0.1258   -1.7352    0.0671 H   0  0  0  0  0  0  0  0  0  0  0  0
   -3.5726   -0.0642    1.1864 H   0  0  0  0  0  0  0  0  0  0  0  0
    2.5526    0.3375    1.4148 C   0  0  0  0  0  0  0  0  0  0  0  0
    1.4866    1.0234    0.5699 C   0  0  0  0  0  0  0  0  0  0  0  0
    0.2217    1.3339    1.3599 C   0  0  0  0  0  0  0  0  0  0  0  0
    2.1823   -0.6079    1.8187 H   0  0  0  0  0  0  0  0  0  0  0  0
    3.4501    0.1235    0.8321 H   0  0  0  0  0  0  0  0  0  0  0  0
    2.8444    0.9651    2.2605 H   0  0  0  0  0  0  0  0  0  0  0  0
    1.8924    1.9497    0.1537 H   0  0  0  0  0  0  0  0  0  0  0  0
    0.4400    1.9928    2.2038 H   0  0  0  0  0  0  0  0  0  0  0  0
   -0.5292    1.8245    0.7383 H   0  0  0  0  0  0  0  0  0  0  0  0
   -0.2220    0.4198    1.7620 H   0  0  0  0  0  0  0  0  0  0  0  0
  1  2  3  0
  1  6  1  0
  2  3  1  0
  3  4  1  0
  3  8  1  0
  4  5  3  0
  5  9  1  0
  7 11  1  0
 10 11  1  0
 10 13  1  0
 10 14  1  0
 10 15  1  0
 11 12  1  0
 11 16  1  0
 12 17  1  0
 12 18  1  0
 12 19  1  0
M  RAD  1   3   2
M  END
>  <reaction>  (11) 
rxn_1348

>  <mol_properties>  (11) 
{"1": {"label": "*0", "atom_type": "Ct"}, "2": {"label": "*1", "atom_type": "Cs"}, "6": {"label": "*2", "atom_type": "H0"}, "9": {"label": "*4", "atom_type": "Cs"}, "10": {"label": "*3", "atom_type": "Cs"}}

>  <type>  (11) 
unop_7

>  <geom_source>  (11) 
Heuristics

$$$$

     RDKit          3D

 19 17  0  0  0  0  0  0  0  0999 V2000
   -0.3723   -1.0246   -2.7328 C   0  0  0  0  0  0  0  0  0  0  0  0
   -0.3723   -1.0246   -1.5373 C   0  0  0  0  0  0  0  0  0  0  0  0
   -0.3723   -1.0246   -0.0743 C   0  0  0  0  0  3  0  0  0  0  0  0
   -1.6863   -0.7490    0.5069 C   0  0  0  0  0  0  0  0  0  0  0  0
   -2.7601   -0.5238    0.9818 C   0  0  0  0  0  0  0  0  0  0  0  0
   -0.3723   -1.0246   -3.7963 H   0  0  0  0  0  0  0  0  0  0  0  0
    0.4858   -0.1302    0.3568 H   0  0  0  0  0  0  0  0  0  0  0  0
   -0.0169   -1.9945    0.2849 H   0  0  0  0  0  0  0  0  0  0  0  0
   -3.7153   -0.3235    1.4042 H   0  0  0  0  0  0  0  0  0  0  0  0
    0.6390    2.1042    0.9543 C   0  0  0  0  0  0  0  0  0  0  0  0
    1.3439    0.7641    0.7878 C   0  0  0  0  0  0  0  0  0  0  0  0
    2.8583    0.9045    0.7015 C   0  0  0  0  0  0  0  0  0  0  0  0
    0.8556    2.7668    0.1129 H   0  0  0  0  0  0  0  0  0  0  0  0
   -0.4440    1.9831    1.0142 H   0  0  0  0  0  0  0  0  0  0  0  0
    0.9701    2.6093    1.8650 H   0  0  0  0  0  0  0  0  0  0  0  0
    1.0861    0.1106    1.6258 H   0  0  0  0  0  0  0  0  0  0  0  0
    3.2593    1.3718    1.6042 H   0  0  0  0  0  0  0  0  0  0  0  0
    3.3450   -0.0650    0.5825 H   0  0  0  0  0  0  0  0  0  0  0  0
    3.1449    1.5293   -0.1479 H   0  0  0  0  0  0  0  0  0  0  0  0
  1  2  3  0
  1  6  1  0
  2  3  1  0
  3  4  1  0
  3  8  1  0
  4  5  3  0
  5  9  1  0
  7 11  1  0
 10 11  1  0
 10 13  1  0
 10 14  1  0
 10 15  1  0
 11 12  1  0
 11 16  1  0
 12 17  1  0
 12 18  1  0
 12 19  1  0
M  RAD  1   3   2
M  END
>  <reaction>  (12) 
rxn_1348

>  <mol_properties>  (12) 
{"1": {"label": "*0", "atom_type": "Ct"}, "2": {"label": "*1", "atom_type": "Cs"}, "6": {"label": "*2", "atom_type": "H0"}, "9": {"label": "*4", "atom_type": "Cs"}, "10": {"label": "*3", "atom_type": "Cs"}}

>  <type>  (12) 
unop_8

>  <geom_source>  (12) 
Heuristics

$$$$

     RDKit          3D

 19 17  0  0  0  0  0  0  0  0999 V2000
   -0.4793   -0.7239   -2.7485 C   0  0  0  0  0  0  0  0  0  0  0  0
   -0.4793   -0.7239   -1.5530 C   0  0  0  0  0  0  0  0  0  0  0  0
   -0.4793   -0.7239   -0.0900 C   0  0  0  0  0  3  0  0  0  0  0  0
   -1.7934   -0.4483    0.4912 C   0  0  0  0  0  0  0  0  0  0  0  0
   -2.8671   -0.2231    0.9661 C   0  0  0  0  0  0  0  0  0  0  0  0
   -0.4793   -0.7239   -3.8120 H   0  0  0  0  0  0  0  0  0  0  0  0
    0.3788    0.1705    0.3410 H   0  0  0  0  0  0  0  0  0  0  0  0
   -0.1240   -1.6938    0.2692 H   0  0  0  0  0  0  0  0  0  0  0  0
   -3.8223   -0.0227    1.3885 H   0  0  0  0  0  0  0  0  0  0  0  0
    2.3696    1.2080   -0.2364 C   0  0  0  0  0  0  0  0  0  0  0  0
    1.2369    1.0648    0.7720 C   0  0  0  0  0  0  0  0  0  0  0  0
    1.6434    0.2616    2.0009 C   0  0  0  0  0  0  0  0  0  0  0  0
    2.7074    0.2294   -0.5860 H   0  0  0  0  0  0  0  0  0  0  0  0
    2.0595    1.7858   -1.1087 H   0  0  0  0  0  0  0  0  0  0  0  0
    3.2294    1.7128    0.2109 H   0  0  0  0  0  0  0  0  0  0  0  0
    0.8976    2.0572    1.0817 H   0  0  0  0  0  0  0  0  0  0  0  0
    2.4803    0.7365    2.5187 H   0  0  0  0  0  0  0  0  0  0  0  0
    0.8197    0.1700    2.7108 H   0  0  0  0  0  0  0  0  0  0  0  0
    1.9583   -0.7468    1.7218 H   0  0  0  0  0  0  0  0  0  0  0  0
  1  2  3  0
  1  6  1  0
  2  3  1  0
  3  4  1  0
  3  8  1  0
  4  5  3  0
  5  9  1  0
  7 11  1  0
 10 11  1  0
 10 13  1  0
 10 14  1  0
 10 15  1  0
 11 12  1  0
 11 16  1  0
 12 17  1  0
 12 18  1  0
 12 19  1  0
M  RAD  1   3   2
M  END
>  <reaction>  (13) 
rxn_1348

>  <mol_properties>  (13) 
{"1": {"label": "*0", "atom_type": "Ct"}, "2": {"label": "*1", "atom_type": "Cs"}, "6": {"label": "*2", "atom_type": "H0"}, "9": {"label": "*4", "atom_type": "Cs"}, "10": {"label": "*3", "atom_type": "Cs"}}

>  <type>  (13) 
unop_9

>  <geom_source>  (13) 
Heuristics

$$$$

     RDKit          3D

 19 17  0  0  0  0  0  0  0  0999 V2000
   -0.4112   -0.9972   -2.6867 C   0  0  0  0  0  0  0  0  0  0  0  0
   -0.4112   -0.9972   -1.4912 C   0  0  0  0  0  0  0  0  0  0  0  0
   -0.4112   -0.9972   -0.0282 C   0  0  0  0  0  3  0  0  0  0  0  0
   -1.7252   -0.7216    0.5530 C   0  0  0  0  0  0  0  0  0  0  0  0
   -2.7989   -0.4964    1.0279 C   0  0  0  0  0  0  0  0  0  0  0  0
   -0.4112   -0.9972   -3.7502 H   0  0  0  0  0  0  0  0  0  0  0  0
    0.4470   -0.1028    0.4028 H   0  0  0  0  0  0  0  0  0  0  0  0
   -0.0558   -1.9670    0.3310 H   0  0  0  0  0  0  0  0  0  0  0  0
   -3.7541   -0.2960    1.4503 H   0  0  0  0  0  0  0  0  0  0  0  0
    0.9023    2.1687    0.3220 C   0  0  0  0  0  0  0  0  0  0  0  0
    1.3051    0.7916    0.8339 C   0  0  0  0  0  0  0  0  0  0  0  0
    2.7993    0.6819    1.1091 C   0  0  0  0  0  0  0  0  0  0  0  0
    1.4218    2.4065   -0.6094 H   0  0  0  0  0  0  0  0  0  0  0  0
   -0.1705    2.2276    0.1308 H   0  0  0  0  0  0  0  0  0  0  0  0
    1.1560    2.9448    1.0481 H   0  0  0  0  0  0  0  0  0  0  0  0
    0.7490    0.5661    1.7480 H   0  0  0  0  0  0  0  0  0  0  0  0
    3.1127    1.4112    1.8600 H   0  0  0  0  0  0  0  0  0  0  0  0
    3.0681   -0.3107    1.4746 H   0  0  0  0  0  0  0  0  0  0  0  0
    3.3786    0.8729    0.2025 H   0  0  0  0  0  0  0  0  0  0  0  0
  1  2  3  0
  1  6  1  0
  2  3  1  0
  3  4  1  0
  3  8  1  0
  4  5  3  0
  5  9  1  0
  7 11  1  0
 10 11  1  0
 10 13  1  0
 10 14  1  0
 10 15  1  0
 11 12  1  0
 11 16  1  0
 12 17  1  0
 12 18  1  0
 12 19  1  0
M  RAD  1   3   2
M  END
>  <reaction>  (14) 
rxn_1348

>  <mol_properties>  (14) 
{"1": {"label": "*0", "atom_type": "Ct"}, "2": {"label": "*1", "atom_type": "Cs"}, "6": {"label": "*2", "atom_type": "H0"}, "9": {"label": "*4", "atom_type": "Cs"}, "10": {"label": "*3", "atom_type": "Cs"}}

>  <type>  (14) 
unop_10

>  <geom_source>  (14) 
Heuristics

$$$$

     RDKit          3D

 19 17  0  0  0  0  0  0  0  0999 V2000
   -0.1696   -0.8885   -2.9278 C   0  0  0  0  0  0  0  0  0  0  0  0
   -0.1696   -0.8885   -1.7323 C   0  0  0  0  0  0  0  0  0  0  0  0
   -0.1696   -0.8885   -0.2693 C   0  0  0  0  0  3  0  0  0  0  0  0
   -1.4836   -0.6129    0.3118 C   0  0  0  0  0  0  0  0  0  0  0  0
   -2.5574   -0.3877    0.7867 C   0  0  0  0  0  0  0  0  0  0  0  0
   -0.1696   -0.8885   -3.9913 H   0  0  0  0  0  0  0  0  0  0  0  0
    0.6885    0.0059    0.1617 H   0  0  0  0  0  0  0  0  0  0  0  0
    0.1857   -1.8583    0.0899 H   0  0  0  0  0  0  0  0  0  0  0  0
   -3.5126   -0.1873    1.2092 H   0  0  0  0  0  0  0  0  0  0  0  0
    2.1136    0.4538    1.9343 C   0  0  0  0  0  0  0  0  0  0  0  0
    1.5466    0.9003    0.5927 C   0  0  0  0  0  0  0  0  0  0  0  0
    0.3508    1.8321    0.7420 C   0  0  0  0  0  0  0  0  0  0  0  0
    1.3594   -0.0779    2.5196 H   0  0  0  0  0  0  0  0  0  0  0  0
    2.9685   -0.2123    1.8068 H   0  0  0  0  0  0  0  0  0  0  0  0
    2.4433    1.3124    2.5242 H   0  0  0  0  0  0  0  0  0  0  0  0
    2.3287    1.4014    0.0156 H   0  0  0  0  0  0  0  0  0  0  0  0
    0.6250    2.7341    1.2944 H   0  0  0  0  0  0  0  0  0  0  0  0
   -0.0410    2.1407   -0.2287 H   0  0  0  0  0  0  0  0  0  0  0  0
   -0.4589    1.3438    1.2897 H   0  0  0  0  0  0  0  0  0  0  0  0
  1  2  3  0
  1  6  1  0
  2  3  1  0
  3  4  1  0
  3  8  1  0
  4  5  3  0
  5  9  1  0
  7 11  1  0
 10 11  1  0
 10 13  1  0
 10 14  1  0
 10 15  1  0
 11 12  1  0
 11 16  1  0
 12 17  1  0
 12 18  1  0
 12 19  1  0
M  RAD  1   3   2
M  END
>  <reaction>  (15) 
rxn_1348

>  <mol_properties>  (15) 
{"1": {"label": "*0", "atom_type": "Ct"}, "2": {"label": "*1", "atom_type": "Cs"}, "6": {"label": "*2", "atom_type": "H0"}, "9": {"label": "*4", "atom_type": "Cs"}, "10": {"label": "*3", "atom_type": "Cs"}}

>  <type>  (15) 
unop_11

>  <geom_source>  (15) 
Heuristics

$$$$

     RDKit          3D

 19 17  0  0  0  0  0  0  0  0999 V2000
   -0.4961   -0.8214   -2.6789 C   0  0  0  0  0  0  0  0  0  0  0  0
   -0.4961   -0.8214   -1.4834 C   0  0  0  0  0  0  0  0  0  0  0  0
   -0.4961   -0.8214   -0.0204 C   0  0  0  0  0  3  0  0  0  0  0  0
   -1.8101   -0.5458    0.5607 C   0  0  0  0  0  0  0  0  0  0  0  0
   -2.8839   -0.3206    1.0356 C   0  0  0  0  0  0  0  0  0  0  0  0
   -0.4961   -0.8214   -3.7424 H   0  0  0  0  0  0  0  0  0  0  0  0
    0.3620    0.0730    0.4106 H   0  0  0  0  0  0  0  0  0  0  0  0
   -0.1407   -1.7912    0.3388 H   0  0  0  0  0  0  0  0  0  0  0  0
   -3.8391   -0.1202    1.4581 H   0  0  0  0  0  0  0  0  0  0  0  0
    1.8784    1.6534   -0.3486 C   0  0  0  0  0  0  0  0  0  0  0  0
    1.2201    0.9674    0.8416 C   0  0  0  0  0  0  0  0  0  0  0  0
    2.2299    0.2976    1.7649 C   0  0  0  0  0  0  0  0  0  0  0  0
    2.4419    0.9362   -0.9503 H   0  0  0  0  0  0  0  0  0  0  0  0
    1.1397    2.1268   -0.9976 H   0  0  0  0  0  0  0  0  0  0  0  0
    2.5766    2.4258   -0.0172 H   0  0  0  0  0  0  0  0  0  0  0  0
    0.6388    1.7000    1.4083 H   0  0  0  0  0  0  0  0  0  0  0  0
    2.9392    1.0273    2.1629 H   0  0  0  0  0  0  0  0  0  0  0  0
    1.7398   -0.1878    2.6106 H   0  0  0  0  0  0  0  0  0  0  0  0
    2.8045   -0.4623    1.2298 H   0  0  0  0  0  0  0  0  0  0  0  0
  1  2  3  0
  1  6  1  0
  2  3  1  0
  3  4  1  0
  3  8  1  0
  4  5  3  0
  5  9  1  0
  7 11  1  0
 10 11  1  0
 10 13  1  0
 10 14  1  0
 10 15  1  0
 11 12  1  0
 11 16  1  0
 12 17  1  0
 12 18  1  0
 12 19  1  0
M  RAD  1   3   2
M  END
>  <reaction>  (16) 
rxn_1348

>  <mol_properties>  (16) 
{"1": {"label": "*0", "atom_type": "Ct"}, "2": {"label": "*1", "atom_type": "Cs"}, "6": {"label": "*2", "atom_type": "H0"}, "9": {"label": "*4", "atom_type": "Cs"}, "10": {"label": "*3", "atom_type": "Cs"}}

>  <type>  (16) 
unop_12

>  <geom_source>  (16) 
Heuristics

$$$$

     RDKit          3D

 19 17  0  0  0  0  0  0  0  0999 V2000
   -0.8088   -0.4944   -0.4167 C   0  0  0  0  0  0  0  0  0  0  0  0
   -1.5079   -0.0036   -1.6798 C   0  0  0  0  0  0  0  0  0  0  0  0
   -1.7066   -0.3488    0.8071 C   0  0  0  0  0  0  0  0  0  0  0  0
    1.6488    0.3910   -0.4383 C   0  0  0  0  0  3  0  0  0  0  0  0
    1.9206   -0.8372    0.3112 C   0  0  0  0  0  0  0  0  0  0  0  0
    1.5804    1.5276    0.4823 C   0  0  0  0  0  0  0  0  0  0  0  0
    2.1442   -1.8496    0.9266 C   0  0  0  0  0  0  0  0  0  0  0  0
    1.5236    2.4647    1.2388 C   0  0  0  0  0  0  0  0  0  0  0  0
   -0.5287   -1.5625   -0.5426 H   0  0  0  0  0  0  0  0  0  0  0  0
    0.2660    0.1917   -0.2356 H   0  0  0  0  0  0  0  0  0  0  0  0
   -2.4294   -0.5953   -1.8664 H   0  0  0  0  0  0  0  0  0  0  0  0
   -1.7733    1.0702   -1.5794 H   0  0  0  0  0  0  0  0  0  0  0  0
   -0.8266   -0.1210   -2.5483 H   0  0  0  0  0  0  0  0  0  0  0  0
   -2.6329   -0.9489    0.6807 H   0  0  0  0  0  0  0  0  0  0  0  0
   -1.9762    0.7176    0.9611 H   0  0  0  0  0  0  0  0  0  0  0  0
   -1.1665   -0.7117    1.7065 H   0  0  0  0  0  0  0  0  0  0  0  0
    2.4590    0.5610   -1.1770 H   0  0  0  0  0  0  0  0  0  0  0  0
    2.3405   -2.7382    1.4670 H   0  0  0  0  0  0  0  0  0  0  0  0
    1.4738    3.2872    1.9029 H   0  0  0  0  0  0  0  0  0  0  0  0
  1  2  1  0
  1  3  1  0
  1  9  1  0
  1 10  1  0
  2 11  1  0
  2 12  1  0
  2 13  1  0
  3 14  1  0
  3 15  1  0
  3 16  1  0
  4  5  1  0
  4  6  1  0
  4 17  1  0
  5  7  3  0
  6  8  3  0
  7 18  1  0
  8 19  1  0
M  RAD  1   4   2
M  END
>  <reaction>  (17) 
rxn_1348

>  <mol_properties>  (17) 
{"1": {"label": "*0", "atom_type": "Ct"}, "2": {"label": "*1", "atom_type": "Cs"}, "6": {"label": "*2", "atom_type": "H0"}, "9": {"label": "*4", "atom_type": "Cs"}, "10": {"label": "*3", "atom_type": "Cs"}}

>  <type>  (17) 
unop_13

>  <geom_source>  (17) 
AutoTST

$$$$
