
     RDKit          3D

  8  7  0  0  0  0  0  0  0  0999 V2000
    0.7610    0.0250    0.0051 C   0  0  0  0  0  0  0  0  0  0  0  0
   -0.7610   -0.0250   -0.0051 C   0  0  0  0  0  0  0  0  0  0  0  0
    1.1904   -0.9237   -0.3217 H   0  0  0  0  0  0  0  0  0  0  0  0
    1.1359    0.8041   -0.6609 H   0  0  0  0  0  0  0  0  0  0  0  0
    1.1435    0.2336    1.0058 H   0  0  0  0  0  0  0  0  0  0  0  0
   -1.1435   -0.2336   -1.0058 H   0  0  0  0  0  0  0  0  0  0  0  0
   -1.1904    0.9237    0.3216 H   0  0  0  0  0  0  0  0  0  0  0  0
   -1.1359   -0.8041    0.6609 H   0  0  0  0  0  0  0  0  0  0  0  0
  1  2  1  0
  1  3  1  0
  1  4  1  0
  1  5  1  0
  2  6  1  0
  2  7  1  0
  2  8  1  0
M  END
>  <reaction>  (1) 
rxn_325

>  <mol_properties>  (1) 
{"1": {"label": "donator", "atom_type": "Cs"}, "5": {"label": "d_hydrogen", "atom_type": "H0"}}

>  <type>  (1) 
r1h

$$$$

     RDKit          3D

  3  2  0  0  0  0  0  0  0  0999 V2000
   -0.0494   -0.2484    0.2507 C   0  0  0  0  0  3  0  0  0  0  0  0
    1.0305   -0.0025   -0.1225 O   0  0  0  0  0  0  0  0  0  0  0  0
   -0.9811    0.2509   -0.1282 H   0  0  0  0  0  0  0  0  0  0  0  0
  1  2  2  0
  1  3  1  0
M  RAD  1   1   2
M  END
>  <reaction>  (2) 
rxn_325

>  <mol_properties>  (2) 
{"0": {"label": "acceptor", "atom_type": "CO"}}

>  <type>  (2) 
r2

$$$$

     RDKit          3D

  4  3  0  0  0  0  0  0  0  0999 V2000
   -0.0057    0.0001   -0.0008 C   0  0  0  0  0  0  0  0  0  0  0  0
    1.1789   -0.0174    0.1563 O   0  0  0  0  0  0  0  0  0  0  0  0
   -0.5891    0.9399    0.0445 H   0  0  0  0  0  0  0  0  0  0  0  0
   -0.5841   -0.9226   -0.2001 H   0  0  0  0  0  0  0  0  0  0  0  0
  1  2  2  0
  1  3  1  0
  1  4  1  0
M  END
>  <reaction>  (3) 
rxn_325

>  <mol_properties>  (3) 
{"0": {"label": "acceptor", "atom_type": "CO"}, "3": {"label": "a_hydrogen", "atom_type": "H0"}}

>  <type>  (3) 
r2h

$$$$

     RDKit          3D

 11  9  0  0  0  0  0  0  0  0999 V2000
    0.0847    0.9590    0.9655 C   0  0  0  0  0  0  0  0  0  0  0  0
    0.0122    1.8061    0.1393 O   0  0  0  0  0  0  0  0  0  0  0  0
    0.1208    1.1838    2.0584 H   0  0  0  0  0  0  0  0  0  0  0  0
    0.0887   -1.3948   -1.4161 C   0  0  0  0  0  0  0  0  0  0  0  0
    0.1612   -1.6175    0.0666 C   0  0  0  0  0  3  0  0  0  0  0  0
   -0.8292   -0.8747   -1.6958 H   0  0  0  0  0  0  0  0  0  0  0  0
    0.9302   -0.7965   -1.7701 H   0  0  0  0  0  0  0  0  0  0  0  0
    0.1077   -2.3430   -1.9643 H   0  0  0  0  0  0  0  0  0  0  0  0
    0.1265   -0.2980    0.6316 H   0  0  0  0  0  0  0  0  0  0  0  0
    1.1011   -2.0164    0.4432 H   0  0  0  0  0  0  0  0  0  0  0  0
   -0.7046   -2.0966    0.5194 H   0  0  0  0  0  0  0  0  0  0  0  0
  1  2  2  0
  1  3  1  0
  1  9  1  0
  4  5  1  0
  4  6  1  0
  4  7  1  0
  4  8  1  0
  5 10  1  0
  5 11  1  0
M  RAD  1   5   2
M  END
>  <reaction>  (4) 
rxn_325

>  <mol_properties>  (4) 
{"0": {"label": "*1", "atom_type": "CO"}, "1": {"label": "*0", "atom_type": "O2d"}, "3": {"label": "*4", "atom_type": "Cs"}, "4": {"label": "*3", "atom_type": "Cs"}, "8": {"label": "*2", "atom_type": "H0"}}

>  <type>  (4) 
ts

$$$$

     RDKit          3D

 11  9  0  0  0  0  0  0  0  0999 V2000
    0.2196    1.1346    0.6789 C   0  0  0  0  0  3  0  0  0  0  0  0
   -0.6584    1.5403    1.3807 O   0  0  0  0  0  0  0  0  0  0  0  0
    1.2868    1.3141    0.9122 H   0  0  0  0  0  0  0  0  0  0  0  0
    0.2196   -1.3240   -1.8008 C   0  0  0  0  0  0  0  0  0  0  0  0
    0.2196   -1.3240   -0.2780 C   0  0  0  0  0  0  0  0  0  0  0  0
   -0.6612   -0.8154   -2.1966 H   0  0  0  0  0  0  0  0  0  0  0  0
    1.1005   -0.8154   -2.1966 H   0  0  0  0  0  0  0  0  0  0  0  0
    0.2196   -2.3411   -2.1966 H   0  0  0  0  0  0  0  0  0  0  0  0
    0.2196   -0.1034    0.1970 H   0  0  0  0  0  0  0  0  0  0  0  0
    1.1005   -1.8325    0.1179 H   0  0  0  0  0  0  0  0  0  0  0  0
   -0.6612   -1.8325    0.1179 H   0  0  0  0  0  0  0  0  0  0  0  0
  1  2  2  0
  1  3  1  0
  4  5  1  0
  4  6  1  0
  4  7  1  0
  4  8  1  0
  5  9  1  0
  5 10  1  0
  5 11  1  0
M  RAD  1   1   2
M  END
>  <reaction>  (5) 
rxn_325

>  <mol_properties>  (5) 
{"0": {"label": "*1", "atom_type": "CO"}, "1": {"label": "*0", "atom_type": "O2d"}, "3": {"label": "*4", "atom_type": "Cs"}, "4": {"label": "*3", "atom_type": "Cs"}, "8": {"label": "*2", "atom_type": "H0"}}

>  <type>  (5) 
unop_1

>  <geom_source>  (5) 
Heuristics

$$$$

     RDKit          3D

 11  9  0  0  0  0  0  0  0  0999 V2000
    0.1332    1.0005    1.0140 C   0  0  0  0  0  3  0  0  0  0  0  0
   -0.3737    1.9086    0.4252 O   0  0  0  0  0  0  0  0  0  0  0  0
    0.3743    1.0632    2.0927 H   0  0  0  0  0  0  0  0  0  0  0  0
    0.1332   -1.4580   -1.4656 C   0  0  0  0  0  0  0  0  0  0  0  0
    0.1332   -1.4580    0.0572 C   0  0  0  0  0  0  0  0  0  0  0  0
   -0.7476   -0.9495   -1.8614 H   0  0  0  0  0  0  0  0  0  0  0  0
    1.0140   -0.9495   -1.8614 H   0  0  0  0  0  0  0  0  0  0  0  0
    0.1332   -2.4752   -1.8614 H   0  0  0  0  0  0  0  0  0  0  0  0
    0.1332   -0.2375    0.5322 H   0  0  0  0  0  0  0  0  0  0  0  0
    1.0140   -1.9666    0.4530 H   0  0  0  0  0  0  0  0  0  0  0  0
   -0.7476   -1.9666    0.4530 H   0  0  0  0  0  0  0  0  0  0  0  0
  1  2  2  0
  1  3  1  0
  4  5  1  0
  4  6  1  0
  4  7  1  0
  4  8  1  0
  5  9  1  0
  5 10  1  0
  5 11  1  0
M  RAD  1   1   2
M  END
>  <reaction>  (6) 
rxn_325

>  <mol_properties>  (6) 
{"0": {"label": "*1", "atom_type": "CO"}, "1": {"label": "*0", "atom_type": "O2d"}, "3": {"label": "*4", "atom_type": "Cs"}, "4": {"label": "*3", "atom_type": "Cs"}, "8": {"label": "*2", "atom_type": "H0"}}

>  <type>  (6) 
unop_2

>  <geom_source>  (6) 
Heuristics

$$$$

     RDKit          3D

 11  9  0  0  0  0  0  0  0  0999 V2000
    0.1214    1.1658    0.5950 C   0  0  0  0  0  3  0  0  0  0  0  0
   -0.3856    1.4370    1.6427 O   0  0  0  0  0  0  0  0  0  0  0  0
    1.0562    1.6506    0.2534 H   0  0  0  0  0  0  0  0  0  0  0  0
    0.1214   -1.2927   -1.8846 C   0  0  0  0  0  0  0  0  0  0  0  0
    0.1214   -1.2927   -0.3618 C   0  0  0  0  0  0  0  0  0  0  0  0
   -0.7595   -0.7842   -2.2805 H   0  0  0  0  0  0  0  0  0  0  0  0
    1.0022   -0.7842   -2.2805 H   0  0  0  0  0  0  0  0  0  0  0  0
    0.1214   -2.3098   -2.2805 H   0  0  0  0  0  0  0  0  0  0  0  0
    0.1214   -0.0722    0.1132 H   0  0  0  0  0  0  0  0  0  0  0  0
    1.0022   -1.8013    0.0340 H   0  0  0  0  0  0  0  0  0  0  0  0
   -0.7595   -1.8013    0.0340 H   0  0  0  0  0  0  0  0  0  0  0  0
  1  2  2  0
  1  3  1  0
  4  5  1  0
  4  6  1  0
  4  7  1  0
  4  8  1  0
  5  9  1  0
  5 10  1  0
  5 11  1  0
M  RAD  1   1   2
M  END
>  <reaction>  (7) 
rxn_325

>  <mol_properties>  (7) 
{"0": {"label": "*1", "atom_type": "CO"}, "1": {"label": "*0", "atom_type": "O2d"}, "3": {"label": "*4", "atom_type": "Cs"}, "4": {"label": "*3", "atom_type": "Cs"}, "8": {"label": "*2", "atom_type": "H0"}}

>  <type>  (7) 
unop_3

>  <geom_source>  (7) 
Heuristics

$$$$

     RDKit          3D

 11  9  0  0  0  0  0  0  0  0999 V2000
   -0.2285    1.0377    0.9224 C   0  0  0  0  0  3  0  0  0  0  0  0
    0.6496    1.8112    0.6794 O   0  0  0  0  0  0  0  0  0  0  0  0
   -0.7766    1.0565    1.8840 H   0  0  0  0  0  0  0  0  0  0  0  0
   -0.2285   -1.4208   -1.5573 C   0  0  0  0  0  0  0  0  0  0  0  0
   -0.2285   -1.4208   -0.0345 C   0  0  0  0  0  0  0  0  0  0  0  0
   -1.1093   -0.9123   -1.9531 H   0  0  0  0  0  0  0  0  0  0  0  0
    0.6524   -0.9123   -1.9531 H   0  0  0  0  0  0  0  0  0  0  0  0
   -0.2285   -2.4380   -1.9531 H   0  0  0  0  0  0  0  0  0  0  0  0
   -0.2285   -0.2003    0.4405 H   0  0  0  0  0  0  0  0  0  0  0  0
    0.6524   -1.9294    0.3614 H   0  0  0  0  0  0  0  0  0  0  0  0
   -1.1093   -1.9294    0.3614 H   0  0  0  0  0  0  0  0  0  0  0  0
  1  2  2  0
  1  3  1  0
  4  5  1  0
  4  6  1  0
  4  7  1  0
  4  8  1  0
  5  9  1  0
  5 10  1  0
  5 11  1  0
M  RAD  1   1   2
M  END
>  <reaction>  (8) 
rxn_325

>  <mol_properties>  (8) 
{"0": {"label": "*1", "atom_type": "CO"}, "1": {"label": "*0", "atom_type": "O2d"}, "3": {"label": "*4", "atom_type": "Cs"}, "4": {"label": "*3", "atom_type": "Cs"}, "8": {"label": "*2", "atom_type": "H0"}}

>  <type>  (8) 
unop_4

>  <geom_source>  (8) 
Heuristics

$$$$

     RDKit          3D

 11  9  0  0  0  0  0  0  0  0999 V2000
   -0.0000    1.1736    0.5677 C   0  0  0  0  0  3  0  0  0  0  0  0
   -0.0000    1.3954    1.7420 O   0  0  0  0  0  0  0  0  0  0  0  0
    0.0000    1.9876   -0.1826 H   0  0  0  0  0  0  0  0  0  0  0  0
   -0.0000   -1.2850   -1.9119 C   0  0  0  0  0  0  0  0  0  0  0  0
   -0.0000   -1.2850   -0.3892 C   0  0  0  0  0  0  0  0  0  0  0  0
   -0.8808   -0.7765   -2.3078 H   0  0  0  0  0  0  0  0  0  0  0  0
    0.8808   -0.7765   -2.3078 H   0  0  0  0  0  0  0  0  0  0  0  0
   -0.0000   -2.3021   -2.3078 H   0  0  0  0  0  0  0  0  0  0  0  0
   -0.0000   -0.0645    0.0859 H   0  0  0  0  0  0  0  0  0  0  0  0
    0.8808   -1.7936    0.0067 H   0  0  0  0  0  0  0  0  0  0  0  0
   -0.8808   -1.7936    0.0067 H   0  0  0  0  0  0  0  0  0  0  0  0
  1  2  2  0
  1  3  1  0
  4  5  1  0
  4  6  1  0
  4  7  1  0
  4  8  1  0
  5  9  1  0
  5 10  1  0
  5 11  1  0
M  RAD  1   1   2
M  END
>  <reaction>  (9) 
rxn_325

>  <mol_properties>  (9) 
{"0": {"label": "*1", "atom_type": "CO"}, "1": {"label": "*0", "atom_type": "O2d"}, "3": {"label": "*4", "atom_type": "Cs"}, "4": {"label": "*3", "atom_type": "Cs"}, "8": {"label": "*2", "atom_type": "H0"}}

>  <type>  (9) 
unop_5

>  <geom_source>  (9) 
Heuristics

$$$$

     RDKit          3D

 11  9  0  0  0  0  0  0  0  0999 V2000
   -0.2598    1.0872    0.7991 C   0  0  0  0  0  3  0  0  0  0  0  0
    0.7541    1.6767    1.0286 O   0  0  0  0  0  0  0  0  0  0  0  0
   -1.1289    1.1274    1.4837 H   0  0  0  0  0  0  0  0  0  0  0  0
   -0.2598   -1.3714   -1.6805 C   0  0  0  0  0  0  0  0  0  0  0  0
   -0.2598   -1.3714   -0.1577 C   0  0  0  0  0  0  0  0  0  0  0  0
   -1.1406   -0.8628   -2.0764 H   0  0  0  0  0  0  0  0  0  0  0  0
    0.6211   -0.8629   -2.0764 H   0  0  0  0  0  0  0  0  0  0  0  0
   -0.2598   -2.3885   -2.0764 H   0  0  0  0  0  0  0  0  0  0  0  0
   -0.2598   -0.1509    0.3173 H   0  0  0  0  0  0  0  0  0  0  0  0
    0.6211   -1.8800    0.2381 H   0  0  0  0  0  0  0  0  0  0  0  0
   -1.1406   -1.8800    0.2381 H   0  0  0  0  0  0  0  0  0  0  0  0
  1  2  2  0
  1  3  1  0
  4  5  1  0
  4  6  1  0
  4  7  1  0
  4  8  1  0
  5  9  1  0
  5 10  1  0
  5 11  1  0
M  RAD  1   1   2
M  END
>  <reaction>  (10) 
rxn_325

>  <mol_properties>  (10) 
{"0": {"label": "*1", "atom_type": "CO"}, "1": {"label": "*0", "atom_type": "O2d"}, "3": {"label": "*4", "atom_type": "Cs"}, "4": {"label": "*3", "atom_type": "Cs"}, "8": {"label": "*2", "atom_type": "H0"}}

>  <type>  (10) 
unop_6

>  <geom_source>  (10) 
Heuristics

$$$$

     RDKit          3D

 11  9  0  0  0  0  0  0  0  0999 V2000
   -0.2196    1.1346    0.6789 C   0  0  0  0  0  3  0  0  0  0  0  0
    0.6584    1.5403    1.3807 O   0  0  0  0  0  0  0  0  0  0  0  0
   -1.2868    1.3141    0.9122 H   0  0  0  0  0  0  0  0  0  0  0  0
   -0.2196   -1.3240   -1.8008 C   0  0  0  0  0  0  0  0  0  0  0  0
   -0.2196   -1.3240   -0.2780 C   0  0  0  0  0  0  0  0  0  0  0  0
   -1.1005   -0.8154   -2.1966 H   0  0  0  0  0  0  0  0  0  0  0  0
    0.6612   -0.8154   -2.1966 H   0  0  0  0  0  0  0  0  0  0  0  0
   -0.2196   -2.3411   -2.1966 H   0  0  0  0  0  0  0  0  0  0  0  0
   -0.2196   -0.1034    0.1970 H   0  0  0  0  0  0  0  0  0  0  0  0
    0.6612   -1.8325    0.1179 H   0  0  0  0  0  0  0  0  0  0  0  0
   -1.1005   -1.8325    0.1179 H   0  0  0  0  0  0  0  0  0  0  0  0
  1  2  2  0
  1  3  1  0
  4  5  1  0
  4  6  1  0
  4  7  1  0
  4  8  1  0
  5  9  1  0
  5 10  1  0
  5 11  1  0
M  RAD  1   1   2
M  END
>  <reaction>  (11) 
rxn_325

>  <mol_properties>  (11) 
{"0": {"label": "*1", "atom_type": "CO"}, "1": {"label": "*0", "atom_type": "O2d"}, "3": {"label": "*4", "atom_type": "Cs"}, "4": {"label": "*3", "atom_type": "Cs"}, "8": {"label": "*2", "atom_type": "H0"}}

>  <type>  (11) 
unop_7

>  <geom_source>  (11) 
Heuristics

$$$$

     RDKit          3D

 11  9  0  0  0  0  0  0  0  0999 V2000
    0.2598    1.0872    0.7991 C   0  0  0  0  0  3  0  0  0  0  0  0
   -0.7541    1.6767    1.0286 O   0  0  0  0  0  0  0  0  0  0  0  0
    1.1289    1.1274    1.4837 H   0  0  0  0  0  0  0  0  0  0  0  0
    0.2598   -1.3714   -1.6805 C   0  0  0  0  0  0  0  0  0  0  0  0
    0.2598   -1.3714   -0.1577 C   0  0  0  0  0  0  0  0  0  0  0  0
   -0.6210   -0.8628   -2.0764 H   0  0  0  0  0  0  0  0  0  0  0  0
    1.1406   -0.8629   -2.0764 H   0  0  0  0  0  0  0  0  0  0  0  0
    0.2598   -2.3885   -2.0764 H   0  0  0  0  0  0  0  0  0  0  0  0
    0.2598   -0.1509    0.3173 H   0  0  0  0  0  0  0  0  0  0  0  0
    1.1406   -1.8800    0.2381 H   0  0  0  0  0  0  0  0  0  0  0  0
   -0.6211   -1.8800    0.2381 H   0  0  0  0  0  0  0  0  0  0  0  0
  1  2  2  0
  1  3  1  0
  4  5  1  0
  4  6  1  0
  4  7  1  0
  4  8  1  0
  5  9  1  0
  5 10  1  0
  5 11  1  0
M  RAD  1   1   2
M  END
>  <reaction>  (12) 
rxn_325

>  <mol_properties>  (12) 
{"0": {"label": "*1", "atom_type": "CO"}, "1": {"label": "*0", "atom_type": "O2d"}, "3": {"label": "*4", "atom_type": "Cs"}, "4": {"label": "*3", "atom_type": "Cs"}, "8": {"label": "*2", "atom_type": "H0"}}

>  <type>  (12) 
unop_8

>  <geom_source>  (12) 
Heuristics

$$$$

     RDKit          3D

 11  9  0  0  0  0  0  0  0  0999 V2000
   -0.1332    1.0005    1.0140 C   0  0  0  0  0  3  0  0  0  0  0  0
    0.3737    1.9086    0.4252 O   0  0  0  0  0  0  0  0  0  0  0  0
   -0.3743    1.0632    2.0927 H   0  0  0  0  0  0  0  0  0  0  0  0
   -0.1332   -1.4580   -1.4656 C   0  0  0  0  0  0  0  0  0  0  0  0
   -0.1332   -1.4580    0.0572 C   0  0  0  0  0  0  0  0  0  0  0  0
   -1.0140   -0.9495   -1.8614 H   0  0  0  0  0  0  0  0  0  0  0  0
    0.7476   -0.9495   -1.8614 H   0  0  0  0  0  0  0  0  0  0  0  0
   -0.1332   -2.4752   -1.8614 H   0  0  0  0  0  0  0  0  0  0  0  0
   -0.1332   -0.2375    0.5322 H   0  0  0  0  0  0  0  0  0  0  0  0
    0.7476   -1.9666    0.4530 H   0  0  0  0  0  0  0  0  0  0  0  0
   -1.0140   -1.9666    0.4530 H   0  0  0  0  0  0  0  0  0  0  0  0
  1  2  2  0
  1  3  1  0
  4  5  1  0
  4  6  1  0
  4  7  1  0
  4  8  1  0
  5  9  1  0
  5 10  1  0
  5 11  1  0
M  RAD  1   1   2
M  END
>  <reaction>  (13) 
rxn_325

>  <mol_properties>  (13) 
{"0": {"label": "*1", "atom_type": "CO"}, "1": {"label": "*0", "atom_type": "O2d"}, "3": {"label": "*4", "atom_type": "Cs"}, "4": {"label": "*3", "atom_type": "Cs"}, "8": {"label": "*2", "atom_type": "H0"}}

>  <type>  (13) 
unop_9

>  <geom_source>  (13) 
Heuristics

$$$$

     RDKit          3D

 11  9  0  0  0  0  0  0  0  0999 V2000
    0.2285    1.0377    0.9224 C   0  0  0  0  0  3  0  0  0  0  0  0
   -0.6496    1.8112    0.6794 O   0  0  0  0  0  0  0  0  0  0  0  0
    0.7766    1.0565    1.8841 H   0  0  0  0  0  0  0  0  0  0  0  0
    0.2285   -1.4208   -1.5573 C   0  0  0  0  0  0  0  0  0  0  0  0
    0.2285   -1.4208   -0.0345 C   0  0  0  0  0  0  0  0  0  0  0  0
   -0.6524   -0.9123   -1.9531 H   0  0  0  0  0  0  0  0  0  0  0  0
    1.1093   -0.9123   -1.9531 H   0  0  0  0  0  0  0  0  0  0  0  0
    0.2285   -2.4380   -1.9531 H   0  0  0  0  0  0  0  0  0  0  0  0
    0.2285   -0.2003    0.4405 H   0  0  0  0  0  0  0  0  0  0  0  0
    1.1093   -1.9294    0.3614 H   0  0  0  0  0  0  0  0  0  0  0  0
   -0.6524   -1.9294    0.3614 H   0  0  0  0  0  0  0  0  0  0  0  0
  1  2  2  0
  1  3  1  0
  4  5  1  0
  4  6  1  0
  4  7  1  0
  4  8  1  0
  5  9  1  0
  5 10  1  0
  5 11  1  0
M  RAD  1   1   2
M  END
>  <reaction>  (14) 
rxn_325

>  <mol_properties>  (14) 
{"0": {"label": "*1", "atom_type": "CO"}, "1": {"label": "*0", "atom_type": "O2d"}, "3": {"label": "*4", "atom_type": "Cs"}, "4": {"label": "*3", "atom_type": "Cs"}, "8": {"label": "*2", "atom_type": "H0"}}

>  <type>  (14) 
unop_10

>  <geom_source>  (14) 
Heuristics

$$$$

     RDKit          3D

 11  9  0  0  0  0  0  0  0  0999 V2000
   -0.1214    1.1658    0.5950 C   0  0  0  0  0  3  0  0  0  0  0  0
    0.3856    1.4370    1.6427 O   0  0  0  0  0  0  0  0  0  0  0  0
   -1.0562    1.6506    0.2534 H   0  0  0  0  0  0  0  0  0  0  0  0
   -0.1214   -1.2927   -1.8846 C   0  0  0  0  0  0  0  0  0  0  0  0
   -0.1214   -1.2927   -0.3618 C   0  0  0  0  0  0  0  0  0  0  0  0
   -1.0022   -0.7842   -2.2805 H   0  0  0  0  0  0  0  0  0  0  0  0
    0.7595   -0.7842   -2.2805 H   0  0  0  0  0  0  0  0  0  0  0  0
   -0.1214   -2.3098   -2.2805 H   0  0  0  0  0  0  0  0  0  0  0  0
   -0.1214   -0.0722    0.1132 H   0  0  0  0  0  0  0  0  0  0  0  0
    0.7595   -1.8013    0.0340 H   0  0  0  0  0  0  0  0  0  0  0  0
   -1.0022   -1.8013    0.0340 H   0  0  0  0  0  0  0  0  0  0  0  0
  1  2  2  0
  1  3  1  0
  4  5  1  0
  4  6  1  0
  4  7  1  0
  4  8  1  0
  5  9  1  0
  5 10  1  0
  5 11  1  0
M  RAD  1   1   2
M  END
>  <reaction>  (15) 
rxn_325

>  <mol_properties>  (15) 
{"0": {"label": "*1", "atom_type": "CO"}, "1": {"label": "*0", "atom_type": "O2d"}, "3": {"label": "*4", "atom_type": "Cs"}, "4": {"label": "*3", "atom_type": "Cs"}, "8": {"label": "*2", "atom_type": "H0"}}

>  <type>  (15) 
unop_11

>  <geom_source>  (15) 
Heuristics

$$$$

     RDKit          3D

 11  9  0  0  0  0  0  0  0  0999 V2000
   -0.0000    0.9867    1.0479 C   0  0  0  0  0  3  0  0  0  0  0  0
   -0.0000    1.9440    0.3325 O   0  0  0  0  0  0  0  0  0  0  0  0
   -0.0000    1.0794    2.1511 H   0  0  0  0  0  0  0  0  0  0  0  0
   -0.0000   -1.4719   -1.4317 C   0  0  0  0  0  0  0  0  0  0  0  0
   -0.0000   -1.4719    0.0911 C   0  0  0  0  0  0  0  0  0  0  0  0
   -0.8808   -0.9633   -1.8276 H   0  0  0  0  0  0  0  0  0  0  0  0
    0.8808   -0.9634   -1.8276 H   0  0  0  0  0  0  0  0  0  0  0  0
   -0.0000   -2.4890   -1.8276 H   0  0  0  0  0  0  0  0  0  0  0  0
   -0.0000   -0.2514    0.5661 H   0  0  0  0  0  0  0  0  0  0  0  0
    0.8808   -1.9805    0.4869 H   0  0  0  0  0  0  0  0  0  0  0  0
   -0.8808   -1.9805    0.4869 H   0  0  0  0  0  0  0  0  0  0  0  0
  1  2  2  0
  1  3  1  0
  4  5  1  0
  4  6  1  0
  4  7  1  0
  4  8  1  0
  5  9  1  0
  5 10  1  0
  5 11  1  0
M  RAD  1   1   2
M  END
>  <reaction>  (16) 
rxn_325

>  <mol_properties>  (16) 
{"0": {"label": "*1", "atom_type": "CO"}, "1": {"label": "*0", "atom_type": "O2d"}, "3": {"label": "*4", "atom_type": "Cs"}, "4": {"label": "*3", "atom_type": "Cs"}, "8": {"label": "*2", "atom_type": "H0"}}

>  <type>  (16) 
unop_12

>  <geom_source>  (16) 
Heuristics

$$$$

     RDKit          3D

 11  9  0  0  0  0  0  0  0  0999 V2000
   -2.6611    0.4259    0.8920 O   0  0  0  0  0  0  0  0  0  0  0  0
    1.2402    0.5242   -0.0911 C   0  0  0  0  0  0  0  0  0  0  0  0
    0.5007   -0.7855    0.1096 C   0  0  0  0  0  0  0  0  0  0  0  0
   -1.9189    0.1409   -0.0327 C   0  0  0  0  0  3  0  0  0  0  0  0
    2.3362    0.3466   -0.0736 H   0  0  0  0  0  0  0  0  0  0  0  0
    0.9701    1.2321    0.7200 H   0  0  0  0  0  0  0  0  0  0  0  0
    0.9554    0.9663   -1.0684 H   0  0  0  0  0  0  0  0  0  0  0  0
    0.7591   -1.4964   -0.7033 H   0  0  0  0  0  0  0  0  0  0  0  0
    0.7738   -1.2300    1.0898 H   0  0  0  0  0  0  0  0  0  0  0  0
   -2.1408    0.4925   -1.0342 H   0  0  0  0  0  0  0  0  0  0  0  0
   -0.8146   -0.6165    0.1919 H   0  0  0  0  0  0  0  0  0  0  0  0
  1  4  2  0
  2  3  1  0
  2  5  1  0
  2  6  1  0
  2  7  1  0
  3  8  1  0
  3  9  1  0
  3 11  1  0
  4 10  1  0
M  RAD  1   4   2
M  END
>  <reaction>  (17) 
rxn_325

>  <mol_properties>  (17) 
{"0": {"label": "*1", "atom_type": "CO"}, "1": {"label": "*0", "atom_type": "O2d"}, "3": {"label": "*4", "atom_type": "Cs"}, "4": {"label": "*3", "atom_type": "Cs"}, "8": {"label": "*2", "atom_type": "H0"}}

>  <type>  (17) 
unop_13

>  <geom_source>  (17) 
AutoTST

$$$$
