
     RDKit          3D

 14 13  0  0  0  0  0  0  0  0999 V2000
   -0.7647   -1.2352   -0.0349 C   0  0  0  0  0  0  0  0  0  0  0  0
    0.0570   -0.0126    0.3624 C   0  0  0  0  0  0  0  0  0  0  0  0
    1.4161   -0.0194   -0.3307 C   0  0  0  0  0  0  0  0  0  0  0  0
   -0.7022    1.2765    0.0630 C   0  0  0  0  0  0  0  0  0  0  0  0
   -0.2387   -2.1618    0.2040 H   0  0  0  0  0  0  0  0  0  0  0  0
   -0.9624   -1.2316   -1.1108 H   0  0  0  0  0  0  0  0  0  0  0  0
   -1.7273   -1.2512    0.4805 H   0  0  0  0  0  0  0  0  0  0  0  0
    0.2295   -0.0590    1.4432 H   0  0  0  0  0  0  0  0  0  0  0  0
    1.2933    0.0260   -1.4168 H   0  0  0  0  0  0  0  0  0  0  0  0
    2.0206    0.8381   -0.0279 H   0  0  0  0  0  0  0  0  0  0  0  0
    1.9767   -0.9268   -0.0966 H   0  0  0  0  0  0  0  0  0  0  0  0
   -1.6638    1.3002    0.5800 H   0  0  0  0  0  0  0  0  0  0  0  0
   -0.8978    1.3664   -1.0096 H   0  0  0  0  0  0  0  0  0  0  0  0
   -0.1313    2.1545    0.3721 H   0  0  0  0  0  0  0  0  0  0  0  0
  1  2  1  0
  1  5  1  0
  1  6  1  0
  1  7  1  0
  2  3  1  0
  2  4  1  0
  2  8  1  0
  3  9  1  0
  3 10  1  0
  3 11  1  0
  4 12  1  0
  4 13  1  0
  4 14  1  0
M  END
>  <reaction>  (1) 
rxn_301

>  <mol_properties>  (1) 
{"1": {"label": "donator", "atom_type": "Cs"}, "7": {"label": "d_hydrogen", "atom_type": "H0"}}

>  <type>  (1) 
r1h

$$$$

     RDKit          3D

  5  4  0  0  0  0  0  0  0  0999 V2000
   -0.0419    0.0056   -0.0340 C   0  0  0  0  0  0  0  0  0  0  0  0
    1.3118    0.0049   -0.1263 O   0  0  0  0  0  1  0  0  0  0  0  0
   -0.2615   -0.1535    1.0387 H   0  0  0  0  0  0  0  0  0  0  0  0
   -0.4946    0.9694   -0.3042 H   0  0  0  0  0  0  0  0  0  0  0  0
   -0.5138   -0.8264   -0.5743 H   0  0  0  0  0  0  0  0  0  0  0  0
  1  2  1  0
  1  3  1  0
  1  4  1  0
  1  5  1  0
M  RAD  1   2   2
M  END
>  <reaction>  (2) 
rxn_301

>  <mol_properties>  (2) 
{"1": {"label": "acceptor", "atom_type": "O2s"}}

>  <type>  (2) 
r2

$$$$

     RDKit          3D

  6  5  0  0  0  0  0  0  0  0999 V2000
   -0.3669    0.0060    0.0609 C   0  0  0  0  0  0  0  0  0  0  0  0
    0.9818   -0.0507    0.4695 O   0  0  0  0  0  0  0  0  0  0  0  0
   -0.6066    0.9462   -0.4488 H   0  0  0  0  0  0  0  0  0  0  0  0
   -0.5221   -0.8115   -0.6420 H   0  0  0  0  0  0  0  0  0  0  0  0
   -1.0602   -0.1268    0.8992 H   0  0  0  0  0  0  0  0  0  0  0  0
    1.1451    0.6595    1.0897 H   0  0  0  0  0  0  0  0  0  0  0  0
  1  2  1  0
  1  3  1  0
  1  4  1  0
  1  5  1  0
  2  6  1  0
M  END
>  <reaction>  (3) 
rxn_301

>  <mol_properties>  (3) 
{"1": {"label": "acceptor", "atom_type": "O2s"}, "5": {"label": "a_hydrogen", "atom_type": "H0"}}

>  <type>  (3) 
r2h

$$$$

     RDKit          3D

 19 17  0  0  0  0  0  0  0  0999 V2000
    2.2609   -0.7274   -0.0870 C   0  0  0  0  0  0  0  0  0  0  0  0
    1.1436   -1.3824    0.4090 O   0  0  0  0  0  1  0  0  0  0  0  0
    3.1102   -1.4054    0.0624 H   0  0  0  0  0  0  0  0  0  0  0  0
    2.4832    0.2059    0.4464 H   0  0  0  0  0  0  0  0  0  0  0  0
    2.1919   -0.5233   -1.1639 H   0  0  0  0  0  0  0  0  0  0  0  0
   -0.9343    0.0881   -1.6294 C   0  0  0  0  0  0  0  0  0  0  0  0
   -0.7808    0.1924   -0.1277 C   0  0  0  0  0  0  0  0  0  0  0  0
   -0.3027    1.5496    0.3395 C   0  0  0  0  0  0  0  0  0  0  0  0
   -1.9750   -0.3288    0.6434 C   0  0  0  0  0  0  0  0  0  0  0  0
   -0.0177    0.3828   -2.1442 H   0  0  0  0  0  0  0  0  0  0  0  0
   -1.7356    0.7501   -1.9762 H   0  0  0  0  0  0  0  0  0  0  0  0
   -1.1849   -0.9297   -1.9314 H   0  0  0  0  0  0  0  0  0  0  0  0
    0.1060   -0.5862    0.1566 H   0  0  0  0  0  0  0  0  0  0  0  0
   -1.0678    2.3091    0.1443 H   0  0  0  0  0  0  0  0  0  0  0  0
   -0.0971    1.5498    1.4112 H   0  0  0  0  0  0  0  0  0  0  0  0
    0.6050    1.8550   -0.1850 H   0  0  0  0  0  0  0  0  0  0  0  0
   -2.2233   -1.3483    0.3449 H   0  0  0  0  0  0  0  0  0  0  0  0
   -2.8516    0.3006    0.4531 H   0  0  0  0  0  0  0  0  0  0  0  0
   -1.7848   -0.3234    1.7176 H   0  0  0  0  0  0  0  0  0  0  0  0
  1  2  1  0
  1  3  1  0
  1  4  1  0
  1  5  1  0
  6  7  1  0
  6 10  1  0
  6 11  1  0
  6 12  1  0
  7  8  1  0
  7  9  1  0
  7 13  1  0
  8 14  1  0
  8 15  1  0
  8 16  1  0
  9 17  1  0
  9 18  1  0
  9 19  1  0
M  RAD  1   2   2
M  END
>  <reaction>  (4) 
rxn_301

>  <mol_properties>  (4) 
{"0": {"label": "*4", "atom_type": "Cs"}, "1": {"label": "*3", "atom_type": "O2s"}, "5": {"label": "*0", "atom_type": "Cs"}, "6": {"label": "*1", "atom_type": "Cs"}, "12": {"label": "*2", "atom_type": "H0"}}

>  <type>  (4) 
ts

$$$$

     RDKit          3D

 19 17  0  0  0  0  0  0  0  0999 V2000
    2.1564   -0.0714    1.2031 C   0  0  0  0  0  0  0  0  0  0  0  0
    1.4134   -0.9861    0.4283 O   0  0  0  0  0  0  0  0  0  0  0  0
    2.5288   -0.6159    2.0698 H   0  0  0  0  0  0  0  0  0  0  0  0
    1.5429    0.7635    1.5608 H   0  0  0  0  0  0  0  0  0  0  0  0
    3.0164    0.3324    0.6568 H   0  0  0  0  0  0  0  0  0  0  0  0
   -0.6545    0.1163   -1.8555 C   0  0  0  0  0  0  0  0  0  0  0  0
   -0.6545    0.1163   -0.3298 C   0  0  0  0  0  3  0  0  0  0  0  0
   -0.6545    1.5409    0.2163 C   0  0  0  0  0  0  0  0  0  0  0  0
   -1.8373   -0.6778    0.2163 C   0  0  0  0  0  0  0  0  0  0  0  0
    0.2063    0.6585   -2.2525 H   0  0  0  0  0  0  0  0  0  0  0  0
   -1.5584    0.5983   -2.2393 H   0  0  0  0  0  0  0  0  0  0  0  0
   -0.6251   -0.9006   -2.2525 H   0  0  0  0  0  0  0  0  0  0  0  0
    0.4492   -0.4721    0.0749 H   0  0  0  0  0  0  0  0  0  0  0  0
   -1.5585    2.0718   -0.0964 H   0  0  0  0  0  0  0  0  0  0  0  0
   -0.6250    1.5478    1.3079 H   0  0  0  0  0  0  0  0  0  0  0  0
    0.2062    2.1058   -0.1480 H   0  0  0  0  0  0  0  0  0  0  0  0
   -1.8266   -1.7072   -0.1480 H   0  0  0  0  0  0  0  0  0  0  0  0
   -2.7819   -0.2231   -0.0964 H   0  0  0  0  0  0  0  0  0  0  0  0
   -1.8265   -0.7060    1.3079 H   0  0  0  0  0  0  0  0  0  0  0  0
  1  2  1  0
  1  3  1  0
  1  4  1  0
  1  5  1  0
  2 13  1  0
  6  7  1  0
  6 10  1  0
  6 11  1  0
  6 12  1  0
  7  8  1  0
  7  9  1  0
  8 14  1  0
  8 15  1  0
  8 16  1  0
  9 17  1  0
  9 18  1  0
  9 19  1  0
M  RAD  1   7   2
M  END
>  <reaction>  (5) 
rxn_301

>  <mol_properties>  (5) 
{"0": {"label": "*4", "atom_type": "Cs"}, "1": {"label": "*3", "atom_type": "O2s"}, "5": {"label": "*0", "atom_type": "Cs"}, "6": {"label": "*1", "atom_type": "Cs"}, "12": {"label": "*2", "atom_type": "H0"}}

>  <type>  (5) 
unop_1

>  <geom_source>  (5) 
Heuristics

$$$$

     RDKit          3D

 19 17  0  0  0  0  0  0  0  0999 V2000
    2.3743   -0.6437   -0.2242 C   0  0  0  0  0  0  0  0  0  0  0  0
    1.3658   -0.8628    0.7370 O   0  0  0  0  0  0  0  0  0  0  0  0
    3.3297   -0.8082    0.2724 H   0  0  0  0  0  0  0  0  0  0  0  0
    2.3620    0.3813   -0.6120 H   0  0  0  0  0  0  0  0  0  0  0  0
    2.3021   -1.3401   -1.0673 H   0  0  0  0  0  0  0  0  0  0  0  0
   -0.7021    0.2396   -1.5468 C   0  0  0  0  0  0  0  0  0  0  0  0
   -0.7021    0.2396   -0.0211 C   0  0  0  0  0  3  0  0  0  0  0  0
   -0.7021    1.6642    0.5250 C   0  0  0  0  0  0  0  0  0  0  0  0
   -1.8850   -0.5545    0.5250 C   0  0  0  0  0  0  0  0  0  0  0  0
    0.1587    0.7818   -1.9438 H   0  0  0  0  0  0  0  0  0  0  0  0
   -1.6060    0.7216   -1.9306 H   0  0  0  0  0  0  0  0  0  0  0  0
   -0.6727   -0.7773   -1.9438 H   0  0  0  0  0  0  0  0  0  0  0  0
    0.4016   -0.3488    0.3836 H   0  0  0  0  0  0  0  0  0  0  0  0
   -1.6061    2.1951    0.2123 H   0  0  0  0  0  0  0  0  0  0  0  0
   -0.6726    1.6711    1.6166 H   0  0  0  0  0  0  0  0  0  0  0  0
    0.1586    2.2291    0.1607 H   0  0  0  0  0  0  0  0  0  0  0  0
   -1.8742   -1.5839    0.1607 H   0  0  0  0  0  0  0  0  0  0  0  0
   -2.8295   -0.0998    0.2123 H   0  0  0  0  0  0  0  0  0  0  0  0
   -1.8742   -0.5827    1.6166 H   0  0  0  0  0  0  0  0  0  0  0  0
  1  2  1  0
  1  3  1  0
  1  4  1  0
  1  5  1  0
  2 13  1  0
  6  7  1  0
  6 10  1  0
  6 11  1  0
  6 12  1  0
  7  8  1  0
  7  9  1  0
  8 14  1  0
  8 15  1  0
  8 16  1  0
  9 17  1  0
  9 18  1  0
  9 19  1  0
M  RAD  1   7   2
M  END
>  <reaction>  (6) 
rxn_301

>  <mol_properties>  (6) 
{"0": {"label": "*4", "atom_type": "Cs"}, "1": {"label": "*3", "atom_type": "O2s"}, "5": {"label": "*0", "atom_type": "Cs"}, "6": {"label": "*1", "atom_type": "Cs"}, "12": {"label": "*2", "atom_type": "H0"}}

>  <type>  (6) 
unop_2

>  <geom_source>  (6) 
Heuristics

$$$$

     RDKit          3D

 19 17  0  0  0  0  0  0  0  0999 V2000
    1.8579   -0.3677    1.5859 C   0  0  0  0  0  0  0  0  0  0  0  0
    1.4778   -0.9219    0.3459 O   0  0  0  0  0  0  0  0  0  0  0  0
    2.3513   -1.1577    2.1507 H   0  0  0  0  0  0  0  0  0  0  0  0
    0.9960   -0.0189    2.1660 H   0  0  0  0  0  0  0  0  0  0  0  0
    2.5638    0.4626    1.4702 H   0  0  0  0  0  0  0  0  0  0  0  0
   -0.5901    0.1805   -1.9379 C   0  0  0  0  0  0  0  0  0  0  0  0
   -0.5901    0.1805   -0.4122 C   0  0  0  0  0  3  0  0  0  0  0  0
   -0.5901    1.6052    0.1339 C   0  0  0  0  0  0  0  0  0  0  0  0
   -1.7730   -0.6135    0.1339 C   0  0  0  0  0  0  0  0  0  0  0  0
    0.2706    0.7227   -2.3349 H   0  0  0  0  0  0  0  0  0  0  0  0
   -1.4940    0.6626   -2.3217 H   0  0  0  0  0  0  0  0  0  0  0  0
   -0.5607   -0.8363   -2.3349 H   0  0  0  0  0  0  0  0  0  0  0  0
    0.5136   -0.4078   -0.0076 H   0  0  0  0  0  0  0  0  0  0  0  0
   -1.4941    2.1360   -0.1788 H   0  0  0  0  0  0  0  0  0  0  0  0
   -0.5606    1.6120    1.2255 H   0  0  0  0  0  0  0  0  0  0  0  0
    0.2706    2.1700   -0.2304 H   0  0  0  0  0  0  0  0  0  0  0  0
   -1.7622   -1.6429   -0.2304 H   0  0  0  0  0  0  0  0  0  0  0  0
   -2.7176   -0.1588   -0.1788 H   0  0  0  0  0  0  0  0  0  0  0  0
   -1.7622   -0.6418    1.2255 H   0  0  0  0  0  0  0  0  0  0  0  0
  1  2  1  0
  1  3  1  0
  1  4  1  0
  1  5  1  0
  2 13  1  0
  6  7  1  0
  6 10  1  0
  6 11  1  0
  6 12  1  0
  7  8  1  0
  7  9  1  0
  8 14  1  0
  8 15  1  0
  8 16  1  0
  9 17  1  0
  9 18  1  0
  9 19  1  0
M  RAD  1   7   2
M  END
>  <reaction>  (7) 
rxn_301

>  <mol_properties>  (7) 
{"0": {"label": "*4", "atom_type": "Cs"}, "1": {"label": "*3", "atom_type": "O2s"}, "5": {"label": "*0", "atom_type": "Cs"}, "6": {"label": "*1", "atom_type": "Cs"}, "12": {"label": "*2", "atom_type": "H0"}}

>  <type>  (7) 
unop_3

>  <geom_source>  (7) 
Heuristics

$$$$

     RDKit          3D

 19 17  0  0  0  0  0  0  0  0999 V2000
    1.5596   -1.9092    0.1581 C   0  0  0  0  0  0  0  0  0  0  0  0
    1.5422   -0.5890    0.6542 O   0  0  0  0  0  0  0  0  0  0  0  0
    2.0392   -2.5283    0.9151 H   0  0  0  0  0  0  0  0  0  0  0  0
    2.1354   -1.9958   -0.7704 H   0  0  0  0  0  0  0  0  0  0  0  0
    0.5507   -2.3004   -0.0154 H   0  0  0  0  0  0  0  0  0  0  0  0
   -0.5257    0.5134   -1.6296 C   0  0  0  0  0  0  0  0  0  0  0  0
   -0.5257    0.5134   -0.1039 C   0  0  0  0  0  3  0  0  0  0  0  0
   -0.5257    1.9381    0.4421 C   0  0  0  0  0  0  0  0  0  0  0  0
   -1.7085   -0.2806    0.4422 C   0  0  0  0  0  0  0  0  0  0  0  0
    0.3351    1.0556   -2.0266 H   0  0  0  0  0  0  0  0  0  0  0  0
   -1.4296    0.9954   -2.0134 H   0  0  0  0  0  0  0  0  0  0  0  0
   -0.4963   -0.5035   -2.0266 H   0  0  0  0  0  0  0  0  0  0  0  0
    0.5780   -0.0750    0.3007 H   0  0  0  0  0  0  0  0  0  0  0  0
   -1.4297    2.4689    0.1295 H   0  0  0  0  0  0  0  0  0  0  0  0
   -0.4962    1.9449    1.5337 H   0  0  0  0  0  0  0  0  0  0  0  0
    0.3350    2.5029    0.0779 H   0  0  0  0  0  0  0  0  0  0  0  0
   -1.6977   -1.3101    0.0779 H   0  0  0  0  0  0  0  0  0  0  0  0
   -2.6531    0.1740    0.1295 H   0  0  0  0  0  0  0  0  0  0  0  0
   -1.6977   -0.3089    1.5338 H   0  0  0  0  0  0  0  0  0  0  0  0
  1  2  1  0
  1  3  1  0
  1  4  1  0
  1  5  1  0
  2 13  1  0
  6  7  1  0
  6 10  1  0
  6 11  1  0
  6 12  1  0
  7  8  1  0
  7  9  1  0
  8 14  1  0
  8 15  1  0
  8 16  1  0
  9 17  1  0
  9 18  1  0
  9 19  1  0
M  RAD  1   7   2
M  END
>  <reaction>  (8) 
rxn_301

>  <mol_properties>  (8) 
{"0": {"label": "*4", "atom_type": "Cs"}, "1": {"label": "*3", "atom_type": "O2s"}, "5": {"label": "*0", "atom_type": "Cs"}, "6": {"label": "*1", "atom_type": "Cs"}, "12": {"label": "*2", "atom_type": "H0"}}

>  <type>  (8) 
unop_4

>  <geom_source>  (8) 
Heuristics

$$$$

     RDKit          3D

 19 17  0  0  0  0  0  0  0  0999 V2000
    1.5593   -0.8313    1.7261 C   0  0  0  0  0  0  0  0  0  0  0  0
    1.5419   -0.8220    0.3159 O   0  0  0  0  0  0  0  0  0  0  0  0
    2.4821   -1.3233    2.0307 H   0  0  0  0  0  0  0  0  0  0  0  0
    0.7171   -1.3918    2.1476 H   0  0  0  0  0  0  0  0  0  0  0  0
    1.5552    0.1804    2.1476 H   0  0  0  0  0  0  0  0  0  0  0  0
   -0.5260    0.2804   -1.9679 C   0  0  0  0  0  0  0  0  0  0  0  0
   -0.5260    0.2804   -0.4422 C   0  0  0  0  0  3  0  0  0  0  0  0
   -0.5260    1.7051    0.1038 C   0  0  0  0  0  0  0  0  0  0  0  0
   -1.7088   -0.5136    0.1038 C   0  0  0  0  0  0  0  0  0  0  0  0
    0.3348    0.8226   -2.3649 H   0  0  0  0  0  0  0  0  0  0  0  0
   -1.4299    0.7625   -2.3517 H   0  0  0  0  0  0  0  0  0  0  0  0
   -0.4966   -0.7364   -2.3650 H   0  0  0  0  0  0  0  0  0  0  0  0
    0.5777   -0.3080   -0.0376 H   0  0  0  0  0  0  0  0  0  0  0  0
   -1.4300    2.2359   -0.2088 H   0  0  0  0  0  0  0  0  0  0  0  0
   -0.4965    1.7119    1.1954 H   0  0  0  0  0  0  0  0  0  0  0  0
    0.3347    2.2699   -0.2605 H   0  0  0  0  0  0  0  0  0  0  0  0
   -1.6981   -1.5431   -0.2604 H   0  0  0  0  0  0  0  0  0  0  0  0
   -2.6534   -0.0590   -0.2088 H   0  0  0  0  0  0  0  0  0  0  0  0
   -1.6980   -0.5419    1.1954 H   0  0  0  0  0  0  0  0  0  0  0  0
  1  2  1  0
  1  3  1  0
  1  4  1  0
  1  5  1  0
  2 13  1  0
  6  7  1  0
  6 10  1  0
  6 11  1  0
  6 12  1  0
  7  8  1  0
  7  9  1  0
  8 14  1  0
  8 15  1  0
  8 16  1  0
  9 17  1  0
  9 18  1  0
  9 19  1  0
M  RAD  1   7   2
M  END
>  <reaction>  (9) 
rxn_301

>  <mol_properties>  (9) 
{"0": {"label": "*4", "atom_type": "Cs"}, "1": {"label": "*3", "atom_type": "O2s"}, "5": {"label": "*0", "atom_type": "Cs"}, "6": {"label": "*1", "atom_type": "Cs"}, "12": {"label": "*2", "atom_type": "H0"}}

>  <type>  (9) 
unop_5

>  <geom_source>  (9) 
Heuristics

$$$$

     RDKit          3D

 19 17  0  0  0  0  0  0  0  0999 V2000
    1.3412   -1.9597    0.6805 C   0  0  0  0  0  0  0  0  0  0  0  0
    1.5894   -0.5784    0.5412 O   0  0  0  0  0  0  0  0  0  0  0  0
    1.8190   -2.2780    1.6062 H   0  0  0  0  0  0  0  0  0  0  0  0
    1.7680   -2.5430   -0.1434 H   0  0  0  0  0  0  0  0  0  0  0  0
    0.2708   -2.1836    0.7530 H   0  0  0  0  0  0  0  0  0  0  0  0
   -0.4785    0.5240   -1.7426 C   0  0  0  0  0  0  0  0  0  0  0  0
   -0.4785    0.5240   -0.2169 C   0  0  0  0  0  3  0  0  0  0  0  0
   -0.4785    1.9487    0.3291 C   0  0  0  0  0  0  0  0  0  0  0  0
   -1.6613   -0.2700    0.3291 C   0  0  0  0  0  0  0  0  0  0  0  0
    0.3823    1.0662   -2.1396 H   0  0  0  0  0  0  0  0  0  0  0  0
   -1.3824    1.0061   -2.1264 H   0  0  0  0  0  0  0  0  0  0  0  0
   -0.4491   -0.4928   -2.1397 H   0  0  0  0  0  0  0  0  0  0  0  0
    0.6252   -0.0643    0.1877 H   0  0  0  0  0  0  0  0  0  0  0  0
   -1.3825    2.4795    0.0165 H   0  0  0  0  0  0  0  0  0  0  0  0
   -0.4490    1.9555    1.4207 H   0  0  0  0  0  0  0  0  0  0  0  0
    0.3822    2.5135   -0.0352 H   0  0  0  0  0  0  0  0  0  0  0  0
   -1.6505   -1.2994   -0.0351 H   0  0  0  0  0  0  0  0  0  0  0  0
   -2.6059    0.1847    0.0165 H   0  0  0  0  0  0  0  0  0  0  0  0
   -1.6505   -0.2983    1.4208 H   0  0  0  0  0  0  0  0  0  0  0  0
  1  2  1  0
  1  3  1  0
  1  4  1  0
  1  5  1  0
  2 13  1  0
  6  7  1  0
  6 10  1  0
  6 11  1  0
  6 12  1  0
  7  8  1  0
  7  9  1  0
  8 14  1  0
  8 15  1  0
  8 16  1  0
  9 17  1  0
  9 18  1  0
  9 19  1  0
M  RAD  1   7   2
M  END
>  <reaction>  (10) 
rxn_301

>  <mol_properties>  (10) 
{"0": {"label": "*4", "atom_type": "Cs"}, "1": {"label": "*3", "atom_type": "O2s"}, "5": {"label": "*0", "atom_type": "Cs"}, "6": {"label": "*1", "atom_type": "Cs"}, "12": {"label": "*2", "atom_type": "H0"}}

>  <type>  (10) 
unop_6

>  <geom_source>  (10) 
Heuristics

$$$$

     RDKit          3D

 19 17  0  0  0  0  0  0  0  0999 V2000
    1.2611   -1.7506    1.2031 C   0  0  0  0  0  0  0  0  0  0  0  0
    1.6065   -0.6239    0.4283 O   0  0  0  0  0  0  0  0  0  0  0  0
    1.9209   -1.7563    2.0698 H   0  0  0  0  0  0  0  0  0  0  0  0
    1.4052   -2.6897    0.6568 H   0  0  0  0  0  0  0  0  0  0  0  0
    0.2261   -1.7065    1.5608 H   0  0  0  0  0  0  0  0  0  0  0  0
   -0.4613    0.4786   -1.8555 C   0  0  0  0  0  0  0  0  0  0  0  0
   -0.4613    0.4786   -0.3298 C   0  0  0  0  0  3  0  0  0  0  0  0
   -0.4613    1.9032    0.2163 C   0  0  0  0  0  0  0  0  0  0  0  0
   -1.6442   -0.3155    0.2163 C   0  0  0  0  0  0  0  0  0  0  0  0
    0.3994    1.0208   -2.2525 H   0  0  0  0  0  0  0  0  0  0  0  0
   -1.3653    0.9606   -2.2393 H   0  0  0  0  0  0  0  0  0  0  0  0
   -0.4319   -0.5383   -2.2525 H   0  0  0  0  0  0  0  0  0  0  0  0
    0.6423   -0.1098    0.0749 H   0  0  0  0  0  0  0  0  0  0  0  0
   -1.3653    2.4341   -0.0964 H   0  0  0  0  0  0  0  0  0  0  0  0
   -0.4318    1.9101    1.3079 H   0  0  0  0  0  0  0  0  0  0  0  0
    0.3993    2.4681   -0.1480 H   0  0  0  0  0  0  0  0  0  0  0  0
   -1.6334   -1.3449   -0.1480 H   0  0  0  0  0  0  0  0  0  0  0  0
   -2.5888    0.1392   -0.0964 H   0  0  0  0  0  0  0  0  0  0  0  0
   -1.6334   -0.3438    1.3079 H   0  0  0  0  0  0  0  0  0  0  0  0
  1  2  1  0
  1  3  1  0
  1  4  1  0
  1  5  1  0
  2 13  1  0
  6  7  1  0
  6 10  1  0
  6 11  1  0
  6 12  1  0
  7  8  1  0
  7  9  1  0
  8 14  1  0
  8 15  1  0
  8 16  1  0
  9 17  1  0
  9 18  1  0
  9 19  1  0
M  RAD  1   7   2
M  END
>  <reaction>  (11) 
rxn_301

>  <mol_properties>  (11) 
{"0": {"label": "*4", "atom_type": "Cs"}, "1": {"label": "*3", "atom_type": "O2s"}, "5": {"label": "*0", "atom_type": "Cs"}, "6": {"label": "*1", "atom_type": "Cs"}, "12": {"label": "*2", "atom_type": "H0"}}

>  <type>  (11) 
unop_7

>  <geom_source>  (11) 
Heuristics

$$$$

     RDKit          3D

 19 17  0  0  0  0  0  0  0  0999 V2000
    2.3746   -0.0213    0.6805 C   0  0  0  0  0  0  0  0  0  0  0  0
    1.3661   -0.9973    0.5412 O   0  0  0  0  0  0  0  0  0  0  0  0
    2.9052   -0.2405    1.6062 H   0  0  0  0  0  0  0  0  0  0  0  0
    1.9639    0.9922    0.7530 H   0  0  0  0  0  0  0  0  0  0  0  0
    3.0968   -0.0505   -0.1433 H   0  0  0  0  0  0  0  0  0  0  0  0
   -0.7018    0.1052   -1.7426 C   0  0  0  0  0  0  0  0  0  0  0  0
   -0.7018    0.1052   -0.2169 C   0  0  0  0  0  3  0  0  0  0  0  0
   -0.7018    1.5298    0.3291 C   0  0  0  0  0  0  0  0  0  0  0  0
   -1.8846   -0.6889    0.3291 C   0  0  0  0  0  0  0  0  0  0  0  0
    0.1590    0.6474   -2.1396 H   0  0  0  0  0  0  0  0  0  0  0  0
   -1.6057    0.5872   -2.1264 H   0  0  0  0  0  0  0  0  0  0  0  0
   -0.6724   -0.9117   -2.1397 H   0  0  0  0  0  0  0  0  0  0  0  0
    0.4019   -0.4832    0.1877 H   0  0  0  0  0  0  0  0  0  0  0  0
   -1.6058    2.0607    0.0165 H   0  0  0  0  0  0  0  0  0  0  0  0
   -0.6723    1.5367    1.4207 H   0  0  0  0  0  0  0  0  0  0  0  0
    0.1589    2.0946   -0.0352 H   0  0  0  0  0  0  0  0  0  0  0  0
   -1.8739   -1.7183   -0.0351 H   0  0  0  0  0  0  0  0  0  0  0  0
   -2.8292   -0.2342    0.0165 H   0  0  0  0  0  0  0  0  0  0  0  0
   -1.8738   -0.7172    1.4208 H   0  0  0  0  0  0  0  0  0  0  0  0
  1  2  1  0
  1  3  1  0
  1  4  1  0
  1  5  1  0
  2 13  1  0
  6  7  1  0
  6 10  1  0
  6 11  1  0
  6 12  1  0
  7  8  1  0
  7  9  1  0
  8 14  1  0
  8 15  1  0
  8 16  1  0
  9 17  1  0
  9 18  1  0
  9 19  1  0
M  RAD  1   7   2
M  END
>  <reaction>  (12) 
rxn_301

>  <mol_properties>  (12) 
{"0": {"label": "*4", "atom_type": "Cs"}, "1": {"label": "*3", "atom_type": "O2s"}, "5": {"label": "*0", "atom_type": "Cs"}, "6": {"label": "*1", "atom_type": "Cs"}, "12": {"label": "*2", "atom_type": "H0"}}

>  <type>  (12) 
unop_8

>  <geom_source>  (12) 
Heuristics

$$$$

     RDKit          3D

 19 17  0  0  0  0  0  0  0  0999 V2000
    1.8578   -1.6125   -0.2242 C   0  0  0  0  0  0  0  0  0  0  0  0
    1.4776   -0.6530    0.7370 O   0  0  0  0  0  0  0  0  0  0  0  0
    2.5270   -2.3140    0.2724 H   0  0  0  0  0  0  0  0  0  0  0  0
    2.3958   -1.1644   -1.0674 H   0  0  0  0  0  0  0  0  0  0  0  0
    0.9999   -2.1736   -0.6120 H   0  0  0  0  0  0  0  0  0  0  0  0
   -0.5903    0.4494   -1.5468 C   0  0  0  0  0  0  0  0  0  0  0  0
   -0.5903    0.4494   -0.0211 C   0  0  0  0  0  3  0  0  0  0  0  0
   -0.5903    1.8741    0.5250 C   0  0  0  0  0  0  0  0  0  0  0  0
   -1.7731   -0.3447    0.5250 C   0  0  0  0  0  0  0  0  0  0  0  0
    0.2705    0.9916   -1.9438 H   0  0  0  0  0  0  0  0  0  0  0  0
   -1.4942    0.9314   -1.9306 H   0  0  0  0  0  0  0  0  0  0  0  0
   -0.5609   -0.5675   -1.9438 H   0  0  0  0  0  0  0  0  0  0  0  0
    0.5134   -0.1390    0.3836 H   0  0  0  0  0  0  0  0  0  0  0  0
   -1.4942    2.4049    0.2123 H   0  0  0  0  0  0  0  0  0  0  0  0
   -0.5608    1.8809    1.6166 H   0  0  0  0  0  0  0  0  0  0  0  0
    0.2704    2.4389    0.1607 H   0  0  0  0  0  0  0  0  0  0  0  0
   -1.7623   -1.3741    0.1607 H   0  0  0  0  0  0  0  0  0  0  0  0
   -2.7177    0.1100    0.2123 H   0  0  0  0  0  0  0  0  0  0  0  0
   -1.7623   -0.3729    1.6166 H   0  0  0  0  0  0  0  0  0  0  0  0
  1  2  1  0
  1  3  1  0
  1  4  1  0
  1  5  1  0
  2 13  1  0
  6  7  1  0
  6 10  1  0
  6 11  1  0
  6 12  1  0
  7  8  1  0
  7  9  1  0
  8 14  1  0
  8 15  1  0
  8 16  1  0
  9 17  1  0
  9 18  1  0
  9 19  1  0
M  RAD  1   7   2
M  END
>  <reaction>  (13) 
rxn_301

>  <mol_properties>  (13) 
{"0": {"label": "*4", "atom_type": "Cs"}, "1": {"label": "*3", "atom_type": "O2s"}, "5": {"label": "*0", "atom_type": "Cs"}, "6": {"label": "*1", "atom_type": "Cs"}, "12": {"label": "*2", "atom_type": "H0"}}

>  <type>  (13) 
unop_9

>  <geom_source>  (13) 
Heuristics

$$$$

     RDKit          3D

 19 17  0  0  0  0  0  0  0  0999 V2000
    2.4544   -0.2308    0.1581 C   0  0  0  0  0  0  0  0  0  0  0  0
    1.3486   -0.9522    0.6542 O   0  0  0  0  0  0  0  0  0  0  0  0
    3.2357   -0.2839    0.9152 H   0  0  0  0  0  0  0  0  0  0  0  0
    2.2168    0.8250   -0.0154 H   0  0  0  0  0  0  0  0  0  0  0  0
    2.8473   -0.6605   -0.7704 H   0  0  0  0  0  0  0  0  0  0  0  0
   -0.7193    0.1503   -1.6296 C   0  0  0  0  0  0  0  0  0  0  0  0
   -0.7193    0.1503   -0.1039 C   0  0  0  0  0  3  0  0  0  0  0  0
   -0.7193    1.5749    0.4421 C   0  0  0  0  0  0  0  0  0  0  0  0
   -1.9021   -0.6438    0.4422 C   0  0  0  0  0  0  0  0  0  0  0  0
    0.1415    0.6925   -2.0266 H   0  0  0  0  0  0  0  0  0  0  0  0
   -1.6232    0.6323   -2.0134 H   0  0  0  0  0  0  0  0  0  0  0  0
   -0.6898   -0.8666   -2.0266 H   0  0  0  0  0  0  0  0  0  0  0  0
    0.3844   -0.4381    0.3007 H   0  0  0  0  0  0  0  0  0  0  0  0
   -1.6232    2.1058    0.1295 H   0  0  0  0  0  0  0  0  0  0  0  0
   -0.6898    1.5818    1.5337 H   0  0  0  0  0  0  0  0  0  0  0  0
    0.1414    2.1398    0.0779 H   0  0  0  0  0  0  0  0  0  0  0  0
   -1.8913   -1.6732    0.0779 H   0  0  0  0  0  0  0  0  0  0  0  0
   -2.8467   -0.1891    0.1295 H   0  0  0  0  0  0  0  0  0  0  0  0
   -1.8913   -0.6721    1.5338 H   0  0  0  0  0  0  0  0  0  0  0  0
  1  2  1  0
  1  3  1  0
  1  4  1  0
  1  5  1  0
  2 13  1  0
  6  7  1  0
  6 10  1  0
  6 11  1  0
  6 12  1  0
  7  8  1  0
  7  9  1  0
  8 14  1  0
  8 15  1  0
  8 16  1  0
  9 17  1  0
  9 18  1  0
  9 19  1  0
M  RAD  1   7   2
M  END
>  <reaction>  (14) 
rxn_301

>  <mol_properties>  (14) 
{"0": {"label": "*4", "atom_type": "Cs"}, "1": {"label": "*3", "atom_type": "O2s"}, "5": {"label": "*0", "atom_type": "Cs"}, "6": {"label": "*1", "atom_type": "Cs"}, "12": {"label": "*2", "atom_type": "H0"}}

>  <type>  (14) 
unop_10

>  <geom_source>  (14) 
Heuristics

$$$$

     RDKit          3D

 19 17  0  0  0  0  0  0  0  0999 V2000
    1.3409   -1.3376    1.5859 C   0  0  0  0  0  0  0  0  0  0  0  0
    1.5891   -0.7131    0.3459 O   0  0  0  0  0  0  0  0  0  0  0  0
    2.2717   -1.3069    2.1507 H   0  0  0  0  0  0  0  0  0  0  0  0
    1.0449   -2.3865    1.4701 H   0  0  0  0  0  0  0  0  0  0  0  0
    0.5709   -0.8164    2.1660 H   0  0  0  0  0  0  0  0  0  0  0  0
   -0.4788    0.3893   -1.9379 C   0  0  0  0  0  0  0  0  0  0  0  0
   -0.4788    0.3893   -0.4122 C   0  0  0  0  0  3  0  0  0  0  0  0
   -0.4788    1.8140    0.1339 C   0  0  0  0  0  0  0  0  0  0  0  0
   -1.6617   -0.4047    0.1339 C   0  0  0  0  0  0  0  0  0  0  0  0
    0.3819    0.9315   -2.3349 H   0  0  0  0  0  0  0  0  0  0  0  0
   -1.3827    0.8714   -2.3217 H   0  0  0  0  0  0  0  0  0  0  0  0
   -0.4494   -0.6275   -2.3349 H   0  0  0  0  0  0  0  0  0  0  0  0
    0.6249   -0.1991   -0.0076 H   0  0  0  0  0  0  0  0  0  0  0  0
   -1.3828    2.3448   -0.1788 H   0  0  0  0  0  0  0  0  0  0  0  0
   -0.4493    1.8208    1.2255 H   0  0  0  0  0  0  0  0  0  0  0  0
    0.3819    2.3788   -0.2304 H   0  0  0  0  0  0  0  0  0  0  0  0
   -1.6509   -1.4341   -0.2304 H   0  0  0  0  0  0  0  0  0  0  0  0
   -2.6063    0.0499   -0.1788 H   0  0  0  0  0  0  0  0  0  0  0  0
   -1.6509   -0.4330    1.2255 H   0  0  0  0  0  0  0  0  0  0  0  0
  1  2  1  0
  1  3  1  0
  1  4  1  0
  1  5  1  0
  2 13  1  0
  6  7  1  0
  6 10  1  0
  6 11  1  0
  6 12  1  0
  7  8  1  0
  7  9  1  0
  8 14  1  0
  8 15  1  0
  8 16  1  0
  9 17  1  0
  9 18  1  0
  9 19  1  0
M  RAD  1   7   2
M  END
>  <reaction>  (15) 
rxn_301

>  <mol_properties>  (15) 
{"0": {"label": "*4", "atom_type": "Cs"}, "1": {"label": "*3", "atom_type": "O2s"}, "5": {"label": "*0", "atom_type": "Cs"}, "6": {"label": "*1", "atom_type": "Cs"}, "12": {"label": "*2", "atom_type": "H0"}}

>  <type>  (15) 
unop_11

>  <geom_source>  (15) 
Heuristics

$$$$

     RDKit          3D

 19 17  0  0  0  0  0  0  0  0999 V2000
    2.1560   -1.1494   -0.3641 C   0  0  0  0  0  0  0  0  0  0  0  0
    1.4130   -0.7533    0.7674 O   0  0  0  0  0  0  0  0  0  0  0  0
    3.0614   -1.6320    0.0015 H   0  0  0  0  0  0  0  0  0  0  0  0
    2.4499   -0.2966   -0.9866 H   0  0  0  0  0  0  0  0  0  0  0  0
    1.6118   -1.8688   -0.9866 H   0  0  0  0  0  0  0  0  0  0  0  0
   -0.6549    0.3491   -1.5164 C   0  0  0  0  0  0  0  0  0  0  0  0
   -0.6549    0.3491    0.0093 C   0  0  0  0  0  3  0  0  0  0  0  0
   -0.6549    1.7738    0.5553 C   0  0  0  0  0  0  0  0  0  0  0  0
   -1.8377   -0.4449    0.5554 C   0  0  0  0  0  0  0  0  0  0  0  0
    0.2059    0.8913   -1.9134 H   0  0  0  0  0  0  0  0  0  0  0  0
   -1.5588    0.8312   -1.9002 H   0  0  0  0  0  0  0  0  0  0  0  0
   -0.6255   -0.6677   -1.9135 H   0  0  0  0  0  0  0  0  0  0  0  0
    0.4488   -0.2393    0.4139 H   0  0  0  0  0  0  0  0  0  0  0  0
   -1.5589    2.3046    0.2427 H   0  0  0  0  0  0  0  0  0  0  0  0
   -0.6254    1.7806    1.6469 H   0  0  0  0  0  0  0  0  0  0  0  0
    0.2058    2.3386    0.1911 H   0  0  0  0  0  0  0  0  0  0  0  0
   -1.8270   -1.4743    0.1911 H   0  0  0  0  0  0  0  0  0  0  0  0
   -2.7823    0.0097    0.2427 H   0  0  0  0  0  0  0  0  0  0  0  0
   -1.8269   -0.4732    1.6470 H   0  0  0  0  0  0  0  0  0  0  0  0
  1  2  1  0
  1  3  1  0
  1  4  1  0
  1  5  1  0
  2 13  1  0
  6  7  1  0
  6 10  1  0
  6 11  1  0
  6 12  1  0
  7  8  1  0
  7  9  1  0
  8 14  1  0
  8 15  1  0
  8 16  1  0
  9 17  1  0
  9 18  1  0
  9 19  1  0
M  RAD  1   7   2
M  END
>  <reaction>  (16) 
rxn_301

>  <mol_properties>  (16) 
{"0": {"label": "*4", "atom_type": "Cs"}, "1": {"label": "*3", "atom_type": "O2s"}, "5": {"label": "*0", "atom_type": "Cs"}, "6": {"label": "*1", "atom_type": "Cs"}, "12": {"label": "*2", "atom_type": "H0"}}

>  <type>  (16) 
unop_12

>  <geom_source>  (16) 
Heuristics

$$$$

     RDKit          3D

 19 17  0  0  0  0  0  0  0  0999 V2000
    1.5398   -0.4158   -0.9685 O   0  0  0  0  0  0  0  0  0  0  0  0
   -1.2521   -1.2248   -0.6441 C   0  0  0  0  0  0  0  0  0  0  0  0
   -0.4396   -0.1480    1.4926 C   0  0  0  0  0  0  0  0  0  0  0  0
   -1.3984    1.2814   -0.3574 C   0  0  0  0  0  0  0  0  0  0  0  0
    2.6883    0.0850   -0.3514 C   0  0  0  0  0  0  0  0  0  0  0  0
   -0.6093    0.0150   -0.0192 C   0  0  0  0  0  3  0  0  0  0  0  0
   -2.2740   -1.3838   -0.2373 H   0  0  0  0  0  0  0  0  0  0  0  0
   -1.3148   -1.1043   -1.7461 H   0  0  0  0  0  0  0  0  0  0  0  0
   -0.6327   -2.1212   -0.4300 H   0  0  0  0  0  0  0  0  0  0  0  0
    0.0768    0.7402    1.9137 H   0  0  0  0  0  0  0  0  0  0  0  0
   -1.4278   -0.2624    1.9879 H   0  0  0  0  0  0  0  0  0  0  0  0
    0.1809   -1.0428    1.7097 H   0  0  0  0  0  0  0  0  0  0  0  0
   -0.8833    2.1717    0.0610 H   0  0  0  0  0  0  0  0  0  0  0  0
   -2.4263    1.2263    0.0612 H   0  0  0  0  0  0  0  0  0  0  0  0
   -1.4613    1.4056   -1.4590 H   0  0  0  0  0  0  0  0  0  0  0  0
    3.5830   -0.3924   -0.8013 H   0  0  0  0  0  0  0  0  0  0  0  0
    2.6644   -0.1435    0.7353 H   0  0  0  0  0  0  0  0  0  0  0  0
    2.7504    1.1837   -0.5018 H   0  0  0  0  0  0  0  0  0  0  0  0
    0.6362    0.1304   -0.4453 H   0  0  0  0  0  0  0  0  0  0  0  0
  1  5  1  0
  1 19  1  0
  2  6  1  0
  2  7  1  0
  2  8  1  0
  2  9  1  0
  3  6  1  0
  3 10  1  0
  3 11  1  0
  3 12  1  0
  4  6  1  0
  4 13  1  0
  4 14  1  0
  4 15  1  0
  5 16  1  0
  5 17  1  0
  5 18  1  0
M  RAD  1   6   2
M  END
>  <reaction>  (17) 
rxn_301

>  <mol_properties>  (17) 
{"0": {"label": "*4", "atom_type": "Cs"}, "1": {"label": "*3", "atom_type": "O2s"}, "5": {"label": "*0", "atom_type": "Cs"}, "6": {"label": "*1", "atom_type": "Cs"}, "12": {"label": "*2", "atom_type": "H0"}}

>  <type>  (17) 
unop_13

>  <geom_source>  (17) 
AutoTST

$$$$
