
     RDKit          3D

 15 15  0  0  0  0  0  0  0  0999 V2000
    2.2031   -0.2111   -0.1693 C   0  0  0  0  0  0  0  0  0  0  0  0
    0.7140   -0.0314   -0.0623 C   0  0  0  0  0  0  0  0  0  0  0  0
   -0.0114    0.5491   -1.0982 C   0  0  0  0  0  0  0  0  0  0  0  0
   -1.3882    0.6886   -1.0150 C   0  0  0  0  0  0  0  0  0  0  0  0
   -2.0661    0.2493    0.1118 C   0  0  0  0  0  0  0  0  0  0  0  0
   -1.3551   -0.3278    1.1528 C   0  0  0  0  0  0  0  0  0  0  0  0
    0.0216   -0.4648    1.0642 C   0  0  0  0  0  0  0  0  0  0  0  0
    2.6776   -0.1836    0.8122 H   0  0  0  0  0  0  0  0  0  0  0  0
    2.4446   -1.1749   -0.6249 H   0  0  0  0  0  0  0  0  0  0  0  0
    2.6532    0.5664   -0.7875 H   0  0  0  0  0  0  0  0  0  0  0  0
    0.5104    0.8989   -1.9819 H   0  0  0  0  0  0  0  0  0  0  0  0
   -1.9328    1.1452   -1.8322 H   0  0  0  0  0  0  0  0  0  0  0  0
   -3.1409    0.3597    0.1800 H   0  0  0  0  0  0  0  0  0  0  0  0
   -1.8736   -0.6702    2.0398 H   0  0  0  0  0  0  0  0  0  0  0  0
    0.5695   -0.9141    1.8849 H   0  0  0  0  0  0  0  0  0  0  0  0
  1  2  1  0
  1  8  1  0
  1  9  1  0
  1 10  1  0
  2  3  2  0
  2  7  1  0
  3  4  1  0
  3 11  1  0
  4  5  2  0
  4 12  1  0
  5  6  1  0
  5 13  1  0
  6  7  2  0
  6 14  1  0
  7 15  1  0
M  END
>  <reaction>  (1) 
rxn_258

>  <mol_properties>  (1) 
{"2": {"label": "donator", "atom_type": "Cd"}, "10": {"label": "d_hydrogen", "atom_type": "H0"}}

>  <type>  (1) 
r1h

$$$$

     RDKit          3D

  2  1  0  0  0  0  0  0  0  0999 V2000
    0.0000    0.0000    0.4855 O   0  0  0  0  0  1  0  0  0  0  0  0
    0.0000    0.0000   -0.4855 H   0  0  0  0  0  0  0  0  0  0  0  0
  1  2  1  0
M  RAD  1   1   2
M  END
>  <reaction>  (2) 
rxn_258

>  <mol_properties>  (2) 
{"0": {"label": "acceptor", "atom_type": "O2s"}}

>  <type>  (2) 
r2

$$$$

     RDKit          3D

  3  2  0  0  0  0  0  0  0  0999 V2000
   -0.0003    0.3867    0.0000 O   0  0  0  0  0  0  0  0  0  0  0  0
   -0.7617   -0.1940    0.0000 H   0  0  0  0  0  0  0  0  0  0  0  0
    0.7620   -0.1927    0.0000 H   0  0  0  0  0  0  0  0  0  0  0  0
  1  2  1  0
  1  3  1  0
M  END
>  <reaction>  (3) 
rxn_258

>  <mol_properties>  (3) 
{"0": {"label": "a_hydrogen", "atom_type": "H0"}, "1": {"label": "acceptor", "atom_type": "O2s"}}

>  <type>  (3) 
r2h

$$$$

     RDKit          3D

 17 16  0  0  0  0  0  0  0  0999 V2000
    0.1348   -0.5994   -2.2715 C   0  0  0  0  0  0  0  0  0  0  0  0
    0.0613   -0.5508   -0.7715 C   0  0  0  0  0  0  0  0  0  0  0  0
    0.1661    0.6295   -0.0612 C   0  0  0  0  0  0  0  0  0  0  0  0
    0.0932    0.7162    1.3133 C   0  0  0  0  0  0  0  0  0  0  0  0
   -0.0794   -0.4540    2.0388 C   0  0  0  0  0  0  0  0  0  0  0  0
   -0.1809   -1.6649    1.3672 C   0  0  0  0  0  0  0  0  0  0  0  0
   -0.1111   -1.7119   -0.0151 C   0  0  0  0  0  0  0  0  0  0  0  0
    0.9660   -1.2280   -2.5962 H   0  0  0  0  0  0  0  0  0  0  0  0
   -0.7801   -1.0241   -2.6895 H   0  0  0  0  0  0  0  0  0  0  0  0
    0.2752    0.3965   -2.6890 H   0  0  0  0  0  0  0  0  0  0  0  0
    0.3622    1.6674   -0.6856 H   0  0  0  0  0  0  0  0  0  0  0  0
    0.1775    1.6745    1.8093 H   0  0  0  0  0  0  0  0  0  0  0  0
   -0.1339   -0.4198    3.1194 H   0  0  0  0  0  0  0  0  0  0  0  0
   -0.3170   -2.5815    1.9272 H   0  0  0  0  0  0  0  0  0  0  0  0
   -0.1922   -2.6647   -0.5268 H   0  0  0  0  0  0  0  0  0  0  0  0
    0.2428    2.7578   -1.3288 O   0  0  0  0  0  1  0  0  0  0  0  0
   -0.7184    2.8568   -1.2983 H   0  0  0  0  0  0  0  0  0  0  0  0
  1  2  1  0
  1  8  1  0
  1  9  1  0
  1 10  1  0
  2  3  2  0
  2  7  1  0
  3  4  1  0
  3 11  1  0
  4  5  2  0
  4 12  1  0
  5  6  1  0
  5 13  1  0
  6  7  2  0
  6 14  1  0
  7 15  1  0
 16 17  1  0
M  RAD  1  16   2
M  END
>  <reaction>  (4) 
rxn_258

>  <mol_properties>  (4) 
{"1": {"label": "*0", "atom_type": "Cd"}, "2": {"label": "*1", "atom_type": "Cd"}, "10": {"label": "*2", "atom_type": "H0"}, "15": {"label": "*3", "atom_type": "O2s"}, "16": {"label": "*4", "atom_type": "H0"}}

>  <type>  (4) 
ts

$$$$

     RDKit          3D

 17 16  0  0  0  0  0  0  0  0999 V2000
    0.0189   -0.5240   -2.2240 C   0  0  0  0  0  0  0  0  0  0  0  0
    0.0189   -0.5240   -0.7202 C   0  0  0  0  0  0  0  0  0  0  0  0
    0.0189    0.6704   -0.0062 C   0  0  0  0  0  3  0  0  0  0  0  0
   -0.0116    0.6737    1.3798 C   0  0  0  0  0  0  0  0  0  0  0  0
   -0.0411   -0.5233    2.0788 C   0  0  0  0  0  0  0  0  0  0  0  0
   -0.0380   -1.7207    1.3798 C   0  0  0  0  0  0  0  0  0  0  0  0
   -0.0074   -1.7180   -0.0062 C   0  0  0  0  0  0  0  0  0  0  0  0
    0.5105   -1.4129   -2.6207 H   0  0  0  0  0  0  0  0  0  0  0  0
   -1.0033   -0.5127   -2.6107 H   0  0  0  0  0  0  0  0  0  0  0  0
    0.5299    0.3539   -2.6207 H   0  0  0  0  0  0  0  0  0  0  0  0
    0.0508    1.7997   -0.6516 H   0  0  0  0  0  0  0  0  0  0  0  0
   -0.0089    1.6149    1.9155 H   0  0  0  0  0  0  0  0  0  0  0  0
   -0.0623   -0.5231    3.1612 H   0  0  0  0  0  0  0  0  0  0  0  0
   -0.0561   -2.6617    1.9155 H   0  0  0  0  0  0  0  0  0  0  0  0
   -0.0016   -2.6595   -0.5440 H   0  0  0  0  0  0  0  0  0  0  0  0
    0.0790    2.7970   -1.2215 O   0  0  0  0  0  0  0  0  0  0  0  0
   -0.7202    3.2589   -0.9666 H   0  0  0  0  0  0  0  0  0  0  0  0
  1  2  1  0
  1  8  1  0
  1  9  1  0
  1 10  1  0
  2  7  2  0
  2  3  1  0
  3  4  2  0
  4  5  1  0
  4 12  1  0
  5  6  2  0
  5 13  1  0
  6  7  1  0
  6 14  1  0
  7 15  1  0
 11 16  1  0
 16 17  1  0
M  RAD  1   3   2
M  END
>  <reaction>  (5) 
rxn_258

>  <mol_properties>  (5) 
{"1": {"label": "*0", "atom_type": "Cd"}, "2": {"label": "*1", "atom_type": "Cd"}, "10": {"label": "*2", "atom_type": "H0"}, "15": {"label": "*3", "atom_type": "O2s"}, "16": {"label": "*4", "atom_type": "H0"}}

>  <type>  (5) 
unop_1

>  <geom_source>  (5) 
Heuristics

$$$$

     RDKit          3D

 17 16  0  0  0  0  0  0  0  0999 V2000
    0.0156   -0.5181   -2.2139 C   0  0  0  0  0  0  0  0  0  0  0  0
    0.0156   -0.5181   -0.7102 C   0  0  0  0  0  0  0  0  0  0  0  0
    0.0156    0.6762    0.0039 C   0  0  0  0  0  3  0  0  0  0  0  0
   -0.0148    0.6795    1.3899 C   0  0  0  0  0  0  0  0  0  0  0  0
   -0.0444   -0.5175    2.0889 C   0  0  0  0  0  0  0  0  0  0  0  0
   -0.0413   -1.7148    1.3899 C   0  0  0  0  0  0  0  0  0  0  0  0
   -0.0107   -1.7122    0.0039 C   0  0  0  0  0  0  0  0  0  0  0  0
    0.5072   -1.4071   -2.6106 H   0  0  0  0  0  0  0  0  0  0  0  0
   -1.0066   -0.5069   -2.6007 H   0  0  0  0  0  0  0  0  0  0  0  0
    0.5266    0.3598   -2.6106 H   0  0  0  0  0  0  0  0  0  0  0  0
    0.0475    1.8055   -0.6415 H   0  0  0  0  0  0  0  0  0  0  0  0
   -0.0122    1.6207    1.9256 H   0  0  0  0  0  0  0  0  0  0  0  0
   -0.0655   -0.5172    3.1712 H   0  0  0  0  0  0  0  0  0  0  0  0
   -0.0594   -2.6559    1.9256 H   0  0  0  0  0  0  0  0  0  0  0  0
   -0.0049   -2.6536   -0.5339 H   0  0  0  0  0  0  0  0  0  0  0  0
    0.0757    2.8029   -1.2115 O   0  0  0  0  0  0  0  0  0  0  0  0
   -0.3683    2.6339   -2.0429 H   0  0  0  0  0  0  0  0  0  0  0  0
  1  2  1  0
  1  8  1  0
  1  9  1  0
  1 10  1  0
  2  7  2  0
  2  3  1  0
  3  4  2  0
  4  5  1  0
  4 12  1  0
  5  6  2  0
  5 13  1  0
  6  7  1  0
  6 14  1  0
  7 15  1  0
 11 16  1  0
 16 17  1  0
M  RAD  1   3   2
M  END
>  <reaction>  (6) 
rxn_258

>  <mol_properties>  (6) 
{"1": {"label": "*0", "atom_type": "Cd"}, "2": {"label": "*1", "atom_type": "Cd"}, "10": {"label": "*2", "atom_type": "H0"}, "15": {"label": "*3", "atom_type": "O2s"}, "16": {"label": "*4", "atom_type": "H0"}}

>  <type>  (6) 
unop_2

>  <geom_source>  (6) 
Heuristics

$$$$

     RDKit          3D

 17 16  0  0  0  0  0  0  0  0999 V2000
    0.0158   -0.5255   -2.2267 C   0  0  0  0  0  0  0  0  0  0  0  0
    0.0158   -0.5255   -0.7230 C   0  0  0  0  0  0  0  0  0  0  0  0
    0.0158    0.6688   -0.0090 C   0  0  0  0  0  3  0  0  0  0  0  0
   -0.0146    0.6722    1.3770 C   0  0  0  0  0  0  0  0  0  0  0  0
   -0.0442   -0.5248    2.0761 C   0  0  0  0  0  0  0  0  0  0  0  0
   -0.0410   -1.7222    1.3770 C   0  0  0  0  0  0  0  0  0  0  0  0
   -0.0105   -1.7195   -0.0090 C   0  0  0  0  0  0  0  0  0  0  0  0
    0.5074   -1.4144   -2.6235 H   0  0  0  0  0  0  0  0  0  0  0  0
   -1.0064   -0.5142   -2.6135 H   0  0  0  0  0  0  0  0  0  0  0  0
    0.5268    0.3524   -2.6235 H   0  0  0  0  0  0  0  0  0  0  0  0
    0.0477    1.7982   -0.6543 H   0  0  0  0  0  0  0  0  0  0  0  0
   -0.0120    1.6134    1.9128 H   0  0  0  0  0  0  0  0  0  0  0  0
   -0.0653   -0.5246    3.1584 H   0  0  0  0  0  0  0  0  0  0  0  0
   -0.0592   -2.6632    1.9128 H   0  0  0  0  0  0  0  0  0  0  0  0
   -0.0047   -2.6610   -0.5468 H   0  0  0  0  0  0  0  0  0  0  0  0
    0.0760    2.7955   -1.2243 O   0  0  0  0  0  0  0  0  0  0  0  0
   -0.3902    3.4202   -0.6680 H   0  0  0  0  0  0  0  0  0  0  0  0
  1  2  1  0
  1  8  1  0
  1  9  1  0
  1 10  1  0
  2  7  2  0
  2  3  1  0
  3  4  2  0
  4  5  1  0
  4 12  1  0
  5  6  2  0
  5 13  1  0
  6  7  1  0
  6 14  1  0
  7 15  1  0
 11 16  1  0
 16 17  1  0
M  RAD  1   3   2
M  END
>  <reaction>  (7) 
rxn_258

>  <mol_properties>  (7) 
{"1": {"label": "*0", "atom_type": "Cd"}, "2": {"label": "*1", "atom_type": "Cd"}, "10": {"label": "*2", "atom_type": "H0"}, "15": {"label": "*3", "atom_type": "O2s"}, "16": {"label": "*4", "atom_type": "H0"}}

>  <type>  (7) 
unop_3

>  <geom_source>  (7) 
Heuristics

$$$$

     RDKit          3D

 17 16  0  0  0  0  0  0  0  0999 V2000
    0.0040   -0.5195   -2.2169 C   0  0  0  0  0  0  0  0  0  0  0  0
    0.0040   -0.5195   -0.7132 C   0  0  0  0  0  0  0  0  0  0  0  0
    0.0040    0.6748    0.0009 C   0  0  0  0  0  3  0  0  0  0  0  0
   -0.0264    0.6782    1.3869 C   0  0  0  0  0  0  0  0  0  0  0  0
   -0.0560   -0.5189    2.0859 C   0  0  0  0  0  0  0  0  0  0  0  0
   -0.0529   -1.7162    1.3869 C   0  0  0  0  0  0  0  0  0  0  0  0
   -0.0223   -1.7135    0.0009 C   0  0  0  0  0  0  0  0  0  0  0  0
    0.4956   -1.4085   -2.6136 H   0  0  0  0  0  0  0  0  0  0  0  0
   -1.0182   -0.5083   -2.6037 H   0  0  0  0  0  0  0  0  0  0  0  0
    0.5150    0.3584   -2.6136 H   0  0  0  0  0  0  0  0  0  0  0  0
    0.0359    1.8041   -0.6445 H   0  0  0  0  0  0  0  0  0  0  0  0
   -0.0238    1.6194    1.9226 H   0  0  0  0  0  0  0  0  0  0  0  0
   -0.0771   -0.5186    3.1683 H   0  0  0  0  0  0  0  0  0  0  0  0
   -0.0710   -2.6573    1.9226 H   0  0  0  0  0  0  0  0  0  0  0  0
   -0.0165   -2.6550   -0.5369 H   0  0  0  0  0  0  0  0  0  0  0  0
    0.0641    2.8015   -1.2145 O   0  0  0  0  0  0  0  0  0  0  0  0
    0.8758    2.7820   -1.7221 H   0  0  0  0  0  0  0  0  0  0  0  0
  1  2  1  0
  1  8  1  0
  1  9  1  0
  1 10  1  0
  2  7  2  0
  2  3  1  0
  3  4  2  0
  4  5  1  0
  4 12  1  0
  5  6  2  0
  5 13  1  0
  6  7  1  0
  6 14  1  0
  7 15  1  0
 11 16  1  0
 16 17  1  0
M  RAD  1   3   2
M  END
>  <reaction>  (8) 
rxn_258

>  <mol_properties>  (8) 
{"1": {"label": "*0", "atom_type": "Cd"}, "2": {"label": "*1", "atom_type": "Cd"}, "10": {"label": "*2", "atom_type": "H0"}, "15": {"label": "*3", "atom_type": "O2s"}, "16": {"label": "*4", "atom_type": "H0"}}

>  <type>  (8) 
unop_4

>  <geom_source>  (8) 
Heuristics

$$$$

     RDKit          3D

 17 16  0  0  0  0  0  0  0  0999 V2000
    0.0116   -0.5260   -2.2278 C   0  0  0  0  0  0  0  0  0  0  0  0
    0.0116   -0.5260   -0.7241 C   0  0  0  0  0  0  0  0  0  0  0  0
    0.0116    0.6683   -0.0100 C   0  0  0  0  0  3  0  0  0  0  0  0
   -0.0189    0.6717    1.3759 C   0  0  0  0  0  0  0  0  0  0  0  0
   -0.0484   -0.5253    2.0750 C   0  0  0  0  0  0  0  0  0  0  0  0
   -0.0453   -1.7227    1.3759 C   0  0  0  0  0  0  0  0  0  0  0  0
   -0.0148   -1.7200   -0.0100 C   0  0  0  0  0  0  0  0  0  0  0  0
    0.5031   -1.4149   -2.6246 H   0  0  0  0  0  0  0  0  0  0  0  0
   -1.0107   -0.5147   -2.6146 H   0  0  0  0  0  0  0  0  0  0  0  0
    0.5226    0.3519   -2.6246 H   0  0  0  0  0  0  0  0  0  0  0  0
    0.0435    1.7977   -0.6554 H   0  0  0  0  0  0  0  0  0  0  0  0
   -0.0162    1.6129    1.9117 H   0  0  0  0  0  0  0  0  0  0  0  0
   -0.0696   -0.5251    3.1573 H   0  0  0  0  0  0  0  0  0  0  0  0
   -0.0634   -2.6637    1.9117 H   0  0  0  0  0  0  0  0  0  0  0  0
   -0.0089   -2.6615   -0.5479 H   0  0  0  0  0  0  0  0  0  0  0  0
    0.0717    2.7950   -1.2254 O   0  0  0  0  0  0  0  0  0  0  0  0
    0.0652    3.4744   -0.5506 H   0  0  0  0  0  0  0  0  0  0  0  0
  1  2  1  0
  1  8  1  0
  1  9  1  0
  1 10  1  0
  2  7  2  0
  2  3  1  0
  3  4  2  0
  4  5  1  0
  4 12  1  0
  5  6  2  0
  5 13  1  0
  6  7  1  0
  6 14  1  0
  7 15  1  0
 11 16  1  0
 16 17  1  0
M  RAD  1   3   2
M  END
>  <reaction>  (9) 
rxn_258

>  <mol_properties>  (9) 
{"1": {"label": "*0", "atom_type": "Cd"}, "2": {"label": "*1", "atom_type": "Cd"}, "10": {"label": "*2", "atom_type": "H0"}, "15": {"label": "*3", "atom_type": "O2s"}, "16": {"label": "*4", "atom_type": "H0"}}

>  <type>  (9) 
unop_5

>  <geom_source>  (9) 
Heuristics

$$$$

     RDKit          3D

 17 16  0  0  0  0  0  0  0  0999 V2000
    0.0029   -0.5216   -2.2206 C   0  0  0  0  0  0  0  0  0  0  0  0
    0.0029   -0.5216   -0.7169 C   0  0  0  0  0  0  0  0  0  0  0  0
    0.0029    0.6727   -0.0029 C   0  0  0  0  0  3  0  0  0  0  0  0
   -0.0275    0.6761    1.3831 C   0  0  0  0  0  0  0  0  0  0  0  0
   -0.0571   -0.5210    2.0822 C   0  0  0  0  0  0  0  0  0  0  0  0
   -0.0539   -1.7183    1.3831 C   0  0  0  0  0  0  0  0  0  0  0  0
   -0.0234   -1.7156   -0.0029 C   0  0  0  0  0  0  0  0  0  0  0  0
    0.4945   -1.4106   -2.6174 H   0  0  0  0  0  0  0  0  0  0  0  0
   -1.0193   -0.5104   -2.6074 H   0  0  0  0  0  0  0  0  0  0  0  0
    0.5139    0.3563   -2.6174 H   0  0  0  0  0  0  0  0  0  0  0  0
    0.0349    1.8020   -0.6482 H   0  0  0  0  0  0  0  0  0  0  0  0
   -0.0249    1.6173    1.9189 H   0  0  0  0  0  0  0  0  0  0  0  0
   -0.0782   -0.5207    3.1645 H   0  0  0  0  0  0  0  0  0  0  0  0
   -0.0720   -2.6594    1.9189 H   0  0  0  0  0  0  0  0  0  0  0  0
   -0.0176   -2.6571   -0.5407 H   0  0  0  0  0  0  0  0  0  0  0  0
    0.0631    2.7994   -1.2182 O   0  0  0  0  0  0  0  0  0  0  0  0
    0.9920    3.0072   -1.3223 H   0  0  0  0  0  0  0  0  0  0  0  0
  1  2  1  0
  1  8  1  0
  1  9  1  0
  1 10  1  0
  2  7  2  0
  2  3  1  0
  3  4  2  0
  4  5  1  0
  4 12  1  0
  5  6  2  0
  5 13  1  0
  6  7  1  0
  6 14  1  0
  7 15  1  0
 11 16  1  0
 16 17  1  0
M  RAD  1   3   2
M  END
>  <reaction>  (10) 
rxn_258

>  <mol_properties>  (10) 
{"1": {"label": "*0", "atom_type": "Cd"}, "2": {"label": "*1", "atom_type": "Cd"}, "10": {"label": "*2", "atom_type": "H0"}, "15": {"label": "*3", "atom_type": "O2s"}, "16": {"label": "*4", "atom_type": "H0"}}

>  <type>  (10) 
unop_6

>  <geom_source>  (10) 
Heuristics

$$$$

     RDKit          3D

 17 16  0  0  0  0  0  0  0  0999 V2000
    0.0041   -0.5238   -2.2243 C   0  0  0  0  0  0  0  0  0  0  0  0
    0.0041   -0.5238   -0.7206 C   0  0  0  0  0  0  0  0  0  0  0  0
    0.0041    0.6706   -0.0065 C   0  0  0  0  0  3  0  0  0  0  0  0
   -0.0263    0.6739    1.3795 C   0  0  0  0  0  0  0  0  0  0  0  0
   -0.0559   -0.5231    2.0785 C   0  0  0  0  0  0  0  0  0  0  0  0
   -0.0527   -1.7205    1.3795 C   0  0  0  0  0  0  0  0  0  0  0  0
   -0.0222   -1.7178   -0.0065 C   0  0  0  0  0  0  0  0  0  0  0  0
    0.4957   -1.4127   -2.6210 H   0  0  0  0  0  0  0  0  0  0  0  0
   -1.0181   -0.5125   -2.6111 H   0  0  0  0  0  0  0  0  0  0  0  0
    0.5151    0.3541   -2.6210 H   0  0  0  0  0  0  0  0  0  0  0  0
    0.0361    1.7999   -0.6519 H   0  0  0  0  0  0  0  0  0  0  0  0
   -0.0237    1.6151    1.9152 H   0  0  0  0  0  0  0  0  0  0  0  0
   -0.0770   -0.5229    3.1609 H   0  0  0  0  0  0  0  0  0  0  0  0
   -0.0708   -2.6615    1.9152 H   0  0  0  0  0  0  0  0  0  0  0  0
   -0.0164   -2.6592   -0.5443 H   0  0  0  0  0  0  0  0  0  0  0  0
    0.0643    2.7973   -1.2219 O   0  0  0  0  0  0  0  0  0  0  0  0
    0.8632    3.2360   -0.9283 H   0  0  0  0  0  0  0  0  0  0  0  0
  1  2  1  0
  1  8  1  0
  1  9  1  0
  1 10  1  0
  2  7  2  0
  2  3  1  0
  3  4  2  0
  4  5  1  0
  4 12  1  0
  5  6  2  0
  5 13  1  0
  6  7  1  0
  6 14  1  0
  7 15  1  0
 11 16  1  0
 16 17  1  0
M  RAD  1   3   2
M  END
>  <reaction>  (11) 
rxn_258

>  <mol_properties>  (11) 
{"1": {"label": "*0", "atom_type": "Cd"}, "2": {"label": "*1", "atom_type": "Cd"}, "10": {"label": "*2", "atom_type": "H0"}, "15": {"label": "*3", "atom_type": "O2s"}, "16": {"label": "*4", "atom_type": "H0"}}

>  <type>  (11) 
unop_7

>  <geom_source>  (11) 
Heuristics

$$$$

     RDKit          3D

 17 16  0  0  0  0  0  0  0  0999 V2000
    0.0200   -0.5219   -2.2202 C   0  0  0  0  0  0  0  0  0  0  0  0
    0.0200   -0.5219   -0.7165 C   0  0  0  0  0  0  0  0  0  0  0  0
    0.0200    0.6725   -0.0024 C   0  0  0  0  0  3  0  0  0  0  0  0
   -0.0105    0.6758    1.3836 C   0  0  0  0  0  0  0  0  0  0  0  0
   -0.0400   -0.5212    2.0826 C   0  0  0  0  0  0  0  0  0  0  0  0
   -0.0369   -1.7186    1.3836 C   0  0  0  0  0  0  0  0  0  0  0  0
   -0.0064   -1.7159   -0.0024 C   0  0  0  0  0  0  0  0  0  0  0  0
    0.5115   -1.4108   -2.6169 H   0  0  0  0  0  0  0  0  0  0  0  0
   -1.0023   -0.5106   -2.6070 H   0  0  0  0  0  0  0  0  0  0  0  0
    0.5310    0.3560   -2.6169 H   0  0  0  0  0  0  0  0  0  0  0  0
    0.0519    1.8018   -0.6478 H   0  0  0  0  0  0  0  0  0  0  0  0
   -0.0078    1.6170    1.9193 H   0  0  0  0  0  0  0  0  0  0  0  0
   -0.0612   -0.5210    3.1649 H   0  0  0  0  0  0  0  0  0  0  0  0
   -0.0550   -2.6596    1.9193 H   0  0  0  0  0  0  0  0  0  0  0  0
   -0.0005   -2.6574   -0.5403 H   0  0  0  0  0  0  0  0  0  0  0  0
    0.0801    2.7991   -1.2178 O   0  0  0  0  0  0  0  0  0  0  0  0
   -0.8363    3.0336   -1.3665 H   0  0  0  0  0  0  0  0  0  0  0  0
  1  2  1  0
  1  8  1  0
  1  9  1  0
  1 10  1  0
  2  7  2  0
  2  3  1  0
  3  4  2  0
  4  5  1  0
  4 12  1  0
  5  6  2  0
  5 13  1  0
  6  7  1  0
  6 14  1  0
  7 15  1  0
 11 16  1  0
 16 17  1  0
M  RAD  1   3   2
M  END
>  <reaction>  (12) 
rxn_258

>  <mol_properties>  (12) 
{"1": {"label": "*0", "atom_type": "Cd"}, "2": {"label": "*1", "atom_type": "Cd"}, "10": {"label": "*2", "atom_type": "H0"}, "15": {"label": "*3", "atom_type": "O2s"}, "16": {"label": "*4", "atom_type": "H0"}}

>  <type>  (12) 
unop_8

>  <geom_source>  (12) 
Heuristics

$$$$

     RDKit          3D

 17 16  0  0  0  0  0  0  0  0999 V2000
    0.0071   -0.5180   -2.2141 C   0  0  0  0  0  0  0  0  0  0  0  0
    0.0071   -0.5180   -0.7104 C   0  0  0  0  0  0  0  0  0  0  0  0
    0.0071    0.6763    0.0037 C   0  0  0  0  0  3  0  0  0  0  0  0
   -0.0234    0.6797    1.3897 C   0  0  0  0  0  0  0  0  0  0  0  0
   -0.0529   -0.5174    2.0887 C   0  0  0  0  0  0  0  0  0  0  0  0
   -0.0498   -1.7147    1.3897 C   0  0  0  0  0  0  0  0  0  0  0  0
   -0.0193   -1.7120    0.0037 C   0  0  0  0  0  0  0  0  0  0  0  0
    0.4986   -1.4069   -2.6108 H   0  0  0  0  0  0  0  0  0  0  0  0
   -1.0151   -0.5068   -2.6009 H   0  0  0  0  0  0  0  0  0  0  0  0
    0.5181    0.3599   -2.6108 H   0  0  0  0  0  0  0  0  0  0  0  0
    0.0390    1.8056   -0.6417 H   0  0  0  0  0  0  0  0  0  0  0  0
   -0.0207    1.6209    1.9254 H   0  0  0  0  0  0  0  0  0  0  0  0
   -0.0741   -0.5171    3.1710 H   0  0  0  0  0  0  0  0  0  0  0  0
   -0.0679   -2.6558    1.9254 H   0  0  0  0  0  0  0  0  0  0  0  0
   -0.0134   -2.6535   -0.5342 H   0  0  0  0  0  0  0  0  0  0  0  0
    0.0672    2.8030   -1.2117 O   0  0  0  0  0  0  0  0  0  0  0  0
    0.5459    2.6206   -2.0208 H   0  0  0  0  0  0  0  0  0  0  0  0
  1  2  1  0
  1  8  1  0
  1  9  1  0
  1 10  1  0
  2  7  2  0
  2  3  1  0
  3  4  2  0
  4  5  1  0
  4 12  1  0
  5  6  2  0
  5 13  1  0
  6  7  1  0
  6 14  1  0
  7 15  1  0
 11 16  1  0
 16 17  1  0
M  RAD  1   3   2
M  END
>  <reaction>  (13) 
rxn_258

>  <mol_properties>  (13) 
{"1": {"label": "*0", "atom_type": "Cd"}, "2": {"label": "*1", "atom_type": "Cd"}, "10": {"label": "*2", "atom_type": "H0"}, "15": {"label": "*3", "atom_type": "O2s"}, "16": {"label": "*4", "atom_type": "H0"}}

>  <type>  (13) 
unop_9

>  <geom_source>  (13) 
Heuristics

$$$$

     RDKit          3D

 17 16  0  0  0  0  0  0  0  0999 V2000
    0.0188   -0.5197   -2.2165 C   0  0  0  0  0  0  0  0  0  0  0  0
    0.0188   -0.5197   -0.7128 C   0  0  0  0  0  0  0  0  0  0  0  0
    0.0188    0.6746    0.0012 C   0  0  0  0  0  3  0  0  0  0  0  0
   -0.0117    0.6779    1.3872 C   0  0  0  0  0  0  0  0  0  0  0  0
   -0.0412   -0.5191    2.0862 C   0  0  0  0  0  0  0  0  0  0  0  0
   -0.0381   -1.7164    1.3872 C   0  0  0  0  0  0  0  0  0  0  0  0
   -0.0076   -1.7138    0.0012 C   0  0  0  0  0  0  0  0  0  0  0  0
    0.5103   -1.4087   -2.6133 H   0  0  0  0  0  0  0  0  0  0  0  0
   -1.0035   -0.5085   -2.6033 H   0  0  0  0  0  0  0  0  0  0  0  0
    0.5298    0.3582   -2.6133 H   0  0  0  0  0  0  0  0  0  0  0  0
    0.0507    1.8039   -0.6441 H   0  0  0  0  0  0  0  0  0  0  0  0
   -0.0090    1.6192    1.9229 H   0  0  0  0  0  0  0  0  0  0  0  0
   -0.0624   -0.5188    3.1686 H   0  0  0  0  0  0  0  0  0  0  0  0
   -0.0562   -2.6575    1.9229 H   0  0  0  0  0  0  0  0  0  0  0  0
   -0.0017   -2.6552   -0.5366 H   0  0  0  0  0  0  0  0  0  0  0  0
    0.0789    2.8013   -1.2141 O   0  0  0  0  0  0  0  0  0  0  0  0
   -0.7075    2.8049   -1.7604 H   0  0  0  0  0  0  0  0  0  0  0  0
  1  2  1  0
  1  8  1  0
  1  9  1  0
  1 10  1  0
  2  7  2  0
  2  3  1  0
  3  4  2  0
  4  5  1  0
  4 12  1  0
  5  6  2  0
  5 13  1  0
  6  7  1  0
  6 14  1  0
  7 15  1  0
 11 16  1  0
 16 17  1  0
M  RAD  1   3   2
M  END
>  <reaction>  (14) 
rxn_258

>  <mol_properties>  (14) 
{"1": {"label": "*0", "atom_type": "Cd"}, "2": {"label": "*1", "atom_type": "Cd"}, "10": {"label": "*2", "atom_type": "H0"}, "15": {"label": "*3", "atom_type": "O2s"}, "16": {"label": "*4", "atom_type": "H0"}}

>  <type>  (14) 
unop_10

>  <geom_source>  (14) 
Heuristics

$$$$

     RDKit          3D

 17 16  0  0  0  0  0  0  0  0999 V2000
    0.0073   -0.5253   -2.2269 C   0  0  0  0  0  0  0  0  0  0  0  0
    0.0073   -0.5253   -0.7232 C   0  0  0  0  0  0  0  0  0  0  0  0
    0.0073    0.6690   -0.0092 C   0  0  0  0  0  3  0  0  0  0  0  0
   -0.0232    0.6723    1.3768 C   0  0  0  0  0  0  0  0  0  0  0  0
   -0.0527   -0.5247    2.0759 C   0  0  0  0  0  0  0  0  0  0  0  0
   -0.0496   -1.7221    1.3768 C   0  0  0  0  0  0  0  0  0  0  0  0
   -0.0191   -1.7194   -0.0092 C   0  0  0  0  0  0  0  0  0  0  0  0
    0.4989   -1.4143   -2.6237 H   0  0  0  0  0  0  0  0  0  0  0  0
   -1.0149   -0.5141   -2.6137 H   0  0  0  0  0  0  0  0  0  0  0  0
    0.5183    0.3525   -2.6237 H   0  0  0  0  0  0  0  0  0  0  0  0
    0.0392    1.7983   -0.6545 H   0  0  0  0  0  0  0  0  0  0  0  0
   -0.0205    1.6135    1.9125 H   0  0  0  0  0  0  0  0  0  0  0  0
   -0.0739   -0.5245    3.1582 H   0  0  0  0  0  0  0  0  0  0  0  0
   -0.0677   -2.6631    1.9125 H   0  0  0  0  0  0  0  0  0  0  0  0
   -0.0132   -2.6608   -0.5470 H   0  0  0  0  0  0  0  0  0  0  0  0
    0.0674    2.7957   -1.2245 O   0  0  0  0  0  0  0  0  0  0  0  0
    0.5240    3.4070   -0.6459 H   0  0  0  0  0  0  0  0  0  0  0  0
  1  2  1  0
  1  8  1  0
  1  9  1  0
  1 10  1  0
  2  7  2  0
  2  3  1  0
  3  4  2  0
  4  5  1  0
  4 12  1  0
  5  6  2  0
  5 13  1  0
  6  7  1  0
  6 14  1  0
  7 15  1  0
 11 16  1  0
 16 17  1  0
M  RAD  1   3   2
M  END
>  <reaction>  (15) 
rxn_258

>  <mol_properties>  (15) 
{"1": {"label": "*0", "atom_type": "Cd"}, "2": {"label": "*1", "atom_type": "Cd"}, "10": {"label": "*2", "atom_type": "H0"}, "15": {"label": "*3", "atom_type": "O2s"}, "16": {"label": "*4", "atom_type": "H0"}}

>  <type>  (15) 
unop_11

>  <geom_source>  (15) 
Heuristics

$$$$

     RDKit          3D

 17 16  0  0  0  0  0  0  0  0999 V2000
    0.0113   -0.5175   -2.2130 C   0  0  0  0  0  0  0  0  0  0  0  0
    0.0113   -0.5175   -0.7093 C   0  0  0  0  0  0  0  0  0  0  0  0
    0.0113    0.6768    0.0048 C   0  0  0  0  0  3  0  0  0  0  0  0
   -0.0191    0.6802    1.3907 C   0  0  0  0  0  0  0  0  0  0  0  0
   -0.0487   -0.5168    2.0898 C   0  0  0  0  0  0  0  0  0  0  0  0
   -0.0455   -1.7142    1.3907 C   0  0  0  0  0  0  0  0  0  0  0  0
   -0.0150   -1.7115    0.0048 C   0  0  0  0  0  0  0  0  0  0  0  0
    0.5029   -1.4064   -2.6098 H   0  0  0  0  0  0  0  0  0  0  0  0
   -1.0109   -0.5063   -2.5998 H   0  0  0  0  0  0  0  0  0  0  0  0
    0.5223    0.3604   -2.6098 H   0  0  0  0  0  0  0  0  0  0  0  0
    0.0433    1.8061   -0.6406 H   0  0  0  0  0  0  0  0  0  0  0  0
   -0.0165    1.6214    1.9265 H   0  0  0  0  0  0  0  0  0  0  0  0
   -0.0698   -0.5166    3.1721 H   0  0  0  0  0  0  0  0  0  0  0  0
   -0.0636   -2.6553    1.9265 H   0  0  0  0  0  0  0  0  0  0  0  0
   -0.0092   -2.6530   -0.5331 H   0  0  0  0  0  0  0  0  0  0  0  0
    0.0715    2.8035   -1.2106 O   0  0  0  0  0  0  0  0  0  0  0  0
    0.0905    2.5664   -2.1382 H   0  0  0  0  0  0  0  0  0  0  0  0
  1  2  1  0
  1  8  1  0
  1  9  1  0
  1 10  1  0
  2  7  2  0
  2  3  1  0
  3  4  2  0
  4  5  1  0
  4 12  1  0
  5  6  2  0
  5 13  1  0
  6  7  1  0
  6 14  1  0
  7 15  1  0
 11 16  1  0
 16 17  1  0
M  RAD  1   3   2
M  END
>  <reaction>  (16) 
rxn_258

>  <mol_properties>  (16) 
{"1": {"label": "*0", "atom_type": "Cd"}, "2": {"label": "*1", "atom_type": "Cd"}, "10": {"label": "*2", "atom_type": "H0"}, "15": {"label": "*3", "atom_type": "O2s"}, "16": {"label": "*4", "atom_type": "H0"}}

>  <type>  (16) 
unop_12

>  <geom_source>  (16) 
Heuristics

$$$$

     RDKit          3D

 17 16  0  0  0  0  0  0  0  0999 V2000
   -1.6747   -2.0499    0.9315 O   0  0  0  0  0  0  0  0  0  0  0  0
    1.5675   -1.0142    1.1390 C   0  0  0  0  0  0  0  0  0  0  0  0
    0.7065   -0.1186    0.3032 C   0  0  0  0  0  0  0  0  0  0  0  0
    0.9465    1.2640    0.2644 C   0  0  0  0  0  0  0  0  0  0  0  0
    0.1575    2.0910   -0.5424 C   0  0  0  0  0  0  0  0  0  0  0  0
   -0.8664    1.5408   -1.3200 C   0  0  0  0  0  0  0  0  0  0  0  0
   -1.0998    0.1625   -1.2942 C   0  0  0  0  0  0  0  0  0  0  0  0
   -0.3127   -0.6647   -0.4884 C   0  0  0  0  0  3  0  0  0  0  0  0
    1.7457   -0.5539    2.1340 H   0  0  0  0  0  0  0  0  0  0  0  0
    2.5420   -1.1702    0.6307 H   0  0  0  0  0  0  0  0  0  0  0  0
    1.0801   -2.0007    1.2939 H   0  0  0  0  0  0  0  0  0  0  0  0
   -1.4755    2.1813   -1.9448 H   0  0  0  0  0  0  0  0  0  0  0  0
    0.3415    3.1573   -0.5671 H   0  0  0  0  0  0  0  0  0  0  0  0
    1.7418    1.6989    0.8572 H   0  0  0  0  0  0  0  0  0  0  0  0
   -1.8872   -0.2671   -1.8989 H   0  0  0  0  0  0  0  0  0  0  0  0
   -2.4558   -2.5532    0.5890 H   0  0  0  0  0  0  0  0  0  0  0  0
   -1.0574   -1.7033   -0.0869 H   0  0  0  0  0  0  0  0  0  0  0  0
  1 16  1  0
  1 17  1  0
  2  3  1  0
  2  9  1  0
  2 10  1  0
  2 11  1  0
  3  4  2  0
  3  8  1  0
  4  5  1  0
  4 14  1  0
  5  6  2  0
  5 13  1  0
  6  7  1  0
  6 12  1  0
  7  8  2  0
  7 15  1  0
M  RAD  1   8   2
M  END
>  <reaction>  (17) 
rxn_258

>  <mol_properties>  (17) 
{"1": {"label": "*0", "atom_type": "Cd"}, "2": {"label": "*1", "atom_type": "Cd"}, "10": {"label": "*2", "atom_type": "H0"}, "15": {"label": "*3", "atom_type": "O2s"}, "16": {"label": "*4", "atom_type": "H0"}}

>  <type>  (17) 
unop_13

>  <geom_source>  (17) 
AutoTST

$$$$
