
     RDKit          3D

 12 11  0  0  0  0  0  0  0  0999 V2000
    1.9877    0.1011    0.4814 C   0  0  0  0  0  0  0  0  0  0  0  0
    0.8179    0.5502    0.0525 C   0  0  0  0  0  0  0  0  0  0  0  0
   -0.2939   -0.2692   -0.5320 C   0  0  0  0  0  0  0  0  0  0  0  0
   -0.0292   -1.7631   -0.6328 C   0  0  0  0  0  0  0  0  0  0  0  0
    2.2522   -0.9490    0.4436 H   0  0  0  0  0  0  0  0  0  0  0  0
    2.7295    0.7757    0.8896 H   0  0  0  0  0  0  0  0  0  0  0  0
    0.6162    1.6164    0.1190 H   0  0  0  0  0  0  0  0  0  0  0  0
   -0.5268    0.1319   -1.5245 H   0  0  0  0  0  0  0  0  0  0  0  0
   -1.1959   -0.0938    0.0644 H   0  0  0  0  0  0  0  0  0  0  0  0
    0.1590   -2.1992    0.3502 H   0  0  0  0  0  0  0  0  0  0  0  0
    0.8382   -1.9701   -1.2626 H   0  0  0  0  0  0  0  0  0  0  0  0
   -0.8879   -2.2759   -1.0672 H   0  0  0  0  0  0  0  0  0  0  0  0
  1  2  2  3
  1  5  1  0
  1  6  1  0
  2  3  1  0
  2  7  1  0
  3  4  1  0
  3  8  1  0
  3  9  1  0
  4 10  1  0
  4 11  1  0
  4 12  1  0
M  END
>  <reaction>  (1) 
rxn_1047

>  <mol_properties>  (1) 
{"2": {"label": "donator", "atom_type": "Cs"}, "7": {"label": "d_hydrogen", "atom_type": "H0"}}

>  <type>  (1) 
r1h

$$$$

     RDKit          3D

  9  8  0  0  0  0  0  0  0  0999 V2000
    2.3038   -0.0269    0.1590 C   0  0  0  0  0  0  0  0  0  0  0  0
    1.1426    0.1377   -0.1648 C   0  0  0  0  0  0  0  0  0  0  0  0
   -0.1694    0.3175   -0.5203 C   0  0  0  0  0  3  0  0  0  0  0  0
   -1.3163   -0.1910    0.2856 C   0  0  0  0  0  0  0  0  0  0  0  0
    3.3199   -0.1683    0.4378 H   0  0  0  0  0  0  0  0  0  0  0  0
   -0.3786    0.8584   -1.4360 H   0  0  0  0  0  0  0  0  0  0  0  0
   -1.9694    0.6309    0.5951 H   0  0  0  0  0  0  0  0  0  0  0  0
   -1.9325   -0.8770   -0.3039 H   0  0  0  0  0  0  0  0  0  0  0  0
   -0.9753   -0.7144    1.1774 H   0  0  0  0  0  0  0  0  0  0  0  0
  1  2  3  0
  1  5  1  0
  2  3  1  0
  3  4  1  0
  3  6  1  0
  4  7  1  0
  4  8  1  0
  4  9  1  0
M  RAD  1   3   2
M  END
>  <reaction>  (2) 
rxn_1047

>  <mol_properties>  (2) 
{"2": {"label": "acceptor", "atom_type": "Cs"}}

>  <type>  (2) 
r2

$$$$

     RDKit          3D

 10  9  0  0  0  0  0  0  0  0999 V2000
    2.2738    0.0217   -0.0992 C   0  0  0  0  0  0  0  0  0  0  0  0
    1.1083    0.2960   -0.0695 C   0  0  0  0  0  0  0  0  0  0  0  0
   -0.3173    0.6046   -0.0227 C   0  0  0  0  0  0  0  0  0  0  0  0
   -1.1561   -0.5495    0.5292 C   0  0  0  0  0  0  0  0  0  0  0  0
    3.3097   -0.2166   -0.1277 H   0  0  0  0  0  0  0  0  0  0  0  0
   -0.6542    0.8617   -1.0302 H   0  0  0  0  0  0  0  0  0  0  0  0
   -0.4633    1.4978    0.5900 H   0  0  0  0  0  0  0  0  0  0  0  0
   -0.8485   -0.7997    1.5447 H   0  0  0  0  0  0  0  0  0  0  0  0
   -2.2115   -0.2752    0.5459 H   0  0  0  0  0  0  0  0  0  0  0  0
   -1.0409   -1.4407   -0.0879 H   0  0  0  0  0  0  0  0  0  0  0  0
  1  2  3  0
  1  5  1  0
  2  3  1  0
  3  4  1  0
  3  6  1  0
  3  7  1  0
  4  8  1  0
  4  9  1  0
  4 10  1  0
M  END
>  <reaction>  (3) 
rxn_1047

>  <mol_properties>  (3) 
{"2": {"label": "acceptor", "atom_type": "Cs"}, "9": {"label": "a_hydrogen", "atom_type": "H0"}}

>  <type>  (3) 
r2h

$$$$

     RDKit          3D

 21 19  0  0  0  0  0  0  0  0999 V2000
    2.2942   -1.7235    1.2812 C   0  0  0  0  0  0  0  0  0  0  0  0
    1.5488   -0.7851    1.3918 C   0  0  0  0  0  0  0  0  0  0  0  0
    0.6281    0.2974    1.4519 C   0  0  0  0  0  3  0  0  0  0  0  0
    1.0412    1.5939    0.7954 C   0  0  0  0  0  0  0  0  0  0  0  0
    2.9665   -2.5435    1.2037 H   0  0  0  0  0  0  0  0  0  0  0  0
    0.1506    0.4081    2.4240 H   0  0  0  0  0  0  0  0  0  0  0  0
    0.2327    2.3236    0.8513 H   0  0  0  0  0  0  0  0  0  0  0  0
    1.9206    2.0229    1.2825 H   0  0  0  0  0  0  0  0  0  0  0  0
    1.2845    1.4285   -0.2554 H   0  0  0  0  0  0  0  0  0  0  0  0
   -0.7334    0.1850   -2.4721 C   0  0  0  0  0  0  0  0  0  0  0  0
   -0.7448   -0.6529   -1.4318 C   0  0  0  0  0  0  0  0  0  0  0  0
   -1.4114   -0.4285   -0.1536 C   0  0  0  0  0  0  0  0  0  0  0  0
   -2.3879    0.7108   -0.0191 C   0  0  0  0  0  0  0  0  0  0  0  0
   -1.2816    1.1195   -2.4657 H   0  0  0  0  0  0  0  0  0  0  0  0
   -0.1805   -0.0510   -3.3718 H   0  0  0  0  0  0  0  0  0  0  0  0
   -0.1757   -1.5750   -1.5052 H   0  0  0  0  0  0  0  0  0  0  0  0
   -0.4187   -0.1251    0.6730 H   0  0  0  0  0  0  0  0  0  0  0  0
   -1.7402   -1.3515    0.3234 H   0  0  0  0  0  0  0  0  0  0  0  0
   -3.2623    0.5605   -0.6590 H   0  0  0  0  0  0  0  0  0  0  0  0
   -1.9338    1.6622   -0.3035 H   0  0  0  0  0  0  0  0  0  0  0  0
   -2.7372    0.8022    1.0101 H   0  0  0  0  0  0  0  0  0  0  0  0
  1  2  3  0
  1  5  1  0
  2  3  1  0
  3  4  1  0
  3  6  1  0
  4  7  1  0
  4  8  1  0
  4  9  1  0
 10 11  2  3
 10 14  1  0
 10 15  1  0
 11 12  1  0
 11 16  1  0
 12 13  1  0
 12 17  1  0
 12 18  1  0
 13 19  1  0
 13 20  1  0
 13 21  1  0
M  RAD  1   3   2
M  END
>  <reaction>  (4) 
rxn_1047

>  <mol_properties>  (4) 
{"1": {"label": "*4", "atom_type": "Ct"}, "2": {"label": "*3", "atom_type": "Cs"}, "10": {"label": "*0", "atom_type": "Cd"}, "11": {"label": "*1", "atom_type": "Cs"}, "16": {"label": "*2", "atom_type": "H0"}}

>  <type>  (4) 
ts

$$$$

     RDKit          3D

 21 19  0  0  0  0  0  0  0  0999 V2000
    2.4841    1.7385    0.8409 C   0  0  0  0  0  0  0  0  0  0  0  0
    1.7986    0.7708    1.0089 C   0  0  0  0  0  0  0  0  0  0  0  0
    0.9471   -0.3934    1.2314 C   0  0  0  0  0  0  0  0  0  0  0  0
   -0.2009   -0.1116    2.2024 C   0  0  0  0  0  0  0  0  0  0  0  0
    3.0927    2.5975    0.6917 H   0  0  0  0  0  0  0  0  0  0  0  0
    1.5638   -1.2120    1.6108 H   0  0  0  0  0  0  0  0  0  0  0  0
   -0.8091   -1.0066    2.3383 H   0  0  0  0  0  0  0  0  0  0  0  0
    0.1826    0.1960    3.1754 H   0  0  0  0  0  0  0  0  0  0  0  0
   -0.8404    0.6860    1.8237 H   0  0  0  0  0  0  0  0  0  0  0  0
   -1.1369   -1.4349   -2.5760 C   0  0  0  0  0  0  0  0  0  0  0  0
   -1.1369   -1.4349   -1.2517 C   0  0  0  0  0  0  0  0  0  0  0  0
   -1.1369   -0.2304   -0.3582 C   0  0  0  0  0  3  0  0  0  0  0  0
   -1.1369    1.1153   -1.0659 C   0  0  0  0  0  0  0  0  0  0  0  0
   -1.1369   -0.5180   -3.1535 H   0  0  0  0  0  0  0  0  0  0  0  0
   -1.1369   -2.3623   -3.1347 H   0  0  0  0  0  0  0  0  0  0  0  0
   -1.1369   -2.3907   -0.7335 H   0  0  0  0  0  0  0  0  0  0  0  0
   -0.0936   -0.3120    0.4375 H   0  0  0  0  0  0  0  0  0  0  0  0
   -2.0063   -0.2984    0.3049 H   0  0  0  0  0  0  0  0  0  0  0  0
   -2.0194    1.2303   -1.6984 H   0  0  0  0  0  0  0  0  0  0  0  0
   -0.2545    1.2303   -1.6984 H   0  0  0  0  0  0  0  0  0  0  0  0
   -1.1369    1.9297   -0.3406 H   0  0  0  0  0  0  0  0  0  0  0  0
  1  2  3  0
  1  5  1  0
  2  3  1  0
  3  4  1  0
  3  6  1  0
  3 17  1  0
  4  7  1  0
  4  8  1  0
  4  9  1  0
 10 11  2  3
 10 14  1  0
 10 15  1  0
 11 12  1  0
 11 16  1  0
 12 13  1  0
 12 18  1  0
 13 19  1  0
 13 20  1  0
 13 21  1  0
M  RAD  1  12   2
M  END
>  <reaction>  (5) 
rxn_1047

>  <mol_properties>  (5) 
{"1": {"label": "*4", "atom_type": "Ct"}, "2": {"label": "*3", "atom_type": "Cs"}, "10": {"label": "*0", "atom_type": "Cd"}, "11": {"label": "*1", "atom_type": "Cs"}, "16": {"label": "*2", "atom_type": "H0"}}

>  <type>  (5) 
unop_1

>  <geom_source>  (5) 
Heuristics

$$$$

     RDKit          3D

 21 19  0  0  0  0  0  0  0  0999 V2000
    2.6248   -1.2392    0.2523 C   0  0  0  0  0  0  0  0  0  0  0  0
    1.7415   -0.6676    0.8246 C   0  0  0  0  0  0  0  0  0  0  0  0
    0.6786    0.0535    1.5175 C   0  0  0  0  0  0  0  0  0  0  0  0
    0.9232    1.5626    1.5714 C   0  0  0  0  0  0  0  0  0  0  0  0
    3.4090   -1.7467   -0.2558 H   0  0  0  0  0  0  0  0  0  0  0  0
    0.5864   -0.3456    2.5308 H   0  0  0  0  0  0  0  0  0  0  0  0
    0.1064    2.0592    2.0965 H   0  0  0  0  0  0  0  0  0  0  0  0
    1.8544    1.7848    2.0929 H   0  0  0  0  0  0  0  0  0  0  0  0
    0.9911    1.9792    0.5663 H   0  0  0  0  0  0  0  0  0  0  0  0
   -1.4055   -0.9881   -2.2899 C   0  0  0  0  0  0  0  0  0  0  0  0
   -1.4055   -0.9881   -0.9655 C   0  0  0  0  0  0  0  0  0  0  0  0
   -1.4055    0.2164   -0.0721 C   0  0  0  0  0  3  0  0  0  0  0  0
   -1.4055    1.5622   -0.7798 C   0  0  0  0  0  0  0  0  0  0  0  0
   -1.4055   -0.0712   -2.8673 H   0  0  0  0  0  0  0  0  0  0  0  0
   -1.4055   -1.9154   -2.8486 H   0  0  0  0  0  0  0  0  0  0  0  0
   -1.4055   -1.9438   -0.4474 H   0  0  0  0  0  0  0  0  0  0  0  0
   -0.3622    0.1348    0.7237 H   0  0  0  0  0  0  0  0  0  0  0  0
   -2.2749    0.1484    0.5910 H   0  0  0  0  0  0  0  0  0  0  0  0
   -2.2879    1.6772   -1.4122 H   0  0  0  0  0  0  0  0  0  0  0  0
   -0.5230    1.6772   -1.4122 H   0  0  0  0  0  0  0  0  0  0  0  0
   -1.4055    2.3765   -0.0545 H   0  0  0  0  0  0  0  0  0  0  0  0
  1  2  3  0
  1  5  1  0
  2  3  1  0
  3  4  1  0
  3  6  1  0
  3 17  1  0
  4  7  1  0
  4  8  1  0
  4  9  1  0
 10 11  2  3
 10 14  1  0
 10 15  1  0
 11 12  1  0
 11 16  1  0
 12 13  1  0
 12 18  1  0
 13 19  1  0
 13 20  1  0
 13 21  1  0
M  RAD  1  12   2
M  END
>  <reaction>  (6) 
rxn_1047

>  <mol_properties>  (6) 
{"1": {"label": "*4", "atom_type": "Ct"}, "2": {"label": "*3", "atom_type": "Cs"}, "10": {"label": "*0", "atom_type": "Cd"}, "11": {"label": "*1", "atom_type": "Cs"}, "16": {"label": "*2", "atom_type": "H0"}}

>  <type>  (6) 
unop_2

>  <geom_source>  (6) 
Heuristics

$$$$

     RDKit          3D

 21 19  0  0  0  0  0  0  0  0999 V2000
    1.8437    2.1283    1.6655 C   0  0  0  0  0  0  0  0  0  0  0  0
    1.4938    1.0211    1.3722 C   0  0  0  0  0  0  0  0  0  0  0  0
    1.0519   -0.3293    1.0385 C   0  0  0  0  0  0  0  0  0  0  0  0
    0.1073   -0.9201    2.0867 C   0  0  0  0  0  0  0  0  0  0  0  0
    2.1544    3.1113    1.9259 H   0  0  0  0  0  0  0  0  0  0  0  0
    1.9312   -0.9687    0.9264 H   0  0  0  0  0  0  0  0  0  0  0  0
   -0.1963   -1.9268    1.7969 H   0  0  0  0  0  0  0  0  0  0  0  0
    0.5950   -0.9736    3.0601 H   0  0  0  0  0  0  0  0  0  0  0  0
   -0.7876   -0.3062    2.1903 H   0  0  0  0  0  0  0  0  0  0  0  0
   -1.0321   -1.3708   -2.7689 C   0  0  0  0  0  0  0  0  0  0  0  0
   -1.0321   -1.3708   -1.4446 C   0  0  0  0  0  0  0  0  0  0  0  0
   -1.0321   -0.1663   -0.5511 C   0  0  0  0  0  3  0  0  0  0  0  0
   -1.0321    1.1794   -1.2588 C   0  0  0  0  0  0  0  0  0  0  0  0
   -1.0321   -0.4539   -3.3464 H   0  0  0  0  0  0  0  0  0  0  0  0
   -1.0321   -2.2981   -3.3276 H   0  0  0  0  0  0  0  0  0  0  0  0
   -1.0321   -2.3265   -0.9264 H   0  0  0  0  0  0  0  0  0  0  0  0
    0.0112   -0.2479    0.2446 H   0  0  0  0  0  0  0  0  0  0  0  0
   -1.9015   -0.2343    0.1120 H   0  0  0  0  0  0  0  0  0  0  0  0
   -1.9145    1.2945   -1.8912 H   0  0  0  0  0  0  0  0  0  0  0  0
   -0.1496    1.2945   -1.8912 H   0  0  0  0  0  0  0  0  0  0  0  0
   -1.0321    1.9938   -0.5335 H   0  0  0  0  0  0  0  0  0  0  0  0
  1  2  3  0
  1  5  1  0
  2  3  1  0
  3  4  1  0
  3  6  1  0
  3 17  1  0
  4  7  1  0
  4  8  1  0
  4  9  1  0
 10 11  2  3
 10 14  1  0
 10 15  1  0
 11 12  1  0
 11 16  1  0
 12 13  1  0
 12 18  1  0
 13 19  1  0
 13 20  1  0
 13 21  1  0
M  RAD  1  12   2
M  END
>  <reaction>  (7) 
rxn_1047

>  <mol_properties>  (7) 
{"1": {"label": "*4", "atom_type": "Ct"}, "2": {"label": "*3", "atom_type": "Cs"}, "10": {"label": "*0", "atom_type": "Cd"}, "11": {"label": "*1", "atom_type": "Cs"}, "16": {"label": "*2", "atom_type": "H0"}}

>  <type>  (7) 
unop_3

>  <geom_source>  (7) 
Heuristics

$$$$

     RDKit          3D

 21 19  0  0  0  0  0  0  0  0999 V2000
    0.7259   -1.8622    2.5014 C   0  0  0  0  0  0  0  0  0  0  0  0
    0.7910   -0.8586    1.8508 C   0  0  0  0  0  0  0  0  0  0  0  0
    0.8984    0.3638    1.0608 C   0  0  0  0  0  0  0  0  0  0  0  0
    2.3449    0.8270    0.8787 C   0  0  0  0  0  0  0  0  0  0  0  0
    0.6682   -2.7531    3.0789 H   0  0  0  0  0  0  0  0  0  0  0  0
    0.3141    1.1488    1.5474 H   0  0  0  0  0  0  0  0  0  0  0  0
    2.3769    1.7407    0.2841 H   0  0  0  0  0  0  0  0  0  0  0  0
    2.8111    1.0267    1.8436 H   0  0  0  0  0  0  0  0  0  0  0  0
    2.9341    0.0636    0.3703 H   0  0  0  0  0  0  0  0  0  0  0  0
   -1.1857   -0.6778   -2.7466 C   0  0  0  0  0  0  0  0  0  0  0  0
   -1.1857   -0.6778   -1.4223 C   0  0  0  0  0  0  0  0  0  0  0  0
   -1.1857    0.5267   -0.5288 C   0  0  0  0  0  3  0  0  0  0  0  0
   -1.1857    1.8725   -1.2365 C   0  0  0  0  0  0  0  0  0  0  0  0
   -1.1857    0.2391   -3.3240 H   0  0  0  0  0  0  0  0  0  0  0  0
   -1.1857   -1.6051   -3.3053 H   0  0  0  0  0  0  0  0  0  0  0  0
   -1.1857   -1.6335   -0.9041 H   0  0  0  0  0  0  0  0  0  0  0  0
   -0.1424    0.4451    0.2669 H   0  0  0  0  0  0  0  0  0  0  0  0
   -2.0551    0.4587    0.1343 H   0  0  0  0  0  0  0  0  0  0  0  0
   -2.0681    1.9875   -1.8689 H   0  0  0  0  0  0  0  0  0  0  0  0
   -0.3032    1.9875   -1.8689 H   0  0  0  0  0  0  0  0  0  0  0  0
   -1.1857    2.6868   -0.5112 H   0  0  0  0  0  0  0  0  0  0  0  0
  1  2  3  0
  1  5  1  0
  2  3  1  0
  3  4  1  0
  3  6  1  0
  3 17  1  0
  4  7  1  0
  4  8  1  0
  4  9  1  0
 10 11  2  3
 10 14  1  0
 10 15  1  0
 11 12  1  0
 11 16  1  0
 12 13  1  0
 12 18  1  0
 13 19  1  0
 13 20  1  0
 13 21  1  0
M  RAD  1  12   2
M  END
>  <reaction>  (8) 
rxn_1047

>  <mol_properties>  (8) 
{"1": {"label": "*4", "atom_type": "Ct"}, "2": {"label": "*3", "atom_type": "Cs"}, "10": {"label": "*0", "atom_type": "Cd"}, "11": {"label": "*1", "atom_type": "Cs"}, "16": {"label": "*2", "atom_type": "H0"}}

>  <type>  (8) 
unop_4

>  <geom_source>  (8) 
Heuristics

$$$$

     RDKit          3D

 21 19  0  0  0  0  0  0  0  0999 V2000
    1.0857    1.9433    2.5167 C   0  0  0  0  0  0  0  0  0  0  0  0
    1.0751    0.9998    1.7789 C   0  0  0  0  0  0  0  0  0  0  0  0
    1.0616   -0.1670    0.9024 C   0  0  0  0  0  0  0  0  0  0  0  0
    1.0275   -1.4877    1.6736 C   0  0  0  0  0  0  0  0  0  0  0  0
    1.0950    2.7809    3.1716 H   0  0  0  0  0  0  0  0  0  0  0  0
    1.9449   -0.1334    0.2596 H   0  0  0  0  0  0  0  0  0  0  0  0
    1.0185   -2.3297    0.9806 H   0  0  0  0  0  0  0  0  0  0  0  0
    1.9012   -1.5812    2.3188 H   0  0  0  0  0  0  0  0  0  0  0  0
    0.1372   -1.5466    2.2999 H   0  0  0  0  0  0  0  0  0  0  0  0
   -1.0224   -1.2085   -2.9050 C   0  0  0  0  0  0  0  0  0  0  0  0
   -1.0224   -1.2085   -1.5807 C   0  0  0  0  0  0  0  0  0  0  0  0
   -1.0224   -0.0040   -0.6872 C   0  0  0  0  0  3  0  0  0  0  0  0
   -1.0224    1.3417   -1.3949 C   0  0  0  0  0  0  0  0  0  0  0  0
   -1.0224   -0.2916   -3.4824 H   0  0  0  0  0  0  0  0  0  0  0  0
   -1.0224   -2.1359   -3.4637 H   0  0  0  0  0  0  0  0  0  0  0  0
   -1.0224   -2.1643   -1.0625 H   0  0  0  0  0  0  0  0  0  0  0  0
    0.0209   -0.0856    0.1085 H   0  0  0  0  0  0  0  0  0  0  0  0
   -1.8918   -0.0720   -0.0241 H   0  0  0  0  0  0  0  0  0  0  0  0
   -1.9048    1.4567   -2.0273 H   0  0  0  0  0  0  0  0  0  0  0  0
   -0.1400    1.4567   -2.0273 H   0  0  0  0  0  0  0  0  0  0  0  0
   -1.0224    2.1561   -0.6696 H   0  0  0  0  0  0  0  0  0  0  0  0
  1  2  3  0
  1  5  1  0
  2  3  1  0
  3  4  1  0
  3  6  1  0
  3 17  1  0
  4  7  1  0
  4  8  1  0
  4  9  1  0
 10 11  2  3
 10 14  1  0
 10 15  1  0
 11 12  1  0
 11 16  1  0
 12 13  1  0
 12 18  1  0
 13 19  1  0
 13 20  1  0
 13 21  1  0
M  RAD  1  12   2
M  END
>  <reaction>  (9) 
rxn_1047

>  <mol_properties>  (9) 
{"1": {"label": "*4", "atom_type": "Ct"}, "2": {"label": "*3", "atom_type": "Cs"}, "10": {"label": "*0", "atom_type": "Cd"}, "11": {"label": "*1", "atom_type": "Cs"}, "16": {"label": "*2", "atom_type": "H0"}}

>  <type>  (9) 
unop_5

>  <geom_source>  (9) 
Heuristics

$$$$

     RDKit          3D

 21 19  0  0  0  0  0  0  0  0999 V2000
    0.2955   -1.0529    3.1368 C   0  0  0  0  0  0  0  0  0  0  0  0
    0.5920   -0.4607    2.1389 C   0  0  0  0  0  0  0  0  0  0  0  0
    0.9806    0.2559    0.9283 C   0  0  0  0  0  0  0  0  0  0  0  0
    2.4955    0.2860    0.7175 C   0  0  0  0  0  0  0  0  0  0  0  0
    0.0322   -1.5786    4.0227 H   0  0  0  0  0  0  0  0  0  0  0  0
    0.5917    1.2758    0.9838 H   0  0  0  0  0  0  0  0  0  0  0  0
    2.7391    0.8298   -0.1959 H   0  0  0  0  0  0  0  0  0  0  0  0
    2.9925    0.7769    1.5543 H   0  0  0  0  0  0  0  0  0  0  0  0
    2.8942   -0.7252    0.6337 H   0  0  0  0  0  0  0  0  0  0  0  0
   -1.1034   -0.7857   -2.8791 C   0  0  0  0  0  0  0  0  0  0  0  0
   -1.1034   -0.7857   -1.5548 C   0  0  0  0  0  0  0  0  0  0  0  0
   -1.1034    0.4188   -0.6613 C   0  0  0  0  0  3  0  0  0  0  0  0
   -1.1034    1.7646   -1.3690 C   0  0  0  0  0  0  0  0  0  0  0  0
   -1.1034    0.1312   -3.4566 H   0  0  0  0  0  0  0  0  0  0  0  0
   -1.1034   -1.7130   -3.4378 H   0  0  0  0  0  0  0  0  0  0  0  0
   -1.1034   -1.7414   -1.0366 H   0  0  0  0  0  0  0  0  0  0  0  0
   -0.0602    0.3373    0.1344 H   0  0  0  0  0  0  0  0  0  0  0  0
   -1.9728    0.3509    0.0018 H   0  0  0  0  0  0  0  0  0  0  0  0
   -1.9859    1.8796   -2.0014 H   0  0  0  0  0  0  0  0  0  0  0  0
   -0.2210    1.8796   -2.0014 H   0  0  0  0  0  0  0  0  0  0  0  0
   -1.1034    2.5789   -0.6437 H   0  0  0  0  0  0  0  0  0  0  0  0
  1  2  3  0
  1  5  1  0
  2  3  1  0
  3  4  1  0
  3  6  1  0
  3 17  1  0
  4  7  1  0
  4  8  1  0
  4  9  1  0
 10 11  2  3
 10 14  1  0
 10 15  1  0
 11 12  1  0
 11 16  1  0
 12 13  1  0
 12 18  1  0
 13 19  1  0
 13 20  1  0
 13 21  1  0
M  RAD  1  12   2
M  END
>  <reaction>  (10) 
rxn_1047

>  <mol_properties>  (10) 
{"1": {"label": "*4", "atom_type": "Ct"}, "2": {"label": "*3", "atom_type": "Cs"}, "10": {"label": "*0", "atom_type": "Cd"}, "11": {"label": "*1", "atom_type": "Cs"}, "16": {"label": "*2", "atom_type": "H0"}}

>  <type>  (10) 
unop_6

>  <geom_source>  (10) 
Heuristics

$$$$

     RDKit          3D

 21 19  0  0  0  0  0  0  0  0999 V2000
    0.1883    0.0498    3.3905 C   0  0  0  0  0  0  0  0  0  0  0  0
    0.5504    0.0804    2.2492 C   0  0  0  0  0  0  0  0  0  0  0  0
    1.0163    0.1069    0.8664 C   0  0  0  0  0  0  0  0  0  0  0  0
    2.4436   -0.4215    0.7114 C   0  0  0  0  0  0  0  0  0  0  0  0
   -0.1331    0.0226    4.4037 H   0  0  0  0  0  0  0  0  0  0  0  0
    0.9565    1.1331    0.4953 H   0  0  0  0  0  0  0  0  0  0  0  0
    2.7490   -0.3833   -0.3349 H   0  0  0  0  0  0  0  0  0  0  0  0
    3.1426    0.1758    1.2970 H   0  0  0  0  0  0  0  0  0  0  0  0
    2.5126   -1.4543    1.0535 H   0  0  0  0  0  0  0  0  0  0  0  0
   -1.0677   -0.9347   -2.9410 C   0  0  0  0  0  0  0  0  0  0  0  0
   -1.0677   -0.9347   -1.6166 C   0  0  0  0  0  0  0  0  0  0  0  0
   -1.0677    0.2698   -0.7232 C   0  0  0  0  0  3  0  0  0  0  0  0
   -1.0677    1.6156   -1.4309 C   0  0  0  0  0  0  0  0  0  0  0  0
   -1.0677   -0.0178   -3.5184 H   0  0  0  0  0  0  0  0  0  0  0  0
   -1.0677   -1.8620   -3.4997 H   0  0  0  0  0  0  0  0  0  0  0  0
   -1.0677   -1.8904   -1.0985 H   0  0  0  0  0  0  0  0  0  0  0  0
   -0.0244    0.1883    0.0726 H   0  0  0  0  0  0  0  0  0  0  0  0
   -1.9371    0.2019   -0.0601 H   0  0  0  0  0  0  0  0  0  0  0  0
   -1.9501    1.7306   -2.0633 H   0  0  0  0  0  0  0  0  0  0  0  0
   -0.1853    1.7306   -2.0633 H   0  0  0  0  0  0  0  0  0  0  0  0
   -1.0677    2.4299   -0.7056 H   0  0  0  0  0  0  0  0  0  0  0  0
  1  2  3  0
  1  5  1  0
  2  3  1  0
  3  4  1  0
  3  6  1  0
  3 17  1  0
  4  7  1  0
  4  8  1  0
  4  9  1  0
 10 11  2  3
 10 14  1  0
 10 15  1  0
 11 12  1  0
 11 16  1  0
 12 13  1  0
 12 18  1  0
 13 19  1  0
 13 20  1  0
 13 21  1  0
M  RAD  1  12   2
M  END
>  <reaction>  (11) 
rxn_1047

>  <mol_properties>  (11) 
{"1": {"label": "*4", "atom_type": "Ct"}, "2": {"label": "*3", "atom_type": "Cs"}, "10": {"label": "*0", "atom_type": "Cd"}, "11": {"label": "*1", "atom_type": "Cs"}, "16": {"label": "*2", "atom_type": "H0"}}

>  <type>  (11) 
unop_7

>  <geom_source>  (11) 
Heuristics

$$$$

     RDKit          3D

 21 19  0  0  0  0  0  0  0  0999 V2000
    2.8760    0.8918    0.2411 C   0  0  0  0  0  0  0  0  0  0  0  0
    1.9540    0.3311    0.7609 C   0  0  0  0  0  0  0  0  0  0  0  0
    0.8213   -0.3272    1.4039 C   0  0  0  0  0  0  0  0  0  0  0  0
   -0.0957    0.6529    2.1379 C   0  0  0  0  0  0  0  0  0  0  0  0
    3.6944    1.3896   -0.2204 H   0  0  0  0  0  0  0  0  0  0  0  0
    1.2013   -1.0768    2.1026 H   0  0  0  0  0  0  0  0  0  0  0  0
   -0.9257    0.1186    2.6017 H   0  0  0  0  0  0  0  0  0  0  0  0
    0.4511    1.1842    2.9171 H   0  0  0  0  0  0  0  0  0  0  0  0
   -0.5035    1.3915    1.4477 H   0  0  0  0  0  0  0  0  0  0  0  0
   -1.2627   -1.3688   -2.4035 C   0  0  0  0  0  0  0  0  0  0  0  0
   -1.2627   -1.3688   -1.0791 C   0  0  0  0  0  0  0  0  0  0  0  0
   -1.2627   -0.1643   -0.1857 C   0  0  0  0  0  3  0  0  0  0  0  0
   -1.2627    1.1815   -0.8934 C   0  0  0  0  0  0  0  0  0  0  0  0
   -1.2627   -0.4519   -2.9809 H   0  0  0  0  0  0  0  0  0  0  0  0
   -1.2627   -2.2961   -2.9622 H   0  0  0  0  0  0  0  0  0  0  0  0
   -1.2627   -2.3245   -0.5610 H   0  0  0  0  0  0  0  0  0  0  0  0
   -0.2194   -0.2459    0.6101 H   0  0  0  0  0  0  0  0  0  0  0  0
   -2.1321   -0.2323    0.4774 H   0  0  0  0  0  0  0  0  0  0  0  0
   -2.1452    1.2965   -1.5258 H   0  0  0  0  0  0  0  0  0  0  0  0
   -0.3803    1.2965   -1.5258 H   0  0  0  0  0  0  0  0  0  0  0  0
   -1.2627    1.9958   -0.1681 H   0  0  0  0  0  0  0  0  0  0  0  0
  1  2  3  0
  1  5  1  0
  2  3  1  0
  3  4  1  0
  3  6  1  0
  3 17  1  0
  4  7  1  0
  4  8  1  0
  4  9  1  0
 10 11  2  3
 10 14  1  0
 10 15  1  0
 11 12  1  0
 11 16  1  0
 12 13  1  0
 12 18  1  0
 13 19  1  0
 13 20  1  0
 13 21  1  0
M  RAD  1  12   2
M  END
>  <reaction>  (12) 
rxn_1047

>  <mol_properties>  (12) 
{"1": {"label": "*4", "atom_type": "Ct"}, "2": {"label": "*3", "atom_type": "Cs"}, "10": {"label": "*0", "atom_type": "Cd"}, "11": {"label": "*1", "atom_type": "Cs"}, "16": {"label": "*2", "atom_type": "H0"}}

>  <type>  (12) 
unop_8

>  <geom_source>  (12) 
Heuristics

$$$$

     RDKit          3D

 21 19  0  0  0  0  0  0  0  0999 V2000
    1.3623   -2.1873    1.6668 C   0  0  0  0  0  0  0  0  0  0  0  0
    1.0916   -1.0362    1.4762 C   0  0  0  0  0  0  0  0  0  0  0  0
    0.7893    0.3723    1.2424 C   0  0  0  0  0  0  0  0  0  0  0  0
    2.0457    1.2276    1.0689 C   0  0  0  0  0  0  0  0  0  0  0  0
    1.6026   -3.2091    1.8360 H   0  0  0  0  0  0  0  0  0  0  0  0
    0.1955    0.7477    2.0797 H   0  0  0  0  0  0  0  0  0  0  0  0
    1.7727    2.2694    0.8970 H   0  0  0  0  0  0  0  0  0  0  0  0
    2.6731    1.1776    1.9590 H   0  0  0  0  0  0  0  0  0  0  0  0
    2.6352    0.8808    0.2201 H   0  0  0  0  0  0  0  0  0  0  0  0
   -1.2948   -0.6693   -2.5650 C   0  0  0  0  0  0  0  0  0  0  0  0
   -1.2948   -0.6693   -1.2407 C   0  0  0  0  0  0  0  0  0  0  0  0
   -1.2948    0.5352   -0.3472 C   0  0  0  0  0  3  0  0  0  0  0  0
   -1.2948    1.8810   -1.0549 C   0  0  0  0  0  0  0  0  0  0  0  0
   -1.2948    0.2476   -3.1424 H   0  0  0  0  0  0  0  0  0  0  0  0
   -1.2948   -1.5966   -3.1237 H   0  0  0  0  0  0  0  0  0  0  0  0
   -1.2948   -1.6250   -0.7225 H   0  0  0  0  0  0  0  0  0  0  0  0
   -0.2515    0.4537    0.4485 H   0  0  0  0  0  0  0  0  0  0  0  0
   -2.1642    0.4672    0.3159 H   0  0  0  0  0  0  0  0  0  0  0  0
   -2.1772    1.9960   -1.6873 H   0  0  0  0  0  0  0  0  0  0  0  0
   -0.4123    1.9960   -1.6873 H   0  0  0  0  0  0  0  0  0  0  0  0
   -1.2948    2.6953   -0.3296 H   0  0  0  0  0  0  0  0  0  0  0  0
  1  2  3  0
  1  5  1  0
  2  3  1  0
  3  4  1  0
  3  6  1  0
  3 17  1  0
  4  7  1  0
  4  8  1  0
  4  9  1  0
 10 11  2  3
 10 14  1  0
 10 15  1  0
 11 12  1  0
 11 16  1  0
 12 13  1  0
 12 18  1  0
 13 19  1  0
 13 20  1  0
 13 21  1  0
M  RAD  1  12   2
M  END
>  <reaction>  (13) 
rxn_1047

>  <mol_properties>  (13) 
{"1": {"label": "*4", "atom_type": "Ct"}, "2": {"label": "*3", "atom_type": "Cs"}, "10": {"label": "*0", "atom_type": "Cd"}, "11": {"label": "*1", "atom_type": "Cs"}, "16": {"label": "*2", "atom_type": "H0"}}

>  <type>  (13) 
unop_9

>  <geom_source>  (13) 
Heuristics

$$$$

     RDKit          3D

 21 19  0  0  0  0  0  0  0  0999 V2000
    2.9278   -0.1967    0.0267 C   0  0  0  0  0  0  0  0  0  0  0  0
    1.9336   -0.1939    0.6945 C   0  0  0  0  0  0  0  0  0  0  0  0
    0.7235   -0.1622    1.5097 C   0  0  0  0  0  0  0  0  0  0  0  0
    0.3103    1.2573    1.9029 C   0  0  0  0  0  0  0  0  0  0  0  0
    3.8104   -0.1993   -0.5663 H   0  0  0  0  0  0  0  0  0  0  0  0
    0.8886   -0.7642    2.4068 H   0  0  0  0  0  0  0  0  0  0  0  0
   -0.5958    1.2327    2.5093 H   0  0  0  0  0  0  0  0  0  0  0  0
    1.0979    1.7436    2.4787 H   0  0  0  0  0  0  0  0  0  0  0  0
    0.1165    1.8627    1.0172 H   0  0  0  0  0  0  0  0  0  0  0  0
   -1.3606   -1.2037   -2.2977 C   0  0  0  0  0  0  0  0  0  0  0  0
   -1.3606   -1.2037   -0.9733 C   0  0  0  0  0  0  0  0  0  0  0  0
   -1.3606    0.0008   -0.0799 C   0  0  0  0  0  3  0  0  0  0  0  0
   -1.3606    1.3465   -0.7876 C   0  0  0  0  0  0  0  0  0  0  0  0
   -1.3606   -0.2868   -2.8751 H   0  0  0  0  0  0  0  0  0  0  0  0
   -1.3606   -2.1311   -2.8564 H   0  0  0  0  0  0  0  0  0  0  0  0
   -1.3606   -2.1594   -0.4552 H   0  0  0  0  0  0  0  0  0  0  0  0
   -0.3173   -0.0808    0.7159 H   0  0  0  0  0  0  0  0  0  0  0  0
   -2.2300   -0.0672    0.5832 H   0  0  0  0  0  0  0  0  0  0  0  0
   -2.2430    1.4615   -1.4200 H   0  0  0  0  0  0  0  0  0  0  0  0
   -0.4781    1.4615   -1.4200 H   0  0  0  0  0  0  0  0  0  0  0  0
   -1.3606    2.1609   -0.0623 H   0  0  0  0  0  0  0  0  0  0  0  0
  1  2  3  0
  1  5  1  0
  2  3  1  0
  3  4  1  0
  3  6  1  0
  3 17  1  0
  4  7  1  0
  4  8  1  0
  4  9  1  0
 10 11  2  3
 10 14  1  0
 10 15  1  0
 11 12  1  0
 11 16  1  0
 12 13  1  0
 12 18  1  0
 13 19  1  0
 13 20  1  0
 13 21  1  0
M  RAD  1  12   2
M  END
>  <reaction>  (14) 
rxn_1047

>  <mol_properties>  (14) 
{"1": {"label": "*4", "atom_type": "Ct"}, "2": {"label": "*3", "atom_type": "Cs"}, "10": {"label": "*0", "atom_type": "Cd"}, "11": {"label": "*1", "atom_type": "Cs"}, "16": {"label": "*2", "atom_type": "H0"}}

>  <type>  (14) 
unop_10

>  <geom_source>  (14) 
Heuristics

$$$$

     RDKit          3D

 21 19  0  0  0  0  0  0  0  0999 V2000
    0.4604    1.1626    3.1686 C   0  0  0  0  0  0  0  0  0  0  0  0
    0.7078    0.6332    2.1231 C   0  0  0  0  0  0  0  0  0  0  0  0
    1.0266   -0.0297    0.8626 C   0  0  0  0  0  0  0  0  0  0  0  0
    2.0190   -1.1814    1.0327 C   0  0  0  0  0  0  0  0  0  0  0  0
    0.2407    1.6326    4.0967 H   0  0  0  0  0  0  0  0  0  0  0  0
    1.4312    0.7115    0.1687 H   0  0  0  0  0  0  0  0  0  0  0  0
    2.2274   -1.6460    0.0683 H   0  0  0  0  0  0  0  0  0  0  0  0
    2.9586   -0.8231    1.4533 H   0  0  0  0  0  0  0  0  0  0  0  0
    1.6172   -1.9420    1.7025 H   0  0  0  0  0  0  0  0  0  0  0  0
   -1.0574   -1.0712   -2.9448 C   0  0  0  0  0  0  0  0  0  0  0  0
   -1.0574   -1.0712   -1.6205 C   0  0  0  0  0  0  0  0  0  0  0  0
   -1.0574    0.1333   -0.7270 C   0  0  0  0  0  3  0  0  0  0  0  0
   -1.0574    1.4790   -1.4347 C   0  0  0  0  0  0  0  0  0  0  0  0
   -1.0574   -0.1543   -3.5222 H   0  0  0  0  0  0  0  0  0  0  0  0
   -1.0574   -1.9986   -3.5035 H   0  0  0  0  0  0  0  0  0  0  0  0
   -1.0574   -2.0270   -1.1023 H   0  0  0  0  0  0  0  0  0  0  0  0
   -0.0141    0.0517    0.0687 H   0  0  0  0  0  0  0  0  0  0  0  0
   -1.9268    0.0653   -0.0639 H   0  0  0  0  0  0  0  0  0  0  0  0
   -1.9399    1.5940   -2.0671 H   0  0  0  0  0  0  0  0  0  0  0  0
   -0.1750    1.5940   -2.0671 H   0  0  0  0  0  0  0  0  0  0  0  0
   -1.0574    2.2934   -0.7094 H   0  0  0  0  0  0  0  0  0  0  0  0
  1  2  3  0
  1  5  1  0
  2  3  1  0
  3  4  1  0
  3  6  1  0
  3 17  1  0
  4  7  1  0
  4  8  1  0
  4  9  1  0
 10 11  2  3
 10 14  1  0
 10 15  1  0
 11 12  1  0
 11 16  1  0
 12 13  1  0
 12 18  1  0
 13 19  1  0
 13 20  1  0
 13 21  1  0
M  RAD  1  12   2
M  END
>  <reaction>  (15) 
rxn_1047

>  <mol_properties>  (15) 
{"1": {"label": "*4", "atom_type": "Ct"}, "2": {"label": "*3", "atom_type": "Cs"}, "10": {"label": "*0", "atom_type": "Cd"}, "11": {"label": "*1", "atom_type": "Cs"}, "16": {"label": "*2", "atom_type": "H0"}}

>  <type>  (15) 
unop_11

>  <geom_source>  (15) 
Heuristics

$$$$

     RDKit          3D

 21 19  0  0  0  0  0  0  0  0999 V2000
    2.0512   -1.9614    0.8506 C   0  0  0  0  0  0  0  0  0  0  0  0
    1.4326   -0.9688    1.1084 C   0  0  0  0  0  0  0  0  0  0  0  0
    0.7019    0.2562    1.4174 C   0  0  0  0  0  0  0  0  0  0  0  0
    1.5641    1.5122    1.2777 C   0  0  0  0  0  0  0  0  0  0  0  0
    2.6003   -2.8427    0.6217 H   0  0  0  0  0  0  0  0  0  0  0  0
    0.3103    0.1842    2.4352 H   0  0  0  0  0  0  0  0  0  0  0  0
    0.9788    2.4007    1.5175 H   0  0  0  0  0  0  0  0  0  0  0  0
    2.4198    1.4704    1.9517 H   0  0  0  0  0  0  0  0  0  0  0  0
    1.9405    1.6113    0.2595 H   0  0  0  0  0  0  0  0  0  0  0  0
   -1.3821   -0.7853   -2.3900 C   0  0  0  0  0  0  0  0  0  0  0  0
   -1.3821   -0.7853   -1.0657 C   0  0  0  0  0  0  0  0  0  0  0  0
   -1.3821    0.4192   -0.1722 C   0  0  0  0  0  3  0  0  0  0  0  0
   -1.3821    1.7649   -0.8799 C   0  0  0  0  0  0  0  0  0  0  0  0
   -1.3821    0.1316   -2.9674 H   0  0  0  0  0  0  0  0  0  0  0  0
   -1.3821   -1.7127   -2.9487 H   0  0  0  0  0  0  0  0  0  0  0  0
   -1.3821   -1.7411   -0.5475 H   0  0  0  0  0  0  0  0  0  0  0  0
   -0.3389    0.3376    0.6235 H   0  0  0  0  0  0  0  0  0  0  0  0
   -2.2515    0.3512    0.4909 H   0  0  0  0  0  0  0  0  0  0  0  0
   -2.2646    1.8799   -1.5123 H   0  0  0  0  0  0  0  0  0  0  0  0
   -0.4997    1.8799   -1.5123 H   0  0  0  0  0  0  0  0  0  0  0  0
   -1.3821    2.5793   -0.1546 H   0  0  0  0  0  0  0  0  0  0  0  0
  1  2  3  0
  1  5  1  0
  2  3  1  0
  3  4  1  0
  3  6  1  0
  3 17  1  0
  4  7  1  0
  4  8  1  0
  4  9  1  0
 10 11  2  3
 10 14  1  0
 10 15  1  0
 11 12  1  0
 11 16  1  0
 12 13  1  0
 12 18  1  0
 13 19  1  0
 13 20  1  0
 13 21  1  0
M  RAD  1  12   2
M  END
>  <reaction>  (16) 
rxn_1047

>  <mol_properties>  (16) 
{"1": {"label": "*4", "atom_type": "Ct"}, "2": {"label": "*3", "atom_type": "Cs"}, "10": {"label": "*0", "atom_type": "Cd"}, "11": {"label": "*1", "atom_type": "Cs"}, "16": {"label": "*2", "atom_type": "H0"}}

>  <type>  (16) 
unop_12

>  <geom_source>  (16) 
Heuristics

$$$$

     RDKit          3D

 21 19  0  0  0  0  0  0  0  0999 V2000
   -1.5796    0.0404   -0.0019 C   0  0  0  0  0  0  0  0  0  0  0  0
   -2.1990    0.8918    1.0980 C   0  0  0  0  0  0  0  0  0  0  0  0
    1.0001   -1.8139   -0.1048 C   0  0  0  0  0  0  0  0  0  0  0  0
    0.9997   -0.3127   -0.3690 C   0  0  0  0  0  3  0  0  0  0  0  0
    2.3353    0.2987   -0.0623 C   0  0  0  0  0  0  0  0  0  0  0  0
    2.7403    0.4818    1.1965 C   0  0  0  0  0  0  0  0  0  0  0  0
   -1.9161    0.5805   -1.3237 C   0  0  0  0  0  0  0  0  0  0  0  0
   -2.1919    1.0238   -2.4104 C   0  0  0  0  0  0  0  0  0  0  0  0
   -1.9587   -1.0006    0.0731 H   0  0  0  0  0  0  0  0  0  0  0  0
   -0.2509    0.0294    0.1409 H   0  0  0  0  0  0  0  0  0  0  0  0
   -1.8138    1.9324    1.0421 H   0  0  0  0  0  0  0  0  0  0  0  0
   -3.3063    0.9022    1.0035 H   0  0  0  0  0  0  0  0  0  0  0  0
   -1.9299    0.4672    2.0877 H   0  0  0  0  0  0  0  0  0  0  0  0
    1.2043   -2.0173    0.9675 H   0  0  0  0  0  0  0  0  0  0  0  0
    1.7693   -2.3158   -0.7300 H   0  0  0  0  0  0  0  0  0  0  0  0
    0.0034   -2.2309   -0.3586 H   0  0  0  0  0  0  0  0  0  0  0  0
    0.7422   -0.1277   -1.4338 H   0  0  0  0  0  0  0  0  0  0  0  0
    2.9654    0.6365   -0.8797 H   0  0  0  0  0  0  0  0  0  0  0  0
    3.7016    0.9440    1.3957 H   0  0  0  0  0  0  0  0  0  0  0  0
    2.1189    0.1772    2.0333 H   0  0  0  0  0  0  0  0  0  0  0  0
   -2.4341    1.4130   -3.3642 H   0  0  0  0  0  0  0  0  0  0  0  0
  1  2  1  0
  1  7  1  0
  1  9  1  0
  1 10  1  0
  2 11  1  0
  2 12  1  0
  2 13  1  0
  3  4  1  0
  3 14  1  0
  3 15  1  0
  3 16  1  0
  4  5  1  0
  4 17  1  0
  5  6  2  3
  5 18  1  0
  6 19  1  0
  6 20  1  0
  7  8  3  0
  8 21  1  0
M  RAD  1   4   2
M  END
>  <reaction>  (17) 
rxn_1047

>  <mol_properties>  (17) 
{"1": {"label": "*4", "atom_type": "Ct"}, "2": {"label": "*3", "atom_type": "Cs"}, "10": {"label": "*0", "atom_type": "Cd"}, "11": {"label": "*1", "atom_type": "Cs"}, "16": {"label": "*2", "atom_type": "H0"}}

>  <type>  (17) 
unop_13

>  <geom_source>  (17) 
AutoTST

$$$$
