
     RDKit          3D

  9  8  0  0  0  0  0  0  0  0999 V2000
   -0.8818   -0.3578    0.1297 C   0  0  0  0  0  0  0  0  0  0  0  0
    0.6153   -0.3021   -0.1188 C   0  0  0  0  0  0  0  0  0  0  0  0
    1.5354   -1.7170    0.5545 S   0  0  0  0  0  0  0  0  0  0  0  0
   -1.1018   -0.3317    1.1984 H   0  0  0  0  0  0  0  0  0  0  0  0
   -1.3114   -1.2723   -0.2799 H   0  0  0  0  0  0  0  0  0  0  0  0
   -1.3767    0.4976   -0.3363 H   0  0  0  0  0  0  0  0  0  0  0  0
    1.0467    0.6194    0.2718 H   0  0  0  0  0  0  0  0  0  0  0  0
    0.8295   -0.3275   -1.1882 H   0  0  0  0  0  0  0  0  0  0  0  0
    1.2306   -1.5077    1.8423 H   0  0  0  0  0  0  0  0  0  0  0  0
  1  2  1  0
  1  4  1  0
  1  5  1  0
  1  6  1  0
  2  3  1  0
  2  7  1  0
  2  8  1  0
  3  9  1  0
M  END
>  <reaction>  (1) 
rxn_1880

>  <mol_properties>  (1) 
{"1": {"label": "donator", "atom_type": "Cs"}, "6": {"label": "d_hydrogen", "atom_type": "H0"}}

>  <type>  (1) 
r1h

$$$$

     RDKit          3D

 20 20  0  0  0  0  0  0  0  0999 V2000
   -2.4774    0.8083    0.1488 C   0  0  0  0  0  0  0  0  0  0  0  0
   -1.4172   -0.1696   -0.2476 C   0  0  0  0  0  3  0  0  0  0  0  0
   -0.2904    0.2932   -1.1156 C   0  0  0  0  0  0  0  0  0  0  0  0
   -1.4797   -1.5204    0.1947 C   0  0  0  0  0  0  0  0  0  0  0  0
   -0.4907   -2.4664   -0.1650 C   0  0  0  0  0  0  0  0  0  0  0  0
   -0.5559   -3.7750    0.2665 C   0  0  0  0  0  0  0  0  0  0  0  0
   -1.6038   -4.2041    1.0733 C   0  0  0  0  0  0  0  0  0  0  0  0
   -2.5899   -3.2959    1.4424 C   0  0  0  0  0  0  0  0  0  0  0  0
   -2.5339   -1.9852    1.0162 C   0  0  0  0  0  0  0  0  0  0  0  0
   -3.4697    0.4933   -0.1924 H   0  0  0  0  0  0  0  0  0  0  0  0
   -2.5434    0.9184    1.2368 H   0  0  0  0  0  0  0  0  0  0  0  0
   -2.2829    1.7944   -0.2706 H   0  0  0  0  0  0  0  0  0  0  0  0
   -0.2452   -0.2661   -2.0565 H   0  0  0  0  0  0  0  0  0  0  0  0
   -0.3905    1.3487   -1.3647 H   0  0  0  0  0  0  0  0  0  0  0  0
    0.6811    0.1589   -0.6274 H   0  0  0  0  0  0  0  0  0  0  0  0
    0.3373   -2.1635   -0.7918 H   0  0  0  0  0  0  0  0  0  0  0  0
    0.2187   -4.4725   -0.0281 H   0  0  0  0  0  0  0  0  0  0  0  0
   -1.6513   -5.2316    1.4097 H   0  0  0  0  0  0  0  0  0  0  0  0
   -3.4116   -3.6175    2.0706 H   0  0  0  0  0  0  0  0  0  0  0  0
   -3.3164   -1.3029    1.3205 H   0  0  0  0  0  0  0  0  0  0  0  0
  1  2  1  0
  1 10  1  0
  1 11  1  0
  1 12  1  0
  2  3  1  0
  2  4  1  0
  3 13  1  0
  3 14  1  0
  3 15  1  0
  4  5  2  0
  4  9  1  0
  5  6  1  0
  5 16  1  0
  6  7  2  0
  6 17  1  0
  7  8  1  0
  7 18  1  0
  8  9  2  0
  8 19  1  0
  9 20  1  0
M  RAD  1   2   2
M  END
>  <reaction>  (2) 
rxn_1880

>  <mol_properties>  (2) 
{"1": {"label": "acceptor", "atom_type": "Cs"}}

>  <type>  (2) 
r2

$$$$

     RDKit          3D

 21 21  0  0  0  0  0  0  0  0999 V2000
   -1.3695    1.3367   -1.0719 C   0  0  0  0  0  0  0  0  0  0  0  0
   -1.4091   -0.0981   -0.5428 C   0  0  0  0  0  0  0  0  0  0  0  0
   -0.1819   -0.3999    0.3191 C   0  0  0  0  0  0  0  0  0  0  0  0
   -1.5636   -1.1028   -1.6652 C   0  0  0  0  0  0  0  0  0  0  0  0
   -0.5920   -1.2314   -2.6553 C   0  0  0  0  0  0  0  0  0  0  0  0
   -0.7353   -2.1509   -3.6809 C   0  0  0  0  0  0  0  0  0  0  0  0
   -1.8582   -2.9642   -3.7377 C   0  0  0  0  0  0  0  0  0  0  0  0
   -2.8325   -2.8475   -2.7602 C   0  0  0  0  0  0  0  0  0  0  0  0
   -2.6828   -1.9241   -1.7351 C   0  0  0  0  0  0  0  0  0  0  0  0
   -0.4920    1.4974   -1.7025 H   0  0  0  0  0  0  0  0  0  0  0  0
   -2.2553    1.5607   -1.6679 H   0  0  0  0  0  0  0  0  0  0  0  0
   -1.3211    2.0496   -0.2461 H   0  0  0  0  0  0  0  0  0  0  0  0
   -2.2930   -0.1918    0.0948 H   0  0  0  0  0  0  0  0  0  0  0  0
   -0.1215    0.2955    1.1588 H   0  0  0  0  0  0  0  0  0  0  0  0
   -0.2200   -1.4155    0.7159 H   0  0  0  0  0  0  0  0  0  0  0  0
    0.7383   -0.3016   -0.2615 H   0  0  0  0  0  0  0  0  0  0  0  0
    0.2915   -0.6040   -2.6263 H   0  0  0  0  0  0  0  0  0  0  0  0
    0.0326   -2.2338   -4.4401 H   0  0  0  0  0  0  0  0  0  0  0  0
   -1.9712   -3.6833   -4.5391 H   0  0  0  0  0  0  0  0  0  0  0  0
   -3.7135   -3.4765   -2.7932 H   0  0  0  0  0  0  0  0  0  0  0  0
   -3.4509   -1.8400   -0.9743 H   0  0  0  0  0  0  0  0  0  0  0  0
  1  2  1  0
  1 10  1  0
  1 11  1  0
  1 12  1  0
  2  3  1  0
  2  4  1  0
  2 13  1  0
  3 14  1  0
  3 15  1  0
  3 16  1  0
  4  5  2  0
  4  9  1  0
  5  6  1  0
  5 17  1  0
  6  7  2  0
  6 18  1  0
  7  8  1  0
  7 19  1  0
  8  9  2  0
  8 20  1  0
  9 21  1  0
M  END
>  <reaction>  (3) 
rxn_1880

>  <mol_properties>  (3) 
{"0": {"label": "a_hydrogen", "atom_type": "H0"}, "2": {"label": "acceptor", "atom_type": "Cs"}}

>  <type>  (3) 
r2h

$$$$

     RDKit          3D

 29 28  0  0  0  0  0  0  0  0999 V2000
   -1.8058    0.5635   -1.7316 C   0  0  0  0  0  0  0  0  0  0  0  0
   -1.9076    1.1371   -0.3449 C   0  0  0  0  0  3  0  0  0  0  0  0
   -2.2507    2.8684   -0.1761 S   0  0  0  0  0  0  0  0  0  0  0  0
   -1.0372    1.0808   -2.3110 H   0  0  0  0  0  0  0  0  0  0  0  0
   -2.7500    0.6503   -2.2764 H   0  0  0  0  0  0  0  0  0  0  0  0
   -1.5295   -0.4915   -1.6803 H   0  0  0  0  0  0  0  0  0  0  0  0
   -0.6667    0.8787    0.2183 H   0  0  0  0  0  0  0  0  0  0  0  0
   -2.5763    0.5944    0.3214 H   0  0  0  0  0  0  0  0  0  0  0  0
   -1.3423    3.3018   -1.0620 H   0  0  0  0  0  0  0  0  0  0  0  0
    1.3759    1.6959    0.0384 C   0  0  0  0  0  0  0  0  0  0  0  0
    0.5253    0.6288    0.6882 C   0  0  0  0  0  0  0  0  0  0  0  0
    0.3504    0.8519    2.1770 C   0  0  0  0  0  0  0  0  0  0  0  0
    0.7718   -0.7754    0.2623 C   0  0  0  0  0  0  0  0  0  0  0  0
   -0.0537   -1.8060    0.7269 C   0  0  0  0  0  0  0  0  0  0  0  0
    0.1126   -3.1112    0.3017 C   0  0  0  0  0  0  0  0  0  0  0  0
    1.1160   -3.4307   -0.6029 C   0  0  0  0  0  0  0  0  0  0  0  0
    1.9439   -2.4255   -1.0742 C   0  0  0  0  0  0  0  0  0  0  0  0
    1.7714   -1.1160   -0.6508 C   0  0  0  0  0  0  0  0  0  0  0  0
    1.3433    1.6374   -1.0514 H   0  0  0  0  0  0  0  0  0  0  0  0
    1.0187    2.6842    0.3328 H   0  0  0  0  0  0  0  0  0  0  0  0
    2.4248    1.6208    0.3461 H   0  0  0  0  0  0  0  0  0  0  0  0
    1.3110    0.7648    2.6957 H   0  0  0  0  0  0  0  0  0  0  0  0
   -0.0443    1.8526    2.3650 H   0  0  0  0  0  0  0  0  0  0  0  0
   -0.3329    0.1336    2.6292 H   0  0  0  0  0  0  0  0  0  0  0  0
   -0.8525   -1.5781    1.4223 H   0  0  0  0  0  0  0  0  0  0  0  0
   -0.5463   -3.8849    0.6762 H   0  0  0  0  0  0  0  0  0  0  0  0
    1.2488   -4.4521   -0.9357 H   0  0  0  0  0  0  0  0  0  0  0  0
    2.7332   -2.6589   -1.7781 H   0  0  0  0  0  0  0  0  0  0  0  0
    2.4351   -0.3525   -1.0340 H   0  0  0  0  0  0  0  0  0  0  0  0
  1  2  1  0
  1  4  1  0
  1  5  1  0
  1  6  1  0
  2  3  1  0
  2  8  1  0
  3  9  1  0
  7 11  1  0
 10 11  1  0
 10 19  1  0
 10 20  1  0
 10 21  1  0
 11 12  1  0
 11 13  1  0
 12 22  1  0
 12 23  1  0
 12 24  1  0
 13 14  2  0
 13 18  1  0
 14 15  1  0
 14 25  1  0
 15 16  2  0
 15 26  1  0
 16 17  1  0
 16 27  1  0
 17 18  2  0
 17 28  1  0
 18 29  1  0
M  RAD  1   2   2
M  END
>  <reaction>  (4) 
rxn_1880

>  <mol_properties>  (4) 
{"1": {"label": "*3", "atom_type": "Cs"}, "2": {"label": "*4", "atom_type": "S2s"}, "6": {"label": "*2", "atom_type": "H0"}, "10": {"label": "*1", "atom_type": "Cs"}, "12": {"label": "*0", "atom_type": "Cd"}}

>  <type>  (4) 
ts

$$$$

     RDKit          3D

 29 28  0  0  0  0  0  0  0  0999 V2000
   -1.9898    1.5172   -1.8562 C   0  0  0  0  0  0  0  0  0  0  0  0
   -1.9898    1.5172   -0.3376 C   0  0  0  0  0  0  0  0  0  0  0  0
   -1.9898    3.1745    0.4074 S   0  0  0  0  0  0  0  0  0  0  0  0
   -1.0832    1.9826   -2.2470 H   0  0  0  0  0  0  0  0  0  0  0  0
   -2.8458    2.0684   -2.2464 H   0  0  0  0  0  0  0  0  0  0  0  0
   -2.0329    0.4938   -2.2365 H   0  0  0  0  0  0  0  0  0  0  0  0
   -0.9779    0.8379    0.1365 H   0  0  0  0  0  0  0  0  0  0  0  0
   -2.8974    1.0501    0.0475 H   0  0  0  0  0  0  0  0  0  0  0  0
   -0.8150    3.5762   -0.0961 H   0  0  0  0  0  0  0  0  0  0  0  0
    0.8807    1.1107    1.4598 C   0  0  0  0  0  0  0  0  0  0  0  0
    0.0378    0.1560    0.6125 C   0  0  0  0  0  3  0  0  0  0  0  0
   -1.1897   -0.3278    1.3866 C   0  0  0  0  0  0  0  0  0  0  0  0
    0.8615   -1.0030    0.0915 C   0  0  0  0  0  0  0  0  0  0  0  0
    1.4607   -1.9097    0.9631 C   0  0  0  0  0  0  0  0  0  0  0  0
    2.2136   -2.9690    0.4845 C   0  0  0  0  0  0  0  0  0  0  0  0
    2.3835   -3.1440   -0.8816 C   0  0  0  0  0  0  0  0  0  0  0  0
    1.7937   -2.2504   -1.7601 C   0  0  0  0  0  0  0  0  0  0  0  0
    1.0404   -1.1910   -1.2741 C   0  0  0  0  0  0  0  0  0  0  0  0
    1.7442    1.4745    0.9011 H   0  0  0  0  0  0  0  0  0  0  0  0
    0.2869    1.9716    1.7742 H   0  0  0  0  0  0  0  0  0  0  0  0
    1.2494    0.6138    2.3600 H   0  0  0  0  0  0  0  0  0  0  0  0
   -0.8954   -0.8765    2.2842 H   0  0  0  0  0  0  0  0  0  0  0  0
   -1.8043    0.5185    1.7003 H   0  0  0  0  0  0  0  0  0  0  0  0
   -1.8039   -0.9909    0.7756 H   0  0  0  0  0  0  0  0  0  0  0  0
    1.3383   -1.7881    2.0332 H   0  0  0  0  0  0  0  0  0  0  0  0
    2.6704   -3.6618    1.1804 H   0  0  0  0  0  0  0  0  0  0  0  0
    2.9719   -3.9717   -1.2566 H   0  0  0  0  0  0  0  0  0  0  0  0
    1.9187   -2.3760   -2.8285 H   0  0  0  0  0  0  0  0  0  0  0  0
    0.5825   -0.4966   -1.9696 H   0  0  0  0  0  0  0  0  0  0  0  0
  1  2  1  0
  1  4  1  0
  1  5  1  0
  1  6  1  0
  2  3  1  0
  2  7  1  0
  2  8  1  0
  3  9  1  0
 10 11  1  0
 10 19  1  0
 10 20  1  0
 10 21  1  0
 11 12  1  0
 11 13  1  0
 12 22  1  0
 12 23  1  0
 12 24  1  0
 13 14  2  0
 13 18  1  0
 14 15  1  0
 14 25  1  0
 15 16  2  0
 15 26  1  0
 16 17  1  0
 16 27  1  0
 17 18  2  0
 17 28  1  0
 18 29  1  0
M  RAD  1  11   2
M  END
>  <reaction>  (5) 
rxn_1880

>  <mol_properties>  (5) 
{"1": {"label": "*3", "atom_type": "Cs"}, "2": {"label": "*4", "atom_type": "S2s"}, "6": {"label": "*2", "atom_type": "H0"}, "10": {"label": "*1", "atom_type": "Cs"}, "12": {"label": "*0", "atom_type": "Cd"}}

>  <type>  (5) 
unop_1

>  <geom_source>  (5) 
Heuristics

$$$$

     RDKit          3D

 29 28  0  0  0  0  0  0  0  0999 V2000
   -1.3141    1.6794   -2.5749 C   0  0  0  0  0  0  0  0  0  0  0  0
   -1.3141    1.6794   -1.0563 C   0  0  0  0  0  0  0  0  0  0  0  0
   -1.3141    3.3368   -0.3113 S   0  0  0  0  0  0  0  0  0  0  0  0
   -0.4074    2.1448   -2.9657 H   0  0  0  0  0  0  0  0  0  0  0  0
   -2.1701    2.2306   -2.9650 H   0  0  0  0  0  0  0  0  0  0  0  0
   -1.3572    0.6560   -2.9552 H   0  0  0  0  0  0  0  0  0  0  0  0
   -0.3022    1.0001   -0.5821 H   0  0  0  0  0  0  0  0  0  0  0  0
   -2.2217    1.2124   -0.6711 H   0  0  0  0  0  0  0  0  0  0  0  0
   -0.1393    3.7384   -0.8148 H   0  0  0  0  0  0  0  0  0  0  0  0
    1.8584    0.4275   -1.1148 C   0  0  0  0  0  0  0  0  0  0  0  0
    0.7135    0.3182   -0.1062 C   0  0  0  0  0  3  0  0  0  0  0  0
    0.9027    1.3033    1.0486 C   0  0  0  0  0  0  0  0  0  0  0  0
    0.5434   -1.1012    0.3932 C   0  0  0  0  0  0  0  0  0  0  0  0
    1.5580   -1.7420    1.1009 C   0  0  0  0  0  0  0  0  0  0  0  0
    1.4004   -3.0402    1.5568 C   0  0  0  0  0  0  0  0  0  0  0  0
    0.2196   -3.7272    1.3133 C   0  0  0  0  0  0  0  0  0  0  0  0
   -0.7979   -3.1029    0.6110 C   0  0  0  0  0  0  0  0  0  0  0  0
   -0.6336   -1.8019    0.1569 C   0  0  0  0  0  0  0  0  0  0  0  0
    1.7131   -0.2584   -1.9507 H   0  0  0  0  0  0  0  0  0  0  0  0
    1.9260    1.4429   -1.5109 H   0  0  0  0  0  0  0  0  0  0  0  0
    2.8163    0.1878   -0.6475 H   0  0  0  0  0  0  0  0  0  0  0  0
    1.8262    1.0951    1.5938 H   0  0  0  0  0  0  0  0  0  0  0  0
    0.9607    2.3276    0.6744 H   0  0  0  0  0  0  0  0  0  0  0  0
    0.0752    1.2426    1.7570 H   0  0  0  0  0  0  0  0  0  0  0  0
    2.4870   -1.2201    1.3000 H   0  0  0  0  0  0  0  0  0  0  0  0
    2.2025   -3.5189    2.1049 H   0  0  0  0  0  0  0  0  0  0  0  0
    0.0954   -4.7421    1.6692 H   0  0  0  0  0  0  0  0  0  0  0  0
   -1.7243   -3.6283    0.4145 H   0  0  0  0  0  0  0  0  0  0  0  0
   -1.4358   -1.3214   -0.3920 H   0  0  0  0  0  0  0  0  0  0  0  0
  1  2  1  0
  1  4  1  0
  1  5  1  0
  1  6  1  0
  2  3  1  0
  2  7  1  0
  2  8  1  0
  3  9  1  0
 10 11  1  0
 10 19  1  0
 10 20  1  0
 10 21  1  0
 11 12  1  0
 11 13  1  0
 12 22  1  0
 12 23  1  0
 12 24  1  0
 13 14  2  0
 13 18  1  0
 14 15  1  0
 14 25  1  0
 15 16  2  0
 15 26  1  0
 16 17  1  0
 16 27  1  0
 17 18  2  0
 17 28  1  0
 18 29  1  0
M  RAD  1  11   2
M  END
>  <reaction>  (6) 
rxn_1880

>  <mol_properties>  (6) 
{"1": {"label": "*3", "atom_type": "Cs"}, "2": {"label": "*4", "atom_type": "S2s"}, "6": {"label": "*2", "atom_type": "H0"}, "10": {"label": "*1", "atom_type": "Cs"}, "12": {"label": "*0", "atom_type": "Cd"}}

>  <type>  (6) 
unop_2

>  <geom_source>  (6) 
Heuristics

$$$$

     RDKit          3D

 29 28  0  0  0  0  0  0  0  0999 V2000
   -2.2936    1.0393   -1.6492 C   0  0  0  0  0  0  0  0  0  0  0  0
   -2.2936    1.0393   -0.1305 C   0  0  0  0  0  0  0  0  0  0  0  0
   -2.2936    2.6967    0.6145 S   0  0  0  0  0  0  0  0  0  0  0  0
   -1.3869    1.5047   -2.0399 H   0  0  0  0  0  0  0  0  0  0  0  0
   -3.1495    1.5905   -2.0393 H   0  0  0  0  0  0  0  0  0  0  0  0
   -2.3366    0.0159   -2.0295 H   0  0  0  0  0  0  0  0  0  0  0  0
   -1.2816    0.3600    0.3436 H   0  0  0  0  0  0  0  0  0  0  0  0
   -3.2012    0.5723    0.2546 H   0  0  0  0  0  0  0  0  0  0  0  0
   -1.1188    3.0983    0.1109 H   0  0  0  0  0  0  0  0  0  0  0  0
    0.1189    0.2977    2.1642 C   0  0  0  0  0  0  0  0  0  0  0  0
   -0.2659   -0.3219    0.8195 C   0  0  0  0  0  3  0  0  0  0  0  0
   -1.2944   -1.4392    1.0036 C   0  0  0  0  0  0  0  0  0  0  0  0
    0.9512   -0.8036    0.0582 C   0  0  0  0  0  0  0  0  0  0  0  0
    1.7684   -1.8098    0.5690 C   0  0  0  0  0  0  0  0  0  0  0  0
    2.8811   -2.2489   -0.1289 C   0  0  0  0  0  0  0  0  0  0  0  0
    3.2008   -1.6882   -1.3573 C   0  0  0  0  0  0  0  0  0  0  0  0
    2.3976   -0.6870   -1.8776 C   0  0  0  0  0  0  0  0  0  0  0  0
    1.2841   -0.2516   -1.1733 C   0  0  0  0  0  0  0  0  0  0  0  0
    0.8352    1.1099    2.0324 H   0  0  0  0  0  0  0  0  0  0  0  0
   -0.7631    0.6954    2.6705 H   0  0  0  0  0  0  0  0  0  0  0  0
    0.5736   -0.4463    2.8224 H   0  0  0  0  0  0  0  0  0  0  0  0
   -0.8905   -2.2456    1.6201 H   0  0  0  0  0  0  0  0  0  0  0  0
   -2.1906   -1.0590    1.4982 H   0  0  0  0  0  0  0  0  0  0  0  0
   -1.5869   -1.8667    0.0435 H   0  0  0  0  0  0  0  0  0  0  0  0
    1.5333   -2.2587    1.5272 H   0  0  0  0  0  0  0  0  0  0  0  0
    3.5022   -3.0324    0.2873 H   0  0  0  0  0  0  0  0  0  0  0  0
    4.0705   -2.0308   -1.9036 H   0  0  0  0  0  0  0  0  0  0  0  0
    2.6365   -0.2414   -2.8354 H   0  0  0  0  0  0  0  0  0  0  0  0
    0.6612    0.5328   -1.5887 H   0  0  0  0  0  0  0  0  0  0  0  0
  1  2  1  0
  1  4  1  0
  1  5  1  0
  1  6  1  0
  2  3  1  0
  2  7  1  0
  2  8  1  0
  3  9  1  0
 10 11  1  0
 10 19  1  0
 10 20  1  0
 10 21  1  0
 11 12  1  0
 11 13  1  0
 12 22  1  0
 12 23  1  0
 12 24  1  0
 13 14  2  0
 13 18  1  0
 14 15  1  0
 14 25  1  0
 15 16  2  0
 15 26  1  0
 16 17  1  0
 16 27  1  0
 17 18  2  0
 17 28  1  0
 18 29  1  0
M  RAD  1  11   2
M  END
>  <reaction>  (7) 
rxn_1880

>  <mol_properties>  (7) 
{"1": {"label": "*3", "atom_type": "Cs"}, "2": {"label": "*4", "atom_type": "S2s"}, "6": {"label": "*2", "atom_type": "H0"}, "10": {"label": "*1", "atom_type": "Cs"}, "12": {"label": "*0", "atom_type": "Cd"}}

>  <type>  (7) 
unop_3

>  <geom_source>  (7) 
Heuristics

$$$$

     RDKit          3D

 29 27  0  0  0  0  0  0  0  0999 V2000
   -0.7892    0.5097   -3.1691 C   0  0  0  0  0  0  0  0  0  0  0  0
   -0.7892    0.5097   -1.6505 C   0  0  0  0  0  3  0  0  0  0  0  0
   -0.7892    2.1671   -0.9055 S   0  0  0  0  0  1  0  0  0  0  0  0
    0.1174    0.9752   -3.5599 H   0  0  0  0  0  0  0  0  0  0  0  0
   -1.6452    1.0609   -3.5592 H   0  0  0  0  0  0  0  0  0  0  0  0
   -0.8323   -0.5136   -3.5494 H   0  0  0  0  0  0  0  0  0  0  0  0
    0.2227   -0.1696   -1.1763 H   0  0  0  0  0  0  0  0  0  0  0  0
   -1.6968    0.0427   -1.2653 H   0  0  0  0  0  0  0  0  0  0  0  0
    0.3856    2.5688   -1.4090 H   0  0  0  0  0  0  0  0  0  0  0  0
    1.1127   -2.2877   -1.2117 C   0  0  0  0  0  0  0  0  0  0  0  0
    1.2384   -0.8515   -0.7004 C   0  0  0  0  0  3  0  0  0  0  0  0
    2.7055   -0.4631   -0.5083 C   0  0  0  0  0  0  0  0  0  0  0  0
    0.4340   -0.6369    0.5645 C   0  0  0  0  0  0  0  0  0  0  0  0
    0.7251   -1.3408    1.7310 C   0  0  0  0  0  0  0  0  0  0  0  0
   -0.0119   -1.1431    2.8868 C   0  0  0  0  0  0  0  0  0  0  0  0
   -1.0597   -0.2334    2.8997 C   0  0  0  0  0  0  0  0  0  0  0  0
   -1.3606    0.4736    1.7474 C   0  0  0  0  0  0  0  0  0  0  0  0
   -0.6183    0.2708    0.5926 C   0  0  0  0  0  0  0  0  0  0  0  0
    0.0679   -2.5585   -1.3710 H   0  0  0  0  0  0  0  0  0  0  0  0
    1.6470   -2.4075   -2.1565 H   0  0  0  0  0  0  0  0  0  0  0  0
    1.5371   -2.9965   -0.4969 H   0  0  0  0  0  0  0  0  0  0  0  0
    3.1872   -1.1063    0.2319 H   0  0  0  0  0  0  0  0  0  0  0  0
    3.2558   -0.5645   -1.4459 H   0  0  0  0  0  0  0  0  0  0  0  0
    2.7976    0.5685   -0.1654 H   0  0  0  0  0  0  0  0  0  0  0  0
    1.5402   -2.0553    1.7386 H   0  0  0  0  0  0  0  0  0  0  0  0
    0.2321   -1.7013    3.7822 H   0  0  0  0  0  0  0  0  0  0  0  0
   -1.6363   -0.0781    3.8027 H   0  0  0  0  0  0  0  0  0  0  0  0
   -2.1759    1.1864    1.7445 H   0  0  0  0  0  0  0  0  0  0  0  0
   -0.8614    0.8290   -0.3048 H   0  0  0  0  0  0  0  0  0  0  0  0
  1  2  1  0
  1  4  1  0
  1  5  1  0
  1  6  1  0
  2  7  1  0
  2  8  1  0
  3  9  1  0
 10 11  1  0
 10 19  1  0
 10 20  1  0
 10 21  1  0
 11 12  1  0
 11 13  1  0
 12 22  1  0
 12 23  1  0
 12 24  1  0
 13 14  2  0
 13 18  1  0
 14 15  1  0
 14 25  1  0
 15 16  2  0
 15 26  1  0
 16 17  1  0
 16 27  1  0
 17 18  2  0
 17 28  1  0
 18 29  1  0
M  RAD  3   2   2   3   2  11   2
M  END
>  <reaction>  (8) 
rxn_1880

>  <mol_properties>  (8) 
{"1": {"label": "*3", "atom_type": "Cs"}, "2": {"label": "*4", "atom_type": "S2s"}, "6": {"label": "*2", "atom_type": "H0"}, "10": {"label": "*1", "atom_type": "Cs"}, "12": {"label": "*0", "atom_type": "Cd"}}

>  <type>  (8) 
unop_4

>  <geom_source>  (8) 
Heuristics

$$$$

     RDKit          3D

 29 28  0  0  0  0  0  0  0  0999 V2000
   -2.3662    0.1671   -1.8084 C   0  0  0  0  0  0  0  0  0  0  0  0
   -2.3662    0.1671   -0.2897 C   0  0  0  0  0  0  0  0  0  0  0  0
   -2.3662    1.8245    0.4553 S   0  0  0  0  0  0  0  0  0  0  0  0
   -1.4595    0.6325   -2.1991 H   0  0  0  0  0  0  0  0  0  0  0  0
   -3.2221    0.7183   -2.1985 H   0  0  0  0  0  0  0  0  0  0  0  0
   -2.4093   -0.8562   -2.1887 H   0  0  0  0  0  0  0  0  0  0  0  0
   -1.3543   -0.5122    0.1844 H   0  0  0  0  0  0  0  0  0  0  0  0
   -3.2738   -0.2999    0.0954 H   0  0  0  0  0  0  0  0  0  0  0  0
   -1.1914    2.2262   -0.0483 H   0  0  0  0  0  0  0  0  0  0  0  0
   -0.4188   -1.1402    2.1870 C   0  0  0  0  0  0  0  0  0  0  0  0
   -0.3386   -1.1941    0.6603 C   0  0  0  0  0  3  0  0  0  0  0  0
   -0.4674   -2.6317    0.1537 C   0  0  0  0  0  0  0  0  0  0  0  0
    0.9212   -0.5312    0.1439 C   0  0  0  0  0  0  0  0  0  0  0  0
    2.1816   -1.0237    0.4751 C   0  0  0  0  0  0  0  0  0  0  0  0
    3.3325   -0.4160    0.0017 C   0  0  0  0  0  0  0  0  0  0  0  0
    3.2461    0.7018   -0.8161 C   0  0  0  0  0  0  0  0  0  0  0  0
    1.9997    1.2026   -1.1537 C   0  0  0  0  0  0  0  0  0  0  0  0
    0.8504    0.5889   -0.6760 C   0  0  0  0  0  0  0  0  0  0  0  0
   -0.3500   -0.1132    2.5485 H   0  0  0  0  0  0  0  0  0  0  0  0
   -1.3613   -1.5659    2.5375 H   0  0  0  0  0  0  0  0  0  0  0  0
    0.3940   -1.7107    2.6423 H   0  0  0  0  0  0  0  0  0  0  0  0
    0.3437   -3.2558    0.5359 H   0  0  0  0  0  0  0  0  0  0  0  0
   -1.4105   -3.0724    0.4838 H   0  0  0  0  0  0  0  0  0  0  0  0
   -0.4333   -2.6693   -0.9361 H   0  0  0  0  0  0  0  0  0  0  0  0
    2.2675   -1.8960    1.1129 H   0  0  0  0  0  0  0  0  0  0  0  0
    4.3020   -0.8159    0.2719 H   0  0  0  0  0  0  0  0  0  0  0  0
    4.1452    1.1776   -1.1866 H   0  0  0  0  0  0  0  0  0  0  0  0
    1.9188    2.0743   -1.7912 H   0  0  0  0  0  0  0  0  0  0  0  0
   -0.1210    0.9883   -0.9457 H   0  0  0  0  0  0  0  0  0  0  0  0
  1  2  1  0
  1  4  1  0
  1  5  1  0
  1  6  1  0
  2  3  1  0
  2  7  1  0
  2  8  1  0
  3  9  1  0
 10 11  1  0
 10 19  1  0
 10 20  1  0
 10 21  1  0
 11 12  1  0
 11 13  1  0
 12 22  1  0
 12 23  1  0
 12 24  1  0
 13 14  2  0
 13 18  1  0
 14 15  1  0
 14 25  1  0
 15 16  2  0
 15 26  1  0
 16 17  1  0
 16 27  1  0
 17 18  2  0
 17 28  1  0
 18 29  1  0
M  RAD  1  11   2
M  END
>  <reaction>  (9) 
rxn_1880

>  <mol_properties>  (9) 
{"1": {"label": "*3", "atom_type": "Cs"}, "2": {"label": "*4", "atom_type": "S2s"}, "6": {"label": "*2", "atom_type": "H0"}, "10": {"label": "*1", "atom_type": "Cs"}, "12": {"label": "*0", "atom_type": "Cd"}}

>  <type>  (9) 
unop_5

>  <geom_source>  (9) 
Heuristics

$$$$

     RDKit          3D

 29 27  0  0  0  0  0  0  0  0999 V2000
   -1.0148   -0.0115   -3.0847 C   0  0  0  0  0  0  0  0  0  0  0  0
   -1.0148   -0.0115   -1.5660 C   0  0  0  0  0  3  0  0  0  0  0  0
   -1.0148    1.6459   -0.8210 S   0  0  0  0  0  0  0  0  0  0  0  0
   -0.1082    0.4540   -3.4754 H   0  0  0  0  0  0  0  0  0  0  0  0
   -1.8708    0.5397   -3.4748 H   0  0  0  0  0  0  0  0  0  0  0  0
   -1.0579   -1.0348   -3.4650 H   0  0  0  0  0  0  0  0  0  0  0  0
   -0.0029   -0.6908   -1.0919 H   0  0  0  0  0  0  0  0  0  0  0  0
   -1.9224   -0.4785   -1.1809 H   0  0  0  0  0  0  0  0  0  0  0  0
    0.1600    2.0476   -1.3246 H   0  0  0  0  0  0  0  0  0  0  0  0
    0.5588   -2.8238   -0.4480 C   0  0  0  0  0  0  0  0  0  0  0  0
    1.0128   -1.3727   -0.6160 C   0  0  0  0  0  3  0  0  0  0  0  0
    2.5331   -1.2860   -0.7616 C   0  0  0  0  0  0  0  0  0  0  0  0
    0.5092   -0.4962    0.5116 C   0  0  0  0  0  0  0  0  0  0  0  0
    0.8971   -0.7253    1.8299 C   0  0  0  0  0  0  0  0  0  0  0  0
    0.4354    0.0774    2.8596 C   0  0  0  0  0  0  0  0  0  0  0  0
   -0.4275    1.1304    2.5909 C   0  0  0  0  0  0  0  0  0  0  0  0
   -0.8217    1.3702    1.2850 C   0  0  0  0  0  0  0  0  0  0  0  0
   -0.3554    0.5621    0.2577 C   0  0  0  0  0  3  0  0  0  0  0  0
   -0.5272   -2.8893   -0.3669 H   0  0  0  0  0  0  0  0  0  0  0  0
    0.8771   -3.4272   -1.3006 H   0  0  0  0  0  0  0  0  0  0  0  0
    0.9892   -3.2670    0.4530 H   0  0  0  0  0  0  0  0  0  0  0  0
    3.0345   -1.6739    0.1282 H   0  0  0  0  0  0  0  0  0  0  0  0
    2.8713   -1.8739   -1.6173 H   0  0  0  0  0  0  0  0  0  0  0  0
    2.8563   -0.2538   -0.9043 H   0  0  0  0  0  0  0  0  0  0  0  0
    1.5706   -1.5436    2.0578 H   0  0  0  0  0  0  0  0  0  0  0  0
    0.7500   -0.1190    3.8772 H   0  0  0  0  0  0  0  0  0  0  0  0
   -0.7890    1.7585    3.3951 H   0  0  0  0  0  0  0  0  0  0  0  0
   -1.4948    2.1889    1.0621 H   0  0  0  0  0  0  0  0  0  0  0  0
   -0.6696    0.7575   -0.7616 H   0  0  0  0  0  0  0  0  0  0  0  0
  1  2  1  0
  1  4  1  0
  1  5  1  0
  1  6  1  0
  2  7  1  0
  2  8  1  0
  3  9  1  0
  3 29  1  0
 10 11  1  0
 10 19  1  0
 10 20  1  0
 10 21  1  0
 11 12  1  0
 11 13  1  0
 12 22  1  0
 12 23  1  0
 12 24  1  0
 13 14  2  0
 13 18  1  0
 14 15  1  0
 14 25  1  0
 15 16  2  0
 15 26  1  0
 16 17  1  0
 16 27  1  0
 17 18  2  0
 17 28  1  0
M  CHG  2  11   1  18  -1
M  RAD  1   2   2
M  END
>  <reaction>  (10) 
rxn_1880

>  <mol_properties>  (10) 
{"1": {"label": "*3", "atom_type": "Cs"}, "2": {"label": "*4", "atom_type": "S2s"}, "6": {"label": "*2", "atom_type": "H0"}, "10": {"label": "*1", "atom_type": "Cs"}, "12": {"label": "*0", "atom_type": "Cd"}}

>  <type>  (10) 
unop_6

>  <geom_source>  (10) 
Heuristics

$$$$

     RDKit          3D

 29 28  0  0  0  0  0  0  0  0999 V2000
   -1.3956   -0.3651   -2.7994 C   0  0  0  0  0  0  0  0  0  0  0  0
   -1.3956   -0.3651   -1.2807 C   0  0  0  0  0  3  0  0  0  0  0  0
   -1.3956    1.2923   -0.5358 S   0  0  0  0  0  0  0  0  0  0  0  0
   -0.4889    0.1004   -3.1902 H   0  0  0  0  0  0  0  0  0  0  0  0
   -2.2515    0.1861   -3.1895 H   0  0  0  0  0  0  0  0  0  0  0  0
   -1.4386   -1.3884   -3.1797 H   0  0  0  0  0  0  0  0  0  0  0  0
   -0.3837   -1.0444   -0.8066 H   0  0  0  0  0  0  0  0  0  0  0  0
   -2.3032   -0.8321   -0.8956 H   0  0  0  0  0  0  0  0  0  0  0  0
   -0.2208    1.6940   -1.0393 H   0  0  0  0  0  0  0  0  0  0  0  0
    0.0675   -2.8679    0.5166 C   0  0  0  0  0  0  0  0  0  0  0  0
    0.6321   -1.7263   -0.3307 C   0  0  0  0  0  0  0  0  0  0  0  0
    2.0343   -2.0624   -0.8413 C   0  0  0  0  0  0  0  0  0  0  0  0
    0.6117   -0.4113    0.4199 C   0  0  0  0  0  0  0  0  0  0  0  0
    1.3485   -0.2384    1.5896 C   0  0  0  0  0  0  0  0  0  0  0  0
    1.3285    0.9650    2.2746 C   0  0  0  0  0  0  0  0  0  0  0  0
    0.5680    2.0250    1.8017 C   0  0  0  0  0  0  0  0  0  0  0  0
   -0.1697    1.8678    0.6401 C   0  0  0  0  0  0  0  0  0  0  0  0
   -0.1453    0.6592   -0.0415 C   0  0  0  0  0  0  0  0  0  0  0  0
   -0.9416   -2.6392    0.8625 H   0  0  0  0  0  0  0  0  0  0  0  0
    0.0316   -3.7939   -0.0611 H   0  0  0  0  0  0  0  0  0  0  0  0
    0.6902   -3.0479    1.3960 H   0  0  0  0  0  0  0  0  0  0  0  0
    2.7277   -2.2135   -0.0107 H   0  0  0  0  0  0  0  0  0  0  0  0
    2.0182   -2.9803   -1.4326 H   0  0  0  0  0  0  0  0  0  0  0  0
    2.4291   -1.2588   -1.4646 H   0  0  0  0  0  0  0  0  0  0  0  0
    1.9481   -1.0560    1.9732 H   0  0  0  0  0  0  0  0  0  0  0  0
    1.9091    1.0771    3.1820 H   0  0  0  0  0  0  0  0  0  0  0  0
    0.5517    2.9662    2.3365 H   0  0  0  0  0  0  0  0  0  0  0  0
   -0.7673    2.6874    0.2607 H   0  0  0  0  0  0  0  0  0  0  0  0
   -0.7260    0.5456   -0.9502 H   0  0  0  0  0  0  0  0  0  0  0  0
  1  2  1  0
  1  4  1  0
  1  5  1  0
  1  6  1  0
  2  7  1  0
  2  8  1  0
  3 18  1  0
  3  9  1  0
 10 11  1  0
 10 19  1  0
 10 20  1  0
 10 21  1  0
 11 12  1  0
 11 13  2  3
 12 22  1  0
 12 23  1  0
 12 24  1  0
 13 14  1  0
 13 18  1  0
 14 15  2  0
 14 25  1  0
 15 16  1  0
 15 26  1  0
 16 17  2  0
 16 27  1  0
 17 18  1  0
 17 28  1  0
 18 29  1  0
M  RAD  1   2   2
M  END
>  <reaction>  (11) 
rxn_1880

>  <mol_properties>  (11) 
{"1": {"label": "*3", "atom_type": "Cs"}, "2": {"label": "*4", "atom_type": "S2s"}, "6": {"label": "*2", "atom_type": "H0"}, "10": {"label": "*1", "atom_type": "Cs"}, "12": {"label": "*0", "atom_type": "Cd"}}

>  <type>  (11) 
unop_7

>  <geom_source>  (11) 
Heuristics

$$$$

     RDKit          3D

 29 28  0  0  0  0  0  0  0  0999 V2000
   -1.7500    1.6861   -2.1329 C   0  0  0  0  0  0  0  0  0  0  0  0
   -1.7500    1.6861   -0.6142 C   0  0  0  0  0  0  0  0  0  0  0  0
   -1.7500    3.3434    0.1307 S   0  0  0  0  0  0  0  0  0  0  0  0
   -0.8434    2.1515   -2.5237 H   0  0  0  0  0  0  0  0  0  0  0  0
   -2.6060    2.2373   -2.5230 H   0  0  0  0  0  0  0  0  0  0  0  0
   -1.7931    0.6627   -2.5132 H   0  0  0  0  0  0  0  0  0  0  0  0
   -0.7381    1.0067   -0.1401 H   0  0  0  0  0  0  0  0  0  0  0  0
   -2.6576    1.2190   -0.2291 H   0  0  0  0  0  0  0  0  0  0  0  0
   -0.5752    3.7451   -0.3728 H   0  0  0  0  0  0  0  0  0  0  0  0
    1.4487    1.2945    0.5038 C   0  0  0  0  0  0  0  0  0  0  0  0
    0.2776    0.3248    0.3358 C   0  0  0  0  0  3  0  0  0  0  0  0
   -0.7205    0.4641    1.4866 C   0  0  0  0  0  0  0  0  0  0  0  0
    0.7540   -1.1041    0.1801 C   0  0  0  0  0  0  0  0  0  0  0  0
    1.4595   -1.7428    1.1976 C   0  0  0  0  0  0  0  0  0  0  0  0
    1.8943   -3.0497    1.0532 C   0  0  0  0  0  0  0  0  0  0  0  0
    1.6314   -3.7478   -0.1169 C   0  0  0  0  0  0  0  0  0  0  0  0
    0.9311   -3.1257   -1.1371 C   0  0  0  0  0  0  0  0  0  0  0  0
    0.4982   -1.8159   -0.9860 C   0  0  0  0  0  0  0  0  0  0  0  0
    2.1498    1.2124   -0.3280 H   0  0  0  0  0  0  0  0  0  0  0  0
    1.0906    2.3250    0.5515 H   0  0  0  0  0  0  0  0  0  0  0  0
    1.9976    1.0896    1.4258 H   0  0  0  0  0  0  0  0  0  0  0  0
   -0.2497    0.2294    2.4440 H   0  0  0  0  0  0  0  0  0  0  0  0
   -1.1005    1.4862    1.5442 H   0  0  0  0  0  0  0  0  0  0  0  0
   -1.5678   -0.2107    1.3563 H   0  0  0  0  0  0  0  0  0  0  0  0
    1.6736   -1.2123    2.1184 H   0  0  0  0  0  0  0  0  0  0  0  0
    2.4412   -3.5265    1.8573 H   0  0  0  0  0  0  0  0  0  0  0  0
    1.9709   -4.7695   -0.2307 H   0  0  0  0  0  0  0  0  0  0  0  0
    0.7195   -3.6597   -2.0552 H   0  0  0  0  0  0  0  0  0  0  0  0
   -0.0494   -1.3372   -1.7903 H   0  0  0  0  0  0  0  0  0  0  0  0
  1  2  1  0
  1  4  1  0
  1  5  1  0
  1  6  1  0
  2  3  1  0
  2  7  1  0
  2  8  1  0
  3  9  1  0
 10 11  1  0
 10 19  1  0
 10 20  1  0
 10 21  1  0
 11 12  1  0
 11 13  1  0
 12 22  1  0
 12 23  1  0
 12 24  1  0
 13 14  2  0
 13 18  1  0
 14 15  1  0
 14 25  1  0
 15 16  2  0
 15 26  1  0
 16 17  1  0
 16 27  1  0
 17 18  2  0
 17 28  1  0
 18 29  1  0
M  RAD  1  11   2
M  END
>  <reaction>  (12) 
rxn_1880

>  <mol_properties>  (12) 
{"1": {"label": "*3", "atom_type": "Cs"}, "2": {"label": "*4", "atom_type": "S2s"}, "6": {"label": "*2", "atom_type": "H0"}, "10": {"label": "*1", "atom_type": "Cs"}, "12": {"label": "*0", "atom_type": "Cd"}}

>  <type>  (12) 
unop_8

>  <geom_source>  (12) 
Heuristics

$$$$

     RDKit          3D

 29 28  0  0  0  0  0  0  0  0999 V2000
   -0.7817    1.0693   -3.0531 C   0  0  0  0  0  0  0  0  0  0  0  0
   -0.7817    1.0693   -1.5345 C   0  0  0  0  0  0  0  0  0  0  0  0
   -0.7817    2.7267   -0.7895 S   0  0  0  0  0  0  0  0  0  0  0  0
    0.1250    1.5347   -3.4439 H   0  0  0  0  0  0  0  0  0  0  0  0
   -1.6376    1.6205   -3.4432 H   0  0  0  0  0  0  0  0  0  0  0  0
   -0.8248    0.0460   -3.4334 H   0  0  0  0  0  0  0  0  0  0  0  0
    0.2302    0.3900   -1.0603 H   0  0  0  0  0  0  0  0  0  0  0  0
   -1.6893    0.6023   -1.1493 H   0  0  0  0  0  0  0  0  0  0  0  0
    0.3931    3.1284   -1.2930 H   0  0  0  0  0  0  0  0  0  0  0  0
    1.5782   -1.3929   -1.5930 C   0  0  0  0  0  0  0  0  0  0  0  0
    1.2459   -0.2919   -0.5844 C   0  0  0  0  0  3  0  0  0  0  0  0
    2.5172    0.3939   -0.0809 C   0  0  0  0  0  0  0  0  0  0  0  0
    0.4052   -0.8184    0.5598 C   0  0  0  0  0  0  0  0  0  0  0  0
    0.8925   -1.8012    1.4186 C   0  0  0  0  0  0  0  0  0  0  0  0
    0.1220   -2.2813    2.4644 C   0  0  0  0  0  0  0  0  0  0  0  0
   -1.1573   -1.7862    2.6737 C   0  0  0  0  0  0  0  0  0  0  0  0
   -1.6551   -0.8089    1.8279 C   0  0  0  0  0  0  0  0  0  0  0  0
   -0.8778   -0.3321    0.7818 C   0  0  0  0  0  0  0  0  0  0  0  0
    0.6713   -1.8677   -1.9702 H   0  0  0  0  0  0  0  0  0  0  0  0
    2.1303   -0.9831   -2.4414 H   0  0  0  0  0  0  0  0  0  0  0  0
    2.1971   -2.1687   -1.1363 H   0  0  0  0  0  0  0  0  0  0  0  0
    3.1699   -0.3175    0.4302 H   0  0  0  0  0  0  0  0  0  0  0  0
    3.0788    0.8218   -0.9140 H   0  0  0  0  0  0  0  0  0  0  0  0
    2.2805    1.1946    0.6212 H   0  0  0  0  0  0  0  0  0  0  0  0
    1.8898   -2.1991    1.2695 H   0  0  0  0  0  0  0  0  0  0  0  0
    0.5212   -3.0456    3.1197 H   0  0  0  0  0  0  0  0  0  0  0  0
   -1.7604   -2.1609    3.4910 H   0  0  0  0  0  0  0  0  0  0  0  0
   -2.6520   -0.4143    1.9807 H   0  0  0  0  0  0  0  0  0  0  0  0
   -1.2761    0.4331    0.1249 H   0  0  0  0  0  0  0  0  0  0  0  0
  1  2  1  0
  1  4  1  0
  1  5  1  0
  1  6  1  0
  2  3  1  0
  2  7  1  0
  2  8  1  0
  3  9  1  0
 10 11  1  0
 10 19  1  0
 10 20  1  0
 10 21  1  0
 11 12  1  0
 11 13  1  0
 12 22  1  0
 12 23  1  0
 12 24  1  0
 13 14  2  0
 13 18  1  0
 14 15  1  0
 14 25  1  0
 15 16  2  0
 15 26  1  0
 16 17  1  0
 16 27  1  0
 17 18  2  0
 17 28  1  0
 18 29  1  0
M  RAD  1  11   2
M  END
>  <reaction>  (13) 
rxn_1880

>  <mol_properties>  (13) 
{"1": {"label": "*3", "atom_type": "Cs"}, "2": {"label": "*4", "atom_type": "S2s"}, "6": {"label": "*2", "atom_type": "H0"}, "10": {"label": "*1", "atom_type": "Cs"}, "12": {"label": "*0", "atom_type": "Cd"}}

>  <type>  (13) 
unop_9

>  <geom_source>  (13) 
Heuristics

$$$$

     RDKit          3D

 29 28  0  0  0  0  0  0  0  0999 V2000
   -1.5547    1.7195   -2.3683 C   0  0  0  0  0  0  0  0  0  0  0  0
   -1.5547    1.7195   -0.8496 C   0  0  0  0  0  0  0  0  0  0  0  0
   -1.5547    3.3768   -0.1046 S   0  0  0  0  0  0  0  0  0  0  0  0
   -0.6480    2.1849   -2.7590 H   0  0  0  0  0  0  0  0  0  0  0  0
   -2.4106    2.2707   -2.7584 H   0  0  0  0  0  0  0  0  0  0  0  0
   -1.5977    0.6961   -2.7485 H   0  0  0  0  0  0  0  0  0  0  0  0
   -0.5428    1.0401   -0.3755 H   0  0  0  0  0  0  0  0  0  0  0  0
   -2.4623    1.2524   -0.4645 H   0  0  0  0  0  0  0  0  0  0  0  0
   -0.3799    3.7785   -0.6081 H   0  0  0  0  0  0  0  0  0  0  0  0
    1.7546    1.0184   -0.4109 C   0  0  0  0  0  0  0  0  0  0  0  0
    0.4730    0.3582    0.1005 C   0  0  0  0  0  3  0  0  0  0  0  0
   -0.0177    1.0313    1.3835 C   0  0  0  0  0  0  0  0  0  0  0  0
    0.6495   -1.1343    0.2856 C   0  0  0  0  0  0  0  0  0  0  0  0
    1.5705   -1.6426    1.1990 C   0  0  0  0  0  0  0  0  0  0  0  0
    1.7304   -3.0080    1.3667 C   0  0  0  0  0  0  0  0  0  0  0  0
    0.9691   -3.8970    0.6212 C   0  0  0  0  0  0  0  0  0  0  0  0
    0.0495   -3.4061   -0.2907 C   0  0  0  0  0  0  0  0  0  0  0  0
   -0.1058   -2.0368   -0.4540 C   0  0  0  0  0  0  0  0  0  0  0  0
    2.0932    0.5543   -1.3383 H   0  0  0  0  0  0  0  0  0  0  0  0
    1.5909    2.0817   -0.5981 H   0  0  0  0  0  0  0  0  0  0  0  0
    2.5602    0.9294    0.3217 H   0  0  0  0  0  0  0  0  0  0  0  0
    0.7241    0.9428    2.1806 H   0  0  0  0  0  0  0  0  0  0  0  0
   -0.1993    2.0948    1.2143 H   0  0  0  0  0  0  0  0  0  0  0  0
   -0.9442    0.5764    1.7368 H   0  0  0  0  0  0  0  0  0  0  0  0
    2.1735   -0.9624    1.7896 H   0  0  0  0  0  0  0  0  0  0  0  0
    2.4525   -3.3809    2.0826 H   0  0  0  0  0  0  0  0  0  0  0  0
    1.0934   -4.9645    0.7516 H   0  0  0  0  0  0  0  0  0  0  0  0
   -0.5507   -4.0895   -0.8786 H   0  0  0  0  0  0  0  0  0  0  0  0
   -0.8284   -1.6619   -1.1704 H   0  0  0  0  0  0  0  0  0  0  0  0
  1  2  1  0
  1  4  1  0
  1  5  1  0
  1  6  1  0
  2  3  1  0
  2  7  1  0
  2  8  1  0
  3  9  1  0
 10 11  1  0
 10 19  1  0
 10 20  1  0
 10 21  1  0
 11 12  1  0
 11 13  1  0
 12 22  1  0
 12 23  1  0
 12 24  1  0
 13 14  2  0
 13 18  1  0
 14 15  1  0
 14 25  1  0
 15 16  2  0
 15 26  1  0
 16 17  1  0
 16 27  1  0
 17 18  2  0
 17 28  1  0
 18 29  1  0
M  RAD  1  11   2
M  END
>  <reaction>  (14) 
rxn_1880

>  <mol_properties>  (14) 
{"1": {"label": "*3", "atom_type": "Cs"}, "2": {"label": "*4", "atom_type": "S2s"}, "6": {"label": "*2", "atom_type": "H0"}, "10": {"label": "*1", "atom_type": "Cs"}, "12": {"label": "*0", "atom_type": "Cd"}}

>  <type>  (14) 
unop_10

>  <geom_source>  (14) 
Heuristics

$$$$

     RDKit          3D

 29 27  0  0  0  0  0  0  0  0999 V2000
   -1.9057   -0.4015   -2.3371 C   0  0  0  0  0  0  0  0  0  0  0  0
   -1.9057   -0.4015   -0.8184 C   0  0  0  0  0  3  0  0  0  0  0  0
   -1.9057    1.2558   -0.0734 S   0  0  0  0  0 15  0  0  0  0  0  0
   -0.9991    0.0639   -2.7278 H   0  0  0  0  0  0  0  0  0  0  0  0
   -2.7617    0.1497   -2.7272 H   0  0  0  0  0  0  0  0  0  0  0  0
   -1.9488   -1.4249   -2.7174 H   0  0  0  0  0  0  0  0  0  0  0  0
   -0.8938   -1.0809   -0.3443 H   0  0  0  0  0  0  0  0  0  0  0  0
   -2.8133   -0.8686   -0.4333 H   0  0  0  0  0  0  0  0  0  0  0  0
   -0.7309    1.6575   -0.5770 H   0  0  0  0  0  0  0  0  0  0  0  0
   -0.3059   -2.3535    1.4762 C   0  0  0  0  0  0  0  0  0  0  0  0
    0.1219   -1.7628    0.1316 C   0  0  0  0  0  0  0  0  0  0  0  0
    1.0452   -2.7222   -0.6213 C   0  0  0  0  0  0  0  0  0  0  0  0
    0.7528   -0.3962    0.2978 C   0  0  0  0  0  0  0  0  0  0  0  0
    1.9288   -0.2298    1.0260 C   0  0  0  0  0  0  0  0  0  0  0  0
    2.5042    1.0208    1.1768 C   0  0  0  0  0  0  0  0  0  0  0  0
    1.9127    2.1357    0.5998 C   0  0  0  0  0  0  0  0  0  0  0  0
    0.7433    1.9855   -0.1270 C   0  0  0  0  0  0  0  0  0  0  0  0
    0.1719    0.7295   -0.2743 C   0  0  0  0  0  0  0  0  0  0  0  0
   -0.9826   -1.6802    2.0043 H   0  0  0  0  0  0  0  0  0  0  0  0
   -0.8145   -3.3090    1.3319 H   0  0  0  0  0  0  0  0  0  0  0  0
    0.5594   -2.5306    2.1192 H   0  0  0  0  0  0  0  0  0  0  0  0
    1.9590   -2.9126   -0.0538 H   0  0  0  0  0  0  0  0  0  0  0  0
    0.5502   -3.6814   -0.7868 H   0  0  0  0  0  0  0  0  0  0  0  0
    1.3328   -2.3121   -1.5905 H   0  0  0  0  0  0  0  0  0  0  0  0
    2.4042   -1.0900    1.4834 H   0  0  0  0  0  0  0  0  0  0  0  0
    3.4187    1.1268    1.7472 H   0  0  0  0  0  0  0  0  0  0  0  0
    2.3617    3.1138    0.7171 H   0  0  0  0  0  0  0  0  0  0  0  0
    0.2719    2.8477   -0.5822 H   0  0  0  0  0  0  0  0  0  0  0  0
   -0.7438    0.6218   -0.8451 H   0  0  0  0  0  0  0  0  0  0  0  0
  1  2  1  0
  1  4  1  0
  1  5  1  0
  1  6  1  0
  2  7  1  0
  2  8  1  0
  9 18  1  0
 10 11  1  0
 10 19  1  0
 10 20  1  0
 10 21  1  0
 11 12  1  0
 11 13  2  3
 12 22  1  0
 12 23  1  0
 12 24  1  0
 13 14  1  0
 13 18  1  0
 14 15  2  0
 14 25  1  0
 15 16  1  0
 15 26  1  0
 16 17  2  0
 16 27  1  0
 17 18  1  0
 17 28  1  0
 18 29  1  0
M  RAD  1   2   2
M  END
>  <reaction>  (15) 
rxn_1880

>  <mol_properties>  (15) 
{"1": {"label": "*3", "atom_type": "Cs"}, "2": {"label": "*4", "atom_type": "S2s"}, "6": {"label": "*2", "atom_type": "H0"}, "10": {"label": "*1", "atom_type": "Cs"}, "12": {"label": "*0", "atom_type": "Cd"}}

>  <type>  (15) 
unop_11

>  <geom_source>  (15) 
Heuristics

$$$$

     RDKit          3D

 29 28  0  0  0  0  0  0  0  0999 V2000
   -1.0061    1.4920   -2.8128 C   0  0  0  0  0  0  0  0  0  0  0  0
   -1.0061    1.4920   -1.2941 C   0  0  0  0  0  0  0  0  0  0  0  0
   -1.0061    3.1493   -0.5491 S   0  0  0  0  0  0  0  0  0  0  0  0
   -0.0995    1.9574   -3.2035 H   0  0  0  0  0  0  0  0  0  0  0  0
   -1.8621    2.0432   -3.2029 H   0  0  0  0  0  0  0  0  0  0  0  0
   -1.0492    0.4686   -3.1930 H   0  0  0  0  0  0  0  0  0  0  0  0
    0.0058    0.8127   -0.8200 H   0  0  0  0  0  0  0  0  0  0  0  0
   -1.9137    1.0249   -0.9090 H   0  0  0  0  0  0  0  0  0  0  0  0
    0.1687    3.5510   -1.0526 H   0  0  0  0  0  0  0  0  0  0  0  0
    1.8189   -0.4046   -1.5347 C   0  0  0  0  0  0  0  0  0  0  0  0
    1.0215    0.1308   -0.3440 C   0  0  0  0  0  3  0  0  0  0  0  0
    1.8675    1.0869    0.4986 C   0  0  0  0  0  0  0  0  0  0  0  0
    0.4476   -0.9926    0.4937 C   0  0  0  0  0  0  0  0  0  0  0  0
    1.2781   -1.9039    1.1423 C   0  0  0  0  0  0  0  0  0  0  0  0
    0.7512   -2.9305    1.9080 C   0  0  0  0  0  0  0  0  0  0  0  0
   -0.6232   -3.0675    2.0414 C   0  0  0  0  0  0  0  0  0  0  0  0
   -1.4614   -2.1689    1.4023 C   0  0  0  0  0  0  0  0  0  0  0  0
   -0.9269   -1.1424    0.6365 C   0  0  0  0  0  0  0  0  0  0  0  0
    1.2097   -1.0688   -2.1494 H   0  0  0  0  0  0  0  0  0  0  0  0
    2.1716    0.4170   -2.1616 H   0  0  0  0  0  0  0  0  0  0  0  0
    2.6934   -0.9669   -1.1994 H   0  0  0  0  0  0  0  0  0  0  0  0
    2.7437    0.5782    0.9070 H   0  0  0  0  0  0  0  0  0  0  0  0
    2.2207    1.9236   -0.1078 H   0  0  0  0  0  0  0  0  0  0  0  0
    1.2930    1.4873    1.3352 H   0  0  0  0  0  0  0  0  0  0  0  0
    2.3542   -1.8116    1.0489 H   0  0  0  0  0  0  0  0  0  0  0  0
    1.4158   -3.6276    2.4034 H   0  0  0  0  0  0  0  0  0  0  0  0
   -1.0361   -3.8697    2.6397 H   0  0  0  0  0  0  0  0  0  0  0  0
   -2.5358   -2.2650    1.4985 H   0  0  0  0  0  0  0  0  0  0  0  0
   -1.5911   -0.4437    0.1399 H   0  0  0  0  0  0  0  0  0  0  0  0
  1  2  1  0
  1  4  1  0
  1  5  1  0
  1  6  1  0
  2  3  1  0
  2  7  1  0
  2  8  1  0
  3  9  1  0
 10 11  1  0
 10 19  1  0
 10 20  1  0
 10 21  1  0
 11 12  1  0
 11 13  1  0
 12 22  1  0
 12 23  1  0
 12 24  1  0
 13 14  2  0
 13 18  1  0
 14 15  1  0
 14 25  1  0
 15 16  2  0
 15 26  1  0
 16 17  1  0
 16 27  1  0
 17 18  2  0
 17 28  1  0
 18 29  1  0
M  RAD  1  11   2
M  END
>  <reaction>  (16) 
rxn_1880

>  <mol_properties>  (16) 
{"1": {"label": "*3", "atom_type": "Cs"}, "2": {"label": "*4", "atom_type": "S2s"}, "6": {"label": "*2", "atom_type": "H0"}, "10": {"label": "*1", "atom_type": "Cs"}, "12": {"label": "*0", "atom_type": "Cd"}}

>  <type>  (16) 
unop_12

>  <geom_source>  (16) 
Heuristics

$$$$

     RDKit          3D

 29 28  0  0  0  0  0  0  0  0999 V2000
   -3.0077    1.2573   -1.4361 S   0  0  0  0  0  0  0  0  0  0  0  0
   -0.2088   -0.6823   -0.0724 C   0  0  0  0  0  0  0  0  0  0  0  0
   -0.2380   -1.9326    0.8128 C   0  0  0  0  0  0  0  0  0  0  0  0
   -0.5979   -1.0174   -1.5160 C   0  0  0  0  0  0  0  0  0  0  0  0
   -3.4298    0.0938    1.0144 C   0  0  0  0  0  0  0  0  0  0  0  0
    1.1442   -0.0015   -0.0139 C   0  0  0  0  0  0  0  0  0  0  0  0
    2.3105   -0.6592   -0.4526 C   0  0  0  0  0  0  0  0  0  0  0  0
    1.2488    1.3091    0.4850 C   0  0  0  0  0  0  0  0  0  0  0  0
    3.5505   -0.0164   -0.3916 C   0  0  0  0  0  0  0  0  0  0  0  0
    3.6413    1.2854    0.1060 C   0  0  0  0  0  0  0  0  0  0  0  0
    2.4918    1.9472    0.5437 C   0  0  0  0  0  0  0  0  0  0  0  0
   -2.3475    0.7624    0.1837 C   0  0  0  0  0  3  0  0  0  0  0  0
   -1.1350    0.1362    0.3924 H   0  0  0  0  0  0  0  0  0  0  0  0
    0.0456   -1.6664    1.8533 H   0  0  0  0  0  0  0  0  0  0  0  0
   -1.2640   -2.3574    0.8315 H   0  0  0  0  0  0  0  0  0  0  0  0
    0.4606   -2.7090    0.4352 H   0  0  0  0  0  0  0  0  0  0  0  0
    0.0914   -1.7703   -1.9538 H   0  0  0  0  0  0  0  0  0  0  0  0
   -1.6309   -1.4241   -1.5433 H   0  0  0  0  0  0  0  0  0  0  0  0
   -0.5712   -0.0978   -2.1384 H   0  0  0  0  0  0  0  0  0  0  0  0
   -4.2719    0.7973    1.1864 H   0  0  0  0  0  0  0  0  0  0  0  0
   -3.0066   -0.2099    1.9944 H   0  0  0  0  0  0  0  0  0  0  0  0
   -3.8036   -0.8112    0.4911 H   0  0  0  0  0  0  0  0  0  0  0  0
    2.2624   -1.6680   -0.8415 H   0  0  0  0  0  0  0  0  0  0  0  0
    4.4419   -0.5284   -0.7305 H   0  0  0  0  0  0  0  0  0  0  0  0
    0.3712    1.8411    0.8296 H   0  0  0  0  0  0  0  0  0  0  0  0
    4.6022    1.7813    0.1525 H   0  0  0  0  0  0  0  0  0  0  0  0
    2.5635    2.9561    0.9291 H   0  0  0  0  0  0  0  0  0  0  0  0
   -1.9599    1.6569    0.7157 H   0  0  0  0  0  0  0  0  0  0  0  0
   -1.7531    1.7277   -1.8669 H   0  0  0  0  0  0  0  0  0  0  0  0
  1 12  1  0
  1 29  1  0
  2  3  1  0
  2  4  1  0
  2  6  1  0
  2 13  1  0
  3 14  1  0
  3 15  1  0
  3 16  1  0
  4 17  1  0
  4 18  1  0
  4 19  1  0
  5 12  1  0
  5 20  1  0
  5 21  1  0
  5 22  1  0
  6  7  2  0
  6  8  1  0
  7  9  1  0
  7 23  1  0
  8 11  2  0
  8 25  1  0
  9 10  2  0
  9 24  1  0
 10 11  1  0
 10 26  1  0
 11 27  1  0
 12 28  1  0
M  RAD  1  12   2
M  END
>  <reaction>  (17) 
rxn_1880

>  <mol_properties>  (17) 
{"1": {"label": "*3", "atom_type": "Cs"}, "2": {"label": "*4", "atom_type": "S2s"}, "6": {"label": "*2", "atom_type": "H0"}, "10": {"label": "*1", "atom_type": "Cs"}, "12": {"label": "*0", "atom_type": "Cd"}}

>  <type>  (17) 
unop_13

>  <geom_source>  (17) 
AutoTST

$$$$
