
     RDKit          3D

 15 15  0  0  0  0  0  0  0  0999 V2000
    2.2031   -0.2111   -0.1693 C   0  0  0  0  0  0  0  0  0  0  0  0
    0.7140   -0.0314   -0.0623 C   0  0  0  0  0  0  0  0  0  0  0  0
   -0.0114    0.5491   -1.0982 C   0  0  0  0  0  0  0  0  0  0  0  0
   -1.3882    0.6886   -1.0150 C   0  0  0  0  0  0  0  0  0  0  0  0
   -2.0661    0.2493    0.1118 C   0  0  0  0  0  0  0  0  0  0  0  0
   -1.3551   -0.3278    1.1528 C   0  0  0  0  0  0  0  0  0  0  0  0
    0.0216   -0.4648    1.0642 C   0  0  0  0  0  0  0  0  0  0  0  0
    2.6776   -0.1836    0.8122 H   0  0  0  0  0  0  0  0  0  0  0  0
    2.4446   -1.1749   -0.6249 H   0  0  0  0  0  0  0  0  0  0  0  0
    2.6532    0.5664   -0.7875 H   0  0  0  0  0  0  0  0  0  0  0  0
    0.5104    0.8989   -1.9819 H   0  0  0  0  0  0  0  0  0  0  0  0
   -1.9328    1.1452   -1.8322 H   0  0  0  0  0  0  0  0  0  0  0  0
   -3.1409    0.3597    0.1800 H   0  0  0  0  0  0  0  0  0  0  0  0
   -1.8736   -0.6702    2.0398 H   0  0  0  0  0  0  0  0  0  0  0  0
    0.5695   -0.9141    1.8849 H   0  0  0  0  0  0  0  0  0  0  0  0
  1  2  1  0
  1  8  1  0
  1  9  1  0
  1 10  1  0
  2  3  2  0
  2  7  1  0
  3  4  1  0
  3 11  1  0
  4  5  2  0
  4 12  1  0
  5  6  1  0
  5 13  1  0
  6  7  2  0
  6 14  1  0
  7 15  1  0
M  END
>  <reaction>  (1) 
rxn_264

>  <mol_properties>  (1) 
{"2": {"label": "donator", "atom_type": "Cd"}, "10": {"label": "d_hydrogen", "atom_type": "H0"}}

>  <type>  (1) 
r1h

$$$$

     RDKit          3D

  1  0  0  0  0  0  0  0  0  0999 V2000
    0.0000    0.0000    0.0000 O   0  0  0  0  0 15  0  0  0  0  0  0
M  END
>  <reaction>  (2) 
rxn_264

>  <mol_properties>  (2) 
{"0": {"label": "acceptor", "atom_type": "O2s"}}

>  <type>  (2) 
r2

$$$$

     RDKit          3D

  2  1  0  0  0  0  0  0  0  0999 V2000
    0.0000    0.0000    0.4855 O   0  0  0  0  0  1  0  0  0  0  0  0
    0.0000    0.0000   -0.4855 H   0  0  0  0  0  0  0  0  0  0  0  0
  1  2  1  0
M  RAD  1   1   2
M  END
>  <reaction>  (3) 
rxn_264

>  <mol_properties>  (3) 
{"0": {"label": "a_hydrogen", "atom_type": "H0"}, "1": {"label": "acceptor", "atom_type": "O2s"}}

>  <type>  (3) 
r2h

$$$$

     RDKit          3D

 16 15  0  0  0  0  0  0  0  0999 V2000
   -0.0018   -0.5001   -2.2517 C   0  0  0  0  0  0  0  0  0  0  0  0
   -0.0194   -0.4984   -0.7495 C   0  0  0  0  0  0  0  0  0  0  0  0
    0.0532    0.6508    0.0060 C   0  0  0  0  0  3  0  0  0  0  0  0
    0.0492    0.7137    1.3793 C   0  0  0  0  0  0  0  0  0  0  0  0
   -0.0355   -0.4865    2.0733 C   0  0  0  0  0  0  0  0  0  0  0  0
   -0.1121   -1.6800    1.3678 C   0  0  0  0  0  0  0  0  0  0  0  0
   -0.1044   -1.6862   -0.0173 C   0  0  0  0  0  0  0  0  0  0  0  0
    0.8989   -0.9931   -2.6227 H   0  0  0  0  0  0  0  0  0  0  0  0
   -0.8617   -1.0441   -2.6457 H   0  0  0  0  0  0  0  0  0  0  0  0
   -0.0226    0.5137   -2.6474 H   0  0  0  0  0  0  0  0  0  0  0  0
    0.1310    1.8322   -0.6414 H   0  0  0  0  0  0  0  0  0  0  0  0
    0.1091    1.6623    1.8965 H   0  0  0  0  0  0  0  0  0  0  0  0
   -0.0424   -0.4863    3.1558 H   0  0  0  0  0  0  0  0  0  0  0  0
   -0.1796   -2.6177    1.9046 H   0  0  0  0  0  0  0  0  0  0  0  0
   -0.1660   -2.6270   -0.5532 H   0  0  0  0  0  0  0  0  0  0  0  0
    0.1927    2.8439   -1.1826 O   0  0  0  0  0  1  0  0  0  0  0  0
  1  2  1  0
  1  8  1  0
  1  9  1  0
  1 10  1  0
  2  7  2  0
  2  3  1  0
  3  4  2  0
  4  5  1  0
  4 12  1  0
  5  6  2  0
  5 13  1  0
  6  7  1  0
  6 14  1  0
  7 15  1  0
 11 16  1  0
M  RAD  2   3   2  16   2
M  END
>  <reaction>  (4) 
rxn_264

>  <mol_properties>  (4) 
{"1": {"label": "*4", "atom_type": "Cd"}, "2": {"label": "*3", "atom_type": "Cd"}, "10": {"label": "*2", "atom_type": "H0"}, "15": {"label": "*1", "atom_type": "O2s"}}

>  <type>  (4) 
ts

$$$$

     RDKit          3D

 16 15  0  0  0  0  0  0  0  0999 V2000
    0.0121   -0.4956   -2.2318 C   0  0  0  0  0  0  0  0  0  0  0  0
    0.0121   -0.4956   -0.7281 C   0  0  0  0  0  0  0  0  0  0  0  0
    0.0121    0.6987   -0.0140 C   0  0  0  0  0  3  0  0  0  0  0  0
   -0.0183    0.7020    1.3720 C   0  0  0  0  0  0  0  0  0  0  0  0
   -0.0479   -0.4950    2.0710 C   0  0  0  0  0  0  0  0  0  0  0  0
   -0.0447   -1.6923    1.3720 C   0  0  0  0  0  0  0  0  0  0  0  0
   -0.0142   -1.6897   -0.0140 C   0  0  0  0  0  0  0  0  0  0  0  0
    0.5037   -1.3846   -2.6285 H   0  0  0  0  0  0  0  0  0  0  0  0
   -1.0101   -0.4844   -2.6185 H   0  0  0  0  0  0  0  0  0  0  0  0
    0.5231    0.3823   -2.6285 H   0  0  0  0  0  0  0  0  0  0  0  0
    0.0441    1.8280   -0.6594 H   0  0  0  0  0  0  0  0  0  0  0  0
   -0.0157    1.6432    1.9077 H   0  0  0  0  0  0  0  0  0  0  0  0
   -0.0690   -0.4947    3.1534 H   0  0  0  0  0  0  0  0  0  0  0  0
   -0.0629   -2.6334    1.9077 H   0  0  0  0  0  0  0  0  0  0  0  0
   -0.0084   -2.6311   -0.5518 H   0  0  0  0  0  0  0  0  0  0  0  0
    0.0726    2.8393   -1.2373 O   0  0  0  0  0  1  0  0  0  0  0  0
  1  2  1  0
  1  8  1  0
  1  9  1  0
  1 10  1  0
  2  7  2  0
  2  3  1  0
  3  4  2  0
  4  5  1  0
  4 12  1  0
  5  6  2  0
  5 13  1  0
  6  7  1  0
  6 14  1  0
  7 15  1  0
 11 16  1  0
M  RAD  2   3   2  16   2
M  END
>  <reaction>  (5) 
rxn_264

>  <mol_properties>  (5) 
{"1": {"label": "*4", "atom_type": "Cd"}, "2": {"label": "*3", "atom_type": "Cd"}, "10": {"label": "*2", "atom_type": "H0"}, "15": {"label": "*1", "atom_type": "O2s"}}

>  <type>  (5) 
unop_1

>  <geom_source>  (5) 
Heuristics

$$$$

     RDKit          3D

 16 15  0  0  0  0  0  0  0  0999 V2000
   -0.7874    2.1974   -1.5550 O   0  0  0  0  0 15  0  0  0  0  0  0
   -2.1420   -0.4861   -0.0119 C   0  0  0  0  0  0  0  0  0  0  0  0
   -0.6684   -0.2612    0.1292 C   0  0  0  0  0  0  0  0  0  0  0  0
    0.2352   -1.3126   -0.0915 C   0  0  0  0  0  0  0  0  0  0  0  0
    1.6123   -1.0880    0.0123 C   0  0  0  0  0  0  0  0  0  0  0  0
    2.0925    0.1873    0.3265 C   0  0  0  0  0  0  0  0  0  0  0  0
    1.1960    1.2400    0.5338 C   0  0  0  0  0  0  0  0  0  0  0  0
   -0.1798    1.0170    0.4310 C   0  0  0  0  0  0  0  0  0  0  0  0
   -2.4087   -0.5255   -1.0888 H   0  0  0  0  0  0  0  0  0  0  0  0
   -2.7160    0.3334    0.4715 H   0  0  0  0  0  0  0  0  0  0  0  0
   -2.4306   -1.4444    0.4697 H   0  0  0  0  0  0  0  0  0  0  0  0
    3.1580    0.3603    0.4053 H   0  0  0  0  0  0  0  0  0  0  0  0
    2.3069   -1.9014   -0.1538 H   0  0  0  0  0  0  0  0  0  0  0  0
   -0.1262   -2.3022   -0.3426 H   0  0  0  0  0  0  0  0  0  0  0  0
    1.5643    2.2291    0.7714 H   0  0  0  0  0  0  0  0  0  0  0  0
   -0.7062    1.7568   -0.3073 H   0  0  0  0  0  0  0  0  0  0  0  0
  2  3  1  0
  2  9  1  0
  2 10  1  0
  2 11  1  0
  3  4  2  0
  3  8  1  0
  4  5  1  0
  4 14  1  0
  5  6  2  0
  5 13  1  0
  6  7  1  0
  6 12  1  0
  7  8  2  0
  7 15  1  0
  8 16  1  0
M  END
>  <reaction>  (6) 
rxn_264

>  <mol_properties>  (6) 
{"1": {"label": "*4", "atom_type": "Cd"}, "2": {"label": "*3", "atom_type": "Cd"}, "10": {"label": "*2", "atom_type": "H0"}, "15": {"label": "*1", "atom_type": "O2s"}}

>  <type>  (6) 
unop_2

>  <geom_source>  (6) 
AutoTST

$$$$

     RDKit          3D

 16 15  0  0  0  0  0  0  0  0999 V2000
   -2.4210    2.2921    0.1714 O   0  0  0  0  0  1  0  0  0  0  0  0
   -1.0728   -0.8834   -1.6956 C   0  0  0  0  0  0  0  0  0  0  0  0
   -0.2455   -0.4144   -0.5370 C   0  0  0  0  0  0  0  0  0  0  0  0
   -0.5968    0.7582    0.1491 C   0  0  0  0  0  3  0  0  0  0  0  0
    0.9226   -1.1036   -0.1724 C   0  0  0  0  0  0  0  0  0  0  0  0
    0.1933    1.2188    1.2065 C   0  0  0  0  0  0  0  0  0  0  0  0
    1.3453    0.5189    1.5767 C   0  0  0  0  0  0  0  0  0  0  0  0
    1.7110   -0.6401    0.8861 C   0  0  0  0  0  0  0  0  0  0  0  0
   -0.9998   -1.9861   -1.8090 H   0  0  0  0  0  0  0  0  0  0  0  0
   -2.1421   -0.6243   -1.5424 H   0  0  0  0  0  0  0  0  0  0  0  0
   -0.7122   -0.3989   -2.6268 H   0  0  0  0  0  0  0  0  0  0  0  0
   -1.6815    1.4400   -0.1990 H   0  0  0  0  0  0  0  0  0  0  0  0
   -0.0866    2.1203    1.7352 H   0  0  0  0  0  0  0  0  0  0  0  0
    1.9569    0.8773    2.3946 H   0  0  0  0  0  0  0  0  0  0  0  0
    2.6073   -1.1773    1.1683 H   0  0  0  0  0  0  0  0  0  0  0  0
    1.2218   -1.9975   -0.7056 H   0  0  0  0  0  0  0  0  0  0  0  0
  1 12  1  0
  2  3  1  0
  2  9  1  0
  2 10  1  0
  2 11  1  0
  3  5  2  0
  3  4  1  0
  4  6  2  0
  5  8  1  0
  5 16  1  0
  6  7  1  0
  6 13  1  0
  7  8  2  0
  7 14  1  0
  8 15  1  0
M  RAD  2   1   2   4   2
M  END
>  <reaction>  (7) 
rxn_264

>  <mol_properties>  (7) 
{"1": {"label": "*4", "atom_type": "Cd"}, "2": {"label": "*3", "atom_type": "Cd"}, "10": {"label": "*2", "atom_type": "H0"}, "15": {"label": "*1", "atom_type": "O2s"}}

>  <type>  (7) 
unop_3

>  <geom_source>  (7) 
gaussian_log

$$$$
