
     RDKit          3D

 15 15  0  0  0  0  0  0  0  0999 V2000
    2.2031   -0.2111   -0.1693 C   0  0  0  0  0  0  0  0  0  0  0  0
    0.7140   -0.0314   -0.0623 C   0  0  0  0  0  0  0  0  0  0  0  0
   -0.0114    0.5491   -1.0982 C   0  0  0  0  0  0  0  0  0  0  0  0
   -1.3882    0.6886   -1.0150 C   0  0  0  0  0  0  0  0  0  0  0  0
   -2.0661    0.2493    0.1118 C   0  0  0  0  0  0  0  0  0  0  0  0
   -1.3551   -0.3278    1.1528 C   0  0  0  0  0  0  0  0  0  0  0  0
    0.0216   -0.4648    1.0642 C   0  0  0  0  0  0  0  0  0  0  0  0
    2.6776   -0.1836    0.8122 H   0  0  0  0  0  0  0  0  0  0  0  0
    2.4446   -1.1749   -0.6249 H   0  0  0  0  0  0  0  0  0  0  0  0
    2.6532    0.5664   -0.7875 H   0  0  0  0  0  0  0  0  0  0  0  0
    0.5104    0.8989   -1.9819 H   0  0  0  0  0  0  0  0  0  0  0  0
   -1.9328    1.1452   -1.8322 H   0  0  0  0  0  0  0  0  0  0  0  0
   -3.1409    0.3597    0.1800 H   0  0  0  0  0  0  0  0  0  0  0  0
   -1.8736   -0.6702    2.0398 H   0  0  0  0  0  0  0  0  0  0  0  0
    0.5695   -0.9141    1.8849 H   0  0  0  0  0  0  0  0  0  0  0  0
  1  2  1  0
  1  8  1  0
  1  9  1  0
  1 10  1  0
  2  3  2  0
  2  7  1  0
  3  4  1  0
  3 11  1  0
  4  5  2  0
  4 12  1  0
  5  6  1  0
  5 13  1  0
  6  7  2  0
  6 14  1  0
  7 15  1  0
M  END
>  <reaction>  (1) 
rxn_1450

>  <mol_properties>  (1) 
{"0": {"label": "donator", "atom_type": "Cs"}, "7": {"label": "d_hydrogen", "atom_type": "H0"}}

>  <type>  (1) 
r1h

$$$$

     RDKit          3D

  5  4  0  0  0  0  0  0  0  0999 V2000
    0.0397    0.7134    0.0000 C   0  0  0  0  0  3  0  0  0  0  0  0
    0.0458   -0.5870    0.0000 C   0  0  0  0  0  0  0  0  0  0  0  0
   -0.6871    1.5118    0.0000 H   0  0  0  0  0  0  0  0  0  0  0  0
   -0.8806   -1.1637    0.0000 H   0  0  0  0  0  0  0  0  0  0  0  0
    0.9690   -1.1600    0.0000 H   0  0  0  0  0  0  0  0  0  0  0  0
  1  2  2  3
  1  3  1  0
  2  4  1  0
  2  5  1  0
M  RAD  1   1   2
M  END
>  <reaction>  (2) 
rxn_1450

>  <mol_properties>  (2) 
{"0": {"label": "acceptor", "atom_type": "Cd"}}

>  <type>  (2) 
r2

$$$$

     RDKit          3D

  6  5  0  0  0  0  0  0  0  0999 V2000
    0.6594    0.0438   -0.0050 C   0  0  0  0  0  0  0  0  0  0  0  0
   -0.6594   -0.0438    0.0050 C   0  0  0  0  0  0  0  0  0  0  0  0
    1.1706    0.8681   -0.4881 H   0  0  0  0  0  0  0  0  0  0  0  0
    1.2824   -0.7051    0.4696 H   0  0  0  0  0  0  0  0  0  0  0  0
   -1.2824    0.7051   -0.4696 H   0  0  0  0  0  0  0  0  0  0  0  0
   -1.1706   -0.8681    0.4881 H   0  0  0  0  0  0  0  0  0  0  0  0
  1  2  2  3
  1  3  1  0
  1  4  1  0
  2  5  1  0
  2  6  1  0
M  END
>  <reaction>  (3) 
rxn_1450

>  <mol_properties>  (3) 
{"0": {"label": "acceptor", "atom_type": "Cd"}, "5": {"label": "a_hydrogen", "atom_type": "H0"}}

>  <type>  (3) 
r2h

$$$$

     RDKit          3D

 20 19  0  0  0  0  0  0  0  0999 V2000
   -1.1932   -1.2297    2.6196 C   0  0  0  0  0  3  0  0  0  0  0  0
   -1.8790   -1.6186    1.5735 C   0  0  0  0  0  0  0  0  0  0  0  0
   -1.3356   -1.4558    3.6695 H   0  0  0  0  0  0  0  0  0  0  0  0
   -2.7453   -2.2714    1.6618 H   0  0  0  0  0  0  0  0  0  0  0  0
   -1.6069   -1.3017    0.5699 H   0  0  0  0  0  0  0  0  0  0  0  0
    0.8344    0.3662    1.8201 C   0  0  0  0  0  0  0  0  0  0  0  0
    0.6505    0.3976    0.3566 C   0  0  0  0  0  0  0  0  0  0  0  0
   -0.1793    1.3479   -0.2412 C   0  0  0  0  0  0  0  0  0  0  0  0
   -0.4082    1.3359   -1.6069 C   0  0  0  0  0  0  0  0  0  0  0  0
    0.1865    0.3701   -2.4062 C   0  0  0  0  0  0  0  0  0  0  0  0
    1.0140   -0.5811   -1.8266 C   0  0  0  0  0  0  0  0  0  0  0  0
    1.2417   -0.5675   -0.4609 C   0  0  0  0  0  0  0  0  0  0  0  0
   -0.0666   -0.3559    2.2875 H   0  0  0  0  0  0  0  0  0  0  0  0
    1.7550   -0.1136    2.1470 H   0  0  0  0  0  0  0  0  0  0  0  0
    0.6871    1.3258    2.3121 H   0  0  0  0  0  0  0  0  0  0  0  0
   -0.6517    2.1020    0.3776 H   0  0  0  0  0  0  0  0  0  0  0  0
   -1.0537    2.0840   -2.0502 H   0  0  0  0  0  0  0  0  0  0  0  0
    0.0085    0.3605   -3.4740 H   0  0  0  0  0  0  0  0  0  0  0  0
    1.4846   -1.3374   -2.4425 H   0  0  0  0  0  0  0  0  0  0  0  0
    1.8848   -1.3171   -0.0144 H   0  0  0  0  0  0  0  0  0  0  0  0
  1  2  2  3
  1  3  1  0
  2  4  1  0
  2  5  1  0
  6  7  1  0
  6 13  1  0
  6 14  1  0
  6 15  1  0
  7  8  2  0
  7 12  1  0
  8  9  1  0
  8 16  1  0
  9 10  2  0
  9 17  1  0
 10 11  1  0
 10 18  1  0
 11 12  2  0
 11 19  1  0
 12 20  1  0
M  RAD  1   1   2
M  END
>  <reaction>  (4) 
rxn_1450

>  <mol_properties>  (4) 
{"0": {"label": "*3", "atom_type": "Cd"}, "1": {"label": "*4", "atom_type": "Cd"}, "5": {"label": "*1", "atom_type": "Cs"}, "6": {"label": "*0", "atom_type": "Cd"}, "12": {"label": "*2", "atom_type": "H0"}}

>  <type>  (4) 
ts

$$$$

     RDKit          3D

 20 19  0  0  0  0  0  0  0  0999 V2000
   -0.9990   -1.5386    2.5265 C   0  0  0  0  0  0  0  0  0  0  0  0
   -0.3596   -2.3962    3.3028 C   0  0  0  0  0  0  0  0  0  0  0  0
   -1.9953   -1.1872    2.7675 H   0  0  0  0  0  0  0  0  0  0  0  0
   -0.8060   -2.7824    4.2115 H   0  0  0  0  0  0  0  0  0  0  0  0
    0.6367   -2.7476    3.0617 H   0  0  0  0  0  0  0  0  0  0  0  0
    0.1771    0.5881    1.5773 C   0  0  0  0  0  0  0  0  0  0  0  0
    0.1771    0.5881    0.0736 C   0  0  0  0  0  0  0  0  0  0  0  0
    0.1771    1.7824   -0.6404 C   0  0  0  0  0  3  0  0  0  0  0  0
    0.2075    1.7858   -2.0264 C   0  0  0  0  0  0  0  0  0  0  0  0
    0.2370    0.5888   -2.7255 C   0  0  0  0  0  0  0  0  0  0  0  0
    0.2339   -0.6086   -2.0264 C   0  0  0  0  0  0  0  0  0  0  0  0
    0.2034   -0.6059   -0.6405 C   0  0  0  0  0  0  0  0  0  0  0  0
   -0.4128   -0.4786    2.0534 H   0  0  0  0  0  0  0  0  0  0  0  0
    1.1993    0.5993    1.9641 H   0  0  0  0  0  0  0  0  0  0  0  0
   -0.3340    1.4660    1.9741 H   0  0  0  0  0  0  0  0  0  0  0  0
    0.1504    2.7235   -0.1026 H   0  0  0  0  0  0  0  0  0  0  0  0
    0.2049    2.7270   -2.5622 H   0  0  0  0  0  0  0  0  0  0  0  0
    0.2582    0.5890   -3.8078 H   0  0  0  0  0  0  0  0  0  0  0  0
    0.2520   -1.5497   -2.5622 H   0  0  0  0  0  0  0  0  0  0  0  0
    0.1975   -1.5474   -0.1026 H   0  0  0  0  0  0  0  0  0  0  0  0
  1  2  2  3
  1  3  1  0
  1 13  1  0
  2  4  1  0
  2  5  1  0
  6  7  2  3
  6 14  1  0
  6 15  1  0
  7  8  1  0
  7 12  1  0
  8  9  1  0
  8 16  1  0
  9 10  2  0
  9 17  1  0
 10 11  1  0
 10 18  1  0
 11 12  2  0
 11 19  1  0
 12 20  1  0
M  RAD  1   8   2
M  END
>  <reaction>  (5) 
rxn_1450

>  <mol_properties>  (5) 
{"0": {"label": "*3", "atom_type": "Cd"}, "1": {"label": "*4", "atom_type": "Cd"}, "5": {"label": "*1", "atom_type": "Cs"}, "6": {"label": "*0", "atom_type": "Cd"}, "12": {"label": "*2", "atom_type": "H0"}}

>  <type>  (5) 
unop_1

>  <geom_source>  (5) 
Heuristics

$$$$

     RDKit          3D

 20 19  0  0  0  0  0  0  0  0999 V2000
   -0.9265   -1.4998    2.6985 C   0  0  0  0  0  0  0  0  0  0  0  0
   -0.9182   -2.6475    2.0430 C   0  0  0  0  0  0  0  0  0  0  0  0
   -1.1607   -1.4506    3.7554 H   0  0  0  0  0  0  0  0  0  0  0  0
   -1.1452   -3.5853    2.5360 H   0  0  0  0  0  0  0  0  0  0  0  0
   -0.6841   -2.6967    0.9861 H   0  0  0  0  0  0  0  0  0  0  0  0
    0.2495    0.6269    1.7494 C   0  0  0  0  0  0  0  0  0  0  0  0
    0.2495    0.6269    0.2456 C   0  0  0  0  0  0  0  0  0  0  0  0
    0.2495    1.8212   -0.4684 C   0  0  0  0  0  3  0  0  0  0  0  0
    0.2799    1.8246   -1.8544 C   0  0  0  0  0  0  0  0  0  0  0  0
    0.3095    0.6276   -2.5534 C   0  0  0  0  0  0  0  0  0  0  0  0
    0.3063   -0.5698   -1.8544 C   0  0  0  0  0  0  0  0  0  0  0  0
    0.2758   -0.5671   -0.4684 C   0  0  0  0  0  0  0  0  0  0  0  0
   -0.3404   -0.4398    2.2254 H   0  0  0  0  0  0  0  0  0  0  0  0
    1.2717    0.6382    2.1361 H   0  0  0  0  0  0  0  0  0  0  0  0
   -0.2615    1.5048    2.1461 H   0  0  0  0  0  0  0  0  0  0  0  0
    0.2229    2.7623    0.0694 H   0  0  0  0  0  0  0  0  0  0  0  0
    0.2773    2.7658   -2.3901 H   0  0  0  0  0  0  0  0  0  0  0  0
    0.3306    0.6278   -3.6358 H   0  0  0  0  0  0  0  0  0  0  0  0
    0.3244   -1.5108   -2.3901 H   0  0  0  0  0  0  0  0  0  0  0  0
    0.2700   -1.5086    0.0694 H   0  0  0  0  0  0  0  0  0  0  0  0
  1  2  2  3
  1  3  1  0
  1 13  1  0
  2  4  1  0
  2  5  1  0
  6  7  2  3
  6 14  1  0
  6 15  1  0
  7  8  1  0
  7 12  1  0
  8  9  1  0
  8 16  1  0
  9 10  2  0
  9 17  1  0
 10 11  1  0
 10 18  1  0
 11 12  2  0
 11 19  1  0
 12 20  1  0
M  RAD  1   8   2
M  END
>  <reaction>  (6) 
rxn_1450

>  <mol_properties>  (6) 
{"0": {"label": "*3", "atom_type": "Cd"}, "1": {"label": "*4", "atom_type": "Cd"}, "5": {"label": "*1", "atom_type": "Cs"}, "6": {"label": "*0", "atom_type": "Cd"}, "12": {"label": "*2", "atom_type": "H0"}}

>  <type>  (6) 
unop_2

>  <geom_source>  (6) 
Heuristics

$$$$

     RDKit          3D

 20 19  0  0  0  0  0  0  0  0999 V2000
   -0.9627   -1.5772    2.4833 C   0  0  0  0  0  0  0  0  0  0  0  0
   -0.6112   -2.1043    3.6433 C   0  0  0  0  0  0  0  0  0  0  0  0
   -1.9973   -1.5474    2.1626 H   0  0  0  0  0  0  0  0  0  0  0  0
   -1.3436   -2.5279    4.3203 H   0  0  0  0  0  0  0  0  0  0  0  0
    0.4235   -2.1341    3.9639 H   0  0  0  0  0  0  0  0  0  0  0  0
    0.2134    0.5495    1.5341 C   0  0  0  0  0  0  0  0  0  0  0  0
    0.2134    0.5495    0.0304 C   0  0  0  0  0  0  0  0  0  0  0  0
    0.2134    1.7438   -0.6836 C   0  0  0  0  0  3  0  0  0  0  0  0
    0.2438    1.7472   -2.0696 C   0  0  0  0  0  0  0  0  0  0  0  0
    0.2734    0.5502   -2.7687 C   0  0  0  0  0  0  0  0  0  0  0  0
    0.2702   -0.6472   -2.0696 C   0  0  0  0  0  0  0  0  0  0  0  0
    0.2397   -0.6445   -0.6836 C   0  0  0  0  0  0  0  0  0  0  0  0
   -0.3765   -0.5172    2.0102 H   0  0  0  0  0  0  0  0  0  0  0  0
    1.2356    0.5608    1.9209 H   0  0  0  0  0  0  0  0  0  0  0  0
   -0.2977    1.4274    1.9309 H   0  0  0  0  0  0  0  0  0  0  0  0
    0.1868    2.6849   -0.1458 H   0  0  0  0  0  0  0  0  0  0  0  0
    0.2412    2.6884   -2.6054 H   0  0  0  0  0  0  0  0  0  0  0  0
    0.2945    0.5504   -3.8510 H   0  0  0  0  0  0  0  0  0  0  0  0
    0.2883   -1.5882   -2.6054 H   0  0  0  0  0  0  0  0  0  0  0  0
    0.2339   -1.5860   -0.1458 H   0  0  0  0  0  0  0  0  0  0  0  0
  1  2  2  3
  1  3  1  0
  1 13  1  0
  2  4  1  0
  2  5  1  0
  6  7  2  3
  6 14  1  0
  6 15  1  0
  7  8  1  0
  7 12  1  0
  8  9  1  0
  8 16  1  0
  9 10  2  0
  9 17  1  0
 10 11  1  0
 10 18  1  0
 11 12  2  0
 11 19  1  0
 12 20  1  0
M  RAD  1   8   2
M  END
>  <reaction>  (7) 
rxn_1450

>  <mol_properties>  (7) 
{"0": {"label": "*3", "atom_type": "Cd"}, "1": {"label": "*4", "atom_type": "Cd"}, "5": {"label": "*1", "atom_type": "Cs"}, "6": {"label": "*0", "atom_type": "Cd"}, "12": {"label": "*2", "atom_type": "H0"}}

>  <type>  (7) 
unop_3

>  <geom_source>  (7) 
Heuristics

$$$$

     RDKit          3D

 20 19  0  0  0  0  0  0  0  0999 V2000
   -0.7733   -1.6064    2.6515 C   0  0  0  0  0  0  0  0  0  0  0  0
   -2.0377   -1.8791    2.3796 C   0  0  0  0  0  0  0  0  0  0  0  0
   -0.3234   -1.8813    3.5982 H   0  0  0  0  0  0  0  0  0  0  0  0
   -2.6753   -2.3885    3.0925 H   0  0  0  0  0  0  0  0  0  0  0  0
   -2.4876   -1.6041    1.4329 H   0  0  0  0  0  0  0  0  0  0  0  0
    0.4027    0.5203    1.7024 C   0  0  0  0  0  0  0  0  0  0  0  0
    0.4027    0.5203    0.1986 C   0  0  0  0  0  0  0  0  0  0  0  0
    0.4027    1.7146   -0.5154 C   0  0  0  0  0  3  0  0  0  0  0  0
    0.4332    1.7180   -1.9014 C   0  0  0  0  0  0  0  0  0  0  0  0
    0.4627    0.5210   -2.6004 C   0  0  0  0  0  0  0  0  0  0  0  0
    0.4596   -0.6764   -1.9014 C   0  0  0  0  0  0  0  0  0  0  0  0
    0.4291   -0.6737   -0.5154 C   0  0  0  0  0  0  0  0  0  0  0  0
   -0.1871   -0.5464    2.1784 H   0  0  0  0  0  0  0  0  0  0  0  0
    1.4250    0.5315    2.0891 H   0  0  0  0  0  0  0  0  0  0  0  0
   -0.1083    1.3982    2.0991 H   0  0  0  0  0  0  0  0  0  0  0  0
    0.3761    2.6557    0.0224 H   0  0  0  0  0  0  0  0  0  0  0  0
    0.4305    2.6592   -2.4371 H   0  0  0  0  0  0  0  0  0  0  0  0
    0.4839    0.5212   -3.6828 H   0  0  0  0  0  0  0  0  0  0  0  0
    0.4777   -1.6175   -2.4371 H   0  0  0  0  0  0  0  0  0  0  0  0
    0.4232   -1.6152    0.0224 H   0  0  0  0  0  0  0  0  0  0  0  0
  1  2  2  3
  1  3  1  0
  1 13  1  0
  2  4  1  0
  2  5  1  0
  6  7  2  3
  6 14  1  0
  6 15  1  0
  7  8  1  0
  7 12  1  0
  8  9  1  0
  8 16  1  0
  9 10  2  0
  9 17  1  0
 10 11  1  0
 10 18  1  0
 11 12  2  0
 11 19  1  0
 12 20  1  0
M  RAD  1   8   2
M  END
>  <reaction>  (8) 
rxn_1450

>  <mol_properties>  (8) 
{"0": {"label": "*3", "atom_type": "Cd"}, "1": {"label": "*4", "atom_type": "Cd"}, "5": {"label": "*1", "atom_type": "Cs"}, "6": {"label": "*0", "atom_type": "Cd"}, "12": {"label": "*2", "atom_type": "H0"}}

>  <type>  (8) 
unop_4

>  <geom_source>  (8) 
Heuristics

$$$$

     RDKit          3D

 20 19  0  0  0  0  0  0  0  0999 V2000
   -0.9099   -1.6110    2.4691 C   0  0  0  0  0  0  0  0  0  0  0  0
   -1.0243   -1.8179    3.7695 C   0  0  0  0  0  0  0  0  0  0  0  0
   -1.3000   -2.3164    1.7449 H   0  0  0  0  0  0  0  0  0  0  0  0
   -1.5127   -2.7012    4.1638 H   0  0  0  0  0  0  0  0  0  0  0  0
   -0.6342   -1.1125    4.4938 H   0  0  0  0  0  0  0  0  0  0  0  0
    0.2661    0.5157    1.5200 C   0  0  0  0  0  0  0  0  0  0  0  0
    0.2661    0.5157    0.0163 C   0  0  0  0  0  0  0  0  0  0  0  0
    0.2661    1.7100   -0.6978 C   0  0  0  0  0  3  0  0  0  0  0  0
    0.2966    1.7134   -2.0838 C   0  0  0  0  0  0  0  0  0  0  0  0
    0.3261    0.5164   -2.7828 C   0  0  0  0  0  0  0  0  0  0  0  0
    0.3230   -0.6810   -2.0838 C   0  0  0  0  0  0  0  0  0  0  0  0
    0.2925   -0.6783   -0.6978 C   0  0  0  0  0  0  0  0  0  0  0  0
   -0.3237   -0.5510    1.9961 H   0  0  0  0  0  0  0  0  0  0  0  0
    1.2884    0.5270    1.9068 H   0  0  0  0  0  0  0  0  0  0  0  0
   -0.2449    1.3936    1.9167 H   0  0  0  0  0  0  0  0  0  0  0  0
    0.2395    2.6511   -0.1600 H   0  0  0  0  0  0  0  0  0  0  0  0
    0.2939    2.6546   -2.6195 H   0  0  0  0  0  0  0  0  0  0  0  0
    0.3473    0.5166   -3.8652 H   0  0  0  0  0  0  0  0  0  0  0  0
    0.3411   -1.6220   -2.6195 H   0  0  0  0  0  0  0  0  0  0  0  0
    0.2866   -1.6198   -0.1600 H   0  0  0  0  0  0  0  0  0  0  0  0
  1  2  2  3
  1  3  1  0
  1 13  1  0
  2  4  1  0
  2  5  1  0
  6  7  2  3
  6 14  1  0
  6 15  1  0
  7  8  1  0
  7 12  1  0
  8  9  1  0
  8 16  1  0
  9 10  2  0
  9 17  1  0
 10 11  1  0
 10 18  1  0
 11 12  2  0
 11 19  1  0
 12 20  1  0
M  RAD  1   8   2
M  END
>  <reaction>  (9) 
rxn_1450

>  <mol_properties>  (9) 
{"0": {"label": "*3", "atom_type": "Cd"}, "1": {"label": "*4", "atom_type": "Cd"}, "5": {"label": "*1", "atom_type": "Cs"}, "6": {"label": "*0", "atom_type": "Cd"}, "12": {"label": "*2", "atom_type": "H0"}}

>  <type>  (9) 
unop_5

>  <geom_source>  (9) 
Heuristics

$$$$

     RDKit          3D

 20 19  0  0  0  0  0  0  0  0999 V2000
   -0.7714   -1.6365    2.5883 C   0  0  0  0  0  0  0  0  0  0  0  0
   -2.0687   -1.6571    2.8405 C   0  0  0  0  0  0  0  0  0  0  0  0
   -0.0532   -2.0797    3.2679 H   0  0  0  0  0  0  0  0  0  0  0  0
   -2.4662   -2.1180    3.7370 H   0  0  0  0  0  0  0  0  0  0  0  0
   -2.7870   -1.2138    2.1608 H   0  0  0  0  0  0  0  0  0  0  0  0
    0.4046    0.4902    1.6391 C   0  0  0  0  0  0  0  0  0  0  0  0
    0.4046    0.4902    0.1354 C   0  0  0  0  0  0  0  0  0  0  0  0
    0.4046    1.6845   -0.5787 C   0  0  0  0  0  3  0  0  0  0  0  0
    0.4350    1.6879   -1.9647 C   0  0  0  0  0  0  0  0  0  0  0  0
    0.4646    0.4909   -2.6637 C   0  0  0  0  0  0  0  0  0  0  0  0
    0.4614   -0.7065   -1.9647 C   0  0  0  0  0  0  0  0  0  0  0  0
    0.4309   -0.7038   -0.5787 C   0  0  0  0  0  0  0  0  0  0  0  0
   -0.1853   -0.5765    2.1152 H   0  0  0  0  0  0  0  0  0  0  0  0
    1.4268    0.5015    2.0259 H   0  0  0  0  0  0  0  0  0  0  0  0
   -0.1064    1.3681    2.0358 H   0  0  0  0  0  0  0  0  0  0  0  0
    0.3780    2.6256   -0.0408 H   0  0  0  0  0  0  0  0  0  0  0  0
    0.4324    2.6291   -2.5004 H   0  0  0  0  0  0  0  0  0  0  0  0
    0.4857    0.4911   -3.7460 H   0  0  0  0  0  0  0  0  0  0  0  0
    0.4795   -1.6475   -2.5004 H   0  0  0  0  0  0  0  0  0  0  0  0
    0.4251   -1.6453   -0.0408 H   0  0  0  0  0  0  0  0  0  0  0  0
  1  2  2  3
  1  3  1  0
  1 13  1  0
  2  4  1  0
  2  5  1  0
  6  7  2  3
  6 14  1  0
  6 15  1  0
  7  8  1  0
  7 12  1  0
  8  9  1  0
  8 16  1  0
  9 10  2  0
  9 17  1  0
 10 11  1  0
 10 18  1  0
 11 12  2  0
 11 19  1  0
 12 20  1  0
M  RAD  1   8   2
M  END
>  <reaction>  (10) 
rxn_1450

>  <mol_properties>  (10) 
{"0": {"label": "*3", "atom_type": "Cd"}, "1": {"label": "*4", "atom_type": "Cd"}, "5": {"label": "*1", "atom_type": "Cs"}, "6": {"label": "*0", "atom_type": "Cd"}, "12": {"label": "*2", "atom_type": "H0"}}

>  <type>  (10) 
unop_6

>  <geom_source>  (10) 
Heuristics

$$$$

     RDKit          3D

 20 19  0  0  0  0  0  0  0  0999 V2000
   -0.8012   -1.6479    2.5265 C   0  0  0  0  0  0  0  0  0  0  0  0
   -1.8675   -1.5623    3.3028 C   0  0  0  0  0  0  0  0  0  0  0  0
    0.0261   -2.3050    2.7675 H   0  0  0  0  0  0  0  0  0  0  0  0
   -1.9573   -2.1458    4.2115 H   0  0  0  0  0  0  0  0  0  0  0  0
   -2.6948   -0.9053    3.0617 H   0  0  0  0  0  0  0  0  0  0  0  0
    0.3748    0.4788    1.5773 C   0  0  0  0  0  0  0  0  0  0  0  0
    0.3748    0.4788    0.0736 C   0  0  0  0  0  0  0  0  0  0  0  0
    0.3748    1.6731   -0.6404 C   0  0  0  0  0  3  0  0  0  0  0  0
    0.4052    1.6764   -2.0264 C   0  0  0  0  0  0  0  0  0  0  0  0
    0.4348    0.4794   -2.7255 C   0  0  0  0  0  0  0  0  0  0  0  0
    0.4316   -0.7180   -2.0264 C   0  0  0  0  0  0  0  0  0  0  0  0
    0.4011   -0.7153   -0.6405 C   0  0  0  0  0  0  0  0  0  0  0  0
   -0.2151   -0.5880    2.0534 H   0  0  0  0  0  0  0  0  0  0  0  0
    1.3970    0.4900    1.9641 H   0  0  0  0  0  0  0  0  0  0  0  0
   -0.1362    1.3566    1.9741 H   0  0  0  0  0  0  0  0  0  0  0  0
    0.3482    2.6142   -0.1026 H   0  0  0  0  0  0  0  0  0  0  0  0
    0.4026    2.6176   -2.5622 H   0  0  0  0  0  0  0  0  0  0  0  0
    0.4559    0.4796   -3.8078 H   0  0  0  0  0  0  0  0  0  0  0  0
    0.4498   -1.6590   -2.5622 H   0  0  0  0  0  0  0  0  0  0  0  0
    0.3953   -1.6567   -0.1026 H   0  0  0  0  0  0  0  0  0  0  0  0
  1  2  2  3
  1  3  1  0
  1 13  1  0
  2  4  1  0
  2  5  1  0
  6  7  2  3
  6 14  1  0
  6 15  1  0
  7  8  1  0
  7 12  1  0
  8  9  1  0
  8 16  1  0
  9 10  2  0
  9 17  1  0
 10 11  1  0
 10 18  1  0
 11 12  2  0
 11 19  1  0
 12 20  1  0
M  RAD  1   8   2
M  END
>  <reaction>  (11) 
rxn_1450

>  <mol_properties>  (11) 
{"0": {"label": "*3", "atom_type": "Cd"}, "1": {"label": "*4", "atom_type": "Cd"}, "5": {"label": "*1", "atom_type": "Cs"}, "6": {"label": "*0", "atom_type": "Cd"}, "12": {"label": "*2", "atom_type": "H0"}}

>  <type>  (11) 
unop_7

>  <geom_source>  (11) 
Heuristics

$$$$

     RDKit          3D

 20 19  0  0  0  0  0  0  0  0999 V2000
   -1.0051   -1.5073    2.5883 C   0  0  0  0  0  0  0  0  0  0  0  0
   -0.3328   -2.6170    2.8405 C   0  0  0  0  0  0  0  0  0  0  0  0
   -1.7623   -1.1346    3.2679 H   0  0  0  0  0  0  0  0  0  0  0  0
   -0.5119   -3.1987    3.7370 H   0  0  0  0  0  0  0  0  0  0  0  0
    0.4244   -2.9897    2.1608 H   0  0  0  0  0  0  0  0  0  0  0  0
    0.1709    0.6194    1.6391 C   0  0  0  0  0  0  0  0  0  0  0  0
    0.1709    0.6194    0.1354 C   0  0  0  0  0  0  0  0  0  0  0  0
    0.1709    1.8137   -0.5787 C   0  0  0  0  0  3  0  0  0  0  0  0
    0.2014    1.8171   -1.9647 C   0  0  0  0  0  0  0  0  0  0  0  0
    0.2309    0.6201   -2.6637 C   0  0  0  0  0  0  0  0  0  0  0  0
    0.2278   -0.5773   -1.9647 C   0  0  0  0  0  0  0  0  0  0  0  0
    0.1973   -0.5746   -0.5787 C   0  0  0  0  0  0  0  0  0  0  0  0
   -0.4190   -0.4473    2.1152 H   0  0  0  0  0  0  0  0  0  0  0  0
    1.1932    0.6307    2.0259 H   0  0  0  0  0  0  0  0  0  0  0  0
   -0.3401    1.4973    2.0358 H   0  0  0  0  0  0  0  0  0  0  0  0
    0.1443    2.7548   -0.0408 H   0  0  0  0  0  0  0  0  0  0  0  0
    0.1987    2.7583   -2.5004 H   0  0  0  0  0  0  0  0  0  0  0  0
    0.2521    0.6203   -3.7460 H   0  0  0  0  0  0  0  0  0  0  0  0
    0.2459   -1.5183   -2.5004 H   0  0  0  0  0  0  0  0  0  0  0  0
    0.1914   -1.5161   -0.0408 H   0  0  0  0  0  0  0  0  0  0  0  0
  1  2  2  3
  1  3  1  0
  1 13  1  0
  2  4  1  0
  2  5  1  0
  6  7  2  3
  6 14  1  0
  6 15  1  0
  7  8  1  0
  7 12  1  0
  8  9  1  0
  8 16  1  0
  9 10  2  0
  9 17  1  0
 10 11  1  0
 10 18  1  0
 11 12  2  0
 11 19  1  0
 12 20  1  0
M  RAD  1   8   2
M  END
>  <reaction>  (12) 
rxn_1450

>  <mol_properties>  (12) 
{"0": {"label": "*3", "atom_type": "Cd"}, "1": {"label": "*4", "atom_type": "Cd"}, "5": {"label": "*1", "atom_type": "Cs"}, "6": {"label": "*0", "atom_type": "Cd"}, "12": {"label": "*2", "atom_type": "H0"}}

>  <type>  (12) 
unop_8

>  <geom_source>  (12) 
Heuristics

$$$$

     RDKit          3D

 20 19  0  0  0  0  0  0  0  0999 V2000
   -0.8069   -1.5660    2.6985 C   0  0  0  0  0  0  0  0  0  0  0  0
   -1.7833   -2.1691    2.0430 C   0  0  0  0  0  0  0  0  0  0  0  0
   -0.6407   -1.7381    3.7554 H   0  0  0  0  0  0  0  0  0  0  0  0
   -2.4570   -2.8600    2.5360 H   0  0  0  0  0  0  0  0  0  0  0  0
   -1.9495   -1.9969    0.9861 H   0  0  0  0  0  0  0  0  0  0  0  0
    0.3692    0.5607    1.7494 C   0  0  0  0  0  0  0  0  0  0  0  0
    0.3692    0.5607    0.2456 C   0  0  0  0  0  0  0  0  0  0  0  0
    0.3692    1.7550   -0.4684 C   0  0  0  0  0  3  0  0  0  0  0  0
    0.3996    1.7584   -1.8544 C   0  0  0  0  0  0  0  0  0  0  0  0
    0.4291    0.5614   -2.5534 C   0  0  0  0  0  0  0  0  0  0  0  0
    0.4260   -0.6360   -1.8544 C   0  0  0  0  0  0  0  0  0  0  0  0
    0.3955   -0.6333   -0.4684 C   0  0  0  0  0  0  0  0  0  0  0  0
   -0.2207   -0.5060    2.2254 H   0  0  0  0  0  0  0  0  0  0  0  0
    1.3914    0.5720    2.1361 H   0  0  0  0  0  0  0  0  0  0  0  0
   -0.1419    1.4386    2.1461 H   0  0  0  0  0  0  0  0  0  0  0  0
    0.3425    2.6961    0.0694 H   0  0  0  0  0  0  0  0  0  0  0  0
    0.3970    2.6996   -2.3901 H   0  0  0  0  0  0  0  0  0  0  0  0
    0.4503    0.5616   -3.6358 H   0  0  0  0  0  0  0  0  0  0  0  0
    0.4441   -1.5770   -2.3901 H   0  0  0  0  0  0  0  0  0  0  0  0
    0.3896   -1.5748    0.0694 H   0  0  0  0  0  0  0  0  0  0  0  0
  1  2  2  3
  1  3  1  0
  1 13  1  0
  2  4  1  0
  2  5  1  0
  6  7  2  3
  6 14  1  0
  6 15  1  0
  7  8  1  0
  7 12  1  0
  8  9  1  0
  8 16  1  0
  9 10  2  0
  9 17  1  0
 10 11  1  0
 10 18  1  0
 11 12  2  0
 11 19  1  0
 12 20  1  0
M  RAD  1   8   2
M  END
>  <reaction>  (13) 
rxn_1450

>  <mol_properties>  (13) 
{"0": {"label": "*3", "atom_type": "Cd"}, "1": {"label": "*4", "atom_type": "Cd"}, "5": {"label": "*1", "atom_type": "Cs"}, "6": {"label": "*0", "atom_type": "Cd"}, "12": {"label": "*2", "atom_type": "H0"}}

>  <type>  (13) 
unop_9

>  <geom_source>  (13) 
Heuristics

$$$$

     RDKit          3D

 20 19  0  0  0  0  0  0  0  0999 V2000
   -0.9786   -1.4928    2.6515 C   0  0  0  0  0  0  0  0  0  0  0  0
   -0.5374   -2.7087    2.3796 C   0  0  0  0  0  0  0  0  0  0  0  0
   -1.4507   -1.2580    3.5982 H   0  0  0  0  0  0  0  0  0  0  0  0
   -0.6299   -3.5196    3.0925 H   0  0  0  0  0  0  0  0  0  0  0  0
   -0.0654   -2.9436    1.4329 H   0  0  0  0  0  0  0  0  0  0  0  0
    0.1974    0.6339    1.7024 C   0  0  0  0  0  0  0  0  0  0  0  0
    0.1974    0.6339    0.1986 C   0  0  0  0  0  0  0  0  0  0  0  0
    0.1974    1.8282   -0.5154 C   0  0  0  0  0  3  0  0  0  0  0  0
    0.2278    1.8315   -1.9014 C   0  0  0  0  0  0  0  0  0  0  0  0
    0.2574    0.6345   -2.6004 C   0  0  0  0  0  0  0  0  0  0  0  0
    0.2542   -0.5629   -1.9014 C   0  0  0  0  0  0  0  0  0  0  0  0
    0.2237   -0.5602   -0.5154 C   0  0  0  0  0  0  0  0  0  0  0  0
   -0.3925   -0.4329    2.1784 H   0  0  0  0  0  0  0  0  0  0  0  0
    1.2196    0.6451    2.0891 H   0  0  0  0  0  0  0  0  0  0  0  0
   -0.3136    1.5117    2.0991 H   0  0  0  0  0  0  0  0  0  0  0  0
    0.1708    2.7693    0.0224 H   0  0  0  0  0  0  0  0  0  0  0  0
    0.2252    2.7727   -2.4371 H   0  0  0  0  0  0  0  0  0  0  0  0
    0.2785    0.6347   -3.6828 H   0  0  0  0  0  0  0  0  0  0  0  0
    0.2723   -1.5039   -2.4371 H   0  0  0  0  0  0  0  0  0  0  0  0
    0.2179   -1.5016    0.0224 H   0  0  0  0  0  0  0  0  0  0  0  0
  1  2  2  3
  1  3  1  0
  1 13  1  0
  2  4  1  0
  2  5  1  0
  6  7  2  3
  6 14  1  0
  6 15  1  0
  7  8  1  0
  7 12  1  0
  8  9  1  0
  8 16  1  0
  9 10  2  0
  9 17  1  0
 10 11  1  0
 10 18  1  0
 11 12  2  0
 11 19  1  0
 12 20  1  0
M  RAD  1   8   2
M  END
>  <reaction>  (14) 
rxn_1450

>  <mol_properties>  (14) 
{"0": {"label": "*3", "atom_type": "Cd"}, "1": {"label": "*4", "atom_type": "Cd"}, "5": {"label": "*1", "atom_type": "Cs"}, "6": {"label": "*0", "atom_type": "Cd"}, "12": {"label": "*2", "atom_type": "H0"}}

>  <type>  (14) 
unop_10

>  <geom_source>  (14) 
Heuristics

$$$$

     RDKit          3D

 20 19  0  0  0  0  0  0  0  0999 V2000
   -0.8532   -1.6377    2.4833 C   0  0  0  0  0  0  0  0  0  0  0  0
   -1.4865   -1.6203    3.6433 C   0  0  0  0  0  0  0  0  0  0  0  0
   -0.2779   -2.4982    2.1626 H   0  0  0  0  0  0  0  0  0  0  0  0
   -1.4559   -2.4658    4.3203 H   0  0  0  0  0  0  0  0  0  0  0  0
   -2.0618   -0.7598    3.9639 H   0  0  0  0  0  0  0  0  0  0  0  0
    0.3228    0.4890    1.5341 C   0  0  0  0  0  0  0  0  0  0  0  0
    0.3228    0.4890    0.0304 C   0  0  0  0  0  0  0  0  0  0  0  0
    0.3228    1.6833   -0.6836 C   0  0  0  0  0  3  0  0  0  0  0  0
    0.3533    1.6867   -2.0696 C   0  0  0  0  0  0  0  0  0  0  0  0
    0.3828    0.4897   -2.7687 C   0  0  0  0  0  0  0  0  0  0  0  0
    0.3797   -0.7077   -2.0696 C   0  0  0  0  0  0  0  0  0  0  0  0
    0.3491   -0.7050   -0.6836 C   0  0  0  0  0  0  0  0  0  0  0  0
   -0.2671   -0.5777    2.0102 H   0  0  0  0  0  0  0  0  0  0  0  0
    1.3450    0.5003    1.9209 H   0  0  0  0  0  0  0  0  0  0  0  0
   -0.1882    1.3669    1.9309 H   0  0  0  0  0  0  0  0  0  0  0  0
    0.2962    2.6244   -0.1458 H   0  0  0  0  0  0  0  0  0  0  0  0
    0.3506    2.6279   -2.6054 H   0  0  0  0  0  0  0  0  0  0  0  0
    0.4040    0.4899   -3.8510 H   0  0  0  0  0  0  0  0  0  0  0  0
    0.3978   -1.6488   -2.6054 H   0  0  0  0  0  0  0  0  0  0  0  0
    0.3433   -1.6465   -0.1458 H   0  0  0  0  0  0  0  0  0  0  0  0
  1  2  2  3
  1  3  1  0
  1 13  1  0
  2  4  1  0
  2  5  1  0
  6  7  2  3
  6 14  1  0
  6 15  1  0
  7  8  1  0
  7 12  1  0
  8  9  1  0
  8 16  1  0
  9 10  2  0
  9 17  1  0
 10 11  1  0
 10 18  1  0
 11 12  2  0
 11 19  1  0
 12 20  1  0
M  RAD  1   8   2
M  END
>  <reaction>  (15) 
rxn_1450

>  <mol_properties>  (15) 
{"0": {"label": "*3", "atom_type": "Cd"}, "1": {"label": "*4", "atom_type": "Cd"}, "5": {"label": "*1", "atom_type": "Cs"}, "6": {"label": "*0", "atom_type": "Cd"}, "12": {"label": "*2", "atom_type": "H0"}}

>  <type>  (15) 
unop_11

>  <geom_source>  (15) 
Heuristics

$$$$

     RDKit          3D

 20 19  0  0  0  0  0  0  0  0999 V2000
   -0.8633   -1.5267    2.7159 C   0  0  0  0  0  0  0  0  0  0  0  0
   -1.3739   -2.4500    1.9199 C   0  0  0  0  0  0  0  0  0  0  0  0
   -0.9125   -1.6158    3.7947 H   0  0  0  0  0  0  0  0  0  0  0  0
   -1.8623   -3.3333    2.3141 H   0  0  0  0  0  0  0  0  0  0  0  0
   -1.3246   -2.3609    0.8411 H   0  0  0  0  0  0  0  0  0  0  0  0
    0.3128    0.6000    1.7667 C   0  0  0  0  0  0  0  0  0  0  0  0
    0.3128    0.6000    0.2630 C   0  0  0  0  0  0  0  0  0  0  0  0
    0.3128    1.7944   -0.4510 C   0  0  0  0  0  3  0  0  0  0  0  0
    0.3432    1.7977   -1.8370 C   0  0  0  0  0  0  0  0  0  0  0  0
    0.3728    0.6007   -2.5361 C   0  0  0  0  0  0  0  0  0  0  0  0
    0.3696   -0.5967   -1.8370 C   0  0  0  0  0  0  0  0  0  0  0  0
    0.3391   -0.5940   -0.4510 C   0  0  0  0  0  0  0  0  0  0  0  0
   -0.2771   -0.4667    2.2428 H   0  0  0  0  0  0  0  0  0  0  0  0
    1.3350    0.6113    2.1535 H   0  0  0  0  0  0  0  0  0  0  0  0
   -0.1983    1.4779    2.1635 H   0  0  0  0  0  0  0  0  0  0  0  0
    0.2861    2.7355    0.0868 H   0  0  0  0  0  0  0  0  0  0  0  0
    0.3406    2.7389   -2.3728 H   0  0  0  0  0  0  0  0  0  0  0  0
    0.3939    0.6009   -3.6184 H   0  0  0  0  0  0  0  0  0  0  0  0
    0.3877   -1.5377   -2.3728 H   0  0  0  0  0  0  0  0  0  0  0  0
    0.3332   -1.5354    0.0868 H   0  0  0  0  0  0  0  0  0  0  0  0
  1  2  2  3
  1  3  1  0
  1 13  1  0
  2  4  1  0
  2  5  1  0
  6  7  2  3
  6 14  1  0
  6 15  1  0
  7  8  1  0
  7 12  1  0
  8  9  1  0
  8 16  1  0
  9 10  2  0
  9 17  1  0
 10 11  1  0
 10 18  1  0
 11 12  2  0
 11 19  1  0
 12 20  1  0
M  RAD  1   8   2
M  END
>  <reaction>  (16) 
rxn_1450

>  <mol_properties>  (16) 
{"0": {"label": "*3", "atom_type": "Cd"}, "1": {"label": "*4", "atom_type": "Cd"}, "5": {"label": "*1", "atom_type": "Cs"}, "6": {"label": "*0", "atom_type": "Cd"}, "12": {"label": "*2", "atom_type": "H0"}}

>  <type>  (16) 
unop_12

>  <geom_source>  (16) 
Heuristics

$$$$

     RDKit          3D

 20 19  0  0  0  0  0  0  0  0999 V2000
    0.6358   -0.4894   -0.3413 C   0  0  0  0  0  0  0  0  0  0  0  0
    0.1177    0.4042   -1.2925 C   0  0  0  0  0  3  0  0  0  0  0  0
    1.9108   -0.2583    0.1999 C   0  0  0  0  0  0  0  0  0  0  0  0
    0.8796    1.4966   -1.7197 C   0  0  0  0  0  0  0  0  0  0  0  0
    2.1557    1.7105   -1.1907 C   0  0  0  0  0  0  0  0  0  0  0  0
    2.6697    0.8352   -0.2298 C   0  0  0  0  0  0  0  0  0  0  0  0
   -0.1955   -1.6369    0.1482 C   0  0  0  0  0  0  0  0  0  0  0  0
   -2.9411   -0.2145    2.1083 C   0  0  0  0  0  0  0  0  0  0  0  0
   -2.4652   -0.6594    0.9481 C   0  0  0  0  0  0  0  0  0  0  0  0
   -0.8733    0.2552   -1.7033 H   0  0  0  0  0  0  0  0  0  0  0  0
    0.4793    2.1795   -2.4579 H   0  0  0  0  0  0  0  0  0  0  0  0
    2.3169   -0.9235    0.9519 H   0  0  0  0  0  0  0  0  0  0  0  0
    2.7435    2.5571   -1.5213 H   0  0  0  0  0  0  0  0  0  0  0  0
    3.6547    1.0062    0.1850 H   0  0  0  0  0  0  0  0  0  0  0  0
   -2.2746   -0.0788    2.9534 H   0  0  0  0  0  0  0  0  0  0  0  0
   -3.9964    0.0145    2.2154 H   0  0  0  0  0  0  0  0  0  0  0  0
   -3.1291   -0.7963    0.1007 H   0  0  0  0  0  0  0  0  0  0  0  0
   -1.2509   -0.9218    0.8288 H   0  0  0  0  0  0  0  0  0  0  0  0
   -0.8850   -1.9940   -0.6462 H   0  0  0  0  0  0  0  0  0  0  0  0
    0.4475   -2.4864    0.4628 H   0  0  0  0  0  0  0  0  0  0  0  0
  1  7  2  3
  1  2  1  0
  1  3  1  0
  2  4  1  0
  2 10  1  0
  3  6  2  0
  3 12  1  0
  4  5  2  0
  4 11  1  0
  5  6  1  0
  5 13  1  0
  6 14  1  0
  7 19  1  0
  7 20  1  0
  8  9  2  3
  8 15  1  0
  8 16  1  0
  9 17  1  0
  9 18  1  0
M  RAD  1   2   2
M  END
>  <reaction>  (17) 
rxn_1450

>  <mol_properties>  (17) 
{"0": {"label": "*3", "atom_type": "Cd"}, "1": {"label": "*4", "atom_type": "Cd"}, "5": {"label": "*1", "atom_type": "Cs"}, "6": {"label": "*0", "atom_type": "Cd"}, "12": {"label": "*2", "atom_type": "H0"}}

>  <type>  (17) 
unop_13

>  <geom_source>  (17) 
AutoTST

$$$$

     RDKit          3D

 20 19  0  0  0  0  0  0  0  0999 V2000
   -0.9265   -1.4998    2.6985 C   0  0  0  0  0  0  0  0  0  0  0  0
   -0.9182   -2.6475    2.0429 C   0  0  0  0  0  0  0  0  0  0  0  0
   -1.1607   -1.4506    3.7554 H   0  0  0  0  0  0  0  0  0  0  0  0
   -1.1452   -3.5853    2.5360 H   0  0  0  0  0  0  0  0  0  0  0  0
   -0.6841   -2.6967    0.9861 H   0  0  0  0  0  0  0  0  0  0  0  0
    0.2495    0.6269    1.7494 C   0  0  0  0  0  0  0  0  0  0  0  0
    0.2495    0.6269    0.2456 C   0  0  0  0  0  0  0  0  0  0  0  0
    0.2495    1.8212   -0.4684 C   0  0  0  0  0  3  0  0  0  0  0  0
    0.2799    1.8246   -1.8544 C   0  0  0  0  0  0  0  0  0  0  0  0
    0.3095    0.6276   -2.5534 C   0  0  0  0  0  0  0  0  0  0  0  0
    0.3063   -0.5698   -1.8544 C   0  0  0  0  0  0  0  0  0  0  0  0
    0.2758   -0.5671   -0.4684 C   0  0  0  0  0  0  0  0  0  0  0  0
   -0.3404   -0.4398    2.2254 H   0  0  0  0  0  0  0  0  0  0  0  0
    1.2717    0.6381    2.1361 H   0  0  0  0  0  0  0  0  0  0  0  0
   -0.2615    1.5048    2.1461 H   0  0  0  0  0  0  0  0  0  0  0  0
    0.2229    2.7623    0.0694 H   0  0  0  0  0  0  0  0  0  0  0  0
    0.2773    2.7658   -2.3901 H   0  0  0  0  0  0  0  0  0  0  0  0
    0.3306    0.6278   -3.6358 H   0  0  0  0  0  0  0  0  0  0  0  0
    0.3244   -1.5109   -2.3901 H   0  0  0  0  0  0  0  0  0  0  0  0
    0.2700   -1.5086    0.0694 H   0  0  0  0  0  0  0  0  0  0  0  0
  1  2  2  3
  1  3  1  0
  1 13  1  0
  2  4  1  0
  2  5  1  0
  6  7  2  3
  6 14  1  0
  6 15  1  0
  7  8  1  0
  7 12  1  0
  8  9  1  0
  8 16  1  0
  9 10  2  0
  9 17  1  0
 10 11  1  0
 10 18  1  0
 11 12  2  0
 11 19  1  0
 12 20  1  0
M  RAD  1   8   2
M  END
>  <reaction>  (18) 
rxn_1450

>  <mol_properties>  (18) 
{"0": {"label": "*3", "atom_type": "Cd"}, "1": {"label": "*4", "atom_type": "Cd"}, "5": {"label": "*1", "atom_type": "Cs"}, "6": {"label": "*0", "atom_type": "Cd"}, "12": {"label": "*2", "atom_type": "H0"}}

>  <type>  (18) 
unop_14

>  <geom_source>  (18) 
gaussian_log

$$$$
