
     RDKit          3D

 15 14  0  0  0  0  0  0  0  0999 V2000
   -0.6986    1.3249   -0.1641 C   0  0  0  0  0  0  0  0  0  0  0  0
   -0.2590   -0.0344    0.3671 C   0  0  0  0  0  0  0  0  0  0  0  0
   -0.4734   -0.1429    1.8733 C   0  0  0  0  0  0  0  0  0  0  0  0
   -0.9841   -1.1722   -0.3462 C   0  0  0  0  0  0  0  0  0  0  0  0
   -0.7805   -1.1911   -1.7444 O   0  0  0  0  0  0  0  0  0  0  0  0
   -0.1246    2.1306    0.2976 H   0  0  0  0  0  0  0  0  0  0  0  0
   -1.7557    1.4964    0.0581 H   0  0  0  0  0  0  0  0  0  0  0  0
   -0.5709    1.3852   -1.2449 H   0  0  0  0  0  0  0  0  0  0  0  0
    0.8141   -0.1541    0.1667 H   0  0  0  0  0  0  0  0  0  0  0  0
   -1.5346   -0.0466    2.1192 H   0  0  0  0  0  0  0  0  0  0  0  0
    0.0611    0.6480    2.4019 H   0  0  0  0  0  0  0  0  0  0  0  0
   -0.1249   -1.1023    2.2618 H   0  0  0  0  0  0  0  0  0  0  0  0
   -0.6918   -2.1316    0.1011 H   0  0  0  0  0  0  0  0  0  0  0  0
   -2.0629   -1.0627   -0.2056 H   0  0  0  0  0  0  0  0  0  0  0  0
    0.1528   -1.3298   -1.9125 H   0  0  0  0  0  0  0  0  0  0  0  0
  1  2  1  0
  1  6  1  0
  1  7  1  0
  1  8  1  0
  2  3  1  0
  2  4  1  0
  2  9  1  0
  3 10  1  0
  3 11  1  0
  3 12  1  0
  4  5  1  0
  4 13  1  0
  4 14  1  0
  5 15  1  0
M  END
>  <reaction>  (1) 
rxn_424

>  <mol_properties>  (1) 
{"1": {"label": "donator", "atom_type": "Cs"}, "8": {"label": "d_hydrogen", "atom_type": "H0"}}

>  <type>  (1) 
r1h

$$$$

     RDKit          3D

  9  8  0  0  0  0  0  0  0  0999 V2000
   -1.1429   -0.0056    0.0357 C   0  0  0  0  0  0  0  0  0  0  0  0
    0.2348   -0.4846   -0.1988 C   0  0  0  0  0  0  0  0  0  0  0  0
    1.3889    0.3067    0.0768 C   0  0  0  0  0  0  0  0  0  0  0  0
    1.3416    1.4450    0.5289 O   0  0  0  0  0  1  0  0  0  0  0  0
   -1.7198   -0.0230   -0.8945 H   0  0  0  0  0  0  0  0  0  0  0  0
   -1.1399    1.0063    0.4362 H   0  0  0  0  0  0  0  0  0  0  0  0
   -1.6667   -0.6673    0.7330 H   0  0  0  0  0  0  0  0  0  0  0  0
    0.3900   -1.4812   -0.5984 H   0  0  0  0  0  0  0  0  0  0  0  0
    2.3646   -0.1624   -0.1407 H   0  0  0  0  0  0  0  0  0  0  0  0
  1  2  1  0
  1  5  1  0
  1  6  1  0
  1  7  1  0
  2  3  2  3
  2  8  1  0
  3  4  1  0
  3  9  1  0
M  RAD  1   4   2
M  END
>  <reaction>  (2) 
rxn_424

>  <mol_properties>  (2) 
{"1": {"label": "acceptor", "atom_type": "Cs"}}

>  <type>  (2) 
r2

$$$$

     RDKit          3D

 10  9  0  0  0  0  0  0  0  0999 V2000
   -1.1238    0.2714    0.2496 C   0  0  0  0  0  0  0  0  0  0  0  0
    0.0881   -0.5850   -0.0680 C   0  0  0  0  0  0  0  0  0  0  0  0
   -0.0512   -1.4242   -1.3070 C   0  0  0  0  0  0  0  0  0  0  0  0
   -1.0187   -1.4480   -2.0158 O   0  0  0  0  0  0  0  0  0  0  0  0
   -2.0096   -0.3470    0.3939 H   0  0  0  0  0  0  0  0  0  0  0  0
   -0.9564    0.8523    1.1567 H   0  0  0  0  0  0  0  0  0  0  0  0
   -1.3376    0.9606   -0.5673 H   0  0  0  0  0  0  0  0  0  0  0  0
    0.3267   -1.2715    0.7528 H   0  0  0  0  0  0  0  0  0  0  0  0
    0.9917    0.0222   -0.1983 H   0  0  0  0  0  0  0  0  0  0  0  0
    0.8330   -2.0534   -1.5447 H   0  0  0  0  0  0  0  0  0  0  0  0
  1  2  1  0
  1  5  1  0
  1  6  1  0
  1  7  1  0
  2  3  1  0
  2  8  1  0
  2  9  1  0
  3  4  2  0
  3 10  1  0
M  END
>  <reaction>  (3) 
rxn_424

>  <mol_properties>  (3) 
{"0": {"label": "a_hydrogen", "atom_type": "H0"}, "2": {"label": "acceptor", "atom_type": "Cs"}}

>  <type>  (3) 
r2h

$$$$

     RDKit          3D

 24 22  0  0  0  0  0  0  0  0999 V2000
   -0.5793    1.4505   -1.8058 C   0  0  0  0  0  0  0  0  0  0  0  0
   -0.8629    1.1733   -0.3572 C   0  0  0  0  0  3  0  0  0  0  0  0
   -1.1518    2.3762    0.4978 C   0  0  0  0  0  0  0  0  0  0  0  0
   -1.7680   -0.0105   -0.0894 C   0  0  0  0  0  0  0  0  0  0  0  0
   -1.3756   -1.1913   -0.7386 O   0  0  0  0  0  0  0  0  0  0  0  0
    0.2359    2.1673   -1.9230 H   0  0  0  0  0  0  0  0  0  0  0  0
   -1.4670    1.8823   -2.2848 H   0  0  0  0  0  0  0  0  0  0  0  0
   -0.3291    0.5335   -2.3376 H   0  0  0  0  0  0  0  0  0  0  0  0
    0.3488    0.7091    0.1622 H   0  0  0  0  0  0  0  0  0  0  0  0
   -2.1258    2.8081    0.2391 H   0  0  0  0  0  0  0  0  0  0  0  0
   -0.4015    3.1555    0.3529 H   0  0  0  0  0  0  0  0  0  0  0  0
   -1.1802    2.1175    1.5589 H   0  0  0  0  0  0  0  0  0  0  0  0
   -1.8560   -0.1631    0.9941 H   0  0  0  0  0  0  0  0  0  0  0  0
   -2.7736    0.2378   -0.4548 H   0  0  0  0  0  0  0  0  0  0  0  0
   -0.7239   -1.6404   -0.1819 H   0  0  0  0  0  0  0  0  0  0  0  0
    2.0671   -0.3907   -0.7184 C   0  0  0  0  0  0  0  0  0  0  0  0
    1.4751    0.1703    0.5528 C   0  0  0  0  0  0  0  0  0  0  0  0
    1.0040   -0.7719    1.5621 C   0  0  0  0  0  0  0  0  0  0  0  0
    0.5436   -1.8726    1.3137 O   0  0  0  0  0  0  0  0  0  0  0  0
    2.2164    0.3988   -1.4551 H   0  0  0  0  0  0  0  0  0  0  0  0
    1.4124   -1.1444   -1.1534 H   0  0  0  0  0  0  0  0  0  0  0  0
    3.0351   -0.8574   -0.5223 H   0  0  0  0  0  0  0  0  0  0  0  0
    2.0134    1.0149    0.9801 H   0  0  0  0  0  0  0  0  0  0  0  0
    1.0182   -0.4130    2.6091 H   0  0  0  0  0  0  0  0  0  0  0  0
  1  2  1  0
  1  6  1  0
  1  7  1  0
  1  8  1  0
  2  3  1  0
  2  4  1  0
  3 10  1  0
  3 11  1  0
  3 12  1  0
  4  5  1  0
  4 13  1  0
  4 14  1  0
  5 15  1  0
  9 17  1  0
 16 17  1  0
 16 20  1  0
 16 21  1  0
 16 22  1  0
 17 18  1  0
 17 23  1  0
 18 19  2  0
 18 24  1  0
M  RAD  1   2   2
M  END
>  <reaction>  (4) 
rxn_424

>  <mol_properties>  (4) 
{"1": {"label": "*3", "atom_type": "Cs"}, "3": {"label": "*4", "atom_type": "Cs"}, "8": {"label": "*2", "atom_type": "H0"}, "16": {"label": "*1", "atom_type": "Cs"}, "17": {"label": "*0", "atom_type": "CO"}}

>  <type>  (4) 
ts

$$$$

     RDKit          3D

 24 22  0  0  0  0  0  0  0  0999 V2000
   -1.0676    0.9086   -1.8601 C   0  0  0  0  0  0  0  0  0  0  0  0
   -1.0676    0.9086   -0.3360 C   0  0  0  0  0  3  0  0  0  0  0  0
   -1.0676    2.3274    0.2239 C   0  0  0  0  0  0  0  0  0  0  0  0
   -2.2551    0.1282    0.2209 C   0  0  0  0  0  0  0  0  0  0  0  0
   -2.2939   -1.2230   -0.1908 O   0  0  0  0  0  0  0  0  0  0  0  0
   -0.1779    1.4052   -2.2522 H   0  0  0  0  0  0  0  0  0  0  0  0
   -1.9438    1.4413   -2.2406 H   0  0  0  0  0  0  0  0  0  0  0  0
   -1.0980   -0.1073   -2.2538 H   0  0  0  0  0  0  0  0  0  0  0  0
    0.0279    0.3056    0.0797 H   0  0  0  0  0  0  0  0  0  0  0  0
   -1.9709    2.8624   -0.0824 H   0  0  0  0  0  0  0  0  0  0  0  0
   -0.2090    2.8921   -0.1431 H   0  0  0  0  0  0  0  0  0  0  0  0
   -1.0303    2.3298    1.3154 H   0  0  0  0  0  0  0  0  0  0  0  0
   -2.2602    0.1998    1.3167 H   0  0  0  0  0  0  0  0  0  0  0  0
   -3.1863    0.5742   -0.1388 H   0  0  0  0  0  0  0  0  0  0  0  0
   -1.5112   -1.6639    0.1435 H   0  0  0  0  0  0  0  0  0  0  0  0
    1.9828    0.6230    1.3410 C   0  0  0  0  0  0  0  0  0  0  0  0
    1.1216   -0.2964    0.4949 C   0  0  0  0  0  0  0  0  0  0  0  0
    1.8462   -1.4904   -0.0604 C   0  0  0  0  0  0  0  0  0  0  0  0
    3.0058   -1.7369    0.1229 O   0  0  0  0  0  0  0  0  0  0  0  0
    1.3974    1.4650    1.7106 H   0  0  0  0  0  0  0  0  0  0  0  0
    2.8206    1.0122    0.7626 H   0  0  0  0  0  0  0  0  0  0  0  0
    2.3978    0.0891    2.1958 H   0  0  0  0  0  0  0  0  0  0  0  0
    0.2638   -0.6820    1.0584 H   0  0  0  0  0  0  0  0  0  0  0  0
    1.2209   -2.1672   -0.6808 H   0  0  0  0  0  0  0  0  0  0  0  0
  1  2  1  0
  1  6  1  0
  1  7  1  0
  1  8  1  0
  2  3  1  0
  2  4  1  0
  3 10  1  0
  3 11  1  0
  3 12  1  0
  4  5  1  0
  4 13  1  0
  4 14  1  0
  5 15  1  0
  9 17  1  0
 16 17  1  0
 16 20  1  0
 16 21  1  0
 16 22  1  0
 17 18  1  0
 17 23  1  0
 18 19  2  0
 18 24  1  0
M  RAD  1   2   2
M  END
>  <reaction>  (5) 
rxn_424

>  <mol_properties>  (5) 
{"1": {"label": "*3", "atom_type": "Cs"}, "3": {"label": "*4", "atom_type": "Cs"}, "8": {"label": "*2", "atom_type": "H0"}, "16": {"label": "*1", "atom_type": "Cs"}, "17": {"label": "*0", "atom_type": "CO"}}

>  <type>  (5) 
unop_1

>  <geom_source>  (5) 
Heuristics

$$$$

     RDKit          3D

 24 22  0  0  0  0  0  0  0  0999 V2000
   -0.8733    1.1070   -1.8556 C   0  0  0  0  0  0  0  0  0  0  0  0
   -0.8733    1.1070   -0.3315 C   0  0  0  0  0  3  0  0  0  0  0  0
   -0.8733    2.5258    0.2284 C   0  0  0  0  0  0  0  0  0  0  0  0
   -2.0608    0.3267    0.2254 C   0  0  0  0  0  0  0  0  0  0  0  0
   -2.0996   -1.0246   -0.1863 O   0  0  0  0  0  0  0  0  0  0  0  0
    0.0164    1.6036   -2.2477 H   0  0  0  0  0  0  0  0  0  0  0  0
   -1.7495    1.6397   -2.2361 H   0  0  0  0  0  0  0  0  0  0  0  0
   -0.9037    0.0911   -2.2493 H   0  0  0  0  0  0  0  0  0  0  0  0
    0.2222    0.5041    0.0842 H   0  0  0  0  0  0  0  0  0  0  0  0
   -1.7765    3.0608   -0.0779 H   0  0  0  0  0  0  0  0  0  0  0  0
   -0.0147    3.0905   -0.1386 H   0  0  0  0  0  0  0  0  0  0  0  0
   -0.8360    2.5282    1.3199 H   0  0  0  0  0  0  0  0  0  0  0  0
   -2.0659    0.3982    1.3212 H   0  0  0  0  0  0  0  0  0  0  0  0
   -2.9920    0.7726   -0.1343 H   0  0  0  0  0  0  0  0  0  0  0  0
   -1.3169   -1.4654    0.1480 H   0  0  0  0  0  0  0  0  0  0  0  0
    2.4606    0.0764   -0.4816 C   0  0  0  0  0  0  0  0  0  0  0  0
    1.3159   -0.0980    0.4994 C   0  0  0  0  0  0  0  0  0  0  0  0
    1.2152   -1.4724    1.0992 C   0  0  0  0  0  0  0  0  0  0  0  0
    1.9538   -2.3852    0.8536 O   0  0  0  0  0  0  0  0  0  0  0  0
    2.4757    1.0920   -0.8774 H   0  0  0  0  0  0  0  0  0  0  0  0
    2.3664   -0.6181   -1.3163 H   0  0  0  0  0  0  0  0  0  0  0  0
    3.4184   -0.1210   -0.0004 H   0  0  0  0  0  0  0  0  0  0  0  0
    1.3871    0.6069    1.3361 H   0  0  0  0  0  0  0  0  0  0  0  0
    0.3790   -1.6062    1.8182 H   0  0  0  0  0  0  0  0  0  0  0  0
  1  2  1  0
  1  6  1  0
  1  7  1  0
  1  8  1  0
  2  3  1  0
  2  4  1  0
  3 10  1  0
  3 11  1  0
  3 12  1  0
  4  5  1  0
  4 13  1  0
  4 14  1  0
  5 15  1  0
  9 17  1  0
 16 17  1  0
 16 20  1  0
 16 21  1  0
 16 22  1  0
 17 18  1  0
 17 23  1  0
 18 19  2  0
 18 24  1  0
M  RAD  1   2   2
M  END
>  <reaction>  (6) 
rxn_424

>  <mol_properties>  (6) 
{"1": {"label": "*3", "atom_type": "Cs"}, "3": {"label": "*4", "atom_type": "Cs"}, "8": {"label": "*2", "atom_type": "H0"}, "16": {"label": "*1", "atom_type": "Cs"}, "17": {"label": "*0", "atom_type": "CO"}}

>  <type>  (6) 
unop_2

>  <geom_source>  (6) 
Heuristics

$$$$

     RDKit          3D

 24 22  0  0  0  0  0  0  0  0999 V2000
   -1.1077    0.7762   -1.8535 C   0  0  0  0  0  0  0  0  0  0  0  0
   -1.1077    0.7762   -0.3293 C   0  0  0  0  0  3  0  0  0  0  0  0
   -1.1077    2.1949    0.2306 C   0  0  0  0  0  0  0  0  0  0  0  0
   -2.2952   -0.0042    0.2276 C   0  0  0  0  0  0  0  0  0  0  0  0
   -2.3340   -1.3555   -0.1841 O   0  0  0  0  0  0  0  0  0  0  0  0
   -0.2180    1.2727   -2.2455 H   0  0  0  0  0  0  0  0  0  0  0  0
   -1.9839    1.3089   -2.2339 H   0  0  0  0  0  0  0  0  0  0  0  0
   -1.1381   -0.2398   -2.2471 H   0  0  0  0  0  0  0  0  0  0  0  0
   -0.0122    0.1732    0.0864 H   0  0  0  0  0  0  0  0  0  0  0  0
   -2.0109    2.7299   -0.0757 H   0  0  0  0  0  0  0  0  0  0  0  0
   -0.2491    2.7596   -0.1364 H   0  0  0  0  0  0  0  0  0  0  0  0
   -1.0704    2.1973    1.3221 H   0  0  0  0  0  0  0  0  0  0  0  0
   -2.3003    0.0673    1.3234 H   0  0  0  0  0  0  0  0  0  0  0  0
   -3.2264    0.4417   -0.1321 H   0  0  0  0  0  0  0  0  0  0  0  0
   -1.5513   -1.7963    0.1502 H   0  0  0  0  0  0  0  0  0  0  0  0
    1.5513    0.1170    1.8373 C   0  0  0  0  0  0  0  0  0  0  0  0
    1.0815   -0.4289    0.5015 C   0  0  0  0  0  0  0  0  0  0  0  0
    2.1825   -0.9490   -0.3794 C   0  0  0  0  0  0  0  0  0  0  0  0
    3.3475   -0.9530   -0.0935 O   0  0  0  0  0  0  0  0  0  0  0  0
    0.7058    0.4762    2.4242 H   0  0  0  0  0  0  0  0  0  0  0  0
    2.2492    0.9422    1.6962 H   0  0  0  0  0  0  0  0  0  0  0  0
    2.0683   -0.6519    2.4113 H   0  0  0  0  0  0  0  0  0  0  0  0
    0.3644   -1.2486    0.6273 H   0  0  0  0  0  0  0  0  0  0  0  0
    1.8447   -1.3500   -1.3588 H   0  0  0  0  0  0  0  0  0  0  0  0
  1  2  1  0
  1  6  1  0
  1  7  1  0
  1  8  1  0
  2  3  1  0
  2  4  1  0
  3 10  1  0
  3 11  1  0
  3 12  1  0
  4  5  1  0
  4 13  1  0
  4 14  1  0
  5 15  1  0
  9 17  1  0
 16 17  1  0
 16 20  1  0
 16 21  1  0
 16 22  1  0
 17 18  1  0
 17 23  1  0
 18 19  2  0
 18 24  1  0
M  RAD  1   2   2
M  END
>  <reaction>  (7) 
rxn_424

>  <mol_properties>  (7) 
{"1": {"label": "*3", "atom_type": "Cs"}, "3": {"label": "*4", "atom_type": "Cs"}, "8": {"label": "*2", "atom_type": "H0"}, "16": {"label": "*1", "atom_type": "Cs"}, "17": {"label": "*0", "atom_type": "CO"}}

>  <type>  (7) 
unop_3

>  <geom_source>  (7) 
Heuristics

$$$$

     RDKit          3D

 24 22  0  0  0  0  0  0  0  0999 V2000
   -0.4792    0.9499   -2.1756 C   0  0  0  0  0  0  0  0  0  0  0  0
   -0.4792    0.9499   -0.6515 C   0  0  0  0  0  3  0  0  0  0  0  0
   -0.4792    2.3686   -0.0916 C   0  0  0  0  0  0  0  0  0  0  0  0
   -1.6667    0.1695   -0.0946 C   0  0  0  0  0  0  0  0  0  0  0  0
   -1.7055   -1.1817   -0.5063 O   0  0  0  0  0  0  0  0  0  0  0  0
    0.4105    1.4464   -2.5677 H   0  0  0  0  0  0  0  0  0  0  0  0
   -1.3555    1.4826   -2.5561 H   0  0  0  0  0  0  0  0  0  0  0  0
   -0.5096   -0.0661   -2.5693 H   0  0  0  0  0  0  0  0  0  0  0  0
    0.6162    0.3469   -0.2357 H   0  0  0  0  0  0  0  0  0  0  0  0
   -1.3825    2.9036   -0.3978 H   0  0  0  0  0  0  0  0  0  0  0  0
    0.3793    2.9333   -0.4586 H   0  0  0  0  0  0  0  0  0  0  0  0
   -0.4419    2.3710    0.9999 H   0  0  0  0  0  0  0  0  0  0  0  0
   -1.6719    0.2411    1.0012 H   0  0  0  0  0  0  0  0  0  0  0  0
   -2.5979    0.6155   -0.4543 H   0  0  0  0  0  0  0  0  0  0  0  0
   -0.9229   -1.6226   -0.1720 H   0  0  0  0  0  0  0  0  0  0  0  0
    1.7834   -1.6891   -0.3120 C   0  0  0  0  0  0  0  0  0  0  0  0
    1.7099   -0.2552    0.1794 C   0  0  0  0  0  0  0  0  0  0  0  0
    1.0185   -0.0863    1.5032 C   0  0  0  0  0  0  0  0  0  0  0  0
    0.5492   -0.9793    2.1522 O   0  0  0  0  0  0  0  0  0  0  0  0
    2.2951   -1.7398   -1.2733 H   0  0  0  0  0  0  0  0  0  0  0  0
    0.7856   -2.1115   -0.4292 H   0  0  0  0  0  0  0  0  0  0  0  0
    2.3209   -2.3165    0.3989 H   0  0  0  0  0  0  0  0  0  0  0  0
    2.7065    0.1896    0.2850 H   0  0  0  0  0  0  0  0  0  0  0  0
    0.9616    0.9613    1.8681 H   0  0  0  0  0  0  0  0  0  0  0  0
  1  2  1  0
  1  6  1  0
  1  7  1  0
  1  8  1  0
  2  3  1  0
  2  4  1  0
  3 10  1  0
  3 11  1  0
  3 12  1  0
  4  5  1  0
  4 13  1  0
  4 14  1  0
  5 15  1  0
  9 17  1  0
 16 17  1  0
 16 20  1  0
 16 21  1  0
 16 22  1  0
 17 18  1  0
 17 23  1  0
 18 19  2  0
 18 24  1  0
M  RAD  1   2   2
M  END
>  <reaction>  (8) 
rxn_424

>  <mol_properties>  (8) 
{"1": {"label": "*3", "atom_type": "Cs"}, "3": {"label": "*4", "atom_type": "Cs"}, "8": {"label": "*2", "atom_type": "H0"}, "16": {"label": "*1", "atom_type": "Cs"}, "17": {"label": "*0", "atom_type": "CO"}}

>  <type>  (8) 
unop_4

>  <geom_source>  (8) 
Heuristics

$$$$

     RDKit          3D

 24 22  0  0  0  0  0  0  0  0999 V2000
   -1.0507    0.5149   -1.9538 C   0  0  0  0  0  0  0  0  0  0  0  0
   -1.0507    0.5149   -0.4297 C   0  0  0  0  0  3  0  0  0  0  0  0
   -1.0507    1.9337    0.1302 C   0  0  0  0  0  0  0  0  0  0  0  0
   -2.2382   -0.2655    0.1272 C   0  0  0  0  0  0  0  0  0  0  0  0
   -2.2770   -1.6167   -0.2845 O   0  0  0  0  0  0  0  0  0  0  0  0
   -0.1610    1.0115   -2.3459 H   0  0  0  0  0  0  0  0  0  0  0  0
   -1.9269    1.0476   -2.3343 H   0  0  0  0  0  0  0  0  0  0  0  0
   -1.0811   -0.5010   -2.3475 H   0  0  0  0  0  0  0  0  0  0  0  0
    0.0448   -0.0881   -0.0139 H   0  0  0  0  0  0  0  0  0  0  0  0
   -1.9539    2.4687   -0.1760 H   0  0  0  0  0  0  0  0  0  0  0  0
   -0.1921    2.4984   -0.2368 H   0  0  0  0  0  0  0  0  0  0  0  0
   -1.0134    1.9361    1.2217 H   0  0  0  0  0  0  0  0  0  0  0  0
   -2.2433   -0.1939    1.2230 H   0  0  0  0  0  0  0  0  0  0  0  0
   -3.1694    0.1805   -0.2325 H   0  0  0  0  0  0  0  0  0  0  0  0
   -1.4943   -2.0575    0.0498 H   0  0  0  0  0  0  0  0  0  0  0  0
    1.2163   -0.7329    1.9161 C   0  0  0  0  0  0  0  0  0  0  0  0
    1.1385   -0.6901    0.4012 C   0  0  0  0  0  0  0  0  0  0  0  0
    2.2937    0.0069   -0.2612 C   0  0  0  0  0  0  0  0  0  0  0  0
    3.2205    0.5023    0.3172 O   0  0  0  0  0  0  0  0  0  0  0  0
    0.3509   -1.2503    2.3306 H   0  0  0  0  0  0  0  0  0  0  0  0
    1.2486    0.2739    2.3323 H   0  0  0  0  0  0  0  0  0  0  0  0
    2.1178   -1.2499    2.2446 H   0  0  0  0  0  0  0  0  0  0  0  0
    1.0871   -1.6962   -0.0315 H   0  0  0  0  0  0  0  0  0  0  0  0
    2.2423    0.0414   -1.3703 H   0  0  0  0  0  0  0  0  0  0  0  0
  1  2  1  0
  1  6  1  0
  1  7  1  0
  1  8  1  0
  2  3  1  0
  2  4  1  0
  3 10  1  0
  3 11  1  0
  3 12  1  0
  4  5  1  0
  4 13  1  0
  4 14  1  0
  5 15  1  0
  9 17  1  0
 16 17  1  0
 16 20  1  0
 16 21  1  0
 16 22  1  0
 17 18  1  0
 17 23  1  0
 18 19  2  0
 18 24  1  0
M  RAD  1   2   2
M  END
>  <reaction>  (9) 
rxn_424

>  <mol_properties>  (9) 
{"1": {"label": "*3", "atom_type": "Cs"}, "3": {"label": "*4", "atom_type": "Cs"}, "8": {"label": "*2", "atom_type": "H0"}, "16": {"label": "*1", "atom_type": "Cs"}, "17": {"label": "*0", "atom_type": "CO"}}

>  <type>  (9) 
unop_5

>  <geom_source>  (9) 
Heuristics

$$$$

     RDKit          3D

 24 22  0  0  0  0  0  0  0  0999 V2000
   -0.4927    0.7540   -2.2567 C   0  0  0  0  0  0  0  0  0  0  0  0
   -0.4927    0.7540   -0.7326 C   0  0  0  0  0  3  0  0  0  0  0  0
   -0.4927    2.1727   -0.1727 C   0  0  0  0  0  0  0  0  0  0  0  0
   -1.6802   -0.0264   -0.1757 C   0  0  0  0  0  0  0  0  0  0  0  0
   -1.7191   -1.3776   -0.5874 O   0  0  0  0  0  0  0  0  0  0  0  0
    0.3970    1.2505   -2.6488 H   0  0  0  0  0  0  0  0  0  0  0  0
   -1.3690    1.2867   -2.6372 H   0  0  0  0  0  0  0  0  0  0  0  0
   -0.5231   -0.2619   -2.6504 H   0  0  0  0  0  0  0  0  0  0  0  0
    0.6027    0.1510   -0.3169 H   0  0  0  0  0  0  0  0  0  0  0  0
   -1.3960    2.7078   -0.4790 H   0  0  0  0  0  0  0  0  0  0  0  0
    0.3658    2.7374   -0.5397 H   0  0  0  0  0  0  0  0  0  0  0  0
   -0.4554    2.1752    0.9188 H   0  0  0  0  0  0  0  0  0  0  0  0
   -1.6854    0.0452    0.9201 H   0  0  0  0  0  0  0  0  0  0  0  0
   -2.6114    0.4196   -0.5354 H   0  0  0  0  0  0  0  0  0  0  0  0
   -0.9364   -1.8185   -0.2531 H   0  0  0  0  0  0  0  0  0  0  0  0
    1.4841   -1.9431    0.2756 C   0  0  0  0  0  0  0  0  0  0  0  0
    1.6964   -0.4510    0.0983 C   0  0  0  0  0  0  0  0  0  0  0  0
    1.2307    0.3853    1.2569 C   0  0  0  0  0  0  0  0  0  0  0  0
    0.7281   -0.0456    2.2573 O   0  0  0  0  0  0  0  0  0  0  0  0
    1.8425   -2.4885   -0.5976 H   0  0  0  0  0  0  0  0  0  0  0  0
    0.4276   -2.1715    0.4158 H   0  0  0  0  0  0  0  0  0  0  0  0
    2.0154   -2.3097    1.1538 H   0  0  0  0  0  0  0  0  0  0  0  0
    2.7533   -0.2074   -0.0619 H   0  0  0  0  0  0  0  0  0  0  0  0
    1.3835    1.4786    1.1329 H   0  0  0  0  0  0  0  0  0  0  0  0
  1  2  1  0
  1  6  1  0
  1  7  1  0
  1  8  1  0
  2  3  1  0
  2  4  1  0
  3 10  1  0
  3 11  1  0
  3 12  1  0
  4  5  1  0
  4 13  1  0
  4 14  1  0
  5 15  1  0
  9 17  1  0
 16 17  1  0
 16 20  1  0
 16 21  1  0
 16 22  1  0
 17 18  1  0
 17 23  1  0
 18 19  2  0
 18 24  1  0
M  RAD  1   2   2
M  END
>  <reaction>  (10) 
rxn_424

>  <mol_properties>  (10) 
{"1": {"label": "*3", "atom_type": "Cs"}, "3": {"label": "*4", "atom_type": "Cs"}, "8": {"label": "*2", "atom_type": "H0"}, "16": {"label": "*1", "atom_type": "Cs"}, "17": {"label": "*0", "atom_type": "CO"}}

>  <type>  (10) 
unop_6

>  <geom_source>  (10) 
Heuristics

$$$$

     RDKit          3D

 24 22  0  0  0  0  0  0  0  0999 V2000
   -0.5971    0.5544   -2.2589 C   0  0  0  0  0  0  0  0  0  0  0  0
   -0.5971    0.5544   -0.7348 C   0  0  0  0  0  3  0  0  0  0  0  0
   -0.5971    1.9731   -0.1749 C   0  0  0  0  0  0  0  0  0  0  0  0
   -1.7846   -0.2260   -0.1779 C   0  0  0  0  0  0  0  0  0  0  0  0
   -1.8234   -1.5772   -0.5896 O   0  0  0  0  0  0  0  0  0  0  0  0
    0.2927    1.0509   -2.6510 H   0  0  0  0  0  0  0  0  0  0  0  0
   -1.4733    1.0871   -2.6394 H   0  0  0  0  0  0  0  0  0  0  0  0
   -0.6275   -0.4616   -2.6526 H   0  0  0  0  0  0  0  0  0  0  0  0
    0.4984   -0.0486   -0.3190 H   0  0  0  0  0  0  0  0  0  0  0  0
   -1.5003    2.5081   -0.4811 H   0  0  0  0  0  0  0  0  0  0  0  0
    0.2615    2.5378   -0.5419 H   0  0  0  0  0  0  0  0  0  0  0  0
   -0.5598    1.9755    0.9166 H   0  0  0  0  0  0  0  0  0  0  0  0
   -1.7897   -0.1544    0.9179 H   0  0  0  0  0  0  0  0  0  0  0  0
   -2.7158    0.2200   -0.5376 H   0  0  0  0  0  0  0  0  0  0  0  0
   -1.0407   -2.0181   -0.2553 H   0  0  0  0  0  0  0  0  0  0  0  0
    1.2760   -1.8701    0.9422 C   0  0  0  0  0  0  0  0  0  0  0  0
    1.5921   -0.6507    0.0961 C   0  0  0  0  0  0  0  0  0  0  0  0
    1.5274    0.6547    0.8382 C   0  0  0  0  0  0  0  0  0  0  0  0
    1.2536    0.7718    2.0002 O   0  0  0  0  0  0  0  0  0  0  0  0
    1.3408   -2.7795    0.3446 H   0  0  0  0  0  0  0  0  0  0  0  0
    0.2720   -1.8029    1.3611 H   0  0  0  0  0  0  0  0  0  0  0  0
    1.9718   -1.9550    1.7769 H   0  0  0  0  0  0  0  0  0  0  0  0
    2.5930   -0.7122   -0.3472 H   0  0  0  0  0  0  0  0  0  0  0  0
    1.7579    1.5512    0.2239 H   0  0  0  0  0  0  0  0  0  0  0  0
  1  2  1  0
  1  6  1  0
  1  7  1  0
  1  8  1  0
  2  3  1  0
  2  4  1  0
  3 10  1  0
  3 11  1  0
  3 12  1  0
  4  5  1  0
  4 13  1  0
  4 14  1  0
  5 15  1  0
  9 17  1  0
 16 17  1  0
 16 20  1  0
 16 21  1  0
 16 22  1  0
 17 18  1  0
 17 23  1  0
 18 19  2  0
 18 24  1  0
M  RAD  1   2   2
M  END
>  <reaction>  (11) 
rxn_424

>  <mol_properties>  (11) 
{"1": {"label": "*3", "atom_type": "Cs"}, "3": {"label": "*4", "atom_type": "Cs"}, "8": {"label": "*2", "atom_type": "H0"}, "16": {"label": "*1", "atom_type": "Cs"}, "17": {"label": "*0", "atom_type": "CO"}}

>  <type>  (11) 
unop_7

>  <geom_source>  (11) 
Heuristics

$$$$

     RDKit          3D

 24 22  0  0  0  0  0  0  0  0999 V2000
   -1.0314    0.9698   -1.8628 C   0  0  0  0  0  0  0  0  0  0  0  0
   -1.0314    0.9698   -0.3387 C   0  0  0  0  0  3  0  0  0  0  0  0
   -1.0314    2.3886    0.2212 C   0  0  0  0  0  0  0  0  0  0  0  0
   -2.2189    0.1894    0.2183 C   0  0  0  0  0  0  0  0  0  0  0  0
   -2.2577   -1.1618   -0.1935 O   0  0  0  0  0  0  0  0  0  0  0  0
   -0.1417    1.4664   -2.2549 H   0  0  0  0  0  0  0  0  0  0  0  0
   -1.9077    1.5025   -2.2433 H   0  0  0  0  0  0  0  0  0  0  0  0
   -1.0618   -0.0461   -2.2565 H   0  0  0  0  0  0  0  0  0  0  0  0
    0.0640    0.3668    0.0771 H   0  0  0  0  0  0  0  0  0  0  0  0
   -1.9347    2.9236   -0.0850 H   0  0  0  0  0  0  0  0  0  0  0  0
   -0.1728    2.9532   -0.1458 H   0  0  0  0  0  0  0  0  0  0  0  0
   -0.9941    2.3910    1.3127 H   0  0  0  0  0  0  0  0  0  0  0  0
   -2.2241    0.2610    1.3141 H   0  0  0  0  0  0  0  0  0  0  0  0
   -3.1501    0.6354   -0.1415 H   0  0  0  0  0  0  0  0  0  0  0  0
   -1.4750   -1.6027    0.1408 H   0  0  0  0  0  0  0  0  0  0  0  0
    2.3049    0.7424    0.6696 C   0  0  0  0  0  0  0  0  0  0  0  0
    1.1578   -0.2352    0.4922 C   0  0  0  0  0  0  0  0  0  0  0  0
    1.5793   -1.6726    0.3693 C   0  0  0  0  0  0  0  0  0  0  0  0
    2.7136   -2.0614    0.4028 O   0  0  0  0  0  0  0  0  0  0  0  0
    1.9304    1.7628    0.7519 H   0  0  0  0  0  0  0  0  0  0  0  0
    2.9914    0.6935   -0.1755 H   0  0  0  0  0  0  0  0  0  0  0  0
    2.8774    0.5110    1.5677 H   0  0  0  0  0  0  0  0  0  0  0  0
    0.4484   -0.1848    1.3267 H   0  0  0  0  0  0  0  0  0  0  0  0
    0.7438   -2.3931    0.2392 H   0  0  0  0  0  0  0  0  0  0  0  0
  1  2  1  0
  1  6  1  0
  1  7  1  0
  1  8  1  0
  2  3  1  0
  2  4  1  0
  3 10  1  0
  3 11  1  0
  3 12  1  0
  4  5  1  0
  4 13  1  0
  4 14  1  0
  5 15  1  0
  9 17  1  0
 16 17  1  0
 16 20  1  0
 16 21  1  0
 16 22  1  0
 17 18  1  0
 17 23  1  0
 18 19  2  0
 18 24  1  0
M  RAD  1   2   2
M  END
>  <reaction>  (12) 
rxn_424

>  <mol_properties>  (12) 
{"1": {"label": "*3", "atom_type": "Cs"}, "3": {"label": "*4", "atom_type": "Cs"}, "8": {"label": "*2", "atom_type": "H0"}, "16": {"label": "*1", "atom_type": "Cs"}, "17": {"label": "*0", "atom_type": "CO"}}

>  <type>  (12) 
unop_8

>  <geom_source>  (12) 
Heuristics

$$$$

     RDKit          3D

 24 22  0  0  0  0  0  0  0  0999 V2000
   -0.5593    1.0960   -2.0474 C   0  0  0  0  0  0  0  0  0  0  0  0
   -0.5593    1.0960   -0.5233 C   0  0  0  0  0  3  0  0  0  0  0  0
   -0.5593    2.5147    0.0366 C   0  0  0  0  0  0  0  0  0  0  0  0
   -1.7468    0.3156    0.0336 C   0  0  0  0  0  0  0  0  0  0  0  0
   -1.7856   -1.0356   -0.3781 O   0  0  0  0  0  0  0  0  0  0  0  0
    0.3304    1.5925   -2.4395 H   0  0  0  0  0  0  0  0  0  0  0  0
   -1.4356    1.6287   -2.4279 H   0  0  0  0  0  0  0  0  0  0  0  0
   -0.5897    0.0800   -2.4411 H   0  0  0  0  0  0  0  0  0  0  0  0
    0.5361    0.4930   -0.1075 H   0  0  0  0  0  0  0  0  0  0  0  0
   -1.4626    3.0497   -0.2696 H   0  0  0  0  0  0  0  0  0  0  0  0
    0.2993    3.0794   -0.3304 H   0  0  0  0  0  0  0  0  0  0  0  0
   -0.5220    2.5172    1.1281 H   0  0  0  0  0  0  0  0  0  0  0  0
   -1.7520    0.3872    1.1295 H   0  0  0  0  0  0  0  0  0  0  0  0
   -2.6780    0.7616   -0.3261 H   0  0  0  0  0  0  0  0  0  0  0  0
   -1.0029   -1.4765   -0.0438 H   0  0  0  0  0  0  0  0  0  0  0  0
    2.0948   -1.1695   -0.6734 C   0  0  0  0  0  0  0  0  0  0  0  0
    1.6299   -0.1091    0.3076 C   0  0  0  0  0  0  0  0  0  0  0  0
    0.9461   -0.6512    1.5313 C   0  0  0  0  0  0  0  0  0  0  0  0
    0.7610   -1.8148    1.7564 O   0  0  0  0  0  0  0  0  0  0  0  0
    2.5802   -0.7097   -1.5344 H   0  0  0  0  0  0  0  0  0  0  0  0
    1.2544   -1.7658   -1.0284 H   0  0  0  0  0  0  0  0  0  0  0  0
    2.8018   -1.8519   -0.2019 H   0  0  0  0  0  0  0  0  0  0  0  0
    2.4624    0.5111    0.6602 H   0  0  0  0  0  0  0  0  0  0  0  0
    0.6034    0.1204    2.2532 H   0  0  0  0  0  0  0  0  0  0  0  0
  1  2  1  0
  1  6  1  0
  1  7  1  0
  1  8  1  0
  2  3  1  0
  2  4  1  0
  3 10  1  0
  3 11  1  0
  3 12  1  0
  4  5  1  0
  4 13  1  0
  4 14  1  0
  5 15  1  0
  9 17  1  0
 16 17  1  0
 16 20  1  0
 16 21  1  0
 16 22  1  0
 17 18  1  0
 17 23  1  0
 18 19  2  0
 18 24  1  0
M  RAD  1   2   2
M  END
>  <reaction>  (13) 
rxn_424

>  <mol_properties>  (13) 
{"1": {"label": "*3", "atom_type": "Cs"}, "3": {"label": "*4", "atom_type": "Cs"}, "8": {"label": "*2", "atom_type": "H0"}, "16": {"label": "*1", "atom_type": "Cs"}, "17": {"label": "*0", "atom_type": "CO"}}

>  <type>  (13) 
unop_9

>  <geom_source>  (13) 
Heuristics

$$$$

     RDKit          3D

 24 22  0  0  0  0  0  0  0  0999 V2000
   -0.9783    1.0317   -1.8496 C   0  0  0  0  0  0  0  0  0  0  0  0
   -0.9783    1.0317   -0.3255 C   0  0  0  0  0  3  0  0  0  0  0  0
   -0.9783    2.4505    0.2344 C   0  0  0  0  0  0  0  0  0  0  0  0
   -2.1658    0.2513    0.2315 C   0  0  0  0  0  0  0  0  0  0  0  0
   -2.2046   -1.0999   -0.1803 O   0  0  0  0  0  0  0  0  0  0  0  0
   -0.0886    1.5283   -2.2417 H   0  0  0  0  0  0  0  0  0  0  0  0
   -1.8545    1.5644   -2.2301 H   0  0  0  0  0  0  0  0  0  0  0  0
   -1.0087    0.0158   -2.2433 H   0  0  0  0  0  0  0  0  0  0  0  0
    0.1172    0.4287    0.0903 H   0  0  0  0  0  0  0  0  0  0  0  0
   -1.8815    2.9855   -0.0718 H   0  0  0  0  0  0  0  0  0  0  0  0
   -0.1197    3.0152   -0.1326 H   0  0  0  0  0  0  0  0  0  0  0  0
   -0.9410    2.4529    1.3259 H   0  0  0  0  0  0  0  0  0  0  0  0
   -2.1709    0.3229    1.3273 H   0  0  0  0  0  0  0  0  0  0  0  0
   -3.0970    0.6973   -0.1283 H   0  0  0  0  0  0  0  0  0  0  0  0
   -1.4219   -1.5407    0.1540 H   0  0  0  0  0  0  0  0  0  0  0  0
    2.4617    0.5316    0.0140 C   0  0  0  0  0  0  0  0  0  0  0  0
    1.2109   -0.1733    0.5054 C   0  0  0  0  0  0  0  0  0  0  0  0
    1.3880   -1.6424    0.7685 C   0  0  0  0  0  0  0  0  0  0  0  0
    2.4117   -2.2492    0.6174 O   0  0  0  0  0  0  0  0  0  0  0  0
    2.2642    1.5900   -0.1565 H   0  0  0  0  0  0  0  0  0  0  0  0
    2.8149    0.0917   -0.9185 H   0  0  0  0  0  0  0  0  0  0  0  0
    3.2686    0.4437    0.7414 H   0  0  0  0  0  0  0  0  0  0  0  0
    0.8330    0.2702    1.4342 H   0  0  0  0  0  0  0  0  0  0  0  0
    0.4756   -2.1640    1.1285 H   0  0  0  0  0  0  0  0  0  0  0  0
  1  2  1  0
  1  6  1  0
  1  7  1  0
  1  8  1  0
  2  3  1  0
  2  4  1  0
  3 10  1  0
  3 11  1  0
  3 12  1  0
  4  5  1  0
  4 13  1  0
  4 14  1  0
  5 15  1  0
  9 17  1  0
 16 17  1  0
 16 20  1  0
 16 21  1  0
 16 22  1  0
 17 18  1  0
 17 23  1  0
 18 19  2  0
 18 24  1  0
M  RAD  1   2   2
M  END
>  <reaction>  (14) 
rxn_424

>  <mol_properties>  (14) 
{"1": {"label": "*3", "atom_type": "Cs"}, "3": {"label": "*4", "atom_type": "Cs"}, "8": {"label": "*2", "atom_type": "H0"}, "16": {"label": "*1", "atom_type": "Cs"}, "17": {"label": "*0", "atom_type": "CO"}}

>  <type>  (14) 
unop_10

>  <geom_source>  (14) 
Heuristics

$$$$

     RDKit          3D

 24 22  0  0  0  0  0  0  0  0999 V2000
   -0.8002    0.4197   -2.1552 C   0  0  0  0  0  0  0  0  0  0  0  0
   -0.8002    0.4197   -0.6311 C   0  0  0  0  0  3  0  0  0  0  0  0
   -0.8002    1.8385   -0.0712 C   0  0  0  0  0  0  0  0  0  0  0  0
   -1.9877   -0.3607   -0.0742 C   0  0  0  0  0  0  0  0  0  0  0  0
   -2.0265   -1.7119   -0.4859 O   0  0  0  0  0  0  0  0  0  0  0  0
    0.0895    0.9163   -2.5473 H   0  0  0  0  0  0  0  0  0  0  0  0
   -1.6764    0.9524   -2.5357 H   0  0  0  0  0  0  0  0  0  0  0  0
   -0.8306   -0.5962   -2.5489 H   0  0  0  0  0  0  0  0  0  0  0  0
    0.2953   -0.1833   -0.2154 H   0  0  0  0  0  0  0  0  0  0  0  0
   -1.7035    2.3735   -0.3775 H   0  0  0  0  0  0  0  0  0  0  0  0
    0.0584    2.4032   -0.4382 H   0  0  0  0  0  0  0  0  0  0  0  0
   -0.7629    1.8409    1.0203 H   0  0  0  0  0  0  0  0  0  0  0  0
   -1.9928   -0.2891    1.0216 H   0  0  0  0  0  0  0  0  0  0  0  0
   -2.9189    0.0853   -0.4339 H   0  0  0  0  0  0  0  0  0  0  0  0
   -1.2438   -2.1527   -0.1516 H   0  0  0  0  0  0  0  0  0  0  0  0
    1.1791   -1.4743    1.5355 C   0  0  0  0  0  0  0  0  0  0  0  0
    1.3890   -0.7853    0.1998 C   0  0  0  0  0  0  0  0  0  0  0  0
    1.9115    0.6203    0.3006 C   0  0  0  0  0  0  0  0  0  0  0  0
    2.1563    1.1905    1.3272 O   0  0  0  0  0  0  0  0  0  0  0  0
    0.8005   -2.4862    1.3904 H   0  0  0  0  0  0  0  0  0  0  0  0
    0.4663   -0.9235    2.1492 H   0  0  0  0  0  0  0  0  0  0  0  0
    2.1131   -1.5318    2.0942 H   0  0  0  0  0  0  0  0  0  0  0  0
    2.0906   -1.3377   -0.4364 H   0  0  0  0  0  0  0  0  0  0  0  0
    2.0672    1.1299   -0.6742 H   0  0  0  0  0  0  0  0  0  0  0  0
  1  2  1  0
  1  6  1  0
  1  7  1  0
  1  8  1  0
  2  3  1  0
  2  4  1  0
  3 10  1  0
  3 11  1  0
  3 12  1  0
  4  5  1  0
  4 13  1  0
  4 14  1  0
  5 15  1  0
  9 17  1  0
 16 17  1  0
 16 20  1  0
 16 21  1  0
 16 22  1  0
 17 18  1  0
 17 23  1  0
 18 19  2  0
 18 24  1  0
M  RAD  1   2   2
M  END
>  <reaction>  (15) 
rxn_424

>  <mol_properties>  (15) 
{"1": {"label": "*3", "atom_type": "Cs"}, "3": {"label": "*4", "atom_type": "Cs"}, "8": {"label": "*2", "atom_type": "H0"}, "16": {"label": "*1", "atom_type": "Cs"}, "17": {"label": "*0", "atom_type": "CO"}}

>  <type>  (15) 
unop_11

>  <geom_source>  (15) 
Heuristics

$$$$

     RDKit          3D

 24 22  0  0  0  0  0  0  0  0999 V2000
   -0.7135    1.1488   -1.9228 C   0  0  0  0  0  0  0  0  0  0  0  0
   -0.7135    1.1488   -0.3987 C   0  0  0  0  0  3  0  0  0  0  0  0
   -0.7135    2.5675    0.1612 C   0  0  0  0  0  0  0  0  0  0  0  0
   -1.9010    0.3684    0.1582 C   0  0  0  0  0  0  0  0  0  0  0  0
   -1.9398   -0.9829   -0.2535 O   0  0  0  0  0  0  0  0  0  0  0  0
    0.1762    1.6453   -2.3149 H   0  0  0  0  0  0  0  0  0  0  0  0
   -1.5898    1.6815   -2.3033 H   0  0  0  0  0  0  0  0  0  0  0  0
   -0.7439    0.1328   -2.3165 H   0  0  0  0  0  0  0  0  0  0  0  0
    0.3819    0.5458    0.0170 H   0  0  0  0  0  0  0  0  0  0  0  0
   -1.6168    3.1025   -0.1451 H   0  0  0  0  0  0  0  0  0  0  0  0
    0.1451    3.1322   -0.2058 H   0  0  0  0  0  0  0  0  0  0  0  0
   -0.6762    2.5699    1.2527 H   0  0  0  0  0  0  0  0  0  0  0  0
   -1.9062    0.4400    1.2540 H   0  0  0  0  0  0  0  0  0  0  0  0
   -2.8322    0.8144   -0.2015 H   0  0  0  0  0  0  0  0  0  0  0  0
   -1.1572   -1.4237    0.0808 H   0  0  0  0  0  0  0  0  0  0  0  0
    2.3326   -0.5280   -0.7280 C   0  0  0  0  0  0  0  0  0  0  0  0
    1.4756   -0.0563    0.4322 C   0  0  0  0  0  0  0  0  0  0  0  0
    1.0393   -1.1490    1.3673 C   0  0  0  0  0  0  0  0  0  0  0  0
    1.3200   -2.3091    1.2473 O   0  0  0  0  0  0  0  0  0  0  0  0
    2.6130    0.3114   -1.3645 H   0  0  0  0  0  0  0  0  0  0  0  0
    1.7973   -1.2580   -1.3351 H   0  0  0  0  0  0  0  0  0  0  0  0
    3.2428   -1.0082   -0.3689 H   0  0  0  0  0  0  0  0  0  0  0  0
    1.9945    0.6925    1.0422 H   0  0  0  0  0  0  0  0  0  0  0  0
    0.4116   -0.8097    2.2188 H   0  0  0  0  0  0  0  0  0  0  0  0
  1  2  1  0
  1  6  1  0
  1  7  1  0
  1  8  1  0
  2  3  1  0
  2  4  1  0
  3 10  1  0
  3 11  1  0
  3 12  1  0
  4  5  1  0
  4 13  1  0
  4 14  1  0
  5 15  1  0
  9 17  1  0
 16 17  1  0
 16 20  1  0
 16 21  1  0
 16 22  1  0
 17 18  1  0
 17 23  1  0
 18 19  2  0
 18 24  1  0
M  RAD  1   2   2
M  END
>  <reaction>  (16) 
rxn_424

>  <mol_properties>  (16) 
{"1": {"label": "*3", "atom_type": "Cs"}, "3": {"label": "*4", "atom_type": "Cs"}, "8": {"label": "*2", "atom_type": "H0"}, "16": {"label": "*1", "atom_type": "Cs"}, "17": {"label": "*0", "atom_type": "CO"}}

>  <type>  (16) 
unop_12

>  <geom_source>  (16) 
Heuristics

$$$$

     RDKit          3D

 24 22  0  0  0  0  0  0  0  0999 V2000
   -2.9371    0.5326    1.0840 O   0  0  0  0  0  0  0  0  0  0  0  0
    2.6133    2.0506    1.4152 O   0  0  0  0  0  1  0  0  0  0  0  0
    1.5956    0.5258   -0.0779 C   0  0  0  0  0  0  0  0  0  0  0  0
   -1.5401    0.6673    1.0794 C   0  0  0  0  0  0  0  0  0  0  0  0
    2.5022   -0.4030   -0.8743 C   0  0  0  0  0  0  0  0  0  0  0  0
   -1.1841   -1.7157    0.2544 C   0  0  0  0  0  0  0  0  0  0  0  0
   -1.2672    0.1923   -1.4112 C   0  0  0  0  0  0  0  0  0  0  0  0
   -0.8971   -0.2318    0.0123 C   0  0  0  0  0  0  0  0  0  0  0  0
    2.2400    0.9050    1.2203 C   0  0  0  0  0  0  0  0  0  0  0  0
    1.3777    1.4346   -0.6805 H   0  0  0  0  0  0  0  0  0  0  0  0
    0.4201   -0.1111    0.1817 H   0  0  0  0  0  0  0  0  0  0  0  0
    2.7013   -1.3320   -0.2986 H   0  0  0  0  0  0  0  0  0  0  0  0
    3.4648    0.1015   -1.1056 H   0  0  0  0  0  0  0  0  0  0  0  0
    2.0038   -0.6766   -1.8277 H   0  0  0  0  0  0  0  0  0  0  0  0
   -1.2430    1.7282    0.9130 H   0  0  0  0  0  0  0  0  0  0  0  0
   -1.1523    0.3763    2.0783 H   0  0  0  0  0  0  0  0  0  0  0  0
   -0.6210   -2.3329   -0.4770 H   0  0  0  0  0  0  0  0  0  0  0  0
   -2.2691   -1.9291    0.1475 H   0  0  0  0  0  0  0  0  0  0  0  0
   -0.8555   -2.0041    1.2751 H   0  0  0  0  0  0  0  0  0  0  0  0
   -0.6827   -0.4028   -2.1440 H   0  0  0  0  0  0  0  0  0  0  0  0
   -2.3500    0.0334   -1.6015 H   0  0  0  0  0  0  0  0  0  0  0  0
   -1.0234    1.2646   -1.5641 H   0  0  0  0  0  0  0  0  0  0  0  0
    2.3940    0.1525    1.9867 H   0  0  0  0  0  0  0  0  0  0  0  0
   -3.2902    1.1747    0.4145 H   0  0  0  0  0  0  0  0  0  0  0  0
  1  4  1  0
  1 24  1  0
  2  9  1  0
  3  5  1  0
  3  9  2  3
  3 10  1  0
  4  8  1  0
  4 15  1  0
  4 16  1  0
  5 12  1  0
  5 13  1  0
  5 14  1  0
  6  8  1  0
  6 17  1  0
  6 18  1  0
  6 19  1  0
  7  8  1  0
  7 20  1  0
  7 21  1  0
  7 22  1  0
  8 11  1  0
  9 23  1  0
M  RAD  1   2   2
M  END
>  <reaction>  (17) 
rxn_424

>  <mol_properties>  (17) 
{"1": {"label": "*3", "atom_type": "Cs"}, "3": {"label": "*4", "atom_type": "Cs"}, "8": {"label": "*2", "atom_type": "H0"}, "16": {"label": "*1", "atom_type": "Cs"}, "17": {"label": "*0", "atom_type": "CO"}}

>  <type>  (17) 
unop_13

>  <geom_source>  (17) 
AutoTST

$$$$
