
     RDKit          3D

  9  8  0  0  0  0  0  0  0  0999 V2000
    1.1303   -0.2933   -0.7510 C   0  0  0  0  0  0  0  0  0  0  0  0
    0.2866    0.4560   -0.0588 C   0  0  0  0  0  0  0  0  0  0  0  0
   -0.9719   -0.0331    0.5823 C   0  0  0  0  0  0  0  0  0  0  0  0
    2.0274    0.1230   -1.1916 H   0  0  0  0  0  0  0  0  0  0  0  0
    0.9532   -1.3530   -0.9023 H   0  0  0  0  0  0  0  0  0  0  0  0
    0.5065    1.5132    0.0659 H   0  0  0  0  0  0  0  0  0  0  0  0
   -0.9526    0.1426    1.6610 H   0  0  0  0  0  0  0  0  0  0  0  0
   -1.1182   -1.1002    0.4106 H   0  0  0  0  0  0  0  0  0  0  0  0
   -1.8412    0.5010    0.1901 H   0  0  0  0  0  0  0  0  0  0  0  0
  1  2  2  3
  1  4  1  0
  1  5  1  0
  2  3  1  0
  2  6  1  0
  3  7  1  0
  3  8  1  0
  3  9  1  0
M  END
>  <reaction>  (1) 
rxn_100

>  <mol_properties>  (1) 
{"2": {"label": "donator", "atom_type": "Cs"}, "6": {"label": "d_hydrogen", "atom_type": "H0"}}

>  <type>  (1) 
r1h

$$$$

     RDKit          3D

  3  2  0  0  0  0  0  0  0  0999 V2000
    0.0002    0.4233    0.0000 N   0  0  0  0  0  2  0  0  0  0  0  0
   -0.8051   -0.2112    0.0000 H   0  0  0  0  0  0  0  0  0  0  0  0
    0.8049   -0.2121    0.0000 H   0  0  0  0  0  0  0  0  0  0  0  0
  1  2  1  0
  1  3  1  0
M  RAD  1   1   2
M  END
>  <reaction>  (2) 
rxn_100

>  <mol_properties>  (2) 
{"0": {"label": "acceptor", "atom_type": "N3s"}}

>  <type>  (2) 
r2

$$$$

     RDKit          3D

  4  3  0  0  0  0  0  0  0  0999 V2000
    0.0006   -0.0009    0.2762 N   0  0  0  0  0  0  0  0  0  0  0  0
   -0.4188    0.8439   -0.0883 H   0  0  0  0  0  0  0  0  0  0  0  0
   -0.5215   -0.7840   -0.0936 H   0  0  0  0  0  0  0  0  0  0  0  0
    0.9397   -0.0590   -0.0943 H   0  0  0  0  0  0  0  0  0  0  0  0
  1  2  1  0
  1  3  1  0
  1  4  1  0
M  END
>  <reaction>  (3) 
rxn_100

>  <mol_properties>  (3) 
{"0": {"label": "acceptor", "atom_type": "N3s"}, "3": {"label": "a_hydrogen", "atom_type": "H0"}}

>  <type>  (3) 
r2h

$$$$

     RDKit          3D

 12 10  0  0  0  0  0  0  0  0999 V2000
   -1.2226    0.3286    1.9730 N   0  0  0  0  0  2  0  0  0  0  0  0
   -1.5873    1.2840    1.9709 H   0  0  0  0  0  0  0  0  0  0  0  0
   -1.8273   -0.1692    1.3151 H   0  0  0  0  0  0  0  0  0  0  0  0
    0.4035   -0.9039   -1.6505 C   0  0  0  0  0  0  0  0  0  0  0  0
    0.9011   -0.5844   -0.4583 C   0  0  0  0  0  0  0  0  0  0  0  0
    0.6809    0.6959    0.2254 C   0  0  0  0  0  0  0  0  0  0  0  0
    0.5785   -1.8752   -2.0949 H   0  0  0  0  0  0  0  0  0  0  0  0
   -0.1870   -0.1974   -2.2240 H   0  0  0  0  0  0  0  0  0  0  0  0
    1.4860   -1.3244    0.0803 H   0  0  0  0  0  0  0  0  0  0  0  0
   -0.1429    0.4925    1.1359 H   0  0  0  0  0  0  0  0  0  0  0  0
    0.2579    1.4731   -0.4089 H   0  0  0  0  0  0  0  0  0  0  0  0
    1.5378    1.0589    0.7916 H   0  0  0  0  0  0  0  0  0  0  0  0
  1  2  1  0
  1  3  1  0
  4  5  2  3
  4  7  1  0
  4  8  1  0
  5  6  1  0
  5  9  1  0
  6 10  1  0
  6 11  1  0
  6 12  1  0
M  RAD  1   1   2
M  END
>  <reaction>  (4) 
rxn_100

>  <mol_properties>  (4) 
{"0": {"label": "*3", "atom_type": "N3s"}, "1": {"label": "*4", "atom_type": "H0"}, "4": {"label": "*0", "atom_type": "Cd"}, "5": {"label": "*1", "atom_type": "Cs"}, "9": {"label": "*2", "atom_type": "H0"}}

>  <type>  (4) 
ts

$$$$

     RDKit          3D

 12 10  0  0  0  0  0  0  0  0999 V2000
   -1.4734    0.5805    1.7934 N   0  0  0  0  0  0  0  0  0  0  0  0
   -1.1432    0.5911    2.7491 H   0  0  0  0  0  0  0  0  0  0  0  0
   -1.3331    1.5482    1.5355 H   0  0  0  0  0  0  0  0  0  0  0  0
    0.5543   -0.6812   -1.8953 C   0  0  0  0  0  0  0  0  0  0  0  0
    0.5543   -0.6812   -0.5715 C   0  0  0  0  0  0  0  0  0  0  0  0
    0.5543    0.5409    0.2890 C   0  0  0  0  0  3  0  0  0  0  0  0
    0.5543   -1.6040   -2.4618 H   0  0  0  0  0  0  0  0  0  0  0  0
    0.5543    0.2444   -2.4613 H   0  0  0  0  0  0  0  0  0  0  0  0
    0.5543   -1.6339   -0.0480 H   0  0  0  0  0  0  0  0  0  0  0  0
   -0.4990    0.5615    1.0704 H   0  0  0  0  0  0  0  0  0  0  0  0
    0.5543    1.4514   -0.3116 H   0  0  0  0  0  0  0  0  0  0  0  0
    1.4320    0.5581    0.9402 H   0  0  0  0  0  0  0  0  0  0  0  0
  1  2  1  0
  1  3  1  0
  1 10  1  0
  4  5  2  3
  4  7  1  0
  4  8  1  0
  5  6  1  0
  5  9  1  0
  6 11  1  0
  6 12  1  0
M  RAD  1   6   2
M  END
>  <reaction>  (5) 
rxn_100

>  <mol_properties>  (5) 
{"0": {"label": "*3", "atom_type": "N3s"}, "1": {"label": "*4", "atom_type": "H0"}, "4": {"label": "*0", "atom_type": "Cd"}, "5": {"label": "*1", "atom_type": "Cs"}, "9": {"label": "*2", "atom_type": "H0"}}

>  <type>  (5) 
unop_1

>  <geom_source>  (5) 
Heuristics

$$$$

     RDKit          3D

 12 10  0  0  0  0  0  0  0  0999 V2000
   -1.4737    0.6067    1.7928 N   0  0  0  0  0  0  0  0  0  0  0  0
   -1.7268   -0.3527    1.9879 H   0  0  0  0  0  0  0  0  0  0  0  0
   -0.7304    1.0324    2.3302 H   0  0  0  0  0  0  0  0  0  0  0  0
    0.5539   -0.6550   -1.8959 C   0  0  0  0  0  0  0  0  0  0  0  0
    0.5539   -0.6550   -0.5721 C   0  0  0  0  0  0  0  0  0  0  0  0
    0.5539    0.5672    0.2884 C   0  0  0  0  0  3  0  0  0  0  0  0
    0.5539   -1.5777   -2.4624 H   0  0  0  0  0  0  0  0  0  0  0  0
    0.5539    0.2706   -2.4619 H   0  0  0  0  0  0  0  0  0  0  0  0
    0.5539   -1.6076   -0.0486 H   0  0  0  0  0  0  0  0  0  0  0  0
   -0.4993    0.5877    1.0698 H   0  0  0  0  0  0  0  0  0  0  0  0
    0.5539    1.4776   -0.3122 H   0  0  0  0  0  0  0  0  0  0  0  0
    1.4316    0.5843    0.9396 H   0  0  0  0  0  0  0  0  0  0  0  0
  1  2  1  0
  1  3  1  0
  1 10  1  0
  4  5  2  3
  4  7  1  0
  4  8  1  0
  5  6  1  0
  5  9  1  0
  6 11  1  0
  6 12  1  0
M  RAD  1   6   2
M  END
>  <reaction>  (6) 
rxn_100

>  <mol_properties>  (6) 
{"0": {"label": "*3", "atom_type": "N3s"}, "1": {"label": "*4", "atom_type": "H0"}, "4": {"label": "*0", "atom_type": "Cd"}, "5": {"label": "*1", "atom_type": "Cs"}, "9": {"label": "*2", "atom_type": "H0"}}

>  <type>  (6) 
unop_2

>  <geom_source>  (6) 
Heuristics

$$$$

     RDKit          3D

 12 10  0  0  0  0  0  0  0  0999 V2000
   -1.4640    0.5742    1.7985 N   0  0  0  0  0  0  0  0  0  0  0  0
   -1.2065    1.0661    2.6437 H   0  0  0  0  0  0  0  0  0  0  0  0
   -1.7900    1.4227    1.3555 H   0  0  0  0  0  0  0  0  0  0  0  0
    0.5636   -0.6875   -1.8901 C   0  0  0  0  0  0  0  0  0  0  0  0
    0.5636   -0.6875   -0.5664 C   0  0  0  0  0  0  0  0  0  0  0  0
    0.5636    0.5346    0.2941 C   0  0  0  0  0  3  0  0  0  0  0  0
    0.5636   -1.6103   -2.4566 H   0  0  0  0  0  0  0  0  0  0  0  0
    0.5636    0.2381   -2.4561 H   0  0  0  0  0  0  0  0  0  0  0  0
    0.5636   -1.6402   -0.0429 H   0  0  0  0  0  0  0  0  0  0  0  0
   -0.4896    0.5552    1.0756 H   0  0  0  0  0  0  0  0  0  0  0  0
    0.5636    1.4451   -0.3065 H   0  0  0  0  0  0  0  0  0  0  0  0
    1.4413    0.5518    0.9453 H   0  0  0  0  0  0  0  0  0  0  0  0
  1  2  1  0
  1  3  1  0
  1 10  1  0
  4  5  2  3
  4  7  1  0
  4  8  1  0
  5  6  1  0
  5  9  1  0
  6 11  1  0
  6 12  1  0
M  RAD  1   6   2
M  END
>  <reaction>  (7) 
rxn_100

>  <mol_properties>  (7) 
{"0": {"label": "*3", "atom_type": "N3s"}, "1": {"label": "*4", "atom_type": "H0"}, "4": {"label": "*0", "atom_type": "Cd"}, "5": {"label": "*1", "atom_type": "Cs"}, "9": {"label": "*2", "atom_type": "H0"}}

>  <type>  (7) 
unop_3

>  <geom_source>  (7) 
Heuristics

$$$$

     RDKit          3D

 12 10  0  0  0  0  0  0  0  0999 V2000
   -1.4498    0.6072    1.8013 N   0  0  0  0  0  0  0  0  0  0  0  0
   -2.2689    0.6061    1.2083 H   0  0  0  0  0  0  0  0  0  0  0  0
   -1.5177    0.0455    2.6393 H   0  0  0  0  0  0  0  0  0  0  0  0
    0.5778   -0.6545   -1.8874 C   0  0  0  0  0  0  0  0  0  0  0  0
    0.5778   -0.6545   -0.5637 C   0  0  0  0  0  0  0  0  0  0  0  0
    0.5778    0.5677    0.2968 C   0  0  0  0  0  3  0  0  0  0  0  0
    0.5778   -1.5772   -2.4539 H   0  0  0  0  0  0  0  0  0  0  0  0
    0.5778    0.2711   -2.4534 H   0  0  0  0  0  0  0  0  0  0  0  0
    0.5778   -1.6071   -0.0401 H   0  0  0  0  0  0  0  0  0  0  0  0
   -0.4754    0.5882    1.0783 H   0  0  0  0  0  0  0  0  0  0  0  0
    0.5778    1.4781   -0.3037 H   0  0  0  0  0  0  0  0  0  0  0  0
    1.4555    0.5848    0.9481 H   0  0  0  0  0  0  0  0  0  0  0  0
  1  2  1  0
  1  3  1  0
  1 10  1  0
  4  5  2  3
  4  7  1  0
  4  8  1  0
  5  6  1  0
  5  9  1  0
  6 11  1  0
  6 12  1  0
M  RAD  1   6   2
M  END
>  <reaction>  (8) 
rxn_100

>  <mol_properties>  (8) 
{"0": {"label": "*3", "atom_type": "N3s"}, "1": {"label": "*4", "atom_type": "H0"}, "4": {"label": "*0", "atom_type": "Cd"}, "5": {"label": "*1", "atom_type": "Cs"}, "9": {"label": "*2", "atom_type": "H0"}}

>  <type>  (8) 
unop_4

>  <geom_source>  (8) 
Heuristics

$$$$

     RDKit          3D

 12 10  0  0  0  0  0  0  0  0999 V2000
   -1.4508    0.5771    1.8022 N   0  0  0  0  0  0  0  0  0  0  0  0
   -1.4004    1.4198    2.3588 H   0  0  0  0  0  0  0  0  0  0  0  0
   -2.3355    0.9052    1.4387 H   0  0  0  0  0  0  0  0  0  0  0  0
    0.5769   -0.6846   -1.8865 C   0  0  0  0  0  0  0  0  0  0  0  0
    0.5769   -0.6846   -0.5628 C   0  0  0  0  0  0  0  0  0  0  0  0
    0.5769    0.5376    0.2977 C   0  0  0  0  0  3  0  0  0  0  0  0
    0.5769   -1.6073   -2.4530 H   0  0  0  0  0  0  0  0  0  0  0  0
    0.5769    0.2410   -2.4525 H   0  0  0  0  0  0  0  0  0  0  0  0
    0.5769   -1.6372   -0.0392 H   0  0  0  0  0  0  0  0  0  0  0  0
   -0.4763    0.5581    1.0792 H   0  0  0  0  0  0  0  0  0  0  0  0
    0.5769    1.4480   -0.3028 H   0  0  0  0  0  0  0  0  0  0  0  0
    1.4546    0.5547    0.9490 H   0  0  0  0  0  0  0  0  0  0  0  0
  1  2  1  0
  1  3  1  0
  1 10  1  0
  4  5  2  3
  4  7  1  0
  4  8  1  0
  5  6  1  0
  5  9  1  0
  6 11  1  0
  6 12  1  0
M  RAD  1   6   2
M  END
>  <reaction>  (9) 
rxn_100

>  <mol_properties>  (9) 
{"0": {"label": "*3", "atom_type": "N3s"}, "1": {"label": "*4", "atom_type": "H0"}, "4": {"label": "*0", "atom_type": "Cd"}, "5": {"label": "*1", "atom_type": "Cs"}, "9": {"label": "*2", "atom_type": "H0"}}

>  <type>  (9) 
unop_5

>  <geom_source>  (9) 
Heuristics

$$$$

     RDKit          3D

 12 10  0  0  0  0  0  0  0  0999 V2000
   -1.4453    0.5999    1.8023 N   0  0  0  0  0  0  0  0  0  0  0  0
   -2.1831    1.0817    1.3062 H   0  0  0  0  0  0  0  0  0  0  0  0
   -1.8548   -0.0240    2.4846 H   0  0  0  0  0  0  0  0  0  0  0  0
    0.5823   -0.6618   -1.8864 C   0  0  0  0  0  0  0  0  0  0  0  0
    0.5823   -0.6618   -0.5626 C   0  0  0  0  0  0  0  0  0  0  0  0
    0.5823    0.5604    0.2979 C   0  0  0  0  0  3  0  0  0  0  0  0
    0.5823   -1.5845   -2.4529 H   0  0  0  0  0  0  0  0  0  0  0  0
    0.5823    0.2638   -2.4524 H   0  0  0  0  0  0  0  0  0  0  0  0
    0.5823   -1.6144   -0.0391 H   0  0  0  0  0  0  0  0  0  0  0  0
   -0.4709    0.5809    1.0793 H   0  0  0  0  0  0  0  0  0  0  0  0
    0.5823    1.4708   -0.3027 H   0  0  0  0  0  0  0  0  0  0  0  0
    1.4600    0.5775    0.9491 H   0  0  0  0  0  0  0  0  0  0  0  0
  1  2  1  0
  1  3  1  0
  1 10  1  0
  4  5  2  3
  4  7  1  0
  4  8  1  0
  5  6  1  0
  5  9  1  0
  6 11  1  0
  6 12  1  0
M  RAD  1   6   2
M  END
>  <reaction>  (10) 
rxn_100

>  <mol_properties>  (10) 
{"0": {"label": "*3", "atom_type": "N3s"}, "1": {"label": "*4", "atom_type": "H0"}, "4": {"label": "*0", "atom_type": "Cd"}, "5": {"label": "*1", "atom_type": "Cs"}, "9": {"label": "*2", "atom_type": "H0"}}

>  <type>  (10) 
unop_6

>  <geom_source>  (10) 
Heuristics

$$$$

     RDKit          3D

 12 10  0  0  0  0  0  0  0  0999 V2000
   -1.4437    0.5926    1.8015 N   0  0  0  0  0  0  0  0  0  0  0  0
   -1.9680    1.4295    1.5838 H   0  0  0  0  0  0  0  0  0  0  0  0
   -2.1587    0.0340    2.2480 H   0  0  0  0  0  0  0  0  0  0  0  0
    0.5839   -0.6691   -1.8871 C   0  0  0  0  0  0  0  0  0  0  0  0
    0.5839   -0.6691   -0.5634 C   0  0  0  0  0  0  0  0  0  0  0  0
    0.5839    0.5531    0.2971 C   0  0  0  0  0  3  0  0  0  0  0  0
    0.5839   -1.5918   -2.4536 H   0  0  0  0  0  0  0  0  0  0  0  0
    0.5839    0.2565   -2.4531 H   0  0  0  0  0  0  0  0  0  0  0  0
    0.5839   -1.6217   -0.0399 H   0  0  0  0  0  0  0  0  0  0  0  0
   -0.4693    0.5736    1.0786 H   0  0  0  0  0  0  0  0  0  0  0  0
    0.5839    1.4635   -0.3035 H   0  0  0  0  0  0  0  0  0  0  0  0
    1.4616    0.5702    0.9483 H   0  0  0  0  0  0  0  0  0  0  0  0
  1  2  1  0
  1  3  1  0
  1 10  1  0
  4  5  2  3
  4  7  1  0
  4  8  1  0
  5  6  1  0
  5  9  1  0
  6 11  1  0
  6 12  1  0
M  RAD  1   6   2
M  END
>  <reaction>  (11) 
rxn_100

>  <mol_properties>  (11) 
{"0": {"label": "*3", "atom_type": "N3s"}, "1": {"label": "*4", "atom_type": "H0"}, "4": {"label": "*0", "atom_type": "Cd"}, "5": {"label": "*1", "atom_type": "Cs"}, "9": {"label": "*2", "atom_type": "H0"}}

>  <type>  (11) 
unop_7

>  <geom_source>  (11) 
Heuristics

$$$$

     RDKit          3D

 12 10  0  0  0  0  0  0  0  0999 V2000
   -1.4773    0.5899    1.7910 N   0  0  0  0  0  0  0  0  0  0  0  0
   -1.2284    0.1177    2.6499 H   0  0  0  0  0  0  0  0  0  0  0  0
   -1.0294    1.4962    1.7672 H   0  0  0  0  0  0  0  0  0  0  0  0
    0.5503   -0.6718   -1.8977 C   0  0  0  0  0  0  0  0  0  0  0  0
    0.5503   -0.6718   -0.5739 C   0  0  0  0  0  0  0  0  0  0  0  0
    0.5503    0.5504    0.2866 C   0  0  0  0  0  3  0  0  0  0  0  0
    0.5503   -1.5945   -2.4641 H   0  0  0  0  0  0  0  0  0  0  0  0
    0.5503    0.2538   -2.4637 H   0  0  0  0  0  0  0  0  0  0  0  0
    0.5503   -1.6244   -0.0504 H   0  0  0  0  0  0  0  0  0  0  0  0
   -0.5029    0.5709    1.0681 H   0  0  0  0  0  0  0  0  0  0  0  0
    0.5503    1.4608   -0.3140 H   0  0  0  0  0  0  0  0  0  0  0  0
    1.4280    0.5675    0.9378 H   0  0  0  0  0  0  0  0  0  0  0  0
  1  2  1  0
  1  3  1  0
  1 10  1  0
  4  5  2  3
  4  7  1  0
  4  8  1  0
  5  6  1  0
  5  9  1  0
  6 11  1  0
  6 12  1  0
M  RAD  1   6   2
M  END
>  <reaction>  (12) 
rxn_100

>  <mol_properties>  (12) 
{"0": {"label": "*3", "atom_type": "N3s"}, "1": {"label": "*4", "atom_type": "H0"}, "4": {"label": "*0", "atom_type": "Cd"}, "5": {"label": "*1", "atom_type": "Cs"}, "9": {"label": "*2", "atom_type": "H0"}}

>  <type>  (12) 
unop_8

>  <geom_source>  (12) 
Heuristics

$$$$

     RDKit          3D

 12 10  0  0  0  0  0  0  0  0999 V2000
   -1.4576    0.6120    1.7983 N   0  0  0  0  0  0  0  0  0  0  0  0
   -2.2040    0.1295    1.3159 H   0  0  0  0  0  0  0  0  0  0  0  0
   -1.1504    0.2594    2.6949 H   0  0  0  0  0  0  0  0  0  0  0  0
    0.5700   -0.6498   -1.8904 C   0  0  0  0  0  0  0  0  0  0  0  0
    0.5700   -0.6498   -0.5666 C   0  0  0  0  0  0  0  0  0  0  0  0
    0.5700    0.5724    0.2939 C   0  0  0  0  0  3  0  0  0  0  0  0
    0.5700   -1.5725   -2.4568 H   0  0  0  0  0  0  0  0  0  0  0  0
    0.5700    0.2758   -2.4564 H   0  0  0  0  0  0  0  0  0  0  0  0
    0.5700   -1.6024   -0.0431 H   0  0  0  0  0  0  0  0  0  0  0  0
   -0.4832    0.5929    1.0754 H   0  0  0  0  0  0  0  0  0  0  0  0
    0.5700    1.4829   -0.3067 H   0  0  0  0  0  0  0  0  0  0  0  0
    1.4478    0.5895    0.9451 H   0  0  0  0  0  0  0  0  0  0  0  0
  1  2  1  0
  1  3  1  0
  1 10  1  0
  4  5  2  3
  4  7  1  0
  4  8  1  0
  5  6  1  0
  5  9  1  0
  6 11  1  0
  6 12  1  0
M  RAD  1   6   2
M  END
>  <reaction>  (13) 
rxn_100

>  <mol_properties>  (13) 
{"0": {"label": "*3", "atom_type": "N3s"}, "1": {"label": "*4", "atom_type": "H0"}, "4": {"label": "*0", "atom_type": "Cd"}, "5": {"label": "*1", "atom_type": "Cs"}, "9": {"label": "*2", "atom_type": "H0"}}

>  <type>  (13) 
unop_9

>  <geom_source>  (13) 
Heuristics

$$$$

     RDKit          3D

 12 10  0  0  0  0  0  0  0  0999 V2000
   -1.4772    0.5991    1.7912 N   0  0  0  0  0  0  0  0  0  0  0  0
   -1.4418   -0.2282    2.3717 H   0  0  0  0  0  0  0  0  0  0  0  0
   -0.8211    1.3296    2.0330 H   0  0  0  0  0  0  0  0  0  0  0  0
    0.5504   -0.6626   -1.8974 C   0  0  0  0  0  0  0  0  0  0  0  0
    0.5504   -0.6626   -0.5737 C   0  0  0  0  0  0  0  0  0  0  0  0
    0.5504    0.5596    0.2868 C   0  0  0  0  0  3  0  0  0  0  0  0
    0.5504   -1.5853   -2.4639 H   0  0  0  0  0  0  0  0  0  0  0  0
    0.5504    0.2630   -2.4634 H   0  0  0  0  0  0  0  0  0  0  0  0
    0.5504   -1.6152   -0.0502 H   0  0  0  0  0  0  0  0  0  0  0  0
   -0.5028    0.5801    1.0683 H   0  0  0  0  0  0  0  0  0  0  0  0
    0.5504    1.4700   -0.3138 H   0  0  0  0  0  0  0  0  0  0  0  0
    1.4281    0.5767    0.9380 H   0  0  0  0  0  0  0  0  0  0  0  0
  1  2  1  0
  1  3  1  0
  1 10  1  0
  4  5  2  3
  4  7  1  0
  4  8  1  0
  5  6  1  0
  5  9  1  0
  6 11  1  0
  6 12  1  0
M  RAD  1   6   2
M  END
>  <reaction>  (14) 
rxn_100

>  <mol_properties>  (14) 
{"0": {"label": "*3", "atom_type": "N3s"}, "1": {"label": "*4", "atom_type": "H0"}, "4": {"label": "*0", "atom_type": "Cd"}, "5": {"label": "*1", "atom_type": "Cs"}, "9": {"label": "*2", "atom_type": "H0"}}

>  <type>  (14) 
unop_10

>  <geom_source>  (14) 
Heuristics

$$$$

     RDKit          3D

 12 10  0  0  0  0  0  0  0  0999 V2000
   -1.4444    0.5857    1.8012 N   0  0  0  0  0  0  0  0  0  0  0  0
   -1.6802    1.5546    1.9688 H   0  0  0  0  0  0  0  0  0  0  0  0
   -2.4091    0.2943    1.8842 H   0  0  0  0  0  0  0  0  0  0  0  0
    0.5833   -0.6760   -1.8875 C   0  0  0  0  0  0  0  0  0  0  0  0
    0.5833   -0.6760   -0.5638 C   0  0  0  0  0  0  0  0  0  0  0  0
    0.5833    0.5462    0.2968 C   0  0  0  0  0  3  0  0  0  0  0  0
    0.5833   -1.5988   -2.4540 H   0  0  0  0  0  0  0  0  0  0  0  0
    0.5833    0.2496   -2.4535 H   0  0  0  0  0  0  0  0  0  0  0  0
    0.5833   -1.6287   -0.0402 H   0  0  0  0  0  0  0  0  0  0  0  0
   -0.4700    0.5667    1.0782 H   0  0  0  0  0  0  0  0  0  0  0  0
    0.5833    1.4566   -0.3038 H   0  0  0  0  0  0  0  0  0  0  0  0
    1.4610    0.5633    0.9480 H   0  0  0  0  0  0  0  0  0  0  0  0
  1  2  1  0
  1  3  1  0
  1 10  1  0
  4  5  2  3
  4  7  1  0
  4  8  1  0
  5  6  1  0
  5  9  1  0
  6 11  1  0
  6 12  1  0
M  RAD  1   6   2
M  END
>  <reaction>  (15) 
rxn_100

>  <mol_properties>  (15) 
{"0": {"label": "*3", "atom_type": "N3s"}, "1": {"label": "*4", "atom_type": "H0"}, "4": {"label": "*0", "atom_type": "Cd"}, "5": {"label": "*1", "atom_type": "Cs"}, "9": {"label": "*2", "atom_type": "H0"}}

>  <type>  (15) 
unop_11

>  <geom_source>  (15) 
Heuristics

$$$$

     RDKit          3D

 12 10  0  0  0  0  0  0  0  0999 V2000
   -1.4667    0.6116    1.7951 N   0  0  0  0  0  0  0  0  0  0  0  0
   -2.0060   -0.2215    1.6012 H   0  0  0  0  0  0  0  0  0  0  0  0
   -0.8409    0.6274    2.5892 H   0  0  0  0  0  0  0  0  0  0  0  0
    0.5609   -0.6501   -1.8936 C   0  0  0  0  0  0  0  0  0  0  0  0
    0.5609   -0.6501   -0.5698 C   0  0  0  0  0  0  0  0  0  0  0  0
    0.5609    0.5721    0.2907 C   0  0  0  0  0  3  0  0  0  0  0  0
    0.5609   -1.5728   -2.4601 H   0  0  0  0  0  0  0  0  0  0  0  0
    0.5609    0.2755   -2.4596 H   0  0  0  0  0  0  0  0  0  0  0  0
    0.5609   -1.6027   -0.0463 H   0  0  0  0  0  0  0  0  0  0  0  0
   -0.4923    0.5926    1.0721 H   0  0  0  0  0  0  0  0  0  0  0  0
    0.5609    1.4826   -0.3099 H   0  0  0  0  0  0  0  0  0  0  0  0
    1.4386    0.5892    0.9419 H   0  0  0  0  0  0  0  0  0  0  0  0
  1  2  1  0
  1  3  1  0
  1 10  1  0
  4  5  2  3
  4  7  1  0
  4  8  1  0
  5  6  1  0
  5  9  1  0
  6 11  1  0
  6 12  1  0
M  RAD  1   6   2
M  END
>  <reaction>  (16) 
rxn_100

>  <mol_properties>  (16) 
{"0": {"label": "*3", "atom_type": "N3s"}, "1": {"label": "*4", "atom_type": "H0"}, "4": {"label": "*0", "atom_type": "Cd"}, "5": {"label": "*1", "atom_type": "Cs"}, "9": {"label": "*2", "atom_type": "H0"}}

>  <type>  (16) 
unop_12

>  <geom_source>  (16) 
Heuristics

$$$$
