
     RDKit          3D

 12 11  0  0  0  0  0  0  0  0999 V2000
    1.3372   -0.1398    0.4136 C   0  0  0  0  0  0  0  0  0  0  0  0
   -0.0787    0.3743    0.2016 C   0  0  0  0  0  0  0  0  0  0  0  0
   -1.0057   -0.7011   -0.3445 C   0  0  0  0  0  0  0  0  0  0  0  0
   -0.0866    1.5266   -0.6273 O   0  0  0  0  0  0  0  0  0  0  0  0
    1.7593   -0.4986   -0.5303 H   0  0  0  0  0  0  0  0  0  0  0  0
    1.3510   -0.9703    1.1220 H   0  0  0  0  0  0  0  0  0  0  0  0
    1.9774    0.6555    0.7960 H   0  0  0  0  0  0  0  0  0  0  0  0
   -0.4728    0.7287    1.1572 H   0  0  0  0  0  0  0  0  0  0  0  0
   -1.0678   -1.5498    0.3393 H   0  0  0  0  0  0  0  0  0  0  0  0
   -2.0082   -0.2994   -0.4937 H   0  0  0  0  0  0  0  0  0  0  0  0
   -0.6364   -1.0726   -1.3055 H   0  0  0  0  0  0  0  0  0  0  0  0
    0.2522    1.2779   -1.4902 H   0  0  0  0  0  0  0  0  0  0  0  0
  1  2  1  0
  1  5  1  0
  1  6  1  0
  1  7  1  0
  2  3  1  0
  2  4  1  0
  2  8  1  0
  3  9  1  0
  3 10  1  0
  3 11  1  0
  4 12  1  0
M  END
>  <reaction>  (1) 
rxn_752

>  <mol_properties>  (1) 
{"1": {"label": "donator", "atom_type": "Cs"}, "7": {"label": "d_hydrogen", "atom_type": "H0"}}

>  <type>  (1) 
r1h

$$$$

     RDKit          3D

  4  3  0  0  0  0  0  0  0  0999 V2000
    0.0000    0.0000    0.0000 C   0  0  0  0  0  3  0  0  0  0  0  0
    1.0638   -0.1747    0.0540 H   0  0  0  0  0  0  0  0  0  0  0  0
   -0.6833   -0.8351   -0.0280 H   0  0  0  0  0  0  0  0  0  0  0  0
   -0.3805    1.0098   -0.0260 H   0  0  0  0  0  0  0  0  0  0  0  0
  1  2  1  0
  1  3  1  0
  1  4  1  0
M  RAD  1   1   2
M  END
>  <reaction>  (2) 
rxn_752

>  <mol_properties>  (2) 
{"0": {"label": "acceptor", "atom_type": "Cs"}}

>  <type>  (2) 
r2

$$$$

     RDKit          3D

  5  4  0  0  0  0  0  0  0  0999 V2000
    0.0000    0.0000    0.0000 C   0  0  0  0  0  0  0  0  0  0  0  0
   -0.6486   -0.7720   -0.4113 H   0  0  0  0  0  0  0  0  0  0  0  0
   -0.3482    0.9787   -0.3267 H   0  0  0  0  0  0  0  0  0  0  0  0
   -0.0223   -0.0487    1.0876 H   0  0  0  0  0  0  0  0  0  0  0  0
    1.0191   -0.1580   -0.3496 H   0  0  0  0  0  0  0  0  0  0  0  0
  1  2  1  0
  1  3  1  0
  1  4  1  0
  1  5  1  0
M  END
>  <reaction>  (3) 
rxn_752

>  <mol_properties>  (3) 
{"0": {"label": "a_hydrogen", "atom_type": "H0"}, "1": {"label": "acceptor", "atom_type": "Cs"}}

>  <type>  (3) 
r2h

$$$$

     RDKit          3D

 16 14  0  0  0  0  0  0  0  0999 V2000
    0.0552    0.3882   -1.6086 C   0  0  0  0  0  0  0  0  0  0  0  0
    0.2932    0.2407   -0.1239 C   0  0  0  0  0  0  0  0  0  0  0  0
    0.3537    1.5324    0.6451 C   0  0  0  0  0  0  0  0  0  0  0  0
    1.4282   -0.5182    0.1819 O   0  0  0  0  0  0  0  0  0  0  0  0
    0.8804    0.9289   -2.0816 H   0  0  0  0  0  0  0  0  0  0  0  0
   -0.8704    0.9351   -1.7950 H   0  0  0  0  0  0  0  0  0  0  0  0
   -0.0350   -0.5897   -2.0897 H   0  0  0  0  0  0  0  0  0  0  0  0
   -0.7142   -0.3804    0.3207 H   0  0  0  0  0  0  0  0  0  0  0  0
   -0.5673    2.1001    0.5063 H   0  0  0  0  0  0  0  0  0  0  0  0
    0.4834    1.3334    1.7093 H   0  0  0  0  0  0  0  0  0  0  0  0
    1.1943    2.1448    0.3056 H   0  0  0  0  0  0  0  0  0  0  0  0
    1.4195   -1.3178   -0.3473 H   0  0  0  0  0  0  0  0  0  0  0  0
   -1.8391   -1.1395    0.8508 C   0  0  0  0  0  3  0  0  0  0  0  0
   -2.0257   -1.9075    0.1062 H   0  0  0  0  0  0  0  0  0  0  0  0
   -2.6379   -0.4111    0.9476 H   0  0  0  0  0  0  0  0  0  0  0  0
   -1.4572   -1.5143    1.7949 H   0  0  0  0  0  0  0  0  0  0  0  0
  1  2  1  0
  1  5  1  0
  1  6  1  0
  1  7  1  0
  2  3  1  0
  2  4  1  0
  2  8  1  0
  3  9  1  0
  3 10  1  0
  3 11  1  0
  4 12  1  0
 13 14  1  0
 13 15  1  0
 13 16  1  0
M  RAD  1  13   2
M  END
>  <reaction>  (4) 
rxn_752

>  <mol_properties>  (4) 
{"1": {"label": "*1", "atom_type": "Cs"}, "3": {"label": "*0", "atom_type": "O2s"}, "7": {"label": "*2", "atom_type": "H0"}, "12": {"label": "*3", "atom_type": "Cs"}, "13": {"label": "*4", "atom_type": "H0"}}

>  <type>  (4) 
ts

$$$$

     RDKit          3D

 16 14  0  0  0  0  0  0  0  0999 V2000
    0.1932    0.1346   -1.6229 C   0  0  0  0  0  0  0  0  0  0  0  0
    0.1932    0.1346   -0.1017 C   0  0  0  0  0  3  0  0  0  0  0  0
    0.1932    1.5427    0.4738 C   0  0  0  0  0  0  0  0  0  0  0  0
    1.2754   -0.6281    0.4105 O   0  0  0  0  0  0  0  0  0  0  0  0
    1.0778    0.6533   -2.0055 H   0  0  0  0  0  0  0  0  0  0  0  0
   -0.6884    0.6453   -2.0152 H   0  0  0  0  0  0  0  0  0  0  0  0
    0.2025   -0.8870   -2.0034 H   0  0  0  0  0  0  0  0  0  0  0  0
   -0.8748   -0.4970    0.3224 H   0  0  0  0  0  0  0  0  0  0  0  0
   -0.6884    2.0990    0.1495 H   0  0  0  0  0  0  0  0  0  0  0  0
    0.2025    1.5083    1.5634 H   0  0  0  0  0  0  0  0  0  0  0  0
    1.0778    2.0931    0.1385 H   0  0  0  0  0  0  0  0  0  0  0  0
    2.0942   -0.2124    0.1313 H   0  0  0  0  0  0  0  0  0  0  0  0
   -1.9391   -1.1264    0.7451 C   0  0  0  0  0  0  0  0  0  0  0  0
   -1.6392   -1.9820    1.3482 H   0  0  0  0  0  0  0  0  0  0  0  0
   -2.9561   -1.2745    0.3853 H   0  0  0  0  0  0  0  0  0  0  0  0
   -1.8624   -0.3385    1.4929 H   0  0  0  0  0  0  0  0  0  0  0  0
  1  2  1  0
  1  5  1  0
  1  6  1  0
  1  7  1  0
  2  3  1  0
  2  4  1  0
  3  9  1  0
  3 10  1  0
  3 11  1  0
  4 12  1  0
  8 13  1  0
 13 14  1  0
 13 15  1  0
 13 16  1  0
M  RAD  1   2   2
M  END
>  <reaction>  (5) 
rxn_752

>  <mol_properties>  (5) 
{"1": {"label": "*1", "atom_type": "Cs"}, "3": {"label": "*0", "atom_type": "O2s"}, "7": {"label": "*2", "atom_type": "H0"}, "12": {"label": "*3", "atom_type": "Cs"}, "13": {"label": "*4", "atom_type": "H0"}}

>  <type>  (5) 
unop_1

>  <geom_source>  (5) 
Heuristics

$$$$

     RDKit          3D

 16 14  0  0  0  0  0  0  0  0999 V2000
    0.1913    0.1341   -1.6161 C   0  0  0  0  0  0  0  0  0  0  0  0
    0.1913    0.1341   -0.0949 C   0  0  0  0  0  3  0  0  0  0  0  0
    0.1913    1.5422    0.4806 C   0  0  0  0  0  0  0  0  0  0  0  0
    1.2735   -0.6286    0.4172 O   0  0  0  0  0  0  0  0  0  0  0  0
    1.0759    0.6528   -1.9988 H   0  0  0  0  0  0  0  0  0  0  0  0
   -0.6903    0.6448   -2.0084 H   0  0  0  0  0  0  0  0  0  0  0  0
    0.2006   -0.8875   -1.9966 H   0  0  0  0  0  0  0  0  0  0  0  0
   -0.8766   -0.4975    0.3292 H   0  0  0  0  0  0  0  0  0  0  0  0
   -0.6903    2.0985    0.1563 H   0  0  0  0  0  0  0  0  0  0  0  0
    0.2006    1.5078    1.5702 H   0  0  0  0  0  0  0  0  0  0  0  0
    1.0759    2.0926    0.1452 H   0  0  0  0  0  0  0  0  0  0  0  0
    2.0923   -0.2129    0.1381 H   0  0  0  0  0  0  0  0  0  0  0  0
   -1.9409   -1.1268    0.7518 C   0  0  0  0  0  0  0  0  0  0  0  0
   -2.2228   -1.8899    0.0279 H   0  0  0  0  0  0  0  0  0  0  0  0
   -2.8350   -0.6201    1.1119 H   0  0  0  0  0  0  0  0  0  0  0  0
   -1.2647   -1.0513    1.6020 H   0  0  0  0  0  0  0  0  0  0  0  0
  1  2  1  0
  1  5  1  0
  1  6  1  0
  1  7  1  0
  2  3  1  0
  2  4  1  0
  3  9  1  0
  3 10  1  0
  3 11  1  0
  4 12  1  0
  8 13  1  0
 13 14  1  0
 13 15  1  0
 13 16  1  0
M  RAD  1   2   2
M  END
>  <reaction>  (6) 
rxn_752

>  <mol_properties>  (6) 
{"1": {"label": "*1", "atom_type": "Cs"}, "3": {"label": "*0", "atom_type": "O2s"}, "7": {"label": "*2", "atom_type": "H0"}, "12": {"label": "*3", "atom_type": "Cs"}, "13": {"label": "*4", "atom_type": "H0"}}

>  <type>  (6) 
unop_2

>  <geom_source>  (6) 
Heuristics

$$$$

     RDKit          3D

 16 14  0  0  0  0  0  0  0  0999 V2000
    0.1966    0.1343   -1.6220 C   0  0  0  0  0  0  0  0  0  0  0  0
    0.1966    0.1343   -0.1008 C   0  0  0  0  0  3  0  0  0  0  0  0
    0.1966    1.5424    0.4748 C   0  0  0  0  0  0  0  0  0  0  0  0
    1.2787   -0.6284    0.4114 O   0  0  0  0  0  0  0  0  0  0  0  0
    1.0811    0.6530   -2.0046 H   0  0  0  0  0  0  0  0  0  0  0  0
   -0.6850    0.6450   -2.0142 H   0  0  0  0  0  0  0  0  0  0  0  0
    0.2059   -0.8873   -2.0024 H   0  0  0  0  0  0  0  0  0  0  0  0
   -0.8714   -0.4972    0.3233 H   0  0  0  0  0  0  0  0  0  0  0  0
   -0.6850    2.0987    0.1504 H   0  0  0  0  0  0  0  0  0  0  0  0
    0.2059    1.5081    1.5643 H   0  0  0  0  0  0  0  0  0  0  0  0
    1.0811    2.0928    0.1394 H   0  0  0  0  0  0  0  0  0  0  0  0
    2.0975   -0.2127    0.1322 H   0  0  0  0  0  0  0  0  0  0  0  0
   -1.9357   -1.1266    0.7460 C   0  0  0  0  0  0  0  0  0  0  0  0
   -1.7225   -1.5969    1.7047 H   0  0  0  0  0  0  0  0  0  0  0  0
   -2.6541   -1.7327    0.1962 H   0  0  0  0  0  0  0  0  0  0  0  0
   -2.3220   -0.2472    1.2591 H   0  0  0  0  0  0  0  0  0  0  0  0
  1  2  1  0
  1  5  1  0
  1  6  1  0
  1  7  1  0
  2  3  1  0
  2  4  1  0
  3  9  1  0
  3 10  1  0
  3 11  1  0
  4 12  1  0
  8 13  1  0
 13 14  1  0
 13 15  1  0
 13 16  1  0
M  RAD  1   2   2
M  END
>  <reaction>  (7) 
rxn_752

>  <mol_properties>  (7) 
{"1": {"label": "*1", "atom_type": "Cs"}, "3": {"label": "*0", "atom_type": "O2s"}, "7": {"label": "*2", "atom_type": "H0"}, "12": {"label": "*3", "atom_type": "Cs"}, "13": {"label": "*4", "atom_type": "H0"}}

>  <type>  (7) 
unop_3

>  <geom_source>  (7) 
Heuristics

$$$$

     RDKit          3D

 16 14  0  0  0  0  0  0  0  0999 V2000
    0.1909    0.1334   -1.6193 C   0  0  0  0  0  0  0  0  0  0  0  0
    0.1909    0.1334   -0.0981 C   0  0  0  0  0  3  0  0  0  0  0  0
    0.1909    1.5415    0.4774 C   0  0  0  0  0  0  0  0  0  0  0  0
    1.2731   -0.6293    0.4141 O   0  0  0  0  0  0  0  0  0  0  0  0
    1.0755    0.6521   -2.0019 H   0  0  0  0  0  0  0  0  0  0  0  0
   -0.6907    0.6441   -2.0116 H   0  0  0  0  0  0  0  0  0  0  0  0
    0.2002   -0.8882   -1.9998 H   0  0  0  0  0  0  0  0  0  0  0  0
   -0.8771   -0.4982    0.3260 H   0  0  0  0  0  0  0  0  0  0  0  0
   -0.6907    2.0978    0.1531 H   0  0  0  0  0  0  0  0  0  0  0  0
    0.2002    1.5071    1.5670 H   0  0  0  0  0  0  0  0  0  0  0  0
    1.0755    2.0919    0.1421 H   0  0  0  0  0  0  0  0  0  0  0  0
    2.0919   -0.2136    0.1349 H   0  0  0  0  0  0  0  0  0  0  0  0
   -1.9414   -1.1276    0.7487 C   0  0  0  0  0  0  0  0  0  0  0  0
   -2.8325   -0.6216    0.3804 H   0  0  0  0  0  0  0  0  0  0  0  0
   -1.6399   -0.6869    1.6977 H   0  0  0  0  0  0  0  0  0  0  0  0
   -1.8200   -2.2004    0.8904 H   0  0  0  0  0  0  0  0  0  0  0  0
  1  2  1  0
  1  5  1  0
  1  6  1  0
  1  7  1  0
  2  3  1  0
  2  4  1  0
  3  9  1  0
  3 10  1  0
  3 11  1  0
  4 12  1  0
  8 13  1  0
 13 14  1  0
 13 15  1  0
 13 16  1  0
M  RAD  1   2   2
M  END
>  <reaction>  (8) 
rxn_752

>  <mol_properties>  (8) 
{"1": {"label": "*1", "atom_type": "Cs"}, "3": {"label": "*0", "atom_type": "O2s"}, "7": {"label": "*2", "atom_type": "H0"}, "12": {"label": "*3", "atom_type": "Cs"}, "13": {"label": "*4", "atom_type": "H0"}}

>  <type>  (8) 
unop_4

>  <geom_source>  (8) 
Heuristics

$$$$

     RDKit          3D

 16 14  0  0  0  0  0  0  0  0999 V2000
    0.1974    0.1385   -1.6201 C   0  0  0  0  0  0  0  0  0  0  0  0
    0.1974    0.1385   -0.0989 C   0  0  0  0  0  3  0  0  0  0  0  0
    0.1974    1.5466    0.4766 C   0  0  0  0  0  0  0  0  0  0  0  0
    1.2795   -0.6241    0.4133 O   0  0  0  0  0  0  0  0  0  0  0  0
    1.0819    0.6572   -2.0028 H   0  0  0  0  0  0  0  0  0  0  0  0
   -0.6842    0.6493   -2.0124 H   0  0  0  0  0  0  0  0  0  0  0  0
    0.2067   -0.8830   -2.0006 H   0  0  0  0  0  0  0  0  0  0  0  0
   -0.8706   -0.4930    0.3252 H   0  0  0  0  0  0  0  0  0  0  0  0
   -0.6842    2.1030    0.1523 H   0  0  0  0  0  0  0  0  0  0  0  0
    0.2067    1.5123    1.5662 H   0  0  0  0  0  0  0  0  0  0  0  0
    1.0819    2.0971    0.1412 H   0  0  0  0  0  0  0  0  0  0  0  0
    2.0983   -0.2084    0.1341 H   0  0  0  0  0  0  0  0  0  0  0  0
   -1.9349   -1.1224    0.7479 C   0  0  0  0  0  0  0  0  0  0  0  0
   -1.9447   -1.1282    1.8367 H   0  0  0  0  0  0  0  0  0  0  0  0
   -1.9209   -2.1470    0.3795 H   0  0  0  0  0  0  0  0  0  0  0  0
   -2.8906   -0.6045    0.8113 H   0  0  0  0  0  0  0  0  0  0  0  0
  1  2  1  0
  1  5  1  0
  1  6  1  0
  1  7  1  0
  2  3  1  0
  2  4  1  0
  3  9  1  0
  3 10  1  0
  3 11  1  0
  4 12  1  0
  8 13  1  0
 13 14  1  0
 13 15  1  0
 13 16  1  0
M  RAD  1   2   2
M  END
>  <reaction>  (9) 
rxn_752

>  <mol_properties>  (9) 
{"1": {"label": "*1", "atom_type": "Cs"}, "3": {"label": "*0", "atom_type": "O2s"}, "7": {"label": "*2", "atom_type": "H0"}, "12": {"label": "*3", "atom_type": "Cs"}, "13": {"label": "*4", "atom_type": "H0"}}

>  <type>  (9) 
unop_5

>  <geom_source>  (9) 
Heuristics

$$$$

     RDKit          3D

 16 14  0  0  0  0  0  0  0  0999 V2000
    0.1915    0.1352   -1.6214 C   0  0  0  0  0  0  0  0  0  0  0  0
    0.1915    0.1352   -0.1002 C   0  0  0  0  0  3  0  0  0  0  0  0
    0.1915    1.5433    0.4754 C   0  0  0  0  0  0  0  0  0  0  0  0
    1.2737   -0.6274    0.4120 O   0  0  0  0  0  0  0  0  0  0  0  0
    1.0761    0.6539   -2.0040 H   0  0  0  0  0  0  0  0  0  0  0  0
   -0.6901    0.6460   -2.0136 H   0  0  0  0  0  0  0  0  0  0  0  0
    0.2008   -0.8863   -2.0018 H   0  0  0  0  0  0  0  0  0  0  0  0
   -0.8765   -0.4963    0.3239 H   0  0  0  0  0  0  0  0  0  0  0  0
   -0.6901    2.0997    0.1510 H   0  0  0  0  0  0  0  0  0  0  0  0
    0.2008    1.5090    1.5649 H   0  0  0  0  0  0  0  0  0  0  0  0
    1.0761    2.0938    0.1400 H   0  0  0  0  0  0  0  0  0  0  0  0
    2.0925   -0.2117    0.1328 H   0  0  0  0  0  0  0  0  0  0  0  0
   -1.9408   -1.1257    0.7466 C   0  0  0  0  0  0  0  0  0  0  0  0
   -2.7590   -0.4168    0.8640 H   0  0  0  0  0  0  0  0  0  0  0  0
   -1.2890   -1.0752    1.6175 H   0  0  0  0  0  0  0  0  0  0  0  0
   -2.2882   -2.1517    0.6352 H   0  0  0  0  0  0  0  0  0  0  0  0
  1  2  1  0
  1  5  1  0
  1  6  1  0
  1  7  1  0
  2  3  1  0
  2  4  1  0
  3  9  1  0
  3 10  1  0
  3 11  1  0
  4 12  1  0
  8 13  1  0
 13 14  1  0
 13 15  1  0
 13 16  1  0
M  RAD  1   2   2
M  END
>  <reaction>  (10) 
rxn_752

>  <mol_properties>  (10) 
{"1": {"label": "*1", "atom_type": "Cs"}, "3": {"label": "*0", "atom_type": "O2s"}, "7": {"label": "*2", "atom_type": "H0"}, "12": {"label": "*3", "atom_type": "Cs"}, "13": {"label": "*4", "atom_type": "H0"}}

>  <type>  (10) 
unop_6

>  <geom_source>  (10) 
Heuristics

$$$$

     RDKit          3D

 16 14  0  0  0  0  0  0  0  0999 V2000
    0.1919    0.1380   -1.6225 C   0  0  0  0  0  0  0  0  0  0  0  0
    0.1919    0.1380   -0.1013 C   0  0  0  0  0  3  0  0  0  0  0  0
    0.1919    1.5461    0.4742 C   0  0  0  0  0  0  0  0  0  0  0  0
    1.2741   -0.6247    0.4109 O   0  0  0  0  0  0  0  0  0  0  0  0
    1.0765    0.6567   -2.0051 H   0  0  0  0  0  0  0  0  0  0  0  0
   -0.6897    0.6487   -2.0147 H   0  0  0  0  0  0  0  0  0  0  0  0
    0.2012   -0.8836   -2.0030 H   0  0  0  0  0  0  0  0  0  0  0  0
   -0.8760   -0.4936    0.3228 H   0  0  0  0  0  0  0  0  0  0  0  0
   -0.6897    2.1024    0.1499 H   0  0  0  0  0  0  0  0  0  0  0  0
    0.2012    1.5117    1.5638 H   0  0  0  0  0  0  0  0  0  0  0  0
    1.0765    2.0965    0.1389 H   0  0  0  0  0  0  0  0  0  0  0  0
    2.0929   -0.2090    0.1317 H   0  0  0  0  0  0  0  0  0  0  0  0
   -1.9403   -1.1229    0.7455 C   0  0  0  0  0  0  0  0  0  0  0  0
   -2.5456   -0.4479    1.3486 H   0  0  0  0  0  0  0  0  0  0  0  0
   -1.1277   -1.5210    1.3512 H   0  0  0  0  0  0  0  0  0  0  0  0
   -2.6917   -1.8707    0.4966 H   0  0  0  0  0  0  0  0  0  0  0  0
  1  2  1  0
  1  5  1  0
  1  6  1  0
  1  7  1  0
  2  3  1  0
  2  4  1  0
  3  9  1  0
  3 10  1  0
  3 11  1  0
  4 12  1  0
  8 13  1  0
 13 14  1  0
 13 15  1  0
 13 16  1  0
M  RAD  1   2   2
M  END
>  <reaction>  (11) 
rxn_752

>  <mol_properties>  (11) 
{"1": {"label": "*1", "atom_type": "Cs"}, "3": {"label": "*0", "atom_type": "O2s"}, "7": {"label": "*2", "atom_type": "H0"}, "12": {"label": "*3", "atom_type": "Cs"}, "13": {"label": "*4", "atom_type": "H0"}}

>  <type>  (11) 
unop_7

>  <geom_source>  (11) 
Heuristics

$$$$

     RDKit          3D

 16 14  0  0  0  0  0  0  0  0999 V2000
    0.1913    0.1361   -1.6212 C   0  0  0  0  0  0  0  0  0  0  0  0
    0.1913    0.1361   -0.1000 C   0  0  0  0  0  3  0  0  0  0  0  0
    0.1913    1.5442    0.4755 C   0  0  0  0  0  0  0  0  0  0  0  0
    1.2735   -0.6266    0.4122 O   0  0  0  0  0  0  0  0  0  0  0  0
    1.0759    0.6548   -2.0038 H   0  0  0  0  0  0  0  0  0  0  0  0
   -0.6902    0.6468   -2.0134 H   0  0  0  0  0  0  0  0  0  0  0  0
    0.2006   -0.8855   -2.0017 H   0  0  0  0  0  0  0  0  0  0  0  0
   -0.8766   -0.4955    0.3241 H   0  0  0  0  0  0  0  0  0  0  0  0
   -0.6902    2.1005    0.1512 H   0  0  0  0  0  0  0  0  0  0  0  0
    0.2006    1.5098    1.5651 H   0  0  0  0  0  0  0  0  0  0  0  0
    1.0759    2.0946    0.1402 H   0  0  0  0  0  0  0  0  0  0  0  0
    2.0923   -0.2109    0.1330 H   0  0  0  0  0  0  0  0  0  0  0  0
   -1.9409   -1.1249    0.7468 C   0  0  0  0  0  0  0  0  0  0  0  0
   -1.7140   -2.1834    0.8642 H   0  0  0  0  0  0  0  0  0  0  0  0
   -3.0177   -0.9927    0.6530 H   0  0  0  0  0  0  0  0  0  0  0  0
   -1.5921   -0.5260    1.5867 H   0  0  0  0  0  0  0  0  0  0  0  0
  1  2  1  0
  1  5  1  0
  1  6  1  0
  1  7  1  0
  2  3  1  0
  2  4  1  0
  3  9  1  0
  3 10  1  0
  3 11  1  0
  4 12  1  0
  8 13  1  0
 13 14  1  0
 13 15  1  0
 13 16  1  0
M  RAD  1   2   2
M  END
>  <reaction>  (12) 
rxn_752

>  <mol_properties>  (12) 
{"1": {"label": "*1", "atom_type": "Cs"}, "3": {"label": "*0", "atom_type": "O2s"}, "7": {"label": "*2", "atom_type": "H0"}, "12": {"label": "*3", "atom_type": "Cs"}, "13": {"label": "*4", "atom_type": "H0"}}

>  <type>  (12) 
unop_8

>  <geom_source>  (12) 
Heuristics

$$$$

     RDKit          3D

 16 14  0  0  0  0  0  0  0  0999 V2000
    0.1904    0.1321   -1.6173 C   0  0  0  0  0  0  0  0  0  0  0  0
    0.1904    0.1321   -0.0961 C   0  0  0  0  0  3  0  0  0  0  0  0
    0.1904    1.5402    0.4794 C   0  0  0  0  0  0  0  0  0  0  0  0
    1.2726   -0.6306    0.4160 O   0  0  0  0  0  0  0  0  0  0  0  0
    1.0750    0.6508   -2.0000 H   0  0  0  0  0  0  0  0  0  0  0  0
   -0.6912    0.6428   -2.0096 H   0  0  0  0  0  0  0  0  0  0  0  0
    0.1997   -0.8895   -1.9978 H   0  0  0  0  0  0  0  0  0  0  0  0
   -0.8776   -0.4994    0.3280 H   0  0  0  0  0  0  0  0  0  0  0  0
   -0.6912    2.0965    0.1551 H   0  0  0  0  0  0  0  0  0  0  0  0
    0.1997    1.5059    1.5690 H   0  0  0  0  0  0  0  0  0  0  0  0
    1.0750    2.0906    0.1440 H   0  0  0  0  0  0  0  0  0  0  0  0
    2.0914   -0.2149    0.1369 H   0  0  0  0  0  0  0  0  0  0  0  0
   -1.9419   -1.1288    0.7506 C   0  0  0  0  0  0  0  0  0  0  0  0
   -2.7463   -1.0082    0.0267 H   0  0  0  0  0  0  0  0  0  0  0  0
   -2.1033   -0.4526    1.5888 H   0  0  0  0  0  0  0  0  0  0  0  0
   -1.4077   -1.9580    1.2121 H   0  0  0  0  0  0  0  0  0  0  0  0
  1  2  1  0
  1  5  1  0
  1  6  1  0
  1  7  1  0
  2  3  1  0
  2  4  1  0
  3  9  1  0
  3 10  1  0
  3 11  1  0
  4 12  1  0
  8 13  1  0
 13 14  1  0
 13 15  1  0
 13 16  1  0
M  RAD  1   2   2
M  END
>  <reaction>  (13) 
rxn_752

>  <mol_properties>  (13) 
{"1": {"label": "*1", "atom_type": "Cs"}, "3": {"label": "*0", "atom_type": "O2s"}, "7": {"label": "*2", "atom_type": "H0"}, "12": {"label": "*3", "atom_type": "Cs"}, "13": {"label": "*4", "atom_type": "H0"}}

>  <type>  (13) 
unop_9

>  <geom_source>  (13) 
Heuristics

$$$$

     RDKit          3D

 16 14  0  0  0  0  0  0  0  0999 V2000
    0.1911    0.1360   -1.6183 C   0  0  0  0  0  0  0  0  0  0  0  0
    0.1911    0.1360   -0.0971 C   0  0  0  0  0  3  0  0  0  0  0  0
    0.1911    1.5441    0.4785 C   0  0  0  0  0  0  0  0  0  0  0  0
    1.2733   -0.6267    0.4151 O   0  0  0  0  0  0  0  0  0  0  0  0
    1.0757    0.6547   -2.0009 H   0  0  0  0  0  0  0  0  0  0  0  0
   -0.6905    0.6467   -2.0105 H   0  0  0  0  0  0  0  0  0  0  0  0
    0.2004   -0.8856   -1.9987 H   0  0  0  0  0  0  0  0  0  0  0  0
   -0.8768   -0.4955    0.3270 H   0  0  0  0  0  0  0  0  0  0  0  0
   -0.6905    2.1004    0.1541 H   0  0  0  0  0  0  0  0  0  0  0  0
    0.2004    1.5098    1.5681 H   0  0  0  0  0  0  0  0  0  0  0  0
    1.0757    2.0945    0.1431 H   0  0  0  0  0  0  0  0  0  0  0  0
    2.0921   -0.2110    0.1359 H   0  0  0  0  0  0  0  0  0  0  0  0
   -1.9411   -1.1249    0.7497 C   0  0  0  0  0  0  0  0  0  0  0  0
   -1.9271   -2.1496    0.3814 H   0  0  0  0  0  0  0  0  0  0  0  0
   -2.9720   -0.8047    0.8930 H   0  0  0  0  0  0  0  0  0  0  0  0
   -1.4094   -0.7444    1.6205 H   0  0  0  0  0  0  0  0  0  0  0  0
  1  2  1  0
  1  5  1  0
  1  6  1  0
  1  7  1  0
  2  3  1  0
  2  4  1  0
  3  9  1  0
  3 10  1  0
  3 11  1  0
  4 12  1  0
  8 13  1  0
 13 14  1  0
 13 15  1  0
 13 16  1  0
M  RAD  1   2   2
M  END
>  <reaction>  (14) 
rxn_752

>  <mol_properties>  (14) 
{"1": {"label": "*1", "atom_type": "Cs"}, "3": {"label": "*0", "atom_type": "O2s"}, "7": {"label": "*2", "atom_type": "H0"}, "12": {"label": "*3", "atom_type": "Cs"}, "13": {"label": "*4", "atom_type": "H0"}}

>  <type>  (14) 
unop_10

>  <geom_source>  (14) 
Heuristics

$$$$

     RDKit          3D

 16 14  0  0  0  0  0  0  0  0999 V2000
    0.1937    0.1406   -1.6215 C   0  0  0  0  0  0  0  0  0  0  0  0
    0.1937    0.1406   -0.1003 C   0  0  0  0  0  3  0  0  0  0  0  0
    0.1937    1.5487    0.4752 C   0  0  0  0  0  0  0  0  0  0  0  0
    1.2758   -0.6221    0.4119 O   0  0  0  0  0  0  0  0  0  0  0  0
    1.0782    0.6593   -2.0041 H   0  0  0  0  0  0  0  0  0  0  0  0
   -0.6879    0.6513   -2.0138 H   0  0  0  0  0  0  0  0  0  0  0  0
    0.2030   -0.8810   -2.0020 H   0  0  0  0  0  0  0  0  0  0  0  0
   -0.8743   -0.4910    0.3238 H   0  0  0  0  0  0  0  0  0  0  0  0
   -0.6879    2.1050    0.1509 H   0  0  0  0  0  0  0  0  0  0  0  0
    0.2030    1.5143    1.5648 H   0  0  0  0  0  0  0  0  0  0  0  0
    1.0782    2.0991    0.1398 H   0  0  0  0  0  0  0  0  0  0  0  0
    2.0947   -0.2064    0.1327 H   0  0  0  0  0  0  0  0  0  0  0  0
   -1.9386   -1.1204    0.7465 C   0  0  0  0  0  0  0  0  0  0  0  0
   -2.2480   -0.7070    1.7052 H   0  0  0  0  0  0  0  0  0  0  0  0
   -1.2687   -1.9625    0.9135 H   0  0  0  0  0  0  0  0  0  0  0  0
   -2.9752   -1.3538    0.5084 H   0  0  0  0  0  0  0  0  0  0  0  0
  1  2  1  0
  1  5  1  0
  1  6  1  0
  1  7  1  0
  2  3  1  0
  2  4  1  0
  3  9  1  0
  3 10  1  0
  3 11  1  0
  4 12  1  0
  8 13  1  0
 13 14  1  0
 13 15  1  0
 13 16  1  0
M  RAD  1   2   2
M  END
>  <reaction>  (15) 
rxn_752

>  <mol_properties>  (15) 
{"1": {"label": "*1", "atom_type": "Cs"}, "3": {"label": "*0", "atom_type": "O2s"}, "7": {"label": "*2", "atom_type": "H0"}, "12": {"label": "*3", "atom_type": "Cs"}, "13": {"label": "*4", "atom_type": "H0"}}

>  <type>  (15) 
unop_11

>  <geom_source>  (15) 
Heuristics

$$$$

     RDKit          3D

 16 14  0  0  0  0  0  0  0  0999 V2000
    0.1908    0.1322   -1.6160 C   0  0  0  0  0  0  0  0  0  0  0  0
    0.1908    0.1322   -0.0948 C   0  0  0  0  0  3  0  0  0  0  0  0
    0.1908    1.5403    0.4807 C   0  0  0  0  0  0  0  0  0  0  0  0
    1.2730   -0.6305    0.4174 O   0  0  0  0  0  0  0  0  0  0  0  0
    1.0754    0.6509   -1.9986 H   0  0  0  0  0  0  0  0  0  0  0  0
   -0.6907    0.6429   -2.0082 H   0  0  0  0  0  0  0  0  0  0  0  0
    0.2001   -0.8894   -1.9964 H   0  0  0  0  0  0  0  0  0  0  0  0
   -0.8771   -0.4994    0.3293 H   0  0  0  0  0  0  0  0  0  0  0  0
   -0.6907    2.0966    0.1564 H   0  0  0  0  0  0  0  0  0  0  0  0
    0.2002    1.5059    1.5703 H   0  0  0  0  0  0  0  0  0  0  0  0
    1.0754    2.0907    0.1454 H   0  0  0  0  0  0  0  0  0  0  0  0
    2.0918   -0.2148    0.1382 H   0  0  0  0  0  0  0  0  0  0  0  0
   -1.9414   -1.1288    0.7520 C   0  0  0  0  0  0  0  0  0  0  0  0
   -2.5229   -1.4726   -0.1021 H   0  0  0  0  0  0  0  0  0  0  0  0
   -2.5467   -0.4538    1.3551 H   0  0  0  0  0  0  0  0  0  0  0  0
   -1.2185   -1.4975    1.4781 H   0  0  0  0  0  0  0  0  0  0  0  0
  1  2  1  0
  1  5  1  0
  1  6  1  0
  1  7  1  0
  2  3  1  0
  2  4  1  0
  3  9  1  0
  3 10  1  0
  3 11  1  0
  4 12  1  0
  8 13  1  0
 13 14  1  0
 13 15  1  0
 13 16  1  0
M  RAD  1   2   2
M  END
>  <reaction>  (16) 
rxn_752

>  <mol_properties>  (16) 
{"1": {"label": "*1", "atom_type": "Cs"}, "3": {"label": "*0", "atom_type": "O2s"}, "7": {"label": "*2", "atom_type": "H0"}, "12": {"label": "*3", "atom_type": "Cs"}, "13": {"label": "*4", "atom_type": "H0"}}

>  <type>  (16) 
unop_12

>  <geom_source>  (16) 
Heuristics

$$$$

     RDKit          3D

 16 14  0  0  0  0  0  0  0  0999 V2000
   -0.1783   -0.6675    1.4695 O   0  0  0  0  0  0  0  0  0  0  0  0
   -1.4294    1.0307    0.3374 C   0  0  0  0  0  0  0  0  0  0  0  0
   -0.9218   -1.1913   -0.7449 C   0  0  0  0  0  0  0  0  0  0  0  0
    2.0913    0.3747   -0.2146 C   0  0  0  0  0  0  0  0  0  0  0  0
   -0.4262   -0.1116    0.2121 C   0  0  0  0  0  3  0  0  0  0  0  0
   -2.3953    0.6587    0.7417 H   0  0  0  0  0  0  0  0  0  0  0  0
   -1.6018    1.4963   -0.6558 H   0  0  0  0  0  0  0  0  0  0  0  0
   -1.0258    1.8052    1.0228 H   0  0  0  0  0  0  0  0  0  0  0  0
   -1.0867   -0.7585   -1.7541 H   0  0  0  0  0  0  0  0  0  0  0  0
   -1.8715   -1.6339   -0.3750 H   0  0  0  0  0  0  0  0  0  0  0  0
   -0.1582   -1.9929   -0.8272 H   0  0  0  0  0  0  0  0  0  0  0  0
    2.4803    1.3383   -0.6031 H   0  0  0  0  0  0  0  0  0  0  0  0
    2.6031    0.1263    0.7378 H   0  0  0  0  0  0  0  0  0  0  0  0
    2.2820   -0.4274   -0.9570 H   0  0  0  0  0  0  0  0  0  0  0  0
    0.8488    0.4736   -0.0115 H   0  0  0  0  0  0  0  0  0  0  0  0
    0.7895   -0.5207    1.6221 H   0  0  0  0  0  0  0  0  0  0  0  0
  1  5  1  0
  1 16  1  0
  2  5  1  0
  2  6  1  0
  2  7  1  0
  2  8  1  0
  3  5  1  0
  3  9  1  0
  3 10  1  0
  3 11  1  0
  4 12  1  0
  4 13  1  0
  4 14  1  0
  4 15  1  0
M  RAD  1   5   2
M  END
>  <reaction>  (17) 
rxn_752

>  <mol_properties>  (17) 
{"1": {"label": "*1", "atom_type": "Cs"}, "3": {"label": "*0", "atom_type": "O2s"}, "7": {"label": "*2", "atom_type": "H0"}, "12": {"label": "*3", "atom_type": "Cs"}, "13": {"label": "*4", "atom_type": "H0"}}

>  <type>  (17) 
unop_13

>  <geom_source>  (17) 
AutoTST

$$$$

     RDKit          3D

 16 14  0  0  0  0  0  0  0  0999 V2000
    0.1913    0.1341   -1.6161 C   0  0  0  0  0  0  0  0  0  0  0  0
    0.1913    0.1341   -0.0950 C   0  0  0  0  0  3  0  0  0  0  0  0
    0.1913    1.5422    0.4806 C   0  0  0  0  0  0  0  0  0  0  0  0
    1.2735   -0.6286    0.4173 O   0  0  0  0  0  0  0  0  0  0  0  0
    1.0759    0.6528   -1.9988 H   0  0  0  0  0  0  0  0  0  0  0  0
   -0.6903    0.6448   -2.0084 H   0  0  0  0  0  0  0  0  0  0  0  0
    0.2006   -0.8875   -1.9966 H   0  0  0  0  0  0  0  0  0  0  0  0
   -0.8766   -0.4975    0.3292 H   0  0  0  0  0  0  0  0  0  0  0  0
   -0.6903    2.0985    0.1562 H   0  0  0  0  0  0  0  0  0  0  0  0
    0.2006    1.5078    1.5702 H   0  0  0  0  0  0  0  0  0  0  0  0
    1.0759    2.0926    0.1452 H   0  0  0  0  0  0  0  0  0  0  0  0
    2.0923   -0.2129    0.1381 H   0  0  0  0  0  0  0  0  0  0  0  0
   -1.9409   -1.1268    0.7519 C   0  0  0  0  0  0  0  0  0  0  0  0
   -2.2228   -1.8899    0.0279 H   0  0  0  0  0  0  0  0  0  0  0  0
   -2.8350   -0.6201    1.1119 H   0  0  0  0  0  0  0  0  0  0  0  0
   -1.2647   -1.0513    1.6020 H   0  0  0  0  0  0  0  0  0  0  0  0
  1  2  1  0
  1  5  1  0
  1  6  1  0
  1  7  1  0
  2  3  1  0
  2  4  1  0
  3  9  1  0
  3 10  1  0
  3 11  1  0
  4 12  1  0
  8 13  1  0
 13 14  1  0
 13 15  1  0
 13 16  1  0
M  RAD  1   2   2
M  END
>  <reaction>  (18) 
rxn_752

>  <mol_properties>  (18) 
{"1": {"label": "*1", "atom_type": "Cs"}, "3": {"label": "*0", "atom_type": "O2s"}, "7": {"label": "*2", "atom_type": "H0"}, "12": {"label": "*3", "atom_type": "Cs"}, "13": {"label": "*4", "atom_type": "H0"}}

>  <type>  (18) 
unop_14

>  <geom_source>  (18) 
gaussian_log

$$$$
