
     RDKit          3D

 19 20  0  0  0  0  0  0  0  0999 V2000
    1.1087   -0.4716   -0.9619 C   0  0  0  0  0  0  0  0  0  0  0  0
    0.9355    1.0407   -0.6470 C   0  0  0  0  0  0  0  0  0  0  0  0
   -0.0085    1.0377    0.5657 C   0  0  0  0  0  0  0  0  0  0  0  0
   -1.4093    0.6181    0.0927 C   0  0  0  0  0  0  0  0  0  0  0  0
   -1.2361   -0.8942   -0.2222 C   0  0  0  0  0  0  0  0  0  0  0  0
    0.2422   -1.1516    0.1099 C   0  0  0  0  0  0  0  0  0  0  0  0
    0.4537   -0.2211    1.3118 C   0  0  0  0  0  0  0  0  0  0  0  0
    2.1524   -0.7752   -0.8653 H   0  0  0  0  0  0  0  0  0  0  0  0
    0.7855   -0.7316   -1.9710 H   0  0  0  0  0  0  0  0  0  0  0  0
    1.8918    1.5001   -0.3916 H   0  0  0  0  0  0  0  0  0  0  0  0
    0.5184    1.6005   -1.4855 H   0  0  0  0  0  0  0  0  0  0  0  0
    0.0038    1.9661    1.1351 H   0  0  0  0  0  0  0  0  0  0  0  0
   -1.7351    1.1944   -0.7746 H   0  0  0  0  0  0  0  0  0  0  0  0
   -2.1465    0.7723    0.8824 H   0  0  0  0  0  0  0  0  0  0  0  0
   -1.4680   -1.1377   -1.2601 H   0  0  0  0  0  0  0  0  0  0  0  0
   -1.8859   -1.5030    0.4087 H   0  0  0  0  0  0  0  0  0  0  0  0
    0.4812   -2.2025    0.2673 H   0  0  0  0  0  0  0  0  0  0  0  0
    1.4942   -0.1701    1.6391 H   0  0  0  0  0  0  0  0  0  0  0  0
   -0.1779   -0.4714    2.1666 H   0  0  0  0  0  0  0  0  0  0  0  0
  1  2  1  0
  1  6  1  0
  1  8  1  0
  1  9  1  0
  2  3  1  0
  2 10  1  0
  2 11  1  0
  3  4  1  0
  3  7  1  0
  3 12  1  0
  4  5  1  0
  4 13  1  0
  4 14  1  0
  5  6  1  0
  5 15  1  0
  5 16  1  0
  6  7  1  0
  6 17  1  0
  7 18  1  0
  7 19  1  0
M  END
>  <reaction>  (1) 
rxn_553

>  <mol_properties>  (1) 
{"6": {"label": "donator", "atom_type": "Cs"}, "17": {"label": "d_hydrogen", "atom_type": "H0"}}

>  <type>  (1) 
r1h

$$$$

     RDKit          3D

 11 11  0  0  0  0  0  0  0  0999 V2000
    0.1524   -1.5397    0.0698 C   0  0  0  0  0  3  0  0  0  0  0  0
   -1.1218   -1.0406    0.0516 C   0  0  0  0  0  0  0  0  0  0  0  0
   -1.2464    0.3470   -0.0114 C   0  0  0  0  0  0  0  0  0  0  0  0
   -0.1137    1.1487   -0.0521 C   0  0  0  0  0  0  0  0  0  0  0  0
    1.1542    0.5837   -0.0308 C   0  0  0  0  0  0  0  0  0  0  0  0
    1.3041   -0.8014    0.0319 C   0  0  0  0  0  0  0  0  0  0  0  0
   -1.9955   -1.6793    0.0840 H   0  0  0  0  0  0  0  0  0  0  0  0
   -2.2319    0.7966   -0.0284 H   0  0  0  0  0  0  0  0  0  0  0  0
   -0.2203    2.2248   -0.1009 H   0  0  0  0  0  0  0  0  0  0  0  0
    2.0325    1.2173   -0.0630 H   0  0  0  0  0  0  0  0  0  0  0  0
    2.2862   -1.2570    0.0492 H   0  0  0  0  0  0  0  0  0  0  0  0
  1  2  2  0
  1  6  1  0
  2  3  1  0
  2  7  1  0
  3  4  2  0
  3  8  1  0
  4  5  1  0
  4  9  1  0
  5  6  2  0
  5 10  1  0
  6 11  1  0
M  RAD  1   1   2
M  END
>  <reaction>  (2) 
rxn_553

>  <mol_properties>  (2) 
{"0": {"label": "acceptor", "atom_type": "Cd"}}

>  <type>  (2) 
r2

$$$$

     RDKit          3D

 12 12  0  0  0  0  0  0  0  0999 V2000
   -1.2385    0.6248   -0.0199 C   0  0  0  0  0  0  0  0  0  0  0  0
   -0.0779    1.3848   -0.0298 C   0  0  0  0  0  0  0  0  0  0  0  0
    1.1605    0.7600   -0.0100 C   0  0  0  0  0  0  0  0  0  0  0  0
    1.2385   -0.6248    0.0199 C   0  0  0  0  0  0  0  0  0  0  0  0
    0.0779   -1.3848    0.0298 C   0  0  0  0  0  0  0  0  0  0  0  0
   -1.1606   -0.7600    0.0100 C   0  0  0  0  0  0  0  0  0  0  0  0
   -2.2052    1.1125   -0.0354 H   0  0  0  0  0  0  0  0  0  0  0  0
   -0.1387    2.4657   -0.0531 H   0  0  0  0  0  0  0  0  0  0  0  0
    2.0664    1.3532   -0.0177 H   0  0  0  0  0  0  0  0  0  0  0  0
    2.2052   -1.1125    0.0354 H   0  0  0  0  0  0  0  0  0  0  0  0
    0.1387   -2.4657    0.0531 H   0  0  0  0  0  0  0  0  0  0  0  0
   -2.0664   -1.3532    0.0177 H   0  0  0  0  0  0  0  0  0  0  0  0
  1  2  2  0
  1  6  1  0
  1  7  1  0
  2  3  1  0
  2  8  1  0
  3  4  2  0
  3  9  1  0
  4  5  1  0
  4 10  1  0
  5  6  2  0
  5 11  1  0
  6 12  1  0
M  END
>  <reaction>  (3) 
rxn_553

>  <mol_properties>  (3) 
{"0": {"label": "acceptor", "atom_type": "Cd"}, "11": {"label": "a_hydrogen", "atom_type": "H0"}}

>  <type>  (3) 
r2h

$$$$

     RDKit          3D

 30 31  0  0  0  0  0  0  0  0999 V2000
   -1.3982    0.1700    0.1190 C   0  0  0  0  0  3  0  0  0  0  0  0
   -2.0633    0.1347   -1.0874 C   0  0  0  0  0  0  0  0  0  0  0  0
   -3.3325   -0.4322   -1.1324 C   0  0  0  0  0  0  0  0  0  0  0  0
   -3.9026   -0.9494    0.0228 C   0  0  0  0  0  0  0  0  0  0  0  0
   -3.2118   -0.9049    1.2260 C   0  0  0  0  0  0  0  0  0  0  0  0
   -1.9423   -0.3395    1.2780 C   0  0  0  0  0  0  0  0  0  0  0  0
   -1.6089    0.5393   -1.9846 H   0  0  0  0  0  0  0  0  0  0  0  0
   -3.8758   -0.4707   -2.0689 H   0  0  0  0  0  0  0  0  0  0  0  0
   -4.8906   -1.3907   -0.0151 H   0  0  0  0  0  0  0  0  0  0  0  0
   -3.6612   -1.3112    2.1242 H   0  0  0  0  0  0  0  0  0  0  0  0
   -1.3941   -0.3020    2.2125 H   0  0  0  0  0  0  0  0  0  0  0  0
    1.7387   -0.7911   -1.0263 C   0  0  0  0  0  0  0  0  0  0  0  0
    1.8163   -1.0952    0.4955 C   0  0  0  0  0  0  0  0  0  0  0  0
    1.9458    0.3013    1.1260 C   0  0  0  0  0  0  0  0  0  0  0  0
    3.3506    0.8498    0.8070 C   0  0  0  0  0  0  0  0  0  0  0  0
    3.2729    1.1543   -0.7167 C   0  0  0  0  0  0  0  0  0  0  0  0
    1.8332    0.7427   -1.0825 C   0  0  0  0  0  0  0  0  0  0  0  0
    1.0916    1.1431    0.1866 C   0  0  0  0  0  0  0  0  0  0  0  0
    0.7908   -1.1353   -1.4418 H   0  0  0  0  0  0  0  0  0  0  0  0
    2.5406   -1.2661   -1.5930 H   0  0  0  0  0  0  0  0  0  0  0  0
    0.9071   -1.5909    0.8379 H   0  0  0  0  0  0  0  0  0  0  0  0
    2.6605   -1.7354    0.7554 H   0  0  0  0  0  0  0  0  0  0  0  0
    1.6879    0.3388    2.1832 H   0  0  0  0  0  0  0  0  0  0  0  0
    4.1313    0.1281    1.0537 H   0  0  0  0  0  0  0  0  0  0  0  0
    3.5505    1.7574    1.3783 H   0  0  0  0  0  0  0  0  0  0  0  0
    4.0114    0.5978   -1.2964 H   0  0  0  0  0  0  0  0  0  0  0  0
    3.4337    2.2154   -0.9130 H   0  0  0  0  0  0  0  0  0  0  0  0
    1.4738    1.1776   -2.0138 H   0  0  0  0  0  0  0  0  0  0  0  0
   -0.1141    0.7160    0.1627 H   0  0  0  0  0  0  0  0  0  0  0  0
    1.0280    2.2100    0.4030 H   0  0  0  0  0  0  0  0  0  0  0  0
  1  2  2  0
  1  6  1  0
  2  3  1  0
  2  7  1  0
  3  4  2  0
  3  8  1  0
  4  5  1  0
  4  9  1  0
  5  6  2  0
  5 10  1  0
  6 11  1  0
 12 13  1  0
 12 17  1  0
 12 19  1  0
 12 20  1  0
 13 14  1  0
 13 21  1  0
 13 22  1  0
 14 15  1  0
 14 18  1  0
 14 23  1  0
 15 16  1  0
 15 24  1  0
 15 25  1  0
 16 17  1  0
 16 26  1  0
 16 27  1  0
 17 18  1  0
 17 28  1  0
 18 29  1  0
 18 30  1  0
M  RAD  1   1   2
M  END
>  <reaction>  (4) 
rxn_553

>  <mol_properties>  (4) 
{"0": {"label": "*3", "atom_type": "Cd"}, "1": {"label": "*4", "atom_type": "Cd"}, "13": {"label": "*0", "atom_type": "Cs"}, "17": {"label": "*1", "atom_type": "Cs"}, "28": {"label": "*2", "atom_type": "H0"}}

>  <type>  (4) 
ts

$$$$

     RDKit          3D

 30 31  0  0  0  0  0  0  0  0999 V2000
   -1.4802   -0.0367    0.3721 C   0  0  0  0  0  0  0  0  0  0  0  0
   -2.5548    0.8280    0.5200 C   0  0  0  0  0  0  0  0  0  0  0  0
   -3.6682    0.6970   -0.2971 C   0  0  0  0  0  0  0  0  0  0  0  0
   -3.7069   -0.2988   -1.2623 C   0  0  0  0  0  0  0  0  0  0  0  0
   -2.6323   -1.1636   -1.4102 C   0  0  0  0  0  0  0  0  0  0  0  0
   -1.5189   -1.0326   -0.5930 C   0  0  0  0  0  0  0  0  0  0  0  0
   -2.5246    1.6053    1.2733 H   0  0  0  0  0  0  0  0  0  0  0  0
   -4.5070    1.3720   -0.1817 H   0  0  0  0  0  0  0  0  0  0  0  0
   -4.5760   -0.4011   -1.9001 H   0  0  0  0  0  0  0  0  0  0  0  0
   -2.6625   -1.9409   -2.1635 H   0  0  0  0  0  0  0  0  0  0  0  0
   -0.6801   -1.7076   -0.7085 H   0  0  0  0  0  0  0  0  0  0  0  0
    1.8260   -1.1759   -0.4051 C   0  0  0  0  0  0  0  0  0  0  0  0
    1.8260   -1.1759    1.1493 C   0  0  0  0  0  0  0  0  0  0  0  0
    1.8260    0.3210    1.4972 C   0  0  0  0  0  0  0  0  0  0  0  0
    3.2053    0.9029    1.1493 C   0  0  0  0  0  0  0  0  0  0  0  0
    3.2053    0.9029   -0.4051 C   0  0  0  0  0  0  0  0  0  0  0  0
    1.8260    0.3210   -0.7531 C   0  0  0  0  0  0  0  0  0  0  0  0
    0.9565    0.8980    0.3721 C   0  0  0  0  0  3  0  0  0  0  0  0
    0.9323   -1.6642   -0.7972 H   0  0  0  0  0  0  0  0  0  0  0  0
    2.6905   -1.6912   -0.8265 H   0  0  0  0  0  0  0  0  0  0  0  0
    0.9323   -1.6642    1.5414 H   0  0  0  0  0  0  0  0  0  0  0  0
    2.6905   -1.6912    1.5706 H   0  0  0  0  0  0  0  0  0  0  0  0
    1.5016    0.5363    2.5144 H   0  0  0  0  0  0  0  0  0  0  0  0
    4.0161    0.3067    1.5706 H   0  0  0  0  0  0  0  0  0  0  0  0
    3.3077    1.9161    1.5414 H   0  0  0  0  0  0  0  0  0  0  0  0
    4.0161    0.3067   -0.8265 H   0  0  0  0  0  0  0  0  0  0  0  0
    3.3077    1.9161   -0.7972 H   0  0  0  0  0  0  0  0  0  0  0  0
    1.5016    0.5363   -1.7703 H   0  0  0  0  0  0  0  0  0  0  0  0
   -0.2669    0.4287    0.3721 H   0  0  0  0  0  0  0  0  0  0  0  0
    0.9205    1.9893    0.3721 H   0  0  0  0  0  0  0  0  0  0  0  0
  1  2  2  0
  1  6  1  0
  1 29  1  0
  2  3  1  0
  2  7  1  0
  3  4  2  0
  3  8  1  0
  4  5  1  0
  4  9  1  0
  5  6  2  0
  5 10  1  0
  6 11  1  0
 12 13  1  0
 12 17  1  0
 12 19  1  0
 12 20  1  0
 13 14  1  0
 13 21  1  0
 13 22  1  0
 14 15  1  0
 14 18  1  0
 14 23  1  0
 15 16  1  0
 15 24  1  0
 15 25  1  0
 16 17  1  0
 16 26  1  0
 16 27  1  0
 17 18  1  0
 17 28  1  0
 18 30  1  0
M  RAD  1  18   2
M  END
>  <reaction>  (5) 
rxn_553

>  <mol_properties>  (5) 
{"0": {"label": "*3", "atom_type": "Cd"}, "1": {"label": "*4", "atom_type": "Cd"}, "13": {"label": "*0", "atom_type": "Cs"}, "17": {"label": "*1", "atom_type": "Cs"}, "28": {"label": "*2", "atom_type": "H0"}}

>  <type>  (5) 
unop_1

>  <geom_source>  (5) 
Heuristics

$$$$

     RDKit          3D

 30 31  0  0  0  0  0  0  0  0999 V2000
   -1.3597   -0.0316   -0.0336 C   0  0  0  0  0  0  0  0  0  0  0  0
   -1.9543   -0.4182    1.1587 C   0  0  0  0  0  0  0  0  0  0  0  0
   -3.3323   -0.5604    1.2324 C   0  0  0  0  0  0  0  0  0  0  0  0
   -4.1157   -0.3161    0.1138 C   0  0  0  0  0  0  0  0  0  0  0  0
   -3.5210    0.0704   -1.0784 C   0  0  0  0  0  0  0  0  0  0  0  0
   -2.1430    0.2127   -1.1522 C   0  0  0  0  0  0  0  0  0  0  0  0
   -1.3428   -0.6089    2.0319 H   0  0  0  0  0  0  0  0  0  0  0  0
   -3.7965   -0.8622    2.1631 H   0  0  0  0  0  0  0  0  0  0  0  0
   -5.1913   -0.4272    0.1714 H   0  0  0  0  0  0  0  0  0  0  0  0
   -4.1325    0.2611   -1.9515 H   0  0  0  0  0  0  0  0  0  0  0  0
   -1.6789    0.5144   -2.0828 H   0  0  0  0  0  0  0  0  0  0  0  0
    1.9465   -1.1708   -0.8107 C   0  0  0  0  0  0  0  0  0  0  0  0
    1.9465   -1.1708    0.7436 C   0  0  0  0  0  0  0  0  0  0  0  0
    1.9465    0.3261    1.0916 C   0  0  0  0  0  0  0  0  0  0  0  0
    3.3258    0.9080    0.7436 C   0  0  0  0  0  0  0  0  0  0  0  0
    3.3258    0.9080   -0.8108 C   0  0  0  0  0  0  0  0  0  0  0  0
    1.9465    0.3261   -1.1587 C   0  0  0  0  0  0  0  0  0  0  0  0
    1.0769    0.9031   -0.0336 C   0  0  0  0  0  3  0  0  0  0  0  0
    1.0528   -1.6591   -1.2029 H   0  0  0  0  0  0  0  0  0  0  0  0
    2.8110   -1.6861   -1.2321 H   0  0  0  0  0  0  0  0  0  0  0  0
    1.0528   -1.6591    1.1358 H   0  0  0  0  0  0  0  0  0  0  0  0
    2.8110   -1.6861    1.1650 H   0  0  0  0  0  0  0  0  0  0  0  0
    1.6221    0.5414    2.1088 H   0  0  0  0  0  0  0  0  0  0  0  0
    4.1366    0.3118    1.1650 H   0  0  0  0  0  0  0  0  0  0  0  0
    3.4282    1.9212    1.1358 H   0  0  0  0  0  0  0  0  0  0  0  0
    4.1366    0.3118   -1.2321 H   0  0  0  0  0  0  0  0  0  0  0  0
    3.4282    1.9212   -1.2029 H   0  0  0  0  0  0  0  0  0  0  0  0
    1.6221    0.5414   -2.1759 H   0  0  0  0  0  0  0  0  0  0  0  0
   -0.1465    0.4338   -0.0336 H   0  0  0  0  0  0  0  0  0  0  0  0
    1.0410    1.9944   -0.0336 H   0  0  0  0  0  0  0  0  0  0  0  0
  1  2  2  0
  1  6  1  0
  1 29  1  0
  2  3  1  0
  2  7  1  0
  3  4  2  0
  3  8  1  0
  4  5  1  0
  4  9  1  0
  5  6  2  0
  5 10  1  0
  6 11  1  0
 12 13  1  0
 12 17  1  0
 12 19  1  0
 12 20  1  0
 13 14  1  0
 13 21  1  0
 13 22  1  0
 14 15  1  0
 14 18  1  0
 14 23  1  0
 15 16  1  0
 15 24  1  0
 15 25  1  0
 16 17  1  0
 16 26  1  0
 16 27  1  0
 17 18  1  0
 17 28  1  0
 18 30  1  0
M  RAD  1  18   2
M  END
>  <reaction>  (6) 
rxn_553

>  <mol_properties>  (6) 
{"0": {"label": "*3", "atom_type": "Cd"}, "1": {"label": "*4", "atom_type": "Cd"}, "13": {"label": "*0", "atom_type": "Cs"}, "17": {"label": "*1", "atom_type": "Cs"}, "28": {"label": "*2", "atom_type": "H0"}}

>  <type>  (6) 
unop_2

>  <geom_source>  (6) 
Heuristics

$$$$

     RDKit          3D

 30 31  0  0  0  0  0  0  0  0999 V2000
   -1.5087    0.1697    0.3152 C   0  0  0  0  0  0  0  0  0  0  0  0
   -2.5526    0.9544   -0.1529 C   0  0  0  0  0  0  0  0  0  0  0  0
   -3.6033    0.3700   -0.8450 C   0  0  0  0  0  0  0  0  0  0  0  0
   -3.6102   -0.9991   -1.0691 C   0  0  0  0  0  0  0  0  0  0  0  0
   -2.5662   -1.7837   -0.6011 C   0  0  0  0  0  0  0  0  0  0  0  0
   -1.5155   -1.1994    0.0911 C   0  0  0  0  0  0  0  0  0  0  0  0
   -2.5473    2.0230    0.0221 H   0  0  0  0  0  0  0  0  0  0  0  0
   -4.4182    0.9825   -1.2103 H   0  0  0  0  0  0  0  0  0  0  0  0
   -4.4303   -1.4552   -1.6094 H   0  0  0  0  0  0  0  0  0  0  0  0
   -2.5715   -2.8523   -0.7760 H   0  0  0  0  0  0  0  0  0  0  0  0
   -0.7006   -1.8119    0.4564 H   0  0  0  0  0  0  0  0  0  0  0  0
    1.7975   -0.9695   -0.4620 C   0  0  0  0  0  0  0  0  0  0  0  0
    1.7975   -0.9695    1.0923 C   0  0  0  0  0  0  0  0  0  0  0  0
    1.7975    0.5274    1.4403 C   0  0  0  0  0  0  0  0  0  0  0  0
    3.1767    1.1093    1.0923 C   0  0  0  0  0  0  0  0  0  0  0  0
    3.1767    1.1093   -0.4620 C   0  0  0  0  0  0  0  0  0  0  0  0
    1.7975    0.5274   -0.8100 C   0  0  0  0  0  0  0  0  0  0  0  0
    0.9279    1.1044    0.3152 C   0  0  0  0  0  3  0  0  0  0  0  0
    0.9038   -1.4577   -0.8542 H   0  0  0  0  0  0  0  0  0  0  0  0
    2.6620   -1.4848   -0.8834 H   0  0  0  0  0  0  0  0  0  0  0  0
    0.9038   -1.4577    1.4845 H   0  0  0  0  0  0  0  0  0  0  0  0
    2.6620   -1.4848    1.5137 H   0  0  0  0  0  0  0  0  0  0  0  0
    1.4731    0.7427    2.4575 H   0  0  0  0  0  0  0  0  0  0  0  0
    3.9875    0.5131    1.5137 H   0  0  0  0  0  0  0  0  0  0  0  0
    3.2792    2.1225    1.4845 H   0  0  0  0  0  0  0  0  0  0  0  0
    3.9875    0.5131   -0.8834 H   0  0  0  0  0  0  0  0  0  0  0  0
    3.2792    2.1225   -0.8542 H   0  0  0  0  0  0  0  0  0  0  0  0
    1.4731    0.7427   -1.8272 H   0  0  0  0  0  0  0  0  0  0  0  0
   -0.2955    0.6351    0.3152 H   0  0  0  0  0  0  0  0  0  0  0  0
    0.8920    2.1957    0.3152 H   0  0  0  0  0  0  0  0  0  0  0  0
  1  2  2  0
  1  6  1  0
  1 29  1  0
  2  3  1  0
  2  7  1  0
  3  4  2  0
  3  8  1  0
  4  5  1  0
  4  9  1  0
  5  6  2  0
  5 10  1  0
  6 11  1  0
 12 13  1  0
 12 17  1  0
 12 19  1  0
 12 20  1  0
 13 14  1  0
 13 21  1  0
 13 22  1  0
 14 15  1  0
 14 18  1  0
 14 23  1  0
 15 16  1  0
 15 24  1  0
 15 25  1  0
 16 17  1  0
 16 26  1  0
 16 27  1  0
 17 18  1  0
 17 28  1  0
 18 30  1  0
M  RAD  1  18   2
M  END
>  <reaction>  (7) 
rxn_553

>  <mol_properties>  (7) 
{"0": {"label": "*3", "atom_type": "Cd"}, "1": {"label": "*4", "atom_type": "Cd"}, "13": {"label": "*0", "atom_type": "Cs"}, "17": {"label": "*1", "atom_type": "Cs"}, "28": {"label": "*2", "atom_type": "H0"}}

>  <type>  (7) 
unop_3

>  <geom_source>  (7) 
Heuristics

$$$$

     RDKit          3D

 30 31  0  0  0  0  0  0  0  0999 V2000
   -1.4675    0.1092    0.2945 C   0  0  0  0  0  0  0  0  0  0  0  0
   -1.6881   -1.2524    0.1465 C   0  0  0  0  0  0  0  0  0  0  0  0
   -2.8293   -1.7040   -0.5002 C   0  0  0  0  0  0  0  0  0  0  0  0
   -3.7500   -0.7939   -0.9989 C   0  0  0  0  0  0  0  0  0  0  0  0
   -3.5294    0.5677   -0.8509 C   0  0  0  0  0  0  0  0  0  0  0  0
   -2.3881    1.0193   -0.2043 C   0  0  0  0  0  0  0  0  0  0  0  0
   -0.9694   -1.9628    0.5358 H   0  0  0  0  0  0  0  0  0  0  0  0
   -3.0015   -2.7668   -0.6157 H   0  0  0  0  0  0  0  0  0  0  0  0
   -4.6408   -1.1464   -1.5037 H   0  0  0  0  0  0  0  0  0  0  0  0
   -4.2480    1.2781   -1.2402 H   0  0  0  0  0  0  0  0  0  0  0  0
   -2.2159    2.0821   -0.0888 H   0  0  0  0  0  0  0  0  0  0  0  0
    1.8387   -1.0300   -0.4827 C   0  0  0  0  0  0  0  0  0  0  0  0
    1.8387   -1.0300    1.0716 C   0  0  0  0  0  0  0  0  0  0  0  0
    1.8387    0.4669    1.4196 C   0  0  0  0  0  0  0  0  0  0  0  0
    3.2180    1.0488    1.0716 C   0  0  0  0  0  0  0  0  0  0  0  0
    3.2180    1.0488   -0.4827 C   0  0  0  0  0  0  0  0  0  0  0  0
    1.8387    0.4669   -0.8307 C   0  0  0  0  0  0  0  0  0  0  0  0
    0.9691    1.0439    0.2945 C   0  0  0  0  0  3  0  0  0  0  0  0
    0.9450   -1.5182   -0.8749 H   0  0  0  0  0  0  0  0  0  0  0  0
    2.7032   -1.5453   -0.9041 H   0  0  0  0  0  0  0  0  0  0  0  0
    0.9450   -1.5182    1.4638 H   0  0  0  0  0  0  0  0  0  0  0  0
    2.7032   -1.5453    1.4930 H   0  0  0  0  0  0  0  0  0  0  0  0
    1.5143    0.6822    2.4368 H   0  0  0  0  0  0  0  0  0  0  0  0
    4.0288    0.4526    1.4930 H   0  0  0  0  0  0  0  0  0  0  0  0
    3.3204    2.0620    1.4638 H   0  0  0  0  0  0  0  0  0  0  0  0
    4.0288    0.4526   -0.9041 H   0  0  0  0  0  0  0  0  0  0  0  0
    3.3204    2.0620   -0.8749 H   0  0  0  0  0  0  0  0  0  0  0  0
    1.5143    0.6822   -1.8479 H   0  0  0  0  0  0  0  0  0  0  0  0
   -0.2543    0.5746    0.2945 H   0  0  0  0  0  0  0  0  0  0  0  0
    0.9332    2.1352    0.2945 H   0  0  0  0  0  0  0  0  0  0  0  0
  1  2  2  0
  1  6  1  0
  1 29  1  0
  2  3  1  0
  2  7  1  0
  3  4  2  0
  3  8  1  0
  4  5  1  0
  4  9  1  0
  5  6  2  0
  5 10  1  0
  6 11  1  0
 12 13  1  0
 12 17  1  0
 12 19  1  0
 12 20  1  0
 13 14  1  0
 13 21  1  0
 13 22  1  0
 14 15  1  0
 14 18  1  0
 14 23  1  0
 15 16  1  0
 15 24  1  0
 15 25  1  0
 16 17  1  0
 16 26  1  0
 16 27  1  0
 17 18  1  0
 17 28  1  0
 18 30  1  0
M  RAD  1  18   2
M  END
>  <reaction>  (8) 
rxn_553

>  <mol_properties>  (8) 
{"0": {"label": "*3", "atom_type": "Cd"}, "1": {"label": "*4", "atom_type": "Cd"}, "13": {"label": "*0", "atom_type": "Cs"}, "17": {"label": "*1", "atom_type": "Cs"}, "28": {"label": "*2", "atom_type": "H0"}}

>  <type>  (8) 
unop_4

>  <geom_source>  (8) 
Heuristics

$$$$

     RDKit          3D

 30 31  0  0  0  0  0  0  0  0999 V2000
   -1.3974    0.1298    0.0000 C   0  0  0  0  0  0  0  0  0  0  0  0
   -2.3044    0.5576   -0.9586 C   0  0  0  0  0  0  0  0  0  0  0  0
   -3.5996    0.0608   -0.9586 C   0  0  0  0  0  0  0  0  0  0  0  0
   -3.9879   -0.8639   -0.0000 C   0  0  0  0  0  0  0  0  0  0  0  0
   -3.0808   -1.2917    0.9586 C   0  0  0  0  0  0  0  0  0  0  0  0
   -1.7856   -0.7948    0.9586 C   0  0  0  0  0  0  0  0  0  0  0  0
   -2.0013    1.2794   -1.7068 H   0  0  0  0  0  0  0  0  0  0  0  0
   -4.3076    0.3947   -1.7068 H   0  0  0  0  0  0  0  0  0  0  0  0
   -4.9989   -1.2517   -0.0000 H   0  0  0  0  0  0  0  0  0  0  0  0
   -3.3839   -2.0134    1.7068 H   0  0  0  0  0  0  0  0  0  0  0  0
   -1.0776   -1.1287    1.7068 H   0  0  0  0  0  0  0  0  0  0  0  0
    1.9088   -1.0094   -0.7772 C   0  0  0  0  0  0  0  0  0  0  0  0
    1.9088   -1.0094    0.7772 C   0  0  0  0  0  0  0  0  0  0  0  0
    1.9088    0.4876    1.1251 C   0  0  0  0  0  0  0  0  0  0  0  0
    3.2881    1.0694    0.7772 C   0  0  0  0  0  0  0  0  0  0  0  0
    3.2881    1.0694   -0.7772 C   0  0  0  0  0  0  0  0  0  0  0  0
    1.9088    0.4876   -1.1251 C   0  0  0  0  0  0  0  0  0  0  0  0
    1.0393    1.0645    0.0000 C   0  0  0  0  0  3  0  0  0  0  0  0
    1.0151   -1.4976   -1.1693 H   0  0  0  0  0  0  0  0  0  0  0  0
    2.7733   -1.5247   -1.1985 H   0  0  0  0  0  0  0  0  0  0  0  0
    1.0151   -1.4976    1.1693 H   0  0  0  0  0  0  0  0  0  0  0  0
    2.7733   -1.5247    1.1985 H   0  0  0  0  0  0  0  0  0  0  0  0
    1.5844    0.7028    2.1423 H   0  0  0  0  0  0  0  0  0  0  0  0
    4.0989    0.4732    1.1985 H   0  0  0  0  0  0  0  0  0  0  0  0
    3.3905    2.0827    1.1693 H   0  0  0  0  0  0  0  0  0  0  0  0
    4.0989    0.4732   -1.1985 H   0  0  0  0  0  0  0  0  0  0  0  0
    3.3905    2.0827   -1.1693 H   0  0  0  0  0  0  0  0  0  0  0  0
    1.5844    0.7028   -2.1423 H   0  0  0  0  0  0  0  0  0  0  0  0
   -0.1841    0.5952    0.0000 H   0  0  0  0  0  0  0  0  0  0  0  0
    1.0033    2.1559    0.0000 H   0  0  0  0  0  0  0  0  0  0  0  0
  1  2  2  0
  1  6  1  0
  1 29  1  0
  2  3  1  0
  2  7  1  0
  3  4  2  0
  3  8  1  0
  4  5  1  0
  4  9  1  0
  5  6  2  0
  5 10  1  0
  6 11  1  0
 12 13  1  0
 12 17  1  0
 12 19  1  0
 12 20  1  0
 13 14  1  0
 13 21  1  0
 13 22  1  0
 14 15  1  0
 14 18  1  0
 14 23  1  0
 15 16  1  0
 15 24  1  0
 15 25  1  0
 16 17  1  0
 16 26  1  0
 16 27  1  0
 17 18  1  0
 17 28  1  0
 18 30  1  0
M  RAD  1  18   2
M  END
>  <reaction>  (9) 
rxn_553

>  <mol_properties>  (9) 
{"0": {"label": "*3", "atom_type": "Cd"}, "1": {"label": "*4", "atom_type": "Cd"}, "13": {"label": "*0", "atom_type": "Cs"}, "17": {"label": "*1", "atom_type": "Cs"}, "28": {"label": "*2", "atom_type": "H0"}}

>  <type>  (9) 
unop_5

>  <geom_source>  (9) 
Heuristics

$$$$

     RDKit          3D

 30 31  0  0  0  0  0  0  0  0999 V2000
   -1.4503   -0.0661    0.3316 C   0  0  0  0  0  0  0  0  0  0  0  0
   -1.7546   -1.2095   -0.3927 C   0  0  0  0  0  0  0  0  0  0  0  0
   -2.9336   -1.2761   -1.1209 C   0  0  0  0  0  0  0  0  0  0  0  0
   -3.8082   -0.1992   -1.1248 C   0  0  0  0  0  0  0  0  0  0  0  0
   -3.5039    0.9442   -0.4005 C   0  0  0  0  0  0  0  0  0  0  0  0
   -2.3249    1.0108    0.3277 C   0  0  0  0  0  0  0  0  0  0  0  0
   -1.0719   -2.0500   -0.3897 H   0  0  0  0  0  0  0  0  0  0  0  0
   -3.1711   -2.1686   -1.6862 H   0  0  0  0  0  0  0  0  0  0  0  0
   -4.7284   -0.2512   -1.6932 H   0  0  0  0  0  0  0  0  0  0  0  0
   -4.1866    1.7847   -0.4035 H   0  0  0  0  0  0  0  0  0  0  0  0
   -2.0874    1.9033    0.8930 H   0  0  0  0  0  0  0  0  0  0  0  0
    1.8559   -1.2053   -0.4456 C   0  0  0  0  0  0  0  0  0  0  0  0
    1.8559   -1.2053    1.1088 C   0  0  0  0  0  0  0  0  0  0  0  0
    1.8559    0.2917    1.4567 C   0  0  0  0  0  0  0  0  0  0  0  0
    3.2351    0.8735    1.1088 C   0  0  0  0  0  0  0  0  0  0  0  0
    3.2351    0.8735   -0.4456 C   0  0  0  0  0  0  0  0  0  0  0  0
    1.8559    0.2917   -0.7936 C   0  0  0  0  0  0  0  0  0  0  0  0
    0.9863    0.8686    0.3316 C   0  0  0  0  0  3  0  0  0  0  0  0
    0.9621   -1.6935   -0.8378 H   0  0  0  0  0  0  0  0  0  0  0  0
    2.7204   -1.7206   -0.8670 H   0  0  0  0  0  0  0  0  0  0  0  0
    0.9621   -1.6935    1.5009 H   0  0  0  0  0  0  0  0  0  0  0  0
    2.7204   -1.7206    1.5301 H   0  0  0  0  0  0  0  0  0  0  0  0
    1.5314    0.5069    2.4739 H   0  0  0  0  0  0  0  0  0  0  0  0
    4.0459    0.2773    1.5301 H   0  0  0  0  0  0  0  0  0  0  0  0
    3.3376    1.8867    1.5009 H   0  0  0  0  0  0  0  0  0  0  0  0
    4.0459    0.2773   -0.8670 H   0  0  0  0  0  0  0  0  0  0  0  0
    3.3376    1.8867   -0.8378 H   0  0  0  0  0  0  0  0  0  0  0  0
    1.5314    0.5069   -1.8108 H   0  0  0  0  0  0  0  0  0  0  0  0
   -0.2371    0.3993    0.3316 H   0  0  0  0  0  0  0  0  0  0  0  0
    0.9504    1.9599    0.3316 H   0  0  0  0  0  0  0  0  0  0  0  0
  1  2  2  0
  1  6  1  0
  1 29  1  0
  2  3  1  0
  2  7  1  0
  3  4  2  0
  3  8  1  0
  4  5  1  0
  4  9  1  0
  5  6  2  0
  5 10  1  0
  6 11  1  0
 12 13  1  0
 12 17  1  0
 12 19  1  0
 12 20  1  0
 13 14  1  0
 13 21  1  0
 13 22  1  0
 14 15  1  0
 14 18  1  0
 14 23  1  0
 15 16  1  0
 15 24  1  0
 15 25  1  0
 16 17  1  0
 16 26  1  0
 16 27  1  0
 17 18  1  0
 17 28  1  0
 18 30  1  0
M  RAD  1  18   2
M  END
>  <reaction>  (10) 
rxn_553

>  <mol_properties>  (10) 
{"0": {"label": "*3", "atom_type": "Cd"}, "1": {"label": "*4", "atom_type": "Cd"}, "13": {"label": "*0", "atom_type": "Cs"}, "17": {"label": "*1", "atom_type": "Cs"}, "28": {"label": "*2", "atom_type": "H0"}}

>  <type>  (10) 
unop_6

>  <geom_source>  (10) 
Heuristics

$$$$

     RDKit          3D

 30 31  0  0  0  0  0  0  0  0999 V2000
   -1.4094   -0.2213    0.2227 C   0  0  0  0  0  0  0  0  0  0  0  0
   -1.8894   -0.9067   -0.8838 C   0  0  0  0  0  0  0  0  0  0  0  0
   -3.1582   -0.6324   -1.3729 C   0  0  0  0  0  0  0  0  0  0  0  0
   -3.9471    0.3273   -0.7555 C   0  0  0  0  0  0  0  0  0  0  0  0
   -3.4671    1.0127    0.3510 C   0  0  0  0  0  0  0  0  0  0  0  0
   -2.1982    0.7384    0.8401 C   0  0  0  0  0  0  0  0  0  0  0  0
   -1.2736   -1.6558   -1.3658 H   0  0  0  0  0  0  0  0  0  0  0  0
   -3.5329   -1.1674   -2.2366 H   0  0  0  0  0  0  0  0  0  0  0  0
   -4.9376    0.5414   -1.1373 H   0  0  0  0  0  0  0  0  0  0  0  0
   -4.0829    1.7618    0.8329 H   0  0  0  0  0  0  0  0  0  0  0  0
   -1.8236    1.2734    1.7039 H   0  0  0  0  0  0  0  0  0  0  0  0
    1.8968   -1.3605   -0.5545 C   0  0  0  0  0  0  0  0  0  0  0  0
    1.8968   -1.3605    0.9999 C   0  0  0  0  0  0  0  0  0  0  0  0
    1.8968    0.1364    1.3478 C   0  0  0  0  0  0  0  0  0  0  0  0
    3.2761    0.7183    0.9999 C   0  0  0  0  0  0  0  0  0  0  0  0
    3.2761    0.7183   -0.5545 C   0  0  0  0  0  0  0  0  0  0  0  0
    1.8968    0.1364   -0.9024 C   0  0  0  0  0  0  0  0  0  0  0  0
    1.0273    0.7134    0.2227 C   0  0  0  0  0  3  0  0  0  0  0  0
    1.0031   -1.8487   -0.9466 H   0  0  0  0  0  0  0  0  0  0  0  0
    2.7613   -1.8758   -0.9758 H   0  0  0  0  0  0  0  0  0  0  0  0
    1.0031   -1.8487    1.3920 H   0  0  0  0  0  0  0  0  0  0  0  0
    2.7613   -1.8758    1.4212 H   0  0  0  0  0  0  0  0  0  0  0  0
    1.5724    0.3517    2.3650 H   0  0  0  0  0  0  0  0  0  0  0  0
    4.0869    0.1221    1.4212 H   0  0  0  0  0  0  0  0  0  0  0  0
    3.3785    1.7315    1.3920 H   0  0  0  0  0  0  0  0  0  0  0  0
    4.0869    0.1221   -0.9758 H   0  0  0  0  0  0  0  0  0  0  0  0
    3.3785    1.7315   -0.9466 H   0  0  0  0  0  0  0  0  0  0  0  0
    1.5724    0.3517   -1.9196 H   0  0  0  0  0  0  0  0  0  0  0  0
   -0.1961    0.2441    0.2227 H   0  0  0  0  0  0  0  0  0  0  0  0
    0.9913    1.8047    0.2227 H   0  0  0  0  0  0  0  0  0  0  0  0
  1  2  2  0
  1  6  1  0
  1 29  1  0
  2  3  1  0
  2  7  1  0
  3  4  2  0
  3  8  1  0
  4  5  1  0
  4  9  1  0
  5  6  2  0
  5 10  1  0
  6 11  1  0
 12 13  1  0
 12 17  1  0
 12 19  1  0
 12 20  1  0
 13 14  1  0
 13 21  1  0
 13 22  1  0
 14 15  1  0
 14 18  1  0
 14 23  1  0
 15 16  1  0
 15 24  1  0
 15 25  1  0
 16 17  1  0
 16 26  1  0
 16 27  1  0
 17 18  1  0
 17 28  1  0
 18 30  1  0
M  RAD  1  18   2
M  END
>  <reaction>  (11) 
rxn_553

>  <mol_properties>  (11) 
{"0": {"label": "*3", "atom_type": "Cd"}, "1": {"label": "*4", "atom_type": "Cd"}, "13": {"label": "*0", "atom_type": "Cs"}, "17": {"label": "*1", "atom_type": "Cs"}, "28": {"label": "*2", "atom_type": "H0"}}

>  <type>  (11) 
unop_7

>  <geom_source>  (11) 
Heuristics

$$$$

     RDKit          3D

 30 31  0  0  0  0  0  0  0  0999 V2000
   -1.4109   -0.1690    0.2483 C   0  0  0  0  0  0  0  0  0  0  0  0
   -2.4018    0.4776    0.9726 C   0  0  0  0  0  0  0  0  0  0  0  0
   -3.6674    0.6370    0.4272 C   0  0  0  0  0  0  0  0  0  0  0  0
   -3.9421    0.1498   -0.8423 C   0  0  0  0  0  0  0  0  0  0  0  0
   -2.9511   -0.4968   -1.5666 C   0  0  0  0  0  0  0  0  0  0  0  0
   -1.6855   -0.6562   -1.0213 C   0  0  0  0  0  0  0  0  0  0  0  0
   -2.1874    0.8579    1.9635 H   0  0  0  0  0  0  0  0  0  0  0  0
   -4.4409    1.1417    0.9926 H   0  0  0  0  0  0  0  0  0  0  0  0
   -4.9300    0.2742   -1.2680 H   0  0  0  0  0  0  0  0  0  0  0  0
   -3.1655   -0.8770   -2.5575 H   0  0  0  0  0  0  0  0  0  0  0  0
   -0.9120   -1.1608   -1.5866 H   0  0  0  0  0  0  0  0  0  0  0  0
    1.8953   -1.3082   -0.5289 C   0  0  0  0  0  0  0  0  0  0  0  0
    1.8953   -1.3082    1.0255 C   0  0  0  0  0  0  0  0  0  0  0  0
    1.8953    0.1888    1.3734 C   0  0  0  0  0  0  0  0  0  0  0  0
    3.2746    0.7706    1.0255 C   0  0  0  0  0  0  0  0  0  0  0  0
    3.2746    0.7706   -0.5289 C   0  0  0  0  0  0  0  0  0  0  0  0
    1.8953    0.1888   -0.8768 C   0  0  0  0  0  0  0  0  0  0  0  0
    1.0258    0.7657    0.2483 C   0  0  0  0  0  3  0  0  0  0  0  0
    1.0016   -1.7964   -0.9210 H   0  0  0  0  0  0  0  0  0  0  0  0
    2.7598   -1.8235   -0.9502 H   0  0  0  0  0  0  0  0  0  0  0  0
    1.0016   -1.7964    1.4176 H   0  0  0  0  0  0  0  0  0  0  0  0
    2.7598   -1.8235    1.4468 H   0  0  0  0  0  0  0  0  0  0  0  0
    1.5709    0.4040    2.3906 H   0  0  0  0  0  0  0  0  0  0  0  0
    4.0854    0.1744    1.4468 H   0  0  0  0  0  0  0  0  0  0  0  0
    3.3770    1.7838    1.4176 H   0  0  0  0  0  0  0  0  0  0  0  0
    4.0854    0.1744   -0.9502 H   0  0  0  0  0  0  0  0  0  0  0  0
    3.3770    1.7838   -0.9210 H   0  0  0  0  0  0  0  0  0  0  0  0
    1.5709    0.4040   -1.8940 H   0  0  0  0  0  0  0  0  0  0  0  0
   -0.1976    0.2964    0.2483 H   0  0  0  0  0  0  0  0  0  0  0  0
    0.9898    1.8571    0.2483 H   0  0  0  0  0  0  0  0  0  0  0  0
  1  2  2  0
  1  6  1  0
  1 29  1  0
  2  3  1  0
  2  7  1  0
  3  4  2  0
  3  8  1  0
  4  5  1  0
  4  9  1  0
  5  6  2  0
  5 10  1  0
  6 11  1  0
 12 13  1  0
 12 17  1  0
 12 19  1  0
 12 20  1  0
 13 14  1  0
 13 21  1  0
 13 22  1  0
 14 15  1  0
 14 18  1  0
 14 23  1  0
 15 16  1  0
 15 24  1  0
 15 25  1  0
 16 17  1  0
 16 26  1  0
 16 27  1  0
 17 18  1  0
 17 28  1  0
 18 30  1  0
M  RAD  1  18   2
M  END
>  <reaction>  (12) 
rxn_553

>  <mol_properties>  (12) 
{"0": {"label": "*3", "atom_type": "Cd"}, "1": {"label": "*4", "atom_type": "Cd"}, "13": {"label": "*0", "atom_type": "Cs"}, "17": {"label": "*1", "atom_type": "Cs"}, "28": {"label": "*2", "atom_type": "H0"}}

>  <type>  (12) 
unop_8

>  <geom_source>  (12) 
Heuristics

$$$$

     RDKit          3D

 30 31  0  0  0  0  0  0  0  0999 V2000
   -1.4461    0.1938    0.1488 C   0  0  0  0  0  0  0  0  0  0  0  0
   -1.6974   -1.0878    0.6169 C   0  0  0  0  0  0  0  0  0  0  0  0
   -2.8856   -1.7250    0.2900 C   0  0  0  0  0  0  0  0  0  0  0  0
   -3.8224   -1.0807   -0.5049 C   0  0  0  0  0  0  0  0  0  0  0  0
   -3.5711    0.2008   -0.9729 C   0  0  0  0  0  0  0  0  0  0  0  0
   -2.3829    0.8381   -0.6460 C   0  0  0  0  0  0  0  0  0  0  0  0
   -0.9662   -1.5907    1.2373 H   0  0  0  0  0  0  0  0  0  0  0  0
   -3.0817   -2.7253    0.6553 H   0  0  0  0  0  0  0  0  0  0  0  0
   -4.7498   -1.5781   -0.7600 H   0  0  0  0  0  0  0  0  0  0  0  0
   -4.3023    0.7037   -1.5934 H   0  0  0  0  0  0  0  0  0  0  0  0
   -2.1868    1.8384   -1.0114 H   0  0  0  0  0  0  0  0  0  0  0  0
    1.8601   -0.9454   -0.6284 C   0  0  0  0  0  0  0  0  0  0  0  0
    1.8601   -0.9454    0.9260 C   0  0  0  0  0  0  0  0  0  0  0  0
    1.8601    0.5515    1.2740 C   0  0  0  0  0  0  0  0  0  0  0  0
    3.2393    1.1333    0.9260 C   0  0  0  0  0  0  0  0  0  0  0  0
    3.2393    1.1333   -0.6284 C   0  0  0  0  0  0  0  0  0  0  0  0
    1.8601    0.5515   -0.9763 C   0  0  0  0  0  0  0  0  0  0  0  0
    0.9905    1.1284    0.1488 C   0  0  0  0  0  3  0  0  0  0  0  0
    0.9663   -1.4337   -1.0205 H   0  0  0  0  0  0  0  0  0  0  0  0
    2.7245   -1.4608   -1.0497 H   0  0  0  0  0  0  0  0  0  0  0  0
    0.9663   -1.4337    1.3182 H   0  0  0  0  0  0  0  0  0  0  0  0
    2.7245   -1.4608    1.3474 H   0  0  0  0  0  0  0  0  0  0  0  0
    1.5356    0.7668    2.2912 H   0  0  0  0  0  0  0  0  0  0  0  0
    4.0501    0.5371    1.3474 H   0  0  0  0  0  0  0  0  0  0  0  0
    3.3417    2.1466    1.3182 H   0  0  0  0  0  0  0  0  0  0  0  0
    4.0501    0.5371   -1.0497 H   0  0  0  0  0  0  0  0  0  0  0  0
    3.3417    2.1466   -1.0205 H   0  0  0  0  0  0  0  0  0  0  0  0
    1.5356    0.7668   -1.9935 H   0  0  0  0  0  0  0  0  0  0  0  0
   -0.2329    0.6591    0.1488 H   0  0  0  0  0  0  0  0  0  0  0  0
    0.9545    2.2198    0.1488 H   0  0  0  0  0  0  0  0  0  0  0  0
  1  2  2  0
  1  6  1  0
  1 29  1  0
  2  3  1  0
  2  7  1  0
  3  4  2  0
  3  8  1  0
  4  5  1  0
  4  9  1  0
  5  6  2  0
  5 10  1  0
  6 11  1  0
 12 13  1  0
 12 17  1  0
 12 19  1  0
 12 20  1  0
 13 14  1  0
 13 21  1  0
 13 22  1  0
 14 15  1  0
 14 18  1  0
 14 23  1  0
 15 16  1  0
 15 24  1  0
 15 25  1  0
 16 17  1  0
 16 26  1  0
 16 27  1  0
 17 18  1  0
 17 28  1  0
 18 30  1  0
M  RAD  1  18   2
M  END
>  <reaction>  (13) 
rxn_553

>  <mol_properties>  (13) 
{"0": {"label": "*3", "atom_type": "Cd"}, "1": {"label": "*4", "atom_type": "Cd"}, "13": {"label": "*0", "atom_type": "Cs"}, "17": {"label": "*1", "atom_type": "Cs"}, "28": {"label": "*2", "atom_type": "H0"}}

>  <type>  (13) 
unop_9

>  <geom_source>  (13) 
Heuristics

$$$$

     RDKit          3D

 30 31  0  0  0  0  0  0  0  0999 V2000
   -1.3634   -0.1622    0.0748 C   0  0  0  0  0  0  0  0  0  0  0  0
   -2.1786    0.0263    1.1813 C   0  0  0  0  0  0  0  0  0  0  0  0
   -3.5485    0.1709    1.0170 C   0  0  0  0  0  0  0  0  0  0  0  0
   -4.1032    0.1269   -0.2538 C   0  0  0  0  0  0  0  0  0  0  0  0
   -3.2879   -0.0617   -1.3603 C   0  0  0  0  0  0  0  0  0  0  0  0
   -1.9180   -0.2062   -1.1960 C   0  0  0  0  0  0  0  0  0  0  0  0
   -1.7456    0.0607    2.1733 H   0  0  0  0  0  0  0  0  0  0  0  0
   -4.1849    0.3180    1.8807 H   0  0  0  0  0  0  0  0  0  0  0  0
   -5.1725    0.2397   -0.3820 H   0  0  0  0  0  0  0  0  0  0  0  0
   -3.7209   -0.0960   -2.3522 H   0  0  0  0  0  0  0  0  0  0  0  0
   -1.2817   -0.3534   -2.0597 H   0  0  0  0  0  0  0  0  0  0  0  0
    1.9428   -1.3014   -0.7024 C   0  0  0  0  0  0  0  0  0  0  0  0
    1.9428   -1.3014    0.8520 C   0  0  0  0  0  0  0  0  0  0  0  0
    1.9428    0.1955    1.1999 C   0  0  0  0  0  0  0  0  0  0  0  0
    3.3221    0.7774    0.8520 C   0  0  0  0  0  0  0  0  0  0  0  0
    3.3221    0.7774   -0.7024 C   0  0  0  0  0  0  0  0  0  0  0  0
    1.9428    0.1955   -1.0503 C   0  0  0  0  0  0  0  0  0  0  0  0
    1.0733    0.7725    0.0748 C   0  0  0  0  0  3  0  0  0  0  0  0
    1.0491   -1.7896   -1.0945 H   0  0  0  0  0  0  0  0  0  0  0  0
    2.8073   -1.8167   -1.1237 H   0  0  0  0  0  0  0  0  0  0  0  0
    1.0491   -1.7896    1.2441 H   0  0  0  0  0  0  0  0  0  0  0  0
    2.8073   -1.8167    1.2733 H   0  0  0  0  0  0  0  0  0  0  0  0
    1.6184    0.4108    2.2171 H   0  0  0  0  0  0  0  0  0  0  0  0
    4.1329    0.1812    1.2733 H   0  0  0  0  0  0  0  0  0  0  0  0
    3.4245    1.7906    1.2441 H   0  0  0  0  0  0  0  0  0  0  0  0
    4.1329    0.1812   -1.1237 H   0  0  0  0  0  0  0  0  0  0  0  0
    3.4245    1.7906   -1.0945 H   0  0  0  0  0  0  0  0  0  0  0  0
    1.6184    0.4108   -2.0675 H   0  0  0  0  0  0  0  0  0  0  0  0
   -0.1501    0.3032    0.0748 H   0  0  0  0  0  0  0  0  0  0  0  0
    1.0373    1.8638    0.0748 H   0  0  0  0  0  0  0  0  0  0  0  0
  1  2  2  0
  1  6  1  0
  1 29  1  0
  2  3  1  0
  2  7  1  0
  3  4  2  0
  3  8  1  0
  4  5  1  0
  4  9  1  0
  5  6  2  0
  5 10  1  0
  6 11  1  0
 12 13  1  0
 12 17  1  0
 12 19  1  0
 12 20  1  0
 13 14  1  0
 13 21  1  0
 13 22  1  0
 14 15  1  0
 14 18  1  0
 14 23  1  0
 15 16  1  0
 15 24  1  0
 15 25  1  0
 16 17  1  0
 16 26  1  0
 16 27  1  0
 17 18  1  0
 17 28  1  0
 18 30  1  0
M  RAD  1  18   2
M  END
>  <reaction>  (14) 
rxn_553

>  <mol_properties>  (14) 
{"0": {"label": "*3", "atom_type": "Cd"}, "1": {"label": "*4", "atom_type": "Cd"}, "13": {"label": "*0", "atom_type": "Cs"}, "17": {"label": "*1", "atom_type": "Cs"}, "28": {"label": "*2", "atom_type": "H0"}}

>  <type>  (14) 
unop_10

>  <geom_source>  (14) 
Heuristics

$$$$

     RDKit          3D

 30 31  0  0  0  0  0  0  0  0999 V2000
   -1.3650   -0.2050    0.0119 C   0  0  0  0  0  0  0  0  0  0  0  0
   -2.0656   -0.3153   -1.1804 C   0  0  0  0  0  0  0  0  0  0  0  0
   -3.4320   -0.0768   -1.2066 C   0  0  0  0  0  0  0  0  0  0  0  0
   -4.0977    0.2720   -0.0405 C   0  0  0  0  0  0  0  0  0  0  0  0
   -3.3971    0.3823    1.1518 C   0  0  0  0  0  0  0  0  0  0  0  0
   -2.0307    0.1438    1.1780 C   0  0  0  0  0  0  0  0  0  0  0  0
   -1.5459   -0.5875   -2.0905 H   0  0  0  0  0  0  0  0  0  0  0  0
   -3.9788   -0.1629   -2.1372 H   0  0  0  0  0  0  0  0  0  0  0  0
   -5.1643    0.4582   -0.0610 H   0  0  0  0  0  0  0  0  0  0  0  0
   -3.9168    0.6545    2.0619 H   0  0  0  0  0  0  0  0  0  0  0  0
   -1.4838    0.2299    2.1087 H   0  0  0  0  0  0  0  0  0  0  0  0
    1.9412   -1.3442   -0.7652 C   0  0  0  0  0  0  0  0  0  0  0  0
    1.9412   -1.3442    0.7891 C   0  0  0  0  0  0  0  0  0  0  0  0
    1.9412    0.1527    1.1371 C   0  0  0  0  0  0  0  0  0  0  0  0
    3.3205    0.7346    0.7891 C   0  0  0  0  0  0  0  0  0  0  0  0
    3.3205    0.7346   -0.7652 C   0  0  0  0  0  0  0  0  0  0  0  0
    1.9412    0.1527   -1.1132 C   0  0  0  0  0  0  0  0  0  0  0  0
    1.0716    0.7297    0.0119 C   0  0  0  0  0  3  0  0  0  0  0  0
    1.0475   -1.8324   -1.1574 H   0  0  0  0  0  0  0  0  0  0  0  0
    2.8057   -1.8595   -1.1866 H   0  0  0  0  0  0  0  0  0  0  0  0
    1.0475   -1.8324    1.1813 H   0  0  0  0  0  0  0  0  0  0  0  0
    2.8057   -1.8595    1.2105 H   0  0  0  0  0  0  0  0  0  0  0  0
    1.6168    0.3680    2.1543 H   0  0  0  0  0  0  0  0  0  0  0  0
    4.1313    0.1384    1.2105 H   0  0  0  0  0  0  0  0  0  0  0  0
    3.4229    1.7478    1.1813 H   0  0  0  0  0  0  0  0  0  0  0  0
    4.1313    0.1384   -1.1866 H   0  0  0  0  0  0  0  0  0  0  0  0
    3.4229    1.7478   -1.1574 H   0  0  0  0  0  0  0  0  0  0  0  0
    1.6168    0.3680   -2.1304 H   0  0  0  0  0  0  0  0  0  0  0  0
   -0.1517    0.2604    0.0119 H   0  0  0  0  0  0  0  0  0  0  0  0
    1.0357    1.8210    0.0119 H   0  0  0  0  0  0  0  0  0  0  0  0
  1  2  2  0
  1  6  1  0
  1 29  1  0
  2  3  1  0
  2  7  1  0
  3  4  2  0
  3  8  1  0
  4  5  1  0
  4  9  1  0
  5  6  2  0
  5 10  1  0
  6 11  1  0
 12 13  1  0
 12 17  1  0
 12 19  1  0
 12 20  1  0
 13 14  1  0
 13 21  1  0
 13 22  1  0
 14 15  1  0
 14 18  1  0
 14 23  1  0
 15 16  1  0
 15 24  1  0
 15 25  1  0
 16 17  1  0
 16 26  1  0
 16 27  1  0
 17 18  1  0
 17 28  1  0
 18 30  1  0
M  RAD  1  18   2
M  END
>  <reaction>  (15) 
rxn_553

>  <mol_properties>  (15) 
{"0": {"label": "*3", "atom_type": "Cd"}, "1": {"label": "*4", "atom_type": "Cd"}, "13": {"label": "*0", "atom_type": "Cs"}, "17": {"label": "*1", "atom_type": "Cs"}, "28": {"label": "*2", "atom_type": "H0"}}

>  <type>  (15) 
unop_11

>  <geom_source>  (15) 
Heuristics

$$$$

     RDKit          3D

 30 31  0  0  0  0  0  0  0  0999 V2000
   -1.3974    0.1298   -0.0000 C   0  0  0  0  0  0  0  0  0  0  0  0
   -1.7856   -0.7948    0.9586 C   0  0  0  0  0  0  0  0  0  0  0  0
   -3.0808   -1.2917    0.9586 C   0  0  0  0  0  0  0  0  0  0  0  0
   -3.9879   -0.8639   -0.0000 C   0  0  0  0  0  0  0  0  0  0  0  0
   -3.5996    0.0608   -0.9586 C   0  0  0  0  0  0  0  0  0  0  0  0
   -2.3044    0.5576   -0.9586 C   0  0  0  0  0  0  0  0  0  0  0  0
   -1.0776   -1.1287    1.7068 H   0  0  0  0  0  0  0  0  0  0  0  0
   -3.3839   -2.0134    1.7068 H   0  0  0  0  0  0  0  0  0  0  0  0
   -4.9989   -1.2517   -0.0000 H   0  0  0  0  0  0  0  0  0  0  0  0
   -4.3076    0.3947   -1.7068 H   0  0  0  0  0  0  0  0  0  0  0  0
   -2.0013    1.2794   -1.7068 H   0  0  0  0  0  0  0  0  0  0  0  0
    1.9088   -1.0094   -0.7772 C   0  0  0  0  0  0  0  0  0  0  0  0
    1.9088   -1.0094    0.7772 C   0  0  0  0  0  0  0  0  0  0  0  0
    1.9088    0.4876    1.1251 C   0  0  0  0  0  0  0  0  0  0  0  0
    3.2881    1.0694    0.7772 C   0  0  0  0  0  0  0  0  0  0  0  0
    3.2881    1.0694   -0.7772 C   0  0  0  0  0  0  0  0  0  0  0  0
    1.9088    0.4876   -1.1251 C   0  0  0  0  0  0  0  0  0  0  0  0
    1.0393    1.0645    0.0000 C   0  0  0  0  0  3  0  0  0  0  0  0
    1.0151   -1.4976   -1.1693 H   0  0  0  0  0  0  0  0  0  0  0  0
    2.7733   -1.5247   -1.1985 H   0  0  0  0  0  0  0  0  0  0  0  0
    1.0151   -1.4976    1.1693 H   0  0  0  0  0  0  0  0  0  0  0  0
    2.7733   -1.5247    1.1985 H   0  0  0  0  0  0  0  0  0  0  0  0
    1.5844    0.7028    2.1423 H   0  0  0  0  0  0  0  0  0  0  0  0
    4.0989    0.4732    1.1985 H   0  0  0  0  0  0  0  0  0  0  0  0
    3.3905    2.0827    1.1693 H   0  0  0  0  0  0  0  0  0  0  0  0
    4.0989    0.4732   -1.1985 H   0  0  0  0  0  0  0  0  0  0  0  0
    3.3905    2.0827   -1.1693 H   0  0  0  0  0  0  0  0  0  0  0  0
    1.5844    0.7028   -2.1423 H   0  0  0  0  0  0  0  0  0  0  0  0
   -0.1841    0.5952    0.0000 H   0  0  0  0  0  0  0  0  0  0  0  0
    1.0033    2.1559    0.0000 H   0  0  0  0  0  0  0  0  0  0  0  0
  1  2  2  0
  1  6  1  0
  1 29  1  0
  2  3  1  0
  2  7  1  0
  3  4  2  0
  3  8  1  0
  4  5  1  0
  4  9  1  0
  5  6  2  0
  5 10  1  0
  6 11  1  0
 12 13  1  0
 12 17  1  0
 12 19  1  0
 12 20  1  0
 13 14  1  0
 13 21  1  0
 13 22  1  0
 14 15  1  0
 14 18  1  0
 14 23  1  0
 15 16  1  0
 15 24  1  0
 15 25  1  0
 16 17  1  0
 16 26  1  0
 16 27  1  0
 17 18  1  0
 17 28  1  0
 18 30  1  0
M  RAD  1  18   2
M  END
>  <reaction>  (16) 
rxn_553

>  <mol_properties>  (16) 
{"0": {"label": "*3", "atom_type": "Cd"}, "1": {"label": "*4", "atom_type": "Cd"}, "13": {"label": "*0", "atom_type": "Cs"}, "17": {"label": "*1", "atom_type": "Cs"}, "28": {"label": "*2", "atom_type": "H0"}}

>  <type>  (16) 
unop_12

>  <geom_source>  (16) 
Heuristics

$$$$

     RDKit          3D

 30 31  0  0  0  0  0  0  0  0999 V2000
   -0.9080    0.9817   -0.3549 C   0  0  0  0  0  0  0  0  0  0  0  0
   -2.3661   -0.4970    0.4166 C   0  0  0  0  0  0  0  0  0  0  0  0
   -1.4917    0.3785   -1.6413 C   0  0  0  0  0  0  0  0  0  0  0  0
   -1.9729    1.8701    0.3110 C   0  0  0  0  0  0  0  0  0  0  0  0
   -2.9837    0.8450    0.8459 C   0  0  0  0  0  0  0  0  0  0  0  0
   -2.5039   -0.6479   -1.1058 C   0  0  0  0  0  0  0  0  0  0  0  0
   -0.8886   -0.2282    0.5436 C   0  0  0  0  0  3  0  0  0  0  0  0
    4.3701   -0.6546    0.0138 C   0  0  0  0  0  0  0  0  0  0  0  0
    3.4695   -0.7297   -1.0543 C   0  0  0  0  0  0  0  0  0  0  0  0
    3.8952   -0.6451    1.3298 C   0  0  0  0  0  0  0  0  0  0  0  0
    2.0942   -0.7954   -0.8061 C   0  0  0  0  0  0  0  0  0  0  0  0
    2.5198   -0.7108    1.5775 C   0  0  0  0  0  0  0  0  0  0  0  0
    1.6197   -0.7859    0.5096 C   0  0  0  0  0  0  0  0  0  0  0  0
    0.0785    1.4740   -0.4902 H   0  0  0  0  0  0  0  0  0  0  0  0
   -2.7291   -1.3730    0.9952 H   0  0  0  0  0  0  0  0  0  0  0  0
   -1.9808    1.1472   -2.2789 H   0  0  0  0  0  0  0  0  0  0  0  0
   -0.6929   -0.1294   -2.2258 H   0  0  0  0  0  0  0  0  0  0  0  0
   -2.4410    2.5741   -0.4114 H   0  0  0  0  0  0  0  0  0  0  0  0
   -1.5230    2.4481    1.1482 H   0  0  0  0  0  0  0  0  0  0  0  0
   -3.0477    0.9019    1.9549 H   0  0  0  0  0  0  0  0  0  0  0  0
   -3.9959    0.9972    0.4114 H   0  0  0  0  0  0  0  0  0  0  0  0
   -3.5368   -0.4307   -1.4556 H   0  0  0  0  0  0  0  0  0  0  0  0
   -2.2189   -1.6768   -1.4185 H   0  0  0  0  0  0  0  0  0  0  0  0
   -0.5833    0.0154    1.5876 H   0  0  0  0  0  0  0  0  0  0  0  0
    3.8366   -0.7370   -2.0724 H   0  0  0  0  0  0  0  0  0  0  0  0
    5.4341   -0.6038   -0.1780 H   0  0  0  0  0  0  0  0  0  0  0  0
    4.5918   -0.5870    2.1562 H   0  0  0  0  0  0  0  0  0  0  0  0
    1.3965   -0.8535   -1.6312 H   0  0  0  0  0  0  0  0  0  0  0  0
    2.1511   -0.7036    2.5948 H   0  0  0  0  0  0  0  0  0  0  0  0
    0.4072   -0.8438    0.7282 H   0  0  0  0  0  0  0  0  0  0  0  0
  1  3  1  0
  1  4  1  0
  1  7  1  0
  1 14  1  0
  2  6  1  0
  2  5  1  0
  2  7  1  0
  2 15  1  0
  3  6  1  0
  3 16  1  0
  3 17  1  0
  4  5  1  0
  4 18  1  0
  4 19  1  0
  5 20  1  0
  5 21  1  0
  6 22  1  0
  6 23  1  0
  7 24  1  0
  8  9  2  0
  8 10  1  0
  8 26  1  0
  9 11  1  0
  9 25  1  0
 10 12  2  0
 10 27  1  0
 11 13  2  0
 11 28  1  0
 12 13  1  0
 12 29  1  0
 13 30  1  0
M  RAD  1   7   2
M  END
>  <reaction>  (17) 
rxn_553

>  <mol_properties>  (17) 
{"0": {"label": "*3", "atom_type": "Cd"}, "1": {"label": "*4", "atom_type": "Cd"}, "13": {"label": "*0", "atom_type": "Cs"}, "17": {"label": "*1", "atom_type": "Cs"}, "28": {"label": "*2", "atom_type": "H0"}}

>  <type>  (17) 
unop_13

>  <geom_source>  (17) 
AutoTST

$$$$
