
     RDKit          3D

  6  5  0  0  0  0  0  0  0  0999 V2000
    0.6594    0.0438   -0.0050 C   0  0  0  0  0  0  0  0  0  0  0  0
   -0.6594   -0.0438    0.0050 C   0  0  0  0  0  0  0  0  0  0  0  0
    1.1706    0.8681   -0.4881 H   0  0  0  0  0  0  0  0  0  0  0  0
    1.2824   -0.7051    0.4696 H   0  0  0  0  0  0  0  0  0  0  0  0
   -1.2824    0.7051   -0.4696 H   0  0  0  0  0  0  0  0  0  0  0  0
   -1.1706   -0.8681    0.4881 H   0  0  0  0  0  0  0  0  0  0  0  0
  1  2  2  3
  1  3  1  0
  1  4  1  0
  2  5  1  0
  2  6  1  0
M  END
>  <reaction>  (1) 
rxn_1593

>  <mol_properties>  (1) 
{"1": {"label": "donator", "atom_type": "Cd"}, "4": {"label": "d_hydrogen", "atom_type": "H0"}}

>  <type>  (1) 
r1h

$$$$

     RDKit          3D

  7  6  0  0  0  0  0  0  0  0999 V2000
   -1.3496    0.0255    0.0758 C   0  0  0  0  0  0  0  0  0  0  0  0
   -0.0636   -0.0704   -0.0033 C   0  0  0  0  0  0  0  0  0  0  0  0
    1.2597   -0.1602   -0.0839 C   0  0  0  0  0  0  0  0  0  0  0  0
    2.2616    1.2090   -0.0064 S   0  0  0  0  0  1  0  0  0  0  0  0
   -1.8547   -0.0180    1.0345 H   0  0  0  0  0  0  0  0  0  0  0  0
   -1.9552    0.1601   -0.8138 H   0  0  0  0  0  0  0  0  0  0  0  0
    1.7017   -1.1460   -0.2029 H   0  0  0  0  0  0  0  0  0  0  0  0
  1  2  2  0
  1  5  1  0
  1  6  1  0
  2  3  2  0
  3  4  1  0
  3  7  1  0
M  RAD  1   4   2
M  END
>  <reaction>  (2) 
rxn_1593

>  <mol_properties>  (2) 
{"1": {"label": "acceptor", "atom_type": "Cd"}}

>  <type>  (2) 
r2

$$$$

     RDKit          3D

  8  7  0  0  0  0  0  0  0  0999 V2000
   -1.1617    0.0338    0.5053 C   0  0  0  0  0  0  0  0  0  0  0  0
   -0.1023    0.4503   -0.1863 C   0  0  0  0  0  0  0  0  0  0  0  0
    1.0978   -0.3557   -0.3104 C   0  0  0  0  0  0  0  0  0  0  0  0
    2.4251    0.0667   -1.1256 S   0  0  0  0  0  0  0  0  0  0  0  0
   -1.1653   -0.9292    1.0039 H   0  0  0  0  0  0  0  0  0  0  0  0
   -2.0546    0.6389    0.5948 H   0  0  0  0  0  0  0  0  0  0  0  0
   -0.0991    1.4132   -0.6847 H   0  0  0  0  0  0  0  0  0  0  0  0
    1.0601   -1.3180    0.2032 H   0  0  0  0  0  0  0  0  0  0  0  0
  1  2  2  3
  1  5  1  0
  1  6  1  0
  2  3  1  0
  2  7  1  0
  3  4  2  0
  3  8  1  0
M  END
>  <reaction>  (3) 
rxn_1593

>  <mol_properties>  (3) 
{"1": {"label": "acceptor", "atom_type": "Cd"}, "7": {"label": "a_hydrogen", "atom_type": "H0"}}

>  <type>  (3) 
r2h

$$$$

     RDKit          3D

 13 11  0  0  0  0  0  0  0  0999 V2000
   -1.7028    0.5410    1.7229 C   0  0  0  0  0  0  0  0  0  0  0  0
   -0.7653    0.3648    0.8036 C   0  0  0  0  0  0  0  0  0  0  0  0
    0.4919    1.0671    0.7449 C   0  0  0  0  0  0  0  0  0  0  0  0
    1.6548    0.8776   -0.3591 S   0  0  0  0  0  1  0  0  0  0  0  0
   -1.5800    1.2596    2.5303 H   0  0  0  0  0  0  0  0  0  0  0  0
   -2.6281   -0.0237    1.7064 H   0  0  0  0  0  0  0  0  0  0  0  0
    0.6346    1.7954    1.5495 H   0  0  0  0  0  0  0  0  0  0  0  0
   -0.5907   -1.7680   -1.9943 C   0  0  0  0  0  0  0  0  0  0  0  0
   -1.4049   -1.4666   -1.0103 C   0  0  0  0  0  0  0  0  0  0  0  0
    0.3713   -1.2784   -2.0990 H   0  0  0  0  0  0  0  0  0  0  0  0
   -0.8545   -2.5180   -2.7357 H   0  0  0  0  0  0  0  0  0  0  0  0
   -1.0331   -0.5507   -0.1419 H   0  0  0  0  0  0  0  0  0  0  0  0
   -2.3835   -1.8843   -0.8032 H   0  0  0  0  0  0  0  0  0  0  0  0
  1  2  2  0
  1  5  1  0
  1  6  1  0
  2  3  2  0
  3  4  1  0
  3  7  1  0
  8  9  2  3
  8 10  1  0
  8 11  1  0
  9 12  1  0
  9 13  1  0
M  RAD  1   4   2
M  END
>  <reaction>  (4) 
rxn_1593

>  <mol_properties>  (4) 
{"1": {"label": "*3", "atom_type": "Cdd"}, "2": {"label": "*4", "atom_type": "Cd"}, "7": {"label": "*0", "atom_type": "Cd"}, "8": {"label": "*1", "atom_type": "Cd"}, "11": {"label": "*2", "atom_type": "H0"}}

>  <type>  (4) 
ts

$$$$

     RDKit          3D

 13 11  0  0  0  0  0  0  0  0999 V2000
   -1.8793    0.8893    1.4298 C   0  0  0  0  0  0  0  0  0  0  0  0
   -0.8932    0.5997    0.5827 C   0  0  0  0  0  0  0  0  0  0  0  0
    0.5017    0.7809    0.9386 C   0  0  0  0  0  0  0  0  0  0  0  0
    1.7589    0.4576   -0.0205 S   0  0  0  0  0  1  0  0  0  0  0  0
   -1.6737    1.2736    2.4228 H   0  0  0  0  0  0  0  0  0  0  0  0
   -2.9183    0.7523    1.1594 H   0  0  0  0  0  0  0  0  0  0  0  0
    0.6726    1.1690    1.9443 H   0  0  0  0  0  0  0  0  0  0  0  0
   -0.8932   -1.6152   -2.1036 C   0  0  0  0  0  0  0  0  0  0  0  0
   -0.8932   -1.6152   -0.7819 C   0  0  0  0  0  0  0  0  0  0  0  0
   -0.8932   -0.6926   -2.6720 H   0  0  0  0  0  0  0  0  0  0  0  0
   -0.8932   -2.5378   -2.6720 H   0  0  0  0  0  0  0  0  0  0  0  0
   -0.8932   -0.5081   -0.0998 H   0  0  0  0  0  0  0  0  0  0  0  0
   -0.8932   -2.5378   -0.2135 H   0  0  0  0  0  0  0  0  0  0  0  0
  1  2  2  0
  1  5  1  0
  1  6  1  0
  2  3  2  0
  3  4  1  0
  3  7  1  0
  8  9  2  3
  8 10  1  0
  8 11  1  0
  9 12  1  0
  9 13  1  0
M  RAD  1   4   2
M  END
>  <reaction>  (5) 
rxn_1593

>  <mol_properties>  (5) 
{"1": {"label": "*3", "atom_type": "Cdd"}, "2": {"label": "*4", "atom_type": "Cd"}, "7": {"label": "*0", "atom_type": "Cd"}, "8": {"label": "*1", "atom_type": "Cd"}, "11": {"label": "*2", "atom_type": "H0"}}

>  <type>  (5) 
unop_1

>  <geom_source>  (5) 
Heuristics

$$$$

     RDKit          3D

 13 11  0  0  0  0  0  0  0  0999 V2000
   -0.8423    2.0473   -0.6948 C   0  0  0  0  0  0  0  0  0  0  0  0
   -0.2729    0.9417   -0.2176 C   0  0  0  0  0  0  0  0  0  0  0  0
    0.0339    0.7840    1.1917 C   0  0  0  0  0  0  0  0  0  0  0  0
    0.7209   -0.5160    1.8572 S   0  0  0  0  0  1  0  0  0  0  0  0
   -1.0987    2.8748   -0.0426 H   0  0  0  0  0  0  0  0  0  0  0  0
   -1.0691    2.1599   -1.7470 H   0  0  0  0  0  0  0  0  0  0  0  0
   -0.2371    1.6351    1.8190 H   0  0  0  0  0  0  0  0  0  0  0  0
   -0.2729   -1.2731   -2.9039 C   0  0  0  0  0  0  0  0  0  0  0  0
   -0.2729   -1.2731   -1.5821 C   0  0  0  0  0  0  0  0  0  0  0  0
   -0.2729   -0.3505   -3.4723 H   0  0  0  0  0  0  0  0  0  0  0  0
   -0.2729   -2.1957   -3.4723 H   0  0  0  0  0  0  0  0  0  0  0  0
   -0.2729   -0.1660   -0.9001 H   0  0  0  0  0  0  0  0  0  0  0  0
   -0.2729   -2.1957   -1.0138 H   0  0  0  0  0  0  0  0  0  0  0  0
  1  2  2  0
  1  5  1  0
  1  6  1  0
  2  3  2  0
  3  4  1  0
  3  7  1  0
  8  9  2  3
  8 10  1  0
  8 11  1  0
  9 12  1  0
  9 13  1  0
M  RAD  1   4   2
M  END
>  <reaction>  (6) 
rxn_1593

>  <mol_properties>  (6) 
{"1": {"label": "*3", "atom_type": "Cdd"}, "2": {"label": "*4", "atom_type": "Cd"}, "7": {"label": "*0", "atom_type": "Cd"}, "8": {"label": "*1", "atom_type": "Cd"}, "11": {"label": "*2", "atom_type": "H0"}}

>  <type>  (6) 
unop_2

>  <geom_source>  (6) 
Heuristics

$$$$

     RDKit          3D

 13 11  0  0  0  0  0  0  0  0999 V2000
   -1.2894    0.3648    2.1867 C   0  0  0  0  0  0  0  0  0  0  0  0
   -0.7201    0.2937    0.9847 C   0  0  0  0  0  0  0  0  0  0  0  0
    0.5051    1.0059    0.6730 C   0  0  0  0  0  0  0  0  0  0  0  0
    1.2636    0.9785   -0.7513 S   0  0  0  0  0  1  0  0  0  0  0  0
   -0.8548    0.9615    2.9810 H   0  0  0  0  0  0  0  0  0  0  0  0
   -2.2034   -0.1685    2.4141 H   0  0  0  0  0  0  0  0  0  0  0  0
    0.9151    1.5962    1.4945 H   0  0  0  0  0  0  0  0  0  0  0  0
   -0.7201   -1.9211   -1.7016 C   0  0  0  0  0  0  0  0  0  0  0  0
   -0.7201   -1.9211   -0.3798 C   0  0  0  0  0  0  0  0  0  0  0  0
   -0.7201   -0.9985   -2.2700 H   0  0  0  0  0  0  0  0  0  0  0  0
   -0.7201   -2.8437   -2.2700 H   0  0  0  0  0  0  0  0  0  0  0  0
   -0.7201   -0.8140    0.3022 H   0  0  0  0  0  0  0  0  0  0  0  0
   -0.7201   -2.8437    0.1886 H   0  0  0  0  0  0  0  0  0  0  0  0
  1  2  2  0
  1  5  1  0
  1  6  1  0
  2  3  2  0
  3  4  1  0
  3  7  1  0
  8  9  2  3
  8 10  1  0
  8 11  1  0
  9 12  1  0
  9 13  1  0
M  RAD  1   4   2
M  END
>  <reaction>  (7) 
rxn_1593

>  <mol_properties>  (7) 
{"1": {"label": "*3", "atom_type": "Cdd"}, "2": {"label": "*4", "atom_type": "Cd"}, "7": {"label": "*0", "atom_type": "Cd"}, "8": {"label": "*1", "atom_type": "Cd"}, "11": {"label": "*2", "atom_type": "H0"}}

>  <type>  (7) 
unop_3

>  <geom_source>  (7) 
Heuristics

$$$$

     RDKit          3D

 13 11  0  0  0  0  0  0  0  0999 V2000
    1.5443    1.7984   -0.1864 C   0  0  0  0  0  0  0  0  0  0  0  0
    0.5582    0.9115   -0.0641 C   0  0  0  0  0  0  0  0  0  0  0  0
   -0.1488    0.7184    1.1881 C   0  0  0  0  0  0  0  0  0  0  0  0
   -1.3524   -0.3296    1.4280 S   0  0  0  0  0  1  0  0  0  0  0  0
    1.8564    2.4123    0.6512 H   0  0  0  0  0  0  0  0  0  0  0  0
    2.0685    1.9386   -1.1229 H   0  0  0  0  0  0  0  0  0  0  0  0
    0.1905    1.3519    2.0097 H   0  0  0  0  0  0  0  0  0  0  0  0
    0.5582   -1.3034   -2.7504 C   0  0  0  0  0  0  0  0  0  0  0  0
    0.5582   -1.3034   -1.4287 C   0  0  0  0  0  0  0  0  0  0  0  0
    0.5582   -0.3808   -3.3188 H   0  0  0  0  0  0  0  0  0  0  0  0
    0.5582   -2.2259   -3.3188 H   0  0  0  0  0  0  0  0  0  0  0  0
    0.5582   -0.1962   -0.7466 H   0  0  0  0  0  0  0  0  0  0  0  0
    0.5582   -2.2259   -0.8603 H   0  0  0  0  0  0  0  0  0  0  0  0
  1  2  2  0
  1  5  1  0
  1  6  1  0
  2  3  2  0
  3  4  1  0
  3  7  1  0
  8  9  2  3
  8 10  1  0
  8 11  1  0
  9 12  1  0
  9 13  1  0
M  RAD  1   4   2
M  END
>  <reaction>  (8) 
rxn_1593

>  <mol_properties>  (8) 
{"1": {"label": "*3", "atom_type": "Cdd"}, "2": {"label": "*4", "atom_type": "Cd"}, "7": {"label": "*0", "atom_type": "Cd"}, "8": {"label": "*1", "atom_type": "Cd"}, "11": {"label": "*2", "atom_type": "H0"}}

>  <type>  (8) 
unop_4

>  <geom_source>  (8) 
Heuristics

$$$$

     RDKit          3D

 13 11  0  0  0  0  0  0  0  0999 V2000
    0.0000    0.0119    2.5625 C   0  0  0  0  0  0  0  0  0  0  0  0
    0.0000    0.0209    1.2305 C   0  0  0  0  0  0  0  0  0  0  0  0
   -0.0000    1.2577    0.4719 C   0  0  0  0  0  0  0  0  0  0  0  0
   -0.0000    1.3644   -1.1385 S   0  0  0  0  0  1  0  0  0  0  0  0
    0.0000    0.9349    3.1316 H   0  0  0  0  0  0  0  0  0  0  0  0
    0.0000   -0.9135    3.1236 H   0  0  0  0  0  0  0  0  0  0  0  0
   -0.0000    2.1670    1.0756 H   0  0  0  0  0  0  0  0  0  0  0  0
    0.0000   -2.1940   -1.4557 C   0  0  0  0  0  0  0  0  0  0  0  0
    0.0000   -2.1940   -0.1340 C   0  0  0  0  0  0  0  0  0  0  0  0
    0.0000   -1.2714   -2.0241 H   0  0  0  0  0  0  0  0  0  0  0  0
    0.0000   -3.1166   -2.0241 H   0  0  0  0  0  0  0  0  0  0  0  0
    0.0000   -1.0869    0.5481 H   0  0  0  0  0  0  0  0  0  0  0  0
    0.0000   -3.1166    0.4344 H   0  0  0  0  0  0  0  0  0  0  0  0
  1  2  2  0
  1  5  1  0
  1  6  1  0
  2  3  2  0
  3  4  1  0
  3  7  1  0
  8  9  2  3
  8 10  1  0
  8 11  1  0
  9 12  1  0
  9 13  1  0
M  RAD  1   4   2
M  END
>  <reaction>  (9) 
rxn_1593

>  <mol_properties>  (9) 
{"1": {"label": "*3", "atom_type": "Cdd"}, "2": {"label": "*4", "atom_type": "Cd"}, "7": {"label": "*0", "atom_type": "Cd"}, "8": {"label": "*1", "atom_type": "Cd"}, "11": {"label": "*2", "atom_type": "H0"}}

>  <type>  (9) 
unop_5

>  <geom_source>  (9) 
Heuristics

$$$$

     RDKit          3D

 13 11  0  0  0  0  0  0  0  0999 V2000
    1.9364    1.3916    0.5735 C   0  0  0  0  0  0  0  0  0  0  0  0
    0.7977    0.8033    0.2110 C   0  0  0  0  0  0  0  0  0  0  0  0
   -0.3332    0.6993    1.1142 C   0  0  0  0  0  0  0  0  0  0  0  0
   -1.7475    0.0060    0.7623 S   0  0  0  0  0  1  0  0  0  0  0  0
    2.0600    1.8169    1.5633 H   0  0  0  0  0  0  0  0  0  0  0  0
    2.7770    1.4666   -0.1041 H   0  0  0  0  0  0  0  0  0  0  0  0
   -0.1747    1.1374    2.1013 H   0  0  0  0  0  0  0  0  0  0  0  0
    0.7977   -1.4115   -2.4752 C   0  0  0  0  0  0  0  0  0  0  0  0
    0.7977   -1.4115   -1.1535 C   0  0  0  0  0  0  0  0  0  0  0  0
    0.7977   -0.4889   -3.0436 H   0  0  0  0  0  0  0  0  0  0  0  0
    0.7977   -2.3341   -3.0436 H   0  0  0  0  0  0  0  0  0  0  0  0
    0.7977   -0.3044   -0.4714 H   0  0  0  0  0  0  0  0  0  0  0  0
    0.7977   -2.3341   -0.5851 H   0  0  0  0  0  0  0  0  0  0  0  0
  1  2  2  0
  1  5  1  0
  1  6  1  0
  2  3  2  0
  3  4  1  0
  3  7  1  0
  8  9  2  3
  8 10  1  0
  8 11  1  0
  9 12  1  0
  9 13  1  0
M  RAD  1   4   2
M  END
>  <reaction>  (10) 
rxn_1593

>  <mol_properties>  (10) 
{"1": {"label": "*3", "atom_type": "Cdd"}, "2": {"label": "*4", "atom_type": "Cd"}, "7": {"label": "*0", "atom_type": "Cd"}, "8": {"label": "*1", "atom_type": "Cd"}, "11": {"label": "*2", "atom_type": "H0"}}

>  <type>  (10) 
unop_6

>  <geom_source>  (10) 
Heuristics

$$$$

     RDKit          3D

 13 11  0  0  0  0  0  0  0  0999 V2000
    1.8793    0.8893    1.4298 C   0  0  0  0  0  0  0  0  0  0  0  0
    0.8932    0.5997    0.5827 C   0  0  0  0  0  0  0  0  0  0  0  0
   -0.5017    0.7809    0.9386 C   0  0  0  0  0  0  0  0  0  0  0  0
   -1.7589    0.4576   -0.0205 S   0  0  0  0  0  1  0  0  0  0  0  0
    1.6737    1.2736    2.4228 H   0  0  0  0  0  0  0  0  0  0  0  0
    2.9183    0.7523    1.1594 H   0  0  0  0  0  0  0  0  0  0  0  0
   -0.6726    1.1690    1.9443 H   0  0  0  0  0  0  0  0  0  0  0  0
    0.8932   -1.6152   -2.1036 C   0  0  0  0  0  0  0  0  0  0  0  0
    0.8932   -1.6152   -0.7819 C   0  0  0  0  0  0  0  0  0  0  0  0
    0.8932   -0.6926   -2.6720 H   0  0  0  0  0  0  0  0  0  0  0  0
    0.8932   -2.5378   -2.6720 H   0  0  0  0  0  0  0  0  0  0  0  0
    0.8932   -0.5081   -0.0998 H   0  0  0  0  0  0  0  0  0  0  0  0
    0.8932   -2.5378   -0.2135 H   0  0  0  0  0  0  0  0  0  0  0  0
  1  2  2  0
  1  5  1  0
  1  6  1  0
  2  3  2  0
  3  4  1  0
  3  7  1  0
  8  9  2  3
  8 10  1  0
  8 11  1  0
  9 12  1  0
  9 13  1  0
M  RAD  1   4   2
M  END
>  <reaction>  (11) 
rxn_1593

>  <mol_properties>  (11) 
{"1": {"label": "*3", "atom_type": "Cdd"}, "2": {"label": "*4", "atom_type": "Cd"}, "7": {"label": "*0", "atom_type": "Cd"}, "8": {"label": "*1", "atom_type": "Cd"}, "11": {"label": "*2", "atom_type": "H0"}}

>  <type>  (11) 
unop_7

>  <geom_source>  (11) 
Heuristics

$$$$

     RDKit          3D

 13 11  0  0  0  0  0  0  0  0999 V2000
   -1.9364    1.3916    0.5735 C   0  0  0  0  0  0  0  0  0  0  0  0
   -0.7977    0.8033    0.2110 C   0  0  0  0  0  0  0  0  0  0  0  0
    0.3332    0.6993    1.1142 C   0  0  0  0  0  0  0  0  0  0  0  0
    1.7475    0.0060    0.7623 S   0  0  0  0  0  1  0  0  0  0  0  0
   -2.0600    1.8169    1.5633 H   0  0  0  0  0  0  0  0  0  0  0  0
   -2.7770    1.4666   -0.1041 H   0  0  0  0  0  0  0  0  0  0  0  0
    0.1747    1.1374    2.1013 H   0  0  0  0  0  0  0  0  0  0  0  0
   -0.7977   -1.4115   -2.4752 C   0  0  0  0  0  0  0  0  0  0  0  0
   -0.7977   -1.4115   -1.1535 C   0  0  0  0  0  0  0  0  0  0  0  0
   -0.7977   -0.4889   -3.0436 H   0  0  0  0  0  0  0  0  0  0  0  0
   -0.7977   -2.3341   -3.0436 H   0  0  0  0  0  0  0  0  0  0  0  0
   -0.7977   -0.3044   -0.4714 H   0  0  0  0  0  0  0  0  0  0  0  0
   -0.7977   -2.3341   -0.5851 H   0  0  0  0  0  0  0  0  0  0  0  0
  1  2  2  0
  1  5  1  0
  1  6  1  0
  2  3  2  0
  3  4  1  0
  3  7  1  0
  8  9  2  3
  8 10  1  0
  8 11  1  0
  9 12  1  0
  9 13  1  0
M  RAD  1   4   2
M  END
>  <reaction>  (12) 
rxn_1593

>  <mol_properties>  (12) 
{"1": {"label": "*3", "atom_type": "Cdd"}, "2": {"label": "*4", "atom_type": "Cd"}, "7": {"label": "*0", "atom_type": "Cd"}, "8": {"label": "*1", "atom_type": "Cd"}, "11": {"label": "*2", "atom_type": "H0"}}

>  <type>  (12) 
unop_8

>  <geom_source>  (12) 
Heuristics

$$$$

     RDKit          3D

 13 11  0  0  0  0  0  0  0  0999 V2000
    0.8423    2.0473   -0.6948 C   0  0  0  0  0  0  0  0  0  0  0  0
    0.2729    0.9417   -0.2176 C   0  0  0  0  0  0  0  0  0  0  0  0
   -0.0339    0.7840    1.1917 C   0  0  0  0  0  0  0  0  0  0  0  0
   -0.7209   -0.5160    1.8572 S   0  0  0  0  0  1  0  0  0  0  0  0
    1.0987    2.8748   -0.0426 H   0  0  0  0  0  0  0  0  0  0  0  0
    1.0691    2.1599   -1.7470 H   0  0  0  0  0  0  0  0  0  0  0  0
    0.2371    1.6351    1.8190 H   0  0  0  0  0  0  0  0  0  0  0  0
    0.2729   -1.2731   -2.9039 C   0  0  0  0  0  0  0  0  0  0  0  0
    0.2729   -1.2731   -1.5821 C   0  0  0  0  0  0  0  0  0  0  0  0
    0.2729   -0.3505   -3.4723 H   0  0  0  0  0  0  0  0  0  0  0  0
    0.2729   -2.1957   -3.4723 H   0  0  0  0  0  0  0  0  0  0  0  0
    0.2729   -0.1660   -0.9001 H   0  0  0  0  0  0  0  0  0  0  0  0
    0.2729   -2.1957   -1.0138 H   0  0  0  0  0  0  0  0  0  0  0  0
  1  2  2  0
  1  5  1  0
  1  6  1  0
  2  3  2  0
  3  4  1  0
  3  7  1  0
  8  9  2  3
  8 10  1  0
  8 11  1  0
  9 12  1  0
  9 13  1  0
M  RAD  1   4   2
M  END
>  <reaction>  (13) 
rxn_1593

>  <mol_properties>  (13) 
{"1": {"label": "*3", "atom_type": "Cdd"}, "2": {"label": "*4", "atom_type": "Cd"}, "7": {"label": "*0", "atom_type": "Cd"}, "8": {"label": "*1", "atom_type": "Cd"}, "11": {"label": "*2", "atom_type": "H0"}}

>  <type>  (13) 
unop_9

>  <geom_source>  (13) 
Heuristics

$$$$

     RDKit          3D

 13 11  0  0  0  0  0  0  0  0999 V2000
   -1.5443    1.7984   -0.1864 C   0  0  0  0  0  0  0  0  0  0  0  0
   -0.5582    0.9115   -0.0641 C   0  0  0  0  0  0  0  0  0  0  0  0
    0.1488    0.7184    1.1881 C   0  0  0  0  0  0  0  0  0  0  0  0
    1.3524   -0.3296    1.4280 S   0  0  0  0  0  1  0  0  0  0  0  0
   -1.8564    2.4123    0.6512 H   0  0  0  0  0  0  0  0  0  0  0  0
   -2.0685    1.9386   -1.1229 H   0  0  0  0  0  0  0  0  0  0  0  0
   -0.1905    1.3519    2.0097 H   0  0  0  0  0  0  0  0  0  0  0  0
   -0.5582   -1.3034   -2.7504 C   0  0  0  0  0  0  0  0  0  0  0  0
   -0.5582   -1.3034   -1.4287 C   0  0  0  0  0  0  0  0  0  0  0  0
   -0.5582   -0.3808   -3.3188 H   0  0  0  0  0  0  0  0  0  0  0  0
   -0.5582   -2.2259   -3.3188 H   0  0  0  0  0  0  0  0  0  0  0  0
   -0.5582   -0.1962   -0.7466 H   0  0  0  0  0  0  0  0  0  0  0  0
   -0.5582   -2.2259   -0.8603 H   0  0  0  0  0  0  0  0  0  0  0  0
  1  2  2  0
  1  5  1  0
  1  6  1  0
  2  3  2  0
  3  4  1  0
  3  7  1  0
  8  9  2  3
  8 10  1  0
  8 11  1  0
  9 12  1  0
  9 13  1  0
M  RAD  1   4   2
M  END
>  <reaction>  (14) 
rxn_1593

>  <mol_properties>  (14) 
{"1": {"label": "*3", "atom_type": "Cdd"}, "2": {"label": "*4", "atom_type": "Cd"}, "7": {"label": "*0", "atom_type": "Cd"}, "8": {"label": "*1", "atom_type": "Cd"}, "11": {"label": "*2", "atom_type": "H0"}}

>  <type>  (14) 
unop_10

>  <geom_source>  (14) 
Heuristics

$$$$

     RDKit          3D

 13 11  0  0  0  0  0  0  0  0999 V2000
    1.2894    0.3648    2.1867 C   0  0  0  0  0  0  0  0  0  0  0  0
    0.7201    0.2937    0.9847 C   0  0  0  0  0  0  0  0  0  0  0  0
   -0.5051    1.0059    0.6730 C   0  0  0  0  0  0  0  0  0  0  0  0
   -1.2636    0.9785   -0.7513 S   0  0  0  0  0  1  0  0  0  0  0  0
    0.8548    0.9615    2.9810 H   0  0  0  0  0  0  0  0  0  0  0  0
    2.2034   -0.1685    2.4141 H   0  0  0  0  0  0  0  0  0  0  0  0
   -0.9151    1.5962    1.4945 H   0  0  0  0  0  0  0  0  0  0  0  0
    0.7201   -1.9211   -1.7016 C   0  0  0  0  0  0  0  0  0  0  0  0
    0.7201   -1.9211   -0.3798 C   0  0  0  0  0  0  0  0  0  0  0  0
    0.7201   -0.9985   -2.2700 H   0  0  0  0  0  0  0  0  0  0  0  0
    0.7201   -2.8437   -2.2700 H   0  0  0  0  0  0  0  0  0  0  0  0
    0.7201   -0.8140    0.3022 H   0  0  0  0  0  0  0  0  0  0  0  0
    0.7201   -2.8437    0.1886 H   0  0  0  0  0  0  0  0  0  0  0  0
  1  2  2  0
  1  5  1  0
  1  6  1  0
  2  3  2  0
  3  4  1  0
  3  7  1  0
  8  9  2  3
  8 10  1  0
  8 11  1  0
  9 12  1  0
  9 13  1  0
M  RAD  1   4   2
M  END
>  <reaction>  (15) 
rxn_1593

>  <mol_properties>  (15) 
{"1": {"label": "*3", "atom_type": "Cdd"}, "2": {"label": "*4", "atom_type": "Cd"}, "7": {"label": "*0", "atom_type": "Cd"}, "8": {"label": "*1", "atom_type": "Cd"}, "11": {"label": "*2", "atom_type": "H0"}}

>  <type>  (15) 
unop_11

>  <geom_source>  (15) 
Heuristics

$$$$

     RDKit          3D

 13 11  0  0  0  0  0  0  0  0999 V2000
   -0.0000    2.1270   -0.8706 C   0  0  0  0  0  0  0  0  0  0  0  0
   -0.0000    0.9414   -0.2636 C   0  0  0  0  0  0  0  0  0  0  0  0
    0.0000    0.8200    1.1823 C   0  0  0  0  0  0  0  0  0  0  0  0
    0.0000   -0.5703    2.0019 S   0  0  0  0  0  1  0  0  0  0  0  0
   -0.0000    3.0504   -0.3021 H   0  0  0  0  0  0  0  0  0  0  0  0
   -0.0000    2.2120   -1.9496 H   0  0  0  0  0  0  0  0  0  0  0  0
    0.0000    1.7682    1.7230 H   0  0  0  0  0  0  0  0  0  0  0  0
   -0.0000   -1.2735   -2.9498 C   0  0  0  0  0  0  0  0  0  0  0  0
   -0.0000   -1.2735   -1.6281 C   0  0  0  0  0  0  0  0  0  0  0  0
   -0.0000   -0.3509   -3.5182 H   0  0  0  0  0  0  0  0  0  0  0  0
   -0.0000   -2.1961   -3.5182 H   0  0  0  0  0  0  0  0  0  0  0  0
   -0.0000   -0.1664   -0.9460 H   0  0  0  0  0  0  0  0  0  0  0  0
   -0.0000   -2.1961   -1.0597 H   0  0  0  0  0  0  0  0  0  0  0  0
  1  2  2  0
  1  5  1  0
  1  6  1  0
  2  3  2  0
  3  4  1  0
  3  7  1  0
  8  9  2  3
  8 10  1  0
  8 11  1  0
  9 12  1  0
  9 13  1  0
M  RAD  1   4   2
M  END
>  <reaction>  (16) 
rxn_1593

>  <mol_properties>  (16) 
{"1": {"label": "*3", "atom_type": "Cdd"}, "2": {"label": "*4", "atom_type": "Cd"}, "7": {"label": "*0", "atom_type": "Cd"}, "8": {"label": "*1", "atom_type": "Cd"}, "11": {"label": "*2", "atom_type": "H0"}}

>  <type>  (16) 
unop_12

>  <geom_source>  (16) 
Heuristics

$$$$

     RDKit          3D

 13 11  0  0  0  0  0  0  0  0999 V2000
   -0.6741    2.5786    0.5421 S   0  0  0  0  0  1  0  0  0  0  0  0
   -1.0183    0.0092   -0.1603 C   0  0  0  0  0  0  0  0  0  0  0  0
   -1.7662   -1.0581   -0.4193 C   0  0  0  0  0  0  0  0  0  0  0  0
   -1.6227    1.2863    0.2308 C   0  0  0  0  0  0  0  0  0  0  0  0
    2.6880   -0.1866   -0.1158 C   0  0  0  0  0  0  0  0  0  0  0  0
    1.4616   -0.5615    0.2364 C   0  0  0  0  0  0  0  0  0  0  0  0
    0.3278   -0.0897   -0.2609 H   0  0  0  0  0  0  0  0  0  0  0  0
   -1.2931   -1.9876   -0.7057 H   0  0  0  0  0  0  0  0  0  0  0  0
   -2.8463   -1.0179   -0.3495 H   0  0  0  0  0  0  0  0  0  0  0  0
   -2.6975    1.3873    0.3173 H   0  0  0  0  0  0  0  0  0  0  0  0
    3.3014    0.3934    0.5661 H   0  0  0  0  0  0  0  0  0  0  0  0
    3.0780   -0.4615   -1.0896 H   0  0  0  0  0  0  0  0  0  0  0  0
    1.0614   -0.2918    1.2083 H   0  0  0  0  0  0  0  0  0  0  0  0
  1  4  1  0
  2  3  2  0
  2  4  2  0
  3  8  1  0
  3  9  1  0
  4 10  1  0
  5  6  2  3
  5 11  1  0
  5 12  1  0
  6  7  1  0
  6 13  1  0
M  RAD  1   1   2
M  END
>  <reaction>  (17) 
rxn_1593

>  <mol_properties>  (17) 
{"1": {"label": "*3", "atom_type": "Cdd"}, "2": {"label": "*4", "atom_type": "Cd"}, "7": {"label": "*0", "atom_type": "Cd"}, "8": {"label": "*1", "atom_type": "Cd"}, "11": {"label": "*2", "atom_type": "H0"}}

>  <type>  (17) 
unop_13

>  <geom_source>  (17) 
AutoTST

$$$$
