
     RDKit          3D

  9  8  0  0  0  0  0  0  0  0999 V2000
   -2.1022   -0.6873    0.3932 C   0  0  0  0  0  0  0  0  0  0  0  0
   -1.2072   -0.1086   -0.1482 C   0  0  0  0  0  0  0  0  0  0  0  0
   -0.1242    0.6105   -0.8193 C   0  0  0  0  0  0  0  0  0  0  0  0
    1.2067    0.1106   -0.4741 C   0  0  0  0  0  0  0  0  0  0  0  0
    2.3005   -0.2875   -0.2012 C   0  0  0  0  0  0  0  0  0  0  0  0
   -2.8942   -1.2059    0.8778 H   0  0  0  0  0  0  0  0  0  0  0  0
   -0.1862    1.6723   -0.5649 H   0  0  0  0  0  0  0  0  0  0  0  0
   -0.2641    0.5418   -1.9017 H   0  0  0  0  0  0  0  0  0  0  0  0
    3.2709   -0.6459    0.0455 H   0  0  0  0  0  0  0  0  0  0  0  0
  1  2  3  0
  1  6  1  0
  2  3  1  0
  3  4  1  0
  3  7  1  0
  3  8  1  0
  4  5  3  0
  5  9  1  0
M  END
>  <reaction>  (1) 
rxn_1381

>  <mol_properties>  (1) 
{"2": {"label": "donator", "atom_type": "Cs"}, "6": {"label": "d_hydrogen", "atom_type": "H0"}}

>  <type>  (1) 
r1h

$$$$

     RDKit          3D

 10  9  0  0  0  0  0  0  0  0999 V2000
   -1.2648    0.1959    0.8197 C   0  0  0  0  0  0  0  0  0  0  0  0
   -0.2805    0.0995   -0.3030 C   0  0  0  0  0  3  0  0  0  0  0  0
   -0.0444    1.1347   -1.1797 C   0  0  0  0  0  0  0  0  0  0  0  0
    0.1640    2.0467   -1.9525 C   0  0  0  0  0  0  0  0  0  0  0  0
    0.5686   -1.4168   -0.4488 S   0  0  0  0  0  0  0  0  0  0  0  0
   -2.0466   -0.5638    0.7258 H   0  0  0  0  0  0  0  0  0  0  0  0
   -0.7765    0.0454    1.7871 H   0  0  0  0  0  0  0  0  0  0  0  0
   -1.7371    1.1762    0.8222 H   0  0  0  0  0  0  0  0  0  0  0  0
    0.3433    2.8484   -2.6273 H   0  0  0  0  0  0  0  0  0  0  0  0
    1.3075   -1.0953   -1.5176 H   0  0  0  0  0  0  0  0  0  0  0  0
  1  2  1  0
  1  6  1  0
  1  7  1  0
  1  8  1  0
  2  3  1  0
  2  5  1  0
  3  4  3  0
  4  9  1  0
  5 10  1  0
M  RAD  1   2   2
M  END
>  <reaction>  (2) 
rxn_1381

>  <mol_properties>  (2) 
{"1": {"label": "acceptor", "atom_type": "Cs"}}

>  <type>  (2) 
r2

$$$$

     RDKit          3D

 11 10  0  0  0  0  0  0  0  0999 V2000
   -1.2582   -0.5130    0.2160 C   0  0  0  0  0  0  0  0  0  0  0  0
   -0.1109    0.0509   -0.6210 C   0  0  0  0  0  0  0  0  0  0  0  0
    1.1862   -0.2025   -0.0072 C   0  0  0  0  0  0  0  0  0  0  0  0
    2.2351   -0.4206    0.5274 C   0  0  0  0  0  0  0  0  0  0  0  0
   -0.3298    1.8272   -1.0120 S   0  0  0  0  0  0  0  0  0  0  0  0
   -1.2875   -0.0327    1.1945 H   0  0  0  0  0  0  0  0  0  0  0  0
   -2.2088   -0.3391   -0.2866 H   0  0  0  0  0  0  0  0  0  0  0  0
   -1.1220   -1.5854    0.3655 H   0  0  0  0  0  0  0  0  0  0  0  0
   -0.1222   -0.4181   -1.6078 H   0  0  0  0  0  0  0  0  0  0  0  0
    3.1729   -0.6098    0.9920 H   0  0  0  0  0  0  0  0  0  0  0  0
   -0.1942    2.2663    0.2466 H   0  0  0  0  0  0  0  0  0  0  0  0
  1  2  1  0
  1  6  1  0
  1  7  1  0
  1  8  1  0
  2  3  1  0
  2  5  1  0
  2  9  1  0
  3  4  3  0
  4 10  1  0
  5 11  1  0
M  END
>  <reaction>  (3) 
rxn_1381

>  <mol_properties>  (3) 
{"1": {"label": "acceptor", "atom_type": "Cs"}, "10": {"label": "a_hydrogen", "atom_type": "H0"}}

>  <type>  (3) 
r2h

$$$$

     RDKit          3D

 19 17  0  0  0  0  0  0  0  0999 V2000
    0.1498    0.7468    2.2881 C   0  0  0  0  0  0  0  0  0  0  0  0
    0.7074    0.4561    0.9109 C   0  0  0  0  0  0  0  0  0  0  0  0
    1.8957   -0.3303    0.8513 C   0  0  0  0  0  0  0  0  0  0  0  0
    2.8540   -1.0506    0.7726 C   0  0  0  0  0  0  0  0  0  0  0  0
    0.6612    1.8884   -0.1533 S   0  0  0  0  0  0  0  0  0  0  0  0
    0.7974    1.4344    2.8365 H   0  0  0  0  0  0  0  0  0  0  0  0
   -0.8448    1.1866    2.2056 H   0  0  0  0  0  0  0  0  0  0  0  0
    0.0745   -0.1795    2.8576 H   0  0  0  0  0  0  0  0  0  0  0  0
    3.7133   -1.6740    0.7092 H   0  0  0  0  0  0  0  0  0  0  0  0
    1.2149    1.2993   -1.2213 H   0  0  0  0  0  0  0  0  0  0  0  0
   -0.4299   -1.1933   -2.6857 C   0  0  0  0  0  0  0  0  0  0  0  0
   -0.8039   -1.1919   -1.5445 C   0  0  0  0  0  0  0  0  0  0  0  0
   -1.1744   -1.1536   -0.1653 C   0  0  0  0  0  3  0  0  0  0  0  0
   -2.4088   -0.5216    0.1792 C   0  0  0  0  0  0  0  0  0  0  0  0
   -3.4138    0.0466    0.5093 C   0  0  0  0  0  0  0  0  0  0  0  0
   -0.1236   -1.2112   -3.7038 H   0  0  0  0  0  0  0  0  0  0  0  0
   -0.2225   -0.3615    0.3815 H   0  0  0  0  0  0  0  0  0  0  0  0
   -0.9819   -2.0824    0.3701 H   0  0  0  0  0  0  0  0  0  0  0  0
   -4.3155    0.5383    0.7847 H   0  0  0  0  0  0  0  0  0  0  0  0
  1  2  1  0
  1  6  1  0
  1  7  1  0
  1  8  1  0
  2  3  1  0
  2  5  1  0
  2 17  1  0
  3  4  3  0
  4  9  1  0
  5 10  1  0
 11 12  3  0
 11 16  1  0
 12 13  1  0
 13 14  1  0
 13 18  1  0
 14 15  3  0
 15 19  1  0
M  RAD  1  13   2
M  END
>  <reaction>  (4) 
rxn_1381

>  <mol_properties>  (4) 
{"1": {"label": "*1", "atom_type": "Cs"}, "4": {"label": "*0", "atom_type": "S2s"}, "11": {"label": "*4", "atom_type": "Ct"}, "12": {"label": "*3", "atom_type": "Cs"}, "16": {"label": "*2", "atom_type": "H0"}}

>  <type>  (4) 
ts

$$$$

     RDKit          3D

 19 17  0  0  0  0  0  0  0  0999 V2000
   -0.0200    1.7698    1.3175 C   0  0  0  0  0  0  0  0  0  0  0  0
    0.7177    0.7334    0.4711 C   0  0  0  0  0  0  0  0  0  0  0  0
    1.0192   -0.4738    1.2296 C   0  0  0  0  0  0  0  0  0  0  0  0
    1.2579   -1.4484    1.8830 C   0  0  0  0  0  0  0  0  0  0  0  0
    2.2196    1.4141   -0.3267 S   0  0  0  0  0  0  0  0  0  0  0  0
    0.5997    2.0867    2.1569 H   0  0  0  0  0  0  0  0  0  0  0  0
   -0.2618    2.6431    0.7131 H   0  0  0  0  0  0  0  0  0  0  0  0
   -0.9418    1.3421    1.7155 H   0  0  0  0  0  0  0  0  0  0  0  0
    1.4699   -2.3139    2.4634 H   0  0  0  0  0  0  0  0  0  0  0  0
    2.9075    1.6048    0.8072 H   0  0  0  0  0  0  0  0  0  0  0  0
   -0.9979   -1.0547   -3.0491 C   0  0  0  0  0  0  0  0  0  0  0  0
   -0.9979   -1.0547   -1.8536 C   0  0  0  0  0  0  0  0  0  0  0  0
   -0.9979   -1.0547   -0.3906 C   0  0  0  0  0  3  0  0  0  0  0  0
   -2.3119   -0.7791    0.1906 C   0  0  0  0  0  0  0  0  0  0  0  0
   -3.3857   -0.5539    0.6655 C   0  0  0  0  0  0  0  0  0  0  0  0
   -0.9979   -1.0547   -4.1126 H   0  0  0  0  0  0  0  0  0  0  0  0
   -0.1398   -0.1603    0.0404 H   0  0  0  0  0  0  0  0  0  0  0  0
   -0.6426   -2.0246   -0.0314 H   0  0  0  0  0  0  0  0  0  0  0  0
   -4.3409   -0.3536    1.0879 H   0  0  0  0  0  0  0  0  0  0  0  0
  1  2  1  0
  1  6  1  0
  1  7  1  0
  1  8  1  0
  2  3  1  0
  2  5  1  0
  2 17  1  0
  3  4  3  0
  4  9  1  0
  5 10  1  0
 11 12  3  0
 11 16  1  0
 12 13  1  0
 13 14  1  0
 13 18  1  0
 14 15  3  0
 15 19  1  0
M  RAD  1  13   2
M  END
>  <reaction>  (5) 
rxn_1381

>  <mol_properties>  (5) 
{"1": {"label": "*1", "atom_type": "Cs"}, "4": {"label": "*0", "atom_type": "S2s"}, "11": {"label": "*4", "atom_type": "Ct"}, "12": {"label": "*3", "atom_type": "Cs"}, "16": {"label": "*2", "atom_type": "H0"}}

>  <type>  (5) 
unop_1

>  <geom_source>  (5) 
Heuristics

$$$$

     RDKit          3D

 19 17  0  0  0  0  0  0  0  0999 V2000
    0.9666    1.7557   -0.7279 C   0  0  0  0  0  0  0  0  0  0  0  0
    0.8748    0.6178    0.2877 C   0  0  0  0  0  0  0  0  0  0  0  0
    0.0503    0.9768    1.4343 C   0  0  0  0  0  0  0  0  0  0  0  0
   -0.6267    1.3062    2.3654 C   0  0  0  0  0  0  0  0  0  0  0  0
    2.5199    0.0065    0.8127 S   0  0  0  0  0  0  0  0  0  0  0  0
    1.4379    2.6302   -0.2783 H   0  0  0  0  0  0  0  0  0  0  0  0
    1.5585    1.4435   -1.5873 H   0  0  0  0  0  0  0  0  0  0  0  0
   -0.0319    2.0404   -1.0639 H   0  0  0  0  0  0  0  0  0  0  0  0
   -1.2279    1.5986    3.1924 H   0  0  0  0  0  0  0  0  0  0  0  0
    2.8862    1.1229    1.4567 H   0  0  0  0  0  0  0  0  0  0  0  0
   -0.8408   -1.1703   -3.2325 C   0  0  0  0  0  0  0  0  0  0  0  0
   -0.8408   -1.1703   -2.0370 C   0  0  0  0  0  0  0  0  0  0  0  0
   -0.8408   -1.1703   -0.5740 C   0  0  0  0  0  3  0  0  0  0  0  0
   -2.1548   -0.8947    0.0071 C   0  0  0  0  0  0  0  0  0  0  0  0
   -3.2286   -0.6695    0.4820 C   0  0  0  0  0  0  0  0  0  0  0  0
   -0.8408   -1.1703   -4.2960 H   0  0  0  0  0  0  0  0  0  0  0  0
    0.0173   -0.2759   -0.1430 H   0  0  0  0  0  0  0  0  0  0  0  0
   -0.4854   -2.1402   -0.2148 H   0  0  0  0  0  0  0  0  0  0  0  0
   -4.1838   -0.4692    0.9045 H   0  0  0  0  0  0  0  0  0  0  0  0
  1  2  1  0
  1  6  1  0
  1  7  1  0
  1  8  1  0
  2  3  1  0
  2  5  1  0
  2 17  1  0
  3  4  3  0
  4  9  1  0
  5 10  1  0
 11 12  3  0
 11 16  1  0
 12 13  1  0
 13 14  1  0
 13 18  1  0
 14 15  3  0
 15 19  1  0
M  RAD  1  13   2
M  END
>  <reaction>  (6) 
rxn_1381

>  <mol_properties>  (6) 
{"1": {"label": "*1", "atom_type": "Cs"}, "4": {"label": "*0", "atom_type": "S2s"}, "11": {"label": "*4", "atom_type": "Ct"}, "12": {"label": "*3", "atom_type": "Cs"}, "16": {"label": "*2", "atom_type": "H0"}}

>  <type>  (6) 
unop_2

>  <geom_source>  (6) 
Heuristics

$$$$

     RDKit          3D

 19 17  0  0  0  0  0  0  0  0999 V2000
    0.2323    1.1769    1.9712 C   0  0  0  0  0  0  0  0  0  0  0  0
    0.7089    0.6314    0.6258 C   0  0  0  0  0  0  0  0  0  0  0  0
    1.6127   -0.5002    0.7867 C   0  0  0  0  0  0  0  0  0  0  0  0
    2.3578   -1.4225    0.9541 C   0  0  0  0  0  0  0  0  0  0  0  0
    1.4436    1.9272   -0.4405 S   0  0  0  0  0  0  0  0  0  0  0  0
    1.0774    1.5451    2.5536 H   0  0  0  0  0  0  0  0  0  0  0  0
   -0.4680    1.9967    1.8158 H   0  0  0  0  0  0  0  0  0  0  0  0
   -0.2594    0.3882    2.5431 H   0  0  0  0  0  0  0  0  0  0  0  0
    3.0196   -2.2416    1.1028 H   0  0  0  0  0  0  0  0  0  0  0  0
    2.5156    2.1533    0.3308 H   0  0  0  0  0  0  0  0  0  0  0  0
   -1.0067   -1.1567   -2.8944 C   0  0  0  0  0  0  0  0  0  0  0  0
   -1.0067   -1.1567   -1.6989 C   0  0  0  0  0  0  0  0  0  0  0  0
   -1.0067   -1.1567   -0.2359 C   0  0  0  0  0  3  0  0  0  0  0  0
   -2.3207   -0.8811    0.3452 C   0  0  0  0  0  0  0  0  0  0  0  0
   -3.3945   -0.6559    0.8201 C   0  0  0  0  0  0  0  0  0  0  0  0
   -1.0067   -1.1567   -3.9579 H   0  0  0  0  0  0  0  0  0  0  0  0
   -0.1486   -0.2623    0.1951 H   0  0  0  0  0  0  0  0  0  0  0  0
   -0.6513   -2.1265    0.1233 H   0  0  0  0  0  0  0  0  0  0  0  0
   -4.3497   -0.4555    1.2426 H   0  0  0  0  0  0  0  0  0  0  0  0
  1  2  1  0
  1  6  1  0
  1  7  1  0
  1  8  1  0
  2  3  1  0
  2  5  1  0
  2 17  1  0
  3  4  3  0
  4  9  1  0
  5 10  1  0
 11 12  3  0
 11 16  1  0
 12 13  1  0
 13 14  1  0
 13 18  1  0
 14 15  3  0
 15 19  1  0
M  RAD  1  13   2
M  END
>  <reaction>  (7) 
rxn_1381

>  <mol_properties>  (7) 
{"1": {"label": "*1", "atom_type": "Cs"}, "4": {"label": "*0", "atom_type": "S2s"}, "11": {"label": "*4", "atom_type": "Ct"}, "12": {"label": "*3", "atom_type": "Cs"}, "16": {"label": "*2", "atom_type": "H0"}}

>  <type>  (7) 
unop_3

>  <geom_source>  (7) 
Heuristics

$$$$

     RDKit          3D

 19 17  0  0  0  0  0  0  0  0999 V2000
    2.4263    0.2426   -0.2702 C   0  0  0  0  0  0  0  0  0  0  0  0
    1.0321    0.5947    0.2464 C   0  0  0  0  0  0  0  0  0  0  0  0
    0.8764    2.0279    0.4592 C   0  0  0  0  0  0  0  0  0  0  0  0
    0.7842    3.2094    0.6302 C   0  0  0  0  0  0  0  0  0  0  0  0
    0.5733   -0.3569    1.7430 S   0  0  0  0  0  0  0  0  0  0  0  0
    3.1853    0.5242    0.4602 H   0  0  0  0  0  0  0  0  0  0  0  0
    2.4982   -0.8288   -0.4527 H   0  0  0  0  0  0  0  0  0  0  0  0
    2.6293    0.7794   -1.1984 H   0  0  0  0  0  0  0  0  0  0  0  0
    0.7022    4.2588    0.7821 H   0  0  0  0  0  0  0  0  0  0  0  0
    1.4813    0.2058    2.5517 H   0  0  0  0  0  0  0  0  0  0  0  0
   -0.6835   -1.1933   -3.2738 C   0  0  0  0  0  0  0  0  0  0  0  0
   -0.6835   -1.1933   -2.0783 C   0  0  0  0  0  0  0  0  0  0  0  0
   -0.6835   -1.1933   -0.6153 C   0  0  0  0  0  3  0  0  0  0  0  0
   -1.9975   -0.9177   -0.0341 C   0  0  0  0  0  0  0  0  0  0  0  0
   -3.0713   -0.6925    0.4408 C   0  0  0  0  0  0  0  0  0  0  0  0
   -0.6835   -1.1933   -4.3373 H   0  0  0  0  0  0  0  0  0  0  0  0
    0.1746   -0.2989   -0.1843 H   0  0  0  0  0  0  0  0  0  0  0  0
   -0.3281   -2.1632   -0.2561 H   0  0  0  0  0  0  0  0  0  0  0  0
   -4.0265   -0.4922    0.8632 H   0  0  0  0  0  0  0  0  0  0  0  0
  1  2  1  0
  1  6  1  0
  1  7  1  0
  1  8  1  0
  2  3  1  0
  2  5  1  0
  2 17  1  0
  3  4  3  0
  4  9  1  0
  5 10  1  0
 11 12  3  0
 11 16  1  0
 12 13  1  0
 13 14  1  0
 13 18  1  0
 14 15  3  0
 15 19  1  0
M  RAD  1  13   2
M  END
>  <reaction>  (8) 
rxn_1381

>  <mol_properties>  (8) 
{"1": {"label": "*1", "atom_type": "Cs"}, "4": {"label": "*0", "atom_type": "S2s"}, "11": {"label": "*4", "atom_type": "Ct"}, "12": {"label": "*3", "atom_type": "Cs"}, "16": {"label": "*2", "atom_type": "H0"}}

>  <type>  (8) 
unop_4

>  <geom_source>  (8) 
Heuristics

$$$$

     RDKit          3D

 19 17  0  0  0  0  0  0  0  0999 V2000
    0.8644    0.4296    2.2296 C   0  0  0  0  0  0  0  0  0  0  0  0
    0.8643    0.4295    0.7016 C   0  0  0  0  0  0  0  0  0  0  0  0
    2.1768    0.1060    0.1573 C   0  0  0  0  0  0  0  0  0  0  0  0
    3.2693   -0.1556   -0.2570 C   0  0  0  0  0  0  0  0  0  0  0  0
    0.2144    1.9902   -0.0038 S   0  0  0  0  0  0  0  0  0  0  0  0
    1.5459    1.1911    2.6102 H   0  0  0  0  0  0  0  0  0  0  0  0
   -0.1369    0.6390    2.6039 H   0  0  0  0  0  0  0  0  0  0  0  0
    1.1924   -0.5412    2.6050 H   0  0  0  0  0  0  0  0  0  0  0  0
    4.2396   -0.3880   -0.6250 H   0  0  0  0  0  0  0  0  0  0  0  0
    1.2201    2.7667    0.4215 H   0  0  0  0  0  0  0  0  0  0  0  0
   -0.8513   -1.3586   -2.8186 C   0  0  0  0  0  0  0  0  0  0  0  0
   -0.8513   -1.3586   -1.6231 C   0  0  0  0  0  0  0  0  0  0  0  0
   -0.8513   -1.3586   -0.1601 C   0  0  0  0  0  3  0  0  0  0  0  0
   -2.1653   -1.0830    0.4210 C   0  0  0  0  0  0  0  0  0  0  0  0
   -3.2390   -0.8577    0.8959 C   0  0  0  0  0  0  0  0  0  0  0  0
   -0.8513   -1.3586   -3.8821 H   0  0  0  0  0  0  0  0  0  0  0  0
    0.0069   -0.4642    0.2709 H   0  0  0  0  0  0  0  0  0  0  0  0
   -0.4959   -2.3284    0.1991 H   0  0  0  0  0  0  0  0  0  0  0  0
   -4.1942   -0.6574    1.3184 H   0  0  0  0  0  0  0  0  0  0  0  0
  1  2  1  0
  1  6  1  0
  1  7  1  0
  1  8  1  0
  2  3  1  0
  2  5  1  0
  2 17  1  0
  3  4  3  0
  4  9  1  0
  5 10  1  0
 11 12  3  0
 11 16  1  0
 12 13  1  0
 13 14  1  0
 13 18  1  0
 14 15  3  0
 15 19  1  0
M  RAD  1  13   2
M  END
>  <reaction>  (9) 
rxn_1381

>  <mol_properties>  (9) 
{"1": {"label": "*1", "atom_type": "Cs"}, "4": {"label": "*0", "atom_type": "S2s"}, "11": {"label": "*4", "atom_type": "Ct"}, "12": {"label": "*3", "atom_type": "Cs"}, "16": {"label": "*2", "atom_type": "H0"}}

>  <type>  (9) 
unop_5

>  <geom_source>  (9) 
Heuristics

$$$$

     RDKit          3D

 19 17  0  0  0  0  0  0  0  0999 V2000
    2.5010   -0.1394    0.4577 C   0  0  0  0  0  0  0  0  0  0  0  0
    1.1314    0.5176    0.2929 C   0  0  0  0  0  0  0  0  0  0  0  0
    1.2342    1.9656    0.1655 C   0  0  0  0  0  0  0  0  0  0  0  0
    1.3531    3.1533    0.0710 C   0  0  0  0  0  0  0  0  0  0  0  0
   -0.0418    0.0448    1.6179 S   0  0  0  0  0  0  0  0  0  0  0  0
    2.9841    0.2111    1.3704 H   0  0  0  0  0  0  0  0  0  0  0  0
    2.3926   -1.2218    0.5140 H   0  0  0  0  0  0  0  0  0  0  0  0
    3.1430    0.1137   -0.3877 H   0  0  0  0  0  0  0  0  0  0  0  0
    1.4587    4.2081   -0.0128 H   0  0  0  0  0  0  0  0  0  0  0  0
    0.6103    0.6641    2.6111 H   0  0  0  0  0  0  0  0  0  0  0  0
   -0.5842   -1.2705   -3.2274 C   0  0  0  0  0  0  0  0  0  0  0  0
   -0.5842   -1.2705   -2.0319 C   0  0  0  0  0  0  0  0  0  0  0  0
   -0.5842   -1.2705   -0.5689 C   0  0  0  0  0  3  0  0  0  0  0  0
   -1.8982   -0.9949    0.0123 C   0  0  0  0  0  0  0  0  0  0  0  0
   -2.9719   -0.7697    0.4872 C   0  0  0  0  0  0  0  0  0  0  0  0
   -0.5842   -1.2705   -4.2908 H   0  0  0  0  0  0  0  0  0  0  0  0
    0.2740   -0.3761   -0.1378 H   0  0  0  0  0  0  0  0  0  0  0  0
   -0.2288   -2.2403   -0.2097 H   0  0  0  0  0  0  0  0  0  0  0  0
   -3.9271   -0.5693    0.9096 H   0  0  0  0  0  0  0  0  0  0  0  0
  1  2  1  0
  1  6  1  0
  1  7  1  0
  1  8  1  0
  2  3  1  0
  2  5  1  0
  2 17  1  0
  3  4  3  0
  4  9  1  0
  5 10  1  0
 11 12  3  0
 11 16  1  0
 12 13  1  0
 13 14  1  0
 13 18  1  0
 14 15  3  0
 15 19  1  0
M  RAD  1  13   2
M  END
>  <reaction>  (10) 
rxn_1381

>  <mol_properties>  (10) 
{"1": {"label": "*1", "atom_type": "Cs"}, "4": {"label": "*0", "atom_type": "S2s"}, "11": {"label": "*4", "atom_type": "Ct"}, "12": {"label": "*3", "atom_type": "Cs"}, "16": {"label": "*2", "atom_type": "H0"}}

>  <type>  (10) 
unop_6

>  <geom_source>  (10) 
Heuristics

$$$$

     RDKit          3D

 19 17  0  0  0  0  0  0  0  0999 V2000
    2.2394   -0.2746    1.2586 C   0  0  0  0  0  0  0  0  0  0  0  0
    1.1734    0.4196    0.4122 C   0  0  0  0  0  0  0  0  0  0  0  0
    1.6327    1.7070   -0.0929 C   0  0  0  0  0  0  0  0  0  0  0  0
    2.0382    2.7630   -0.4854 C   0  0  0  0  0  0  0  0  0  0  0  0
   -0.4288    0.5774    1.2862 S   0  0  0  0  0  0  0  0  0  0  0  0
    2.4797    0.3264    2.1362 H   0  0  0  0  0  0  0  0  0  0  0  0
    1.8791   -1.2476    1.5901 H   0  0  0  0  0  0  0  0  0  0  0  0
    3.1524   -0.4092    0.6761 H   0  0  0  0  0  0  0  0  0  0  0  0
    2.3984    3.7009   -0.8341 H   0  0  0  0  0  0  0  0  0  0  0  0
    0.0028    1.4390    2.2171 H   0  0  0  0  0  0  0  0  0  0  0  0
   -0.5422   -1.3685   -3.1081 C   0  0  0  0  0  0  0  0  0  0  0  0
   -0.5422   -1.3685   -1.9126 C   0  0  0  0  0  0  0  0  0  0  0  0
   -0.5422   -1.3685   -0.4496 C   0  0  0  0  0  3  0  0  0  0  0  0
   -1.8562   -1.0929    0.1316 C   0  0  0  0  0  0  0  0  0  0  0  0
   -2.9300   -0.8677    0.6065 C   0  0  0  0  0  0  0  0  0  0  0  0
   -0.5422   -1.3685   -4.1715 H   0  0  0  0  0  0  0  0  0  0  0  0
    0.3159   -0.4741   -0.0185 H   0  0  0  0  0  0  0  0  0  0  0  0
   -0.1868   -2.3384   -0.0904 H   0  0  0  0  0  0  0  0  0  0  0  0
   -3.8852   -0.6674    1.0290 H   0  0  0  0  0  0  0  0  0  0  0  0
  1  2  1  0
  1  6  1  0
  1  7  1  0
  1  8  1  0
  2  3  1  0
  2  5  1  0
  2 17  1  0
  3  4  3  0
  4  9  1  0
  5 10  1  0
 11 12  3  0
 11 16  1  0
 12 13  1  0
 13 14  1  0
 13 18  1  0
 14 15  3  0
 15 19  1  0
M  RAD  1  13   2
M  END
>  <reaction>  (11) 
rxn_1381

>  <mol_properties>  (11) 
{"1": {"label": "*1", "atom_type": "Cs"}, "4": {"label": "*0", "atom_type": "S2s"}, "11": {"label": "*4", "atom_type": "Ct"}, "12": {"label": "*3", "atom_type": "Cs"}, "16": {"label": "*2", "atom_type": "H0"}}

>  <type>  (11) 
unop_7

>  <geom_source>  (11) 
Heuristics

$$$$

     RDKit          3D

 19 17  0  0  0  0  0  0  0  0999 V2000
    0.0713    2.0683    0.5168 C   0  0  0  0  0  0  0  0  0  0  0  0
    0.7844    0.7270    0.3519 C   0  0  0  0  0  0  0  0  0  0  0  0
    0.5550   -0.1548    1.4891 C   0  0  0  0  0  0  0  0  0  0  0  0
    0.3526   -0.8514    2.4417 C   0  0  0  0  0  0  0  0  0  0  0  0
    2.5728    0.9170    0.0036 S   0  0  0  0  0  0  0  0  0  0  0  0
    0.4521    2.5969    1.3911 H   0  0  0  0  0  0  0  0  0  0  0  0
    0.2328    2.6888   -0.3638 H   0  0  0  0  0  0  0  0  0  0  0  0
   -0.9998    1.9097    0.6527 H   0  0  0  0  0  0  0  0  0  0  0  0
    0.1729   -1.4701    3.2877 H   0  0  0  0  0  0  0  0  0  0  0  0
    2.8960    1.4265    1.1999 H   0  0  0  0  0  0  0  0  0  0  0  0
   -0.9312   -1.0611   -3.1684 C   0  0  0  0  0  0  0  0  0  0  0  0
   -0.9312   -1.0611   -1.9729 C   0  0  0  0  0  0  0  0  0  0  0  0
   -0.9312   -1.0611   -0.5099 C   0  0  0  0  0  3  0  0  0  0  0  0
   -2.2452   -0.7855    0.0713 C   0  0  0  0  0  0  0  0  0  0  0  0
   -3.3190   -0.5603    0.5462 C   0  0  0  0  0  0  0  0  0  0  0  0
   -0.9312   -1.0611   -4.2318 H   0  0  0  0  0  0  0  0  0  0  0  0
   -0.0731   -0.1667   -0.0788 H   0  0  0  0  0  0  0  0  0  0  0  0
   -0.5758   -2.0310   -0.1507 H   0  0  0  0  0  0  0  0  0  0  0  0
   -4.2742   -0.3599    0.9687 H   0  0  0  0  0  0  0  0  0  0  0  0
  1  2  1  0
  1  6  1  0
  1  7  1  0
  1  8  1  0
  2  3  1  0
  2  5  1  0
  2 17  1  0
  3  4  3  0
  4  9  1  0
  5 10  1  0
 11 12  3  0
 11 16  1  0
 12 13  1  0
 13 14  1  0
 13 18  1  0
 14 15  3  0
 15 19  1  0
M  RAD  1  13   2
M  END
>  <reaction>  (12) 
rxn_1381

>  <mol_properties>  (12) 
{"1": {"label": "*1", "atom_type": "Cs"}, "4": {"label": "*0", "atom_type": "S2s"}, "11": {"label": "*4", "atom_type": "Ct"}, "12": {"label": "*3", "atom_type": "Cs"}, "16": {"label": "*2", "atom_type": "H0"}}

>  <type>  (12) 
unop_8

>  <geom_source>  (12) 
Heuristics

$$$$

     RDKit          3D

 19 17  0  0  0  0  0  0  0  0999 V2000
    2.0680    0.7603   -0.7572 C   0  0  0  0  0  0  0  0  0  0  0  0
    0.9348    0.6215    0.2584 C   0  0  0  0  0  0  0  0  0  0  0  0
    0.5075    1.9145    0.7771 C   0  0  0  0  0  0  0  0  0  0  0  0
    0.1855    2.9919    1.1883 C   0  0  0  0  0  0  0  0  0  0  0  0
    1.3413   -0.5413    1.6143 S   0  0  0  0  0  0  0  0  0  0  0  0
    2.9470    1.2038   -0.2886 H   0  0  0  0  0  0  0  0  0  0  0  0
    2.3392   -0.2182   -1.1515 H   0  0  0  0  0  0  0  0  0  0  0  0
    1.7572    1.4056   -1.5805 H   0  0  0  0  0  0  0  0  0  0  0  0
   -0.1005    3.9488    1.5536 H   0  0  0  0  0  0  0  0  0  0  0  0
    2.3099    0.2084    2.1574 H   0  0  0  0  0  0  0  0  0  0  0  0
   -0.7807   -1.1666   -3.2618 C   0  0  0  0  0  0  0  0  0  0  0  0
   -0.7807   -1.1666   -2.0663 C   0  0  0  0  0  0  0  0  0  0  0  0
   -0.7807   -1.1666   -0.6033 C   0  0  0  0  0  3  0  0  0  0  0  0
   -2.0948   -0.8910   -0.0222 C   0  0  0  0  0  0  0  0  0  0  0  0
   -3.1685   -0.6658    0.4527 C   0  0  0  0  0  0  0  0  0  0  0  0
   -0.7807   -1.1666   -4.3253 H   0  0  0  0  0  0  0  0  0  0  0  0
    0.0774   -0.2722   -0.1723 H   0  0  0  0  0  0  0  0  0  0  0  0
   -0.4254   -2.1364   -0.2441 H   0  0  0  0  0  0  0  0  0  0  0  0
   -4.1237   -0.4654    0.8752 H   0  0  0  0  0  0  0  0  0  0  0  0
  1  2  1  0
  1  6  1  0
  1  7  1  0
  1  8  1  0
  2  3  1  0
  2  5  1  0
  2 17  1  0
  3  4  3  0
  4  9  1  0
  5 10  1  0
 11 12  3  0
 11 16  1  0
 12 13  1  0
 13 14  1  0
 13 18  1  0
 14 15  3  0
 15 19  1  0
M  RAD  1  13   2
M  END
>  <reaction>  (13) 
rxn_1381

>  <mol_properties>  (13) 
{"1": {"label": "*1", "atom_type": "Cs"}, "4": {"label": "*0", "atom_type": "S2s"}, "11": {"label": "*4", "atom_type": "Ct"}, "12": {"label": "*3", "atom_type": "Cs"}, "16": {"label": "*2", "atom_type": "H0"}}

>  <type>  (13) 
unop_9

>  <geom_source>  (13) 
Heuristics

$$$$

     RDKit          3D

 19 17  0  0  0  0  0  0  0  0999 V2000
    0.4371    2.0478   -0.2209 C   0  0  0  0  0  0  0  0  0  0  0  0
    0.8466    0.6693    0.2958 C   0  0  0  0  0  0  0  0  0  0  0  0
    0.2070    0.3522    1.5661 C   0  0  0  0  0  0  0  0  0  0  0  0
   -0.3290    0.1260    2.6126 C   0  0  0  0  0  0  0  0  0  0  0  0
    2.6644    0.4639    0.3930 S   0  0  0  0  0  0  0  0  0  0  0  0
    0.7500    2.8245    0.4776 H   0  0  0  0  0  0  0  0  0  0  0  0
    0.9030    2.2390   -1.1868 H   0  0  0  0  0  0  0  0  0  0  0  0
   -0.6475    2.1013   -0.3284 H   0  0  0  0  0  0  0  0  0  0  0  0
   -0.8051   -0.0750    3.5421 H   0  0  0  0  0  0  0  0  0  0  0  0
    2.8552    1.3589    1.3716 H   0  0  0  0  0  0  0  0  0  0  0  0
   -0.8689   -1.1188   -3.2245 C   0  0  0  0  0  0  0  0  0  0  0  0
   -0.8689   -1.1188   -2.0290 C   0  0  0  0  0  0  0  0  0  0  0  0
   -0.8689   -1.1188   -0.5660 C   0  0  0  0  0  3  0  0  0  0  0  0
   -2.1830   -0.8432    0.0152 C   0  0  0  0  0  0  0  0  0  0  0  0
   -3.2567   -0.6179    0.4901 C   0  0  0  0  0  0  0  0  0  0  0  0
   -0.8689   -1.1188   -4.2879 H   0  0  0  0  0  0  0  0  0  0  0  0
   -0.0108   -0.2244   -0.1349 H   0  0  0  0  0  0  0  0  0  0  0  0
   -0.5136   -2.0886   -0.2068 H   0  0  0  0  0  0  0  0  0  0  0  0
   -4.2119   -0.4176    0.9126 H   0  0  0  0  0  0  0  0  0  0  0  0
  1  2  1  0
  1  6  1  0
  1  7  1  0
  1  8  1  0
  2  3  1  0
  2  5  1  0
  2 17  1  0
  3  4  3  0
  4  9  1  0
  5 10  1  0
 11 12  3  0
 11 16  1  0
 12 13  1  0
 13 14  1  0
 13 18  1  0
 14 15  3  0
 15 19  1  0
M  RAD  1  13   2
M  END
>  <reaction>  (14) 
rxn_1381

>  <mol_properties>  (14) 
{"1": {"label": "*1", "atom_type": "Cs"}, "4": {"label": "*0", "atom_type": "S2s"}, "11": {"label": "*4", "atom_type": "Ct"}, "12": {"label": "*3", "atom_type": "Cs"}, "16": {"label": "*2", "atom_type": "H0"}}

>  <type>  (14) 
unop_10

>  <geom_source>  (14) 
Heuristics

$$$$

     RDKit          3D

 19 17  0  0  0  0  0  0  0  0999 V2000
    1.6584   -0.1001    1.9275 C   0  0  0  0  0  0  0  0  0  0  0  0
    1.0937    0.3535    0.5822 C   0  0  0  0  0  0  0  0  0  0  0  0
    2.0707    1.1087   -0.1914 C   0  0  0  0  0  0  0  0  0  0  0  0
    2.8944    1.7314   -0.7977 C   0  0  0  0  0  0  0  0  0  0  0  0
   -0.4804    1.2749    0.7525 S   0  0  0  0  0  0  0  0  0  0  0  0
    1.9265    0.7625    2.5383 H   0  0  0  0  0  0  0  0  0  0  0  0
    0.9174   -0.6910    2.4645 H   0  0  0  0  0  0  0  0  0  0  0  0
    2.5554   -0.7024    1.7742 H   0  0  0  0  0  0  0  0  0  0  0  0
    3.6259    2.2843   -1.3362 H   0  0  0  0  0  0  0  0  0  0  0  0
    0.0457    2.3392    1.3737 H   0  0  0  0  0  0  0  0  0  0  0  0
   -0.6219   -1.4345   -2.9380 C   0  0  0  0  0  0  0  0  0  0  0  0
   -0.6219   -1.4345   -1.7425 C   0  0  0  0  0  0  0  0  0  0  0  0
   -0.6219   -1.4345   -0.2795 C   0  0  0  0  0  3  0  0  0  0  0  0
   -1.9359   -1.1589    0.3016 C   0  0  0  0  0  0  0  0  0  0  0  0
   -3.0097   -0.9337    0.7765 C   0  0  0  0  0  0  0  0  0  0  0  0
   -0.6219   -1.4345   -4.0015 H   0  0  0  0  0  0  0  0  0  0  0  0
    0.2362   -0.5402    0.1515 H   0  0  0  0  0  0  0  0  0  0  0  0
   -0.2665   -2.4044    0.0797 H   0  0  0  0  0  0  0  0  0  0  0  0
   -3.9649   -0.7334    1.1990 H   0  0  0  0  0  0  0  0  0  0  0  0
  1  2  1  0
  1  6  1  0
  1  7  1  0
  1  8  1  0
  2  3  1  0
  2  5  1  0
  2 17  1  0
  3  4  3  0
  4  9  1  0
  5 10  1  0
 11 12  3  0
 11 16  1  0
 12 13  1  0
 13 14  1  0
 13 18  1  0
 14 15  3  0
 15 19  1  0
M  RAD  1  13   2
M  END
>  <reaction>  (15) 
rxn_1381

>  <mol_properties>  (15) 
{"1": {"label": "*1", "atom_type": "Cs"}, "4": {"label": "*0", "atom_type": "S2s"}, "11": {"label": "*4", "atom_type": "Ct"}, "12": {"label": "*3", "atom_type": "Cs"}, "16": {"label": "*2", "atom_type": "H0"}}

>  <type>  (15) 
unop_11

>  <geom_source>  (15) 
Heuristics

$$$$

     RDKit          3D

 19 17  0  0  0  0  0  0  0  0999 V2000
    1.5426    1.2943   -0.9147 C   0  0  0  0  0  0  0  0  0  0  0  0
    0.8861    0.6101    0.2835 C   0  0  0  0  0  0  0  0  0  0  0  0
    0.1739    1.5592    1.1292 C   0  0  0  0  0  0  0  0  0  0  0  0
   -0.3955    2.3661    1.8063 C   0  0  0  0  0  0  0  0  0  0  0  0
    2.0683   -0.3958    1.2563 S   0  0  0  0  0  0  0  0  0  0  0  0
    2.2861    2.0181   -0.5796 H   0  0  0  0  0  0  0  0  0  0  0  0
    2.0350    0.5546   -1.5447 H   0  0  0  0  0  0  0  0  0  0  0  0
    0.7910    1.8236   -1.5029 H   0  0  0  0  0  0  0  0  0  0  0  0
   -0.9012    3.0827    2.4077 H   0  0  0  0  0  0  0  0  0  0  0  0
    2.7976    0.6359    1.7024 H   0  0  0  0  0  0  0  0  0  0  0  0
   -0.8294   -1.1780   -3.2368 C   0  0  0  0  0  0  0  0  0  0  0  0
   -0.8294   -1.1780   -2.0413 C   0  0  0  0  0  0  0  0  0  0  0  0
   -0.8294   -1.1780   -0.5783 C   0  0  0  0  0  3  0  0  0  0  0  0
   -2.1435   -0.9024    0.0029 C   0  0  0  0  0  0  0  0  0  0  0  0
   -3.2172   -0.6772    0.4778 C   0  0  0  0  0  0  0  0  0  0  0  0
   -0.8294   -1.1780   -4.3002 H   0  0  0  0  0  0  0  0  0  0  0  0
    0.0287   -0.2836   -0.1472 H   0  0  0  0  0  0  0  0  0  0  0  0
   -0.4741   -2.1478   -0.2191 H   0  0  0  0  0  0  0  0  0  0  0  0
   -4.1724   -0.4768    0.9002 H   0  0  0  0  0  0  0  0  0  0  0  0
  1  2  1  0
  1  6  1  0
  1  7  1  0
  1  8  1  0
  2  3  1  0
  2  5  1  0
  2 17  1  0
  3  4  3  0
  4  9  1  0
  5 10  1  0
 11 12  3  0
 11 16  1  0
 12 13  1  0
 13 14  1  0
 13 18  1  0
 14 15  3  0
 15 19  1  0
M  RAD  1  13   2
M  END
>  <reaction>  (16) 
rxn_1381

>  <mol_properties>  (16) 
{"1": {"label": "*1", "atom_type": "Cs"}, "4": {"label": "*0", "atom_type": "S2s"}, "11": {"label": "*4", "atom_type": "Ct"}, "12": {"label": "*3", "atom_type": "Cs"}, "16": {"label": "*2", "atom_type": "H0"}}

>  <type>  (16) 
unop_12

>  <geom_source>  (16) 
Heuristics

$$$$

     RDKit          3D

 19 17  0  0  0  0  0  0  0  0999 V2000
   -1.4043   -0.6475    1.9854 S   0  0  0  0  0  0  0  0  0  0  0  0
   -1.1883    0.0129    0.3034 C   0  0  0  0  0  0  0  0  0  0  0  0
   -1.7394   -0.9748   -0.7191 C   0  0  0  0  0  0  0  0  0  0  0  0
    1.4200    0.0021    0.4273 C   0  0  0  0  0  3  0  0  0  0  0  0
   -1.8804    1.3028    0.1914 C   0  0  0  0  0  0  0  0  0  0  0  0
    1.9473    0.8086   -0.6751 C   0  0  0  0  0  0  0  0  0  0  0  0
    2.0466   -1.3212    0.4162 C   0  0  0  0  0  0  0  0  0  0  0  0
   -2.4476    2.3628    0.0992 C   0  0  0  0  0  0  0  0  0  0  0  0
    2.3802    1.4743   -1.5825 C   0  0  0  0  0  0  0  0  0  0  0  0
    2.5614   -2.4115    0.4086 C   0  0  0  0  0  0  0  0  0  0  0  0
    0.0955    0.1948    0.0762 H   0  0  0  0  0  0  0  0  0  0  0  0
   -1.5919   -0.5814   -1.7477 H   0  0  0  0  0  0  0  0  0  0  0  0
   -1.1990   -1.9413   -0.6356 H   0  0  0  0  0  0  0  0  0  0  0  0
   -2.8236   -1.1525   -0.5499 H   0  0  0  0  0  0  0  0  0  0  0  0
    1.6366    0.5063    1.3916 H   0  0  0  0  0  0  0  0  0  0  0  0
   -0.6413    0.3824    2.5691 H   0  0  0  0  0  0  0  0  0  0  0  0
   -2.9455    3.2931    0.0183 H   0  0  0  0  0  0  0  0  0  0  0  0
    2.7603    2.0584   -2.3789 H   0  0  0  0  0  0  0  0  0  0  0  0
    3.0133   -3.3684    0.4018 H   0  0  0  0  0  0  0  0  0  0  0  0
  1  2  1  0
  1 16  1  0
  2  3  1  0
  2  5  1  0
  2 11  1  0
  3 12  1  0
  3 13  1  0
  3 14  1  0
  4  6  1  0
  4  7  1  0
  4 15  1  0
  5  8  3  0
  6  9  3  0
  7 10  3  0
  8 17  1  0
  9 18  1  0
 10 19  1  0
M  RAD  1   4   2
M  END
>  <reaction>  (17) 
rxn_1381

>  <mol_properties>  (17) 
{"1": {"label": "*1", "atom_type": "Cs"}, "4": {"label": "*0", "atom_type": "S2s"}, "11": {"label": "*4", "atom_type": "Ct"}, "12": {"label": "*3", "atom_type": "Cs"}, "16": {"label": "*2", "atom_type": "H0"}}

>  <type>  (17) 
unop_13

>  <geom_source>  (17) 
AutoTST

$$$$
