
     RDKit          3D

 12 11  0  0  0  0  0  0  0  0999 V2000
    2.1696    0.6854    1.1310 C   0  0  0  0  0  0  0  0  0  0  0  0
    1.2518    0.4145    0.4134 C   0  0  0  0  0  0  0  0  0  0  0  0
    0.1391    0.0443   -0.4683 C   0  0  0  0  0  0  0  0  0  0  0  0
   -0.2054   -1.4492   -0.3339 C   0  0  0  0  0  0  0  0  0  0  0  0
   -1.0375    0.8853   -0.2222 C   0  0  0  0  0  0  0  0  0  0  0  0
   -2.0160    1.5463   -0.0311 C   0  0  0  0  0  0  0  0  0  0  0  0
    2.9819    0.9356    1.7702 H   0  0  0  0  0  0  0  0  0  0  0  0
    0.4629    0.2285   -1.4981 H   0  0  0  0  0  0  0  0  0  0  0  0
   -0.5327   -1.6703    0.6812 H   0  0  0  0  0  0  0  0  0  0  0  0
    0.6727   -2.0535   -0.5593 H   0  0  0  0  0  0  0  0  0  0  0  0
   -1.0064   -1.7081   -1.0256 H   0  0  0  0  0  0  0  0  0  0  0  0
   -2.8802    2.1413    0.1426 H   0  0  0  0  0  0  0  0  0  0  0  0
  1  2  3  0
  1  7  1  0
  2  3  1  0
  3  4  1  0
  3  5  1  0
  3  8  1  0
  4  9  1  0
  4 10  1  0
  4 11  1  0
  5  6  3  0
  6 12  1  0
M  END
>  <reaction>  (1) 
rxn_1425

>  <mol_properties>  (1) 
{"2": {"label": "donator", "atom_type": "Cs"}, "7": {"label": "d_hydrogen", "atom_type": "H0"}}

>  <type>  (1) 
r1h

$$$$

     RDKit          3D

 10  9  0  0  0  0  0  0  0  0999 V2000
   -1.2648    0.1959    0.8197 C   0  0  0  0  0  0  0  0  0  0  0  0
   -0.2805    0.0995   -0.3030 C   0  0  0  0  0  3  0  0  0  0  0  0
   -0.0444    1.1347   -1.1797 C   0  0  0  0  0  0  0  0  0  0  0  0
    0.1640    2.0467   -1.9525 C   0  0  0  0  0  0  0  0  0  0  0  0
    0.5686   -1.4168   -0.4488 S   0  0  0  0  0  0  0  0  0  0  0  0
   -2.0466   -0.5638    0.7258 H   0  0  0  0  0  0  0  0  0  0  0  0
   -0.7765    0.0454    1.7871 H   0  0  0  0  0  0  0  0  0  0  0  0
   -1.7371    1.1762    0.8222 H   0  0  0  0  0  0  0  0  0  0  0  0
    0.3433    2.8484   -2.6273 H   0  0  0  0  0  0  0  0  0  0  0  0
    1.3075   -1.0953   -1.5176 H   0  0  0  0  0  0  0  0  0  0  0  0
  1  2  1  0
  1  6  1  0
  1  7  1  0
  1  8  1  0
  2  3  1  0
  2  5  1  0
  3  4  3  0
  4  9  1  0
  5 10  1  0
M  RAD  1   2   2
M  END
>  <reaction>  (2) 
rxn_1425

>  <mol_properties>  (2) 
{"1": {"label": "acceptor", "atom_type": "Cs"}}

>  <type>  (2) 
r2

$$$$

     RDKit          3D

 11 10  0  0  0  0  0  0  0  0999 V2000
   -1.2582   -0.5130    0.2160 C   0  0  0  0  0  0  0  0  0  0  0  0
   -0.1109    0.0509   -0.6210 C   0  0  0  0  0  0  0  0  0  0  0  0
    1.1862   -0.2025   -0.0072 C   0  0  0  0  0  0  0  0  0  0  0  0
    2.2351   -0.4206    0.5274 C   0  0  0  0  0  0  0  0  0  0  0  0
   -0.3298    1.8272   -1.0120 S   0  0  0  0  0  0  0  0  0  0  0  0
   -1.2875   -0.0327    1.1945 H   0  0  0  0  0  0  0  0  0  0  0  0
   -2.2088   -0.3391   -0.2866 H   0  0  0  0  0  0  0  0  0  0  0  0
   -1.1220   -1.5854    0.3655 H   0  0  0  0  0  0  0  0  0  0  0  0
   -0.1222   -0.4181   -1.6078 H   0  0  0  0  0  0  0  0  0  0  0  0
    3.1729   -0.6098    0.9920 H   0  0  0  0  0  0  0  0  0  0  0  0
   -0.1942    2.2663    0.2466 H   0  0  0  0  0  0  0  0  0  0  0  0
  1  2  1  0
  1  6  1  0
  1  7  1  0
  1  8  1  0
  2  3  1  0
  2  5  1  0
  2  9  1  0
  3  4  3  0
  4 10  1  0
  5 11  1  0
M  END
>  <reaction>  (3) 
rxn_1425

>  <mol_properties>  (3) 
{"1": {"label": "acceptor", "atom_type": "Cs"}, "10": {"label": "a_hydrogen", "atom_type": "H0"}}

>  <type>  (3) 
r2h

$$$$

     RDKit          3D

 22 20  0  0  0  0  0  0  0  0999 V2000
    1.8588   -0.7333   -0.7438 C   0  0  0  0  0  0  0  0  0  0  0  0
    1.2888    0.1597    0.3369 C   0  0  0  0  0  3  0  0  0  0  0  0
    1.6890    1.5256    0.3260 C   0  0  0  0  0  0  0  0  0  0  0  0
    1.9597    2.6965    0.2986 C   0  0  0  0  0  0  0  0  0  0  0  0
    1.2669   -0.6362    1.9381 S   0  0  0  0  0  0  0  0  0  0  0  0
    2.9324   -0.8791   -0.6082 H   0  0  0  0  0  0  0  0  0  0  0  0
    1.3639   -1.7055   -0.7270 H   0  0  0  0  0  0  0  0  0  0  0  0
    1.6869   -0.2765   -1.7185 H   0  0  0  0  0  0  0  0  0  0  0  0
    2.2159    3.7282    0.2707 H   0  0  0  0  0  0  0  0  0  0  0  0
    0.9618    0.4549    2.6514 H   0  0  0  0  0  0  0  0  0  0  0  0
   -1.0352    1.3729   -2.8343 C   0  0  0  0  0  0  0  0  0  0  0  0
   -1.1788    0.8447   -1.7660 C   0  0  0  0  0  0  0  0  0  0  0  0
   -1.2843    0.2483   -0.4645 C   0  0  0  0  0  0  0  0  0  0  0  0
   -1.9125    1.1204    0.6119 C   0  0  0  0  0  0  0  0  0  0  0  0
   -1.6658   -1.1344   -0.4496 C   0  0  0  0  0  0  0  0  0  0  0  0
   -1.9413   -2.3017   -0.3914 C   0  0  0  0  0  0  0  0  0  0  0  0
   -0.9250    1.8354   -3.7854 H   0  0  0  0  0  0  0  0  0  0  0  0
   -0.0135    0.2121   -0.0507 H   0  0  0  0  0  0  0  0  0  0  0  0
   -2.9736    1.2799    0.4117 H   0  0  0  0  0  0  0  0  0  0  0  0
   -1.4128    2.0889    0.6399 H   0  0  0  0  0  0  0  0  0  0  0  0
   -1.8116    0.6357    1.5831 H   0  0  0  0  0  0  0  0  0  0  0  0
   -2.2000   -3.3321   -0.3486 H   0  0  0  0  0  0  0  0  0  0  0  0
  1  2  1  0
  1  6  1  0
  1  7  1  0
  1  8  1  0
  2  3  1  0
  2  5  1  0
  3  4  3  0
  4  9  1  0
  5 10  1  0
 11 12  3  0
 11 17  1  0
 12 13  1  0
 13 14  1  0
 13 15  1  0
 13 18  1  0
 14 19  1  0
 14 20  1  0
 14 21  1  0
 15 16  3  0
 16 22  1  0
M  RAD  1   2   2
M  END
>  <reaction>  (4) 
rxn_1425

>  <mol_properties>  (4) 
{"1": {"label": "*3", "atom_type": "Cs"}, "4": {"label": "*4", "atom_type": "S2s"}, "11": {"label": "*0", "atom_type": "Ct"}, "12": {"label": "*1", "atom_type": "Cs"}, "17": {"label": "*2", "atom_type": "H0"}}

>  <type>  (4) 
ts

$$$$

     RDKit          3D

 22 20  0  0  0  0  0  0  0  0999 V2000
    1.5177    1.6223    1.2260 C   0  0  0  0  0  0  0  0  0  0  0  0
    1.2163    0.3586    0.4217 C   0  0  0  0  0  0  0  0  0  0  0  0
    0.5466   -0.6532    1.2286 C   0  0  0  0  0  0  0  0  0  0  0  0
    0.0041   -1.4656    1.9211 C   0  0  0  0  0  0  0  0  0  0  0  0
    2.7021   -0.3221   -0.4058 S   0  0  0  0  0  0  0  0  0  0  0  0
    2.1944    1.3964    2.0507 H   0  0  0  0  0  0  0  0  0  0  0  0
    1.9846    2.3705    0.5866 H   0  0  0  0  0  0  0  0  0  0  0  0
    0.5956    2.0310    1.6426 H   0  0  0  0  0  0  0  0  0  0  0  0
   -0.4777   -2.1870    2.5362 H   0  0  0  0  0  0  0  0  0  0  0  0
    3.3401   -0.6753    0.7183 H   0  0  0  0  0  0  0  0  0  0  0  0
   -1.2882    0.3730   -3.0265 C   0  0  0  0  0  0  0  0  0  0  0  0
   -1.2882    0.3730   -1.8303 C   0  0  0  0  0  0  0  0  0  0  0  0
   -1.2882    0.4131   -0.3638 C   0  0  0  0  0  3  0  0  0  0  0  0
   -1.9263    1.7123    0.1582 C   0  0  0  0  0  0  0  0  0  0  0  0
   -1.9501   -0.7682    0.2010 C   0  0  0  0  0  0  0  0  0  0  0  0
   -2.4983   -1.7135    0.6875 C   0  0  0  0  0  0  0  0  0  0  0  0
   -1.2882    0.3730   -4.0899 H   0  0  0  0  0  0  0  0  0  0  0  0
   -0.0346    0.3858    0.0294 H   0  0  0  0  0  0  0  0  0  0  0  0
   -2.9695    1.7695   -0.1495 H   0  0  0  0  0  0  0  0  0  0  0  0
   -1.3937    2.5737   -0.2434 H   0  0  0  0  0  0  0  0  0  0  0  0
   -1.8791    1.7367    1.2465 H   0  0  0  0  0  0  0  0  0  0  0  0
   -2.9857   -2.5539    1.1200 H   0  0  0  0  0  0  0  0  0  0  0  0
  1  2  1  0
  1  6  1  0
  1  7  1  0
  1  8  1  0
  2  3  1  0
  2  5  1  0
  2 18  1  0
  3  4  3  0
  4  9  1  0
  5 10  1  0
 11 12  3  0
 11 17  1  0
 12 13  1  0
 13 14  1  0
 13 15  1  0
 14 19  1  0
 14 20  1  0
 14 21  1  0
 15 16  3  0
 16 22  1  0
M  RAD  1  13   2
M  END
>  <reaction>  (5) 
rxn_1425

>  <mol_properties>  (5) 
{"1": {"label": "*3", "atom_type": "Cs"}, "4": {"label": "*4", "atom_type": "S2s"}, "11": {"label": "*0", "atom_type": "Ct"}, "12": {"label": "*1", "atom_type": "Cs"}, "17": {"label": "*2", "atom_type": "H0"}}

>  <type>  (5) 
unop_1

>  <geom_source>  (5) 
Heuristics

$$$$

     RDKit          3D

 22 20  0  0  0  0  0  0  0  0999 V2000
    2.1024    0.8435   -0.8033 C   0  0  0  0  0  0  0  0  0  0  0  0
    1.2288    0.1768    0.2583 C   0  0  0  0  0  0  0  0  0  0  0  0
    0.9790    1.0596    1.3904 C   0  0  0  0  0  0  0  0  0  0  0  0
    0.7993    1.8072    2.3083 C   0  0  0  0  0  0  0  0  0  0  0  0
    1.8938   -1.4400    0.8054 S   0  0  0  0  0  0  0  0  0  0  0  0
    3.0811    1.0907   -0.3907 H   0  0  0  0  0  0  0  0  0  0  0  0
    2.2402    0.1724   -1.6501 H   0  0  0  0  0  0  0  0  0  0  0  0
    1.6342    1.7666   -1.1492 H   0  0  0  0  0  0  0  0  0  0  0  0
    0.6396    2.4712    3.1235 H   0  0  0  0  0  0  0  0  0  0  0  0
    2.9877   -0.9478    1.4024 H   0  0  0  0  0  0  0  0  0  0  0  0
   -1.2757    0.1912   -3.1899 C   0  0  0  0  0  0  0  0  0  0  0  0
   -1.2757    0.1912   -1.9937 C   0  0  0  0  0  0  0  0  0  0  0  0
   -1.2757    0.2313   -0.5272 C   0  0  0  0  0  3  0  0  0  0  0  0
   -1.9137    1.5305   -0.0052 C   0  0  0  0  0  0  0  0  0  0  0  0
   -1.9376   -0.9500    0.0376 C   0  0  0  0  0  0  0  0  0  0  0  0
   -2.4858   -1.8953    0.5241 C   0  0  0  0  0  0  0  0  0  0  0  0
   -1.2757    0.1912   -4.2533 H   0  0  0  0  0  0  0  0  0  0  0  0
   -0.0221    0.2040   -0.1340 H   0  0  0  0  0  0  0  0  0  0  0  0
   -2.9570    1.5877   -0.3129 H   0  0  0  0  0  0  0  0  0  0  0  0
   -1.3811    2.3919   -0.4068 H   0  0  0  0  0  0  0  0  0  0  0  0
   -1.8666    1.5549    1.0831 H   0  0  0  0  0  0  0  0  0  0  0  0
   -2.9732   -2.7357    0.9566 H   0  0  0  0  0  0  0  0  0  0  0  0
  1  2  1  0
  1  6  1  0
  1  7  1  0
  1  8  1  0
  2  3  1  0
  2  5  1  0
  2 18  1  0
  3  4  3  0
  4  9  1  0
  5 10  1  0
 11 12  3  0
 11 17  1  0
 12 13  1  0
 13 14  1  0
 13 15  1  0
 14 19  1  0
 14 20  1  0
 14 21  1  0
 15 16  3  0
 16 22  1  0
M  RAD  1  13   2
M  END
>  <reaction>  (6) 
rxn_1425

>  <mol_properties>  (6) 
{"1": {"label": "*3", "atom_type": "Cs"}, "4": {"label": "*4", "atom_type": "S2s"}, "11": {"label": "*0", "atom_type": "Ct"}, "12": {"label": "*1", "atom_type": "Cs"}, "17": {"label": "*2", "atom_type": "H0"}}

>  <type>  (6) 
unop_2

>  <geom_source>  (6) 
Heuristics

$$$$

     RDKit          3D

 22 20  0  0  0  0  0  0  0  0999 V2000
    1.2741    1.0603    1.8893 C   0  0  0  0  0  0  0  0  0  0  0  0
    1.1462    0.3059    0.5668 C   0  0  0  0  0  0  0  0  0  0  0  0
    0.9172   -1.1184    0.7726 C   0  0  0  0  0  0  0  0  0  0  0  0
    0.7373   -2.2845    0.9766 C   0  0  0  0  0  0  0  0  0  0  0  0
    2.5660    0.5996   -0.5529 S   0  0  0  0  0  0  0  0  0  0  0  0
    2.1316    0.6946    2.4549 H   0  0  0  0  0  0  0  0  0  0  0  0
    1.4083    2.1249    1.7016 H   0  0  0  0  0  0  0  0  0  0  0  0
    0.3777    0.9126    2.4939 H   0  0  0  0  0  0  0  0  0  0  0  0
    0.5776   -3.3201    1.1577 H   0  0  0  0  0  0  0  0  0  0  0  0
    3.4761   -0.0248    0.2068 H   0  0  0  0  0  0  0  0  0  0  0  0
   -1.3583    0.3203   -2.8814 C   0  0  0  0  0  0  0  0  0  0  0  0
   -1.3583    0.3203   -1.6852 C   0  0  0  0  0  0  0  0  0  0  0  0
   -1.3583    0.3603   -0.2187 C   0  0  0  0  0  3  0  0  0  0  0  0
   -1.9963    1.6596    0.3033 C   0  0  0  0  0  0  0  0  0  0  0  0
   -2.0201   -0.8209    0.3461 C   0  0  0  0  0  0  0  0  0  0  0  0
   -2.5684   -1.7662    0.8326 C   0  0  0  0  0  0  0  0  0  0  0  0
   -1.3583    0.3203   -3.9448 H   0  0  0  0  0  0  0  0  0  0  0  0
   -0.1047    0.3331    0.1745 H   0  0  0  0  0  0  0  0  0  0  0  0
   -3.0396    1.7168   -0.0044 H   0  0  0  0  0  0  0  0  0  0  0  0
   -1.4637    2.5210   -0.0983 H   0  0  0  0  0  0  0  0  0  0  0  0
   -1.9491    1.6840    1.3916 H   0  0  0  0  0  0  0  0  0  0  0  0
   -3.0558   -2.6066    1.2651 H   0  0  0  0  0  0  0  0  0  0  0  0
  1  2  1  0
  1  6  1  0
  1  7  1  0
  1  8  1  0
  2  3  1  0
  2  5  1  0
  2 18  1  0
  3  4  3  0
  4  9  1  0
  5 10  1  0
 11 12  3  0
 11 17  1  0
 12 13  1  0
 13 14  1  0
 13 15  1  0
 14 19  1  0
 14 20  1  0
 14 21  1  0
 15 16  3  0
 16 22  1  0
M  RAD  1  13   2
M  END
>  <reaction>  (7) 
rxn_1425

>  <mol_properties>  (7) 
{"1": {"label": "*3", "atom_type": "Cs"}, "4": {"label": "*4", "atom_type": "S2s"}, "11": {"label": "*0", "atom_type": "Ct"}, "12": {"label": "*1", "atom_type": "Cs"}, "17": {"label": "*2", "atom_type": "H0"}}

>  <type>  (7) 
unop_3

>  <geom_source>  (7) 
Heuristics

$$$$

     RDKit          3D

 22 20  0  0  0  0  0  0  0  0999 V2000
    1.9646   -1.2295   -0.2827 C   0  0  0  0  0  0  0  0  0  0  0  0
    1.3083    0.0550    0.2212 C   0  0  0  0  0  0  0  0  0  0  0  0
    2.2739    1.1354    0.3752 C   0  0  0  0  0  0  0  0  0  0  0  0
    3.0940    1.9992    0.4977 C   0  0  0  0  0  0  0  0  0  0  0  0
    0.3422   -0.2018    1.7563 S   0  0  0  0  0  0  0  0  0  0  0  0
    2.7050   -1.5854    0.4344 H   0  0  0  0  0  0  0  0  0  0  0  0
    1.2122   -2.0049   -0.4212 H   0  0  0  0  0  0  0  0  0  0  0  0
    2.4695   -1.0454   -1.2325 H   0  0  0  0  0  0  0  0  0  0  0  0
    3.8224    2.7664    0.6065 H   0  0  0  0  0  0  0  0  0  0  0  0
    1.3933   -0.4782    2.5398 H   0  0  0  0  0  0  0  0  0  0  0  0
   -1.1962    0.0694   -3.2269 C   0  0  0  0  0  0  0  0  0  0  0  0
   -1.1962    0.0694   -2.0308 C   0  0  0  0  0  0  0  0  0  0  0  0
   -1.1962    0.1094   -0.5642 C   0  0  0  0  0  3  0  0  0  0  0  0
   -1.8342    1.4087   -0.0422 C   0  0  0  0  0  0  0  0  0  0  0  0
   -1.8581   -1.0718    0.0006 C   0  0  0  0  0  0  0  0  0  0  0  0
   -2.4063   -2.0171    0.4871 C   0  0  0  0  0  0  0  0  0  0  0  0
   -1.1962    0.0694   -4.2904 H   0  0  0  0  0  0  0  0  0  0  0  0
    0.0574    0.0822   -0.1711 H   0  0  0  0  0  0  0  0  0  0  0  0
   -2.8775    1.4659   -0.3500 H   0  0  0  0  0  0  0  0  0  0  0  0
   -1.3016    2.2701   -0.4439 H   0  0  0  0  0  0  0  0  0  0  0  0
   -1.7871    1.4331    1.0460 H   0  0  0  0  0  0  0  0  0  0  0  0
   -2.8937   -2.8575    0.9196 H   0  0  0  0  0  0  0  0  0  0  0  0
  1  2  1  0
  1  6  1  0
  1  7  1  0
  1  8  1  0
  2  3  1  0
  2  5  1  0
  2 18  1  0
  3  4  3  0
  4  9  1  0
  5 10  1  0
 11 12  3  0
 11 17  1  0
 12 13  1  0
 13 14  1  0
 13 15  1  0
 14 19  1  0
 14 20  1  0
 14 21  1  0
 15 16  3  0
 16 22  1  0
M  RAD  1  13   2
M  END
>  <reaction>  (8) 
rxn_1425

>  <mol_properties>  (8) 
{"1": {"label": "*3", "atom_type": "Cs"}, "4": {"label": "*4", "atom_type": "S2s"}, "11": {"label": "*0", "atom_type": "Ct"}, "12": {"label": "*1", "atom_type": "Cs"}, "17": {"label": "*2", "atom_type": "H0"}}

>  <type>  (8) 
unop_4

>  <geom_source>  (8) 
Heuristics

$$$$

     RDKit          3D

 22 20  0  0  0  0  0  0  0  0999 V2000
    1.1550    0.1190    2.1700 C   0  0  0  0  0  0  0  0  0  0  0  0
    1.1067    0.0787    0.6434 C   0  0  0  0  0  0  0  0  0  0  0  0
    1.7286   -1.1266    0.1108 C   0  0  0  0  0  0  0  0  0  0  0  0
    2.2532   -2.1239   -0.2942 C   0  0  0  0  0  0  0  0  0  0  0  0
    1.8069    1.5873   -0.1246 S   0  0  0  0  0  0  0  0  0  0  0  0
    2.1883    0.1326    2.5180 H   0  0  0  0  0  0  0  0  0  0  0  0
    0.6515    1.0125    2.5370 H   0  0  0  0  0  0  0  0  0  0  0  0
    0.6663   -0.7644    2.5845 H   0  0  0  0  0  0  0  0  0  0  0  0
    2.7191   -3.0096   -0.6538 H   0  0  0  0  0  0  0  0  0  0  0  0
    3.0700    1.3715    0.2670 H   0  0  0  0  0  0  0  0  0  0  0  0
   -1.3978    0.0931   -2.8048 C   0  0  0  0  0  0  0  0  0  0  0  0
   -1.3978    0.0931   -1.6086 C   0  0  0  0  0  0  0  0  0  0  0  0
   -1.3978    0.1332   -0.1421 C   0  0  0  0  0  3  0  0  0  0  0  0
   -2.0359    1.4324    0.3799 C   0  0  0  0  0  0  0  0  0  0  0  0
   -2.0597   -1.0481    0.4227 C   0  0  0  0  0  0  0  0  0  0  0  0
   -2.6079   -1.9934    0.9092 C   0  0  0  0  0  0  0  0  0  0  0  0
   -1.3978    0.0931   -3.8682 H   0  0  0  0  0  0  0  0  0  0  0  0
   -0.1442    0.1059    0.2511 H   0  0  0  0  0  0  0  0  0  0  0  0
   -3.0791    1.4896    0.0722 H   0  0  0  0  0  0  0  0  0  0  0  0
   -1.5032    2.2938   -0.0217 H   0  0  0  0  0  0  0  0  0  0  0  0
   -1.9887    1.4568    1.4681 H   0  0  0  0  0  0  0  0  0  0  0  0
   -3.0953   -2.8338    1.3417 H   0  0  0  0  0  0  0  0  0  0  0  0
  1  2  1  0
  1  6  1  0
  1  7  1  0
  1  8  1  0
  2  3  1  0
  2  5  1  0
  2 18  1  0
  3  4  3  0
  4  9  1  0
  5 10  1  0
 11 12  3  0
 11 17  1  0
 12 13  1  0
 13 14  1  0
 13 15  1  0
 14 19  1  0
 14 20  1  0
 14 21  1  0
 15 16  3  0
 16 22  1  0
M  RAD  1  13   2
M  END
>  <reaction>  (9) 
rxn_1425

>  <mol_properties>  (9) 
{"1": {"label": "*3", "atom_type": "Cs"}, "4": {"label": "*4", "atom_type": "S2s"}, "11": {"label": "*0", "atom_type": "Ct"}, "12": {"label": "*1", "atom_type": "Cs"}, "17": {"label": "*2", "atom_type": "H0"}}

>  <type>  (9) 
unop_5

>  <geom_source>  (9) 
Heuristics

$$$$

     RDKit          3D

 22 20  0  0  0  0  0  0  0  0999 V2000
    1.7533   -1.5109    0.4560 C   0  0  0  0  0  0  0  0  0  0  0  0
    1.3181   -0.0585    0.2664 C   0  0  0  0  0  0  0  0  0  0  0  0
    2.4571    0.8309    0.0795 C   0  0  0  0  0  0  0  0  0  0  0  0
    3.4149    1.5351   -0.0638 C   0  0  0  0  0  0  0  0  0  0  0  0
    0.2233    0.5311    1.6116 S   0  0  0  0  0  0  0  0  0  0  0  0
    2.3657   -1.6109    1.3527 H   0  0  0  0  0  0  0  0  0  0  0  0
    0.8795   -2.1533    0.5568 H   0  0  0  0  0  0  0  0  0  0  0  0
    2.3444   -1.8404   -0.4001 H   0  0  0  0  0  0  0  0  0  0  0  0
    4.2656    2.1605   -0.1911 H   0  0  0  0  0  0  0  0  0  0  0  0
    1.1509    0.4876    2.5775 H   0  0  0  0  0  0  0  0  0  0  0  0
   -1.1864   -0.0441   -3.1818 C   0  0  0  0  0  0  0  0  0  0  0  0
   -1.1864   -0.0441   -1.9856 C   0  0  0  0  0  0  0  0  0  0  0  0
   -1.1864   -0.0041   -0.5191 C   0  0  0  0  0  3  0  0  0  0  0  0
   -1.8244    1.2951    0.0029 C   0  0  0  0  0  0  0  0  0  0  0  0
   -1.8482   -1.1853    0.0457 C   0  0  0  0  0  0  0  0  0  0  0  0
   -2.3965   -2.1306    0.5322 C   0  0  0  0  0  0  0  0  0  0  0  0
   -1.1864   -0.0441   -4.2452 H   0  0  0  0  0  0  0  0  0  0  0  0
    0.0672   -0.0313   -0.1259 H   0  0  0  0  0  0  0  0  0  0  0  0
   -2.8677    1.3524   -0.3048 H   0  0  0  0  0  0  0  0  0  0  0  0
   -1.2918    2.1566   -0.3987 H   0  0  0  0  0  0  0  0  0  0  0  0
   -1.7772    1.3196    1.0912 H   0  0  0  0  0  0  0  0  0  0  0  0
   -2.8839   -2.9710    0.9647 H   0  0  0  0  0  0  0  0  0  0  0  0
  1  2  1  0
  1  6  1  0
  1  7  1  0
  1  8  1  0
  2  3  1  0
  2  5  1  0
  2 18  1  0
  3  4  3  0
  4  9  1  0
  5 10  1  0
 11 12  3  0
 11 17  1  0
 12 13  1  0
 13 14  1  0
 13 15  1  0
 14 19  1  0
 14 20  1  0
 14 21  1  0
 15 16  3  0
 16 22  1  0
M  RAD  1  13   2
M  END
>  <reaction>  (10) 
rxn_1425

>  <mol_properties>  (10) 
{"1": {"label": "*3", "atom_type": "Cs"}, "4": {"label": "*4", "atom_type": "S2s"}, "11": {"label": "*0", "atom_type": "Ct"}, "12": {"label": "*1", "atom_type": "Cs"}, "17": {"label": "*2", "atom_type": "H0"}}

>  <type>  (10) 
unop_6

>  <geom_source>  (10) 
Heuristics

$$$$

     RDKit          3D

 22 20  0  0  0  0  0  0  0  0999 V2000
    1.5066   -1.3779    1.2515 C   0  0  0  0  0  0  0  0  0  0  0  0
    1.2808   -0.1441    0.3790 C   0  0  0  0  0  0  0  0  0  0  0  0
    2.5276    0.3632   -0.1792 C   0  0  0  0  0  0  0  0  0  0  0  0
    3.5702    0.7586   -0.6155 C   0  0  0  0  0  0  0  0  0  0  0  0
    0.3523    1.1743    1.2482 S   0  0  0  0  0  0  0  0  0  0  0  0
    2.1410   -1.1310    2.1033 H   0  0  0  0  0  0  0  0  0  0  0  0
    0.5538   -1.7529    1.6233 H   0  0  0  0  0  0  0  0  0  0  0  0
    1.9998   -2.1613    0.6736 H   0  0  0  0  0  0  0  0  0  0  0  0
    4.4963    1.1097   -1.0029 H   0  0  0  0  0  0  0  0  0  0  0  0
    1.3099    1.4550    2.1424 H   0  0  0  0  0  0  0  0  0  0  0  0
   -1.2237   -0.1297   -3.0692 C   0  0  0  0  0  0  0  0  0  0  0  0
   -1.2237   -0.1297   -1.8730 C   0  0  0  0  0  0  0  0  0  0  0  0
   -1.2237   -0.0897   -0.4065 C   0  0  0  0  0  3  0  0  0  0  0  0
   -1.8617    1.2096    0.1155 C   0  0  0  0  0  0  0  0  0  0  0  0
   -1.8855   -1.2709    0.1583 C   0  0  0  0  0  0  0  0  0  0  0  0
   -2.4338   -2.2162    0.6448 C   0  0  0  0  0  0  0  0  0  0  0  0
   -1.2237   -0.1297   -4.1326 H   0  0  0  0  0  0  0  0  0  0  0  0
    0.0299   -0.1169   -0.0133 H   0  0  0  0  0  0  0  0  0  0  0  0
   -2.9050    1.2668   -0.1922 H   0  0  0  0  0  0  0  0  0  0  0  0
   -1.3291    2.0710   -0.2861 H   0  0  0  0  0  0  0  0  0  0  0  0
   -1.8145    1.2340    1.2038 H   0  0  0  0  0  0  0  0  0  0  0  0
   -2.9212   -3.0566    1.0773 H   0  0  0  0  0  0  0  0  0  0  0  0
  1  2  1  0
  1  6  1  0
  1  7  1  0
  1  8  1  0
  2  3  1  0
  2  5  1  0
  2 18  1  0
  3  4  3  0
  4  9  1  0
  5 10  1  0
 11 12  3  0
 11 17  1  0
 12 13  1  0
 13 14  1  0
 13 15  1  0
 14 19  1  0
 14 20  1  0
 14 21  1  0
 15 16  3  0
 16 22  1  0
M  RAD  1  13   2
M  END
>  <reaction>  (11) 
rxn_1425

>  <mol_properties>  (11) 
{"1": {"label": "*3", "atom_type": "Cs"}, "4": {"label": "*4", "atom_type": "S2s"}, "11": {"label": "*0", "atom_type": "Ct"}, "12": {"label": "*1", "atom_type": "Cs"}, "17": {"label": "*2", "atom_type": "H0"}}

>  <type>  (11) 
unop_7

>  <geom_source>  (11) 
Heuristics

$$$$

     RDKit          3D

 22 20  0  0  0  0  0  0  0  0999 V2000
    1.7719    1.7381    0.4237 C   0  0  0  0  0  0  0  0  0  0  0  0
    1.2494    0.3065    0.3129 C   0  0  0  0  0  0  0  0  0  0  0  0
    0.4774   -0.0833    1.4858 C   0  0  0  0  0  0  0  0  0  0  0  0
   -0.1449   -0.3742    2.4665 C   0  0  0  0  0  0  0  0  0  0  0  0
    2.5773   -0.9034   -0.0457 S   0  0  0  0  0  0  0  0  0  0  0  0
    2.4468    1.8322    1.2750 H   0  0  0  0  0  0  0  0  0  0  0  0
    2.3127    2.0103   -0.4818 H   0  0  0  0  0  0  0  0  0  0  0  0
    0.9412    2.4309    0.5678 H   0  0  0  0  0  0  0  0  0  0  0  0
   -0.6976   -0.6326    3.3375 H   0  0  0  0  0  0  0  0  0  0  0  0
    3.2094   -0.7709    1.1282 H   0  0  0  0  0  0  0  0  0  0  0  0
   -1.2551    0.3209   -3.1352 C   0  0  0  0  0  0  0  0  0  0  0  0
   -1.2551    0.3209   -1.9391 C   0  0  0  0  0  0  0  0  0  0  0  0
   -1.2551    0.3610   -0.4725 C   0  0  0  0  0  3  0  0  0  0  0  0
   -1.8932    1.6602    0.0495 C   0  0  0  0  0  0  0  0  0  0  0  0
   -1.9170   -0.8203    0.0923 C   0  0  0  0  0  0  0  0  0  0  0  0
   -2.4652   -1.7656    0.5787 C   0  0  0  0  0  0  0  0  0  0  0  0
   -1.2551    0.3209   -4.1987 H   0  0  0  0  0  0  0  0  0  0  0  0
   -0.0016    0.3337   -0.0794 H   0  0  0  0  0  0  0  0  0  0  0  0
   -2.9364    1.7174   -0.2583 H   0  0  0  0  0  0  0  0  0  0  0  0
   -1.3606    2.5216   -0.3522 H   0  0  0  0  0  0  0  0  0  0  0  0
   -1.8460    1.6846    1.1377 H   0  0  0  0  0  0  0  0  0  0  0  0
   -2.9527   -2.6060    1.0113 H   0  0  0  0  0  0  0  0  0  0  0  0
  1  2  1  0
  1  6  1  0
  1  7  1  0
  1  8  1  0
  2  3  1  0
  2  5  1  0
  2 18  1  0
  3  4  3  0
  4  9  1  0
  5 10  1  0
 11 12  3  0
 11 17  1  0
 12 13  1  0
 13 14  1  0
 13 15  1  0
 14 19  1  0
 14 20  1  0
 14 21  1  0
 15 16  3  0
 16 22  1  0
M  RAD  1  13   2
M  END
>  <reaction>  (12) 
rxn_1425

>  <mol_properties>  (12) 
{"1": {"label": "*3", "atom_type": "Cs"}, "4": {"label": "*4", "atom_type": "S2s"}, "11": {"label": "*0", "atom_type": "Ct"}, "12": {"label": "*1", "atom_type": "Cs"}, "17": {"label": "*2", "atom_type": "H0"}}

>  <type>  (12) 
unop_8

>  <geom_source>  (12) 
Heuristics

$$$$

     RDKit          3D

 22 20  0  0  0  0  0  0  0  0999 V2000
    2.0972   -0.6376   -0.7909 C   0  0  0  0  0  0  0  0  0  0  0  0
    1.2672    0.1377    0.2313 C   0  0  0  0  0  0  0  0  0  0  0  0
    1.9565    1.3340    0.6971 C   0  0  0  0  0  0  0  0  0  0  0  0
    2.5531    2.3051    1.0643 C   0  0  0  0  0  0  0  0  0  0  0  0
    0.7196   -0.9067    1.6332 S   0  0  0  0  0  0  0  0  0  0  0  0
    3.0298   -0.9811   -0.3423 H   0  0  0  0  0  0  0  0  0  0  0  0
    1.5405   -1.5043   -1.1451 H   0  0  0  0  0  0  0  0  0  0  0  0
    2.3418    0.0034   -1.6395 H   0  0  0  0  0  0  0  0  0  0  0  0
    3.0830    3.1675    1.3904 H   0  0  0  0  0  0  0  0  0  0  0  0
    1.9417   -1.1098    2.1435 H   0  0  0  0  0  0  0  0  0  0  0  0
   -1.2373    0.1520   -3.2168 C   0  0  0  0  0  0  0  0  0  0  0  0
   -1.2373    0.1520   -2.0207 C   0  0  0  0  0  0  0  0  0  0  0  0
   -1.2373    0.1921   -0.5541 C   0  0  0  0  0  3  0  0  0  0  0  0
   -1.8753    1.4913   -0.0321 C   0  0  0  0  0  0  0  0  0  0  0  0
   -1.8991   -0.9892    0.0106 C   0  0  0  0  0  0  0  0  0  0  0  0
   -2.4473   -1.9344    0.4971 C   0  0  0  0  0  0  0  0  0  0  0  0
   -1.2373    0.1520   -4.2803 H   0  0  0  0  0  0  0  0  0  0  0  0
    0.0163    0.1648   -0.1610 H   0  0  0  0  0  0  0  0  0  0  0  0
   -2.9185    1.5486   -0.3399 H   0  0  0  0  0  0  0  0  0  0  0  0
   -1.3427    2.3527   -0.4338 H   0  0  0  0  0  0  0  0  0  0  0  0
   -1.8281    1.5157    1.0561 H   0  0  0  0  0  0  0  0  0  0  0  0
   -2.9348   -2.7749    0.9296 H   0  0  0  0  0  0  0  0  0  0  0  0
  1  2  1  0
  1  6  1  0
  1  7  1  0
  1  8  1  0
  2  3  1  0
  2  5  1  0
  2 18  1  0
  3  4  3  0
  4  9  1  0
  5 10  1  0
 11 12  3  0
 11 17  1  0
 12 13  1  0
 13 14  1  0
 13 15  1  0
 14 19  1  0
 14 20  1  0
 14 21  1  0
 15 16  3  0
 16 22  1  0
M  RAD  1  13   2
M  END
>  <reaction>  (13) 
rxn_1425

>  <mol_properties>  (13) 
{"1": {"label": "*3", "atom_type": "Cs"}, "4": {"label": "*4", "atom_type": "S2s"}, "11": {"label": "*0", "atom_type": "Ct"}, "12": {"label": "*1", "atom_type": "Cs"}, "17": {"label": "*2", "atom_type": "H0"}}

>  <type>  (13) 
unop_9

>  <geom_source>  (13) 
Heuristics

$$$$

     RDKit          3D

 22 20  0  0  0  0  0  0  0  0999 V2000
    1.9788    1.4407   -0.3084 C   0  0  0  0  0  0  0  0  0  0  0  0
    1.2467    0.2277    0.2638 C   0  0  0  0  0  0  0  0  0  0  0  0
    0.6231    0.5238    1.5470 C   0  0  0  0  0  0  0  0  0  0  0  0
    0.1292    0.7980    2.6028 C   0  0  0  0  0  0  0  0  0  0  0  0
    2.3150   -1.2570    0.3665 S   0  0  0  0  0  0  0  0  0  0  0  0
    2.7866    1.7467    0.3571 H   0  0  0  0  0  0  0  0  0  0  0  0
    2.4022    1.1974   -1.2821 H   0  0  0  0  0  0  0  0  0  0  0  0
    1.2886    2.2791   -0.4164 H   0  0  0  0  0  0  0  0  0  0  0  0
   -0.3094    1.0415    3.5405 H   0  0  0  0  0  0  0  0  0  0  0  0
    3.1377   -0.7739    1.3072 H   0  0  0  0  0  0  0  0  0  0  0  0
   -1.2578    0.2420   -3.1844 C   0  0  0  0  0  0  0  0  0  0  0  0
   -1.2578    0.2420   -1.9882 C   0  0  0  0  0  0  0  0  0  0  0  0
   -1.2578    0.2821   -0.5217 C   0  0  0  0  0  3  0  0  0  0  0  0
   -1.8958    1.5813    0.0003 C   0  0  0  0  0  0  0  0  0  0  0  0
   -1.9196   -0.8991    0.0431 C   0  0  0  0  0  0  0  0  0  0  0  0
   -2.4678   -1.8444    0.5296 C   0  0  0  0  0  0  0  0  0  0  0  0
   -1.2578    0.2420   -4.2478 H   0  0  0  0  0  0  0  0  0  0  0  0
   -0.0042    0.2549   -0.1285 H   0  0  0  0  0  0  0  0  0  0  0  0
   -2.9390    1.6386   -0.3074 H   0  0  0  0  0  0  0  0  0  0  0  0
   -1.3632    2.4427   -0.4013 H   0  0  0  0  0  0  0  0  0  0  0  0
   -1.8486    1.6058    1.0885 H   0  0  0  0  0  0  0  0  0  0  0  0
   -2.9553   -2.6848    0.9621 H   0  0  0  0  0  0  0  0  0  0  0  0
  1  2  1  0
  1  6  1  0
  1  7  1  0
  1  8  1  0
  2  3  1  0
  2  5  1  0
  2 18  1  0
  3  4  3  0
  4  9  1  0
  5 10  1  0
 11 12  3  0
 11 17  1  0
 12 13  1  0
 13 14  1  0
 13 15  1  0
 14 19  1  0
 14 20  1  0
 14 21  1  0
 15 16  3  0
 16 22  1  0
M  RAD  1  13   2
M  END
>  <reaction>  (14) 
rxn_1425

>  <mol_properties>  (14) 
{"1": {"label": "*3", "atom_type": "Cs"}, "4": {"label": "*4", "atom_type": "S2s"}, "11": {"label": "*0", "atom_type": "Ct"}, "12": {"label": "*1", "atom_type": "Cs"}, "17": {"label": "*2", "atom_type": "H0"}}

>  <type>  (14) 
unop_10

>  <geom_source>  (14) 
Heuristics

$$$$

     RDKit          3D

 22 20  0  0  0  0  0  0  0  0999 V2000
    1.2763   -0.8138    1.8988 C   0  0  0  0  0  0  0  0  0  0  0  0
    1.1921   -0.1263    0.5368 C   0  0  0  0  0  0  0  0  0  0  0  0
    2.3824   -0.3667   -0.2686 C   0  0  0  0  0  0  0  0  0  0  0  0
    3.3769   -0.5776   -0.9013 C   0  0  0  0  0  0  0  0  0  0  0  0
    0.8267    1.6637    0.6716 S   0  0  0  0  0  0  0  0  0  0  0  0
    2.1150   -0.4194    2.4732 H   0  0  0  0  0  0  0  0  0  0  0  0
    0.3585   -0.6449    2.4607 H   0  0  0  0  0  0  0  0  0  0  0  0
    1.4254   -1.8870    1.7690 H   0  0  0  0  0  0  0  0  0  0  0  0
    4.2602   -0.7648   -1.4632 H   0  0  0  0  0  0  0  0  0  0  0  0
    1.9882    2.0017    1.2478 H   0  0  0  0  0  0  0  0  0  0  0  0
   -1.3124   -0.1119   -2.9113 C   0  0  0  0  0  0  0  0  0  0  0  0
   -1.3124   -0.1119   -1.7151 C   0  0  0  0  0  0  0  0  0  0  0  0
   -1.3124   -0.0719   -0.2486 C   0  0  0  0  0  3  0  0  0  0  0  0
   -1.9504    1.2274    0.2734 C   0  0  0  0  0  0  0  0  0  0  0  0
   -1.9742   -1.2531    0.3162 C   0  0  0  0  0  0  0  0  0  0  0  0
   -2.5225   -2.1984    0.8027 C   0  0  0  0  0  0  0  0  0  0  0  0
   -1.3124   -0.1119   -3.9748 H   0  0  0  0  0  0  0  0  0  0  0  0
   -0.0588   -0.0991    0.1445 H   0  0  0  0  0  0  0  0  0  0  0  0
   -2.9937    1.2846   -0.0344 H   0  0  0  0  0  0  0  0  0  0  0  0
   -1.4178    2.0888   -0.1283 H   0  0  0  0  0  0  0  0  0  0  0  0
   -1.9032    1.2518    1.3616 H   0  0  0  0  0  0  0  0  0  0  0  0
   -3.0099   -3.0388    1.2352 H   0  0  0  0  0  0  0  0  0  0  0  0
  1  2  1  0
  1  6  1  0
  1  7  1  0
  1  8  1  0
  2  3  1  0
  2  5  1  0
  2 18  1  0
  3  4  3  0
  4  9  1  0
  5 10  1  0
 11 12  3  0
 11 17  1  0
 12 13  1  0
 13 14  1  0
 13 15  1  0
 14 19  1  0
 14 20  1  0
 14 21  1  0
 15 16  3  0
 16 22  1  0
M  RAD  1  13   2
M  END
>  <reaction>  (15) 
rxn_1425

>  <mol_properties>  (15) 
{"1": {"label": "*3", "atom_type": "Cs"}, "4": {"label": "*4", "atom_type": "S2s"}, "11": {"label": "*0", "atom_type": "Ct"}, "12": {"label": "*1", "atom_type": "Cs"}, "17": {"label": "*2", "atom_type": "H0"}}

>  <type>  (15) 
unop_11

>  <geom_source>  (15) 
Heuristics

$$$$

     RDKit          3D

 22 20  0  0  0  0  0  0  0  0999 V2000
    2.1399    0.1033   -0.9716 C   0  0  0  0  0  0  0  0  0  0  0  0
    1.2304    0.1643    0.2547 C   0  0  0  0  0  0  0  0  0  0  0  0
    1.4842    1.3507    1.0619 C   0  0  0  0  0  0  0  0  0  0  0  0
    1.7227    2.3314    1.7062 C   0  0  0  0  0  0  0  0  0  0  0  0
    1.3067   -1.3611    1.2661 S   0  0  0  0  0  0  0  0  0  0  0  0
    3.1855    0.0444   -0.6677 H   0  0  0  0  0  0  0  0  0  0  0  0
    1.9011   -0.7741   -1.5714 H   0  0  0  0  0  0  0  0  0  0  0  0
    2.0107    1.0001   -1.5799 H   0  0  0  0  0  0  0  0  0  0  0  0
    1.9346    3.2023    2.2784 H   0  0  0  0  0  0  0  0  0  0  0  0
    2.5746   -1.2003    1.6683 H   0  0  0  0  0  0  0  0  0  0  0  0
   -1.2741    0.1787   -3.1935 C   0  0  0  0  0  0  0  0  0  0  0  0
   -1.2741    0.1787   -1.9973 C   0  0  0  0  0  0  0  0  0  0  0  0
   -1.2741    0.2188   -0.5308 C   0  0  0  0  0  3  0  0  0  0  0  0
   -1.9121    1.5180   -0.0088 C   0  0  0  0  0  0  0  0  0  0  0  0
   -1.9359   -0.9625    0.0340 C   0  0  0  0  0  0  0  0  0  0  0  0
   -2.4842   -1.9078    0.5205 C   0  0  0  0  0  0  0  0  0  0  0  0
   -1.2741    0.1787   -4.2569 H   0  0  0  0  0  0  0  0  0  0  0  0
   -0.0205    0.1915   -0.1376 H   0  0  0  0  0  0  0  0  0  0  0  0
   -2.9554    1.5752   -0.3165 H   0  0  0  0  0  0  0  0  0  0  0  0
   -1.3795    2.3794   -0.4104 H   0  0  0  0  0  0  0  0  0  0  0  0
   -1.8649    1.5424    1.0795 H   0  0  0  0  0  0  0  0  0  0  0  0
   -2.9716   -2.7482    0.9530 H   0  0  0  0  0  0  0  0  0  0  0  0
  1  2  1  0
  1  6  1  0
  1  7  1  0
  1  8  1  0
  2  3  1  0
  2  5  1  0
  2 18  1  0
  3  4  3  0
  4  9  1  0
  5 10  1  0
 11 12  3  0
 11 17  1  0
 12 13  1  0
 13 14  1  0
 13 15  1  0
 14 19  1  0
 14 20  1  0
 14 21  1  0
 15 16  3  0
 16 22  1  0
M  RAD  1  13   2
M  END
>  <reaction>  (16) 
rxn_1425

>  <mol_properties>  (16) 
{"1": {"label": "*3", "atom_type": "Cs"}, "4": {"label": "*4", "atom_type": "S2s"}, "11": {"label": "*0", "atom_type": "Ct"}, "12": {"label": "*1", "atom_type": "Cs"}, "17": {"label": "*2", "atom_type": "H0"}}

>  <type>  (16) 
unop_12

>  <geom_source>  (16) 
Heuristics

$$$$

     RDKit          3D

 22 20  0  0  0  0  0  0  0  0999 V2000
    1.5334   -0.3905   -1.8355 S   0  0  0  0  0  0  0  0  0  0  0  0
    1.3051   -0.1984   -0.0380 C   0  0  0  0  0  0  0  0  0  0  0  0
    1.6328   -1.5012    0.6852 C   0  0  0  0  0  0  0  0  0  0  0  0
   -1.5914    1.7186   -0.4970 C   0  0  0  0  0  0  0  0  0  0  0  0
   -1.2450    0.2576   -0.2246 C   0  0  0  0  0  3  0  0  0  0  0  0
    2.1551    0.8930    0.4538 C   0  0  0  0  0  0  0  0  0  0  0  0
   -1.7645   -0.1645    1.0819 C   0  0  0  0  0  0  0  0  0  0  0  0
   -1.7887   -0.6100   -1.2764 C   0  0  0  0  0  0  0  0  0  0  0  0
    2.8524    1.7896    0.8582 C   0  0  0  0  0  0  0  0  0  0  0  0
   -2.1898   -0.5107    2.1558 C   0  0  0  0  0  0  0  0  0  0  0  0
   -2.2339   -1.3224   -2.1415 C   0  0  0  0  0  0  0  0  0  0  0  0
    0.0337    0.1145    0.1951 H   0  0  0  0  0  0  0  0  0  0  0  0
    2.6945   -1.7875    0.5235 H   0  0  0  0  0  0  0  0  0  0  0  0
    0.9788   -2.3147    0.3065 H   0  0  0  0  0  0  0  0  0  0  0  0
    1.4510   -1.3871    1.7753 H   0  0  0  0  0  0  0  0  0  0  0  0
   -1.1502    2.3647    0.2916 H   0  0  0  0  0  0  0  0  0  0  0  0
   -2.6933    1.8687   -0.5140 H   0  0  0  0  0  0  0  0  0  0  0  0
   -1.1683    2.0310   -1.4754 H   0  0  0  0  0  0  0  0  0  0  0  0
    2.9117   -0.6654   -1.7351 H   0  0  0  0  0  0  0  0  0  0  0  0
    3.4646    2.5765    1.2130 H   0  0  0  0  0  0  0  0  0  0  0  0
   -2.5633   -0.8144    3.0983 H   0  0  0  0  0  0  0  0  0  0  0  0
   -2.6248   -1.9476   -2.9006 H   0  0  0  0  0  0  0  0  0  0  0  0
  1  2  1  0
  1 19  1  0
  2  3  1  0
  2  6  1  0
  2 12  1  0
  3 13  1  0
  3 14  1  0
  3 15  1  0
  4  5  1  0
  4 16  1  0
  4 17  1  0
  4 18  1  0
  5  7  1  0
  5  8  1  0
  6  9  3  0
  7 10  3  0
  8 11  3  0
  9 20  1  0
 10 21  1  0
 11 22  1  0
M  RAD  1   5   2
M  END
>  <reaction>  (17) 
rxn_1425

>  <mol_properties>  (17) 
{"1": {"label": "*3", "atom_type": "Cs"}, "4": {"label": "*4", "atom_type": "S2s"}, "11": {"label": "*0", "atom_type": "Ct"}, "12": {"label": "*1", "atom_type": "Cs"}, "17": {"label": "*2", "atom_type": "H0"}}

>  <type>  (17) 
unop_13

>  <geom_source>  (17) 
AutoTST

$$$$
