
     RDKit          3D

 10  9  0  0  0  0  0  0  0  0999 V2000
    1.8334    0.0847   -0.1062 C   0  0  0  0  0  0  0  0  0  0  0  0
    0.5993   -0.4071   -0.0750 C   0  0  0  0  0  0  0  0  0  0  0  0
   -0.5993    0.4071    0.0750 C   0  0  0  0  0  0  0  0  0  0  0  0
   -1.8334   -0.0847    0.1062 C   0  0  0  0  0  0  0  0  0  0  0  0
    2.0179    1.1498   -0.0189 H   0  0  0  0  0  0  0  0  0  0  0  0
    2.6972   -0.5572   -0.2194 H   0  0  0  0  0  0  0  0  0  0  0  0
    0.4465   -1.4793   -0.1649 H   0  0  0  0  0  0  0  0  0  0  0  0
   -0.4465    1.4793    0.1649 H   0  0  0  0  0  0  0  0  0  0  0  0
   -2.0179   -1.1498    0.0189 H   0  0  0  0  0  0  0  0  0  0  0  0
   -2.6972    0.5572    0.2194 H   0  0  0  0  0  0  0  0  0  0  0  0
  1  2  2  3
  1  5  1  0
  1  6  1  0
  2  3  1  0
  2  7  1  0
  3  4  2  3
  3  8  1  0
  4  9  1  0
  4 10  1  0
M  END
>  <reaction>  (1) 
rxn_1661

>  <mol_properties>  (1) 
{"2": {"label": "donator", "atom_type": "Cd"}, "7": {"label": "d_hydrogen", "atom_type": "H0"}}

>  <type>  (1) 
r1h

$$$$

     RDKit          3D

 14 14  0  0  0  0  0  0  0  0999 V2000
    2.3111    0.1295    0.0255 C   0  0  0  0  0  0  0  0  0  0  0  0
    0.9132    0.0511    0.0101 C   0  0  0  0  0  0  0  0  0  0  0  0
    0.1101    1.2180   -0.0350 C   0  0  0  0  0  3  0  0  0  0  0  0
   -1.2644    1.1347   -0.0499 C   0  0  0  0  0  0  0  0  0  0  0  0
   -1.8967   -0.1062   -0.0209 C   0  0  0  0  0  0  0  0  0  0  0  0
   -1.1306   -1.2689    0.0235 C   0  0  0  0  0  0  0  0  0  0  0  0
    0.2446   -1.1981    0.0389 C   0  0  0  0  0  0  0  0  0  0  0  0
    2.9188   -0.7647    0.0599 H   0  0  0  0  0  0  0  0  0  0  0  0
    2.8158    1.0859    0.0034 H   0  0  0  0  0  0  0  0  0  0  0  0
    0.5964    2.1860   -0.0577 H   0  0  0  0  0  0  0  0  0  0  0  0
   -1.8572    2.0404   -0.0845 H   0  0  0  0  0  0  0  0  0  0  0  0
   -2.9772   -0.1668   -0.0328 H   0  0  0  0  0  0  0  0  0  0  0  0
   -1.6191   -2.2351    0.0461 H   0  0  0  0  0  0  0  0  0  0  0  0
    0.8353   -2.1058    0.0735 H   0  0  0  0  0  0  0  0  0  0  0  0
  1  2  2  3
  1  8  1  0
  1  9  1  0
  2  3  1  0
  2  7  1  0
  3  4  1  0
  3 10  1  0
  4  5  2  0
  4 11  1  0
  5  6  1  0
  5 12  1  0
  6  7  2  0
  6 13  1  0
  7 14  1  0
M  RAD  1   3   2
M  END
>  <reaction>  (2) 
rxn_1661

>  <mol_properties>  (2) 
{"0": {"label": "acceptor", "atom_type": "Cs"}}

>  <type>  (2) 
r2

$$$$

     RDKit          3D

 15 15  0  0  0  0  0  0  0  0999 V2000
    2.2033   -0.2106   -0.1691 C   0  0  0  0  0  0  0  0  0  0  0  0
    0.7079   -0.0769   -0.0833 C   0  0  0  0  0  0  0  0  0  0  0  0
    0.0133   -0.5320    1.0332 C   0  0  0  0  0  0  0  0  0  0  0  0
   -1.3681   -0.4375    1.1023 C   0  0  0  0  0  0  0  0  0  0  0  0
   -2.0817    0.1179    0.0512 C   0  0  0  0  0  0  0  0  0  0  0  0
   -1.4017    0.5784   -1.0658 C   0  0  0  0  0  0  0  0  0  0  0  0
   -0.0203    0.4813   -1.1294 C   0  0  0  0  0  0  0  0  0  0  0  0
    2.6627   -0.1689    0.8190 H   0  0  0  0  0  0  0  0  0  0  0  0
    2.4808   -1.1663   -0.6212 H   0  0  0  0  0  0  0  0  0  0  0  0
    2.6378    0.5807   -0.7809 H   0  0  0  0  0  0  0  0  0  0  0  0
    0.5630   -0.9645    1.8617 H   0  0  0  0  0  0  0  0  0  0  0  0
   -1.8884   -0.7961    1.9818 H   0  0  0  0  0  0  0  0  0  0  0  0
   -3.1603    0.1950    0.1041 H   0  0  0  0  0  0  0  0  0  0  0  0
   -1.9485    1.0183   -1.8907 H   0  0  0  0  0  0  0  0  0  0  0  0
    0.5030    0.8475   -2.0056 H   0  0  0  0  0  0  0  0  0  0  0  0
  1  2  1  0
  1  8  1  0
  1  9  1  0
  1 10  1  0
  2  3  2  0
  2  7  1  0
  3  4  1  0
  3 11  1  0
  4  5  2  0
  4 12  1  0
  5  6  1  0
  5 13  1  0
  6  7  2  0
  6 14  1  0
  7 15  1  0
M  END
>  <reaction>  (3) 
rxn_1661

>  <mol_properties>  (3) 
{"0": {"label": "a_hydrogen", "atom_type": "H0"}, "1": {"label": "acceptor", "atom_type": "Cs"}}

>  <type>  (3) 
r2h

$$$$

     RDKit          3D

 24 23  0  0  0  0  0  0  0  0999 V2000
    3.1606   -2.7947   -0.0261 C   0  0  0  0  0  0  0  0  0  0  0  0
    2.1236   -2.8291    0.8050 C   0  0  0  0  0  0  0  0  0  0  0  0
    1.0534   -1.8601    0.8196 C   0  0  0  0  0  3  0  0  0  0  0  0
   -0.0242   -1.7615    1.5705 C   0  0  0  0  0  0  0  0  0  0  0  0
    3.2631   -2.0089   -0.7651 H   0  0  0  0  0  0  0  0  0  0  0  0
    3.9350   -3.5494    0.0083 H   0  0  0  0  0  0  0  0  0  0  0  0
    2.0505   -3.6338    1.5371 H   0  0  0  0  0  0  0  0  0  0  0  0
    1.1570   -0.7923   -0.1569 H   0  0  0  0  0  0  0  0  0  0  0  0
   -0.2428   -2.4895    2.3506 H   0  0  0  0  0  0  0  0  0  0  0  0
   -0.7338   -0.9511    1.4392 H   0  0  0  0  0  0  0  0  0  0  0  0
    1.1152    0.1842   -0.9442 C   0  0  0  0  0  0  0  0  0  0  0  0
   -0.1125    0.9348   -0.6246 C   0  0  0  0  0  0  0  0  0  0  0  0
   -1.3282    0.6115   -1.2304 C   0  0  0  0  0  0  0  0  0  0  0  0
   -2.4958    1.2675   -0.8791 C   0  0  0  0  0  0  0  0  0  0  0  0
   -2.4746    2.2611    0.0894 C   0  0  0  0  0  0  0  0  0  0  0  0
   -1.2739    2.5934    0.7005 C   0  0  0  0  0  0  0  0  0  0  0  0
   -0.1071    1.9365    0.3481 C   0  0  0  0  0  0  0  0  0  0  0  0
    2.0395    0.7230   -0.7442 H   0  0  0  0  0  0  0  0  0  0  0  0
    1.1209   -0.2737   -1.9316 H   0  0  0  0  0  0  0  0  0  0  0  0
   -1.3535   -0.1676   -1.9836 H   0  0  0  0  0  0  0  0  0  0  0  0
   -3.4276    1.0026   -1.3632 H   0  0  0  0  0  0  0  0  0  0  0  0
   -3.3870    2.7747    0.3641 H   0  0  0  0  0  0  0  0  0  0  0  0
   -1.2468    3.3690    1.4558 H   0  0  0  0  0  0  0  0  0  0  0  0
    0.8261    2.1975    0.8338 H   0  0  0  0  0  0  0  0  0  0  0  0
  1  2  2  3
  1  5  1  0
  1  6  1  0
  2  3  1  0
  2  7  1  0
  3  4  2  3
  4  9  1  0
  4 10  1  0
  8 11  1  0
 11 12  1  0
 11 18  1  0
 11 19  1  0
 12 13  2  0
 12 17  1  0
 13 14  1  0
 13 20  1  0
 14 15  2  0
 14 21  1  0
 15 16  1  0
 15 22  1  0
 16 17  2  0
 16 23  1  0
 17 24  1  0
M  RAD  1   3   2
M  END
>  <reaction>  (4) 
rxn_1661

>  <mol_properties>  (4) 
{"1": {"label": "*4", "atom_type": "Cd"}, "2": {"label": "*3", "atom_type": "Cd"}, "7": {"label": "*2", "atom_type": "H0"}, "10": {"label": "*1", "atom_type": "Cs"}, "11": {"label": "*0", "atom_type": "Cd"}}

>  <type>  (4) 
ts

$$$$

     RDKit          3D

 24 23  0  0  0  0  0  0  0  0999 V2000
    1.2493   -3.2736   -1.5194 C   0  0  0  0  0  0  0  0  0  0  0  0
    1.2493   -3.2736   -0.1905 C   0  0  0  0  0  0  0  0  0  0  0  0
    1.2493   -2.0662    0.6248 C   0  0  0  0  0  0  0  0  0  0  0  0
    1.2493   -2.0662    1.9537 C   0  0  0  0  0  0  0  0  0  0  0  0
    1.2493   -2.3470   -2.0828 H   0  0  0  0  0  0  0  0  0  0  0  0
    1.2493   -4.1951   -2.0866 H   0  0  0  0  0  0  0  0  0  0  0  0
    1.2493   -4.2185    0.3461 H   0  0  0  0  0  0  0  0  0  0  0  0
    1.2493   -0.9323   -0.0192 H   0  0  0  0  0  0  0  0  0  0  0  0
    1.2493   -2.9928    2.5171 H   0  0  0  0  0  0  0  0  0  0  0  0
    1.2493   -1.1447    2.5209 H   0  0  0  0  0  0  0  0  0  0  0  0
    1.2493    0.2056   -0.6654 C   0  0  0  0  0  0  0  0  0  0  0  0
    0.0362    1.0272   -0.3265 C   0  0  0  0  0  0  0  0  0  0  0  0
   -1.2294    0.6439   -0.7595 C   0  0  0  0  0  3  0  0  0  0  0  0
   -2.3456    1.4151   -0.4743 C   0  0  0  0  0  0  0  0  0  0  0  0
   -2.2146    2.5878    0.2536 C   0  0  0  0  0  0  0  0  0  0  0  0
   -0.9596    2.9796    0.6941 C   0  0  0  0  0  0  0  0  0  0  0  0
    0.1530    2.2044    0.4061 C   0  0  0  0  0  0  0  0  0  0  0  0
    2.0208    0.3034    0.0991 H   0  0  0  0  0  0  0  0  0  0  0  0
    1.6833    0.5301   -1.6146 H   0  0  0  0  0  0  0  0  0  0  0  0
   -1.3424   -0.2734   -1.3264 H   0  0  0  0  0  0  0  0  0  0  0  0
   -3.3216    1.0970   -0.8194 H   0  0  0  0  0  0  0  0  0  0  0  0
   -3.0852    3.1903    0.4797 H   0  0  0  0  0  0  0  0  0  0  0  0
   -0.8461    3.8913    1.2676 H   0  0  0  0  0  0  0  0  0  0  0  0
    1.1298    2.5171    0.7579 H   0  0  0  0  0  0  0  0  0  0  0  0
  1  2  2  3
  1  5  1  0
  1  6  1  0
  2  3  1  0
  2  7  1  0
  3  4  2  3
  3  8  1  0
  4  9  1  0
  4 10  1  0
 11 12  2  3
 11 18  1  0
 11 19  1  0
 12 13  1  0
 12 17  1  0
 13 14  1  0
 13 20  1  0
 14 15  2  0
 14 21  1  0
 15 16  1  0
 15 22  1  0
 16 17  2  0
 16 23  1  0
 17 24  1  0
M  RAD  1  13   2
M  END
>  <reaction>  (5) 
rxn_1661

>  <mol_properties>  (5) 
{"1": {"label": "*4", "atom_type": "Cd"}, "2": {"label": "*3", "atom_type": "Cd"}, "7": {"label": "*2", "atom_type": "H0"}, "10": {"label": "*1", "atom_type": "Cs"}, "11": {"label": "*0", "atom_type": "Cd"}}

>  <type>  (5) 
unop_1

>  <geom_source>  (5) 
Heuristics

$$$$

     RDKit          3D

 24 23  0  0  0  0  0  0  0  0999 V2000
    0.7140   -2.2975    0.1960 C   0  0  0  0  0  0  0  0  0  0  0  0
    0.7140   -2.2975    1.5249 C   0  0  0  0  0  0  0  0  0  0  0  0
    0.7140   -1.0901    2.3402 C   0  0  0  0  0  0  0  0  0  0  0  0
    0.7140   -1.0901    3.6691 C   0  0  0  0  0  0  0  0  0  0  0  0
    0.7140   -1.3709   -0.3674 H   0  0  0  0  0  0  0  0  0  0  0  0
    0.7140   -3.2190   -0.3712 H   0  0  0  0  0  0  0  0  0  0  0  0
    0.7140   -3.2424    2.0615 H   0  0  0  0  0  0  0  0  0  0  0  0
    0.7140    0.0438    1.6962 H   0  0  0  0  0  0  0  0  0  0  0  0
    0.7140   -2.0167    4.2325 H   0  0  0  0  0  0  0  0  0  0  0  0
    0.7140   -0.1686    4.2363 H   0  0  0  0  0  0  0  0  0  0  0  0
    0.7140    1.1817    1.0500 C   0  0  0  0  0  0  0  0  0  0  0  0
    0.0137    1.0584   -0.2749 C   0  0  0  0  0  0  0  0  0  0  0  0
    0.3082    0.0121   -1.1436 C   0  0  0  0  0  3  0  0  0  0  0  0
   -0.3138   -0.0874   -2.3786 C   0  0  0  0  0  0  0  0  0  0  0  0
   -1.2469    0.8617   -2.7671 C   0  0  0  0  0  0  0  0  0  0  0  0
   -1.5523    1.9076   -1.9096 C   0  0  0  0  0  0  0  0  0  0  0  0
   -0.9271    2.0020   -0.6759 C   0  0  0  0  0  0  0  0  0  0  0  0
    0.0819    1.6762    1.7884 H   0  0  0  0  0  0  0  0  0  0  0  0
    1.6282    1.7725    0.9508 H   0  0  0  0  0  0  0  0  0  0  0  0
    1.0339   -0.7370   -0.8471 H   0  0  0  0  0  0  0  0  0  0  0  0
   -0.0710   -0.9113   -3.0382 H   0  0  0  0  0  0  0  0  0  0  0  0
   -1.7358    0.7845   -3.7298 H   0  0  0  0  0  0  0  0  0  0  0  0
   -2.2830    2.6520   -2.2007 H   0  0  0  0  0  0  0  0  0  0  0  0
   -1.1751    2.8216   -0.0107 H   0  0  0  0  0  0  0  0  0  0  0  0
  1  2  2  3
  1  5  1  0
  1  6  1  0
  2  3  1  0
  2  7  1  0
  3  4  2  3
  3  8  1  0
  4  9  1  0
  4 10  1  0
 11 12  2  3
 11 18  1  0
 11 19  1  0
 12 13  1  0
 12 17  1  0
 13 14  1  0
 13 20  1  0
 14 15  2  0
 14 21  1  0
 15 16  1  0
 15 22  1  0
 16 17  2  0
 16 23  1  0
 17 24  1  0
M  RAD  1  13   2
M  END
>  <reaction>  (6) 
rxn_1661

>  <mol_properties>  (6) 
{"1": {"label": "*4", "atom_type": "Cd"}, "2": {"label": "*3", "atom_type": "Cd"}, "7": {"label": "*2", "atom_type": "H0"}, "10": {"label": "*1", "atom_type": "Cs"}, "11": {"label": "*0", "atom_type": "Cd"}}

>  <type>  (6) 
unop_2

>  <geom_source>  (6) 
Heuristics

$$$$

     RDKit          3D

 24 23  0  0  0  0  0  0  0  0999 V2000
    0.7252   -3.5331   -1.9774 C   0  0  0  0  0  0  0  0  0  0  0  0
    0.7252   -3.5331   -0.6485 C   0  0  0  0  0  0  0  0  0  0  0  0
    0.7252   -2.3257    0.1668 C   0  0  0  0  0  0  0  0  0  0  0  0
    0.7252   -2.3257    1.4956 C   0  0  0  0  0  0  0  0  0  0  0  0
    0.7252   -2.6065   -2.5409 H   0  0  0  0  0  0  0  0  0  0  0  0
    0.7252   -4.4546   -2.5446 H   0  0  0  0  0  0  0  0  0  0  0  0
    0.7252   -4.4780   -0.1119 H   0  0  0  0  0  0  0  0  0  0  0  0
    0.7252   -1.1918   -0.4772 H   0  0  0  0  0  0  0  0  0  0  0  0
    0.7252   -3.2523    2.0591 H   0  0  0  0  0  0  0  0  0  0  0  0
    0.7252   -1.4042    2.0628 H   0  0  0  0  0  0  0  0  0  0  0  0
    0.7252   -0.0539   -1.1234 C   0  0  0  0  0  0  0  0  0  0  0  0
    0.0249    1.0208   -0.3387 C   0  0  0  0  0  0  0  0  0  0  0  0
   -1.3071    0.8773    0.0375 C   0  0  0  0  0  3  0  0  0  0  0  0
   -1.9642    1.8792    0.7347 C   0  0  0  0  0  0  0  0  0  0  0  0
   -1.2966    3.0471    1.0707 C   0  0  0  0  0  0  0  0  0  0  0  0
    0.0318    3.2017    0.7050 C   0  0  0  0  0  0  0  0  0  0  0  0
    0.6839    2.1964    0.0078 C   0  0  0  0  0  0  0  0  0  0  0  0
    1.7954   -0.0647   -0.9138 H   0  0  0  0  0  0  0  0  0  0  0  0
    0.6017    0.1084   -2.1972 H   0  0  0  0  0  0  0  0  0  0  0  0
   -1.8364   -0.0340   -0.2176 H   0  0  0  0  0  0  0  0  0  0  0  0
   -3.0005    1.7457    1.0194 H   0  0  0  0  0  0  0  0  0  0  0  0
   -1.8070    3.8297    1.6175 H   0  0  0  0  0  0  0  0  0  0  0  0
    0.5646    4.1077    0.9663 H   0  0  0  0  0  0  0  0  0  0  0  0
    1.7239    2.3249   -0.2707 H   0  0  0  0  0  0  0  0  0  0  0  0
  1  2  2  3
  1  5  1  0
  1  6  1  0
  2  3  1  0
  2  7  1  0
  3  4  2  3
  3  8  1  0
  4  9  1  0
  4 10  1  0
 11 12  2  3
 11 18  1  0
 11 19  1  0
 12 13  1  0
 12 17  1  0
 13 14  1  0
 13 20  1  0
 14 15  2  0
 14 21  1  0
 15 16  1  0
 15 22  1  0
 16 17  2  0
 16 23  1  0
 17 24  1  0
M  RAD  1  13   2
M  END
>  <reaction>  (7) 
rxn_1661

>  <mol_properties>  (7) 
{"1": {"label": "*4", "atom_type": "Cd"}, "2": {"label": "*3", "atom_type": "Cd"}, "7": {"label": "*2", "atom_type": "H0"}, "10": {"label": "*1", "atom_type": "Cs"}, "11": {"label": "*0", "atom_type": "Cd"}}

>  <type>  (7) 
unop_3

>  <geom_source>  (7) 
Heuristics

$$$$

     RDKit          3D

 24 23  0  0  0  0  0  0  0  0999 V2000
   -1.2631   -2.5570   -0.2853 C   0  0  0  0  0  0  0  0  0  0  0  0
   -1.2631   -2.5570    1.0435 C   0  0  0  0  0  0  0  0  0  0  0  0
   -1.2631   -1.3496    1.8588 C   0  0  0  0  0  0  0  0  0  0  0  0
   -1.2631   -1.3496    3.1877 C   0  0  0  0  0  0  0  0  0  0  0  0
   -1.2631   -1.6304   -0.8488 H   0  0  0  0  0  0  0  0  0  0  0  0
   -1.2631   -3.4785   -0.8525 H   0  0  0  0  0  0  0  0  0  0  0  0
   -1.2631   -3.5019    1.5802 H   0  0  0  0  0  0  0  0  0  0  0  0
   -1.2631   -0.2157    1.2149 H   0  0  0  0  0  0  0  0  0  0  0  0
   -1.2631   -2.2762    3.7512 H   0  0  0  0  0  0  0  0  0  0  0  0
   -1.2631   -0.4281    3.7549 H   0  0  0  0  0  0  0  0  0  0  0  0
   -1.2631    0.9222    0.5687 C   0  0  0  0  0  0  0  0  0  0  0  0
   -0.0501    1.0521   -0.3105 C   0  0  0  0  0  0  0  0  0  0  0  0
    0.8862    0.0259   -0.3915 C   0  0  0  0  0  3  0  0  0  0  0  0
    2.0208    0.1548   -1.1776 C   0  0  0  0  0  0  0  0  0  0  0  0
    2.2386    1.3174   -1.9011 C   0  0  0  0  0  0  0  0  0  0  0  0
    1.3118    2.3464   -1.8321 C   0  0  0  0  0  0  0  0  0  0  0  0
    0.1791    2.2119   -1.0443 C   0  0  0  0  0  0  0  0  0  0  0  0
   -2.1011    1.4992    0.1762 H   0  0  0  0  0  0  0  0  0  0  0  0
   -1.0522    1.2911    1.5757 H   0  0  0  0  0  0  0  0  0  0  0  0
    0.7228   -0.8885    0.1679 H   0  0  0  0  0  0  0  0  0  0  0  0
    2.7355   -0.6573   -1.2277 H   0  0  0  0  0  0  0  0  0  0  0  0
    3.1225    1.4192   -2.5177 H   0  0  0  0  0  0  0  0  0  0  0  0
    1.4693    3.2571   -2.3967 H   0  0  0  0  0  0  0  0  0  0  0  0
   -0.5418    3.0206   -0.9996 H   0  0  0  0  0  0  0  0  0  0  0  0
  1  2  2  3
  1  5  1  0
  1  6  1  0
  2  3  1  0
  2  7  1  0
  3  4  2  3
  3  8  1  0
  4  9  1  0
  4 10  1  0
 11 12  2  3
 11 18  1  0
 11 19  1  0
 12 13  1  0
 12 17  1  0
 13 14  1  0
 13 20  1  0
 14 15  2  0
 14 21  1  0
 15 16  1  0
 15 22  1  0
 16 17  2  0
 16 23  1  0
 17 24  1  0
M  RAD  1  13   2
M  END
>  <reaction>  (8) 
rxn_1661

>  <mol_properties>  (8) 
{"1": {"label": "*4", "atom_type": "Cd"}, "2": {"label": "*3", "atom_type": "Cd"}, "7": {"label": "*2", "atom_type": "H0"}, "10": {"label": "*1", "atom_type": "Cs"}, "11": {"label": "*0", "atom_type": "Cd"}}

>  <type>  (8) 
unop_4

>  <geom_source>  (8) 
Heuristics

$$$$

     RDKit          3D

 24 23  0  0  0  0  0  0  0  0999 V2000
    0.0137   -3.6267   -2.1512 C   0  0  0  0  0  0  0  0  0  0  0  0
    0.0137   -3.6267   -0.8223 C   0  0  0  0  0  0  0  0  0  0  0  0
    0.0137   -2.4193   -0.0070 C   0  0  0  0  0  0  0  0  0  0  0  0
    0.0137   -2.4193    1.3218 C   0  0  0  0  0  0  0  0  0  0  0  0
    0.0137   -2.7001   -2.7147 H   0  0  0  0  0  0  0  0  0  0  0  0
    0.0137   -4.5482   -2.7184 H   0  0  0  0  0  0  0  0  0  0  0  0
    0.0137   -4.5716   -0.2857 H   0  0  0  0  0  0  0  0  0  0  0  0
    0.0137   -1.2854   -0.6510 H   0  0  0  0  0  0  0  0  0  0  0  0
    0.0137   -3.3459    1.8853 H   0  0  0  0  0  0  0  0  0  0  0  0
    0.0137   -1.4978    1.8890 H   0  0  0  0  0  0  0  0  0  0  0  0
    0.0137   -0.1475   -1.2972 C   0  0  0  0  0  0  0  0  0  0  0  0
    0.0137    1.0199   -0.3493 C   0  0  0  0  0  0  0  0  0  0  0  0
   -0.5872    0.9236    0.9020 C   0  0  0  0  0  3  0  0  0  0  0  0
   -0.6152    2.0074    1.7660 C   0  0  0  0  0  0  0  0  0  0  0  0
   -0.0385    3.2116    1.3920 C   0  0  0  0  0  0  0  0  0  0  0  0
    0.5666    3.3202    0.1493 C   0  0  0  0  0  0  0  0  0  0  0  0
    0.5916    2.2330   -0.7106 C   0  0  0  0  0  0  0  0  0  0  0  0
    0.8857   -0.1271   -1.9517 H   0  0  0  0  0  0  0  0  0  0  0  0
   -0.8754   -0.1297   -1.9327 H   0  0  0  0  0  0  0  0  0  0  0  0
   -1.0376   -0.0150    1.2048 H   0  0  0  0  0  0  0  0  0  0  0  0
   -1.0864    1.9098    2.7362 H   0  0  0  0  0  0  0  0  0  0  0  0
   -0.0569    4.0584    2.0662 H   0  0  0  0  0  0  0  0  0  0  0  0
    1.0244    4.2544   -0.1515 H   0  0  0  0  0  0  0  0  0  0  0  0
    1.0703    2.3265   -1.6790 H   0  0  0  0  0  0  0  0  0  0  0  0
  1  2  2  3
  1  5  1  0
  1  6  1  0
  2  3  1  0
  2  7  1  0
  3  4  2  3
  3  8  1  0
  4  9  1  0
  4 10  1  0
 11 12  2  3
 11 18  1  0
 11 19  1  0
 12 13  1  0
 12 17  1  0
 13 14  1  0
 13 20  1  0
 14 15  2  0
 14 21  1  0
 15 16  1  0
 15 22  1  0
 16 17  2  0
 16 23  1  0
 17 24  1  0
M  RAD  1  13   2
M  END
>  <reaction>  (9) 
rxn_1661

>  <mol_properties>  (9) 
{"1": {"label": "*4", "atom_type": "Cd"}, "2": {"label": "*3", "atom_type": "Cd"}, "7": {"label": "*2", "atom_type": "H0"}, "10": {"label": "*1", "atom_type": "Cs"}, "11": {"label": "*0", "atom_type": "Cd"}}

>  <type>  (9) 
unop_5

>  <geom_source>  (9) 
Heuristics

$$$$

     RDKit          3D

 24 23  0  0  0  0  0  0  0  0999 V2000
   -1.4483   -2.9138   -0.9186 C   0  0  0  0  0  0  0  0  0  0  0  0
   -1.4483   -2.9138    0.4103 C   0  0  0  0  0  0  0  0  0  0  0  0
   -1.4483   -1.7064    1.2256 C   0  0  0  0  0  0  0  0  0  0  0  0
   -1.4483   -1.7064    2.5545 C   0  0  0  0  0  0  0  0  0  0  0  0
   -1.4483   -1.9872   -1.4820 H   0  0  0  0  0  0  0  0  0  0  0  0
   -1.4483   -3.8353   -1.4858 H   0  0  0  0  0  0  0  0  0  0  0  0
   -1.4483   -3.8587    0.9469 H   0  0  0  0  0  0  0  0  0  0  0  0
   -1.4483   -0.5725    0.5817 H   0  0  0  0  0  0  0  0  0  0  0  0
   -1.4483   -2.6330    3.1179 H   0  0  0  0  0  0  0  0  0  0  0  0
   -1.4483   -0.7849    3.1217 H   0  0  0  0  0  0  0  0  0  0  0  0
   -1.4483    0.5654   -0.0645 C   0  0  0  0  0  0  0  0  0  0  0  0
   -0.0476    1.0411   -0.3347 C   0  0  0  0  0  0  0  0  0  0  0  0
    1.0465    0.2181   -0.0859 C   0  0  0  0  0  3  0  0  0  0  0  0
    2.3405    0.6645   -0.3055 C   0  0  0  0  0  0  0  0  0  0  0  0
    2.5634    1.9475   -0.7814 C   0  0  0  0  0  0  0  0  0  0  0  0
    1.4821    2.7769   -1.0368 C   0  0  0  0  0  0  0  0  0  0  0  0
    0.1902    2.3251   -0.8154 C   0  0  0  0  0  0  0  0  0  0  0  0
   -2.1656    1.0444   -0.7319 H   0  0  0  0  0  0  0  0  0  0  0  0
   -1.7453    0.7997    0.9609 H   0  0  0  0  0  0  0  0  0  0  0  0
    0.8820   -0.7881    0.2830 H   0  0  0  0  0  0  0  0  0  0  0  0
    3.1774    0.0064   -0.1071 H   0  0  0  0  0  0  0  0  0  0  0  0
    3.5729    2.2973   -0.9561 H   0  0  0  0  0  0  0  0  0  0  0  0
    1.6441    3.7793   -1.4132 H   0  0  0  0  0  0  0  0  0  0  0  0
   -0.6492    2.9797   -1.0214 H   0  0  0  0  0  0  0  0  0  0  0  0
  1  2  2  3
  1  5  1  0
  1  6  1  0
  2  3  1  0
  2  7  1  0
  3  4  2  3
  3  8  1  0
  4  9  1  0
  4 10  1  0
 11 12  2  3
 11 18  1  0
 11 19  1  0
 12 13  1  0
 12 17  1  0
 13 14  1  0
 13 20  1  0
 14 15  2  0
 14 21  1  0
 15 16  1  0
 15 22  1  0
 16 17  2  0
 16 23  1  0
 17 24  1  0
M  RAD  1  13   2
M  END
>  <reaction>  (10) 
rxn_1661

>  <mol_properties>  (10) 
{"1": {"label": "*4", "atom_type": "Cd"}, "2": {"label": "*3", "atom_type": "Cd"}, "7": {"label": "*2", "atom_type": "H0"}, "10": {"label": "*1", "atom_type": "Cs"}, "11": {"label": "*0", "atom_type": "Cd"}}

>  <type>  (10) 
unop_6

>  <geom_source>  (10) 
Heuristics

$$$$

     RDKit          3D

 24 23  0  0  0  0  0  0  0  0999 V2000
   -1.2443   -3.2699   -1.5460 C   0  0  0  0  0  0  0  0  0  0  0  0
   -1.2443   -3.2699   -0.2172 C   0  0  0  0  0  0  0  0  0  0  0  0
   -1.2443   -2.0626    0.5981 C   0  0  0  0  0  0  0  0  0  0  0  0
   -1.2443   -2.0626    1.9270 C   0  0  0  0  0  0  0  0  0  0  0  0
   -1.2443   -2.3433   -2.1095 H   0  0  0  0  0  0  0  0  0  0  0  0
   -1.2443   -4.1914   -2.1132 H   0  0  0  0  0  0  0  0  0  0  0  0
   -1.2443   -4.2148    0.3195 H   0  0  0  0  0  0  0  0  0  0  0  0
   -1.2443   -0.9287   -0.0458 H   0  0  0  0  0  0  0  0  0  0  0  0
   -1.2443   -2.9892    2.4905 H   0  0  0  0  0  0  0  0  0  0  0  0
   -1.2443   -1.1410    2.4942 H   0  0  0  0  0  0  0  0  0  0  0  0
   -1.2443    0.2093   -0.6920 C   0  0  0  0  0  0  0  0  0  0  0  0
   -0.0313    1.0308   -0.3532 C   0  0  0  0  0  0  0  0  0  0  0  0
    1.0159    0.4873    0.3846 C   0  0  0  0  0  3  0  0  0  0  0  0
    2.1219    1.2511    0.7243 C   0  0  0  0  0  0  0  0  0  0  0  0
    2.2006    2.5776    0.3286 C   0  0  0  0  0  0  0  0  0  0  0  0
    1.1657    3.1307   -0.4099 C   0  0  0  0  0  0  0  0  0  0  0  0
    0.0621    2.3622   -0.7467 C   0  0  0  0  0  0  0  0  0  0  0  0
   -1.6987    0.5396   -1.6267 H   0  0  0  0  0  0  0  0  0  0  0  0
   -2.0017    0.2966    0.0912 H   0  0  0  0  0  0  0  0  0  0  0  0
    0.9650   -0.5502    0.6955 H   0  0  0  0  0  0  0  0  0  0  0  0
    2.9265    0.8072    1.2974 H   0  0  0  0  0  0  0  0  0  0  0  0
    3.0645    3.1751    0.5906 H   0  0  0  0  0  0  0  0  0  0  0  0
    1.2187    4.1645   -0.7284 H   0  0  0  0  0  0  0  0  0  0  0  0
   -0.7405    2.8026   -1.3276 H   0  0  0  0  0  0  0  0  0  0  0  0
  1  2  2  3
  1  5  1  0
  1  6  1  0
  2  3  1  0
  2  7  1  0
  3  4  2  3
  3  8  1  0
  4  9  1  0
  4 10  1  0
 11 12  2  3
 11 18  1  0
 11 19  1  0
 12 13  1  0
 12 17  1  0
 13 14  1  0
 13 20  1  0
 14 15  2  0
 14 21  1  0
 15 16  1  0
 15 22  1  0
 16 17  2  0
 16 23  1  0
 17 24  1  0
M  RAD  1  13   2
M  END
>  <reaction>  (11) 
rxn_1661

>  <mol_properties>  (11) 
{"1": {"label": "*4", "atom_type": "Cd"}, "2": {"label": "*3", "atom_type": "Cd"}, "7": {"label": "*2", "atom_type": "H0"}, "10": {"label": "*1", "atom_type": "Cs"}, "11": {"label": "*0", "atom_type": "Cd"}}

>  <type>  (11) 
unop_7

>  <geom_source>  (11) 
Heuristics

$$$$

     RDKit          3D

 24 23  0  0  0  0  0  0  0  0999 V2000
    1.4420   -2.9174   -0.8922 C   0  0  0  0  0  0  0  0  0  0  0  0
    1.4420   -2.9174    0.4367 C   0  0  0  0  0  0  0  0  0  0  0  0
    1.4420   -1.7100    1.2520 C   0  0  0  0  0  0  0  0  0  0  0  0
    1.4420   -1.7100    2.5809 C   0  0  0  0  0  0  0  0  0  0  0  0
    1.4420   -1.9908   -1.4556 H   0  0  0  0  0  0  0  0  0  0  0  0
    1.4420   -3.8389   -1.4594 H   0  0  0  0  0  0  0  0  0  0  0  0
    1.4420   -3.8623    0.9733 H   0  0  0  0  0  0  0  0  0  0  0  0
    1.4420   -0.5761    0.6081 H   0  0  0  0  0  0  0  0  0  0  0  0
    1.4420   -2.6366    3.1443 H   0  0  0  0  0  0  0  0  0  0  0  0
    1.4420   -0.7885    3.1481 H   0  0  0  0  0  0  0  0  0  0  0  0
    1.4420    0.5618   -0.0382 C   0  0  0  0  0  0  0  0  0  0  0  0
    0.0413    1.0375   -0.3083 C   0  0  0  0  0  0  0  0  0  0  0  0
   -0.7755    0.3731   -1.2180 C   0  0  0  0  0  3  0  0  0  0  0  0
   -2.0566    0.8269   -1.4916 C   0  0  0  0  0  0  0  0  0  0  0  0
   -2.5456    1.9577   -0.8557 C   0  0  0  0  0  0  0  0  0  0  0  0
   -1.7435    2.6273    0.0557 C   0  0  0  0  0  0  0  0  0  0  0  0
   -0.4633    2.1690    0.3253 C   0  0  0  0  0  0  0  0  0  0  0  0
    1.7568    0.8107    0.9758 H   0  0  0  0  0  0  0  0  0  0  0  0
    2.1493    1.0308   -0.7270 H   0  0  0  0  0  0  0  0  0  0  0  0
   -0.4031   -0.5143   -1.7176 H   0  0  0  0  0  0  0  0  0  0  0  0
   -2.6760    0.2931   -2.2017 H   0  0  0  0  0  0  0  0  0  0  0  0
   -3.5467    2.3123   -1.0658 H   0  0  0  0  0  0  0  0  0  0  0  0
   -2.1169    3.5090    0.5619 H   0  0  0  0  0  0  0  0  0  0  0  0
    0.1553    2.6973    1.0422 H   0  0  0  0  0  0  0  0  0  0  0  0
  1  2  2  3
  1  5  1  0
  1  6  1  0
  2  3  1  0
  2  7  1  0
  3  4  2  3
  3  8  1  0
  4  9  1  0
  4 10  1  0
 11 12  2  3
 11 18  1  0
 11 19  1  0
 12 13  1  0
 12 17  1  0
 13 14  1  0
 13 20  1  0
 14 15  2  0
 14 21  1  0
 15 16  1  0
 15 22  1  0
 16 17  2  0
 16 23  1  0
 17 24  1  0
M  RAD  1  13   2
M  END
>  <reaction>  (12) 
rxn_1661

>  <mol_properties>  (12) 
{"1": {"label": "*4", "atom_type": "Cd"}, "2": {"label": "*3", "atom_type": "Cd"}, "7": {"label": "*2", "atom_type": "H0"}, "10": {"label": "*1", "atom_type": "Cs"}, "11": {"label": "*0", "atom_type": "Cd"}}

>  <type>  (12) 
unop_8

>  <geom_source>  (12) 
Heuristics

$$$$

     RDKit          3D

 24 23  0  0  0  0  0  0  0  0999 V2000
   -0.7381   -2.2957    0.1831 C   0  0  0  0  0  0  0  0  0  0  0  0
   -0.7381   -2.2957    1.5120 C   0  0  0  0  0  0  0  0  0  0  0  0
   -0.7381   -1.0884    2.3273 C   0  0  0  0  0  0  0  0  0  0  0  0
   -0.7381   -1.0884    3.6562 C   0  0  0  0  0  0  0  0  0  0  0  0
   -0.7381   -1.3691   -0.3803 H   0  0  0  0  0  0  0  0  0  0  0  0
   -0.7381   -3.2172   -0.3841 H   0  0  0  0  0  0  0  0  0  0  0  0
   -0.7381   -3.2406    2.0486 H   0  0  0  0  0  0  0  0  0  0  0  0
   -0.7381    0.0456    1.6834 H   0  0  0  0  0  0  0  0  0  0  0  0
   -0.7381   -2.0150    4.2196 H   0  0  0  0  0  0  0  0  0  0  0  0
   -0.7381   -0.1668    4.2234 H   0  0  0  0  0  0  0  0  0  0  0  0
   -0.7381    1.1835    1.0371 C   0  0  0  0  0  0  0  0  0  0  0  0
   -0.0377    1.0602   -0.2878 C   0  0  0  0  0  0  0  0  0  0  0  0
    0.7249   -0.0637   -0.5905 C   0  0  0  0  0  3  0  0  0  0  0  0
    1.3963   -0.1668   -1.7990 C   0  0  0  0  0  0  0  0  0  0  0  0
    1.3146    0.8567   -2.7308 C   0  0  0  0  0  0  0  0  0  0  0  0
    0.5553    1.9806   -2.4434 C   0  0  0  0  0  0  0  0  0  0  0  0
   -0.1139    2.0783   -1.2332 C   0  0  0  0  0  0  0  0  0  0  0  0
   -1.6403    1.7904    0.9540 H   0  0  0  0  0  0  0  0  0  0  0  0
   -0.0879    1.6597    1.7755 H   0  0  0  0  0  0  0  0  0  0  0  0
    0.7918   -0.8708    0.1304 H   0  0  0  0  0  0  0  0  0  0  0  0
    1.9826   -1.0514   -2.0148 H   0  0  0  0  0  0  0  0  0  0  0  0
    1.8359    0.7771   -3.6763 H   0  0  0  0  0  0  0  0  0  0  0  0
    0.4806    2.7841   -3.1657 H   0  0  0  0  0  0  0  0  0  0  0  0
   -0.7082    2.9596   -1.0190 H   0  0  0  0  0  0  0  0  0  0  0  0
  1  2  2  3
  1  5  1  0
  1  6  1  0
  2  3  1  0
  2  7  1  0
  3  4  2  3
  3  8  1  0
  4  9  1  0
  4 10  1  0
 11 12  2  3
 11 18  1  0
 11 19  1  0
 12 13  1  0
 12 17  1  0
 13 14  1  0
 13 20  1  0
 14 15  2  0
 14 21  1  0
 15 16  1  0
 15 22  1  0
 16 17  2  0
 16 23  1  0
 17 24  1  0
M  RAD  1  13   2
M  END
>  <reaction>  (13) 
rxn_1661

>  <mol_properties>  (13) 
{"1": {"label": "*4", "atom_type": "Cd"}, "2": {"label": "*3", "atom_type": "Cd"}, "7": {"label": "*2", "atom_type": "H0"}, "10": {"label": "*1", "atom_type": "Cs"}, "11": {"label": "*0", "atom_type": "Cd"}}

>  <type>  (13) 
unop_9

>  <geom_source>  (13) 
Heuristics

$$$$

     RDKit          3D

 24 23  0  0  0  0  0  0  0  0999 V2000
    1.2470   -2.5600   -0.2635 C   0  0  0  0  0  0  0  0  0  0  0  0
    1.2470   -2.5600    1.0654 C   0  0  0  0  0  0  0  0  0  0  0  0
    1.2470   -1.3526    1.8807 C   0  0  0  0  0  0  0  0  0  0  0  0
    1.2470   -1.3526    3.2096 C   0  0  0  0  0  0  0  0  0  0  0  0
    1.2470   -1.6334   -0.8269 H   0  0  0  0  0  0  0  0  0  0  0  0
    1.2470   -3.4815   -0.8307 H   0  0  0  0  0  0  0  0  0  0  0  0
    1.2470   -3.5049    1.6020 H   0  0  0  0  0  0  0  0  0  0  0  0
    1.2470   -0.2187    1.2368 H   0  0  0  0  0  0  0  0  0  0  0  0
    1.2470   -2.2792    3.7730 H   0  0  0  0  0  0  0  0  0  0  0  0
    1.2470   -0.4311    3.7768 H   0  0  0  0  0  0  0  0  0  0  0  0
    1.2470    0.9192    0.5905 C   0  0  0  0  0  0  0  0  0  0  0  0
    0.0339    1.0491   -0.2886 C   0  0  0  0  0  0  0  0  0  0  0  0
   -0.1922    0.1544   -1.3301 C   0  0  0  0  0  3  0  0  0  0  0  0
   -1.2937    0.2894   -2.1610 C   0  0  0  0  0  0  0  0  0  0  0  0
   -2.1931    1.3258   -1.9626 C   0  0  0  0  0  0  0  0  0  0  0  0
   -1.9815    2.2224   -0.9264 C   0  0  0  0  0  0  0  0  0  0  0  0
   -0.8784    2.0825   -0.0986 C   0  0  0  0  0  0  0  0  0  0  0  0
    1.0543    1.3054    1.5920 H   0  0  0  0  0  0  0  0  0  0  0  0
    2.0869    1.4827    0.1763 H   0  0  0  0  0  0  0  0  0  0  0  0
    0.5036   -0.6614   -1.4908 H   0  0  0  0  0  0  0  0  0  0  0  0
   -1.4515   -0.4196   -2.9643 H   0  0  0  0  0  0  0  0  0  0  0  0
   -3.0553    1.4316   -2.6087 H   0  0  0  0  0  0  0  0  0  0  0  0
   -2.6801    3.0329   -0.7592 H   0  0  0  0  0  0  0  0  0  0  0  0
   -0.7233    2.7864    0.7114 H   0  0  0  0  0  0  0  0  0  0  0  0
  1  2  2  3
  1  5  1  0
  1  6  1  0
  2  3  1  0
  2  7  1  0
  3  4  2  3
  3  8  1  0
  4  9  1  0
  4 10  1  0
 11 12  2  3
 11 18  1  0
 11 19  1  0
 12 13  1  0
 12 17  1  0
 13 14  1  0
 13 20  1  0
 14 15  2  0
 14 21  1  0
 15 16  1  0
 15 22  1  0
 16 17  2  0
 16 23  1  0
 17 24  1  0
M  RAD  1  13   2
M  END
>  <reaction>  (14) 
rxn_1661

>  <mol_properties>  (14) 
{"1": {"label": "*4", "atom_type": "Cd"}, "2": {"label": "*3", "atom_type": "Cd"}, "7": {"label": "*2", "atom_type": "H0"}, "10": {"label": "*1", "atom_type": "Cs"}, "11": {"label": "*0", "atom_type": "Cd"}}

>  <type>  (14) 
unop_10

>  <geom_source>  (14) 
Heuristics

$$$$

     RDKit          3D

 24 23  0  0  0  0  0  0  0  0999 V2000
   -0.7069   -3.5303   -1.9975 C   0  0  0  0  0  0  0  0  0  0  0  0
   -0.7069   -3.5303   -0.6687 C   0  0  0  0  0  0  0  0  0  0  0  0
   -0.7069   -2.3230    0.1466 C   0  0  0  0  0  0  0  0  0  0  0  0
   -0.7069   -2.3230    1.4755 C   0  0  0  0  0  0  0  0  0  0  0  0
   -0.7069   -2.6037   -2.5610 H   0  0  0  0  0  0  0  0  0  0  0  0
   -0.7069   -4.4519   -2.5647 H   0  0  0  0  0  0  0  0  0  0  0  0
   -0.7069   -4.4752   -0.1320 H   0  0  0  0  0  0  0  0  0  0  0  0
   -0.7069   -1.1891   -0.4973 H   0  0  0  0  0  0  0  0  0  0  0  0
   -0.7069   -3.2496    2.0390 H   0  0  0  0  0  0  0  0  0  0  0  0
   -0.7069   -1.4014    2.0427 H   0  0  0  0  0  0  0  0  0  0  0  0
   -0.7069   -0.0511   -1.1435 C   0  0  0  0  0  0  0  0  0  0  0  0
   -0.0066    1.0236   -0.3589 C   0  0  0  0  0  0  0  0  0  0  0  0
    0.5205    0.7590    0.9015 C   0  0  0  0  0  3  0  0  0  0  0  0
    1.1401    1.7553    1.6399 C   0  0  0  0  0  0  0  0  0  0  0  0
    1.2450    3.0393    1.1273 C   0  0  0  0  0  0  0  0  0  0  0  0
    0.7271    3.3158   -0.1287 C   0  0  0  0  0  0  0  0  0  0  0  0
    0.1086    2.3155   -0.8627 C   0  0  0  0  0  0  0  0  0  0  0  0
   -0.6089    0.1137   -2.2171 H   0  0  0  0  0  0  0  0  0  0  0  0
   -1.7743   -0.0679   -0.9091 H   0  0  0  0  0  0  0  0  0  0  0  0
    0.4465   -0.2429    1.3092 H   0  0  0  0  0  0  0  0  0  0  0  0
    1.5452    1.5268    2.6180 H   0  0  0  0  0  0  0  0  0  0  0  0
    1.7307    3.8183    1.7012 H   0  0  0  0  0  0  0  0  0  0  0  0
    0.8076    4.3140   -0.5411 H   0  0  0  0  0  0  0  0  0  0  0  0
   -0.2901    2.5405   -1.8456 H   0  0  0  0  0  0  0  0  0  0  0  0
  1  2  2  3
  1  5  1  0
  1  6  1  0
  2  3  1  0
  2  7  1  0
  3  4  2  3
  3  8  1  0
  4  9  1  0
  4 10  1  0
 11 12  2  3
 11 18  1  0
 11 19  1  0
 12 13  1  0
 12 17  1  0
 13 14  1  0
 13 20  1  0
 14 15  2  0
 14 21  1  0
 15 16  1  0
 15 22  1  0
 16 17  2  0
 16 23  1  0
 17 24  1  0
M  RAD  1  13   2
M  END
>  <reaction>  (15) 
rxn_1661

>  <mol_properties>  (15) 
{"1": {"label": "*4", "atom_type": "Cd"}, "2": {"label": "*3", "atom_type": "Cd"}, "7": {"label": "*2", "atom_type": "H0"}, "10": {"label": "*1", "atom_type": "Cs"}, "11": {"label": "*0", "atom_type": "Cd"}}

>  <type>  (15) 
unop_11

>  <geom_source>  (15) 
Heuristics

$$$$

     RDKit          3D

 24 23  0  0  0  0  0  0  0  0999 V2000
   -0.0137   -2.2006    0.3599 C   0  0  0  0  0  0  0  0  0  0  0  0
   -0.0137   -2.2006    1.6888 C   0  0  0  0  0  0  0  0  0  0  0  0
   -0.0137   -0.9933    2.5041 C   0  0  0  0  0  0  0  0  0  0  0  0
   -0.0137   -0.9933    3.8330 C   0  0  0  0  0  0  0  0  0  0  0  0
   -0.0137   -1.2740   -0.2035 H   0  0  0  0  0  0  0  0  0  0  0  0
   -0.0137   -3.1222   -0.2073 H   0  0  0  0  0  0  0  0  0  0  0  0
   -0.0137   -3.1456    2.2254 H   0  0  0  0  0  0  0  0  0  0  0  0
   -0.0137    0.1406    1.8601 H   0  0  0  0  0  0  0  0  0  0  0  0
   -0.0137   -1.9199    4.3964 H   0  0  0  0  0  0  0  0  0  0  0  0
   -0.0137   -0.0717    4.4002 H   0  0  0  0  0  0  0  0  0  0  0  0
   -0.0137    1.2786    1.2139 C   0  0  0  0  0  0  0  0  0  0  0  0
   -0.0137    1.0626   -0.2742 C   0  0  0  0  0  0  0  0  0  0  0  0
    0.5872   -0.0614   -0.8326 C   0  0  0  0  0  3  0  0  0  0  0  0
    0.6152   -0.2482   -2.2060 C   0  0  0  0  0  0  0  0  0  0  0  0
    0.0385    0.6898   -3.0485 C   0  0  0  0  0  0  0  0  0  0  0  0
   -0.5666    1.8128   -2.5051 C   0  0  0  0  0  0  0  0  0  0  0  0
   -0.5916    1.9943   -1.1310 C   0  0  0  0  0  0  0  0  0  0  0  0
   -0.8857    1.8511    1.5317 H   0  0  0  0  0  0  0  0  0  0  0  0
    0.8754    1.8334    1.5242 H   0  0  0  0  0  0  0  0  0  0  0  0
    1.0376   -0.8023   -0.1816 H   0  0  0  0  0  0  0  0  0  0  0  0
    1.0864   -1.1315   -2.6191 H   0  0  0  0  0  0  0  0  0  0  0  0
    0.0569    0.5447   -4.1212 H   0  0  0  0  0  0  0  0  0  0  0  0
   -1.0244    2.5497   -3.1534 H   0  0  0  0  0  0  0  0  0  0  0  0
   -1.0703    2.8739   -0.7152 H   0  0  0  0  0  0  0  0  0  0  0  0
  1  2  2  3
  1  5  1  0
  1  6  1  0
  2  3  1  0
  2  7  1  0
  3  4  2  3
  3  8  1  0
  4  9  1  0
  4 10  1  0
 11 12  2  3
 11 18  1  0
 11 19  1  0
 12 13  1  0
 12 17  1  0
 13 14  1  0
 13 20  1  0
 14 15  2  0
 14 21  1  0
 15 16  1  0
 15 22  1  0
 16 17  2  0
 16 23  1  0
 17 24  1  0
M  RAD  1  13   2
M  END
>  <reaction>  (16) 
rxn_1661

>  <mol_properties>  (16) 
{"1": {"label": "*4", "atom_type": "Cd"}, "2": {"label": "*3", "atom_type": "Cd"}, "7": {"label": "*2", "atom_type": "H0"}, "10": {"label": "*1", "atom_type": "Cs"}, "11": {"label": "*0", "atom_type": "Cd"}}

>  <type>  (16) 
unop_12

>  <geom_source>  (16) 
Heuristics

$$$$

     RDKit          3D

 24 23  0  0  0  0  0  0  0  0999 V2000
    0.0197   -1.4990    0.0086 C   0  0  0  0  0  0  0  0  0  0  0  0
    1.1507   -0.5269    0.1626 C   0  0  0  0  0  0  0  0  0  0  0  0
    1.8461   -0.0661   -0.9670 C   0  0  0  0  0  3  0  0  0  0  0  0
    1.4758   -0.0149    1.4291 C   0  0  0  0  0  0  0  0  0  0  0  0
    2.8750    0.8707   -0.8259 C   0  0  0  0  0  0  0  0  0  0  0  0
    2.5054    0.9218    1.5662 C   0  0  0  0  0  0  0  0  0  0  0  0
    3.2062    1.3623    0.4399 C   0  0  0  0  0  0  0  0  0  0  0  0
   -2.8783    0.5955   -0.5463 C   0  0  0  0  0  0  0  0  0  0  0  0
   -2.4544    1.7422   -0.0277 C   0  0  0  0  0  0  0  0  0  0  0  0
   -2.8339   -1.8475   -0.4821 C   0  0  0  0  0  0  0  0  0  0  0  0
   -2.4287   -0.6838    0.0134 C   0  0  0  0  0  0  0  0  0  0  0  0
   -0.0803   -2.1314    0.9164 H   0  0  0  0  0  0  0  0  0  0  0  0
    0.1942   -2.1693   -0.8599 H   0  0  0  0  0  0  0  0  0  0  0  0
   -1.1789   -0.7881   -0.1919 H   0  0  0  0  0  0  0  0  0  0  0  0
    1.5927   -0.4316   -1.9545 H   0  0  0  0  0  0  0  0  0  0  0  0
    0.9339   -0.3407    2.3085 H   0  0  0  0  0  0  0  0  0  0  0  0
    3.4129    1.2186   -1.6984 H   0  0  0  0  0  0  0  0  0  0  0  0
    2.7571    1.3091    2.5450 H   0  0  0  0  0  0  0  0  0  0  0  0
    4.0017    2.0883    0.5474 H   0  0  0  0  0  0  0  0  0  0  0  0
   -3.5605    0.6131   -1.3883 H   0  0  0  0  0  0  0  0  0  0  0  0
   -1.7724    1.7568    0.8139 H   0  0  0  0  0  0  0  0  0  0  0  0
   -2.7902    2.6824   -0.4457 H   0  0  0  0  0  0  0  0  0  0  0  0
   -3.5152   -1.8935   -1.3228 H   0  0  0  0  0  0  0  0  0  0  0  0
   -2.4786   -2.7682   -0.0402 H   0  0  0  0  0  0  0  0  0  0  0  0
  1  2  2  3
  1 12  1  0
  1 13  1  0
  2  3  1  0
  2  4  1  0
  3  5  1  0
  3 15  1  0
  4  6  2  0
  4 16  1  0
  5  7  2  0
  5 17  1  0
  6  7  1  0
  6 18  1  0
  7 19  1  0
  8  9  2  3
  8 11  1  0
  8 20  1  0
  9 21  1  0
  9 22  1  0
 10 11  2  3
 10 23  1  0
 10 24  1  0
 11 14  1  0
M  RAD  1   3   2
M  END
>  <reaction>  (17) 
rxn_1661

>  <mol_properties>  (17) 
{"1": {"label": "*4", "atom_type": "Cd"}, "2": {"label": "*3", "atom_type": "Cd"}, "7": {"label": "*2", "atom_type": "H0"}, "10": {"label": "*1", "atom_type": "Cs"}, "11": {"label": "*0", "atom_type": "Cd"}}

>  <type>  (17) 
unop_13

>  <geom_source>  (17) 
AutoTST

$$$$
