
     RDKit          3D

 18 18  0  0  0  0  0  0  0  0999 V2000
   -2.4852    0.3210   -0.3966 C   0  0  0  0  0  0  0  0  0  0  0  0
   -1.5917   -0.2708    0.6941 C   0  0  0  0  0  0  0  0  0  0  0  0
   -0.1292   -0.1692    0.3493 C   0  0  0  0  0  0  0  0  0  0  0  0
    0.6099    0.9558    0.7015 C   0  0  0  0  0  0  0  0  0  0  0  0
    1.9447    1.0728    0.3458 C   0  0  0  0  0  0  0  0  0  0  0  0
    2.5646    0.0613   -0.3720 C   0  0  0  0  0  0  0  0  0  0  0  0
    1.8399   -1.0657   -0.7287 C   0  0  0  0  0  0  0  0  0  0  0  0
    0.5055   -1.1769   -0.3700 C   0  0  0  0  0  0  0  0  0  0  0  0
   -2.3325   -0.1971   -1.3452 H   0  0  0  0  0  0  0  0  0  0  0  0
   -2.2554    1.3763   -0.5546 H   0  0  0  0  0  0  0  0  0  0  0  0
   -3.5397    0.2376   -0.1280 H   0  0  0  0  0  0  0  0  0  0  0  0
   -1.7801    0.2462    1.6380 H   0  0  0  0  0  0  0  0  0  0  0  0
   -1.8568   -1.3190    0.8516 H   0  0  0  0  0  0  0  0  0  0  0  0
    0.1327    1.7497    1.2656 H   0  0  0  0  0  0  0  0  0  0  0  0
    2.5033    1.9550    0.6330 H   0  0  0  0  0  0  0  0  0  0  0  0
    3.6077    0.1491   -0.6484 H   0  0  0  0  0  0  0  0  0  0  0  0
    2.3163   -1.8632   -1.2854 H   0  0  0  0  0  0  0  0  0  0  0  0
   -0.0540   -2.0629   -0.6500 H   0  0  0  0  0  0  0  0  0  0  0  0
  1  2  1  0
  1  9  1  0
  1 10  1  0
  1 11  1  0
  2  3  1  0
  2 12  1  0
  2 13  1  0
  3  4  2  0
  3  8  1  0
  4  5  1  0
  4 14  1  0
  5  6  2  0
  5 15  1  0
  6  7  1  0
  6 16  1  0
  7  8  2  0
  7 17  1  0
  8 18  1  0
M  END
>  <reaction>  (1) 
rxn_1517

>  <mol_properties>  (1) 
{"1": {"label": "donator", "atom_type": "Cs"}, "11": {"label": "d_hydrogen", "atom_type": "H0"}}

>  <type>  (1) 
r1h

$$$$

     RDKit          3D

  6  5  0  0  0  0  0  0  0  0999 V2000
   -0.5021    0.1249    0.0385 C   0  0  0  0  0  0  0  0  0  0  0  0
    0.9529    0.0892    0.2312 C   0  0  0  0  0  3  0  0  0  0  0  0
    2.1986   -0.6844   -0.2970 S   0  0  0  0  0  0  0  0  0  0  0  0
   -0.8582   -0.6036   -0.6965 H   0  0  0  0  0  0  0  0  0  0  0  0
   -0.7969    1.1299   -0.2736 H   0  0  0  0  0  0  0  0  0  0  0  0
   -0.9943   -0.0559    0.9974 H   0  0  0  0  0  0  0  0  0  0  0  0
  1  2  1  0
  1  4  1  0
  1  5  1  0
  1  6  1  0
  2  3  2  0
M  RAD  1   2   2
M  END
>  <reaction>  (2) 
rxn_1517

>  <mol_properties>  (2) 
{"1": {"label": "acceptor", "atom_type": "CS"}}

>  <type>  (2) 
r2

$$$$

     RDKit          3D

  7  6  0  0  0  0  0  0  0  0999 V2000
   -0.6782    0.0507    0.0301 C   0  0  0  0  0  0  0  0  0  0  0  0
    0.8092    0.0996    0.0213 C   0  0  0  0  0  0  0  0  0  0  0  0
    1.7473    0.7521    1.1507 S   0  0  0  0  0  0  0  0  0  0  0  0
   -1.0667    0.5456   -0.8653 H   0  0  0  0  0  0  0  0  0  0  0  0
   -1.0112   -0.9904   -0.0239 H   0  0  0  0  0  0  0  0  0  0  0  0
   -1.0920    0.5225    0.9188 H   0  0  0  0  0  0  0  0  0  0  0  0
    1.2740   -0.3620   -0.8520 H   0  0  0  0  0  0  0  0  0  0  0  0
  1  2  1  0
  1  4  1  0
  1  5  1  0
  1  6  1  0
  2  3  2  0
  2  7  1  0
M  END
>  <reaction>  (3) 
rxn_1517

>  <mol_properties>  (3) 
{"0": {"label": "a_hydrogen", "atom_type": "H0"}, "2": {"label": "acceptor", "atom_type": "CS"}}

>  <type>  (3) 
r2h

$$$$

     RDKit          3D

 24 23  0  0  0  0  0  0  0  0999 V2000
    0.7175   -0.7962   -2.7629 C   0  0  0  0  0  0  0  0  0  0  0  0
    0.9363   -0.5964   -1.2852 C   0  0  0  0  0  0  0  0  0  0  0  0
    0.7371    0.7325   -0.6871 C   0  0  0  0  0  0  0  0  0  0  0  0
   -0.1187    1.6833   -1.2506 C   0  0  0  0  0  0  0  0  0  0  0  0
   -0.3566    2.8929   -0.6175 C   0  0  0  0  0  0  0  0  0  0  0  0
    0.2526    3.1846    0.5935 C   0  0  0  0  0  0  0  0  0  0  0  0
    1.1103    2.2536    1.1646 C   0  0  0  0  0  0  0  0  0  0  0  0
    1.3472    1.0467    0.5327 C   0  0  0  0  0  0  0  0  0  0  0  0
    1.3862   -0.1641   -3.3550 H   0  0  0  0  0  0  0  0  0  0  0  0
   -0.3079   -0.5630   -3.0571 H   0  0  0  0  0  0  0  0  0  0  0  0
    0.8998   -1.8353   -3.0369 H   0  0  0  0  0  0  0  0  0  0  0  0
   -0.0191   -1.3499   -0.7391 H   0  0  0  0  0  0  0  0  0  0  0  0
    1.8303   -1.0932   -0.9084 H   0  0  0  0  0  0  0  0  0  0  0  0
   -0.6051    1.4767   -2.1954 H   0  0  0  0  0  0  0  0  0  0  0  0
   -1.0228    3.6138   -1.0752 H   0  0  0  0  0  0  0  0  0  0  0  0
    0.0661    4.1304    1.0858 H   0  0  0  0  0  0  0  0  0  0  0  0
    1.5985    2.4725    2.1063 H   0  0  0  0  0  0  0  0  0  0  0  0
    2.0182    0.3255    0.9863 H   0  0  0  0  0  0  0  0  0  0  0  0
   -1.5470   -1.2568    0.9972 C   0  0  0  0  0  0  0  0  0  0  0  0
   -1.1598   -1.9404   -0.2566 C   0  0  0  0  0  3  0  0  0  0  0  0
   -1.8983   -3.0265   -1.1439 S   0  0  0  0  0  0  0  0  0  0  0  0
   -2.5043   -1.6047    1.3867 H   0  0  0  0  0  0  0  0  0  0  0  0
   -1.5875   -0.1788    0.8121 H   0  0  0  0  0  0  0  0  0  0  0  0
   -0.7635   -1.4020    1.7462 H   0  0  0  0  0  0  0  0  0  0  0  0
  1  2  1  0
  1  9  1  0
  1 10  1  0
  1 11  1  0
  2  3  1  0
  2 12  1  0
  2 13  1  0
  3  4  2  0
  3  8  1  0
  4  5  1  0
  4 14  1  0
  5  6  2  0
  5 15  1  0
  6  7  1  0
  6 16  1  0
  7  8  2  0
  7 17  1  0
  8 18  1  0
 19 20  1  0
 19 22  1  0
 19 23  1  0
 19 24  1  0
 20 21  2  0
M  RAD  1  20   2
M  END
>  <reaction>  (4) 
rxn_1517

>  <mol_properties>  (4) 
{"1": {"label": "*1", "atom_type": "Cs"}, "2": {"label": "*0", "atom_type": "Cd"}, "11": {"label": "*2", "atom_type": "H0"}, "19": {"label": "*3", "atom_type": "CS"}, "20": {"label": "*4", "atom_type": "S2d"}}

>  <type>  (4) 
ts

$$$$

     RDKit          3D

 24 23  0  0  0  0  0  0  0  0999 V2000
    0.9479   -0.9028   -2.3286 C   0  0  0  0  0  0  0  0  0  0  0  0
    0.9479   -0.9028   -0.7995 C   0  0  0  0  0  0  0  0  0  0  0  0
    0.9479    0.4915   -0.2301 C   0  0  0  0  0  0  0  0  0  0  0  0
   -0.2466    1.1604    0.0177 C   0  0  0  0  0  3  0  0  0  0  0  0
   -0.2499    2.4606    0.4986 C   0  0  0  0  0  0  0  0  0  0  0  0
    0.9479    3.1160    0.7404 C   0  0  0  0  0  0  0  0  0  0  0  0
    2.1458    2.4606    0.4986 C   0  0  0  0  0  0  0  0  0  0  0  0
    2.1425    1.1604    0.0177 C   0  0  0  0  0  0  0  0  0  0  0  0
    1.8292   -0.3878   -2.7154 H   0  0  0  0  0  0  0  0  0  0  0  0
    0.0667   -0.3878   -2.7154 H   0  0  0  0  0  0  0  0  0  0  0  0
    0.9479   -1.9212   -2.7209 H   0  0  0  0  0  0  0  0  0  0  0  0
   -0.1040   -1.5528   -0.3637 H   0  0  0  0  0  0  0  0  0  0  0  0
    1.8246   -1.4445   -0.4363 H   0  0  0  0  0  0  0  0  0  0  0  0
   -1.1875    0.6532   -0.1661 H   0  0  0  0  0  0  0  0  0  0  0  0
   -1.1906    2.9623    0.6885 H   0  0  0  0  0  0  0  0  0  0  0  0
    0.9479    4.1303    1.1188 H   0  0  0  0  0  0  0  0  0  0  0  0
    3.0865    2.9623    0.6885 H   0  0  0  0  0  0  0  0  0  0  0  0
    3.0834    0.6532   -0.1661 H   0  0  0  0  0  0  0  0  0  0  0  0
   -0.8449   -3.3881    0.9157 C   0  0  0  0  0  0  0  0  0  0  0  0
   -1.1551   -2.2023    0.0717 C   0  0  0  0  0  0  0  0  0  0  0  0
   -2.3183   -1.1253    0.3330 S   0  0  0  0  0  0  0  0  0  0  0  0
   -1.5143   -3.4610    1.7702 H   0  0  0  0  0  0  0  0  0  0  0  0
    0.1914   -3.3304    1.2626 H   0  0  0  0  0  0  0  0  0  0  0  0
   -0.9177   -4.2976    0.3113 H   0  0  0  0  0  0  0  0  0  0  0  0
  1  2  1  0
  1  9  1  0
  1 10  1  0
  1 11  1  0
  2  3  2  3
  2 13  1  0
  3  4  1  0
  3  8  1  0
  4  5  1  0
  4 14  1  0
  5  6  2  0
  5 15  1  0
  6  7  1  0
  6 16  1  0
  7  8  2  0
  7 17  1  0
  8 18  1  0
 12 20  1  0
 19 20  1  0
 19 22  1  0
 19 23  1  0
 19 24  1  0
 20 21  2  0
M  RAD  1   4   2
M  END
>  <reaction>  (5) 
rxn_1517

>  <mol_properties>  (5) 
{"1": {"label": "*1", "atom_type": "Cs"}, "2": {"label": "*0", "atom_type": "Cd"}, "11": {"label": "*2", "atom_type": "H0"}, "19": {"label": "*3", "atom_type": "CS"}, "20": {"label": "*4", "atom_type": "S2d"}}

>  <type>  (5) 
unop_1

>  <geom_source>  (5) 
Heuristics

$$$$

     RDKit          3D

 24 23  0  0  0  0  0  0  0  0999 V2000
    0.8690   -0.7386   -2.4120 C   0  0  0  0  0  0  0  0  0  0  0  0
    0.8690   -0.7386   -0.8829 C   0  0  0  0  0  0  0  0  0  0  0  0
    0.8690    0.6557   -0.3135 C   0  0  0  0  0  0  0  0  0  0  0  0
   -0.3255    1.3247   -0.0658 C   0  0  0  0  0  3  0  0  0  0  0  0
   -0.3288    2.6249    0.4151 C   0  0  0  0  0  0  0  0  0  0  0  0
    0.8690    3.2802    0.6569 C   0  0  0  0  0  0  0  0  0  0  0  0
    2.0668    2.6249    0.4151 C   0  0  0  0  0  0  0  0  0  0  0  0
    2.0635    1.3247   -0.0658 C   0  0  0  0  0  0  0  0  0  0  0  0
    1.7503   -0.2235   -2.7989 H   0  0  0  0  0  0  0  0  0  0  0  0
   -0.0123   -0.2235   -2.7989 H   0  0  0  0  0  0  0  0  0  0  0  0
    0.8690   -1.7570   -2.8044 H   0  0  0  0  0  0  0  0  0  0  0  0
   -0.1830   -1.3886   -0.4472 H   0  0  0  0  0  0  0  0  0  0  0  0
    1.7456   -1.2802   -0.5198 H   0  0  0  0  0  0  0  0  0  0  0  0
   -1.2664    0.8175   -0.2495 H   0  0  0  0  0  0  0  0  0  0  0  0
   -1.2696    3.1266    0.6050 H   0  0  0  0  0  0  0  0  0  0  0  0
    0.8690    4.2946    1.0353 H   0  0  0  0  0  0  0  0  0  0  0  0
    3.0076    3.1266    0.6050 H   0  0  0  0  0  0  0  0  0  0  0  0
    3.0044    0.8175   -0.2495 H   0  0  0  0  0  0  0  0  0  0  0  0
   -1.7068   -3.1254   -0.9110 C   0  0  0  0  0  0  0  0  0  0  0  0
   -1.2340   -2.0380   -0.0118 C   0  0  0  0  0  0  0  0  0  0  0  0
   -1.6023   -1.8593    1.5418 S   0  0  0  0  0  0  0  0  0  0  0  0
   -2.3588   -3.8240   -0.3909 H   0  0  0  0  0  0  0  0  0  0  0  0
   -0.8459   -3.6610   -1.3229 H   0  0  0  0  0  0  0  0  0  0  0  0
   -2.2370   -2.6912   -1.7643 H   0  0  0  0  0  0  0  0  0  0  0  0
  1  2  1  0
  1  9  1  0
  1 10  1  0
  1 11  1  0
  2  3  2  3
  2 13  1  0
  3  4  1  0
  3  8  1  0
  4  5  1  0
  4 14  1  0
  5  6  2  0
  5 15  1  0
  6  7  1  0
  6 16  1  0
  7  8  2  0
  7 17  1  0
  8 18  1  0
 12 20  1  0
 19 20  1  0
 19 22  1  0
 19 23  1  0
 19 24  1  0
 20 21  2  0
M  RAD  1   4   2
M  END
>  <reaction>  (6) 
rxn_1517

>  <mol_properties>  (6) 
{"1": {"label": "*1", "atom_type": "Cs"}, "2": {"label": "*0", "atom_type": "Cd"}, "11": {"label": "*2", "atom_type": "H0"}, "19": {"label": "*3", "atom_type": "CS"}, "20": {"label": "*4", "atom_type": "S2d"}}

>  <type>  (6) 
unop_2

>  <geom_source>  (6) 
Heuristics

$$$$

     RDKit          3D

 24 23  0  0  0  0  0  0  0  0999 V2000
    1.0002   -0.8611   -2.2132 C   0  0  0  0  0  0  0  0  0  0  0  0
    1.0002   -0.8611   -0.6841 C   0  0  0  0  0  0  0  0  0  0  0  0
    1.0002    0.5332   -0.1146 C   0  0  0  0  0  0  0  0  0  0  0  0
   -0.1944    1.2021    0.1331 C   0  0  0  0  0  3  0  0  0  0  0  0
   -0.1976    2.5023    0.6140 C   0  0  0  0  0  0  0  0  0  0  0  0
    1.0002    3.1577    0.8558 C   0  0  0  0  0  0  0  0  0  0  0  0
    2.1980    2.5023    0.6140 C   0  0  0  0  0  0  0  0  0  0  0  0
    2.1947    1.2021    0.1331 C   0  0  0  0  0  0  0  0  0  0  0  0
    1.8814   -0.3461   -2.6000 H   0  0  0  0  0  0  0  0  0  0  0  0
    0.1189   -0.3461   -2.6000 H   0  0  0  0  0  0  0  0  0  0  0  0
    1.0002   -1.8795   -2.6055 H   0  0  0  0  0  0  0  0  0  0  0  0
   -0.0518   -1.5111   -0.2483 H   0  0  0  0  0  0  0  0  0  0  0  0
    1.8768   -1.4028   -0.3209 H   0  0  0  0  0  0  0  0  0  0  0  0
   -1.1353    0.6949   -0.0507 H   0  0  0  0  0  0  0  0  0  0  0  0
   -1.1384    3.0040    0.8039 H   0  0  0  0  0  0  0  0  0  0  0  0
    1.0002    4.1720    1.2342 H   0  0  0  0  0  0  0  0  0  0  0  0
    3.1388    3.0040    0.8039 H   0  0  0  0  0  0  0  0  0  0  0  0
    3.1356    0.6949   -0.0507 H   0  0  0  0  0  0  0  0  0  0  0  0
   -0.9130   -2.8386    1.4982 C   0  0  0  0  0  0  0  0  0  0  0  0
   -1.1029   -2.1606    0.1871 C   0  0  0  0  0  0  0  0  0  0  0  0
   -2.4768   -1.5500   -0.3793 S   0  0  0  0  0  0  0  0  0  0  0  0
   -1.8396   -2.8843    2.0665 H   0  0  0  0  0  0  0  0  0  0  0  0
   -0.1505   -2.3092    2.0778 H   0  0  0  0  0  0  0  0  0  0  0  0
   -0.5296   -3.8506    1.3356 H   0  0  0  0  0  0  0  0  0  0  0  0
  1  2  1  0
  1  9  1  0
  1 10  1  0
  1 11  1  0
  2  3  2  3
  2 13  1  0
  3  4  1  0
  3  8  1  0
  4  5  1  0
  4 14  1  0
  5  6  2  0
  5 15  1  0
  6  7  1  0
  6 16  1  0
  7  8  2  0
  7 17  1  0
  8 18  1  0
 12 20  1  0
 19 20  1  0
 19 22  1  0
 19 23  1  0
 19 24  1  0
 20 21  2  0
M  RAD  1   4   2
M  END
>  <reaction>  (7) 
rxn_1517

>  <mol_properties>  (7) 
{"1": {"label": "*1", "atom_type": "Cs"}, "2": {"label": "*0", "atom_type": "Cd"}, "11": {"label": "*2", "atom_type": "H0"}, "19": {"label": "*3", "atom_type": "CS"}, "20": {"label": "*4", "atom_type": "S2d"}}

>  <type>  (7) 
unop_3

>  <geom_source>  (7) 
Heuristics

$$$$

     RDKit          3D

 24 23  0  0  0  0  0  0  0  0999 V2000
    0.8205   -0.7141   -2.4233 C   0  0  0  0  0  0  0  0  0  0  0  0
    0.8205   -0.7141   -0.8942 C   0  0  0  0  0  0  0  0  0  0  0  0
    0.8205    0.6801   -0.3248 C   0  0  0  0  0  0  0  0  0  0  0  0
   -0.3740    1.3491   -0.0770 C   0  0  0  0  0  3  0  0  0  0  0  0
   -0.3773    2.6493    0.4039 C   0  0  0  0  0  0  0  0  0  0  0  0
    0.8205    3.3046    0.6457 C   0  0  0  0  0  0  0  0  0  0  0  0
    2.0183    2.6493    0.4039 C   0  0  0  0  0  0  0  0  0  0  0  0
    2.0150    1.3491   -0.0770 C   0  0  0  0  0  0  0  0  0  0  0  0
    1.7018   -0.1991   -2.8101 H   0  0  0  0  0  0  0  0  0  0  0  0
   -0.0608   -0.1991   -2.8101 H   0  0  0  0  0  0  0  0  0  0  0  0
    0.8205   -1.7326   -2.8156 H   0  0  0  0  0  0  0  0  0  0  0  0
   -0.2315   -1.3642   -0.4584 H   0  0  0  0  0  0  0  0  0  0  0  0
    1.6971   -1.2558   -0.5311 H   0  0  0  0  0  0  0  0  0  0  0  0
   -1.3149    0.8419   -0.2608 H   0  0  0  0  0  0  0  0  0  0  0  0
   -1.3181    3.1510    0.5938 H   0  0  0  0  0  0  0  0  0  0  0  0
    0.8205    4.3190    1.0240 H   0  0  0  0  0  0  0  0  0  0  0  0
    2.9591    3.1510    0.5938 H   0  0  0  0  0  0  0  0  0  0  0  0
    2.9559    0.8419   -0.2608 H   0  0  0  0  0  0  0  0  0  0  0  0
   -2.5869   -1.4421   -0.4552 C   0  0  0  0  0  0  0  0  0  0  0  0
   -1.2826   -2.0136   -0.0230 C   0  0  0  0  0  0  0  0  0  0  0  0
   -0.9894   -2.7801    1.3582 S   0  0  0  0  0  0  0  0  0  0  0  0
   -3.3633   -1.6002    0.2904 H   0  0  0  0  0  0  0  0  0  0  0  0
   -2.8893   -1.8950   -1.4045 H   0  0  0  0  0  0  0  0  0  0  0  0
   -2.4723   -0.3708   -0.6472 H   0  0  0  0  0  0  0  0  0  0  0  0
  1  2  1  0
  1  9  1  0
  1 10  1  0
  1 11  1  0
  2  3  2  3
  2 13  1  0
  3  4  1  0
  3  8  1  0
  4  5  1  0
  4 14  1  0
  5  6  2  0
  5 15  1  0
  6  7  1  0
  6 16  1  0
  7  8  2  0
  7 17  1  0
  8 18  1  0
 12 20  1  0
 19 20  1  0
 19 22  1  0
 19 23  1  0
 19 24  1  0
 20 21  2  0
M  RAD  1   4   2
M  END
>  <reaction>  (8) 
rxn_1517

>  <mol_properties>  (8) 
{"1": {"label": "*1", "atom_type": "Cs"}, "2": {"label": "*0", "atom_type": "Cd"}, "11": {"label": "*2", "atom_type": "H0"}, "19": {"label": "*3", "atom_type": "CS"}, "20": {"label": "*4", "atom_type": "S2d"}}

>  <type>  (8) 
unop_4

>  <geom_source>  (8) 
Heuristics

$$$$

     RDKit          3D

 24 23  0  0  0  0  0  0  0  0999 V2000
    0.9614   -0.6788   -2.1330 C   0  0  0  0  0  0  0  0  0  0  0  0
    0.9614   -0.6788   -0.6039 C   0  0  0  0  0  0  0  0  0  0  0  0
    0.9614    0.7154   -0.0345 C   0  0  0  0  0  0  0  0  0  0  0  0
   -0.2332    1.3844    0.2133 C   0  0  0  0  0  3  0  0  0  0  0  0
   -0.2364    2.6846    0.6942 C   0  0  0  0  0  0  0  0  0  0  0  0
    0.9614    3.3400    0.9360 C   0  0  0  0  0  0  0  0  0  0  0  0
    2.1592    2.6846    0.6942 C   0  0  0  0  0  0  0  0  0  0  0  0
    2.1559    1.3844    0.2133 C   0  0  0  0  0  0  0  0  0  0  0  0
    1.8426   -0.1638   -2.5198 H   0  0  0  0  0  0  0  0  0  0  0  0
    0.0801   -0.1638   -2.5198 H   0  0  0  0  0  0  0  0  0  0  0  0
    0.9614   -1.6973   -2.5253 H   0  0  0  0  0  0  0  0  0  0  0  0
   -0.0906   -1.3289   -0.1681 H   0  0  0  0  0  0  0  0  0  0  0  0
    1.8380   -1.2205   -0.2407 H   0  0  0  0  0  0  0  0  0  0  0  0
   -1.1741    0.8772    0.0295 H   0  0  0  0  0  0  0  0  0  0  0  0
   -1.1772    3.1863    0.8841 H   0  0  0  0  0  0  0  0  0  0  0  0
    0.9614    4.3543    1.3144 H   0  0  0  0  0  0  0  0  0  0  0  0
    3.0999    3.1863    0.8841 H   0  0  0  0  0  0  0  0  0  0  0  0
    3.0968    0.8772    0.0295 H   0  0  0  0  0  0  0  0  0  0  0  0
   -1.2562   -2.0491    1.7493 C   0  0  0  0  0  0  0  0  0  0  0  0
   -1.1417   -1.9783    0.2673 C   0  0  0  0  0  0  0  0  0  0  0  0
   -2.1646   -2.6104   -0.7983 S   0  0  0  0  0  0  0  0  0  0  0  0
   -2.1433   -2.5972    2.0596 H   0  0  0  0  0  0  0  0  0  0  0  0
   -1.2844   -1.0366    2.1638 H   0  0  0  0  0  0  0  0  0  0  0  0
   -0.3633   -2.5273    2.1638 H   0  0  0  0  0  0  0  0  0  0  0  0
  1  2  1  0
  1  9  1  0
  1 10  1  0
  1 11  1  0
  2  3  2  3
  2 13  1  0
  3  4  1  0
  3  8  1  0
  4  5  1  0
  4 14  1  0
  5  6  2  0
  5 15  1  0
  6  7  1  0
  6 16  1  0
  7  8  2  0
  7 17  1  0
  8 18  1  0
 12 20  1  0
 19 20  1  0
 19 22  1  0
 19 23  1  0
 19 24  1  0
 20 21  2  0
M  RAD  1   4   2
M  END
>  <reaction>  (9) 
rxn_1517

>  <mol_properties>  (9) 
{"1": {"label": "*1", "atom_type": "Cs"}, "2": {"label": "*0", "atom_type": "Cd"}, "11": {"label": "*2", "atom_type": "H0"}, "19": {"label": "*3", "atom_type": "CS"}, "20": {"label": "*4", "atom_type": "S2d"}}

>  <type>  (9) 
unop_5

>  <geom_source>  (9) 
Heuristics

$$$$

     RDKit          3D

 24 23  0  0  0  0  0  0  0  0999 V2000
    0.7708   -0.6578   -2.4013 C   0  0  0  0  0  0  0  0  0  0  0  0
    0.7708   -0.6578   -0.8722 C   0  0  0  0  0  0  0  0  0  0  0  0
    0.7708    0.7365   -0.3028 C   0  0  0  0  0  0  0  0  0  0  0  0
   -0.4237    1.4054   -0.0550 C   0  0  0  0  0  3  0  0  0  0  0  0
   -0.4270    2.7056    0.4259 C   0  0  0  0  0  0  0  0  0  0  0  0
    0.7708    3.3610    0.6677 C   0  0  0  0  0  0  0  0  0  0  0  0
    1.9687    2.7056    0.4259 C   0  0  0  0  0  0  0  0  0  0  0  0
    1.9654    1.4054   -0.0550 C   0  0  0  0  0  0  0  0  0  0  0  0
    1.6521   -0.1428   -2.7881 H   0  0  0  0  0  0  0  0  0  0  0  0
   -0.1104   -0.1428   -2.7881 H   0  0  0  0  0  0  0  0  0  0  0  0
    0.7708   -1.6762   -2.7936 H   0  0  0  0  0  0  0  0  0  0  0  0
   -0.2811   -1.3078   -0.4364 H   0  0  0  0  0  0  0  0  0  0  0  0
    1.6475   -1.1995   -0.5090 H   0  0  0  0  0  0  0  0  0  0  0  0
   -1.3646    0.8982   -0.2388 H   0  0  0  0  0  0  0  0  0  0  0  0
   -1.3677    3.2073    0.6158 H   0  0  0  0  0  0  0  0  0  0  0  0
    0.7708    4.3753    1.0461 H   0  0  0  0  0  0  0  0  0  0  0  0
    2.9094    3.2073    0.6158 H   0  0  0  0  0  0  0  0  0  0  0  0
    2.9063    0.8982   -0.2388 H   0  0  0  0  0  0  0  0  0  0  0  0
   -2.5405   -1.1134    0.2049 C   0  0  0  0  0  0  0  0  0  0  0  0
   -1.3322   -1.9573   -0.0010 C   0  0  0  0  0  0  0  0  0  0  0  0
   -0.8297   -3.1497    0.9513 S   0  0  0  0  0  0  0  0  0  0  0  0
   -3.0795   -1.3941    1.1073 H   0  0  0  0  0  0  0  0  0  0  0  0
   -3.2019   -1.2021   -0.6625 H   0  0  0  0  0  0  0  0  0  0  0  0
   -2.2471   -0.0607    0.2628 H   0  0  0  0  0  0  0  0  0  0  0  0
  1  2  1  0
  1  9  1  0
  1 10  1  0
  1 11  1  0
  2  3  2  3
  2 13  1  0
  3  4  1  0
  3  8  1  0
  4  5  1  0
  4 14  1  0
  5  6  2  0
  5 15  1  0
  6  7  1  0
  6 16  1  0
  7  8  2  0
  7 17  1  0
  8 18  1  0
 12 20  1  0
 19 20  1  0
 19 22  1  0
 19 23  1  0
 19 24  1  0
 20 21  2  0
M  RAD  1   4   2
M  END
>  <reaction>  (10) 
rxn_1517

>  <mol_properties>  (10) 
{"1": {"label": "*1", "atom_type": "Cs"}, "2": {"label": "*0", "atom_type": "Cd"}, "11": {"label": "*2", "atom_type": "H0"}, "19": {"label": "*3", "atom_type": "CS"}, "20": {"label": "*4", "atom_type": "S2d"}}

>  <type>  (10) 
unop_6

>  <geom_source>  (10) 
Heuristics

$$$$

     RDKit          3D

 24 23  0  0  0  0  0  0  0  0999 V2000
    0.7550   -0.5906   -2.3286 C   0  0  0  0  0  0  0  0  0  0  0  0
    0.7550   -0.5906   -0.7995 C   0  0  0  0  0  0  0  0  0  0  0  0
    0.7550    0.8037   -0.2301 C   0  0  0  0  0  0  0  0  0  0  0  0
   -0.4395    1.4726    0.0177 C   0  0  0  0  0  3  0  0  0  0  0  0
   -0.4428    2.7728    0.4986 C   0  0  0  0  0  0  0  0  0  0  0  0
    0.7550    3.4282    0.7404 C   0  0  0  0  0  0  0  0  0  0  0  0
    1.9528    2.7728    0.4986 C   0  0  0  0  0  0  0  0  0  0  0  0
    1.9496    1.4726    0.0177 C   0  0  0  0  0  0  0  0  0  0  0  0
    1.6363   -0.0756   -2.7154 H   0  0  0  0  0  0  0  0  0  0  0  0
   -0.1262   -0.0756   -2.7154 H   0  0  0  0  0  0  0  0  0  0  0  0
    0.7550   -1.6090   -2.7209 H   0  0  0  0  0  0  0  0  0  0  0  0
   -0.2969   -1.2406   -0.3637 H   0  0  0  0  0  0  0  0  0  0  0  0
    1.6317   -1.1323   -0.4363 H   0  0  0  0  0  0  0  0  0  0  0  0
   -1.3804    0.9654   -0.1661 H   0  0  0  0  0  0  0  0  0  0  0  0
   -1.3836    3.2745    0.6885 H   0  0  0  0  0  0  0  0  0  0  0  0
    0.7550    4.4425    1.1188 H   0  0  0  0  0  0  0  0  0  0  0  0
    2.8936    3.2745    0.6885 H   0  0  0  0  0  0  0  0  0  0  0  0
    2.8905    0.9654   -0.1661 H   0  0  0  0  0  0  0  0  0  0  0  0
   -2.2698   -1.0822    0.9157 C   0  0  0  0  0  0  0  0  0  0  0  0
   -1.3480   -1.8901    0.0717 C   0  0  0  0  0  0  0  0  0  0  0  0
   -0.9052   -3.4123    0.3329 S   0  0  0  0  0  0  0  0  0  0  0  0
   -2.6344   -1.6482    1.7702 H   0  0  0  0  0  0  0  0  0  0  0  0
   -3.1157   -0.7405    0.3113 H   0  0  0  0  0  0  0  0  0  0  0  0
   -1.7545   -0.1812    1.2626 H   0  0  0  0  0  0  0  0  0  0  0  0
  1  2  1  0
  1  9  1  0
  1 10  1  0
  1 11  1  0
  2  3  2  3
  2 13  1  0
  3  4  1  0
  3  8  1  0
  4  5  1  0
  4 14  1  0
  5  6  2  0
  5 15  1  0
  6  7  1  0
  6 16  1  0
  7  8  2  0
  7 17  1  0
  8 18  1  0
 12 20  1  0
 19 20  1  0
 19 22  1  0
 19 23  1  0
 19 24  1  0
 20 21  2  0
M  RAD  1   4   2
M  END
>  <reaction>  (11) 
rxn_1517

>  <mol_properties>  (11) 
{"1": {"label": "*1", "atom_type": "Cs"}, "2": {"label": "*0", "atom_type": "Cd"}, "11": {"label": "*2", "atom_type": "H0"}, "19": {"label": "*3", "atom_type": "CS"}, "20": {"label": "*4", "atom_type": "S2d"}}

>  <type>  (11) 
unop_7

>  <geom_source>  (11) 
Heuristics

$$$$

     RDKit          3D

 24 23  0  0  0  0  0  0  0  0999 V2000
    0.8949   -0.8586   -2.4013 C   0  0  0  0  0  0  0  0  0  0  0  0
    0.8949   -0.8586   -0.8722 C   0  0  0  0  0  0  0  0  0  0  0  0
    0.8949    0.5357   -0.3028 C   0  0  0  0  0  0  0  0  0  0  0  0
   -0.2996    1.2046   -0.0550 C   0  0  0  0  0  3  0  0  0  0  0  0
   -0.3029    2.5048    0.4259 C   0  0  0  0  0  0  0  0  0  0  0  0
    0.8949    3.1602    0.6677 C   0  0  0  0  0  0  0  0  0  0  0  0
    2.0927    2.5048    0.4259 C   0  0  0  0  0  0  0  0  0  0  0  0
    2.0895    1.2046   -0.0550 C   0  0  0  0  0  0  0  0  0  0  0  0
    1.7762   -0.3436   -2.7881 H   0  0  0  0  0  0  0  0  0  0  0  0
    0.0136   -0.3436   -2.7881 H   0  0  0  0  0  0  0  0  0  0  0  0
    0.8949   -1.8770   -2.7936 H   0  0  0  0  0  0  0  0  0  0  0  0
   -0.1570   -1.5086   -0.4364 H   0  0  0  0  0  0  0  0  0  0  0  0
    1.7716   -1.4003   -0.5090 H   0  0  0  0  0  0  0  0  0  0  0  0
   -1.2405    0.6974   -0.2388 H   0  0  0  0  0  0  0  0  0  0  0  0
   -1.2437    3.0065    0.6158 H   0  0  0  0  0  0  0  0  0  0  0  0
    0.8949    4.1745    1.0461 H   0  0  0  0  0  0  0  0  0  0  0  0
    3.0335    3.0065    0.6158 H   0  0  0  0  0  0  0  0  0  0  0  0
    3.0303    0.6974   -0.2388 H   0  0  0  0  0  0  0  0  0  0  0  0
   -0.9940   -3.6163    0.2049 C   0  0  0  0  0  0  0  0  0  0  0  0
   -1.2081   -2.1581   -0.0010 C   0  0  0  0  0  0  0  0  0  0  0  0
   -2.0497   -1.1752    0.9513 S   0  0  0  0  0  0  0  0  0  0  0  0
   -1.4861   -3.9727    1.1073 H   0  0  0  0  0  0  0  0  0  0  0  0
    0.0788   -3.8249    0.2628 H   0  0  0  0  0  0  0  0  0  0  0  0
   -1.3691   -4.1682   -0.6625 H   0  0  0  0  0  0  0  0  0  0  0  0
  1  2  1  0
  1  9  1  0
  1 10  1  0
  1 11  1  0
  2  3  2  3
  2 13  1  0
  3  4  1  0
  3  8  1  0
  4  5  1  0
  4 14  1  0
  5  6  2  0
  5 15  1  0
  6  7  1  0
  6 16  1  0
  7  8  2  0
  7 17  1  0
  8 18  1  0
 12 20  1  0
 19 20  1  0
 19 22  1  0
 19 23  1  0
 19 24  1  0
 20 21  2  0
M  RAD  1   4   2
M  END
>  <reaction>  (12) 
rxn_1517

>  <mol_properties>  (12) 
{"1": {"label": "*1", "atom_type": "Cs"}, "2": {"label": "*0", "atom_type": "Cd"}, "11": {"label": "*2", "atom_type": "H0"}, "19": {"label": "*3", "atom_type": "CS"}, "20": {"label": "*4", "atom_type": "S2d"}}

>  <type>  (12) 
unop_8

>  <geom_source>  (12) 
Heuristics

$$$$

     RDKit          3D

 24 23  0  0  0  0  0  0  0  0999 V2000
    0.8666   -0.7347   -2.4120 C   0  0  0  0  0  0  0  0  0  0  0  0
    0.8666   -0.7347   -0.8829 C   0  0  0  0  0  0  0  0  0  0  0  0
    0.8666    0.6596   -0.3135 C   0  0  0  0  0  0  0  0  0  0  0  0
   -0.3279    1.3285   -0.0658 C   0  0  0  0  0  3  0  0  0  0  0  0
   -0.3312    2.6287    0.4151 C   0  0  0  0  0  0  0  0  0  0  0  0
    0.8666    3.2841    0.6569 C   0  0  0  0  0  0  0  0  0  0  0  0
    2.0644    2.6287    0.4151 C   0  0  0  0  0  0  0  0  0  0  0  0
    2.0611    1.3285   -0.0658 C   0  0  0  0  0  0  0  0  0  0  0  0
    1.7479   -0.2197   -2.7989 H   0  0  0  0  0  0  0  0  0  0  0  0
   -0.0147   -0.2197   -2.7989 H   0  0  0  0  0  0  0  0  0  0  0  0
    0.8666   -1.7531   -2.8044 H   0  0  0  0  0  0  0  0  0  0  0  0
   -0.1853   -1.3847   -0.4472 H   0  0  0  0  0  0  0  0  0  0  0  0
    1.7433   -1.2764   -0.5198 H   0  0  0  0  0  0  0  0  0  0  0  0
   -1.2688    0.8213   -0.2495 H   0  0  0  0  0  0  0  0  0  0  0  0
   -1.2720    3.1304    0.6051 H   0  0  0  0  0  0  0  0  0  0  0  0
    0.8666    4.2984    1.0353 H   0  0  0  0  0  0  0  0  0  0  0  0
    3.0052    3.1304    0.6050 H   0  0  0  0  0  0  0  0  0  0  0  0
    3.0020    0.8213   -0.2495 H   0  0  0  0  0  0  0  0  0  0  0  0
   -2.4204   -1.9705   -0.9110 C   0  0  0  0  0  0  0  0  0  0  0  0
   -1.2364   -2.0342   -0.0118 C   0  0  0  0  0  0  0  0  0  0  0  0
   -1.2413   -2.4436    1.5418 S   0  0  0  0  0  0  0  0  0  0  0  0
   -3.3369   -2.2411   -0.3909 H   0  0  0  0  0  0  0  0  0  0  0  0
   -2.2693   -2.6390   -1.7643 H   0  0  0  0  0  0  0  0  0  0  0  0
   -2.5143   -0.9610   -1.3230 H   0  0  0  0  0  0  0  0  0  0  0  0
  1  2  1  0
  1  9  1  0
  1 10  1  0
  1 11  1  0
  2  3  2  3
  2 13  1  0
  3  4  1  0
  3  8  1  0
  4  5  1  0
  4 14  1  0
  5  6  2  0
  5 15  1  0
  6  7  1  0
  6 16  1  0
  7  8  2  0
  7 17  1  0
  8 18  1  0
 12 20  1  0
 19 20  1  0
 19 22  1  0
 19 23  1  0
 19 24  1  0
 20 21  2  0
M  RAD  1   4   2
M  END
>  <reaction>  (13) 
rxn_1517

>  <mol_properties>  (13) 
{"1": {"label": "*1", "atom_type": "Cs"}, "2": {"label": "*0", "atom_type": "Cd"}, "11": {"label": "*2", "atom_type": "H0"}, "19": {"label": "*3", "atom_type": "CS"}, "20": {"label": "*4", "atom_type": "S2d"}}

>  <type>  (13) 
unop_9

>  <geom_source>  (13) 
Heuristics

$$$$

     RDKit          3D

 24 23  0  0  0  0  0  0  0  0999 V2000
    0.8667   -0.7890   -2.4233 C   0  0  0  0  0  0  0  0  0  0  0  0
    0.8667   -0.7890   -0.8942 C   0  0  0  0  0  0  0  0  0  0  0  0
    0.8667    0.6053   -0.3248 C   0  0  0  0  0  0  0  0  0  0  0  0
   -0.3278    1.2742   -0.0770 C   0  0  0  0  0  3  0  0  0  0  0  0
   -0.3311    2.5744    0.4039 C   0  0  0  0  0  0  0  0  0  0  0  0
    0.8667    3.2298    0.6457 C   0  0  0  0  0  0  0  0  0  0  0  0
    2.0645    2.5744    0.4039 C   0  0  0  0  0  0  0  0  0  0  0  0
    2.0613    1.2742   -0.0770 C   0  0  0  0  0  0  0  0  0  0  0  0
    1.7480   -0.2740   -2.8101 H   0  0  0  0  0  0  0  0  0  0  0  0
   -0.0145   -0.2740   -2.8101 H   0  0  0  0  0  0  0  0  0  0  0  0
    0.8667   -1.8075   -2.8156 H   0  0  0  0  0  0  0  0  0  0  0  0
   -0.1852   -1.4390   -0.4584 H   0  0  0  0  0  0  0  0  0  0  0  0
    1.7434   -1.3307   -0.5311 H   0  0  0  0  0  0  0  0  0  0  0  0
   -1.2687    0.7670   -0.2608 H   0  0  0  0  0  0  0  0  0  0  0  0
   -1.2718    3.0761    0.5938 H   0  0  0  0  0  0  0  0  0  0  0  0
    0.8667    4.2441    1.0240 H   0  0  0  0  0  0  0  0  0  0  0  0
    3.0053    3.0761    0.5938 H   0  0  0  0  0  0  0  0  0  0  0  0
    3.0022    0.7670   -0.2608 H   0  0  0  0  0  0  0  0  0  0  0  0
   -1.3087   -3.5107   -0.4552 C   0  0  0  0  0  0  0  0  0  0  0  0
   -1.2363   -2.0885   -0.0230 C   0  0  0  0  0  0  0  0  0  0  0  0
   -1.7906   -1.4834    1.3582 S   0  0  0  0  0  0  0  0  0  0  0  0
   -1.7974   -4.1344    0.2903 H   0  0  0  0  0  0  0  0  0  0  0  0
   -0.2993   -3.8875   -0.6472 H   0  0  0  0  0  0  0  0  0  0  0  0
   -1.8490   -3.5785   -1.4045 H   0  0  0  0  0  0  0  0  0  0  0  0
  1  2  1  0
  1  9  1  0
  1 10  1  0
  1 11  1  0
  2  3  2  3
  2 13  1  0
  3  4  1  0
  3  8  1  0
  4  5  1  0
  4 14  1  0
  5  6  2  0
  5 15  1  0
  6  7  1  0
  6 16  1  0
  7  8  2  0
  7 17  1  0
  8 18  1  0
 12 20  1  0
 19 20  1  0
 19 22  1  0
 19 23  1  0
 19 24  1  0
 20 21  2  0
M  RAD  1   4   2
M  END
>  <reaction>  (14) 
rxn_1517

>  <mol_properties>  (14) 
{"1": {"label": "*1", "atom_type": "Cs"}, "2": {"label": "*0", "atom_type": "Cd"}, "11": {"label": "*2", "atom_type": "H0"}, "19": {"label": "*3", "atom_type": "CS"}, "20": {"label": "*4", "atom_type": "S2d"}}

>  <type>  (14) 
unop_10

>  <geom_source>  (14) 
Heuristics

$$$$

     RDKit          3D

 24 23  0  0  0  0  0  0  0  0999 V2000
    0.8157   -0.5626   -2.2132 C   0  0  0  0  0  0  0  0  0  0  0  0
    0.8157   -0.5626   -0.6841 C   0  0  0  0  0  0  0  0  0  0  0  0
    0.8157    0.8317   -0.1146 C   0  0  0  0  0  0  0  0  0  0  0  0
   -0.3788    1.5006    0.1331 C   0  0  0  0  0  3  0  0  0  0  0  0
   -0.3821    2.8009    0.6140 C   0  0  0  0  0  0  0  0  0  0  0  0
    0.8157    3.4562    0.8558 C   0  0  0  0  0  0  0  0  0  0  0  0
    2.0135    2.8009    0.6140 C   0  0  0  0  0  0  0  0  0  0  0  0
    2.0102    1.5006    0.1331 C   0  0  0  0  0  0  0  0  0  0  0  0
    1.6970   -0.0475   -2.6000 H   0  0  0  0  0  0  0  0  0  0  0  0
   -0.0656   -0.0475   -2.6000 H   0  0  0  0  0  0  0  0  0  0  0  0
    0.8157   -1.5810   -2.6055 H   0  0  0  0  0  0  0  0  0  0  0  0
   -0.2363   -1.2126   -0.2483 H   0  0  0  0  0  0  0  0  0  0  0  0
    1.6923   -1.1043   -0.3209 H   0  0  0  0  0  0  0  0  0  0  0  0
   -1.3197    0.9935   -0.0506 H   0  0  0  0  0  0  0  0  0  0  0  0
   -1.3229    3.3026    0.8039 H   0  0  0  0  0  0  0  0  0  0  0  0
    0.8157    4.4706    1.2342 H   0  0  0  0  0  0  0  0  0  0  0  0
    2.9543    3.3026    0.8039 H   0  0  0  0  0  0  0  0  0  0  0  0
    2.9511    0.9935   -0.0507 H   0  0  0  0  0  0  0  0  0  0  0  0
   -1.8088   -1.3890    1.4982 C   0  0  0  0  0  0  0  0  0  0  0  0
   -1.2874   -1.8621    0.1871 C   0  0  0  0  0  0  0  0  0  0  0  0
   -1.3559   -3.3640   -0.3793 S   0  0  0  0  0  0  0  0  0  0  0  0
   -2.2642   -2.1972    2.0665 H   0  0  0  0  0  0  0  0  0  0  0  0
   -2.5424   -0.5933    1.3356 H   0  0  0  0  0  0  0  0  0  0  0  0
   -0.9942   -0.9438    2.0778 H   0  0  0  0  0  0  0  0  0  0  0  0
  1  2  1  0
  1  9  1  0
  1 10  1  0
  1 11  1  0
  2  3  2  3
  2 13  1  0
  3  4  1  0
  3  8  1  0
  4  5  1  0
  4 14  1  0
  5  6  2  0
  5 15  1  0
  6  7  1  0
  6 16  1  0
  7  8  2  0
  7 17  1  0
  8 18  1  0
 12 20  1  0
 19 20  1  0
 19 22  1  0
 19 23  1  0
 19 24  1  0
 20 21  2  0
M  RAD  1   4   2
M  END
>  <reaction>  (15) 
rxn_1517

>  <mol_properties>  (15) 
{"1": {"label": "*1", "atom_type": "Cs"}, "2": {"label": "*0", "atom_type": "Cd"}, "11": {"label": "*2", "atom_type": "H0"}, "19": {"label": "*3", "atom_type": "CS"}, "20": {"label": "*4", "atom_type": "S2d"}}

>  <type>  (15) 
unop_11

>  <geom_source>  (15) 
Heuristics

$$$$

     RDKit          3D

 24 23  0  0  0  0  0  0  0  0999 V2000
    0.8808   -0.7286   -2.4016 C   0  0  0  0  0  0  0  0  0  0  0  0
    0.8808   -0.7286   -0.8725 C   0  0  0  0  0  0  0  0  0  0  0  0
    0.8808    0.6657   -0.3031 C   0  0  0  0  0  0  0  0  0  0  0  0
   -0.3137    1.3346   -0.0553 C   0  0  0  0  0  3  0  0  0  0  0  0
   -0.3170    2.6348    0.4256 C   0  0  0  0  0  0  0  0  0  0  0  0
    0.8808    3.2902    0.6674 C   0  0  0  0  0  0  0  0  0  0  0  0
    2.0786    2.6348    0.4256 C   0  0  0  0  0  0  0  0  0  0  0  0
    2.0753    1.3346   -0.0553 C   0  0  0  0  0  0  0  0  0  0  0  0
    1.7621   -0.2135   -2.7884 H   0  0  0  0  0  0  0  0  0  0  0  0
   -0.0005   -0.2135   -2.7884 H   0  0  0  0  0  0  0  0  0  0  0  0
    0.8808   -1.7470   -2.7939 H   0  0  0  0  0  0  0  0  0  0  0  0
   -0.1711   -1.3786   -0.4367 H   0  0  0  0  0  0  0  0  0  0  0  0
    1.7575   -1.2703   -0.5094 H   0  0  0  0  0  0  0  0  0  0  0  0
   -1.2546    0.8275   -0.2391 H   0  0  0  0  0  0  0  0  0  0  0  0
   -1.2578    3.1365    0.6155 H   0  0  0  0  0  0  0  0  0  0  0  0
    0.8808    4.3045    1.0457 H   0  0  0  0  0  0  0  0  0  0  0  0
    3.0194    3.1365    0.6155 H   0  0  0  0  0  0  0  0  0  0  0  0
    3.0162    0.8275   -0.2391 H   0  0  0  0  0  0  0  0  0  0  0  0
   -2.1019   -2.5716   -1.0716 C   0  0  0  0  0  0  0  0  0  0  0  0
   -1.2222   -2.0281   -0.0013 C   0  0  0  0  0  0  0  0  0  0  0  0
   -1.4508   -2.1693    1.5827 S   0  0  0  0  0  0  0  0  0  0  0  0
   -2.9584   -3.1009   -0.6595 H   0  0  0  0  0  0  0  0  0  0  0  0
   -1.5255   -3.2454   -1.7131 H   0  0  0  0  0  0  0  0  0  0  0  0
   -2.4466   -1.7547   -1.7131 H   0  0  0  0  0  0  0  0  0  0  0  0
  1  2  1  0
  1  9  1  0
  1 10  1  0
  1 11  1  0
  2  3  2  3
  2 13  1  0
  3  4  1  0
  3  8  1  0
  4  5  1  0
  4 14  1  0
  5  6  2  0
  5 15  1  0
  6  7  1  0
  6 16  1  0
  7  8  2  0
  7 17  1  0
  8 18  1  0
 12 20  1  0
 19 20  1  0
 19 22  1  0
 19 23  1  0
 19 24  1  0
 20 21  2  0
M  RAD  1   4   2
M  END
>  <reaction>  (16) 
rxn_1517

>  <mol_properties>  (16) 
{"1": {"label": "*1", "atom_type": "Cs"}, "2": {"label": "*0", "atom_type": "Cd"}, "11": {"label": "*2", "atom_type": "H0"}, "19": {"label": "*3", "atom_type": "CS"}, "20": {"label": "*4", "atom_type": "S2d"}}

>  <type>  (16) 
unop_12

>  <geom_source>  (16) 
Heuristics

$$$$

     RDKit          3D

 24 23  0  0  0  0  0  0  0  0999 V2000
   -3.1230    2.0347    1.2322 S   0  0  0  0  0  0  0  0  0  0  0  0
   -0.6848    0.5084   -2.0624 C   0  0  0  0  0  0  0  0  0  0  0  0
   -3.5436   -0.4780    1.1527 C   0  0  0  0  0  0  0  0  0  0  0  0
    0.8598    0.0032   -0.1679 C   0  0  0  0  0  0  0  0  0  0  0  0
   -0.5483    0.3417   -0.5546 C   0  0  0  0  0  0  0  0  0  0  0  0
    1.2148   -1.3341    0.0579 C   0  0  0  0  0  3  0  0  0  0  0  0
    1.8350    1.0078   -0.0602 C   0  0  0  0  0  0  0  0  0  0  0  0
    2.5305   -1.6631    0.4001 C   0  0  0  0  0  0  0  0  0  0  0  0
    3.4970   -0.6591    0.5131 C   0  0  0  0  0  0  0  0  0  0  0  0
    3.1497    0.6753    0.2821 C   0  0  0  0  0  0  0  0  0  0  0  0
   -2.6506    0.7065    0.9591 C   0  0  0  0  0  0  0  0  0  0  0  0
   -3.8660   -0.5482    2.2137 H   0  0  0  0  0  0  0  0  0  0  0  0
   -2.9895   -1.4022    0.8878 H   0  0  0  0  0  0  0  0  0  0  0  0
   -4.4370   -0.3984    0.4970 H   0  0  0  0  0  0  0  0  0  0  0  0
   -1.7451    0.7189   -2.3133 H   0  0  0  0  0  0  0  0  0  0  0  0
   -0.0568    1.3534   -2.4169 H   0  0  0  0  0  0  0  0  0  0  0  0
   -0.3758   -0.4249   -2.5791 H   0  0  0  0  0  0  0  0  0  0  0  0
   -0.8914    1.2593   -0.0295 H   0  0  0  0  0  0  0  0  0  0  0  0
    0.4741   -2.1193   -0.0314 H   0  0  0  0  0  0  0  0  0  0  0  0
    2.8012   -2.6962    0.5760 H   0  0  0  0  0  0  0  0  0  0  0  0
    4.5149   -0.9153    0.7772 H   0  0  0  0  0  0  0  0  0  0  0  0
    3.8993    1.4515    0.3665 H   0  0  0  0  0  0  0  0  0  0  0  0
    1.5767    2.0438   -0.2418 H   0  0  0  0  0  0  0  0  0  0  0  0
   -1.4412    0.5343    0.5418 H   0  0  0  0  0  0  0  0  0  0  0  0
  1 11  2  0
  2  5  1  0
  2 15  1  0
  2 16  1  0
  2 17  1  0
  3 11  1  0
  3 12  1  0
  3 13  1  0
  3 14  1  0
  4  5  2  3
  4  6  1  0
  4  7  1  0
  5 18  1  0
  6  8  1  0
  6 19  1  0
  7 10  2  0
  7 23  1  0
  8  9  2  0
  8 20  1  0
  9 10  1  0
  9 21  1  0
 10 22  1  0
 11 24  1  0
M  RAD  1   6   2
M  END
>  <reaction>  (17) 
rxn_1517

>  <mol_properties>  (17) 
{"1": {"label": "*1", "atom_type": "Cs"}, "2": {"label": "*0", "atom_type": "Cd"}, "11": {"label": "*2", "atom_type": "H0"}, "19": {"label": "*3", "atom_type": "CS"}, "20": {"label": "*4", "atom_type": "S2d"}}

>  <type>  (17) 
unop_13

>  <geom_source>  (17) 
AutoTST

$$$$

     RDKit          3D

 24 23  0  0  0  0  0  0  0  0999 V2000
    0.8690   -0.7386   -2.4120 C   0  0  0  0  0  0  0  0  0  0  0  0
    0.8690   -0.7386   -0.8829 C   0  0  0  0  0  0  0  0  0  0  0  0
    0.8690    0.6557   -0.3135 C   0  0  0  0  0  0  0  0  0  0  0  0
   -0.3255    1.3247   -0.0658 C   0  0  0  0  0  3  0  0  0  0  0  0
   -0.3288    2.6249    0.4152 C   0  0  0  0  0  0  0  0  0  0  0  0
    0.8690    3.2802    0.6569 C   0  0  0  0  0  0  0  0  0  0  0  0
    2.0668    2.6249    0.4152 C   0  0  0  0  0  0  0  0  0  0  0  0
    2.0635    1.3247   -0.0658 C   0  0  0  0  0  0  0  0  0  0  0  0
    1.7503   -0.2235   -2.7989 H   0  0  0  0  0  0  0  0  0  0  0  0
   -0.0123   -0.2235   -2.7989 H   0  0  0  0  0  0  0  0  0  0  0  0
    0.8690   -1.7570   -2.8044 H   0  0  0  0  0  0  0  0  0  0  0  0
   -0.1830   -1.3886   -0.4472 H   0  0  0  0  0  0  0  0  0  0  0  0
    1.7456   -1.2802   -0.5198 H   0  0  0  0  0  0  0  0  0  0  0  0
   -1.2664    0.8175   -0.2495 H   0  0  0  0  0  0  0  0  0  0  0  0
   -1.2696    3.1266    0.6050 H   0  0  0  0  0  0  0  0  0  0  0  0
    0.8690    4.2946    1.0353 H   0  0  0  0  0  0  0  0  0  0  0  0
    3.0076    3.1266    0.6050 H   0  0  0  0  0  0  0  0  0  0  0  0
    3.0044    0.8175   -0.2495 H   0  0  0  0  0  0  0  0  0  0  0  0
   -1.7068   -3.1254   -0.9111 C   0  0  0  0  0  0  0  0  0  0  0  0
   -1.2341   -2.0380   -0.0118 C   0  0  0  0  0  0  0  0  0  0  0  0
   -1.6023   -1.8593    1.5418 S   0  0  0  0  0  0  0  0  0  0  0  0
   -2.3588   -3.8240   -0.3909 H   0  0  0  0  0  0  0  0  0  0  0  0
   -0.8459   -3.6610   -1.3229 H   0  0  0  0  0  0  0  0  0  0  0  0
   -2.2370   -2.6912   -1.7643 H   0  0  0  0  0  0  0  0  0  0  0  0
  1  2  1  0
  1  9  1  0
  1 10  1  0
  1 11  1  0
  2  3  2  3
  2 13  1  0
  3  4  1  0
  3  8  1  0
  4  5  1  0
  4 14  1  0
  5  6  2  0
  5 15  1  0
  6  7  1  0
  6 16  1  0
  7  8  2  0
  7 17  1  0
  8 18  1  0
 12 20  1  0
 19 20  1  0
 19 22  1  0
 19 23  1  0
 19 24  1  0
 20 21  2  0
M  RAD  1   4   2
M  END
>  <reaction>  (18) 
rxn_1517

>  <mol_properties>  (18) 
{"1": {"label": "*1", "atom_type": "Cs"}, "2": {"label": "*0", "atom_type": "Cd"}, "11": {"label": "*2", "atom_type": "H0"}, "19": {"label": "*3", "atom_type": "CS"}, "20": {"label": "*4", "atom_type": "S2d"}}

>  <type>  (18) 
unop_14

>  <geom_source>  (18) 
gaussian_log

$$$$
