
     RDKit          3D

  7  7  0  0  0  0  0  0  0  0999 V2000
   -0.7268   -0.0467    0.0634 C   0  0  0  0  0  0  0  0  0  0  0  0
    0.7235    0.1046    0.0109 C   0  0  0  0  0  0  0  0  0  0  0  0
    0.0414   -0.7158   -0.9186 O   0  0  0  0  0  0  0  0  0  0  0  0
   -1.3615    0.7523   -0.3079 H   0  0  0  0  0  0  0  0  0  0  0  0
   -1.1708   -0.6854    0.8209 H   0  0  0  0  0  0  0  0  0  0  0  0
    1.1518    1.0144   -0.3988 H   0  0  0  0  0  0  0  0  0  0  0  0
    1.3425   -0.4233    0.7300 H   0  0  0  0  0  0  0  0  0  0  0  0
  1  2  1  0
  1  3  1  0
  1  4  1  0
  1  5  1  0
  2  3  1  0
  2  6  1  0
  2  7  1  0
M  END
>  <reaction>  (1) 
rxn_3220

>  <mol_properties>  (1) 
{"0": {"label": "donator", "atom_type": "Cs"}, "3": {"label": "d_hydrogen", "atom_type": "H0"}}

>  <type>  (1) 
r1h

$$$$

     RDKit          3D

  7  6  0  0  0  0  0  0  0  0999 V2000
   -1.3059    0.5497   -0.1304 N   0  0  0  0  0  2  0  0  0  0  0  0
   -0.2700   -0.4288    0.0448 C   0  0  0  0  0  0  0  0  0  0  0  0
    1.1109    0.0669    0.0401 C   0  0  0  0  0  0  0  0  0  0  0  0
    2.1758    0.4925    0.0308 N   0  0  0  0  0  0  0  0  0  0  0  0
   -0.8815    1.4733   -0.2339 H   0  0  0  0  0  0  0  0  0  0  0  0
   -0.3767   -1.1909   -0.7373 H   0  0  0  0  0  0  0  0  0  0  0  0
   -0.4527   -0.9628    0.9858 H   0  0  0  0  0  0  0  0  0  0  0  0
  1  2  1  0
  1  5  1  0
  2  3  1  0
  2  6  1  0
  2  7  1  0
  3  4  3  0
M  RAD  1   1   2
M  END
>  <reaction>  (2) 
rxn_3220

>  <mol_properties>  (2) 
{"0": {"label": "acceptor", "atom_type": "N3s"}}

>  <type>  (2) 
r2

$$$$

     RDKit          3D

  8  7  0  0  0  0  0  0  0  0999 V2000
   -1.0805    0.5317    0.0204 N   0  0  0  0  0  0  0  0  0  0  0  0
   -0.1080   -0.5393    0.0956 C   0  0  0  0  0  0  0  0  0  0  0  0
    1.2945   -0.1247   -0.1005 C   0  0  0  0  0  0  0  0  0  0  0  0
    2.3714    0.2386   -0.2580 N   0  0  0  0  0  0  0  0  0  0  0  0
   -1.0516    0.9857   -0.8822 H   0  0  0  0  0  0  0  0  0  0  0  0
   -0.9009    1.2352    0.7235 H   0  0  0  0  0  0  0  0  0  0  0  0
   -0.3427   -1.2965   -0.6542 H   0  0  0  0  0  0  0  0  0  0  0  0
   -0.1810   -1.0288    1.0680 H   0  0  0  0  0  0  0  0  0  0  0  0
  1  2  1  0
  1  5  1  0
  1  6  1  0
  2  3  1  0
  2  7  1  0
  2  8  1  0
  3  4  3  0
M  END
>  <reaction>  (3) 
rxn_3220

>  <mol_properties>  (3) 
{"0": {"label": "acceptor", "atom_type": "N3s"}, "7": {"label": "a_hydrogen", "atom_type": "H0"}}

>  <type>  (3) 
r2h

$$$$

     RDKit          3D

 14 13  0  0  0  0  0  0  0  0999 V2000
    0.4750   -0.2153    1.6908 N   0  0  0  0  0  0  0  0  0  0  0  0
    1.5904   -0.0288    0.7810 C   0  0  0  0  0  0  0  0  0  0  0  0
    1.5598   -0.8748   -0.4213 C   0  0  0  0  0  0  0  0  0  0  0  0
    1.4866   -1.5662   -1.3344 N   0  0  0  0  0  0  0  0  0  0  0  0
    0.2208   -1.2024    1.7045 H   0  0  0  0  0  0  0  0  0  0  0  0
    2.5248   -0.2352    1.3136 H   0  0  0  0  0  0  0  0  0  0  0  0
    1.6286    1.0152    0.4647 H   0  0  0  0  0  0  0  0  0  0  0  0
   -1.4344    0.8282    0.3096 C   0  0  0  0  0  3  0  0  0  0  0  0
   -1.6461    0.2625   -1.0111 C   0  0  0  0  0  0  0  0  0  0  0  0
   -0.8897    1.4646   -0.7893 O   0  0  0  0  0  0  0  0  0  0  0  0
   -0.5407    0.3029    1.0945 H   0  0  0  0  0  0  0  0  0  0  0  0
   -2.1819    1.3598    0.8955 H   0  0  0  0  0  0  0  0  0  0  0  0
   -1.0588   -0.5917   -1.3293 H   0  0  0  0  0  0  0  0  0  0  0  0
   -2.5905    0.4179   -1.5217 H   0  0  0  0  0  0  0  0  0  0  0  0
  1  2  1  0
  1  5  1  0
  1 11  1  0
  2  3  1  0
  2  6  1  0
  2  7  1  0
  3  4  3  0
  8  9  1  0
  8 10  1  0
  8 12  1  0
  9 10  1  0
  9 13  1  0
  9 14  1  0
M  RAD  1   8   2
M  END
>  <reaction>  (4) 
rxn_3220

>  <mol_properties>  (4) 
{"0": {"label": "*1", "atom_type": "N3s"}, "1": {"label": "*0", "atom_type": "Cs"}, "7": {"label": "*3", "atom_type": "Cs"}, "9": {"label": "*4", "atom_type": "O2s"}, "10": {"label": "*2", "atom_type": "H0"}}

>  <type>  (4) 
ts

$$$$

     RDKit          3D

 14 13  0  0  0  0  0  0  0  0999 V2000
    0.3787   -1.1675    0.7268 N   0  0  0  0  0  0  0  0  0  0  0  0
    0.7687   -0.0571    1.5714 C   0  0  0  0  0  0  0  0  0  0  0  0
    1.8579    0.7824    1.0362 C   0  0  0  0  0  0  0  0  0  0  0  0
    2.7062    1.4096    0.5850 N   0  0  0  0  0  0  0  0  0  0  0  0
    1.1561   -1.7938    0.5684 H   0  0  0  0  0  0  0  0  0  0  0  0
    1.0830   -0.4345    2.5457 H   0  0  0  0  0  0  0  0  0  0  0  0
   -0.0950    0.5856    1.7485 H   0  0  0  0  0  0  0  0  0  0  0  0
   -1.7504   -0.6563   -0.5122 C   0  0  0  0  0  3  0  0  0  0  0  0
   -1.7504   -0.6563   -1.9713 C   0  0  0  0  0  0  0  0  0  0  0  0
   -1.7504    0.5561   -1.2417 O   0  0  0  0  0  0  0  0  0  0  0  0
   -0.6477   -0.9211    0.1295 H   0  0  0  0  0  0  0  0  0  0  0  0
   -2.6693   -0.8770    0.0225 H   0  0  0  0  0  0  0  0  0  0  0  0
   -0.8315   -0.8770   -2.5060 H   0  0  0  0  0  0  0  0  0  0  0  0
   -2.6693   -0.8770   -2.5060 H   0  0  0  0  0  0  0  0  0  0  0  0
  1  2  1  0
  1  5  1  0
  1 11  1  0
  2  3  1  0
  2  6  1  0
  2  7  1  0
  3  4  3  0
  8  9  1  0
  8 10  1  0
  8 12  1  0
  9 10  1  0
  9 13  1  0
  9 14  1  0
M  RAD  1   8   2
M  END
>  <reaction>  (5) 
rxn_3220

>  <mol_properties>  (5) 
{"0": {"label": "*1", "atom_type": "N3s"}, "1": {"label": "*0", "atom_type": "Cs"}, "7": {"label": "*3", "atom_type": "Cs"}, "9": {"label": "*4", "atom_type": "O2s"}, "10": {"label": "*2", "atom_type": "H0"}}

>  <type>  (5) 
unop_1

>  <geom_source>  (5) 
Heuristics

$$$$

     RDKit          3D

 14 13  0  0  0  0  0  0  0  0999 V2000
    0.3251   -0.2389    1.5782 N   0  0  0  0  0  0  0  0  0  0  0  0
    1.4839    0.1781    0.8155 C   0  0  0  0  0  0  0  0  0  0  0  0
    1.8799   -0.7389   -0.2708 C   0  0  0  0  0  0  0  0  0  0  0  0
    2.1547   -1.4778   -1.1045 N   0  0  0  0  0  0  0  0  0  0  0  0
    0.4834   -1.1347    2.0186 H   0  0  0  0  0  0  0  0  0  0  0  0
    2.3374    0.2939    1.4853 H   0  0  0  0  0  0  0  0  0  0  0  0
    1.2959    1.1587    0.3757 H   0  0  0  0  0  0  0  0  0  0  0  0
   -1.8040    0.2723    0.3392 C   0  0  0  0  0  3  0  0  0  0  0  0
   -1.8040    0.2723   -1.1199 C   0  0  0  0  0  0  0  0  0  0  0  0
   -1.8040    1.4847   -0.3904 O   0  0  0  0  0  0  0  0  0  0  0  0
   -0.7013    0.0076    0.9809 H   0  0  0  0  0  0  0  0  0  0  0  0
   -2.7229    0.0517    0.8739 H   0  0  0  0  0  0  0  0  0  0  0  0
   -0.8851    0.0517   -1.6546 H   0  0  0  0  0  0  0  0  0  0  0  0
   -2.7229    0.0517   -1.6546 H   0  0  0  0  0  0  0  0  0  0  0  0
  1  2  1  0
  1  5  1  0
  1 11  1  0
  2  3  1  0
  2  6  1  0
  2  7  1  0
  3  4  3  0
  8  9  1  0
  8 10  1  0
  8 12  1  0
  9 10  1  0
  9 13  1  0
  9 14  1  0
M  RAD  1   8   2
M  END
>  <reaction>  (6) 
rxn_3220

>  <mol_properties>  (6) 
{"0": {"label": "*1", "atom_type": "N3s"}, "1": {"label": "*0", "atom_type": "Cs"}, "7": {"label": "*3", "atom_type": "Cs"}, "9": {"label": "*4", "atom_type": "O2s"}, "10": {"label": "*2", "atom_type": "H0"}}

>  <type>  (6) 
unop_2

>  <geom_source>  (6) 
Heuristics

$$$$

     RDKit          3D

 14 13  0  0  0  0  0  0  0  0999 V2000
    0.6881   -1.1800    0.3668 N   0  0  0  0  0  0  0  0  0  0  0  0
    0.7257   -0.4938    1.6421 C   0  0  0  0  0  0  0  0  0  0  0  0
    1.3581    0.8392    1.6159 C   0  0  0  0  0  0  0  0  0  0  0  0
    1.8569    1.8706    1.5531 N   0  0  0  0  0  0  0  0  0  0  0  0
    1.6207   -1.3251    0.0050 H   0  0  0  0  0  0  0  0  0  0  0  0
    1.2622   -1.1062    2.3685 H   0  0  0  0  0  0  0  0  0  0  0  0
   -0.2905   -0.3764    2.0216 H   0  0  0  0  0  0  0  0  0  0  0  0
   -1.4410   -0.6688   -0.8722 C   0  0  0  0  0  3  0  0  0  0  0  0
   -1.4410   -0.6688   -2.3313 C   0  0  0  0  0  0  0  0  0  0  0  0
   -1.4410    0.5436   -1.6017 O   0  0  0  0  0  0  0  0  0  0  0  0
   -0.3383   -0.9335   -0.2305 H   0  0  0  0  0  0  0  0  0  0  0  0
   -2.3599   -0.8894   -0.3374 H   0  0  0  0  0  0  0  0  0  0  0  0
   -0.5221   -0.8894   -2.8660 H   0  0  0  0  0  0  0  0  0  0  0  0
   -2.3599   -0.8894   -2.8660 H   0  0  0  0  0  0  0  0  0  0  0  0
  1  2  1  0
  1  5  1  0
  1 11  1  0
  2  3  1  0
  2  6  1  0
  2  7  1  0
  3  4  3  0
  8  9  1  0
  8 10  1  0
  8 12  1  0
  9 10  1  0
  9 13  1  0
  9 14  1  0
M  RAD  1   8   2
M  END
>  <reaction>  (7) 
rxn_3220

>  <mol_properties>  (7) 
{"0": {"label": "*1", "atom_type": "N3s"}, "1": {"label": "*0", "atom_type": "Cs"}, "7": {"label": "*3", "atom_type": "Cs"}, "9": {"label": "*4", "atom_type": "O2s"}, "10": {"label": "*2", "atom_type": "H0"}}

>  <type>  (7) 
unop_3

>  <geom_source>  (7) 
Heuristics

$$$$

     RDKit          3D

 14 13  0  0  0  0  0  0  0  0999 V2000
    1.1296    0.4777    1.1596 N   0  0  0  0  0  0  0  0  0  0  0  0
    1.6203   -0.8442    0.8275 C   0  0  0  0  0  0  0  0  0  0  0  0
    0.5862   -1.8044    0.3960 C   0  0  0  0  0  0  0  0  0  0  0  0
   -0.2478   -2.5199    0.0658 N   0  0  0  0  0  0  0  0  0  0  0  0
    0.4597    0.4370    1.9153 H   0  0  0  0  0  0  0  0  0  0  0  0
    2.1337   -1.2689    1.6916 H   0  0  0  0  0  0  0  0  0  0  0  0
    2.3611   -0.7672    0.0301 H   0  0  0  0  0  0  0  0  0  0  0  0
   -0.9995    0.9889   -0.0794 C   0  0  0  0  0  3  0  0  0  0  0  0
   -0.9995    0.9889   -1.5385 C   0  0  0  0  0  0  0  0  0  0  0  0
   -0.9995    2.2012   -0.8090 O   0  0  0  0  0  0  0  0  0  0  0  0
    0.1032    0.7241    0.5623 H   0  0  0  0  0  0  0  0  0  0  0  0
   -1.9185    0.7682    0.4553 H   0  0  0  0  0  0  0  0  0  0  0  0
   -0.0806    0.7682   -2.0732 H   0  0  0  0  0  0  0  0  0  0  0  0
   -1.9185    0.7682   -2.0732 H   0  0  0  0  0  0  0  0  0  0  0  0
  1  2  1  0
  1  5  1  0
  1 11  1  0
  2  3  1  0
  2  6  1  0
  2  7  1  0
  3  4  3  0
  8  9  1  0
  8 10  1  0
  8 12  1  0
  9 10  1  0
  9 13  1  0
  9 14  1  0
M  RAD  1   8   2
M  END
>  <reaction>  (8) 
rxn_3220

>  <mol_properties>  (8) 
{"0": {"label": "*1", "atom_type": "N3s"}, "1": {"label": "*0", "atom_type": "Cs"}, "7": {"label": "*3", "atom_type": "Cs"}, "9": {"label": "*4", "atom_type": "O2s"}, "10": {"label": "*2", "atom_type": "H0"}}

>  <type>  (8) 
unop_4

>  <geom_source>  (8) 
Heuristics

$$$$

     RDKit          3D

 14 13  0  0  0  0  0  0  0  0999 V2000
    1.1918   -0.9169    0.1021 N   0  0  0  0  0  0  0  0  0  0  0  0
    0.9848   -0.8672    1.5349 C   0  0  0  0  0  0  0  0  0  0  0  0
    0.5205    0.4336    2.0544 C   0  0  0  0  0  0  0  0  0  0  0  0
    0.1603    1.4606    2.4177 N   0  0  0  0  0  0  0  0  0  0  0  0
    1.8855   -0.2415   -0.1882 H   0  0  0  0  0  0  0  0  0  0  0  0
    1.9152   -1.1203    2.0455 H   0  0  0  0  0  0  0  0  0  0  0  0
    0.2539   -1.6243    1.8230 H   0  0  0  0  0  0  0  0  0  0  0  0
   -0.9373   -0.4057   -1.1369 C   0  0  0  0  0  3  0  0  0  0  0  0
   -0.9373   -0.4057   -2.5960 C   0  0  0  0  0  0  0  0  0  0  0  0
   -0.9373    0.8067   -1.8665 O   0  0  0  0  0  0  0  0  0  0  0  0
    0.1654   -0.6704   -0.4952 H   0  0  0  0  0  0  0  0  0  0  0  0
   -1.8563   -0.6263   -0.6022 H   0  0  0  0  0  0  0  0  0  0  0  0
   -0.0184   -0.6263   -3.1308 H   0  0  0  0  0  0  0  0  0  0  0  0
   -1.8563   -0.6263   -3.1308 H   0  0  0  0  0  0  0  0  0  0  0  0
  1  2  1  0
  1  5  1  0
  1 11  1  0
  2  3  1  0
  2  6  1  0
  2  7  1  0
  3  4  3  0
  8  9  1  0
  8 10  1  0
  8 12  1  0
  9 10  1  0
  9 13  1  0
  9 14  1  0
M  RAD  1   8   2
M  END
>  <reaction>  (9) 
rxn_3220

>  <mol_properties>  (9) 
{"0": {"label": "*1", "atom_type": "N3s"}, "1": {"label": "*0", "atom_type": "Cs"}, "7": {"label": "*3", "atom_type": "Cs"}, "9": {"label": "*4", "atom_type": "O2s"}, "10": {"label": "*2", "atom_type": "H0"}}

>  <type>  (9) 
unop_5

>  <geom_source>  (9) 
Heuristics

$$$$

     RDKit          3D

 14 13  0  0  0  0  0  0  0  0999 V2000
    1.3601    0.4421    0.8009 N   0  0  0  0  0  0  0  0  0  0  0  0
    1.4848   -0.9782    1.0572 C   0  0  0  0  0  0  0  0  0  0  0  0
    0.2282   -1.7447    0.9527 C   0  0  0  0  0  0  0  0  0  0  0  0
   -0.7696   -2.3038    0.8616 N   0  0  0  0  0  0  0  0  0  0  0  0
    0.7197    0.8738    1.4529 H   0  0  0  0  0  0  0  0  0  0  0  0
    1.8904   -1.1326    2.0582 H   0  0  0  0  0  0  0  0  0  0  0  0
    2.2021   -1.4119    0.3586 H   0  0  0  0  0  0  0  0  0  0  0  0
   -0.7691    0.9533   -0.4381 C   0  0  0  0  0  3  0  0  0  0  0  0
   -0.7691    0.9533   -1.8972 C   0  0  0  0  0  0  0  0  0  0  0  0
   -0.7691    2.1657   -1.1676 O   0  0  0  0  0  0  0  0  0  0  0  0
    0.3336    0.6885    0.2036 H   0  0  0  0  0  0  0  0  0  0  0  0
   -1.6880    0.7327    0.0967 H   0  0  0  0  0  0  0  0  0  0  0  0
    0.1499    0.7327   -2.4319 H   0  0  0  0  0  0  0  0  0  0  0  0
   -1.6880    0.7327   -2.4319 H   0  0  0  0  0  0  0  0  0  0  0  0
  1  2  1  0
  1  5  1  0
  1 11  1  0
  2  3  1  0
  2  6  1  0
  2  7  1  0
  3  4  3  0
  8  9  1  0
  8 10  1  0
  8 12  1  0
  9 10  1  0
  9 13  1  0
  9 14  1  0
M  RAD  1   8   2
M  END
>  <reaction>  (10) 
rxn_3220

>  <mol_properties>  (10) 
{"0": {"label": "*1", "atom_type": "N3s"}, "1": {"label": "*0", "atom_type": "Cs"}, "7": {"label": "*3", "atom_type": "Cs"}, "9": {"label": "*4", "atom_type": "O2s"}, "10": {"label": "*2", "atom_type": "H0"}}

>  <type>  (10) 
unop_6

>  <geom_source>  (10) 
Heuristics

$$$$

     RDKit          3D

 14 13  0  0  0  0  0  0  0  0999 V2000
    1.5239    0.1945    0.4215 N   0  0  0  0  0  0  0  0  0  0  0  0
    1.3673   -0.9719    1.2661 C   0  0  0  0  0  0  0  0  0  0  0  0
   -0.0293   -1.3556    1.5488 C   0  0  0  0  0  0  0  0  0  0  0  0
   -1.1284   -1.6204    1.7443 N   0  0  0  0  0  0  0  0  0  0  0  0
    1.0952    1.0075    0.8421 H   0  0  0  0  0  0  0  0  0  0  0  0
    1.8682   -0.7998    2.2200 H   0  0  0  0  0  0  0  0  0  0  0  0
    1.8631   -1.8259    0.8019 H   0  0  0  0  0  0  0  0  0  0  0  0
   -0.6052    0.7057   -0.8175 C   0  0  0  0  0  3  0  0  0  0  0  0
   -0.6052    0.7057   -2.2765 C   0  0  0  0  0  0  0  0  0  0  0  0
   -0.6052    1.9181   -1.5470 O   0  0  0  0  0  0  0  0  0  0  0  0
    0.4975    0.4410   -0.1758 H   0  0  0  0  0  0  0  0  0  0  0  0
   -1.5241    0.4851   -0.2827 H   0  0  0  0  0  0  0  0  0  0  0  0
    0.3137    0.4851   -2.8113 H   0  0  0  0  0  0  0  0  0  0  0  0
   -1.5241    0.4851   -2.8113 H   0  0  0  0  0  0  0  0  0  0  0  0
  1  2  1  0
  1  5  1  0
  1 11  1  0
  2  3  1  0
  2  6  1  0
  2  7  1  0
  3  4  3  0
  8  9  1  0
  8 10  1  0
  8 12  1  0
  9 10  1  0
  9 13  1  0
  9 14  1  0
M  RAD  1   8   2
M  END
>  <reaction>  (11) 
rxn_3220

>  <mol_properties>  (11) 
{"0": {"label": "*1", "atom_type": "N3s"}, "1": {"label": "*0", "atom_type": "Cs"}, "7": {"label": "*3", "atom_type": "Cs"}, "9": {"label": "*4", "atom_type": "O2s"}, "10": {"label": "*2", "atom_type": "H0"}}

>  <type>  (11) 
unop_7

>  <geom_source>  (11) 
Heuristics

$$$$

     RDKit          3D

 14 13  0  0  0  0  0  0  0  0999 V2000
    0.2129   -0.9822    1.1013 N   0  0  0  0  0  0  0  0  0  0  0  0
    0.9689    0.2267    1.3576 C   0  0  0  0  0  0  0  0  0  0  0  0
    2.1084    0.4555    0.4483 C   0  0  0  0  0  0  0  0  0  0  0  0
    2.9844    0.5965   -0.2792 N   0  0  0  0  0  0  0  0  0  0  0  0
    0.7992   -1.8014    1.1836 H   0  0  0  0  0  0  0  0  0  0  0  0
    1.3528    0.2056    2.3787 H   0  0  0  0  0  0  0  0  0  0  0  0
    0.3063    1.0909    1.2901 H   0  0  0  0  0  0  0  0  0  0  0  0
   -1.9162   -0.4710   -0.1377 C   0  0  0  0  0  3  0  0  0  0  0  0
   -1.9162   -0.4710   -1.5968 C   0  0  0  0  0  0  0  0  0  0  0  0
   -1.9162    0.7414   -0.8672 O   0  0  0  0  0  0  0  0  0  0  0  0
   -0.8135   -0.7357    0.5040 H   0  0  0  0  0  0  0  0  0  0  0  0
   -2.8351   -0.6916    0.3971 H   0  0  0  0  0  0  0  0  0  0  0  0
   -0.9973   -0.6916   -2.1315 H   0  0  0  0  0  0  0  0  0  0  0  0
   -2.8351   -0.6916   -2.1315 H   0  0  0  0  0  0  0  0  0  0  0  0
  1  2  1  0
  1  5  1  0
  1 11  1  0
  2  3  1  0
  2  6  1  0
  2  7  1  0
  3  4  3  0
  8  9  1  0
  8 10  1  0
  8 12  1  0
  9 10  1  0
  9 13  1  0
  9 14  1  0
M  RAD  1   8   2
M  END
>  <reaction>  (12) 
rxn_3220

>  <mol_properties>  (12) 
{"0": {"label": "*1", "atom_type": "N3s"}, "1": {"label": "*0", "atom_type": "Cs"}, "7": {"label": "*3", "atom_type": "Cs"}, "9": {"label": "*4", "atom_type": "O2s"}, "10": {"label": "*2", "atom_type": "H0"}}

>  <type>  (12) 
unop_8

>  <geom_source>  (12) 
Heuristics

$$$$

     RDKit          3D

 14 13  0  0  0  0  0  0  0  0999 V2000
    0.8666    0.3580    1.4296 N   0  0  0  0  0  0  0  0  0  0  0  0
    1.7098   -0.5397    0.6669 C   0  0  0  0  0  0  0  0  0  0  0  0
    0.9967   -1.6330   -0.0214 C   0  0  0  0  0  0  0  0  0  0  0  0
    0.4049   -2.4678   -0.5404 N   0  0  0  0  0  0  0  0  0  0  0  0
    0.3651   -0.1407    2.1518 H   0  0  0  0  0  0  0  0  0  0  0  0
    2.4545   -0.9872    1.3268 H   0  0  0  0  0  0  0  0  0  0  0  0
    2.2593    0.0289   -0.0849 H   0  0  0  0  0  0  0  0  0  0  0  0
   -1.2626    0.8692    0.1906 C   0  0  0  0  0  3  0  0  0  0  0  0
   -1.2626    0.8692   -1.2685 C   0  0  0  0  0  0  0  0  0  0  0  0
   -1.2626    2.0815   -0.5389 O   0  0  0  0  0  0  0  0  0  0  0  0
   -0.1599    0.6044    0.8323 H   0  0  0  0  0  0  0  0  0  0  0  0
   -2.1815    0.6485    0.7254 H   0  0  0  0  0  0  0  0  0  0  0  0
   -0.3437    0.6485   -1.8032 H   0  0  0  0  0  0  0  0  0  0  0  0
   -2.1815    0.6485   -1.8032 H   0  0  0  0  0  0  0  0  0  0  0  0
  1  2  1  0
  1  5  1  0
  1 11  1  0
  2  3  1  0
  2  6  1  0
  2  7  1  0
  3  4  3  0
  8  9  1  0
  8 10  1  0
  8 12  1  0
  9 10  1  0
  9 13  1  0
  9 14  1  0
M  RAD  1   8   2
M  END
>  <reaction>  (13) 
rxn_3220

>  <mol_properties>  (13) 
{"0": {"label": "*1", "atom_type": "N3s"}, "1": {"label": "*0", "atom_type": "Cs"}, "7": {"label": "*3", "atom_type": "Cs"}, "9": {"label": "*4", "atom_type": "O2s"}, "10": {"label": "*2", "atom_type": "H0"}}

>  <type>  (13) 
unop_9

>  <geom_source>  (13) 
Heuristics

$$$$

     RDKit          3D

 14 13  0  0  0  0  0  0  0  0999 V2000
    0.1898   -0.6454    1.4096 N   0  0  0  0  0  0  0  0  0  0  0  0
    1.2273    0.3096    1.0775 C   0  0  0  0  0  0  0  0  0  0  0  0
    2.1214   -0.0968   -0.0237 C   0  0  0  0  0  0  0  0  0  0  0  0
    2.7941   -0.4499   -0.8836 N   0  0  0  0  0  0  0  0  0  0  0  0
    0.5880   -1.5307    1.6912 H   0  0  0  0  0  0  0  0  0  0  0  0
    1.8431    0.4981    1.9583 H   0  0  0  0  0  0  0  0  0  0  0  0
    0.7705    1.2624    0.8054 H   0  0  0  0  0  0  0  0  0  0  0  0
   -1.9393   -0.1342    0.1706 C   0  0  0  0  0  3  0  0  0  0  0  0
   -1.9393   -0.1342   -1.2885 C   0  0  0  0  0  0  0  0  0  0  0  0
   -1.9393    1.0782   -0.5589 O   0  0  0  0  0  0  0  0  0  0  0  0
   -0.8366   -0.3989    0.8123 H   0  0  0  0  0  0  0  0  0  0  0  0
   -2.8582   -0.3548    0.7053 H   0  0  0  0  0  0  0  0  0  0  0  0
   -1.0204   -0.3548   -1.8232 H   0  0  0  0  0  0  0  0  0  0  0  0
   -2.8582   -0.3548   -1.8232 H   0  0  0  0  0  0  0  0  0  0  0  0
  1  2  1  0
  1  5  1  0
  1 11  1  0
  2  3  1  0
  2  6  1  0
  2  7  1  0
  3  4  3  0
  8  9  1  0
  8 10  1  0
  8 12  1  0
  9 10  1  0
  9 13  1  0
  9 14  1  0
M  RAD  1   8   2
M  END
>  <reaction>  (14) 
rxn_3220

>  <mol_properties>  (14) 
{"0": {"label": "*1", "atom_type": "N3s"}, "1": {"label": "*0", "atom_type": "Cs"}, "7": {"label": "*3", "atom_type": "Cs"}, "9": {"label": "*4", "atom_type": "O2s"}, "10": {"label": "*2", "atom_type": "H0"}}

>  <type>  (14) 
unop_10

>  <geom_source>  (14) 
Heuristics

$$$$

     RDKit          3D

 14 13  0  0  0  0  0  0  0  0999 V2000
    1.5320   -0.3004    0.1308 N   0  0  0  0  0  0  0  0  0  0  0  0
    1.2539   -0.9288    1.4060 C   0  0  0  0  0  0  0  0  0  0  0  0
   -0.0415   -0.5656    2.0123 C   0  0  0  0  0  0  0  0  0  0  0  0
   -1.0566   -0.2575    2.4494 N   0  0  0  0  0  0  0  0  0  0  0  0
    1.5413    0.7066    0.2166 H   0  0  0  0  0  0  0  0  0  0  0  0
    2.0412   -0.6726    2.1167 H   0  0  0  0  0  0  0  0  0  0  0  0
    1.2782   -2.0134    1.2896 H   0  0  0  0  0  0  0  0  0  0  0  0
   -0.5971    0.2108   -1.1082 C   0  0  0  0  0  3  0  0  0  0  0  0
   -0.5971    0.2108   -2.5673 C   0  0  0  0  0  0  0  0  0  0  0  0
   -0.5971    1.4232   -1.8378 O   0  0  0  0  0  0  0  0  0  0  0  0
    0.5056   -0.0539   -0.4665 H   0  0  0  0  0  0  0  0  0  0  0  0
   -1.5161   -0.0098   -0.5735 H   0  0  0  0  0  0  0  0  0  0  0  0
    0.3218   -0.0098   -3.1020 H   0  0  0  0  0  0  0  0  0  0  0  0
   -1.5161   -0.0098   -3.1020 H   0  0  0  0  0  0  0  0  0  0  0  0
  1  2  1  0
  1  5  1  0
  1 11  1  0
  2  3  1  0
  2  6  1  0
  2  7  1  0
  3  4  3  0
  8  9  1  0
  8 10  1  0
  8 12  1  0
  9 10  1  0
  9 13  1  0
  9 14  1  0
M  RAD  1   8   2
M  END
>  <reaction>  (15) 
rxn_3220

>  <mol_properties>  (15) 
{"0": {"label": "*1", "atom_type": "N3s"}, "1": {"label": "*0", "atom_type": "Cs"}, "7": {"label": "*3", "atom_type": "Cs"}, "9": {"label": "*4", "atom_type": "O2s"}, "10": {"label": "*2", "atom_type": "H0"}}

>  <type>  (15) 
unop_11

>  <geom_source>  (15) 
Heuristics

$$$$

     RDKit          3D

 14 13  0  0  0  0  0  0  0  0999 V2000
    0.5812    0.1176    1.5782 N   0  0  0  0  0  0  0  0  0  0  0  0
    1.6689   -0.1436    0.6578 C   0  0  0  0  0  0  0  0  0  0  0  0
    1.4538   -1.2812   -0.2570 C   0  0  0  0  0  0  0  0  0  0  0  0
    1.2477   -2.1723   -0.9499 N   0  0  0  0  0  0  0  0  0  0  0  0
    0.4069   -0.6825    2.1707 H   0  0  0  0  0  0  0  0  0  0  0  0
    2.5839   -0.3336    1.2211 H   0  0  0  0  0  0  0  0  0  0  0  0
    1.8534    0.7448    0.0518 H   0  0  0  0  0  0  0  0  0  0  0  0
   -1.5479    0.6288    0.3392 C   0  0  0  0  0  3  0  0  0  0  0  0
   -1.5479    0.6288   -1.1199 C   0  0  0  0  0  0  0  0  0  0  0  0
   -1.5479    1.8412   -0.3904 O   0  0  0  0  0  0  0  0  0  0  0  0
   -0.4452    0.3641    0.9809 H   0  0  0  0  0  0  0  0  0  0  0  0
   -2.4669    0.4082    0.8739 H   0  0  0  0  0  0  0  0  0  0  0  0
   -0.6290    0.4082   -1.6546 H   0  0  0  0  0  0  0  0  0  0  0  0
   -2.4669    0.4082   -1.6546 H   0  0  0  0  0  0  0  0  0  0  0  0
  1  2  1  0
  1  5  1  0
  1 11  1  0
  2  3  1  0
  2  6  1  0
  2  7  1  0
  3  4  3  0
  8  9  1  0
  8 10  1  0
  8 12  1  0
  9 10  1  0
  9 13  1  0
  9 14  1  0
M  RAD  1   8   2
M  END
>  <reaction>  (16) 
rxn_3220

>  <mol_properties>  (16) 
{"0": {"label": "*1", "atom_type": "N3s"}, "1": {"label": "*0", "atom_type": "Cs"}, "7": {"label": "*3", "atom_type": "Cs"}, "9": {"label": "*4", "atom_type": "O2s"}, "10": {"label": "*2", "atom_type": "H0"}}

>  <type>  (16) 
unop_12

>  <geom_source>  (16) 
Heuristics

$$$$

     RDKit          3D

 14 13  0  0  0  0  0  0  0  0999 V2000
    0.3251   -0.2389    1.5782 N   0  0  0  0  0  0  0  0  0  0  0  0
    1.4839    0.1781    0.8155 C   0  0  0  0  0  0  0  0  0  0  0  0
    1.8799   -0.7389   -0.2708 C   0  0  0  0  0  0  0  0  0  0  0  0
    2.1547   -1.4777   -1.1045 N   0  0  0  0  0  0  0  0  0  0  0  0
    0.4834   -1.1347    2.0186 H   0  0  0  0  0  0  0  0  0  0  0  0
    2.3374    0.2939    1.4853 H   0  0  0  0  0  0  0  0  0  0  0  0
    1.2959    1.1587    0.3757 H   0  0  0  0  0  0  0  0  0  0  0  0
   -1.8040    0.2723    0.3392 C   0  0  0  0  0  3  0  0  0  0  0  0
   -1.8040    0.2723   -1.1199 C   0  0  0  0  0  0  0  0  0  0  0  0
   -1.8040    1.4847   -0.3904 O   0  0  0  0  0  0  0  0  0  0  0  0
   -0.7013    0.0076    0.9809 H   0  0  0  0  0  0  0  0  0  0  0  0
   -2.7229    0.0517    0.8739 H   0  0  0  0  0  0  0  0  0  0  0  0
   -0.8851    0.0517   -1.6546 H   0  0  0  0  0  0  0  0  0  0  0  0
   -2.7229    0.0517   -1.6546 H   0  0  0  0  0  0  0  0  0  0  0  0
  1  2  1  0
  1  5  1  0
  1 11  1  0
  2  3  1  0
  2  6  1  0
  2  7  1  0
  3  4  3  0
  8  9  1  0
  8 10  1  0
  8 12  1  0
  9 10  1  0
  9 13  1  0
  9 14  1  0
M  RAD  1   8   2
M  END
>  <reaction>  (17) 
rxn_3220

>  <mol_properties>  (17) 
{"0": {"label": "*1", "atom_type": "N3s"}, "1": {"label": "*0", "atom_type": "Cs"}, "7": {"label": "*3", "atom_type": "Cs"}, "9": {"label": "*4", "atom_type": "O2s"}, "10": {"label": "*2", "atom_type": "H0"}}

>  <type>  (17) 
unop_13

>  <geom_source>  (17) 
gaussian_log

$$$$
