
     RDKit          3D

  6  5  0  0  0  0  0  0  0  0999 V2000
   -0.5072   -0.0291   -0.0097 C   0  0  0  0  0  0  0  0  0  0  0  0
    1.1321   -0.1527   -0.7687 S   0  0  0  0  0  0  0  0  0  0  0  0
   -0.6174   -0.7330    0.8127 H   0  0  0  0  0  0  0  0  0  0  0  0
   -0.5863    0.9827    0.3845 H   0  0  0  0  0  0  0  0  0  0  0  0
   -1.2962   -0.1800   -0.7434 H   0  0  0  0  0  0  0  0  0  0  0  0
    1.0312   -1.4237   -1.1764 H   0  0  0  0  0  0  0  0  0  0  0  0
  1  2  1  0
  1  3  1  0
  1  4  1  0
  1  5  1  0
  2  6  1  0
M  END
>  <reaction>  (1) 
rxn_1827

>  <mol_properties>  (1) 
{"0": {"label": "donator", "atom_type": "Cs"}, "2": {"label": "d_hydrogen", "atom_type": "H0"}}

>  <type>  (1) 
r1h

$$$$

     RDKit          3D

 14 14  0  0  0  0  0  0  0  0999 V2000
    2.3111    0.1295    0.0255 C   0  0  0  0  0  0  0  0  0  0  0  0
    0.9132    0.0511    0.0101 C   0  0  0  0  0  0  0  0  0  0  0  0
    0.1101    1.2180   -0.0350 C   0  0  0  0  0  3  0  0  0  0  0  0
   -1.2644    1.1347   -0.0499 C   0  0  0  0  0  0  0  0  0  0  0  0
   -1.8967   -0.1062   -0.0209 C   0  0  0  0  0  0  0  0  0  0  0  0
   -1.1306   -1.2689    0.0235 C   0  0  0  0  0  0  0  0  0  0  0  0
    0.2446   -1.1981    0.0389 C   0  0  0  0  0  0  0  0  0  0  0  0
    2.9188   -0.7647    0.0599 H   0  0  0  0  0  0  0  0  0  0  0  0
    2.8158    1.0859    0.0034 H   0  0  0  0  0  0  0  0  0  0  0  0
    0.5964    2.1860   -0.0577 H   0  0  0  0  0  0  0  0  0  0  0  0
   -1.8572    2.0404   -0.0845 H   0  0  0  0  0  0  0  0  0  0  0  0
   -2.9772   -0.1668   -0.0328 H   0  0  0  0  0  0  0  0  0  0  0  0
   -1.6191   -2.2351    0.0461 H   0  0  0  0  0  0  0  0  0  0  0  0
    0.8353   -2.1058    0.0735 H   0  0  0  0  0  0  0  0  0  0  0  0
  1  2  2  3
  1  8  1  0
  1  9  1  0
  2  3  1  0
  2  7  1  0
  3  4  1  0
  3 10  1  0
  4  5  2  0
  4 11  1  0
  5  6  1  0
  5 12  1  0
  6  7  2  0
  6 13  1  0
  7 14  1  0
M  RAD  1   3   2
M  END
>  <reaction>  (2) 
rxn_1827

>  <mol_properties>  (2) 
{"0": {"label": "acceptor", "atom_type": "Cs"}}

>  <type>  (2) 
r2

$$$$

     RDKit          3D

 15 15  0  0  0  0  0  0  0  0999 V2000
    2.2033   -0.2106   -0.1691 C   0  0  0  0  0  0  0  0  0  0  0  0
    0.7079   -0.0769   -0.0833 C   0  0  0  0  0  0  0  0  0  0  0  0
    0.0133   -0.5320    1.0332 C   0  0  0  0  0  0  0  0  0  0  0  0
   -1.3681   -0.4375    1.1023 C   0  0  0  0  0  0  0  0  0  0  0  0
   -2.0817    0.1179    0.0512 C   0  0  0  0  0  0  0  0  0  0  0  0
   -1.4017    0.5784   -1.0658 C   0  0  0  0  0  0  0  0  0  0  0  0
   -0.0203    0.4813   -1.1294 C   0  0  0  0  0  0  0  0  0  0  0  0
    2.6627   -0.1689    0.8190 H   0  0  0  0  0  0  0  0  0  0  0  0
    2.4808   -1.1663   -0.6212 H   0  0  0  0  0  0  0  0  0  0  0  0
    2.6378    0.5807   -0.7809 H   0  0  0  0  0  0  0  0  0  0  0  0
    0.5630   -0.9645    1.8617 H   0  0  0  0  0  0  0  0  0  0  0  0
   -1.8884   -0.7961    1.9818 H   0  0  0  0  0  0  0  0  0  0  0  0
   -3.1603    0.1950    0.1041 H   0  0  0  0  0  0  0  0  0  0  0  0
   -1.9485    1.0183   -1.8907 H   0  0  0  0  0  0  0  0  0  0  0  0
    0.5030    0.8475   -2.0056 H   0  0  0  0  0  0  0  0  0  0  0  0
  1  2  1  0
  1  8  1  0
  1  9  1  0
  1 10  1  0
  2  3  2  0
  2  7  1  0
  3  4  1  0
  3 11  1  0
  4  5  2  0
  4 12  1  0
  5  6  1  0
  5 13  1  0
  6  7  2  0
  6 14  1  0
  7 15  1  0
M  END
>  <reaction>  (3) 
rxn_1827

>  <mol_properties>  (3) 
{"0": {"label": "a_hydrogen", "atom_type": "H0"}, "1": {"label": "acceptor", "atom_type": "Cs"}}

>  <type>  (3) 
r2h

$$$$

     RDKit          3D

 20 19  0  0  0  0  0  0  0  0999 V2000
   -0.3638   -2.5178    0.8623 C   0  0  0  0  0  3  0  0  0  0  0  0
   -1.6675   -2.0656   -0.2334 S   0  0  0  0  0  0  0  0  0  0  0  0
    0.0275   -1.3920    1.5547 H   0  0  0  0  0  0  0  0  0  0  0  0
   -0.7230   -3.2165    1.6129 H   0  0  0  0  0  0  0  0  0  0  0  0
    0.5531   -2.8466    0.3799 H   0  0  0  0  0  0  0  0  0  0  0  0
   -0.9646   -1.2065   -0.9855 H   0  0  0  0  0  0  0  0  0  0  0  0
    0.4221   -0.2348    2.0603 C   0  0  0  0  0  0  0  0  0  0  0  0
    0.3498    0.7028    0.9388 C   0  0  0  0  0  0  0  0  0  0  0  0
    1.4006    0.8023    0.0204 C   0  0  0  0  0  0  0  0  0  0  0  0
    1.3013    1.6197   -1.0922 C   0  0  0  0  0  0  0  0  0  0  0  0
    0.1478    2.3592   -1.3158 C   0  0  0  0  0  0  0  0  0  0  0  0
   -0.9034    2.2734   -0.4135 C   0  0  0  0  0  0  0  0  0  0  0  0
   -0.8055    1.4530    0.6969 C   0  0  0  0  0  0  0  0  0  0  0  0
   -0.2871   -0.0585    2.8653 H   0  0  0  0  0  0  0  0  0  0  0  0
    1.4234   -0.4554    2.4229 H   0  0  0  0  0  0  0  0  0  0  0  0
    2.3054    0.2288    0.1882 H   0  0  0  0  0  0  0  0  0  0  0  0
    2.1287    1.6830   -1.7882 H   0  0  0  0  0  0  0  0  0  0  0  0
    0.0705    3.0000   -2.1848 H   0  0  0  0  0  0  0  0  0  0  0  0
   -1.8068    2.8474   -0.5784 H   0  0  0  0  0  0  0  0  0  0  0  0
   -1.6356    1.3817    1.3895 H   0  0  0  0  0  0  0  0  0  0  0  0
  1  2  1  0
  1  4  1  0
  1  5  1  0
  2  6  1  0
  3  7  1  0
  7  8  1  0
  7 14  1  0
  7 15  1  0
  8  9  2  0
  8 13  1  0
  9 10  1  0
  9 16  1  0
 10 11  2  0
 10 17  1  0
 11 12  1  0
 11 18  1  0
 12 13  2  0
 12 19  1  0
 13 20  1  0
M  RAD  1   1   2
M  END
>  <reaction>  (4) 
rxn_1827

>  <mol_properties>  (4) 
{"0": {"label": "*3", "atom_type": "Cs"}, "1": {"label": "*4", "atom_type": "S2s"}, "2": {"label": "*2", "atom_type": "H0"}, "6": {"label": "*1", "atom_type": "Cs"}, "7": {"label": "*0", "atom_type": "Cd"}}

>  <type>  (4) 
ts

$$$$

     RDKit          3D

 20 19  0  0  0  0  0  0  0  0999 V2000
    1.2956   -1.8942   -1.1238 C   0  0  0  0  0  0  0  0  0  0  0  0
    1.2956   -1.8942   -2.9345 S   0  0  0  0  0  0  0  0  0  0  0  0
    1.2956   -0.6784   -0.6480 H   0  0  0  0  0  0  0  0  0  0  0  0
    0.3750   -2.3884   -0.8179 H   0  0  0  0  0  0  0  0  0  0  0  0
    2.1400   -2.4542   -0.7273 H   0  0  0  0  0  0  0  0  0  0  0  0
    2.4659   -1.2661   -3.1009 H   0  0  0  0  0  0  0  0  0  0  0  0
    1.2956    0.5402   -0.1712 C   0  0  0  0  0  0  0  0  0  0  0  0
    0.0826    0.7945    0.6804 C   0  0  0  0  0  0  0  0  0  0  0  0
   -1.1831    0.8894    0.1100 C   0  0  0  0  0  3  0  0  0  0  0  0
   -2.2992    1.1536    0.8886 C   0  0  0  0  0  0  0  0  0  0  0  0
   -2.1682    1.3268    2.2580 C   0  0  0  0  0  0  0  0  0  0  0  0
   -0.9133    1.2313    2.8398 C   0  0  0  0  0  0  0  0  0  0  0  0
    0.1994    0.9669    2.0562 C   0  0  0  0  0  0  0  0  0  0  0  0
    2.0672    0.0080    0.3862 H   0  0  0  0  0  0  0  0  0  0  0  0
    1.7297    1.4819   -0.5170 H   0  0  0  0  0  0  0  0  0  0  0  0
   -1.2960    0.7519   -0.9596 H   0  0  0  0  0  0  0  0  0  0  0  0
   -3.2752    1.2213    0.4242 H   0  0  0  0  0  0  0  0  0  0  0  0
   -3.0388    1.5306    2.8683 H   0  0  0  0  0  0  0  0  0  0  0  0
   -0.7998    1.3601    3.9091 H   0  0  0  0  0  0  0  0  0  0  0  0
    1.1761    0.8905    2.5207 H   0  0  0  0  0  0  0  0  0  0  0  0
  1  2  1  0
  1  3  1  0
  1  4  1  0
  1  5  1  0
  2  6  1  0
  7  8  2  3
  7 14  1  0
  7 15  1  0
  8  9  1  0
  8 13  1  0
  9 10  1  0
  9 16  1  0
 10 11  2  0
 10 17  1  0
 11 12  1  0
 11 18  1  0
 12 13  2  0
 12 19  1  0
 13 20  1  0
M  RAD  1   9   2
M  END
>  <reaction>  (5) 
rxn_1827

>  <mol_properties>  (5) 
{"0": {"label": "*3", "atom_type": "Cs"}, "1": {"label": "*4", "atom_type": "S2s"}, "2": {"label": "*2", "atom_type": "H0"}, "6": {"label": "*1", "atom_type": "Cs"}, "7": {"label": "*0", "atom_type": "Cd"}}

>  <type>  (5) 
unop_1

>  <geom_source>  (5) 
Heuristics

$$$$

     RDKit          3D

 20 19  0  0  0  0  0  0  0  0999 V2000
    0.7371   -2.6431    0.7947 C   0  0  0  0  0  0  0  0  0  0  0  0
    0.7371   -2.6431   -1.0160 S   0  0  0  0  0  0  0  0  0  0  0  0
    0.7371   -1.4272    1.2704 H   0  0  0  0  0  0  0  0  0  0  0  0
   -0.1836   -3.1372    1.1006 H   0  0  0  0  0  0  0  0  0  0  0  0
    1.5815   -3.2031    1.1911 H   0  0  0  0  0  0  0  0  0  0  0  0
    1.9074   -2.0149   -1.1824 H   0  0  0  0  0  0  0  0  0  0  0  0
    0.7371   -0.2086    1.7473 C   0  0  0  0  0  0  0  0  0  0  0  0
    0.0368    0.7429    0.8170 C   0  0  0  0  0  0  0  0  0  0  0  0
    0.3313    0.7586   -0.5428 C   0  0  0  0  0  3  0  0  0  0  0  0
   -0.2907    1.6552   -1.3979 C   0  0  0  0  0  0  0  0  0  0  0  0
   -1.2238    2.5547   -0.9054 C   0  0  0  0  0  0  0  0  0  0  0  0
   -1.5292    2.5474    0.4471 C   0  0  0  0  0  0  0  0  0  0  0  0
   -0.9040    1.6486    1.2975 C   0  0  0  0  0  0  0  0  0  0  0  0
    0.1050   -0.4707    2.5964 H   0  0  0  0  0  0  0  0  0  0  0  0
    1.6513    0.2406    2.1437 H   0  0  0  0  0  0  0  0  0  0  0  0
    1.0570    0.0565   -0.9379 H   0  0  0  0  0  0  0  0  0  0  0  0
   -0.0479    1.6487   -2.4533 H   0  0  0  0  0  0  0  0  0  0  0  0
   -1.7127    3.2539   -1.5717 H   0  0  0  0  0  0  0  0  0  0  0  0
   -2.2599    3.2424    0.8420 H   0  0  0  0  0  0  0  0  0  0  0  0
   -1.1520    1.6481    2.3530 H   0  0  0  0  0  0  0  0  0  0  0  0
  1  2  1  0
  1  3  1  0
  1  4  1  0
  1  5  1  0
  2  6  1  0
  7  8  2  3
  7 14  1  0
  7 15  1  0
  8  9  1  0
  8 13  1  0
  9 10  1  0
  9 16  1  0
 10 11  2  0
 10 17  1  0
 11 12  1  0
 11 18  1  0
 12 13  2  0
 12 19  1  0
 13 20  1  0
M  RAD  1   9   2
M  END
>  <reaction>  (6) 
rxn_1827

>  <mol_properties>  (6) 
{"0": {"label": "*3", "atom_type": "Cs"}, "1": {"label": "*4", "atom_type": "S2s"}, "2": {"label": "*2", "atom_type": "H0"}, "6": {"label": "*1", "atom_type": "Cs"}, "7": {"label": "*0", "atom_type": "Cd"}}

>  <type>  (6) 
unop_2

>  <geom_source>  (6) 
Heuristics

$$$$

     RDKit          3D

 20 19  0  0  0  0  0  0  0  0999 V2000
    0.7488   -1.6936   -1.6352 C   0  0  0  0  0  0  0  0  0  0  0  0
    0.7488   -1.6936   -3.4458 S   0  0  0  0  0  0  0  0  0  0  0  0
    0.7488   -0.4777   -1.1594 H   0  0  0  0  0  0  0  0  0  0  0  0
   -0.1719   -2.1877   -1.3292 H   0  0  0  0  0  0  0  0  0  0  0  0
    1.5932   -2.2536   -1.2387 H   0  0  0  0  0  0  0  0  0  0  0  0
    1.9191   -1.0654   -3.6122 H   0  0  0  0  0  0  0  0  0  0  0  0
    0.7488    0.7409   -0.6825 C   0  0  0  0  0  0  0  0  0  0  0  0
    0.0485    0.8083    0.6465 C   0  0  0  0  0  0  0  0  0  0  0  0
   -1.2835    0.4257    0.7719 C   0  0  0  0  0  3  0  0  0  0  0  0
   -1.9406    0.5151    1.9893 C   0  0  0  0  0  0  0  0  0  0  0  0
   -1.2730    0.9897    3.1080 C   0  0  0  0  0  0  0  0  0  0  0  0
    0.0554    1.3711    2.9978 C   0  0  0  0  0  0  0  0  0  0  0  0
    0.7075    1.2795    1.7778 C   0  0  0  0  0  0  0  0  0  0  0  0
    1.8190    0.5713   -0.5589 H   0  0  0  0  0  0  0  0  0  0  0  0
    0.6253    1.6772   -1.2327 H   0  0  0  0  0  0  0  0  0  0  0  0
   -1.8128    0.0499   -0.0965 H   0  0  0  0  0  0  0  0  0  0  0  0
   -2.9769    0.2099    2.0648 H   0  0  0  0  0  0  0  0  0  0  0  0
   -1.7834    1.0579    4.0603 H   0  0  0  0  0  0  0  0  0  0  0  0
    0.5882    1.7388    3.8661 H   0  0  0  0  0  0  0  0  0  0  0  0
    1.7475    1.5768    1.7023 H   0  0  0  0  0  0  0  0  0  0  0  0
  1  2  1  0
  1  3  1  0
  1  4  1  0
  1  5  1  0
  2  6  1  0
  7  8  2  3
  7 14  1  0
  7 15  1  0
  8  9  1  0
  8 13  1  0
  9 10  1  0
  9 16  1  0
 10 11  2  0
 10 17  1  0
 11 12  1  0
 11 18  1  0
 12 13  2  0
 12 19  1  0
 13 20  1  0
M  RAD  1   9   2
M  END
>  <reaction>  (7) 
rxn_1827

>  <mol_properties>  (7) 
{"0": {"label": "*3", "atom_type": "Cs"}, "1": {"label": "*4", "atom_type": "S2s"}, "2": {"label": "*2", "atom_type": "H0"}, "6": {"label": "*1", "atom_type": "Cs"}, "7": {"label": "*0", "atom_type": "Cd"}}

>  <type>  (7) 
unop_3

>  <geom_source>  (7) 
Heuristics

$$$$

     RDKit          3D

 20 19  0  0  0  0  0  0  0  0999 V2000
   -1.3260   -2.4235    0.2680 C   0  0  0  0  0  0  0  0  0  0  0  0
   -1.3260   -2.4235   -1.5427 S   0  0  0  0  0  0  0  0  0  0  0  0
   -1.3260   -1.2077    0.7438 H   0  0  0  0  0  0  0  0  0  0  0  0
   -2.2466   -2.9176    0.5739 H   0  0  0  0  0  0  0  0  0  0  0  0
   -0.4816   -2.9835    0.6645 H   0  0  0  0  0  0  0  0  0  0  0  0
   -0.1556   -1.7954   -1.7091 H   0  0  0  0  0  0  0  0  0  0  0  0
   -1.3260    0.0110    1.2206 C   0  0  0  0  0  0  0  0  0  0  0  0
   -0.1129    0.7756    0.7678 C   0  0  0  0  0  0  0  0  0  0  0  0
    0.8234    0.1922   -0.0803 C   0  0  0  0  0  3  0  0  0  0  0  0
    1.9579    0.8841   -0.4753 C   0  0  0  0  0  0  0  0  0  0  0  0
    2.1757    2.1782   -0.0279 C   0  0  0  0  0  0  0  0  0  0  0  0
    1.2490    2.7727    0.8148 C   0  0  0  0  0  0  0  0  0  0  0  0
    0.1163    2.0761    1.2065 C   0  0  0  0  0  0  0  0  0  0  0  0
   -2.1640    0.6792    1.4217 H   0  0  0  0  0  0  0  0  0  0  0  0
   -1.1151   -0.5389    2.1414 H   0  0  0  0  0  0  0  0  0  0  0  0
    0.6599   -0.8181   -0.4382 H   0  0  0  0  0  0  0  0  0  0  0  0
    2.6727    0.4115   -1.1376 H   0  0  0  0  0  0  0  0  0  0  0  0
    3.0597    2.7213   -0.3372 H   0  0  0  0  0  0  0  0  0  0  0  0
    1.4065    3.7848    1.1666 H   0  0  0  0  0  0  0  0  0  0  0  0
   -0.6046    2.5507    1.8629 H   0  0  0  0  0  0  0  0  0  0  0  0
  1  2  1  0
  1  3  1  0
  1  4  1  0
  1  5  1  0
  2  6  1  0
  7  8  2  3
  7 14  1  0
  7 15  1  0
  8  9  1  0
  8 13  1  0
  9 10  1  0
  9 16  1  0
 10 11  2  0
 10 17  1  0
 11 12  1  0
 11 18  1  0
 12 13  2  0
 12 19  1  0
 13 20  1  0
M  RAD  1   9   2
M  END
>  <reaction>  (8) 
rxn_1827

>  <mol_properties>  (8) 
{"0": {"label": "*3", "atom_type": "Cs"}, "1": {"label": "*4", "atom_type": "S2s"}, "2": {"label": "*2", "atom_type": "H0"}, "6": {"label": "*1", "atom_type": "Cs"}, "7": {"label": "*0", "atom_type": "Cd"}}

>  <type>  (8) 
unop_4

>  <geom_source>  (8) 
Heuristics

$$$$

     RDKit          3D

 20 19  0  0  0  0  0  0  0  0999 V2000
    0.0063   -1.6142   -1.8252 C   0  0  0  0  0  0  0  0  0  0  0  0
    0.0063   -1.6142   -3.6359 S   0  0  0  0  0  0  0  0  0  0  0  0
    0.0063   -0.3984   -1.3495 H   0  0  0  0  0  0  0  0  0  0  0  0
   -0.9143   -2.1083   -1.5193 H   0  0  0  0  0  0  0  0  0  0  0  0
    0.8507   -2.1742   -1.4288 H   0  0  0  0  0  0  0  0  0  0  0  0
    1.1767   -0.9861   -3.8023 H   0  0  0  0  0  0  0  0  0  0  0  0
    0.0063    0.8203   -0.8726 C   0  0  0  0  0  0  0  0  0  0  0  0
    0.0063    0.8193    0.6312 C   0  0  0  0  0  0  0  0  0  0  0  0
   -0.5945   -0.2134    1.3445 C   0  0  0  0  0  3  0  0  0  0  0  0
   -0.6225   -0.2019    2.7305 C   0  0  0  0  0  0  0  0  0  0  0  0
   -0.0458    0.8470    3.4302 C   0  0  0  0  0  0  0  0  0  0  0  0
    0.5593    1.8807    2.7319 C   0  0  0  0  0  0  0  0  0  0  0  0
    0.5843    1.8640    1.3459 C   0  0  0  0  0  0  0  0  0  0  0  0
    0.8784    1.3415   -1.2690 H   0  0  0  0  0  0  0  0  0  0  0  0
   -0.8828    1.3251   -1.2590 H   0  0  0  0  0  0  0  0  0  0  0  0
   -1.0450   -1.0397    0.8062 H   0  0  0  0  0  0  0  0  0  0  0  0
   -1.0938   -1.0170    3.2657 H   0  0  0  0  0  0  0  0  0  0  0  0
   -0.0642    0.8568    4.5126 H   0  0  0  0  0  0  0  0  0  0  0  0
    1.0171    2.7027    3.2682 H   0  0  0  0  0  0  0  0  0  0  0  0
    1.0630    2.6750    0.8086 H   0  0  0  0  0  0  0  0  0  0  0  0
  1  2  1  0
  1  3  1  0
  1  4  1  0
  1  5  1  0
  2  6  1  0
  7  8  2  3
  7 14  1  0
  7 15  1  0
  8  9  1  0
  8 13  1  0
  9 10  1  0
  9 16  1  0
 10 11  2  0
 10 17  1  0
 11 12  1  0
 11 18  1  0
 12 13  2  0
 12 19  1  0
 13 20  1  0
M  RAD  1   9   2
M  END
>  <reaction>  (9) 
rxn_1827

>  <mol_properties>  (9) 
{"0": {"label": "*3", "atom_type": "Cs"}, "1": {"label": "*4", "atom_type": "S2s"}, "2": {"label": "*2", "atom_type": "H0"}, "6": {"label": "*1", "atom_type": "Cs"}, "7": {"label": "*0", "atom_type": "Cd"}}

>  <type>  (9) 
unop_5

>  <geom_source>  (9) 
Heuristics

$$$$

     RDKit          3D

 20 19  0  0  0  0  0  0  0  0999 V2000
   -1.5191   -2.1447   -0.4373 C   0  0  0  0  0  0  0  0  0  0  0  0
   -1.5191   -2.1447   -2.2480 S   0  0  0  0  0  0  0  0  0  0  0  0
   -1.5191   -0.9289    0.0384 H   0  0  0  0  0  0  0  0  0  0  0  0
   -2.4398   -2.6389   -0.1314 H   0  0  0  0  0  0  0  0  0  0  0  0
   -0.6748   -2.7047   -0.0409 H   0  0  0  0  0  0  0  0  0  0  0  0
   -0.3488   -1.5166   -2.4144 H   0  0  0  0  0  0  0  0  0  0  0  0
   -1.5191    0.2897    0.5153 C   0  0  0  0  0  0  0  0  0  0  0  0
   -0.1184    0.7992    0.7147 C   0  0  0  0  0  0  0  0  0  0  0  0
    0.9756    0.0876    0.2321 C   0  0  0  0  0  3  0  0  0  0  0  0
    2.2696    0.5393    0.4405 C   0  0  0  0  0  0  0  0  0  0  0  0
    2.4925    1.7170    1.1373 C   0  0  0  0  0  0  0  0  0  0  0  0
    1.4112    2.4377    1.6207 C   0  0  0  0  0  0  0  0  0  0  0  0
    0.1194    1.9812    1.4093 C   0  0  0  0  0  0  0  0  0  0  0  0
   -2.2364    1.1097    0.4671 H   0  0  0  0  0  0  0  0  0  0  0  0
   -1.8162   -0.3592    1.3432 H   0  0  0  0  0  0  0  0  0  0  0  0
    0.8111   -0.8327   -0.3171 H   0  0  0  0  0  0  0  0  0  0  0  0
    3.1065   -0.0293    0.0543 H   0  0  0  0  0  0  0  0  0  0  0  0
    3.5020    2.0730    1.2990 H   0  0  0  0  0  0  0  0  0  0  0  0
    1.5733    3.3615    2.1623 H   0  0  0  0  0  0  0  0  0  0  0  0
   -0.7201    2.5536    1.7880 H   0  0  0  0  0  0  0  0  0  0  0  0
  1  2  1  0
  1  3  1  0
  1  4  1  0
  1  5  1  0
  2  6  1  0
  7  8  2  3
  7 14  1  0
  7 15  1  0
  8  9  1  0
  8 13  1  0
  9 10  1  0
  9 16  1  0
 10 11  2  0
 10 17  1  0
 11 12  1  0
 11 18  1  0
 12 13  2  0
 12 19  1  0
 13 20  1  0
M  RAD  1   9   2
M  END
>  <reaction>  (10) 
rxn_1827

>  <mol_properties>  (10) 
{"0": {"label": "*3", "atom_type": "Cs"}, "1": {"label": "*4", "atom_type": "S2s"}, "2": {"label": "*2", "atom_type": "H0"}, "6": {"label": "*1", "atom_type": "Cs"}, "7": {"label": "*0", "atom_type": "Cd"}}

>  <type>  (10) 
unop_6

>  <geom_source>  (10) 
Heuristics

$$$$

     RDKit          3D

 20 19  0  0  0  0  0  0  0  0999 V2000
   -1.3063   -1.8702   -1.1384 C   0  0  0  0  0  0  0  0  0  0  0  0
   -1.3063   -1.8702   -2.9490 S   0  0  0  0  0  0  0  0  0  0  0  0
   -1.3063   -0.6544   -0.6626 H   0  0  0  0  0  0  0  0  0  0  0  0
   -2.2270   -2.3644   -0.8324 H   0  0  0  0  0  0  0  0  0  0  0  0
   -0.4619   -2.4302   -0.7419 H   0  0  0  0  0  0  0  0  0  0  0  0
   -0.1360   -1.2421   -3.1154 H   0  0  0  0  0  0  0  0  0  0  0  0
   -1.3063    0.5642   -0.1857 C   0  0  0  0  0  0  0  0  0  0  0  0
   -0.0933    0.8185    0.6658 C   0  0  0  0  0  0  0  0  0  0  0  0
    0.9539   -0.0969    0.7083 C   0  0  0  0  0  3  0  0  0  0  0  0
    2.0599    0.1202    1.5155 C   0  0  0  0  0  0  0  0  0  0  0  0
    2.1386    1.2630    2.2967 C   0  0  0  0  0  0  0  0  0  0  0  0
    1.1037    2.1851    2.2612 C   0  0  0  0  0  0  0  0  0  0  0  0
    0.0001    1.9627    1.4521 C   0  0  0  0  0  0  0  0  0  0  0  0
   -1.7607    1.4983   -0.5178 H   0  0  0  0  0  0  0  0  0  0  0  0
   -2.0637    0.0109    0.3754 H   0  0  0  0  0  0  0  0  0  0  0  0
    0.9030   -0.9918    0.0983 H   0  0  0  0  0  0  0  0  0  0  0  0
    2.8645   -0.6045    1.5317 H   0  0  0  0  0  0  0  0  0  0  0  0
    3.0025    1.4359    2.9257 H   0  0  0  0  0  0  0  0  0  0  0  0
    1.1567    3.0835    2.8635 H   0  0  0  0  0  0  0  0  0  0  0  0
   -0.8025    2.6913    1.4283 H   0  0  0  0  0  0  0  0  0  0  0  0
  1  2  1  0
  1  3  1  0
  1  4  1  0
  1  5  1  0
  2  6  1  0
  7  8  2  3
  7 14  1  0
  7 15  1  0
  8  9  1  0
  8 13  1  0
  9 10  1  0
  9 16  1  0
 10 11  2  0
 10 17  1  0
 11 12  1  0
 11 18  1  0
 12 13  2  0
 12 19  1  0
 13 20  1  0
M  RAD  1   9   2
M  END
>  <reaction>  (11) 
rxn_1827

>  <mol_properties>  (11) 
{"0": {"label": "*3", "atom_type": "Cs"}, "1": {"label": "*4", "atom_type": "S2s"}, "2": {"label": "*2", "atom_type": "H0"}, "6": {"label": "*1", "atom_type": "Cs"}, "7": {"label": "*0", "atom_type": "Cd"}}

>  <type>  (11) 
unop_7

>  <geom_source>  (11) 
Heuristics

$$$$

     RDKit          3D

 20 19  0  0  0  0  0  0  0  0999 V2000
    1.4967   -2.1685   -0.4229 C   0  0  0  0  0  0  0  0  0  0  0  0
    1.4967   -2.1685   -2.2336 S   0  0  0  0  0  0  0  0  0  0  0  0
    1.4967   -0.9527    0.0529 H   0  0  0  0  0  0  0  0  0  0  0  0
    0.5760   -2.6626   -0.1170 H   0  0  0  0  0  0  0  0  0  0  0  0
    2.3411   -2.7285   -0.0264 H   0  0  0  0  0  0  0  0  0  0  0  0
    2.6670   -1.5404   -2.4000 H   0  0  0  0  0  0  0  0  0  0  0  0
    1.4967    0.2660    0.5297 C   0  0  0  0  0  0  0  0  0  0  0  0
    0.0960    0.7754    0.7291 C   0  0  0  0  0  0  0  0  0  0  0  0
   -0.7208    1.0635   -0.3600 C   0  0  0  0  0  3  0  0  0  0  0  0
   -2.0018    1.5618   -0.1798 C   0  0  0  0  0  0  0  0  0  0  0  0
   -2.4909    1.7801    1.0991 C   0  0  0  0  0  0  0  0  0  0  0  0
   -1.6888    1.4940    2.1932 C   0  0  0  0  0  0  0  0  0  0  0  0
   -0.4085    0.9959    2.0070 C   0  0  0  0  0  0  0  0  0  0  0  0
    1.8116   -0.3649    1.3616 H   0  0  0  0  0  0  0  0  0  0  0  0
    2.2040    1.0963    0.4601 H   0  0  0  0  0  0  0  0  0  0  0  0
   -0.3484    0.8927   -1.3639 H   0  0  0  0  0  0  0  0  0  0  0  0
   -2.6213    1.7773   -1.0416 H   0  0  0  0  0  0  0  0  0  0  0  0
   -3.4919    2.1667    1.2422 H   0  0  0  0  0  0  0  0  0  0  0  0
   -2.0621    1.6561    3.1968 H   0  0  0  0  0  0  0  0  0  0  0  0
    0.2100    0.7717    2.8689 H   0  0  0  0  0  0  0  0  0  0  0  0
  1  2  1  0
  1  3  1  0
  1  4  1  0
  1  5  1  0
  2  6  1  0
  7  8  2  3
  7 14  1  0
  7 15  1  0
  8  9  1  0
  8 13  1  0
  9 10  1  0
  9 16  1  0
 10 11  2  0
 10 17  1  0
 11 12  1  0
 11 18  1  0
 12 13  2  0
 12 19  1  0
 13 20  1  0
M  RAD  1   9   2
M  END
>  <reaction>  (12) 
rxn_1827

>  <mol_properties>  (12) 
{"0": {"label": "*3", "atom_type": "Cs"}, "1": {"label": "*4", "atom_type": "S2s"}, "2": {"label": "*2", "atom_type": "H0"}, "6": {"label": "*1", "atom_type": "Cs"}, "7": {"label": "*0", "atom_type": "Cd"}}

>  <type>  (12) 
unop_8

>  <geom_source>  (12) 
Heuristics

$$$$

     RDKit          3D

 20 19  0  0  0  0  0  0  0  0999 V2000
   -0.7781   -2.6315    0.7876 C   0  0  0  0  0  0  0  0  0  0  0  0
   -0.7781   -2.6315   -1.0230 S   0  0  0  0  0  0  0  0  0  0  0  0
   -0.7781   -1.4156    1.2634 H   0  0  0  0  0  0  0  0  0  0  0  0
   -1.6988   -3.1256    1.0936 H   0  0  0  0  0  0  0  0  0  0  0  0
    0.0663   -3.1915    1.1841 H   0  0  0  0  0  0  0  0  0  0  0  0
    0.3922   -2.0033   -1.1894 H   0  0  0  0  0  0  0  0  0  0  0  0
   -0.7781   -0.1970    1.7403 C   0  0  0  0  0  0  0  0  0  0  0  0
   -0.0778    0.7545    0.8100 C   0  0  0  0  0  0  0  0  0  0  0  0
    0.6849    0.2818   -0.2536 C   0  0  0  0  0  3  0  0  0  0  0  0
    1.3563    1.1555   -1.0948 C   0  0  0  0  0  0  0  0  0  0  0  0
    1.2746    2.5239   -0.8867 C   0  0  0  0  0  0  0  0  0  0  0  0
    0.5153    3.0085    0.1673 C   0  0  0  0  0  0  0  0  0  0  0  0
   -0.1539    2.1301    1.0054 C   0  0  0  0  0  0  0  0  0  0  0  0
   -1.6803    0.2498    2.1593 H   0  0  0  0  0  0  0  0  0  0  0  0
   -0.1279   -0.4706    2.5751 H   0  0  0  0  0  0  0  0  0  0  0  0
    0.7518   -0.7865   -0.4265 H   0  0  0  0  0  0  0  0  0  0  0  0
    1.9426    0.7660   -1.9178 H   0  0  0  0  0  0  0  0  0  0  0  0
    1.7959    3.2082   -1.5439 H   0  0  0  0  0  0  0  0  0  0  0  0
    0.4406    4.0756    0.3365 H   0  0  0  0  0  0  0  0  0  0  0  0
   -0.7482    2.5187    1.8248 H   0  0  0  0  0  0  0  0  0  0  0  0
  1  2  1  0
  1  3  1  0
  1  4  1  0
  1  5  1  0
  2  6  1  0
  7  8  2  3
  7 14  1  0
  7 15  1  0
  8  9  1  0
  8 13  1  0
  9 10  1  0
  9 16  1  0
 10 11  2  0
 10 17  1  0
 11 12  1  0
 11 18  1  0
 12 13  2  0
 12 19  1  0
 13 20  1  0
M  RAD  1   9   2
M  END
>  <reaction>  (13) 
rxn_1827

>  <mol_properties>  (13) 
{"0": {"label": "*3", "atom_type": "Cs"}, "1": {"label": "*4", "atom_type": "S2s"}, "2": {"label": "*2", "atom_type": "H0"}, "6": {"label": "*1", "atom_type": "Cs"}, "7": {"label": "*0", "atom_type": "Cd"}}

>  <type>  (13) 
unop_9

>  <geom_source>  (13) 
Heuristics

$$$$

     RDKit          3D

 20 19  0  0  0  0  0  0  0  0999 V2000
    1.2932   -2.4432    0.2799 C   0  0  0  0  0  0  0  0  0  0  0  0
    1.2932   -2.4432   -1.5307 S   0  0  0  0  0  0  0  0  0  0  0  0
    1.2932   -1.2274    0.7557 H   0  0  0  0  0  0  0  0  0  0  0  0
    0.3725   -2.9373    0.5859 H   0  0  0  0  0  0  0  0  0  0  0  0
    2.1376   -3.0032    0.6764 H   0  0  0  0  0  0  0  0  0  0  0  0
    2.4635   -1.8151   -1.6971 H   0  0  0  0  0  0  0  0  0  0  0  0
    1.2932   -0.0087    1.2326 C   0  0  0  0  0  0  0  0  0  0  0  0
    0.0802    0.7559    0.7797 C   0  0  0  0  0  0  0  0  0  0  0  0
   -0.1460    1.0014   -0.5711 C   0  0  0  0  0  3  0  0  0  0  0  0
   -1.2474    1.7319   -0.9896 C   0  0  0  0  0  0  0  0  0  0  0  0
   -2.1468    2.2305   -0.0596 C   0  0  0  0  0  0  0  0  0  0  0  0
   -1.9353    1.9903    1.2894 C   0  0  0  0  0  0  0  0  0  0  0  0
   -0.8321    1.2592    1.7021 C   0  0  0  0  0  0  0  0  0  0  0  0
    1.1006   -0.5434    2.1633 H   0  0  0  0  0  0  0  0  0  0  0  0
    2.1332    0.6679    1.4094 H   0  0  0  0  0  0  0  0  0  0  0  0
    0.5499    0.6124   -1.3061 H   0  0  0  0  0  0  0  0  0  0  0  0
   -1.4052    1.9093   -2.0462 H   0  0  0  0  0  0  0  0  0  0  0  0
   -3.0090    2.7990   -0.3843 H   0  0  0  0  0  0  0  0  0  0  0  0
   -2.6338    2.3709    2.0243 H   0  0  0  0  0  0  0  0  0  0  0  0
   -0.6770    1.0734    2.7590 H   0  0  0  0  0  0  0  0  0  0  0  0
  1  2  1  0
  1  3  1  0
  1  4  1  0
  1  5  1  0
  2  6  1  0
  7  8  2  3
  7 14  1  0
  7 15  1  0
  8  9  1  0
  8 13  1  0
  9 10  1  0
  9 16  1  0
 10 11  2  0
 10 17  1  0
 11 12  1  0
 11 18  1  0
 12 13  2  0
 12 19  1  0
 13 20  1  0
M  RAD  1   9   2
M  END
>  <reaction>  (14) 
rxn_1827

>  <mol_properties>  (14) 
{"0": {"label": "*3", "atom_type": "Cs"}, "1": {"label": "*4", "atom_type": "S2s"}, "2": {"label": "*2", "atom_type": "H0"}, "6": {"label": "*1", "atom_type": "Cs"}, "7": {"label": "*0", "atom_type": "Cd"}}

>  <type>  (14) 
unop_10

>  <geom_source>  (14) 
Heuristics

$$$$

     RDKit          3D

 20 19  0  0  0  0  0  0  0  0999 V2000
   -0.7456   -1.6754   -1.6462 C   0  0  0  0  0  0  0  0  0  0  0  0
   -0.7456   -1.6754   -3.4568 S   0  0  0  0  0  0  0  0  0  0  0  0
   -0.7456   -0.4596   -1.1704 H   0  0  0  0  0  0  0  0  0  0  0  0
   -1.6662   -2.1696   -1.3402 H   0  0  0  0  0  0  0  0  0  0  0  0
    0.0988   -2.2354   -1.2497 H   0  0  0  0  0  0  0  0  0  0  0  0
    0.4247   -1.0473   -3.6232 H   0  0  0  0  0  0  0  0  0  0  0  0
   -0.7456    0.7590   -0.6935 C   0  0  0  0  0  0  0  0  0  0  0  0
   -0.0452    0.8264    0.6355 C   0  0  0  0  0  0  0  0  0  0  0  0
    0.4819   -0.3192    1.2237 C   0  0  0  0  0  3  0  0  0  0  0  0
    1.1014   -0.2652    2.4628 C   0  0  0  0  0  0  0  0  0  0  0  0
    1.2064    0.9416    3.1372 C   0  0  0  0  0  0  0  0  0  0  0  0
    0.6885    2.0914    2.5609 C   0  0  0  0  0  0  0  0  0  0  0  0
    0.0700    2.0315    1.3216 C   0  0  0  0  0  0  0  0  0  0  0  0
   -0.6476    1.6967   -1.2416 H   0  0  0  0  0  0  0  0  0  0  0  0
   -1.8130    0.5664   -0.5588 H   0  0  0  0  0  0  0  0  0  0  0  0
    0.4078   -1.2669    0.7023 H   0  0  0  0  0  0  0  0  0  0  0  0
    1.5066   -1.1688    2.9012 H   0  0  0  0  0  0  0  0  0  0  0  0
    1.6921    0.9865    4.1037 H   0  0  0  0  0  0  0  0  0  0  0  0
    0.7690    3.0403    3.0765 H   0  0  0  0  0  0  0  0  0  0  0  0
   -0.3288    2.9366    0.8773 H   0  0  0  0  0  0  0  0  0  0  0  0
  1  2  1  0
  1  3  1  0
  1  4  1  0
  1  5  1  0
  2  6  1  0
  7  8  2  3
  7 14  1  0
  7 15  1  0
  8  9  1  0
  8 13  1  0
  9 10  1  0
  9 16  1  0
 10 11  2  0
 10 17  1  0
 11 12  1  0
 11 18  1  0
 12 13  2  0
 12 19  1  0
 13 20  1  0
M  RAD  1   9   2
M  END
>  <reaction>  (15) 
rxn_1827

>  <mol_properties>  (15) 
{"0": {"label": "*3", "atom_type": "Cs"}, "1": {"label": "*4", "atom_type": "S2s"}, "2": {"label": "*2", "atom_type": "H0"}, "6": {"label": "*1", "atom_type": "Cs"}, "7": {"label": "*0", "atom_type": "Cd"}}

>  <type>  (15) 
unop_11

>  <geom_source>  (15) 
Heuristics

$$$$

     RDKit          3D

 20 19  0  0  0  0  0  0  0  0999 V2000
   -0.0222   -2.7123    0.9809 C   0  0  0  0  0  0  0  0  0  0  0  0
   -0.0222   -2.7123   -0.8298 S   0  0  0  0  0  0  0  0  0  0  0  0
   -0.0222   -1.4964    1.4566 H   0  0  0  0  0  0  0  0  0  0  0  0
   -0.9429   -3.2064    1.2868 H   0  0  0  0  0  0  0  0  0  0  0  0
    0.8222   -3.2723    1.3773 H   0  0  0  0  0  0  0  0  0  0  0  0
    1.1481   -2.0841   -0.9962 H   0  0  0  0  0  0  0  0  0  0  0  0
   -0.0222   -0.2778    1.9335 C   0  0  0  0  0  0  0  0  0  0  0  0
   -0.0222    0.7421    0.8285 C   0  0  0  0  0  0  0  0  0  0  0  0
    0.5787    0.4678   -0.3963 C   0  0  0  0  0  3  0  0  0  0  0  0
    0.6067    1.4170   -1.4064 C   0  0  0  0  0  0  0  0  0  0  0  0
    0.0300    2.6622   -1.2083 C   0  0  0  0  0  0  0  0  0  0  0  0
   -0.5751    2.9474    0.0061 C   0  0  0  0  0  0  0  0  0  0  0  0
   -0.6002    1.9944    1.0126 C   0  0  0  0  0  0  0  0  0  0  0  0
   -0.8942   -0.1640    2.5784 H   0  0  0  0  0  0  0  0  0  0  0  0
    0.8669   -0.1694    2.5599 H   0  0  0  0  0  0  0  0  0  0  0  0
    1.0291   -0.5044   -0.5618 H   0  0  0  0  0  0  0  0  0  0  0  0
    1.0779    1.1816   -2.3526 H   0  0  0  0  0  0  0  0  0  0  0  0
    0.0484    3.4040   -1.9966 H   0  0  0  0  0  0  0  0  0  0  0  0
   -1.0329    3.9151    0.1702 H   0  0  0  0  0  0  0  0  0  0  0  0
   -1.0789    2.2254    1.9577 H   0  0  0  0  0  0  0  0  0  0  0  0
  1  2  1  0
  1  3  1  0
  1  4  1  0
  1  5  1  0
  2  6  1  0
  7  8  2  3
  7 14  1  0
  7 15  1  0
  8  9  1  0
  8 13  1  0
  9 10  1  0
  9 16  1  0
 10 11  2  0
 10 17  1  0
 11 12  1  0
 11 18  1  0
 12 13  2  0
 12 19  1  0
 13 20  1  0
M  RAD  1   9   2
M  END
>  <reaction>  (16) 
rxn_1827

>  <mol_properties>  (16) 
{"0": {"label": "*3", "atom_type": "Cs"}, "1": {"label": "*4", "atom_type": "S2s"}, "2": {"label": "*2", "atom_type": "H0"}, "6": {"label": "*1", "atom_type": "Cs"}, "7": {"label": "*0", "atom_type": "Cd"}}

>  <type>  (16) 
unop_12

>  <geom_source>  (16) 
Heuristics

$$$$

     RDKit          3D

 20 19  0  0  0  0  0  0  0  0999 V2000
    3.0353    0.6856    2.1061 S   0  0  0  0  0  0  0  0  0  0  0  0
    1.0098   -0.2608   -1.0817 C   0  0  0  0  0  0  0  0  0  0  0  0
   -0.3868   -0.1639   -0.5472 C   0  0  0  0  0  0  0  0  0  0  0  0
   -1.4131    0.3731   -1.3409 C   0  0  0  0  0  0  0  0  0  0  0  0
   -0.6918   -0.6699    0.7262 C   0  0  0  0  0  0  0  0  0  0  0  0
   -2.7228    0.4297   -0.8533 C   0  0  0  0  0  0  0  0  0  0  0  0
   -2.0027   -0.6116    1.2105 C   0  0  0  0  0  0  0  0  0  0  0  0
   -3.0170   -0.0600    0.4224 C   0  0  0  0  0  0  0  0  0  0  0  0
    3.1263    0.0405    0.4129 C   0  0  0  0  0  3  0  0  0  0  0  0
    1.2316    0.5972   -1.7515 H   0  0  0  0  0  0  0  0  0  0  0  0
    1.1224   -1.2061   -1.6525 H   0  0  0  0  0  0  0  0  0  0  0  0
    1.8951   -0.2464   -0.0833 H   0  0  0  0  0  0  0  0  0  0  0  0
   -1.1995    0.7476   -2.3345 H   0  0  0  0  0  0  0  0  0  0  0  0
    0.0825   -1.1088    1.3432 H   0  0  0  0  0  0  0  0  0  0  0  0
   -3.5101    0.8498   -1.4657 H   0  0  0  0  0  0  0  0  0  0  0  0
   -2.2330   -0.9976    2.1951 H   0  0  0  0  0  0  0  0  0  0  0  0
   -4.0311   -0.0168    0.7981 H   0  0  0  0  0  0  0  0  0  0  0  0
    3.6004   -0.9624    0.4249 H   0  0  0  0  0  0  0  0  0  0  0  0
    3.7318    0.7267   -0.2147 H   0  0  0  0  0  0  0  0  0  0  0  0
    2.3728    1.8542    1.6861 H   0  0  0  0  0  0  0  0  0  0  0  0
  1  9  1  0
  1 20  1  0
  2  3  1  0
  2 10  1  0
  2 11  1  0
  2 12  1  0
  3  4  2  0
  3  5  1  0
  4  6  1  0
  4 13  1  0
  5  7  2  0
  5 14  1  0
  6  8  2  0
  6 15  1  0
  7  8  1  0
  7 16  1  0
  8 17  1  0
  9 18  1  0
  9 19  1  0
M  RAD  1   9   2
M  END
>  <reaction>  (17) 
rxn_1827

>  <mol_properties>  (17) 
{"0": {"label": "*3", "atom_type": "Cs"}, "1": {"label": "*4", "atom_type": "S2s"}, "2": {"label": "*2", "atom_type": "H0"}, "6": {"label": "*1", "atom_type": "Cs"}, "7": {"label": "*0", "atom_type": "Cd"}}

>  <type>  (17) 
unop_13

>  <geom_source>  (17) 
AutoTST

$$$$
