
     RDKit          3D

 25 26  0  0  0  0  0  0  0  0999 V2000
    2.0298   -1.1515    0.0571 C   0  0  0  0  0  0  0  0  0  0  0  0
    2.2278    0.2445    0.6528 C   0  0  0  0  0  0  0  0  0  0  0  0
    1.2292    1.2625    0.0947 C   0  0  0  0  0  0  0  0  0  0  0  0
   -0.1869    0.7454    0.2762 C   0  0  0  0  0  0  0  0  0  0  0  0
   -1.3415    1.5501   -0.3122 C   0  0  0  0  0  0  0  0  0  0  0  0
   -2.5060    0.5338   -0.4178 C   0  0  0  0  0  0  0  0  0  0  0  0
   -1.8709   -0.8658   -0.2234 C   0  0  0  0  0  0  0  0  0  0  0  0
   -0.3715   -0.6265   -0.3693 C   0  0  0  0  0  0  0  0  0  0  0  0
    0.5898   -1.6500    0.2086 C   0  0  0  0  0  0  0  0  0  0  0  0
    2.2820   -1.1226   -1.0088 H   0  0  0  0  0  0  0  0  0  0  0  0
    2.7243   -1.8549    0.5221 H   0  0  0  0  0  0  0  0  0  0  0  0
    2.1030    0.1885    1.7400 H   0  0  0  0  0  0  0  0  0  0  0  0
    3.2514    0.5819    0.4743 H   0  0  0  0  0  0  0  0  0  0  0  0
    1.3611    2.2304    0.5855 H   0  0  0  0  0  0  0  0  0  0  0  0
    1.4198    1.4194   -0.9737 H   0  0  0  0  0  0  0  0  0  0  0  0
   -0.3675    0.6209    1.3539 H   0  0  0  0  0  0  0  0  0  0  0  0
   -1.5992    2.4249    0.2862 H   0  0  0  0  0  0  0  0  0  0  0  0
   -1.0595    1.9116   -1.3055 H   0  0  0  0  0  0  0  0  0  0  0  0
   -3.2666    0.7244    0.3399 H   0  0  0  0  0  0  0  0  0  0  0  0
   -3.0030    0.6112   -1.3853 H   0  0  0  0  0  0  0  0  0  0  0  0
   -2.2549   -1.6039   -0.9288 H   0  0  0  0  0  0  0  0  0  0  0  0
   -2.0796   -1.2429    0.7821 H   0  0  0  0  0  0  0  0  0  0  0  0
   -0.1432   -0.5121   -1.4391 H   0  0  0  0  0  0  0  0  0  0  0  0
    0.4720   -2.6209   -0.2799 H   0  0  0  0  0  0  0  0  0  0  0  0
    0.3601   -1.7986    1.2704 H   0  0  0  0  0  0  0  0  0  0  0  0
  1  2  1  0
  1  9  1  0
  1 10  1  0
  1 11  1  0
  2  3  1  0
  2 12  1  0
  2 13  1  0
  3  4  1  0
  3 14  1  0
  3 15  1  0
  4  5  1  0
  4  8  1  0
  4 16  1  0
  5  6  1  0
  5 17  1  0
  5 18  1  0
  6  7  1  0
  6 19  1  0
  6 20  1  0
  7  8  1  0
  7 21  1  0
  7 22  1  0
  8  9  1  0
  8 23  1  0
  9 24  1  0
  9 25  1  0
M  END
>  <reaction>  (1) 
rxn_614

>  <mol_properties>  (1) 
{"5": {"label": "donator", "atom_type": "Cs"}, "18": {"label": "d_hydrogen", "atom_type": "H0"}}

>  <type>  (1) 
r1h

$$$$

     RDKit          3D

 17 17  0  0  0  0  0  0  0  0999 V2000
    2.7069    0.2860   -0.1817 C   0  0  0  0  0  0  0  0  0  0  0  0
    1.6304   -0.7245    0.0085 C   0  0  0  0  0  0  0  0  0  0  0  0
    1.4786   -1.8800   -0.7837 C   0  0  0  0  0  0  0  0  0  0  0  0
    0.4231   -2.7891   -0.5312 C   0  0  0  0  0  3  0  0  0  0  0  0
    0.2582   -3.9235   -1.2940 C   0  0  0  0  0  0  0  0  0  0  0  0
    1.1348   -4.2030   -2.3401 C   0  0  0  0  0  0  0  0  0  0  0  0
    2.1804   -3.3260   -2.6093 C   0  0  0  0  0  0  0  0  0  0  0  0
    2.3549   -2.1866   -1.8513 C   0  0  0  0  0  0  0  0  0  0  0  0
    2.6698    0.7343   -1.1808 H   0  0  0  0  0  0  0  0  0  0  0  0
    3.7029   -0.1584   -0.0766 H   0  0  0  0  0  0  0  0  0  0  0  0
    2.6250    1.0917    0.5463 H   0  0  0  0  0  0  0  0  0  0  0  0
    0.9136   -0.5677    0.8059 H   0  0  0  0  0  0  0  0  0  0  0  0
   -0.2629   -2.5783    0.2811 H   0  0  0  0  0  0  0  0  0  0  0  0
   -0.5582   -4.6017   -1.0785 H   0  0  0  0  0  0  0  0  0  0  0  0
    1.0033   -5.0952   -2.9384 H   0  0  0  0  0  0  0  0  0  0  0  0
    2.8650   -3.5382   -3.4214 H   0  0  0  0  0  0  0  0  0  0  0  0
    3.1750   -1.5169   -2.0772 H   0  0  0  0  0  0  0  0  0  0  0  0
  1  2  1  0
  1  9  1  0
  1 10  1  0
  1 11  1  0
  2  3  2  3
  2 12  1  0
  3  4  1  0
  3  8  1  0
  4  5  1  0
  4 13  1  0
  5  6  2  0
  5 14  1  0
  6  7  1  0
  6 15  1  0
  7  8  2  0
  7 16  1  0
  8 17  1  0
M  RAD  1   4   2
M  END
>  <reaction>  (2) 
rxn_614

>  <mol_properties>  (2) 
{"1": {"label": "acceptor", "atom_type": "Cs"}}

>  <type>  (2) 
r2

$$$$

     RDKit          3D

 18 18  0  0  0  0  0  0  0  0999 V2000
   -2.4852    0.3210   -0.3966 C   0  0  0  0  0  0  0  0  0  0  0  0
   -1.5917   -0.2708    0.6941 C   0  0  0  0  0  0  0  0  0  0  0  0
   -0.1292   -0.1692    0.3493 C   0  0  0  0  0  0  0  0  0  0  0  0
    0.6099    0.9558    0.7015 C   0  0  0  0  0  0  0  0  0  0  0  0
    1.9447    1.0728    0.3458 C   0  0  0  0  0  0  0  0  0  0  0  0
    2.5646    0.0613   -0.3720 C   0  0  0  0  0  0  0  0  0  0  0  0
    1.8399   -1.0657   -0.7287 C   0  0  0  0  0  0  0  0  0  0  0  0
    0.5055   -1.1769   -0.3700 C   0  0  0  0  0  0  0  0  0  0  0  0
   -2.3325   -0.1971   -1.3452 H   0  0  0  0  0  0  0  0  0  0  0  0
   -2.2554    1.3763   -0.5546 H   0  0  0  0  0  0  0  0  0  0  0  0
   -3.5397    0.2376   -0.1280 H   0  0  0  0  0  0  0  0  0  0  0  0
   -1.7801    0.2462    1.6380 H   0  0  0  0  0  0  0  0  0  0  0  0
   -1.8568   -1.3190    0.8516 H   0  0  0  0  0  0  0  0  0  0  0  0
    0.1327    1.7497    1.2656 H   0  0  0  0  0  0  0  0  0  0  0  0
    2.5033    1.9550    0.6330 H   0  0  0  0  0  0  0  0  0  0  0  0
    3.6077    0.1491   -0.6484 H   0  0  0  0  0  0  0  0  0  0  0  0
    2.3163   -1.8632   -1.2854 H   0  0  0  0  0  0  0  0  0  0  0  0
   -0.0540   -2.0629   -0.6500 H   0  0  0  0  0  0  0  0  0  0  0  0
  1  2  1  0
  1  9  1  0
  1 10  1  0
  1 11  1  0
  2  3  1  0
  2 12  1  0
  2 13  1  0
  3  4  2  0
  3  8  1  0
  4  5  1  0
  4 14  1  0
  5  6  2  0
  5 15  1  0
  6  7  1  0
  6 16  1  0
  7  8  2  0
  7 17  1  0
  8 18  1  0
M  END
>  <reaction>  (3) 
rxn_614

>  <mol_properties>  (3) 
{"1": {"label": "acceptor", "atom_type": "Cs"}, "17": {"label": "a_hydrogen", "atom_type": "H0"}}

>  <type>  (3) 
r2h

$$$$

     RDKit          3D

 42 43  0  0  0  0  0  0  0  0999 V2000
    1.1816    2.6453    2.5261 C   0  0  0  0  0  0  0  0  0  0  0  0
    0.9294    2.2627    1.0878 C   0  0  0  0  0  0  0  0  0  0  0  0
   -0.4276    1.8640    0.6758 C   0  0  0  0  0  0  0  0  0  0  0  0
   -0.7741    1.8791   -0.6799 C   0  0  0  0  0  0  0  0  0  0  0  0
   -1.9847    1.3758   -1.1189 C   0  0  0  0  0  0  0  0  0  0  0  0
   -2.8920    0.8466   -0.2104 C   0  0  0  0  0  0  0  0  0  0  0  0
   -2.5774    0.8485    1.1401 C   0  0  0  0  0  0  0  0  0  0  0  0
   -1.3640    1.3538    1.5785 C   0  0  0  0  0  0  0  0  0  0  0  0
    0.9775    1.8159    3.2069 H   0  0  0  0  0  0  0  0  0  0  0  0
    0.5588    3.4892    2.8369 H   0  0  0  0  0  0  0  0  0  0  0  0
    2.2255    2.9280    2.6658 H   0  0  0  0  0  0  0  0  0  0  0  0
    1.3883    2.9498    0.3768 H   0  0  0  0  0  0  0  0  0  0  0  0
   -0.0678    2.2796   -1.3985 H   0  0  0  0  0  0  0  0  0  0  0  0
   -2.2222    1.3922   -2.1755 H   0  0  0  0  0  0  0  0  0  0  0  0
   -3.8376    0.4455   -0.5517 H   0  0  0  0  0  0  0  0  0  0  0  0
   -3.2817    0.4493    1.8596 H   0  0  0  0  0  0  0  0  0  0  0  0
   -1.1366    1.3347    2.6367 H   0  0  0  0  0  0  0  0  0  0  0  0
   -0.2238   -3.0883   -2.0077 C   0  0  0  0  0  0  0  0  0  0  0  0
   -1.1049   -3.0757   -0.7554 C   0  0  0  0  0  0  0  0  0  0  0  0
   -0.3020   -2.8004    0.5197 C   0  0  0  0  0  0  0  0  0  0  0  0
    0.4822   -1.5148    0.3417 C   0  0  0  0  0  0  0  0  0  0  0  0
    1.4116   -1.0396    1.4533 C   0  0  0  0  0  0  0  0  0  0  0  0
    2.3022   -0.0314    0.7460 C   0  0  0  0  0  3  0  0  0  0  0  0
    2.2519   -0.3114   -0.7520 C   0  0  0  0  0  0  0  0  0  0  0  0
    1.4097   -1.5863   -0.8707 C   0  0  0  0  0  0  0  0  0  0  0  0
    0.6172   -1.8154   -2.1457 C   0  0  0  0  0  0  0  0  0  0  0  0
    0.4500   -3.9514   -1.9605 H   0  0  0  0  0  0  0  0  0  0  0  0
   -0.8452   -3.2276   -2.8954 H   0  0  0  0  0  0  0  0  0  0  0  0
   -1.8634   -2.2920   -0.8612 H   0  0  0  0  0  0  0  0  0  0  0  0
   -1.6407   -4.0240   -0.6707 H   0  0  0  0  0  0  0  0  0  0  0  0
   -0.9736   -2.7324    1.3797 H   0  0  0  0  0  0  0  0  0  0  0  0
    0.3878   -3.6305    0.7147 H   0  0  0  0  0  0  0  0  0  0  0  0
   -0.2403   -0.7144    0.1476 H   0  0  0  0  0  0  0  0  0  0  0  0
    0.8756   -0.6104    2.3045 H   0  0  0  0  0  0  0  0  0  0  0  0
    2.0044   -1.8791    1.8385 H   0  0  0  0  0  0  0  0  0  0  0  0
    1.6464    1.1850    0.9091 H   0  0  0  0  0  0  0  0  0  0  0  0
    3.2738    0.1733    1.1892 H   0  0  0  0  0  0  0  0  0  0  0  0
    3.2445   -0.4171   -1.1943 H   0  0  0  0  0  0  0  0  0  0  0  0
    1.7565    0.5099   -1.2841 H   0  0  0  0  0  0  0  0  0  0  0  0
    2.0753   -2.4483   -0.7212 H   0  0  0  0  0  0  0  0  0  0  0  0
    1.2766   -1.8905   -3.0147 H   0  0  0  0  0  0  0  0  0  0  0  0
   -0.0400   -0.9538   -2.3127 H   0  0  0  0  0  0  0  0  0  0  0  0
  1  2  1  0
  1  9  1  0
  1 10  1  0
  1 11  1  0
  2  3  1  0
  2 12  1  0
  2 36  1  0
  3  4  2  0
  3  8  1  0
  4  5  1  0
  4 13  1  0
  5  6  2  0
  5 14  1  0
  6  7  1  0
  6 15  1  0
  7  8  2  0
  7 16  1  0
  8 17  1  0
 18 19  1  0
 18 26  1  0
 18 27  1  0
 18 28  1  0
 19 20  1  0
 19 29  1  0
 19 30  1  0
 20 21  1  0
 20 31  1  0
 20 32  1  0
 21 22  1  0
 21 25  1  0
 21 33  1  0
 22 23  1  0
 22 34  1  0
 22 35  1  0
 23 24  1  0
 23 37  1  0
 24 25  1  0
 24 38  1  0
 24 39  1  0
 25 26  1  0
 25 40  1  0
 26 41  1  0
 26 42  1  0
M  RAD  1  23   2
M  END
>  <reaction>  (4) 
rxn_614

>  <mol_properties>  (4) 
{"1": {"label": "*1", "atom_type": "Cs"}, "2": {"label": "*0", "atom_type": "Cd"}, "21": {"label": "*4", "atom_type": "Cs"}, "22": {"label": "*3", "atom_type": "Cs"}, "35": {"label": "*2", "atom_type": "H0"}}

>  <type>  (4) 
ts

$$$$

     RDKit          3D

 42 43  0  0  0  0  0  0  0  0999 V2000
    1.7531    3.2517   -0.3356 C   0  0  0  0  0  0  0  0  0  0  0  0
    0.7160    2.1407   -0.1667 C   0  0  0  0  0  0  0  0  0  0  0  0
   -0.3442    2.4998    0.8409 C   0  0  0  0  0  0  0  0  0  0  0  0
   -1.4967    3.1757    0.4529 C   0  0  0  0  0  3  0  0  0  0  0  0
   -2.4533    3.5483    1.3846 C   0  0  0  0  0  0  0  0  0  0  0  0
   -2.2711    3.2494    2.7263 C   0  0  0  0  0  0  0  0  0  0  0  0
   -1.1273    2.5754    3.1265 C   0  0  0  0  0  0  0  0  0  0  0  0
   -0.1744    2.2055    2.1900 C   0  0  0  0  0  0  0  0  0  0  0  0
    2.2542    3.4603    0.6114 H   0  0  0  0  0  0  0  0  0  0  0  0
    1.2786    4.1761   -0.6702 H   0  0  0  0  0  0  0  0  0  0  0  0
    2.5115    2.9722   -1.0690 H   0  0  0  0  0  0  0  0  0  0  0  0
    0.2464    1.9327   -1.1311 H   0  0  0  0  0  0  0  0  0  0  0  0
   -1.6477    3.4102   -0.5952 H   0  0  0  0  0  0  0  0  0  0  0  0
   -3.3453    4.0705    1.0614 H   0  0  0  0  0  0  0  0  0  0  0  0
   -3.0180    3.5368    3.4554 H   0  0  0  0  0  0  0  0  0  0  0  0
   -0.9779    2.3334    4.1715 H   0  0  0  0  0  0  0  0  0  0  0  0
    0.7162    1.6758    2.5102 H   0  0  0  0  0  0  0  0  0  0  0  0
   -0.4676   -4.3978   -1.8216 C   0  0  0  0  0  0  0  0  0  0  0  0
   -0.4676   -4.3978   -0.2910 C   0  0  0  0  0  0  0  0  0  0  0  0
    0.6755   -3.5614    0.2910 C   0  0  0  0  0  0  0  0  0  0  0  0
    0.6359   -2.1604   -0.2931 C   0  0  0  0  0  0  0  0  0  0  0  0
    1.7550   -1.1866    0.0623 C   0  0  0  0  0  0  0  0  0  0  0  0
    1.7050   -0.1161   -1.0563 C   0  0  0  0  0  0  0  0  0  0  0  0
    0.8115   -0.7079   -2.1749 C   0  0  0  0  0  0  0  0  0  0  0  0
    0.6864   -2.1860   -1.8195 C   0  0  0  0  0  0  0  0  0  0  0  0
   -0.4676   -2.9813   -2.4036 C   0  0  0  0  0  0  0  0  0  0  0  0
    0.4248   -4.9246   -2.1775 H   0  0  0  0  0  0  0  0  0  0  0  0
   -1.3285   -4.9589   -2.1923 H   0  0  0  0  0  0  0  0  0  0  0  0
   -1.4197   -3.9886    0.0649 H   0  0  0  0  0  0  0  0  0  0  0  0
   -0.4121   -5.4239    0.0797 H   0  0  0  0  0  0  0  0  0  0  0  0
    0.6083   -3.5354    1.3819 H   0  0  0  0  0  0  0  0  0  0  0  0
    1.6370   -4.0265    0.0430 H   0  0  0  0  0  0  0  0  0  0  0  0
   -0.3229   -1.7016   -0.0106 H   0  0  0  0  0  0  0  0  0  0  0  0
    1.6461   -0.7587    1.0598 H   0  0  0  0  0  0  0  0  0  0  0  0
    2.7126   -1.7152    0.0419 H   0  0  0  0  0  0  0  0  0  0  0  0
    1.2110    1.0112   -0.6120 H   0  0  0  0  0  0  0  0  0  0  0  0
    2.7062    0.1064   -1.4265 H   0  0  0  0  0  0  0  0  0  0  0  0
    1.2211   -0.5430   -3.1723 H   0  0  0  0  0  0  0  0  0  0  0  0
   -0.1805   -0.2472   -2.1545 H   0  0  0  0  0  0  0  0  0  0  0  0
    1.6229   -2.6889   -2.1020 H   0  0  0  0  0  0  0  0  0  0  0  0
   -0.4070   -3.0203   -3.4944 H   0  0  0  0  0  0  0  0  0  0  0  0
   -1.4108   -2.4800   -2.1555 H   0  0  0  0  0  0  0  0  0  0  0  0
  1  2  1  0
  1  9  1  0
  1 10  1  0
  1 11  1  0
  2  3  2  3
  2 12  1  0
  3  4  1  0
  3  8  1  0
  4  5  1  0
  4 13  1  0
  5  6  2  0
  5 14  1  0
  6  7  1  0
  6 15  1  0
  7  8  2  0
  7 16  1  0
  8 17  1  0
 18 19  1  0
 18 26  1  0
 18 27  1  0
 18 28  1  0
 19 20  1  0
 19 29  1  0
 19 30  1  0
 20 21  1  0
 20 31  1  0
 20 32  1  0
 21 22  1  0
 21 25  1  0
 21 33  1  0
 22 23  1  0
 22 34  1  0
 22 35  1  0
 23 24  1  0
 23 36  1  0
 23 37  1  0
 24 25  1  0
 24 38  1  0
 24 39  1  0
 25 26  1  0
 25 40  1  0
 26 41  1  0
 26 42  1  0
M  RAD  1   4   2
M  END
>  <reaction>  (5) 
rxn_614

>  <mol_properties>  (5) 
{"1": {"label": "*1", "atom_type": "Cs"}, "2": {"label": "*0", "atom_type": "Cd"}, "21": {"label": "*4", "atom_type": "Cs"}, "22": {"label": "*3", "atom_type": "Cs"}, "35": {"label": "*2", "atom_type": "H0"}}

>  <type>  (5) 
unop_1

>  <geom_source>  (5) 
Heuristics

$$$$

     RDKit          3D

 42 43  0  0  0  0  0  0  0  0999 V2000
    1.3209    2.2959    2.0627 C   0  0  0  0  0  0  0  0  0  0  0  0
    0.9900    2.1464    0.5773 C   0  0  0  0  0  0  0  0  0  0  0  0
   -0.4069    2.6084    0.2558 C   0  0  0  0  0  0  0  0  0  0  0  0
   -0.6602    3.9355   -0.0763 C   0  0  0  0  0  3  0  0  0  0  0  0
   -1.9510    4.3743   -0.3280 C   0  0  0  0  0  0  0  0  0  0  0  0
   -3.0145    3.4879   -0.2508 C   0  0  0  0  0  0  0  0  0  0  0  0
   -2.7760    2.1622    0.0783 C   0  0  0  0  0  0  0  0  0  0  0  0
   -1.4830    1.7295    0.3289 C   0  0  0  0  0  0  0  0  0  0  0  0
    0.6306    1.7111    2.6735 H   0  0  0  0  0  0  0  0  0  0  0  0
    1.2376    3.3386    2.3746 H   0  0  0  0  0  0  0  0  0  0  0  0
    2.3362    1.9561    2.2746 H   0  0  0  0  0  0  0  0  0  0  0  0
    1.7082    2.7193   -0.0141 H   0  0  0  0  0  0  0  0  0  0  0  0
    0.1669    4.6340   -0.1416 H   0  0  0  0  0  0  0  0  0  0  0  0
   -2.1264    5.4107   -0.5887 H   0  0  0  0  0  0  0  0  0  0  0  0
   -4.0231    3.8275   -0.4498 H   0  0  0  0  0  0  0  0  0  0  0  0
   -3.5995    1.4612    0.1368 H   0  0  0  0  0  0  0  0  0  0  0  0
   -1.3040    0.6904    0.5828 H   0  0  0  0  0  0  0  0  0  0  0  0
   -0.1936   -4.3921   -1.0775 C   0  0  0  0  0  0  0  0  0  0  0  0
   -0.1936   -4.3921    0.4531 C   0  0  0  0  0  0  0  0  0  0  0  0
    0.9495   -3.5557    1.0351 C   0  0  0  0  0  0  0  0  0  0  0  0
    0.9099   -2.1547    0.4510 C   0  0  0  0  0  0  0  0  0  0  0  0
    2.0290   -1.1809    0.8064 C   0  0  0  0  0  0  0  0  0  0  0  0
    1.9790   -0.1103   -0.3122 C   0  0  0  0  0  0  0  0  0  0  0  0
    1.0855   -0.7022   -1.4308 C   0  0  0  0  0  0  0  0  0  0  0  0
    0.9604   -2.1803   -1.0754 C   0  0  0  0  0  0  0  0  0  0  0  0
   -0.1936   -2.9756   -1.6595 C   0  0  0  0  0  0  0  0  0  0  0  0
    0.6988   -4.9189   -1.4334 H   0  0  0  0  0  0  0  0  0  0  0  0
   -1.0545   -4.9531   -1.4482 H   0  0  0  0  0  0  0  0  0  0  0  0
   -1.1457   -3.9829    0.8090 H   0  0  0  0  0  0  0  0  0  0  0  0
   -0.1381   -5.4181    0.8238 H   0  0  0  0  0  0  0  0  0  0  0  0
    0.8823   -3.5297    2.1259 H   0  0  0  0  0  0  0  0  0  0  0  0
    1.9110   -4.0208    0.7870 H   0  0  0  0  0  0  0  0  0  0  0  0
   -0.0489   -1.6958    0.7335 H   0  0  0  0  0  0  0  0  0  0  0  0
    1.9201   -0.7530    1.8038 H   0  0  0  0  0  0  0  0  0  0  0  0
    2.9866   -1.7094    0.7860 H   0  0  0  0  0  0  0  0  0  0  0  0
    1.4850    1.0169    0.1321 H   0  0  0  0  0  0  0  0  0  0  0  0
    2.9802    0.1121   -0.6825 H   0  0  0  0  0  0  0  0  0  0  0  0
    1.4951   -0.5373   -2.4283 H   0  0  0  0  0  0  0  0  0  0  0  0
    0.0935   -0.2414   -1.4104 H   0  0  0  0  0  0  0  0  0  0  0  0
    1.8969   -2.6832   -1.3579 H   0  0  0  0  0  0  0  0  0  0  0  0
   -0.1330   -3.0146   -2.7503 H   0  0  0  0  0  0  0  0  0  0  0  0
   -1.1368   -2.4743   -1.4115 H   0  0  0  0  0  0  0  0  0  0  0  0
  1  2  1  0
  1  9  1  0
  1 10  1  0
  1 11  1  0
  2  3  2  3
  2 12  1  0
  3  4  1  0
  3  8  1  0
  4  5  1  0
  4 13  1  0
  5  6  2  0
  5 14  1  0
  6  7  1  0
  6 15  1  0
  7  8  2  0
  7 16  1  0
  8 17  1  0
 18 19  1  0
 18 26  1  0
 18 27  1  0
 18 28  1  0
 19 20  1  0
 19 29  1  0
 19 30  1  0
 20 21  1  0
 20 31  1  0
 20 32  1  0
 21 22  1  0
 21 25  1  0
 21 33  1  0
 22 23  1  0
 22 34  1  0
 22 35  1  0
 23 24  1  0
 23 36  1  0
 23 37  1  0
 24 25  1  0
 24 38  1  0
 24 39  1  0
 25 26  1  0
 25 40  1  0
 26 41  1  0
 26 42  1  0
M  RAD  1   4   2
M  END
>  <reaction>  (6) 
rxn_614

>  <mol_properties>  (6) 
{"1": {"label": "*1", "atom_type": "Cs"}, "2": {"label": "*0", "atom_type": "Cd"}, "21": {"label": "*4", "atom_type": "Cs"}, "22": {"label": "*3", "atom_type": "Cs"}, "35": {"label": "*2", "atom_type": "H0"}}

>  <type>  (6) 
unop_2

>  <geom_source>  (6) 
Heuristics

$$$$

     RDKit          3D

 42 43  0  0  0  0  0  0  0  0999 V2000
    0.8964    3.2858   -1.1670 C   0  0  0  0  0  0  0  0  0  0  0  0
    0.2853    2.1208   -0.3875 C   0  0  0  0  0  0  0  0  0  0  0  0
   -0.0687    2.5044    1.0252 C   0  0  0  0  0  0  0  0  0  0  0  0
   -1.3180    3.0369    1.3277 C   0  0  0  0  0  3  0  0  0  0  0  0
   -1.6311    3.4337    2.6186 C   0  0  0  0  0  0  0  0  0  0  0  0
   -0.6945    3.3038    3.6328 C   0  0  0  0  0  0  0  0  0  0  0  0
    0.5542    2.7738    3.3453 C   0  0  0  0  0  0  0  0  0  0  0  0
    0.8613    2.3788    2.0524 C   0  0  0  0  0  0  0  0  0  0  0  0
    1.8081    3.6397   -0.6823 H   0  0  0  0  0  0  0  0  0  0  0  0
    0.2003    4.1252   -1.2170 H   0  0  0  0  0  0  0  0  0  0  0  0
    1.1455    2.9876   -2.1869 H   0  0  0  0  0  0  0  0  0  0  0  0
   -0.6103    1.7681   -0.9044 H   0  0  0  0  0  0  0  0  0  0  0  0
   -2.0568    3.1387    0.5403 H   0  0  0  0  0  0  0  0  0  0  0  0
   -2.6106    3.8423    2.8339 H   0  0  0  0  0  0  0  0  0  0  0  0
   -0.9377    3.6102    4.6422 H   0  0  0  0  0  0  0  0  0  0  0  0
    1.2910    2.6641    4.1314 H   0  0  0  0  0  0  0  0  0  0  0  0
    1.8390    1.9623    1.8359 H   0  0  0  0  0  0  0  0  0  0  0  0
   -0.8983   -4.4177   -2.0423 C   0  0  0  0  0  0  0  0  0  0  0  0
   -0.8983   -4.4177   -0.5117 C   0  0  0  0  0  0  0  0  0  0  0  0
    0.2448   -3.5813    0.0703 C   0  0  0  0  0  0  0  0  0  0  0  0
    0.2052   -2.1803   -0.5138 C   0  0  0  0  0  0  0  0  0  0  0  0
    1.3243   -1.2065   -0.1584 C   0  0  0  0  0  0  0  0  0  0  0  0
    1.2743   -0.1360   -1.2770 C   0  0  0  0  0  0  0  0  0  0  0  0
    0.3808   -0.7278   -2.3956 C   0  0  0  0  0  0  0  0  0  0  0  0
    0.2557   -2.2059   -2.0402 C   0  0  0  0  0  0  0  0  0  0  0  0
   -0.8983   -3.0012   -2.6243 C   0  0  0  0  0  0  0  0  0  0  0  0
   -0.0059   -4.9445   -2.3982 H   0  0  0  0  0  0  0  0  0  0  0  0
   -1.7592   -4.9788   -2.4130 H   0  0  0  0  0  0  0  0  0  0  0  0
   -1.8504   -4.0085   -0.1558 H   0  0  0  0  0  0  0  0  0  0  0  0
   -0.8428   -5.4438   -0.1410 H   0  0  0  0  0  0  0  0  0  0  0  0
    0.1776   -3.5553    1.1611 H   0  0  0  0  0  0  0  0  0  0  0  0
    1.2063   -4.0464   -0.1778 H   0  0  0  0  0  0  0  0  0  0  0  0
   -0.7536   -1.7214   -0.2313 H   0  0  0  0  0  0  0  0  0  0  0  0
    1.2154   -0.7786    0.8390 H   0  0  0  0  0  0  0  0  0  0  0  0
    2.2819   -1.7351   -0.1788 H   0  0  0  0  0  0  0  0  0  0  0  0
    0.7803    0.9913   -0.8327 H   0  0  0  0  0  0  0  0  0  0  0  0
    2.2755    0.0865   -1.6473 H   0  0  0  0  0  0  0  0  0  0  0  0
    0.7904   -0.5629   -3.3931 H   0  0  0  0  0  0  0  0  0  0  0  0
   -0.6112   -0.2671   -2.3752 H   0  0  0  0  0  0  0  0  0  0  0  0
    1.1922   -2.7088   -2.3227 H   0  0  0  0  0  0  0  0  0  0  0  0
   -0.8377   -3.0402   -3.7151 H   0  0  0  0  0  0  0  0  0  0  0  0
   -1.8415   -2.4999   -2.3762 H   0  0  0  0  0  0  0  0  0  0  0  0
  1  2  1  0
  1  9  1  0
  1 10  1  0
  1 11  1  0
  2  3  2  3
  2 12  1  0
  3  4  1  0
  3  8  1  0
  4  5  1  0
  4 13  1  0
  5  6  2  0
  5 14  1  0
  6  7  1  0
  6 15  1  0
  7  8  2  0
  7 16  1  0
  8 17  1  0
 18 19  1  0
 18 26  1  0
 18 27  1  0
 18 28  1  0
 19 20  1  0
 19 29  1  0
 19 30  1  0
 20 21  1  0
 20 31  1  0
 20 32  1  0
 21 22  1  0
 21 25  1  0
 21 33  1  0
 22 23  1  0
 22 34  1  0
 22 35  1  0
 23 24  1  0
 23 36  1  0
 23 37  1  0
 24 25  1  0
 24 38  1  0
 24 39  1  0
 25 26  1  0
 25 40  1  0
 26 41  1  0
 26 42  1  0
M  RAD  1   4   2
M  END
>  <reaction>  (7) 
rxn_614

>  <mol_properties>  (7) 
{"1": {"label": "*1", "atom_type": "Cs"}, "2": {"label": "*0", "atom_type": "Cd"}, "21": {"label": "*4", "atom_type": "Cs"}, "22": {"label": "*3", "atom_type": "Cs"}, "35": {"label": "*2", "atom_type": "H0"}}

>  <type>  (7) 
unop_3

>  <geom_source>  (7) 
Heuristics

$$$$

     RDKit          3D

 42 43  0  0  0  0  0  0  0  0999 V2000
   -1.2280    2.0038    1.9169 C   0  0  0  0  0  0  0  0  0  0  0  0
    0.1927    2.2391    1.4029 C   0  0  0  0  0  0  0  0  0  0  0  0
    0.2164    2.6061   -0.0576 C   0  0  0  0  0  0  0  0  0  0  0  0
    0.1172    3.9340   -0.4608 C   0  0  0  0  0  3  0  0  0  0  0  0
    0.0925    4.2717   -1.8051 C   0  0  0  0  0  0  0  0  0  0  0  0
    0.1667    3.2812   -2.7727 C   0  0  0  0  0  0  0  0  0  0  0  0
    0.2667    1.9537   -2.3847 C   0  0  0  0  0  0  0  0  0  0  0  0
    0.2910    1.6224   -1.0387 C   0  0  0  0  0  0  0  0  0  0  0  0
   -1.7101    1.1948    1.3650 H   0  0  0  0  0  0  0  0  0  0  0  0
   -1.8382    2.9002    1.7914 H   0  0  0  0  0  0  0  0  0  0  0  0
   -1.2234    1.7394    2.9758 H   0  0  0  0  0  0  0  0  0  0  0  0
    0.6627    3.0347    1.9859 H   0  0  0  0  0  0  0  0  0  0  0  0
    0.0619    4.7145    0.2902 H   0  0  0  0  0  0  0  0  0  0  0  0
    0.0187    5.3117   -2.0980 H   0  0  0  0  0  0  0  0  0  0  0  0
    0.1506    3.5426   -3.8231 H   0  0  0  0  0  0  0  0  0  0  0  0
    0.3297    1.1732   -3.1327 H   0  0  0  0  0  0  0  0  0  0  0  0
    0.3725    0.5822   -0.7430 H   0  0  0  0  0  0  0  0  0  0  0  0
   -0.9909   -4.2994   -0.2519 C   0  0  0  0  0  0  0  0  0  0  0  0
   -0.9909   -4.2994    1.2787 C   0  0  0  0  0  0  0  0  0  0  0  0
    0.1522   -3.4630    1.8607 C   0  0  0  0  0  0  0  0  0  0  0  0
    0.1126   -2.0620    1.2765 C   0  0  0  0  0  0  0  0  0  0  0  0
    1.2317   -1.0882    1.6320 C   0  0  0  0  0  0  0  0  0  0  0  0
    1.1817   -0.0176    0.5134 C   0  0  0  0  0  0  0  0  0  0  0  0
    0.2882   -0.6095   -0.6053 C   0  0  0  0  0  0  0  0  0  0  0  0
    0.1631   -2.0876   -0.2498 C   0  0  0  0  0  0  0  0  0  0  0  0
   -0.9909   -2.8829   -0.8339 C   0  0  0  0  0  0  0  0  0  0  0  0
   -0.0985   -4.8262   -0.6079 H   0  0  0  0  0  0  0  0  0  0  0  0
   -1.8518   -4.8604   -0.6227 H   0  0  0  0  0  0  0  0  0  0  0  0
   -1.9430   -3.8902    1.6346 H   0  0  0  0  0  0  0  0  0  0  0  0
   -0.9354   -5.3254    1.6494 H   0  0  0  0  0  0  0  0  0  0  0  0
    0.0850   -3.4370    2.9515 H   0  0  0  0  0  0  0  0  0  0  0  0
    1.1137   -3.9281    1.6126 H   0  0  0  0  0  0  0  0  0  0  0  0
   -0.8462   -1.6031    1.5591 H   0  0  0  0  0  0  0  0  0  0  0  0
    1.1228   -0.6603    2.6294 H   0  0  0  0  0  0  0  0  0  0  0  0
    2.1893   -1.6167    1.6116 H   0  0  0  0  0  0  0  0  0  0  0  0
    0.6877    1.1096    0.9577 H   0  0  0  0  0  0  0  0  0  0  0  0
    2.1829    0.2048    0.1431 H   0  0  0  0  0  0  0  0  0  0  0  0
    0.6978   -0.4446   -1.6027 H   0  0  0  0  0  0  0  0  0  0  0  0
   -0.7038   -0.1487   -0.5848 H   0  0  0  0  0  0  0  0  0  0  0  0
    1.0996   -2.5905   -0.5324 H   0  0  0  0  0  0  0  0  0  0  0  0
   -0.9303   -2.9219   -1.9248 H   0  0  0  0  0  0  0  0  0  0  0  0
   -1.9341   -2.3816   -0.5859 H   0  0  0  0  0  0  0  0  0  0  0  0
  1  2  1  0
  1  9  1  0
  1 10  1  0
  1 11  1  0
  2  3  2  3
  2 12  1  0
  3  4  1  0
  3  8  1  0
  4  5  1  0
  4 13  1  0
  5  6  2  0
  5 14  1  0
  6  7  1  0
  6 15  1  0
  7  8  2  0
  7 16  1  0
  8 17  1  0
 18 19  1  0
 18 26  1  0
 18 27  1  0
 18 28  1  0
 19 20  1  0
 19 29  1  0
 19 30  1  0
 20 21  1  0
 20 31  1  0
 20 32  1  0
 21 22  1  0
 21 25  1  0
 21 33  1  0
 22 23  1  0
 22 34  1  0
 22 35  1  0
 23 24  1  0
 23 36  1  0
 23 37  1  0
 24 25  1  0
 24 38  1  0
 24 39  1  0
 25 26  1  0
 25 40  1  0
 26 41  1  0
 26 42  1  0
M  RAD  1   4   2
M  END
>  <reaction>  (8) 
rxn_614

>  <mol_properties>  (8) 
{"1": {"label": "*1", "atom_type": "Cs"}, "2": {"label": "*0", "atom_type": "Cd"}, "21": {"label": "*4", "atom_type": "Cs"}, "22": {"label": "*3", "atom_type": "Cs"}, "35": {"label": "*2", "atom_type": "H0"}}

>  <type>  (8) 
unop_4

>  <geom_source>  (8) 
Heuristics

$$$$

     RDKit          3D

 42 43  0  0  0  0  0  0  0  0999 V2000
   -0.4642    3.0946   -1.3406 C   0  0  0  0  0  0  0  0  0  0  0  0
   -0.4341    2.0705   -0.2055 C   0  0  0  0  0  0  0  0  0  0  0  0
    0.3791    2.5464    0.9694 C   0  0  0  0  0  0  0  0  0  0  0  0
   -0.2081    3.2892    1.9889 C   0  0  0  0  0  3  0  0  0  0  0  0
    0.5465    3.7679    3.0487 C   0  0  0  0  0  0  0  0  0  0  0  0
    1.9078    3.5102    3.1058 C   0  0  0  0  0  0  0  0  0  0  0  0
    2.5056    2.7705    2.0968 C   0  0  0  0  0  0  0  0  0  0  0  0
    1.7456    2.2945    1.0396 C   0  0  0  0  0  0  0  0  0  0  0  0
    0.5451    3.3035   -1.7000 H   0  0  0  0  0  0  0  0  0  0  0  0
   -0.8963    4.0373   -0.9997 H   0  0  0  0  0  0  0  0  0  0  0  0
   -1.0577    2.7311   -2.1813 H   0  0  0  0  0  0  0  0  0  0  0  0
   -1.4554    1.8592    0.1202 H   0  0  0  0  0  0  0  0  0  0  0  0
   -1.2729    3.4921    1.9527 H   0  0  0  0  0  0  0  0  0  0  0  0
    0.0695    4.3409    3.8341 H   0  0  0  0  0  0  0  0  0  0  0  0
    2.4987    3.8805    3.9339 H   0  0  0  0  0  0  0  0  0  0  0  0
    3.5673    2.5601    2.1346 H   0  0  0  0  0  0  0  0  0  0  0  0
    2.2197    1.7140    0.2557 H   0  0  0  0  0  0  0  0  0  0  0  0
   -1.6177   -4.4680   -1.8603 C   0  0  0  0  0  0  0  0  0  0  0  0
   -1.6177   -4.4680   -0.3297 C   0  0  0  0  0  0  0  0  0  0  0  0
   -0.4746   -3.6316    0.2523 C   0  0  0  0  0  0  0  0  0  0  0  0
   -0.5142   -2.2306   -0.3318 C   0  0  0  0  0  0  0  0  0  0  0  0
    0.6048   -1.2569    0.0236 C   0  0  0  0  0  0  0  0  0  0  0  0
    0.5549   -0.1863   -1.0950 C   0  0  0  0  0  0  0  0  0  0  0  0
   -0.3386   -0.7781   -2.2136 C   0  0  0  0  0  0  0  0  0  0  0  0
   -0.4637   -2.2563   -1.8582 C   0  0  0  0  0  0  0  0  0  0  0  0
   -1.6177   -3.0516   -2.4423 C   0  0  0  0  0  0  0  0  0  0  0  0
   -0.7253   -4.9948   -2.2162 H   0  0  0  0  0  0  0  0  0  0  0  0
   -2.4786   -5.0291   -2.2310 H   0  0  0  0  0  0  0  0  0  0  0  0
   -2.5699   -4.0589    0.0262 H   0  0  0  0  0  0  0  0  0  0  0  0
   -1.5622   -5.4941    0.0410 H   0  0  0  0  0  0  0  0  0  0  0  0
   -0.5419   -3.6057    1.3431 H   0  0  0  0  0  0  0  0  0  0  0  0
    0.4869   -4.0968    0.0042 H   0  0  0  0  0  0  0  0  0  0  0  0
   -1.4730   -1.7718   -0.0493 H   0  0  0  0  0  0  0  0  0  0  0  0
    0.4960   -0.8289    1.0210 H   0  0  0  0  0  0  0  0  0  0  0  0
    1.5625   -1.7854    0.0032 H   0  0  0  0  0  0  0  0  0  0  0  0
    0.0609    0.9409   -0.6507 H   0  0  0  0  0  0  0  0  0  0  0  0
    1.5561    0.0362   -1.4653 H   0  0  0  0  0  0  0  0  0  0  0  0
    0.0710   -0.6133   -3.2111 H   0  0  0  0  0  0  0  0  0  0  0  0
   -1.3307   -0.3174   -2.1932 H   0  0  0  0  0  0  0  0  0  0  0  0
    0.4728   -2.7591   -2.1407 H   0  0  0  0  0  0  0  0  0  0  0  0
   -1.5571   -3.0905   -3.5332 H   0  0  0  0  0  0  0  0  0  0  0  0
   -2.5609   -2.5503   -2.1943 H   0  0  0  0  0  0  0  0  0  0  0  0
  1  2  1  0
  1  9  1  0
  1 10  1  0
  1 11  1  0
  2  3  2  3
  2 12  1  0
  3  4  1  0
  3  8  1  0
  4  5  1  0
  4 13  1  0
  5  6  2  0
  5 14  1  0
  6  7  1  0
  6 15  1  0
  7  8  2  0
  7 16  1  0
  8 17  1  0
 18 19  1  0
 18 26  1  0
 18 27  1  0
 18 28  1  0
 19 20  1  0
 19 29  1  0
 19 30  1  0
 20 21  1  0
 20 31  1  0
 20 32  1  0
 21 22  1  0
 21 25  1  0
 21 33  1  0
 22 23  1  0
 22 34  1  0
 22 35  1  0
 23 24  1  0
 23 36  1  0
 23 37  1  0
 24 25  1  0
 24 38  1  0
 24 39  1  0
 25 26  1  0
 25 40  1  0
 26 41  1  0
 26 42  1  0
M  RAD  1   4   2
M  END
>  <reaction>  (9) 
rxn_614

>  <mol_properties>  (9) 
{"1": {"label": "*1", "atom_type": "Cs"}, "2": {"label": "*0", "atom_type": "Cd"}, "21": {"label": "*4", "atom_type": "Cs"}, "22": {"label": "*3", "atom_type": "Cs"}, "35": {"label": "*2", "atom_type": "H0"}}

>  <type>  (9) 
unop_5

>  <geom_source>  (9) 
Heuristics

$$$$

     RDKit          3D

 42 43  0  0  0  0  0  0  0  0999 V2000
   -1.7824    2.1968    1.1343 C   0  0  0  0  0  0  0  0  0  0  0  0
   -0.2649    2.1977    1.3224 C   0  0  0  0  0  0  0  0  0  0  0  0
    0.4642    2.5996    0.0674 C   0  0  0  0  0  0  0  0  0  0  0  0
    0.7458    3.9363   -0.1965 C   0  0  0  0  0  3  0  0  0  0  0  0
    1.3759    4.3142   -1.3721 C   0  0  0  0  0  0  0  0  0  0  0  0
    1.7361    3.3561   -2.3075 C   0  0  0  0  0  0  0  0  0  0  0  0
    1.4622    2.0201   -2.0567 C   0  0  0  0  0  0  0  0  0  0  0  0
    0.8318    1.6485   -0.8792 C   0  0  0  0  0  0  0  0  0  0  0  0
   -2.0739    1.5009    0.3454 H   0  0  0  0  0  0  0  0  0  0  0  0
   -2.1374    3.1888    0.8490 H   0  0  0  0  0  0  0  0  0  0  0  0
   -2.2915    1.9032    2.0539 H   0  0  0  0  0  0  0  0  0  0  0  0
    0.0002    2.8814    2.1324 H   0  0  0  0  0  0  0  0  0  0  0  0
    0.4699    4.6912    0.5317 H   0  0  0  0  0  0  0  0  0  0  0  0
    1.5895    5.3598   -1.5568 H   0  0  0  0  0  0  0  0  0  0  0  0
    2.2309    3.6484   -3.2249 H   0  0  0  0  0  0  0  0  0  0  0  0
    1.7435    1.2638   -2.7789 H   0  0  0  0  0  0  0  0  0  0  0  0
    0.6237    0.6013   -0.6886 H   0  0  0  0  0  0  0  0  0  0  0  0
   -1.4485   -4.3408   -0.3324 C   0  0  0  0  0  0  0  0  0  0  0  0
   -1.4485   -4.3408    1.1982 C   0  0  0  0  0  0  0  0  0  0  0  0
   -0.3054   -3.5044    1.7802 C   0  0  0  0  0  0  0  0  0  0  0  0
   -0.3450   -2.1034    1.1961 C   0  0  0  0  0  0  0  0  0  0  0  0
    0.7741   -1.1296    1.5515 C   0  0  0  0  0  0  0  0  0  0  0  0
    0.7241   -0.0591    0.4329 C   0  0  0  0  0  0  0  0  0  0  0  0
   -0.1694   -0.6509   -0.6857 C   0  0  0  0  0  0  0  0  0  0  0  0
   -0.2945   -2.1290   -0.3303 C   0  0  0  0  0  0  0  0  0  0  0  0
   -1.4485   -2.9243   -0.9144 C   0  0  0  0  0  0  0  0  0  0  0  0
   -0.5561   -4.8676   -0.6883 H   0  0  0  0  0  0  0  0  0  0  0  0
   -2.3094   -4.9019   -0.7031 H   0  0  0  0  0  0  0  0  0  0  0  0
   -2.4006   -3.9316    1.5541 H   0  0  0  0  0  0  0  0  0  0  0  0
   -1.3930   -5.3669    1.5689 H   0  0  0  0  0  0  0  0  0  0  0  0
   -0.3726   -3.4784    2.8710 H   0  0  0  0  0  0  0  0  0  0  0  0
    0.6562   -3.9695    1.5322 H   0  0  0  0  0  0  0  0  0  0  0  0
   -1.3038   -1.6446    1.4786 H   0  0  0  0  0  0  0  0  0  0  0  0
    0.6652   -0.7017    2.5490 H   0  0  0  0  0  0  0  0  0  0  0  0
    1.7317   -1.6582    1.5311 H   0  0  0  0  0  0  0  0  0  0  0  0
    0.2301    1.0682    0.8772 H   0  0  0  0  0  0  0  0  0  0  0  0
    1.7253    0.1634    0.0626 H   0  0  0  0  0  0  0  0  0  0  0  0
    0.2403   -0.4860   -1.6831 H   0  0  0  0  0  0  0  0  0  0  0  0
   -1.1614   -0.1902   -0.6653 H   0  0  0  0  0  0  0  0  0  0  0  0
    0.6420   -2.6319   -0.6128 H   0  0  0  0  0  0  0  0  0  0  0  0
   -1.3878   -2.9633   -2.0052 H   0  0  0  0  0  0  0  0  0  0  0  0
   -2.3917   -2.4230   -0.6663 H   0  0  0  0  0  0  0  0  0  0  0  0
  1  2  1  0
  1  9  1  0
  1 10  1  0
  1 11  1  0
  2  3  2  3
  2 12  1  0
  3  4  1  0
  3  8  1  0
  4  5  1  0
  4 13  1  0
  5  6  2  0
  5 14  1  0
  6  7  1  0
  6 15  1  0
  7  8  2  0
  7 16  1  0
  8 17  1  0
 18 19  1  0
 18 26  1  0
 18 27  1  0
 18 28  1  0
 19 20  1  0
 19 29  1  0
 19 30  1  0
 20 21  1  0
 20 31  1  0
 20 32  1  0
 21 22  1  0
 21 25  1  0
 21 33  1  0
 22 23  1  0
 22 34  1  0
 22 35  1  0
 23 24  1  0
 23 36  1  0
 23 37  1  0
 24 25  1  0
 24 38  1  0
 24 39  1  0
 25 26  1  0
 25 40  1  0
 26 41  1  0
 26 42  1  0
M  RAD  1   4   2
M  END
>  <reaction>  (10) 
rxn_614

>  <mol_properties>  (10) 
{"1": {"label": "*1", "atom_type": "Cs"}, "2": {"label": "*0", "atom_type": "Cd"}, "21": {"label": "*4", "atom_type": "Cs"}, "22": {"label": "*3", "atom_type": "Cs"}, "35": {"label": "*2", "atom_type": "H0"}}

>  <type>  (10) 
unop_6

>  <geom_source>  (10) 
Heuristics

$$$$

     RDKit          3D

 42 43  0  0  0  0  0  0  0  0999 V2000
   -1.8930    2.5095    0.2186 C   0  0  0  0  0  0  0  0  0  0  0  0
   -0.6340    2.1585    1.0122 C   0  0  0  0  0  0  0  0  0  0  0  0
    0.6243    2.5784    0.2989 C   0  0  0  0  0  0  0  0  0  0  0  0
    1.1606    3.8483    0.4871 C   0  0  0  0  0  3  0  0  0  0  0  0
    2.2926    4.2543   -0.2025 C   0  0  0  0  0  0  0  0  0  0  0  0
    2.9093    3.3920   -1.0963 C   0  0  0  0  0  0  0  0  0  0  0  0
    2.3857    2.1232   -1.2928 C   0  0  0  0  0  0  0  0  0  0  0  0
    1.2534    1.7230   -0.6001 C   0  0  0  0  0  0  0  0  0  0  0  0
   -1.8856    2.0177   -0.7559 H   0  0  0  0  0  0  0  0  0  0  0  0
   -1.9541    3.5856    0.0462 H   0  0  0  0  0  0  0  0  0  0  0  0
   -2.7926    2.1974    0.7518 H   0  0  0  0  0  0  0  0  0  0  0  0
   -0.6757    2.6411    1.9916 H   0  0  0  0  0  0  0  0  0  0  0  0
    0.6856    4.5272    1.1869 H   0  0  0  0  0  0  0  0  0  0  0  0
    2.6964    5.2457   -0.0388 H   0  0  0  0  0  0  0  0  0  0  0  0
    3.7951    3.7057   -1.6339 H   0  0  0  0  0  0  0  0  0  0  0  0
    2.8627    1.4408   -1.9854 H   0  0  0  0  0  0  0  0  0  0  0  0
    0.8516    0.7279   -0.7568 H   0  0  0  0  0  0  0  0  0  0  0  0
   -1.8176   -4.3800   -0.6426 C   0  0  0  0  0  0  0  0  0  0  0  0
   -1.8176   -4.3800    0.8880 C   0  0  0  0  0  0  0  0  0  0  0  0
   -0.6745   -3.5436    1.4700 C   0  0  0  0  0  0  0  0  0  0  0  0
   -0.7141   -2.1426    0.8859 C   0  0  0  0  0  0  0  0  0  0  0  0
    0.4050   -1.1689    1.2413 C   0  0  0  0  0  0  0  0  0  0  0  0
    0.3550   -0.0983    0.1227 C   0  0  0  0  0  0  0  0  0  0  0  0
   -0.5385   -0.6901   -0.9959 C   0  0  0  0  0  0  0  0  0  0  0  0
   -0.6636   -2.1683   -0.6405 C   0  0  0  0  0  0  0  0  0  0  0  0
   -1.8176   -2.9636   -1.2246 C   0  0  0  0  0  0  0  0  0  0  0  0
   -0.9252   -4.9068   -0.9985 H   0  0  0  0  0  0  0  0  0  0  0  0
   -2.6785   -4.9411   -1.0133 H   0  0  0  0  0  0  0  0  0  0  0  0
   -2.7697   -3.9709    1.2439 H   0  0  0  0  0  0  0  0  0  0  0  0
   -1.7621   -5.4061    1.2587 H   0  0  0  0  0  0  0  0  0  0  0  0
   -0.7417   -3.5177    2.5608 H   0  0  0  0  0  0  0  0  0  0  0  0
    0.2870   -4.0088    1.2219 H   0  0  0  0  0  0  0  0  0  0  0  0
   -1.6729   -1.6838    1.1684 H   0  0  0  0  0  0  0  0  0  0  0  0
    0.2961   -0.7409    2.2387 H   0  0  0  0  0  0  0  0  0  0  0  0
    1.3626   -1.6974    1.2209 H   0  0  0  0  0  0  0  0  0  0  0  0
   -0.1390    1.0290    0.5670 H   0  0  0  0  0  0  0  0  0  0  0  0
    1.3562    0.1242   -0.2476 H   0  0  0  0  0  0  0  0  0  0  0  0
   -0.1289   -0.5253   -1.9934 H   0  0  0  0  0  0  0  0  0  0  0  0
   -1.5305   -0.2294   -0.9755 H   0  0  0  0  0  0  0  0  0  0  0  0
    0.2729   -2.6711   -0.9230 H   0  0  0  0  0  0  0  0  0  0  0  0
   -1.7570   -3.0025   -2.3155 H   0  0  0  0  0  0  0  0  0  0  0  0
   -2.7608   -2.4622   -0.9766 H   0  0  0  0  0  0  0  0  0  0  0  0
  1  2  1  0
  1  9  1  0
  1 10  1  0
  1 11  1  0
  2  3  2  3
  2 12  1  0
  3  4  1  0
  3  8  1  0
  4  5  1  0
  4 13  1  0
  5  6  2  0
  5 14  1  0
  6  7  1  0
  6 15  1  0
  7  8  2  0
  7 16  1  0
  8 17  1  0
 18 19  1  0
 18 26  1  0
 18 27  1  0
 18 28  1  0
 19 20  1  0
 19 29  1  0
 19 30  1  0
 20 21  1  0
 20 31  1  0
 20 32  1  0
 21 22  1  0
 21 25  1  0
 21 33  1  0
 22 23  1  0
 22 34  1  0
 22 35  1  0
 23 24  1  0
 23 36  1  0
 23 37  1  0
 24 25  1  0
 24 38  1  0
 24 39  1  0
 25 26  1  0
 25 40  1  0
 26 41  1  0
 26 42  1  0
M  RAD  1   4   2
M  END
>  <reaction>  (11) 
rxn_614

>  <mol_properties>  (11) 
{"1": {"label": "*1", "atom_type": "Cs"}, "2": {"label": "*0", "atom_type": "Cd"}, "21": {"label": "*4", "atom_type": "Cs"}, "22": {"label": "*3", "atom_type": "Cs"}, "35": {"label": "*2", "atom_type": "H0"}}

>  <type>  (11) 
unop_7

>  <geom_source>  (11) 
Heuristics

$$$$

     RDKit          3D

 42 43  0  0  0  0  0  0  0  0999 V2000
    2.0278    2.9934    0.6252 C   0  0  0  0  0  0  0  0  0  0  0  0
    0.8941    2.1168    0.0919 C   0  0  0  0  0  0  0  0  0  0  0  0
   -0.4503    2.5388    0.6238 C   0  0  0  0  0  0  0  0  0  0  0  0
   -1.2115    3.4954   -0.0405 C   0  0  0  0  0  3  0  0  0  0  0  0
   -2.4285    3.9196    0.4703 C   0  0  0  0  0  0  0  0  0  0  0  0
   -2.9057    3.3913    1.6602 C   0  0  0  0  0  0  0  0  0  0  0  0
   -2.1575    2.4366    2.3321 C   0  0  0  0  0  0  0  0  0  0  0  0
   -0.9413    2.0164    1.8161 C   0  0  0  0  0  0  0  0  0  0  0  0
    2.0737    2.9461    1.7148 H   0  0  0  0  0  0  0  0  0  0  0  0
    1.8743    4.0372    0.3450 H   0  0  0  0  0  0  0  0  0  0  0  0
    2.9923    2.6717    0.2285 H   0  0  0  0  0  0  0  0  0  0  0  0
    0.8839    2.1606   -0.9997 H   0  0  0  0  0  0  0  0  0  0  0  0
   -0.8463    3.9110   -0.9734 H   0  0  0  0  0  0  0  0  0  0  0  0
   -3.0075    4.6625   -0.0642 H   0  0  0  0  0  0  0  0  0  0  0  0
   -3.8571    3.7189    2.0596 H   0  0  0  0  0  0  0  0  0  0  0  0
   -2.5237    2.0146    3.2598 H   0  0  0  0  0  0  0  0  0  0  0  0
   -0.3632    1.2670    2.3457 H   0  0  0  0  0  0  0  0  0  0  0  0
   -0.2896   -4.4216   -1.5629 C   0  0  0  0  0  0  0  0  0  0  0  0
   -0.2896   -4.4216   -0.0323 C   0  0  0  0  0  0  0  0  0  0  0  0
    0.8535   -3.5852    0.5497 C   0  0  0  0  0  0  0  0  0  0  0  0
    0.8139   -2.1843   -0.0344 C   0  0  0  0  0  0  0  0  0  0  0  0
    1.9330   -1.2105    0.3210 C   0  0  0  0  0  0  0  0  0  0  0  0
    1.8830   -0.1399   -0.7976 C   0  0  0  0  0  0  0  0  0  0  0  0
    0.9895   -0.7318   -1.9162 C   0  0  0  0  0  0  0  0  0  0  0  0
    0.8645   -2.2099   -1.5608 C   0  0  0  0  0  0  0  0  0  0  0  0
   -0.2896   -3.0052   -2.1449 C   0  0  0  0  0  0  0  0  0  0  0  0
    0.6029   -4.9484   -1.9188 H   0  0  0  0  0  0  0  0  0  0  0  0
   -1.1504   -4.9827   -1.9336 H   0  0  0  0  0  0  0  0  0  0  0  0
   -1.2417   -4.0125    0.3236 H   0  0  0  0  0  0  0  0  0  0  0  0
   -0.2340   -5.4477    0.3384 H   0  0  0  0  0  0  0  0  0  0  0  0
    0.7863   -3.5593    1.6405 H   0  0  0  0  0  0  0  0  0  0  0  0
    1.8151   -4.0504    0.3017 H   0  0  0  0  0  0  0  0  0  0  0  0
   -0.1448   -1.7254    0.2481 H   0  0  0  0  0  0  0  0  0  0  0  0
    1.8242   -0.7825    1.3185 H   0  0  0  0  0  0  0  0  0  0  0  0
    2.8906   -1.7390    0.3006 H   0  0  0  0  0  0  0  0  0  0  0  0
    1.3890    0.9873   -0.3533 H   0  0  0  0  0  0  0  0  0  0  0  0
    2.8842    0.0825   -1.1679 H   0  0  0  0  0  0  0  0  0  0  0  0
    1.3992   -0.5669   -2.9136 H   0  0  0  0  0  0  0  0  0  0  0  0
   -0.0025   -0.2710   -1.8958 H   0  0  0  0  0  0  0  0  0  0  0  0
    1.8009   -2.7127   -1.8433 H   0  0  0  0  0  0  0  0  0  0  0  0
   -0.2289   -3.0442   -3.2357 H   0  0  0  0  0  0  0  0  0  0  0  0
   -1.2327   -2.5039   -1.8968 H   0  0  0  0  0  0  0  0  0  0  0  0
  1  2  1  0
  1  9  1  0
  1 10  1  0
  1 11  1  0
  2  3  2  3
  2 12  1  0
  3  4  1  0
  3  8  1  0
  4  5  1  0
  4 13  1  0
  5  6  2  0
  5 14  1  0
  6  7  1  0
  6 15  1  0
  7  8  2  0
  7 16  1  0
  8 17  1  0
 18 19  1  0
 18 26  1  0
 18 27  1  0
 18 28  1  0
 19 20  1  0
 19 29  1  0
 19 30  1  0
 20 21  1  0
 20 31  1  0
 20 32  1  0
 21 22  1  0
 21 25  1  0
 21 33  1  0
 22 23  1  0
 22 34  1  0
 22 35  1  0
 23 24  1  0
 23 36  1  0
 23 37  1  0
 24 25  1  0
 24 38  1  0
 24 39  1  0
 25 26  1  0
 25 40  1  0
 26 41  1  0
 26 42  1  0
M  RAD  1   4   2
M  END
>  <reaction>  (12) 
rxn_614

>  <mol_properties>  (12) 
{"1": {"label": "*1", "atom_type": "Cs"}, "2": {"label": "*0", "atom_type": "Cd"}, "21": {"label": "*4", "atom_type": "Cs"}, "22": {"label": "*3", "atom_type": "Cs"}, "35": {"label": "*2", "atom_type": "H0"}}

>  <type>  (12) 
unop_8

>  <geom_source>  (12) 
Heuristics

$$$$

     RDKit          3D

 42 43  0  0  0  0  0  0  0  0999 V2000
   -0.3664    1.9676    2.3698 C   0  0  0  0  0  0  0  0  0  0  0  0
    0.6284    2.2569    1.2451 C   0  0  0  0  0  0  0  0  0  0  0  0
   -0.0601    2.6033   -0.0489 C   0  0  0  0  0  0  0  0  0  0  0  0
   -0.3984    3.9197   -0.3463 C   0  0  0  0  0  3  0  0  0  0  0  0
   -1.0729    4.2364   -1.5153 C   0  0  0  0  0  0  0  0  0  0  0  0
   -1.4219    3.2361   -2.4100 C   0  0  0  0  0  0  0  0  0  0  0  0
   -1.0900    1.9200   -2.1263 C   0  0  0  0  0  0  0  0  0  0  0  0
   -0.4154    1.6097   -0.9556 C   0  0  0  0  0  0  0  0  0  0  0  0
   -1.0155    1.1305    2.1063 H   0  0  0  0  0  0  0  0  0  0  0  0
   -1.0029    2.8347    2.5558 H   0  0  0  0  0  0  0  0  0  0  0  0
    0.1518    1.7191    3.2976 H   0  0  0  0  0  0  0  0  0  0  0  0
    1.2822    3.0806    1.5416 H   0  0  0  0  0  0  0  0  0  0  0  0
   -0.1260    4.7079    0.3471 H   0  0  0  0  0  0  0  0  0  0  0  0
   -1.3237    5.2678   -1.7300 H   0  0  0  0  0  0  0  0  0  0  0  0
   -1.9460    3.4813   -3.3249 H   0  0  0  0  0  0  0  0  0  0  0  0
   -1.3542    1.1322   -2.8208 H   0  0  0  0  0  0  0  0  0  0  0  0
   -0.1565    0.5784   -0.7421 H   0  0  0  0  0  0  0  0  0  0  0  0
   -0.5552   -4.2816   -0.4097 C   0  0  0  0  0  0  0  0  0  0  0  0
   -0.5552   -4.2816    1.1209 C   0  0  0  0  0  0  0  0  0  0  0  0
    0.5879   -3.4452    1.7029 C   0  0  0  0  0  0  0  0  0  0  0  0
    0.5483   -2.0442    1.1187 C   0  0  0  0  0  0  0  0  0  0  0  0
    1.6673   -1.0704    1.4742 C   0  0  0  0  0  0  0  0  0  0  0  0
    1.6174    0.0002    0.3556 C   0  0  0  0  0  0  0  0  0  0  0  0
    0.7239   -0.5917   -0.7631 C   0  0  0  0  0  0  0  0  0  0  0  0
    0.5988   -2.0698   -0.4076 C   0  0  0  0  0  0  0  0  0  0  0  0
   -0.5552   -2.8651   -0.9917 C   0  0  0  0  0  0  0  0  0  0  0  0
    0.3372   -4.8084   -0.7657 H   0  0  0  0  0  0  0  0  0  0  0  0
   -1.4161   -4.8426   -0.7805 H   0  0  0  0  0  0  0  0  0  0  0  0
   -1.5074   -3.8724    1.4768 H   0  0  0  0  0  0  0  0  0  0  0  0
   -0.4997   -5.3076    1.4916 H   0  0  0  0  0  0  0  0  0  0  0  0
    0.5206   -3.4192    2.7937 H   0  0  0  0  0  0  0  0  0  0  0  0
    1.5494   -3.9103    1.4548 H   0  0  0  0  0  0  0  0  0  0  0  0
   -0.4105   -1.5853    1.4013 H   0  0  0  0  0  0  0  0  0  0  0  0
    1.5585   -0.6425    2.4716 H   0  0  0  0  0  0  0  0  0  0  0  0
    2.6249   -1.5989    1.4538 H   0  0  0  0  0  0  0  0  0  0  0  0
    1.1234    1.1274    0.7999 H   0  0  0  0  0  0  0  0  0  0  0  0
    2.6186    0.2226   -0.0147 H   0  0  0  0  0  0  0  0  0  0  0  0
    1.1335   -0.4268   -1.7605 H   0  0  0  0  0  0  0  0  0  0  0  0
   -0.2682   -0.1309   -0.7426 H   0  0  0  0  0  0  0  0  0  0  0  0
    1.5352   -2.5726   -0.6901 H   0  0  0  0  0  0  0  0  0  0  0  0
   -0.4946   -2.9041   -2.0826 H   0  0  0  0  0  0  0  0  0  0  0  0
   -1.4984   -2.3638   -0.7437 H   0  0  0  0  0  0  0  0  0  0  0  0
  1  2  1  0
  1  9  1  0
  1 10  1  0
  1 11  1  0
  2  3  2  3
  2 12  1  0
  3  4  1  0
  3  8  1  0
  4  5  1  0
  4 13  1  0
  5  6  2  0
  5 14  1  0
  6  7  1  0
  6 15  1  0
  7  8  2  0
  7 16  1  0
  8 17  1  0
 18 19  1  0
 18 26  1  0
 18 27  1  0
 18 28  1  0
 19 20  1  0
 19 29  1  0
 19 30  1  0
 20 21  1  0
 20 31  1  0
 20 32  1  0
 21 22  1  0
 21 25  1  0
 21 33  1  0
 22 23  1  0
 22 34  1  0
 22 35  1  0
 23 24  1  0
 23 36  1  0
 23 37  1  0
 24 25  1  0
 24 38  1  0
 24 39  1  0
 25 26  1  0
 25 40  1  0
 26 41  1  0
 26 42  1  0
M  RAD  1   4   2
M  END
>  <reaction>  (13) 
rxn_614

>  <mol_properties>  (13) 
{"1": {"label": "*1", "atom_type": "Cs"}, "2": {"label": "*0", "atom_type": "Cd"}, "21": {"label": "*4", "atom_type": "Cs"}, "22": {"label": "*3", "atom_type": "Cs"}, "35": {"label": "*2", "atom_type": "H0"}}

>  <type>  (13) 
unop_9

>  <geom_source>  (13) 
Heuristics

$$$$

     RDKit          3D

 42 43  0  0  0  0  0  0  0  0999 V2000
    1.8408    2.6315    1.4605 C   0  0  0  0  0  0  0  0  0  0  0  0
    0.9655    2.1069    0.3217 C   0  0  0  0  0  0  0  0  0  0  0  0
   -0.4585    2.5848    0.4315 C   0  0  0  0  0  0  0  0  0  0  0  0
   -0.8544    3.7852   -0.1499 C   0  0  0  0  0  3  0  0  0  0  0  0
   -2.1529    4.2508   -0.0120 C   0  0  0  0  0  0  0  0  0  0  0  0
   -3.0809    3.5193    0.7135 C   0  0  0  0  0  0  0  0  0  0  0  0
   -2.6998    2.3207    1.2975 C   0  0  0  0  0  0  0  0  0  0  0  0
   -1.3998    1.8605    1.1560 C   0  0  0  0  0  0  0  0  0  0  0  0
    1.4555    2.3030    2.4275 H   0  0  0  0  0  0  0  0  0  0  0  0
    1.8578    3.7230    1.4640 H   0  0  0  0  0  0  0  0  0  0  0  0
    2.8675    2.2743    1.3628 H   0  0  0  0  0  0  0  0  0  0  0  0
    1.3844    2.4270   -0.6353 H   0  0  0  0  0  0  0  0  0  0  0  0
   -0.1350    4.3614   -0.7215 H   0  0  0  0  0  0  0  0  0  0  0  0
   -2.4420    5.1858   -0.4757 H   0  0  0  0  0  0  0  0  0  0  0  0
   -4.0963    3.8793    0.8201 H   0  0  0  0  0  0  0  0  0  0  0  0
   -3.4184    1.7399    1.8624 H   0  0  0  0  0  0  0  0  0  0  0  0
   -1.1099    0.9206    1.6130 H   0  0  0  0  0  0  0  0  0  0  0  0
   -0.2181   -4.4316   -1.3331 C   0  0  0  0  0  0  0  0  0  0  0  0
   -0.2181   -4.4316    0.1975 C   0  0  0  0  0  0  0  0  0  0  0  0
    0.9250   -3.5952    0.7795 C   0  0  0  0  0  0  0  0  0  0  0  0
    0.8854   -2.1942    0.1954 C   0  0  0  0  0  0  0  0  0  0  0  0
    2.0045   -1.2204    0.5508 C   0  0  0  0  0  0  0  0  0  0  0  0
    1.9545   -0.1499   -0.5678 C   0  0  0  0  0  0  0  0  0  0  0  0
    1.0610   -0.7417   -1.6864 C   0  0  0  0  0  0  0  0  0  0  0  0
    0.9360   -2.2199   -1.3310 C   0  0  0  0  0  0  0  0  0  0  0  0
   -0.2181   -3.0152   -1.9151 C   0  0  0  0  0  0  0  0  0  0  0  0
    0.6744   -4.9584   -1.6890 H   0  0  0  0  0  0  0  0  0  0  0  0
   -1.0790   -4.9927   -1.7038 H   0  0  0  0  0  0  0  0  0  0  0  0
   -1.1702   -4.0224    0.5534 H   0  0  0  0  0  0  0  0  0  0  0  0
   -0.1626   -5.4577    0.5682 H   0  0  0  0  0  0  0  0  0  0  0  0
    0.8578   -3.5693    1.8703 H   0  0  0  0  0  0  0  0  0  0  0  0
    1.8866   -4.0603    0.5314 H   0  0  0  0  0  0  0  0  0  0  0  0
   -0.0734   -1.7354    0.4779 H   0  0  0  0  0  0  0  0  0  0  0  0
    1.8956   -0.7925    1.5482 H   0  0  0  0  0  0  0  0  0  0  0  0
    2.9621   -1.7490    0.5304 H   0  0  0  0  0  0  0  0  0  0  0  0
    1.4605    0.9774   -0.1235 H   0  0  0  0  0  0  0  0  0  0  0  0
    2.9557    0.0726   -0.9381 H   0  0  0  0  0  0  0  0  0  0  0  0
    1.4707   -0.5769   -2.6838 H   0  0  0  0  0  0  0  0  0  0  0  0
    0.0690   -0.2810   -1.6660 H   0  0  0  0  0  0  0  0  0  0  0  0
    1.8724   -2.7227   -1.6135 H   0  0  0  0  0  0  0  0  0  0  0  0
   -0.1574   -3.0541   -3.0059 H   0  0  0  0  0  0  0  0  0  0  0  0
   -1.1613   -2.5138   -1.6670 H   0  0  0  0  0  0  0  0  0  0  0  0
  1  2  1  0
  1  9  1  0
  1 10  1  0
  1 11  1  0
  2  3  2  3
  2 12  1  0
  3  4  1  0
  3  8  1  0
  4  5  1  0
  4 13  1  0
  5  6  2  0
  5 14  1  0
  6  7  1  0
  6 15  1  0
  7  8  2  0
  7 16  1  0
  8 17  1  0
 18 19  1  0
 18 26  1  0
 18 27  1  0
 18 28  1  0
 19 20  1  0
 19 29  1  0
 19 30  1  0
 20 21  1  0
 20 31  1  0
 20 32  1  0
 21 22  1  0
 21 25  1  0
 21 33  1  0
 22 23  1  0
 22 34  1  0
 22 35  1  0
 23 24  1  0
 23 36  1  0
 23 37  1  0
 24 25  1  0
 24 38  1  0
 24 39  1  0
 25 26  1  0
 25 40  1  0
 26 41  1  0
 26 42  1  0
M  RAD  1   4   2
M  END
>  <reaction>  (14) 
rxn_614

>  <mol_properties>  (14) 
{"1": {"label": "*1", "atom_type": "Cs"}, "2": {"label": "*0", "atom_type": "Cd"}, "21": {"label": "*4", "atom_type": "Cs"}, "22": {"label": "*3", "atom_type": "Cs"}, "35": {"label": "*2", "atom_type": "H0"}}

>  <type>  (14) 
unop_10

>  <geom_source>  (14) 
Heuristics

$$$$

     RDKit          3D

 42 43  0  0  0  0  0  0  0  0999 V2000
   -1.5029    2.8361   -0.6737 C   0  0  0  0  0  0  0  0  0  0  0  0
   -0.7883    2.1099    0.4666 C   0  0  0  0  0  0  0  0  0  0  0  0
    0.6407    2.5598    0.6212 C   0  0  0  0  0  0  0  0  0  0  0  0
    0.9639    3.6388    1.4380 C   0  0  0  0  0  3  0  0  0  0  0  0
    2.2721    4.0845    1.5470 C   0  0  0  0  0  0  0  0  0  0  0  0
    3.2830    3.4550    0.8368 C   0  0  0  0  0  0  0  0  0  0  0  0
    2.9748    2.3779    0.0197 C   0  0  0  0  0  0  0  0  0  0  0  0
    1.6647    1.9368   -0.0851 C   0  0  0  0  0  0  0  0  0  0  0  0
   -0.9956    2.6581   -1.6237 H   0  0  0  0  0  0  0  0  0  0  0  0
   -1.5126    3.9137   -0.5000 H   0  0  0  0  0  0  0  0  0  0  0  0
   -2.5356    2.4962   -0.7691 H   0  0  0  0  0  0  0  0  0  0  0  0
   -1.3275    2.2820    1.4011 H   0  0  0  0  0  0  0  0  0  0  0  0
    0.1791    4.1343    1.9990 H   0  0  0  0  0  0  0  0  0  0  0  0
    2.5033    4.9237    2.1913 H   0  0  0  0  0  0  0  0  0  0  0  0
    4.3058    3.7994    0.9225 H   0  0  0  0  0  0  0  0  0  0  0  0
    3.7580    1.8767   -0.5356 H   0  0  0  0  0  0  0  0  0  0  0  0
    1.4319    1.0918   -0.7238 H   0  0  0  0  0  0  0  0  0  0  0  0
   -1.9719   -4.4286   -1.1883 C   0  0  0  0  0  0  0  0  0  0  0  0
   -1.9719   -4.4286    0.3423 C   0  0  0  0  0  0  0  0  0  0  0  0
   -0.8288   -3.5922    0.9243 C   0  0  0  0  0  0  0  0  0  0  0  0
   -0.8684   -2.1913    0.3402 C   0  0  0  0  0  0  0  0  0  0  0  0
    0.2507   -1.2175    0.6957 C   0  0  0  0  0  0  0  0  0  0  0  0
    0.2007   -0.1469   -0.4230 C   0  0  0  0  0  0  0  0  0  0  0  0
   -0.6928   -0.7388   -1.5416 C   0  0  0  0  0  0  0  0  0  0  0  0
   -0.8179   -2.2169   -1.1861 C   0  0  0  0  0  0  0  0  0  0  0  0
   -1.9719   -3.0122   -1.7703 C   0  0  0  0  0  0  0  0  0  0  0  0
   -1.0795   -4.9554   -1.5442 H   0  0  0  0  0  0  0  0  0  0  0  0
   -2.8328   -4.9897   -1.5590 H   0  0  0  0  0  0  0  0  0  0  0  0
   -2.9240   -4.0195    0.6983 H   0  0  0  0  0  0  0  0  0  0  0  0
   -1.9164   -5.4547    0.7131 H   0  0  0  0  0  0  0  0  0  0  0  0
   -0.8960   -3.5663    2.0152 H   0  0  0  0  0  0  0  0  0  0  0  0
    0.1327   -4.0574    0.6763 H   0  0  0  0  0  0  0  0  0  0  0  0
   -1.8272   -1.7324    0.6228 H   0  0  0  0  0  0  0  0  0  0  0  0
    0.1418   -0.7895    1.6931 H   0  0  0  0  0  0  0  0  0  0  0  0
    1.2083   -1.7460    0.6752 H   0  0  0  0  0  0  0  0  0  0  0  0
   -0.2933    0.9803    0.0214 H   0  0  0  0  0  0  0  0  0  0  0  0
    1.2019    0.0756   -0.7932 H   0  0  0  0  0  0  0  0  0  0  0  0
   -0.2832   -0.5739   -2.5390 H   0  0  0  0  0  0  0  0  0  0  0  0
   -1.6848   -0.2780   -1.5212 H   0  0  0  0  0  0  0  0  0  0  0  0
    0.1186   -2.7197   -1.4687 H   0  0  0  0  0  0  0  0  0  0  0  0
   -1.9113   -3.0512   -2.8611 H   0  0  0  0  0  0  0  0  0  0  0  0
   -2.9151   -2.5109   -1.5222 H   0  0  0  0  0  0  0  0  0  0  0  0
  1  2  1  0
  1  9  1  0
  1 10  1  0
  1 11  1  0
  2  3  2  3
  2 12  1  0
  3  4  1  0
  3  8  1  0
  4  5  1  0
  4 13  1  0
  5  6  2  0
  5 14  1  0
  6  7  1  0
  6 15  1  0
  7  8  2  0
  7 16  1  0
  8 17  1  0
 18 19  1  0
 18 26  1  0
 18 27  1  0
 18 28  1  0
 19 20  1  0
 19 29  1  0
 19 30  1  0
 20 21  1  0
 20 31  1  0
 20 32  1  0
 21 22  1  0
 21 25  1  0
 21 33  1  0
 22 23  1  0
 22 34  1  0
 22 35  1  0
 23 24  1  0
 23 36  1  0
 23 37  1  0
 24 25  1  0
 24 38  1  0
 24 39  1  0
 25 26  1  0
 25 40  1  0
 26 41  1  0
 26 42  1  0
M  RAD  1   4   2
M  END
>  <reaction>  (15) 
rxn_614

>  <mol_properties>  (15) 
{"1": {"label": "*1", "atom_type": "Cs"}, "2": {"label": "*0", "atom_type": "Cd"}, "21": {"label": "*4", "atom_type": "Cs"}, "22": {"label": "*3", "atom_type": "Cs"}, "35": {"label": "*2", "atom_type": "H0"}}

>  <type>  (15) 
unop_11

>  <geom_source>  (15) 
Heuristics

$$$$

     RDKit          3D

 42 43  0  0  0  0  0  0  0  0999 V2000
    0.5557    2.0693    2.3946 C   0  0  0  0  0  0  0  0  0  0  0  0
    0.9093    2.2178    0.9144 C   0  0  0  0  0  0  0  0  0  0  0  0
   -0.2829    2.6068    0.0804 C   0  0  0  0  0  0  0  0  0  0  0  0
   -0.6075    3.9449   -0.1189 C   0  0  0  0  0  3  0  0  0  0  0  0
   -1.7302    4.3060   -0.8477 C   0  0  0  0  0  0  0  0  0  0  0  0
   -2.5505    3.3291   -1.3914 C   0  0  0  0  0  0  0  0  0  0  0  0
   -2.2380    1.9916   -1.2011 C   0  0  0  0  0  0  0  0  0  0  0  0
   -1.1140    1.6369   -0.4714 C   0  0  0  0  0  0  0  0  0  0  0  0
   -0.2096    1.3036    2.5346 H   0  0  0  0  0  0  0  0  0  0  0  0
    0.1640    3.0064    2.7946 H   0  0  0  0  0  0  0  0  0  0  0  0
    1.4320    1.7875    2.9809 H   0  0  0  0  0  0  0  0  0  0  0  0
    1.6935    2.9703    0.8021 H   0  0  0  0  0  0  0  0  0  0  0  0
    0.0310    4.7147    0.3007 H   0  0  0  0  0  0  0  0  0  0  0  0
   -1.9633    5.3533   -0.9944 H   0  0  0  0  0  0  0  0  0  0  0  0
   -3.4261    3.6086   -1.9634 H   0  0  0  0  0  0  0  0  0  0  0  0
   -2.8699    1.2213   -1.6255 H   0  0  0  0  0  0  0  0  0  0  0  0
   -0.8743    0.5887   -0.3295 H   0  0  0  0  0  0  0  0  0  0  0  0
   -0.2743   -4.3207   -0.7405 C   0  0  0  0  0  0  0  0  0  0  0  0
   -0.2743   -4.3207    0.7901 C   0  0  0  0  0  0  0  0  0  0  0  0
    0.8688   -3.4843    1.3721 C   0  0  0  0  0  0  0  0  0  0  0  0
    0.8292   -2.0833    0.7880 C   0  0  0  0  0  0  0  0  0  0  0  0
    1.9483   -1.1095    1.1435 C   0  0  0  0  0  0  0  0  0  0  0  0
    1.8983   -0.0390    0.0248 C   0  0  0  0  0  0  0  0  0  0  0  0
    1.0048   -0.6308   -1.0938 C   0  0  0  0  0  0  0  0  0  0  0  0
    0.8797   -2.1090   -0.7383 C   0  0  0  0  0  0  0  0  0  0  0  0
   -0.2743   -2.9043   -1.3224 C   0  0  0  0  0  0  0  0  0  0  0  0
    0.6181   -4.8475   -1.0964 H   0  0  0  0  0  0  0  0  0  0  0  0
   -1.1352   -4.8818   -1.1112 H   0  0  0  0  0  0  0  0  0  0  0  0
   -1.2264   -3.9115    1.1461 H   0  0  0  0  0  0  0  0  0  0  0  0
   -0.2188   -5.3468    1.1609 H   0  0  0  0  0  0  0  0  0  0  0  0
    0.8016   -3.4584    2.4630 H   0  0  0  0  0  0  0  0  0  0  0  0
    1.8304   -3.9494    1.1241 H   0  0  0  0  0  0  0  0  0  0  0  0
   -0.1296   -1.6245    1.0706 H   0  0  0  0  0  0  0  0  0  0  0  0
    1.8394   -0.6816    2.1409 H   0  0  0  0  0  0  0  0  0  0  0  0
    2.9059   -1.6381    1.1230 H   0  0  0  0  0  0  0  0  0  0  0  0
    1.4043    1.0883    0.4692 H   0  0  0  0  0  0  0  0  0  0  0  0
    2.8995    0.1835   -0.3454 H   0  0  0  0  0  0  0  0  0  0  0  0
    1.4145   -0.4660   -2.0912 H   0  0  0  0  0  0  0  0  0  0  0  0
    0.0128   -0.1701   -1.0734 H   0  0  0  0  0  0  0  0  0  0  0  0
    1.8162   -2.6118   -1.0209 H   0  0  0  0  0  0  0  0  0  0  0  0
   -0.2136   -2.9432   -2.4133 H   0  0  0  0  0  0  0  0  0  0  0  0
   -1.2175   -2.4029   -1.0744 H   0  0  0  0  0  0  0  0  0  0  0  0
  1  2  1  0
  1  9  1  0
  1 10  1  0
  1 11  1  0
  2  3  2  3
  2 12  1  0
  3  4  1  0
  3  8  1  0
  4  5  1  0
  4 13  1  0
  5  6  2  0
  5 14  1  0
  6  7  1  0
  6 15  1  0
  7  8  2  0
  7 16  1  0
  8 17  1  0
 18 19  1  0
 18 26  1  0
 18 27  1  0
 18 28  1  0
 19 20  1  0
 19 29  1  0
 19 30  1  0
 20 21  1  0
 20 31  1  0
 20 32  1  0
 21 22  1  0
 21 25  1  0
 21 33  1  0
 22 23  1  0
 22 34  1  0
 22 35  1  0
 23 24  1  0
 23 36  1  0
 23 37  1  0
 24 25  1  0
 24 38  1  0
 24 39  1  0
 25 26  1  0
 25 40  1  0
 26 41  1  0
 26 42  1  0
M  RAD  1   4   2
M  END
>  <reaction>  (16) 
rxn_614

>  <mol_properties>  (16) 
{"1": {"label": "*1", "atom_type": "Cs"}, "2": {"label": "*0", "atom_type": "Cd"}, "21": {"label": "*4", "atom_type": "Cs"}, "22": {"label": "*3", "atom_type": "Cs"}, "35": {"label": "*2", "atom_type": "H0"}}

>  <type>  (16) 
unop_12

>  <geom_source>  (16) 
Heuristics

$$$$

     RDKit          3D

 42 43  0  0  0  0  0  0  0  0999 V2000
    2.5884    0.5512   -0.1776 C   0  0  0  0  0  0  0  0  0  0  0  0
    2.1691   -0.6134    0.6974 C   0  0  0  0  0  0  0  0  0  0  0  0
    3.9439    1.1189    0.2881 C   0  0  0  0  0  0  0  0  0  0  0  0
    3.0952   -1.8245    0.4691 C   0  0  0  0  0  0  0  0  0  0  0  0
    4.8921    0.0014    0.7992 C   0  0  0  0  0  0  0  0  0  0  0  0
    4.5616   -1.3880    0.2085 C   0  0  0  0  0  0  0  0  0  0  0  0
    1.4010    1.5003   -0.1180 C   0  0  0  0  0  0  0  0  0  0  0  0
    0.6982   -0.8144    0.3632 C   0  0  0  0  0  0  0  0  0  0  0  0
   -2.1849    0.8976   -1.0233 C   0  0  0  0  0  0  0  0  0  0  0  0
   -2.3932    2.3327   -0.5549 C   0  0  0  0  0  0  0  0  0  0  0  0
   -3.3636    0.0396   -0.6563 C   0  0  0  0  0  0  0  0  0  0  0  0
    0.1793    0.5854    0.0187 C   0  0  0  0  0  0  0  0  0  0  0  0
   -3.3920   -0.6291    0.5781 C   0  0  0  0  0  3  0  0  0  0  0  0
   -4.4670   -0.0599   -1.5203 C   0  0  0  0  0  0  0  0  0  0  0  0
   -4.5006   -1.4044    0.9329 C   0  0  0  0  0  0  0  0  0  0  0  0
   -5.5897   -1.5094    0.0631 C   0  0  0  0  0  0  0  0  0  0  0  0
   -5.5736   -0.8361   -1.1617 C   0  0  0  0  0  0  0  0  0  0  0  0
    2.6937    0.1978   -1.2313 H   0  0  0  0  0  0  0  0  0  0  0  0
    2.2389   -0.3090    1.7691 H   0  0  0  0  0  0  0  0  0  0  0  0
    4.4199    1.6494   -0.5650 H   0  0  0  0  0  0  0  0  0  0  0  0
    3.7980    1.8603    1.1036 H   0  0  0  0  0  0  0  0  0  0  0  0
    4.8165   -0.0622    1.9071 H   0  0  0  0  0  0  0  0  0  0  0  0
    5.9432    0.2668    0.5547 H   0  0  0  0  0  0  0  0  0  0  0  0
    4.7424   -1.3540   -0.8884 H   0  0  0  0  0  0  0  0  0  0  0  0
    5.2548   -2.1452    0.6341 H   0  0  0  0  0  0  0  0  0  0  0  0
    2.7450   -2.4262   -0.3978 H   0  0  0  0  0  0  0  0  0  0  0  0
    3.0554   -2.4777    1.3677 H   0  0  0  0  0  0  0  0  0  0  0  0
   -2.0318    0.8876   -2.1245 H   0  0  0  0  0  0  0  0  0  0  0  0
   -1.0308    0.3935   -0.4365 H   0  0  0  0  0  0  0  0  0  0  0  0
    1.3292    2.1132   -1.0413 H   0  0  0  0  0  0  0  0  0  0  0  0
    1.4701    2.1673    0.7697 H   0  0  0  0  0  0  0  0  0  0  0  0
    0.5772   -1.4647   -0.5297 H   0  0  0  0  0  0  0  0  0  0  0  0
    0.1467   -1.2547    1.2219 H   0  0  0  0  0  0  0  0  0  0  0  0
   -3.2944    2.7697   -1.0359 H   0  0  0  0  0  0  0  0  0  0  0  0
   -1.5084    2.9431   -0.8319 H   0  0  0  0  0  0  0  0  0  0  0  0
   -2.5134    2.3618    0.5489 H   0  0  0  0  0  0  0  0  0  0  0  0
   -0.5034    0.9635    0.8107 H   0  0  0  0  0  0  0  0  0  0  0  0
   -2.5588   -0.5489    1.2651 H   0  0  0  0  0  0  0  0  0  0  0  0
   -4.5168   -1.9211    1.8838 H   0  0  0  0  0  0  0  0  0  0  0  0
   -6.4473   -2.1088    0.3398 H   0  0  0  0  0  0  0  0  0  0  0  0
   -6.4200   -0.9132   -1.8319 H   0  0  0  0  0  0  0  0  0  0  0  0
   -4.4698    0.4636   -2.4684 H   0  0  0  0  0  0  0  0  0  0  0  0
  1  3  1  0
  1  7  1  0
  1  2  1  0
  1 18  1  0
  2  4  1  0
  2  8  1  0
  2 19  1  0
  3  5  1  0
  3 20  1  0
  3 21  1  0
  4  6  1  0
  4 26  1  0
  4 27  1  0
  5  6  1  0
  5 22  1  0
  5 23  1  0
  6 24  1  0
  6 25  1  0
  7 12  1  0
  7 30  1  0
  7 31  1  0
  8 12  1  0
  8 32  1  0
  8 33  1  0
  9 10  1  0
  9 11  2  3
  9 28  1  0
 10 34  1  0
 10 35  1  0
 10 36  1  0
 11 13  1  0
 11 14  1  0
 12 29  1  0
 12 37  1  0
 13 15  1  0
 13 38  1  0
 14 17  2  0
 14 42  1  0
 15 16  2  0
 15 39  1  0
 16 17  1  0
 16 40  1  0
 17 41  1  0
M  RAD  1  13   2
M  END
>  <reaction>  (17) 
rxn_614

>  <mol_properties>  (17) 
{"1": {"label": "*1", "atom_type": "Cs"}, "2": {"label": "*0", "atom_type": "Cd"}, "21": {"label": "*4", "atom_type": "Cs"}, "22": {"label": "*3", "atom_type": "Cs"}, "35": {"label": "*2", "atom_type": "H0"}}

>  <type>  (17) 
unop_13

>  <geom_source>  (17) 
AutoTST

$$$$

     RDKit          3D

 42 43  0  0  0  0  0  0  0  0999 V2000
    1.3209    2.2959    2.0627 C   0  0  0  0  0  0  0  0  0  0  0  0
    0.9900    2.1464    0.5773 C   0  0  0  0  0  0  0  0  0  0  0  0
   -0.4069    2.6084    0.2559 C   0  0  0  0  0  0  0  0  0  0  0  0
   -0.6603    3.9355   -0.0763 C   0  0  0  0  0  3  0  0  0  0  0  0
   -1.9510    4.3743   -0.3280 C   0  0  0  0  0  0  0  0  0  0  0  0
   -3.0145    3.4879   -0.2508 C   0  0  0  0  0  0  0  0  0  0  0  0
   -2.7760    2.1622    0.0783 C   0  0  0  0  0  0  0  0  0  0  0  0
   -1.4830    1.7295    0.3289 C   0  0  0  0  0  0  0  0  0  0  0  0
    0.6306    1.7111    2.6735 H   0  0  0  0  0  0  0  0  0  0  0  0
    1.2376    3.3386    2.3746 H   0  0  0  0  0  0  0  0  0  0  0  0
    2.3362    1.9561    2.2746 H   0  0  0  0  0  0  0  0  0  0  0  0
    1.7082    2.7193   -0.0141 H   0  0  0  0  0  0  0  0  0  0  0  0
    0.1669    4.6340   -0.1416 H   0  0  0  0  0  0  0  0  0  0  0  0
   -2.1264    5.4107   -0.5887 H   0  0  0  0  0  0  0  0  0  0  0  0
   -4.0230    3.8275   -0.4498 H   0  0  0  0  0  0  0  0  0  0  0  0
   -3.5995    1.4612    0.1368 H   0  0  0  0  0  0  0  0  0  0  0  0
   -1.3040    0.6904    0.5827 H   0  0  0  0  0  0  0  0  0  0  0  0
   -0.1936   -4.3921   -1.0775 C   0  0  0  0  0  0  0  0  0  0  0  0
   -0.1936   -4.3921    0.4531 C   0  0  0  0  0  0  0  0  0  0  0  0
    0.9495   -3.5557    1.0351 C   0  0  0  0  0  0  0  0  0  0  0  0
    0.9099   -2.1547    0.4510 C   0  0  0  0  0  0  0  0  0  0  0  0
    2.0290   -1.1809    0.8064 C   0  0  0  0  0  0  0  0  0  0  0  0
    1.9790   -0.1103   -0.3122 C   0  0  0  0  0  0  0  0  0  0  0  0
    1.0855   -0.7022   -1.4308 C   0  0  0  0  0  0  0  0  0  0  0  0
    0.9604   -2.1803   -1.0754 C   0  0  0  0  0  0  0  0  0  0  0  0
   -0.1936   -2.9756   -1.6595 C   0  0  0  0  0  0  0  0  0  0  0  0
    0.6988   -4.9189   -1.4334 H   0  0  0  0  0  0  0  0  0  0  0  0
   -1.0545   -4.9531   -1.4482 H   0  0  0  0  0  0  0  0  0  0  0  0
   -1.1457   -3.9829    0.8090 H   0  0  0  0  0  0  0  0  0  0  0  0
   -0.1381   -5.4181    0.8238 H   0  0  0  0  0  0  0  0  0  0  0  0
    0.8823   -3.5297    2.1259 H   0  0  0  0  0  0  0  0  0  0  0  0
    1.9110   -4.0208    0.7870 H   0  0  0  0  0  0  0  0  0  0  0  0
   -0.0489   -1.6958    0.7335 H   0  0  0  0  0  0  0  0  0  0  0  0
    1.9201   -0.7530    1.8038 H   0  0  0  0  0  0  0  0  0  0  0  0
    2.9866   -1.7094    0.7860 H   0  0  0  0  0  0  0  0  0  0  0  0
    1.4850    1.0169    0.1321 H   0  0  0  0  0  0  0  0  0  0  0  0
    2.9802    0.1121   -0.6825 H   0  0  0  0  0  0  0  0  0  0  0  0
    1.4951   -0.5373   -2.4282 H   0  0  0  0  0  0  0  0  0  0  0  0
    0.0935   -0.2414   -1.4104 H   0  0  0  0  0  0  0  0  0  0  0  0
    1.8969   -2.6831   -1.3579 H   0  0  0  0  0  0  0  0  0  0  0  0
   -0.1330   -3.0146   -2.7503 H   0  0  0  0  0  0  0  0  0  0  0  0
   -1.1368   -2.4743   -1.4115 H   0  0  0  0  0  0  0  0  0  0  0  0
  1  2  1  0
  1  9  1  0
  1 10  1  0
  1 11  1  0
  2  3  2  3
  2 12  1  0
  3  4  1  0
  3  8  1  0
  4  5  1  0
  4 13  1  0
  5  6  2  0
  5 14  1  0
  6  7  1  0
  6 15  1  0
  7  8  2  0
  7 16  1  0
  8 17  1  0
 18 19  1  0
 18 26  1  0
 18 27  1  0
 18 28  1  0
 19 20  1  0
 19 29  1  0
 19 30  1  0
 20 21  1  0
 20 31  1  0
 20 32  1  0
 21 22  1  0
 21 25  1  0
 21 33  1  0
 22 23  1  0
 22 34  1  0
 22 35  1  0
 23 24  1  0
 23 36  1  0
 23 37  1  0
 24 25  1  0
 24 38  1  0
 24 39  1  0
 25 26  1  0
 25 40  1  0
 26 41  1  0
 26 42  1  0
M  RAD  1   4   2
M  END
>  <reaction>  (18) 
rxn_614

>  <mol_properties>  (18) 
{"1": {"label": "*1", "atom_type": "Cs"}, "2": {"label": "*0", "atom_type": "Cd"}, "21": {"label": "*4", "atom_type": "Cs"}, "22": {"label": "*3", "atom_type": "Cs"}, "35": {"label": "*2", "atom_type": "H0"}}

>  <type>  (18) 
unop_14

>  <geom_source>  (18) 
gaussian_log

$$$$
