
     RDKit          3D

  6  5  0  0  0  0  0  0  0  0999 V2000
    0.6594    0.0438   -0.0050 C   0  0  0  0  0  0  0  0  0  0  0  0
   -0.6594   -0.0438    0.0050 C   0  0  0  0  0  0  0  0  0  0  0  0
    1.1706    0.8681   -0.4881 H   0  0  0  0  0  0  0  0  0  0  0  0
    1.2824   -0.7051    0.4696 H   0  0  0  0  0  0  0  0  0  0  0  0
   -1.2824    0.7051   -0.4696 H   0  0  0  0  0  0  0  0  0  0  0  0
   -1.1706   -0.8681    0.4881 H   0  0  0  0  0  0  0  0  0  0  0  0
  1  2  2  3
  1  3  1  0
  1  4  1  0
  2  5  1  0
  2  6  1  0
M  END
>  <reaction>  (1) 
rxn_1587

>  <mol_properties>  (1) 
{"1": {"label": "donator", "atom_type": "Cd"}, "4": {"label": "d_hydrogen", "atom_type": "H0"}}

>  <type>  (1) 
r1h

$$$$

     RDKit          3D

  8  7  0  0  0  0  0  0  0  0999 V2000
   -1.0607    0.1793   -0.1423 C   0  0  0  0  0  0  0  0  0  0  0  0
    0.2796    0.0327    0.4820 C   0  0  0  0  0  3  0  0  0  0  0  0
    0.8817   -1.4663    1.0791 S   0  0  0  0  0  0  0  0  0  0  0  0
   -1.3043    1.2328   -0.2850 H   0  0  0  0  0  0  0  0  0  0  0  0
   -1.8444   -0.2641    0.4799 H   0  0  0  0  0  0  0  0  0  0  0  0
   -1.1164   -0.3100   -1.1237 H   0  0  0  0  0  0  0  0  0  0  0  0
    1.0449    0.7826    0.3391 H   0  0  0  0  0  0  0  0  0  0  0  0
   -0.2993   -2.0726    1.2718 H   0  0  0  0  0  0  0  0  0  0  0  0
  1  2  1  0
  1  4  1  0
  1  5  1  0
  1  6  1  0
  2  3  1  0
  2  7  1  0
  3  8  1  0
M  RAD  1   2   2
M  END
>  <reaction>  (2) 
rxn_1587

>  <mol_properties>  (2) 
{"1": {"label": "acceptor", "atom_type": "Cs"}}

>  <type>  (2) 
r2

$$$$

     RDKit          3D

  9  8  0  0  0  0  0  0  0  0999 V2000
   -0.8818   -0.3578    0.1297 C   0  0  0  0  0  0  0  0  0  0  0  0
    0.6153   -0.3021   -0.1188 C   0  0  0  0  0  0  0  0  0  0  0  0
    1.5354   -1.7170    0.5545 S   0  0  0  0  0  0  0  0  0  0  0  0
   -1.1018   -0.3317    1.1984 H   0  0  0  0  0  0  0  0  0  0  0  0
   -1.3114   -1.2723   -0.2799 H   0  0  0  0  0  0  0  0  0  0  0  0
   -1.3767    0.4976   -0.3363 H   0  0  0  0  0  0  0  0  0  0  0  0
    1.0467    0.6194    0.2718 H   0  0  0  0  0  0  0  0  0  0  0  0
    0.8295   -0.3275   -1.1882 H   0  0  0  0  0  0  0  0  0  0  0  0
    1.2306   -1.5077    1.8423 H   0  0  0  0  0  0  0  0  0  0  0  0
  1  2  1  0
  1  4  1  0
  1  5  1  0
  1  6  1  0
  2  3  1  0
  2  7  1  0
  2  8  1  0
  3  9  1  0
M  END
>  <reaction>  (3) 
rxn_1587

>  <mol_properties>  (3) 
{"1": {"label": "acceptor", "atom_type": "Cs"}, "8": {"label": "a_hydrogen", "atom_type": "H0"}}

>  <type>  (3) 
r2h

$$$$

     RDKit          3D

 14 12  0  0  0  0  0  0  0  0999 V2000
   -1.6030    0.5258    1.0933 C   0  0  0  0  0  0  0  0  0  0  0  0
   -0.2333    0.0230    0.7040 C   0  0  0  0  0  0  0  0  0  0  0  0
    0.8610    1.2041   -0.0707 S   0  0  0  0  0  0  0  0  0  0  0  0
   -2.1845   -0.2792    1.5479 H   0  0  0  0  0  0  0  0  0  0  0  0
   -2.1489    0.8809    0.2168 H   0  0  0  0  0  0  0  0  0  0  0  0
   -1.5371    1.3495    1.8072 H   0  0  0  0  0  0  0  0  0  0  0  0
    0.3171   -0.4151    1.5366 H   0  0  0  0  0  0  0  0  0  0  0  0
    0.0177    1.5885   -1.0396 H   0  0  0  0  0  0  0  0  0  0  0  0
    0.2536   -1.9101   -2.0855 C   0  0  0  0  0  0  0  0  0  0  0  0
   -0.5940   -1.9621   -1.0868 C   0  0  0  0  0  3  0  0  0  0  0  0
    1.0305   -1.1509   -2.1246 H   0  0  0  0  0  0  0  0  0  0  0  0
    0.2202   -2.6191   -2.9106 H   0  0  0  0  0  0  0  0  0  0  0  0
   -0.4034   -0.9275   -0.0887 H   0  0  0  0  0  0  0  0  0  0  0  0
   -1.4071   -2.6581   -0.9160 H   0  0  0  0  0  0  0  0  0  0  0  0
  1  2  1  0
  1  4  1  0
  1  5  1  0
  1  6  1  0
  2  3  1  0
  2  7  1  0
  2 13  1  0
  3  8  1  0
  9 10  2  3
  9 11  1  0
  9 12  1  0
 10 14  1  0
M  RAD  1  10   2
M  END
>  <reaction>  (4) 
rxn_1587

>  <mol_properties>  (4) 
{"1": {"label": "*1", "atom_type": "Cs"}, "2": {"label": "*0", "atom_type": "S2s"}, "8": {"label": "*4", "atom_type": "Cd"}, "9": {"label": "*3", "atom_type": "Cd"}, "12": {"label": "*2", "atom_type": "H0"}}

>  <type>  (4) 
ts

$$$$

     RDKit          3D

 14 12  0  0  0  0  0  0  0  0999 V2000
   -1.3270    0.1934    1.4641 C   0  0  0  0  0  0  0  0  0  0  0  0
   -0.1013    0.0958    0.5728 C   0  0  0  0  0  3  0  0  0  0  0  0
    0.7673    1.6725    0.3253 S   0  0  0  0  0  0  0  0  0  0  0  0
   -1.7746   -0.7934    1.6046 H   0  0  0  0  0  0  0  0  0  0  0  0
   -2.0823    0.8443    1.0200 H   0  0  0  0  0  0  0  0  0  0  0  0
   -1.0668    0.5986    2.4422 H   0  0  0  0  0  0  0  0  0  0  0  0
    0.6497   -0.5566    1.0207 H   0  0  0  0  0  0  0  0  0  0  0  0
   -0.2416    2.3184   -0.2748 H   0  0  0  0  0  0  0  0  0  0  0  0
   -0.1013   -2.1248   -2.1170 C   0  0  0  0  0  0  0  0  0  0  0  0
   -0.1013   -2.1248   -0.7952 C   0  0  0  0  0  0  0  0  0  0  0  0
   -0.1013   -1.2022   -2.6854 H   0  0  0  0  0  0  0  0  0  0  0  0
   -0.1013   -3.0473   -2.6854 H   0  0  0  0  0  0  0  0  0  0  0  0
   -0.1013   -1.0177   -0.1132 H   0  0  0  0  0  0  0  0  0  0  0  0
   -0.1013   -3.0473   -0.2269 H   0  0  0  0  0  0  0  0  0  0  0  0
  1  2  1  0
  1  4  1  0
  1  5  1  0
  1  6  1  0
  2  3  1  0
  2  7  1  0
  3  8  1  0
  9 10  2  3
  9 11  1  0
  9 12  1  0
 10 13  1  0
 10 14  1  0
M  RAD  1   2   2
M  END
>  <reaction>  (5) 
rxn_1587

>  <mol_properties>  (5) 
{"1": {"label": "*1", "atom_type": "Cs"}, "2": {"label": "*0", "atom_type": "S2s"}, "8": {"label": "*4", "atom_type": "Cd"}, "9": {"label": "*3", "atom_type": "Cd"}, "12": {"label": "*2", "atom_type": "H0"}}

>  <type>  (5) 
unop_1

>  <geom_source>  (5) 
Heuristics

$$$$

     RDKit          3D

 14 12  0  0  0  0  0  0  0  0999 V2000
   -1.1267    1.4104   -0.3216 C   0  0  0  0  0  0  0  0  0  0  0  0
   -0.4190    0.2987    0.4332 C   0  0  0  0  0  3  0  0  0  0  0  0
    1.0495    0.8419    1.3553 S   0  0  0  0  0  0  0  0  0  0  0  0
   -2.0208    1.0245   -0.8168 H   0  0  0  0  0  0  0  0  0  0  0  0
   -0.4769    1.8379   -1.0873 H   0  0  0  0  0  0  0  0  0  0  0  0
   -1.4235    2.2130    0.3540 H   0  0  0  0  0  0  0  0  0  0  0  0
   -1.0730   -0.1256    1.1964 H   0  0  0  0  0  0  0  0  0  0  0  0
    1.7565    1.2615    0.2974 H   0  0  0  0  0  0  0  0  0  0  0  0
   -0.4190   -1.9218   -2.2566 C   0  0  0  0  0  0  0  0  0  0  0  0
   -0.4190   -1.9218   -0.9348 C   0  0  0  0  0  0  0  0  0  0  0  0
   -0.4190   -0.9992   -2.8249 H   0  0  0  0  0  0  0  0  0  0  0  0
   -0.4190   -2.8444   -2.8249 H   0  0  0  0  0  0  0  0  0  0  0  0
   -0.4190   -0.8147   -0.2528 H   0  0  0  0  0  0  0  0  0  0  0  0
   -0.4190   -2.8444   -0.3664 H   0  0  0  0  0  0  0  0  0  0  0  0
  1  2  1  0
  1  4  1  0
  1  5  1  0
  1  6  1  0
  2  3  1  0
  2  7  1  0
  3  8  1  0
  9 10  2  3
  9 11  1  0
  9 12  1  0
 10 13  1  0
 10 14  1  0
M  RAD  1   2   2
M  END
>  <reaction>  (6) 
rxn_1587

>  <mol_properties>  (6) 
{"1": {"label": "*1", "atom_type": "Cs"}, "2": {"label": "*0", "atom_type": "S2s"}, "8": {"label": "*4", "atom_type": "Cd"}, "9": {"label": "*3", "atom_type": "Cd"}, "12": {"label": "*2", "atom_type": "H0"}}

>  <type>  (6) 
unop_2

>  <geom_source>  (6) 
Heuristics

$$$$

     RDKit          3D

 14 12  0  0  0  0  0  0  0  0999 V2000
   -0.5636   -0.0731    1.9744 C   0  0  0  0  0  0  0  0  0  0  0  0
    0.1441    0.1011    0.6420 C   0  0  0  0  0  3  0  0  0  0  0  0
    0.1023    1.7976   -0.0076 S   0  0  0  0  0  0  0  0  0  0  0  0
   -0.4640   -1.1027    2.3262 H   0  0  0  0  0  0  0  0  0  0  0  0
   -1.6284    0.1489    1.8832 H   0  0  0  0  0  0  0  0  0  0  0  0
   -0.1445    0.5932    2.7287 H   0  0  0  0  0  0  0  0  0  0  0  0
    1.2074   -0.1230    0.7385 H   0  0  0  0  0  0  0  0  0  0  0  0
   -1.2288    1.8898   -0.1286 H   0  0  0  0  0  0  0  0  0  0  0  0
    0.1441   -2.1195   -2.0478 C   0  0  0  0  0  0  0  0  0  0  0  0
    0.1441   -2.1195   -0.7260 C   0  0  0  0  0  0  0  0  0  0  0  0
    0.1441   -1.1969   -2.6162 H   0  0  0  0  0  0  0  0  0  0  0  0
    0.1441   -3.0421   -2.6162 H   0  0  0  0  0  0  0  0  0  0  0  0
    0.1441   -1.0124   -0.0440 H   0  0  0  0  0  0  0  0  0  0  0  0
    0.1441   -3.0421   -0.1576 H   0  0  0  0  0  0  0  0  0  0  0  0
  1  2  1  0
  1  4  1  0
  1  5  1  0
  1  6  1  0
  2  3  1  0
  2  7  1  0
  3  8  1  0
  9 10  2  3
  9 11  1  0
  9 12  1  0
 10 13  1  0
 10 14  1  0
M  RAD  1   2   2
M  END
>  <reaction>  (7) 
rxn_1587

>  <mol_properties>  (7) 
{"1": {"label": "*1", "atom_type": "Cs"}, "2": {"label": "*0", "atom_type": "S2s"}, "8": {"label": "*4", "atom_type": "Cd"}, "9": {"label": "*3", "atom_type": "Cd"}, "12": {"label": "*2", "atom_type": "H0"}}

>  <type>  (7) 
unop_3

>  <geom_source>  (7) 
Heuristics

$$$$

     RDKit          3D

 14 12  0  0  0  0  0  0  0  0999 V2000
    0.9298    1.8043   -0.1418 C   0  0  0  0  0  0  0  0  0  0  0  0
   -0.2960    0.9644    0.1719 C   0  0  0  0  0  3  0  0  0  0  0  0
   -0.0885   -0.1569    1.5867 S   0  0  0  0  0  0  0  0  0  0  0  0
    0.7230    2.4834   -0.9725 H   0  0  0  0  0  0  0  0  0  0  0  0
    1.7736    1.1732   -0.4263 H   0  0  0  0  0  0  0  0  0  0  0  0
    1.2291    2.3961    0.7236 H   0  0  0  0  0  0  0  0  0  0  0  0
   -1.1364    1.6000    0.4545 H   0  0  0  0  0  0  0  0  0  0  0  0
    0.9044   -0.8900    1.0654 H   0  0  0  0  0  0  0  0  0  0  0  0
   -0.2960   -1.2561   -2.5179 C   0  0  0  0  0  0  0  0  0  0  0  0
   -0.2960   -1.2561   -1.1962 C   0  0  0  0  0  0  0  0  0  0  0  0
   -0.2960   -0.3336   -3.0863 H   0  0  0  0  0  0  0  0  0  0  0  0
   -0.2960   -2.1787   -3.0863 H   0  0  0  0  0  0  0  0  0  0  0  0
   -0.2960   -0.1490   -0.5141 H   0  0  0  0  0  0  0  0  0  0  0  0
   -0.2960   -2.1787   -0.6278 H   0  0  0  0  0  0  0  0  0  0  0  0
  1  2  1  0
  1  4  1  0
  1  5  1  0
  1  6  1  0
  2  3  1  0
  2  7  1  0
  3  8  1  0
  9 10  2  3
  9 11  1  0
  9 12  1  0
 10 13  1  0
 10 14  1  0
M  RAD  1   2   2
M  END
>  <reaction>  (8) 
rxn_1587

>  <mol_properties>  (8) 
{"1": {"label": "*1", "atom_type": "Cs"}, "2": {"label": "*0", "atom_type": "S2s"}, "8": {"label": "*4", "atom_type": "Cd"}, "9": {"label": "*3", "atom_type": "Cd"}, "12": {"label": "*2", "atom_type": "H0"}}

>  <type>  (8) 
unop_4

>  <geom_source>  (8) 
Heuristics

$$$$

     RDKit          3D

 14 12  0  0  0  0  0  0  0  0999 V2000
    0.5107    0.0888    2.0753 C   0  0  0  0  0  0  0  0  0  0  0  0
    0.5107    0.3624    0.5815 C   0  0  0  0  0  3  0  0  0  0  0  0
   -0.8653    1.4053    0.0151 S   0  0  0  0  0  0  0  0  0  0  0  0
    1.3844   -0.5056    2.3530 H   0  0  0  0  0  0  0  0  0  0  0  0
   -0.3811   -0.4668    2.3707 H   0  0  0  0  0  0  0  0  0  0  0  0
    0.5302    1.0198    2.6424 H   0  0  0  0  0  0  0  0  0  0  0  0
    1.4044    0.9170    0.2915 H   0  0  0  0  0  0  0  0  0  0  0  0
   -1.8536    0.5754    0.3750 H   0  0  0  0  0  0  0  0  0  0  0  0
    0.5107   -1.8581   -2.1083 C   0  0  0  0  0  0  0  0  0  0  0  0
    0.5107   -1.8581   -0.7866 C   0  0  0  0  0  0  0  0  0  0  0  0
    0.5107   -0.9355   -2.6767 H   0  0  0  0  0  0  0  0  0  0  0  0
    0.5107   -2.7807   -2.6767 H   0  0  0  0  0  0  0  0  0  0  0  0
    0.5107   -0.7510   -0.1045 H   0  0  0  0  0  0  0  0  0  0  0  0
    0.5107   -2.7807   -0.2182 H   0  0  0  0  0  0  0  0  0  0  0  0
  1  2  1  0
  1  4  1  0
  1  5  1  0
  1  6  1  0
  2  3  1  0
  2  7  1  0
  3  8  1  0
  9 10  2  3
  9 11  1  0
  9 12  1  0
 10 13  1  0
 10 14  1  0
M  RAD  1   2   2
M  END
>  <reaction>  (9) 
rxn_1587

>  <mol_properties>  (9) 
{"1": {"label": "*1", "atom_type": "Cs"}, "2": {"label": "*0", "atom_type": "S2s"}, "8": {"label": "*4", "atom_type": "Cd"}, "9": {"label": "*3", "atom_type": "Cd"}, "12": {"label": "*2", "atom_type": "H0"}}

>  <type>  (9) 
unop_5

>  <geom_source>  (9) 
Heuristics

$$$$

     RDKit          3D

 14 12  0  0  0  0  0  0  0  0999 V2000
    1.3978    1.5363    0.4381 C   0  0  0  0  0  0  0  0  0  0  0  0
   -0.0175    1.0675    0.1493 C   0  0  0  0  0  3  0  0  0  0  0  0
   -0.6543   -0.1537    1.3347 S   0  0  0  0  0  0  0  0  0  0  0  0
    1.7012    2.2976   -0.2845 H   0  0  0  0  0  0  0  0  0  0  0  0
    2.1053    0.7080    0.3700 H   0  0  0  0  0  0  0  0  0  0  0  0
    1.4716    1.9601    1.4399 H   0  0  0  0  0  0  0  0  0  0  0  0
   -0.7202    1.8992    0.2177 H   0  0  0  0  0  0  0  0  0  0  0  0
    0.2529   -1.1074    1.0847 H   0  0  0  0  0  0  0  0  0  0  0  0
   -0.0175   -1.1530   -2.5404 C   0  0  0  0  0  0  0  0  0  0  0  0
   -0.0175   -1.1530   -1.2187 C   0  0  0  0  0  0  0  0  0  0  0  0
   -0.0175   -0.2304   -3.1088 H   0  0  0  0  0  0  0  0  0  0  0  0
   -0.0175   -2.0756   -3.1088 H   0  0  0  0  0  0  0  0  0  0  0  0
   -0.0175   -0.0459   -0.5366 H   0  0  0  0  0  0  0  0  0  0  0  0
   -0.0175   -2.0756   -0.6503 H   0  0  0  0  0  0  0  0  0  0  0  0
  1  2  1  0
  1  4  1  0
  1  5  1  0
  1  6  1  0
  2  3  1  0
  2  7  1  0
  3  8  1  0
  9 10  2  3
  9 11  1  0
  9 12  1  0
 10 13  1  0
 10 14  1  0
M  RAD  1   2   2
M  END
>  <reaction>  (10) 
rxn_1587

>  <mol_properties>  (10) 
{"1": {"label": "*1", "atom_type": "Cs"}, "2": {"label": "*0", "atom_type": "S2s"}, "8": {"label": "*4", "atom_type": "Cd"}, "9": {"label": "*3", "atom_type": "Cd"}, "12": {"label": "*2", "atom_type": "H0"}}

>  <type>  (10) 
unop_6

>  <geom_source>  (10) 
Heuristics

$$$$

     RDKit          3D

 14 12  0  0  0  0  0  0  0  0999 V2000
    1.5136    1.1311    1.1049 C   0  0  0  0  0  0  0  0  0  0  0  0
    0.2879    1.0336    0.2136 C   0  0  0  0  0  3  0  0  0  0  0  0
   -1.0834    0.0836    0.9340 S   0  0  0  0  0  0  0  0  0  0  0  0
    2.2803    1.7486    0.6309 H   0  0  0  0  0  0  0  0  0  0  0  0
    1.9431    0.1446    1.2881 H   0  0  0  0  0  0  0  0  0  0  0  0
    1.2605    1.5721    2.0693 H   0  0  0  0  0  0  0  0  0  0  0  0
   -0.1366    2.0222    0.0329 H   0  0  0  0  0  0  0  0  0  0  0  0
   -0.4356   -1.0853    1.0290 H   0  0  0  0  0  0  0  0  0  0  0  0
    0.2879   -1.1870   -2.4762 C   0  0  0  0  0  0  0  0  0  0  0  0
    0.2879   -1.1870   -1.1545 C   0  0  0  0  0  0  0  0  0  0  0  0
    0.2879   -0.2644   -3.0446 H   0  0  0  0  0  0  0  0  0  0  0  0
    0.2879   -2.1095   -3.0446 H   0  0  0  0  0  0  0  0  0  0  0  0
    0.2879   -0.0799   -0.4724 H   0  0  0  0  0  0  0  0  0  0  0  0
    0.2879   -2.1095   -0.5861 H   0  0  0  0  0  0  0  0  0  0  0  0
  1  2  1  0
  1  4  1  0
  1  5  1  0
  1  6  1  0
  2  3  1  0
  2  7  1  0
  3  8  1  0
  9 10  2  3
  9 11  1  0
  9 12  1  0
 10 13  1  0
 10 14  1  0
M  RAD  1   2   2
M  END
>  <reaction>  (11) 
rxn_1587

>  <mol_properties>  (11) 
{"1": {"label": "*1", "atom_type": "Cs"}, "2": {"label": "*0", "atom_type": "S2s"}, "8": {"label": "*4", "atom_type": "Cd"}, "9": {"label": "*3", "atom_type": "Cd"}, "12": {"label": "*2", "atom_type": "H0"}}

>  <type>  (11) 
unop_7

>  <geom_source>  (11) 
Heuristics

$$$$

     RDKit          3D

 14 12  0  0  0  0  0  0  0  0999 V2000
   -1.6327    0.6080    0.7937 C   0  0  0  0  0  0  0  0  0  0  0  0
   -0.2174    0.1392    0.5049 C   0  0  0  0  0  3  0  0  0  0  0  0
    1.0523    1.4191    0.7322 S   0  0  0  0  0  0  0  0  0  0  0  0
   -2.3379   -0.2187    0.6794 H   0  0  0  0  0  0  0  0  0  0  0  0
   -1.9301    1.4006    0.1047 H   0  0  0  0  0  0  0  0  0  0  0  0
   -1.7154    0.9965    1.8091 H   0  0  0  0  0  0  0  0  0  0  0  0
    0.0743   -0.6534    1.1955 H   0  0  0  0  0  0  0  0  0  0  0  0
    0.5997    2.2618   -0.2059 H   0  0  0  0  0  0  0  0  0  0  0  0
   -0.2174   -2.0813   -2.1848 C   0  0  0  0  0  0  0  0  0  0  0  0
   -0.2174   -2.0813   -0.8631 C   0  0  0  0  0  0  0  0  0  0  0  0
   -0.2174   -1.1587   -2.7532 H   0  0  0  0  0  0  0  0  0  0  0  0
   -0.2174   -3.0039   -2.7532 H   0  0  0  0  0  0  0  0  0  0  0  0
   -0.2174   -0.9742   -0.1811 H   0  0  0  0  0  0  0  0  0  0  0  0
   -0.2174   -3.0039   -0.2947 H   0  0  0  0  0  0  0  0  0  0  0  0
  1  2  1  0
  1  4  1  0
  1  5  1  0
  1  6  1  0
  2  3  1  0
  2  7  1  0
  3  8  1  0
  9 10  2  3
  9 11  1  0
  9 12  1  0
 10 13  1  0
 10 14  1  0
M  RAD  1   2   2
M  END
>  <reaction>  (12) 
rxn_1587

>  <mol_properties>  (12) 
{"1": {"label": "*1", "atom_type": "Cs"}, "2": {"label": "*0", "atom_type": "S2s"}, "8": {"label": "*4", "atom_type": "Cd"}, "9": {"label": "*3", "atom_type": "Cd"}, "12": {"label": "*2", "atom_type": "H0"}}

>  <type>  (12) 
unop_8

>  <geom_source>  (12) 
Heuristics

$$$$

     RDKit          3D

 14 12  0  0  0  0  0  0  0  0999 V2000
    0.2283    1.8643   -0.4954 C   0  0  0  0  0  0  0  0  0  0  0  0
   -0.4794    0.7526    0.2594 C   0  0  0  0  0  3  0  0  0  0  0  0
    0.4726    0.0729    1.6499 S   0  0  0  0  0  0  0  0  0  0  0  0
   -0.4144    2.2547   -1.2881 H   0  0  0  0  0  0  0  0  0  0  0  0
    1.1472    1.4993   -0.9576 H   0  0  0  0  0  0  0  0  0  0  0  0
    0.4909    2.6842    0.1735 H   0  0  0  0  0  0  0  0  0  0  0  0
   -1.3974    1.1224    0.7183 H   0  0  0  0  0  0  0  0  0  0  0  0
    1.5042   -0.3858    0.9284 H   0  0  0  0  0  0  0  0  0  0  0  0
   -0.4794   -1.4680   -2.4304 C   0  0  0  0  0  0  0  0  0  0  0  0
   -0.4794   -1.4680   -1.1087 C   0  0  0  0  0  0  0  0  0  0  0  0
   -0.4794   -0.5454   -2.9988 H   0  0  0  0  0  0  0  0  0  0  0  0
   -0.4794   -2.3906   -2.9988 H   0  0  0  0  0  0  0  0  0  0  0  0
   -0.4794   -0.3609   -0.4266 H   0  0  0  0  0  0  0  0  0  0  0  0
   -0.4794   -2.3906   -0.5403 H   0  0  0  0  0  0  0  0  0  0  0  0
  1  2  1  0
  1  4  1  0
  1  5  1  0
  1  6  1  0
  2  3  1  0
  2  7  1  0
  3  8  1  0
  9 10  2  3
  9 11  1  0
  9 12  1  0
 10 13  1  0
 10 14  1  0
M  RAD  1   2   2
M  END
>  <reaction>  (13) 
rxn_1587

>  <mol_properties>  (13) 
{"1": {"label": "*1", "atom_type": "Cs"}, "2": {"label": "*0", "atom_type": "S2s"}, "8": {"label": "*4", "atom_type": "Cd"}, "9": {"label": "*3", "atom_type": "Cd"}, "12": {"label": "*2", "atom_type": "H0"}}

>  <type>  (13) 
unop_9

>  <geom_source>  (13) 
Heuristics

$$$$

     RDKit          3D

 14 12  0  0  0  0  0  0  0  0999 V2000
   -1.5328    1.0345    0.1531 C   0  0  0  0  0  0  0  0  0  0  0  0
   -0.3071    0.1945    0.4668 C   0  0  0  0  0  3  0  0  0  0  0  0
    1.1103    1.1475    1.0870 S   0  0  0  0  0  0  0  0  0  0  0  0
   -2.3577    0.3966   -0.1731 H   0  0  0  0  0  0  0  0  0  0  0  0
   -1.3237    1.7476   -0.6463 H   0  0  0  0  0  0  0  0  0  0  0  0
   -1.8551    1.5969    1.0297 H   0  0  0  0  0  0  0  0  0  0  0  0
   -0.5219   -0.5170    1.2654 H   0  0  0  0  0  0  0  0  0  0  0  0
    1.2844    1.9042   -0.0049 H   0  0  0  0  0  0  0  0  0  0  0  0
   -0.3071   -2.0260   -2.2230 C   0  0  0  0  0  0  0  0  0  0  0  0
   -0.3071   -2.0260   -0.9013 C   0  0  0  0  0  0  0  0  0  0  0  0
   -0.3071   -1.1034   -2.7914 H   0  0  0  0  0  0  0  0  0  0  0  0
   -0.3071   -2.9486   -2.7914 H   0  0  0  0  0  0  0  0  0  0  0  0
   -0.3071   -0.9189   -0.2192 H   0  0  0  0  0  0  0  0  0  0  0  0
   -0.3071   -2.9486   -0.3329 H   0  0  0  0  0  0  0  0  0  0  0  0
  1  2  1  0
  1  4  1  0
  1  5  1  0
  1  6  1  0
  2  3  1  0
  2  7  1  0
  3  8  1  0
  9 10  2  3
  9 11  1  0
  9 12  1  0
 10 13  1  0
 10 14  1  0
M  RAD  1   2   2
M  END
>  <reaction>  (14) 
rxn_1587

>  <mol_properties>  (14) 
{"1": {"label": "*1", "atom_type": "Cs"}, "2": {"label": "*0", "atom_type": "S2s"}, "8": {"label": "*4", "atom_type": "Cd"}, "9": {"label": "*3", "atom_type": "Cd"}, "12": {"label": "*2", "atom_type": "H0"}}

>  <type>  (14) 
unop_10

>  <geom_source>  (14) 
Heuristics

$$$$

     RDKit          3D

 14 12  0  0  0  0  0  0  0  0999 V2000
    1.2483    0.6347    1.7032 C   0  0  0  0  0  0  0  0  0  0  0  0
    0.5406    0.8089    0.3709 C   0  0  0  0  0  3  0  0  0  0  0  0
   -1.2624    0.5983    0.4518 S   0  0  0  0  0  0  0  0  0  0  0  0
    2.3199    0.8160    1.5912 H   0  0  0  0  0  0  0  0  0  0  0  0
    1.1175   -0.3792    2.0855 H   0  0  0  0  0  0  0  0  0  0  0  0
    0.8553    1.3280    2.4473 H   0  0  0  0  0  0  0  0  0  0  0  0
    0.6753    1.8234   -0.0071 H   0  0  0  0  0  0  0  0  0  0  0  0
   -1.2563   -0.6792    0.8555 H   0  0  0  0  0  0  0  0  0  0  0  0
    0.5406   -1.4116   -2.3189 C   0  0  0  0  0  0  0  0  0  0  0  0
    0.5406   -1.4116   -0.9972 C   0  0  0  0  0  0  0  0  0  0  0  0
    0.5406   -0.4891   -2.8873 H   0  0  0  0  0  0  0  0  0  0  0  0
    0.5406   -2.3342   -2.8873 H   0  0  0  0  0  0  0  0  0  0  0  0
    0.5406   -0.3045   -0.3151 H   0  0  0  0  0  0  0  0  0  0  0  0
    0.5406   -2.3342   -0.4288 H   0  0  0  0  0  0  0  0  0  0  0  0
  1  2  1  0
  1  4  1  0
  1  5  1  0
  1  6  1  0
  2  3  1  0
  2  7  1  0
  3  8  1  0
  9 10  2  3
  9 11  1  0
  9 12  1  0
 10 13  1  0
 10 14  1  0
M  RAD  1   2   2
M  END
>  <reaction>  (15) 
rxn_1587

>  <mol_properties>  (15) 
{"1": {"label": "*1", "atom_type": "Cs"}, "2": {"label": "*0", "atom_type": "S2s"}, "8": {"label": "*4", "atom_type": "Cd"}, "9": {"label": "*3", "atom_type": "Cd"}, "12": {"label": "*2", "atom_type": "H0"}}

>  <type>  (15) 
unop_11

>  <geom_source>  (15) 
Heuristics

$$$$

     RDKit          3D

 14 12  0  0  0  0  0  0  0  0999 V2000
   -0.5107    1.7077   -0.5524 C   0  0  0  0  0  0  0  0  0  0  0  0
   -0.5107    0.4965    0.3638 C   0  0  0  0  0  3  0  0  0  0  0  0
    0.8653    0.4597    1.5500 S   0  0  0  0  0  0  0  0  0  0  0  0
   -1.3844    1.6884   -1.2082 H   0  0  0  0  0  0  0  0  0  0  0  0
    0.3811    1.7217   -1.1816 H   0  0  0  0  0  0  0  0  0  0  0  0
   -0.5302    2.6329    0.0241 H   0  0  0  0  0  0  0  0  0  0  0  0
   -1.4044    0.4869    0.9895 H   0  0  0  0  0  0  0  0  0  0  0  0
    1.8536    0.4079    0.6469 H   0  0  0  0  0  0  0  0  0  0  0  0
   -0.5107   -1.7240   -2.3259 C   0  0  0  0  0  0  0  0  0  0  0  0
   -0.5107   -1.7240   -1.0042 C   0  0  0  0  0  0  0  0  0  0  0  0
   -0.5107   -0.8014   -2.8943 H   0  0  0  0  0  0  0  0  0  0  0  0
   -0.5107   -2.6466   -2.8943 H   0  0  0  0  0  0  0  0  0  0  0  0
   -0.5107   -0.6169   -0.3221 H   0  0  0  0  0  0  0  0  0  0  0  0
   -0.5107   -2.6466   -0.4358 H   0  0  0  0  0  0  0  0  0  0  0  0
  1  2  1  0
  1  4  1  0
  1  5  1  0
  1  6  1  0
  2  3  1  0
  2  7  1  0
  3  8  1  0
  9 10  2  3
  9 11  1  0
  9 12  1  0
 10 13  1  0
 10 14  1  0
M  RAD  1   2   2
M  END
>  <reaction>  (16) 
rxn_1587

>  <mol_properties>  (16) 
{"1": {"label": "*1", "atom_type": "Cs"}, "2": {"label": "*0", "atom_type": "S2s"}, "8": {"label": "*4", "atom_type": "Cd"}, "9": {"label": "*3", "atom_type": "Cd"}, "12": {"label": "*2", "atom_type": "H0"}}

>  <type>  (16) 
unop_12

>  <geom_source>  (16) 
Heuristics

$$$$

     RDKit          3D

 14 12  0  0  0  0  0  0  0  0999 V2000
   -1.4393    1.9674    0.2954 S   0  0  0  0  0  0  0  0  0  0  0  0
   -0.6298    0.4689   -0.3436 C   0  0  0  0  0  3  0  0  0  0  0  0
   -1.6300   -0.6712   -0.4570 C   0  0  0  0  0  0  0  0  0  0  0  0
    2.4418   -0.3187   -0.0998 C   0  0  0  0  0  0  0  0  0  0  0  0
    1.4819   -0.5510    0.7908 C   0  0  0  0  0  0  0  0  0  0  0  0
   -0.2020    0.6886   -1.3444 H   0  0  0  0  0  0  0  0  0  0  0  0
    0.4629    0.0762    0.5695 H   0  0  0  0  0  0  0  0  0  0  0  0
   -2.0455   -0.9146    0.5433 H   0  0  0  0  0  0  0  0  0  0  0  0
   -1.1195   -1.5710   -0.8591 H   0  0  0  0  0  0  0  0  0  0  0  0
   -2.4571   -0.3895   -1.1426 H   0  0  0  0  0  0  0  0  0  0  0  0
    2.8444    0.6814   -0.2241 H   0  0  0  0  0  0  0  0  0  0  0  0
    2.8249   -1.1324   -0.7056 H   0  0  0  0  0  0  0  0  0  0  0  0
   -1.6241    1.4099    1.5749 H   0  0  0  0  0  0  0  0  0  0  0  0
    1.0913    0.2559    1.4022 H   0  0  0  0  0  0  0  0  0  0  0  0
  1  2  1  0
  1 13  1  0
  2  3  1  0
  2  6  1  0
  3  8  1  0
  3  9  1  0
  3 10  1  0
  4  5  2  3
  4 11  1  0
  4 12  1  0
  5  7  1  0
  5 14  1  0
M  RAD  1   2   2
M  END
>  <reaction>  (17) 
rxn_1587

>  <mol_properties>  (17) 
{"1": {"label": "*1", "atom_type": "Cs"}, "2": {"label": "*0", "atom_type": "S2s"}, "8": {"label": "*4", "atom_type": "Cd"}, "9": {"label": "*3", "atom_type": "Cd"}, "12": {"label": "*2", "atom_type": "H0"}}

>  <type>  (17) 
unop_13

>  <geom_source>  (17) 
AutoTST

$$$$
