
     RDKit          3D

  8  7  0  0  0  0  0  0  0  0999 V2000
    1.9029    0.9046   -0.2050 C   0  0  0  0  0  0  0  0  0  0  0  0
    0.8517    0.4283    0.1217 C   0  0  0  0  0  0  0  0  0  0  0  0
   -0.3908   -0.1311    0.5404 C   0  0  0  0  0  0  0  0  0  0  0  0
   -1.2847   -0.6576   -0.2899 C   0  0  0  0  0  0  0  0  0  0  0  0
    2.8335    1.3255   -0.5014 H   0  0  0  0  0  0  0  0  0  0  0  0
   -0.5867   -0.1096    1.6074 H   0  0  0  0  0  0  0  0  0  0  0  0
   -2.2126   -1.0686    0.0850 H   0  0  0  0  0  0  0  0  0  0  0  0
   -1.1134   -0.6914   -1.3582 H   0  0  0  0  0  0  0  0  0  0  0  0
  1  2  3  0
  1  5  1  0
  2  3  1  0
  3  4  2  3
  3  6  1  0
  4  7  1  0
  4  8  1  0
M  END
>  <reaction>  (1) 
rxn_1842

>  <mol_properties>  (1) 
{"2": {"label": "donator", "atom_type": "Cd"}, "5": {"label": "d_hydrogen", "atom_type": "H0"}}

>  <type>  (1) 
r1h

$$$$

     RDKit          3D

  1  0  0  0  0  0  0  0  0  0999 V2000
    0.0000    0.0000    0.0000 H   0  0  0  0  0 15  0  0  0  0  0  0
M  END
>  <reaction>  (2) 
rxn_1842

>  <mol_properties>  (2) 
{"0": {"label": "acceptor", "atom_type": "H0"}}

>  <type>  (2) 
r2

$$$$

     RDKit          3D

  2  1  0  0  0  0  0  0  0  0999 V2000
    0.0000    0.0000    0.3721 H   0  0  0  0  0  0  0  0  0  0  0  0
    0.0000    0.0000   -0.3721 H   0  0  0  0  0  0  0  0  0  0  0  0
  1  2  1  0
M  END
>  <reaction>  (3) 
rxn_1842

>  <mol_properties>  (3) 
{"0": {"label": "acceptor", "atom_type": "H0"}, "1": {"label": "a_hydrogen", "atom_type": "H0"}}

>  <type>  (3) 
r2h

$$$$

     RDKit          3D

  9  7  0  0  0  0  0  0  0  0999 V2000
   -0.0000    2.1738    1.6961 H   0  0  0  0  0 15  0  0  0  0  0  0
   -0.0000    0.2860   -1.9228 C   0  0  0  0  0  0  0  0  0  0  0  0
   -0.0000    0.1798   -0.7244 C   0  0  0  0  0  0  0  0  0  0  0  0
   -0.0000    0.1650    0.6727 C   0  0  0  0  0  0  0  0  0  0  0  0
    0.0000   -0.8157    1.5549 C   0  0  0  0  0  0  0  0  0  0  0  0
   -0.0000    0.3588   -2.9839 H   0  0  0  0  0  0  0  0  0  0  0  0
   -0.0000    1.3556    1.2114 H   0  0  0  0  0  0  0  0  0  0  0  0
    0.0000   -0.6041    2.6173 H   0  0  0  0  0  0  0  0  0  0  0  0
    0.0000   -1.8556    1.2464 H   0  0  0  0  0  0  0  0  0  0  0  0
  2  3  3  0
  2  6  1  0
  3  4  1  0
  4  5  2  3
  4  7  1  0
  5  8  1  0
  5  9  1  0
M  END
>  <reaction>  (4) 
rxn_1842

>  <mol_properties>  (4) 
{"0": {"label": "*1", "atom_type": "H0"}, "2": {"label": "*4", "atom_type": "Ct"}, "3": {"label": "*3", "atom_type": "Cd"}, "6": {"label": "*2", "atom_type": "H0"}}

>  <type>  (4) 
ts

$$$$

     RDKit          3D

  9  7  0  0  0  0  0  0  0  0999 V2000
   -0.0000    2.2526    1.6618 H   0  0  0  0  0 15  0  0  0  0  0  0
   -0.0000    0.2270   -1.8809 C   0  0  0  0  0  0  0  0  0  0  0  0
   -0.0000    0.2270   -0.6815 C   0  0  0  0  0  0  0  0  0  0  0  0
   -0.0000    0.2588    0.7437 C   0  0  0  0  0  0  0  0  0  0  0  0
    0.0000   -0.8268    1.5100 C   0  0  0  0  0  0  0  0  0  0  0  0
   -0.0000    0.2270   -2.9444 H   0  0  0  0  0  0  0  0  0  0  0  0
   -0.0000    1.4415    1.2883 H   0  0  0  0  0  0  0  0  0  0  0  0
    0.0000   -0.7421    2.5886 H   0  0  0  0  0  0  0  0  0  0  0  0
    0.0000   -1.8212    1.0822 H   0  0  0  0  0  0  0  0  0  0  0  0
  2  3  3  0
  2  6  1  0
  3  4  1  0
  4  5  2  3
  4  7  1  0
  5  8  1  0
  5  9  1  0
M  END
>  <reaction>  (5) 
rxn_1842

>  <mol_properties>  (5) 
{"0": {"label": "*1", "atom_type": "H0"}, "2": {"label": "*4", "atom_type": "Ct"}, "3": {"label": "*3", "atom_type": "Cd"}, "6": {"label": "*2", "atom_type": "H0"}}

>  <type>  (5) 
unop_1

>  <geom_source>  (5) 
Heuristics

$$$$

     RDKit          3D

  9  7  0  0  0  0  0  0  0  0999 V2000
   -1.3713   -0.2910    0.5415 C   0  0  0  0  0  0  0  0  0  0  0  0
   -0.5045   -0.1874   -0.4581 C   0  0  0  0  0  0  0  0  0  0  0  0
    0.9068   -0.3541   -0.2384 C   0  0  0  0  0  0  0  0  0  0  0  0
    2.0902   -0.4937   -0.0552 C   0  0  0  0  0  0  0  0  0  0  0  0
   -2.4272   -0.1610    0.3480 H   0  0  0  0  0  0  0  0  0  0  0  0
   -1.0412   -0.5040    1.5513 H   0  0  0  0  0  0  0  0  0  0  0  0
    3.1290   -0.6162    0.1057 H   0  0  0  0  0  0  0  0  0  0  0  0
   -0.2003    1.9412   -0.9812 H   0  0  0  0  0 15  0  0  0  0  0  0
   -0.5814    0.6663   -0.8135 H   0  0  0  0  0  0  0  0  0  0  0  0
  1  2  2  3
  1  5  1  0
  1  6  1  0
  2  3  1  0
  2  9  1  0
  3  4  3  0
  4  7  1  0
M  END
>  <reaction>  (6) 
rxn_1842

>  <mol_properties>  (6) 
{"0": {"label": "*1", "atom_type": "H0"}, "2": {"label": "*4", "atom_type": "Ct"}, "3": {"label": "*3", "atom_type": "Cd"}, "6": {"label": "*2", "atom_type": "H0"}}

>  <type>  (6) 
unop_2

>  <geom_source>  (6) 
AutoTST

$$$$
