
     RDKit          3D

 12 11  0  0  0  0  0  0  0  0999 V2000
    1.2394   -0.3763   -0.3020 C   0  0  0  0  0  0  0  0  0  0  0  0
    0.1007    0.3023    0.4464 C   0  0  0  0  0  0  0  0  0  0  0  0
   -0.1187    2.0399   -0.0725 S   0  0  0  0  0  0  0  0  0  0  0  0
   -1.1974   -0.4877    0.3552 C   0  0  0  0  0  0  0  0  0  0  0  0
    2.1681    0.1849   -0.2048 H   0  0  0  0  0  0  0  0  0  0  0  0
    1.0031   -0.4606   -1.3656 H   0  0  0  0  0  0  0  0  0  0  0  0
    1.3994   -1.3856    0.0860 H   0  0  0  0  0  0  0  0  0  0  0  0
    0.3796    0.4050    1.4981 H   0  0  0  0  0  0  0  0  0  0  0  0
   -0.4500    1.7779   -1.3452 H   0  0  0  0  0  0  0  0  0  0  0  0
   -1.0545   -1.4978    0.7479 H   0  0  0  0  0  0  0  0  0  0  0  0
   -1.5206   -0.5759   -0.6849 H   0  0  0  0  0  0  0  0  0  0  0  0
   -1.9957   -0.0054    0.9183 H   0  0  0  0  0  0  0  0  0  0  0  0
  1  2  1  0
  1  5  1  0
  1  6  1  0
  1  7  1  0
  2  4  1  0
  2  3  1  0
  2  8  1  0
  3  9  1  0
  4 10  1  0
  4 11  1  0
  4 12  1  0
M  END
>  <reaction>  (1) 
rxn_1926

>  <mol_properties>  (1) 
{"1": {"label": "donator", "atom_type": "Cs"}, "7": {"label": "d_hydrogen", "atom_type": "H0"}}

>  <type>  (1) 
r1h

$$$$

     RDKit          3D

  8  7  0  0  0  0  0  0  0  0999 V2000
    1.4098   -0.3617   -0.1137 C   0  0  0  0  0  0  0  0  0  0  0  0
    0.1829   -0.1715   -0.5109 C   0  0  0  0  0  3  0  0  0  0  0  0
   -1.1129    0.2669    0.0153 C   0  0  0  0  0  0  0  0  0  0  0  0
    2.1881   -0.7137   -0.7829 H   0  0  0  0  0  0  0  0  0  0  0  0
    1.7065   -0.1722    0.9205 H   0  0  0  0  0  0  0  0  0  0  0  0
   -1.8665   -0.5154   -0.0958 H   0  0  0  0  0  0  0  0  0  0  0  0
   -1.0351    0.5163    1.0818 H   0  0  0  0  0  0  0  0  0  0  0  0
   -1.4726    1.1513   -0.5143 H   0  0  0  0  0  0  0  0  0  0  0  0
  1  2  2  3
  1  4  1  0
  1  5  1  0
  2  3  1  0
  3  6  1  0
  3  7  1  0
  3  8  1  0
M  RAD  1   2   2
M  END
>  <reaction>  (2) 
rxn_1926

>  <mol_properties>  (2) 
{"1": {"label": "acceptor", "atom_type": "Cd"}}

>  <type>  (2) 
r2

$$$$

     RDKit          3D

  9  8  0  0  0  0  0  0  0  0999 V2000
    1.1303   -0.2933   -0.7510 C   0  0  0  0  0  0  0  0  0  0  0  0
    0.2866    0.4560   -0.0588 C   0  0  0  0  0  0  0  0  0  0  0  0
   -0.9719   -0.0331    0.5823 C   0  0  0  0  0  0  0  0  0  0  0  0
    2.0274    0.1230   -1.1916 H   0  0  0  0  0  0  0  0  0  0  0  0
    0.9532   -1.3530   -0.9023 H   0  0  0  0  0  0  0  0  0  0  0  0
    0.5065    1.5132    0.0659 H   0  0  0  0  0  0  0  0  0  0  0  0
   -0.9526    0.1426    1.6610 H   0  0  0  0  0  0  0  0  0  0  0  0
   -1.1182   -1.1002    0.4106 H   0  0  0  0  0  0  0  0  0  0  0  0
   -1.8412    0.5010    0.1901 H   0  0  0  0  0  0  0  0  0  0  0  0
  1  2  2  3
  1  4  1  0
  1  5  1  0
  2  3  1  0
  2  6  1  0
  3  7  1  0
  3  8  1  0
  3  9  1  0
M  END
>  <reaction>  (3) 
rxn_1926

>  <mol_properties>  (3) 
{"0": {"label": "a_hydrogen", "atom_type": "H0"}, "2": {"label": "acceptor", "atom_type": "Cd"}}

>  <type>  (3) 
r2h

$$$$

     RDKit          3D

 20 18  0  0  0  0  0  0  0  0999 V2000
    0.1715    0.8502   -2.0143 C   0  0  0  0  0  0  0  0  0  0  0  0
    0.5370    0.5420   -0.5813 C   0  0  0  0  0  0  0  0  0  0  0  0
    1.7856   -0.7463   -0.3887 S   0  0  0  0  0  0  0  0  0  0  0  0
    0.7698    1.7582    0.2829 C   0  0  0  0  0  0  0  0  0  0  0  0
   -0.0678   -0.0592   -2.5653 H   0  0  0  0  0  0  0  0  0  0  0  0
    1.0010    1.3459   -2.5295 H   0  0  0  0  0  0  0  0  0  0  0  0
   -0.6923    1.5196   -2.0490 H   0  0  0  0  0  0  0  0  0  0  0  0
   -0.4922   -0.0299   -0.0792 H   0  0  0  0  0  0  0  0  0  0  0  0
    2.8651    0.0276   -0.5881 H   0  0  0  0  0  0  0  0  0  0  0  0
   -0.0948    2.4251    0.2368 H   0  0  0  0  0  0  0  0  0  0  0  0
    1.6434    2.3216   -0.0627 H   0  0  0  0  0  0  0  0  0  0  0  0
    0.9401    1.4787    1.3227 H   0  0  0  0  0  0  0  0  0  0  0  0
   -2.6688   -0.7128   -0.3371 C   0  0  0  0  0  0  0  0  0  0  0  0
   -1.6536   -0.5870    0.4866 C   0  0  0  0  0  3  0  0  0  0  0  0
   -1.4839   -0.9282    1.9165 C   0  0  0  0  0  0  0  0  0  0  0  0
   -2.6044   -0.4047   -1.3749 H   0  0  0  0  0  0  0  0  0  0  0  0
   -3.6176   -1.1365   -0.0101 H   0  0  0  0  0  0  0  0  0  0  0  0
   -1.2672   -0.0338    2.5052 H   0  0  0  0  0  0  0  0  0  0  0  0
   -2.3866   -1.3968    2.3210 H   0  0  0  0  0  0  0  0  0  0  0  0
   -0.6449   -1.6141    2.0528 H   0  0  0  0  0  0  0  0  0  0  0  0
  1  2  1  0
  1  5  1  0
  1  6  1  0
  1  7  1  0
  2  4  1  0
  2  3  1  0
  2  8  1  0
  3  9  1  0
  4 10  1  0
  4 11  1  0
  4 12  1  0
 13 14  2  3
 13 16  1  0
 13 17  1  0
 14 15  1  0
 15 18  1  0
 15 19  1  0
 15 20  1  0
M  RAD  1  14   2
M  END
>  <reaction>  (4) 
rxn_1926

>  <mol_properties>  (4) 
{"1": {"label": "*1", "atom_type": "Cs"}, "2": {"label": "*0", "atom_type": "S2s"}, "7": {"label": "*2", "atom_type": "H0"}, "12": {"label": "*4", "atom_type": "Cd"}, "13": {"label": "*3", "atom_type": "Cd"}}

>  <type>  (4) 
ts

$$$$

     RDKit          3D

 20 18  0  0  0  0  0  0  0  0999 V2000
    0.4791    0.5256   -2.0132 C   0  0  0  0  0  0  0  0  0  0  0  0
    0.4791    0.5256   -0.4908 C   0  0  0  0  0  3  0  0  0  0  0  0
    1.8341   -0.4908    0.1928 S   0  0  0  0  0  0  0  0  0  0  0  0
    0.4791    1.9356    0.0832 C   0  0  0  0  0  0  0  0  0  0  0  0
    0.4505   -0.4886   -2.4098 H   0  0  0  0  0  0  0  0  0  0  0  0
    1.3775    1.0153   -2.3968 H   0  0  0  0  0  0  0  0  0  0  0  0
   -0.3879    1.0730   -2.3920 H   0  0  0  0  0  0  0  0  0  0  0  0
   -0.5888   -0.1063   -0.0659 H   0  0  0  0  0  0  0  0  0  0  0  0
    2.8404    0.2447   -0.3019 H   0  0  0  0  0  0  0  0  0  0  0  0
   -0.3879    2.4928   -0.2810 H   0  0  0  0  0  0  0  0  0  0  0  0
    1.3775    2.4755   -0.2257 H   0  0  0  0  0  0  0  0  0  0  0  0
    0.4505    1.9205    1.1722 H   0  0  0  0  0  0  0  0  0  0  0  0
   -1.4965   -1.8108    1.1121 C   0  0  0  0  0  0  0  0  0  0  0  0
   -1.6508   -0.7347    0.3568 C   0  0  0  0  0  0  0  0  0  0  0  0
   -2.6379    0.3591    0.6087 C   0  0  0  0  0  0  0  0  0  0  0  0
   -0.7610   -2.5689    0.8745 H   0  0  0  0  0  0  0  0  0  0  0  0
   -2.1022   -1.9723    1.9977 H   0  0  0  0  0  0  0  0  0  0  0  0
   -3.3215    0.4685   -0.2372 H   0  0  0  0  0  0  0  0  0  0  0  0
   -3.2285    0.1646    1.5048 H   0  0  0  0  0  0  0  0  0  0  0  0
   -2.1310    1.3196    0.7322 H   0  0  0  0  0  0  0  0  0  0  0  0
  1  2  1  0
  1  5  1  0
  1  6  1  0
  1  7  1  0
  2  4  1  0
  2  3  1  0
  3  9  1  0
  4 10  1  0
  4 11  1  0
  4 12  1  0
  8 14  1  0
 13 14  2  3
 13 16  1  0
 13 17  1  0
 14 15  1  0
 15 18  1  0
 15 19  1  0
 15 20  1  0
M  RAD  1   2   2
M  END
>  <reaction>  (5) 
rxn_1926

>  <mol_properties>  (5) 
{"1": {"label": "*1", "atom_type": "Cs"}, "2": {"label": "*0", "atom_type": "S2s"}, "7": {"label": "*2", "atom_type": "H0"}, "12": {"label": "*4", "atom_type": "Cd"}, "13": {"label": "*3", "atom_type": "Cd"}}

>  <type>  (5) 
unop_1

>  <geom_source>  (5) 
Heuristics

$$$$

     RDKit          3D

 20 18  0  0  0  0  0  0  0  0999 V2000
    0.4690    0.6311   -1.9847 C   0  0  0  0  0  0  0  0  0  0  0  0
    0.4690    0.6311   -0.4624 C   0  0  0  0  0  3  0  0  0  0  0  0
    1.8240   -0.3853    0.2213 S   0  0  0  0  0  0  0  0  0  0  0  0
    0.4690    2.0411    0.1117 C   0  0  0  0  0  0  0  0  0  0  0  0
    0.4404   -0.3831   -2.3814 H   0  0  0  0  0  0  0  0  0  0  0  0
    1.3674    1.1208   -2.3683 H   0  0  0  0  0  0  0  0  0  0  0  0
   -0.3980    1.1785   -2.3635 H   0  0  0  0  0  0  0  0  0  0  0  0
   -0.5989   -0.0008   -0.0374 H   0  0  0  0  0  0  0  0  0  0  0  0
    2.8303    0.3502   -0.2734 H   0  0  0  0  0  0  0  0  0  0  0  0
   -0.3980    2.5983   -0.2525 H   0  0  0  0  0  0  0  0  0  0  0  0
    1.3674    2.5810   -0.1972 H   0  0  0  0  0  0  0  0  0  0  0  0
    0.4404    2.0260    1.2006 H   0  0  0  0  0  0  0  0  0  0  0  0
   -2.1648   -1.6013   -0.3586 C   0  0  0  0  0  0  0  0  0  0  0  0
   -1.6610   -0.6292    0.3853 C   0  0  0  0  0  0  0  0  0  0  0  0
   -1.9547   -0.4145    1.8350 C   0  0  0  0  0  0  0  0  0  0  0  0
   -1.9113   -1.7023   -1.4064 H   0  0  0  0  0  0  0  0  0  0  0  0
   -2.8508   -2.3330    0.0550 H   0  0  0  0  0  0  0  0  0  0  0  0
   -2.3936    0.5727    2.0009 H   0  0  0  0  0  0  0  0  0  0  0  0
   -2.6462   -1.1665    2.2173 H   0  0  0  0  0  0  0  0  0  0  0  0
   -1.0376   -0.4570    2.4281 H   0  0  0  0  0  0  0  0  0  0  0  0
  1  2  1  0
  1  5  1  0
  1  6  1  0
  1  7  1  0
  2  4  1  0
  2  3  1  0
  3  9  1  0
  4 10  1  0
  4 11  1  0
  4 12  1  0
  8 14  1  0
 13 14  2  3
 13 16  1  0
 13 17  1  0
 14 15  1  0
 15 18  1  0
 15 19  1  0
 15 20  1  0
M  RAD  1   2   2
M  END
>  <reaction>  (6) 
rxn_1926

>  <mol_properties>  (6) 
{"1": {"label": "*1", "atom_type": "Cs"}, "2": {"label": "*0", "atom_type": "S2s"}, "7": {"label": "*2", "atom_type": "H0"}, "12": {"label": "*4", "atom_type": "Cd"}, "13": {"label": "*3", "atom_type": "Cd"}}

>  <type>  (6) 
unop_2

>  <geom_source>  (6) 
Heuristics

$$$$

     RDKit          3D

 20 18  0  0  0  0  0  0  0  0999 V2000
    0.5208    0.5229   -1.9578 C   0  0  0  0  0  0  0  0  0  0  0  0
    0.5208    0.5229   -0.4355 C   0  0  0  0  0  3  0  0  0  0  0  0
    1.8759   -0.4935    0.2481 S   0  0  0  0  0  0  0  0  0  0  0  0
    0.5208    1.9329    0.1385 C   0  0  0  0  0  0  0  0  0  0  0  0
    0.4923   -0.4913   -2.3545 H   0  0  0  0  0  0  0  0  0  0  0  0
    1.4193    1.0126   -2.3414 H   0  0  0  0  0  0  0  0  0  0  0  0
   -0.3461    1.0703   -2.3366 H   0  0  0  0  0  0  0  0  0  0  0  0
   -0.5470   -0.1090   -0.0105 H   0  0  0  0  0  0  0  0  0  0  0  0
    2.8821    0.2420   -0.2465 H   0  0  0  0  0  0  0  0  0  0  0  0
   -0.3461    2.4901   -0.2256 H   0  0  0  0  0  0  0  0  0  0  0  0
    1.4193    2.4728   -0.1704 H   0  0  0  0  0  0  0  0  0  0  0  0
    0.4923    1.9178    1.2275 H   0  0  0  0  0  0  0  0  0  0  0  0
   -1.5526   -1.3780    1.5692 C   0  0  0  0  0  0  0  0  0  0  0  0
   -1.6091   -0.7374    0.4121 C   0  0  0  0  0  0  0  0  0  0  0  0
   -2.8136   -0.0328   -0.1235 C   0  0  0  0  0  0  0  0  0  0  0  0
   -0.6468   -1.8696    1.9009 H   0  0  0  0  0  0  0  0  0  0  0  0
   -2.4129   -1.4336    2.2279 H   0  0  0  0  0  0  0  0  0  0  0  0
   -3.1139   -0.4533   -1.0867 H   0  0  0  0  0  0  0  0  0  0  0  0
   -3.6579   -0.1088    0.5628 H   0  0  0  0  0  0  0  0  0  0  0  0
   -2.6016    1.0261   -0.2926 H   0  0  0  0  0  0  0  0  0  0  0  0
  1  2  1  0
  1  5  1  0
  1  6  1  0
  1  7  1  0
  2  4  1  0
  2  3  1  0
  3  9  1  0
  4 10  1  0
  4 11  1  0
  4 12  1  0
  8 14  1  0
 13 14  2  3
 13 16  1  0
 13 17  1  0
 14 15  1  0
 15 18  1  0
 15 19  1  0
 15 20  1  0
M  RAD  1   2   2
M  END
>  <reaction>  (7) 
rxn_1926

>  <mol_properties>  (7) 
{"1": {"label": "*1", "atom_type": "Cs"}, "2": {"label": "*0", "atom_type": "S2s"}, "7": {"label": "*2", "atom_type": "H0"}, "12": {"label": "*4", "atom_type": "Cd"}, "13": {"label": "*3", "atom_type": "Cd"}}

>  <type>  (7) 
unop_3

>  <geom_source>  (7) 
Heuristics

$$$$

     RDKit          3D

 20 18  0  0  0  0  0  0  0  0999 V2000
    0.4739    0.5723   -2.0133 C   0  0  0  0  0  0  0  0  0  0  0  0
    0.4739    0.5723   -0.4909 C   0  0  0  0  0  3  0  0  0  0  0  0
    1.8289   -0.4442    0.1927 S   0  0  0  0  0  0  0  0  0  0  0  0
    0.4739    1.9822    0.0831 C   0  0  0  0  0  0  0  0  0  0  0  0
    0.4453   -0.4420   -2.4099 H   0  0  0  0  0  0  0  0  0  0  0  0
    1.3723    1.0620   -2.3969 H   0  0  0  0  0  0  0  0  0  0  0  0
   -0.3931    1.1197   -2.3921 H   0  0  0  0  0  0  0  0  0  0  0  0
   -0.5940   -0.0596   -0.0659 H   0  0  0  0  0  0  0  0  0  0  0  0
    2.8352    0.2913   -0.3020 H   0  0  0  0  0  0  0  0  0  0  0  0
   -0.3931    2.5395   -0.2811 H   0  0  0  0  0  0  0  0  0  0  0  0
    1.3723    2.5222   -0.2258 H   0  0  0  0  0  0  0  0  0  0  0  0
    0.4453    1.9671    1.1721 H   0  0  0  0  0  0  0  0  0  0  0  0
   -2.8485   -0.2262    0.0145 C   0  0  0  0  0  0  0  0  0  0  0  0
   -1.6561   -0.6880    0.3567 C   0  0  0  0  0  0  0  0  0  0  0  0
   -1.3390   -1.3848    1.6406 C   0  0  0  0  0  0  0  0  0  0  0  0
   -3.0129    0.2708   -0.9333 H   0  0  0  0  0  0  0  0  0  0  0  0
   -3.7054   -0.3291    0.6721 H   0  0  0  0  0  0  0  0  0  0  0  0
   -0.5665   -0.8458    2.1951 H   0  0  0  0  0  0  0  0  0  0  0  0
   -2.2214   -1.4707    2.2760 H   0  0  0  0  0  0  0  0  0  0  0  0
   -0.9511   -2.3892    1.4524 H   0  0  0  0  0  0  0  0  0  0  0  0
  1  2  1  0
  1  5  1  0
  1  6  1  0
  1  7  1  0
  2  4  1  0
  2  3  1  0
  3  9  1  0
  4 10  1  0
  4 11  1  0
  4 12  1  0
  8 14  1  0
 13 14  2  3
 13 16  1  0
 13 17  1  0
 14 15  1  0
 15 18  1  0
 15 19  1  0
 15 20  1  0
M  RAD  1   2   2
M  END
>  <reaction>  (8) 
rxn_1926

>  <mol_properties>  (8) 
{"1": {"label": "*1", "atom_type": "Cs"}, "2": {"label": "*0", "atom_type": "S2s"}, "7": {"label": "*2", "atom_type": "H0"}, "12": {"label": "*4", "atom_type": "Cd"}, "13": {"label": "*3", "atom_type": "Cd"}}

>  <type>  (8) 
unop_4

>  <geom_source>  (8) 
Heuristics

$$$$

     RDKit          3D

 20 18  0  0  0  0  0  0  0  0999 V2000
    0.5129    0.6241   -1.9060 C   0  0  0  0  0  0  0  0  0  0  0  0
    0.5129    0.6241   -0.3837 C   0  0  0  0  0  3  0  0  0  0  0  0
    1.8680   -0.3924    0.2999 S   0  0  0  0  0  0  0  0  0  0  0  0
    0.5129    2.0340    0.1904 C   0  0  0  0  0  0  0  0  0  0  0  0
    0.4843   -0.3902   -2.3027 H   0  0  0  0  0  0  0  0  0  0  0  0
    1.4113    1.1138   -2.2896 H   0  0  0  0  0  0  0  0  0  0  0  0
   -0.3540    1.1715   -2.2848 H   0  0  0  0  0  0  0  0  0  0  0  0
   -0.5550   -0.0078    0.0413 H   0  0  0  0  0  0  0  0  0  0  0  0
    2.8742    0.3431   -0.1947 H   0  0  0  0  0  0  0  0  0  0  0  0
   -0.3540    2.5913   -0.1738 H   0  0  0  0  0  0  0  0  0  0  0  0
    1.4113    2.5740   -0.1186 H   0  0  0  0  0  0  0  0  0  0  0  0
    0.4843    2.0190    1.2793 H   0  0  0  0  0  0  0  0  0  0  0  0
   -1.8126   -0.7519    1.7681 C   0  0  0  0  0  0  0  0  0  0  0  0
   -1.6170   -0.6362    0.4640 C   0  0  0  0  0  0  0  0  0  0  0  0
   -2.5261   -1.1741   -0.5936 C   0  0  0  0  0  0  0  0  0  0  0  0
   -1.1139   -0.3385    2.4845 H   0  0  0  0  0  0  0  0  0  0  0  0
   -2.6810   -1.2658    2.1668 H   0  0  0  0  0  0  0  0  0  0  0  0
   -1.9974   -1.8812   -1.2381 H   0  0  0  0  0  0  0  0  0  0  0  0
   -3.3867   -1.6834   -0.1582 H   0  0  0  0  0  0  0  0  0  0  0  0
   -2.8914   -0.3704   -1.2381 H   0  0  0  0  0  0  0  0  0  0  0  0
  1  2  1  0
  1  5  1  0
  1  6  1  0
  1  7  1  0
  2  4  1  0
  2  3  1  0
  3  9  1  0
  4 10  1  0
  4 11  1  0
  4 12  1  0
  8 14  1  0
 13 14  2  3
 13 16  1  0
 13 17  1  0
 14 15  1  0
 15 18  1  0
 15 19  1  0
 15 20  1  0
M  RAD  1   2   2
M  END
>  <reaction>  (9) 
rxn_1926

>  <mol_properties>  (9) 
{"1": {"label": "*1", "atom_type": "Cs"}, "2": {"label": "*0", "atom_type": "S2s"}, "7": {"label": "*2", "atom_type": "H0"}, "12": {"label": "*4", "atom_type": "Cd"}, "13": {"label": "*3", "atom_type": "Cd"}}

>  <type>  (9) 
unop_5

>  <geom_source>  (9) 
Heuristics

$$$$

     RDKit          3D

 20 18  0  0  0  0  0  0  0  0999 V2000
    0.4367    0.5957   -2.0295 C   0  0  0  0  0  0  0  0  0  0  0  0
    0.4367    0.5957   -0.5071 C   0  0  0  0  0  3  0  0  0  0  0  0
    1.7917   -0.4207    0.1765 S   0  0  0  0  0  0  0  0  0  0  0  0
    0.4367    2.0057    0.0669 C   0  0  0  0  0  0  0  0  0  0  0  0
    0.4081   -0.4185   -2.4261 H   0  0  0  0  0  0  0  0  0  0  0  0
    1.3351    1.0855   -2.4131 H   0  0  0  0  0  0  0  0  0  0  0  0
   -0.4303    1.1431   -2.4083 H   0  0  0  0  0  0  0  0  0  0  0  0
   -0.6312   -0.0361   -0.0822 H   0  0  0  0  0  0  0  0  0  0  0  0
    2.7979    0.3148   -0.3182 H   0  0  0  0  0  0  0  0  0  0  0  0
   -0.4303    2.5630   -0.2973 H   0  0  0  0  0  0  0  0  0  0  0  0
    1.3351    2.5456   -0.2420 H   0  0  0  0  0  0  0  0  0  0  0  0
    0.4081    1.9906    1.1559 H   0  0  0  0  0  0  0  0  0  0  0  0
   -2.8031    0.0267    0.5471 C   0  0  0  0  0  0  0  0  0  0  0  0
   -1.6933   -0.6646    0.3405 C   0  0  0  0  0  0  0  0  0  0  0  0
   -1.1782   -1.7508    1.2287 C   0  0  0  0  0  0  0  0  0  0  0  0
   -3.1223    0.8034   -0.1365 H   0  0  0  0  0  0  0  0  0  0  0  0
   -3.4340   -0.1601    1.4098 H   0  0  0  0  0  0  0  0  0  0  0  0
   -0.1802   -1.5073    1.6023 H   0  0  0  0  0  0  0  0  0  0  0  0
   -1.8355   -1.9116    2.0841 H   0  0  0  0  0  0  0  0  0  0  0  0
   -1.0899   -2.6923    0.6805 H   0  0  0  0  0  0  0  0  0  0  0  0
  1  2  1  0
  1  5  1  0
  1  6  1  0
  1  7  1  0
  2  4  1  0
  2  3  1  0
  3  9  1  0
  4 10  1  0
  4 11  1  0
  4 12  1  0
  8 14  1  0
 13 14  2  3
 13 16  1  0
 13 17  1  0
 14 15  1  0
 15 18  1  0
 15 19  1  0
 15 20  1  0
M  RAD  1   2   2
M  END
>  <reaction>  (10) 
rxn_1926

>  <mol_properties>  (10) 
{"1": {"label": "*1", "atom_type": "Cs"}, "2": {"label": "*0", "atom_type": "S2s"}, "7": {"label": "*2", "atom_type": "H0"}, "12": {"label": "*4", "atom_type": "Cd"}, "13": {"label": "*3", "atom_type": "Cd"}}

>  <type>  (10) 
unop_6

>  <geom_source>  (10) 
Heuristics

$$$$

     RDKit          3D

 20 18  0  0  0  0  0  0  0  0999 V2000
    0.4103    0.6418   -2.0132 C   0  0  0  0  0  0  0  0  0  0  0  0
    0.4103    0.6418   -0.4908 C   0  0  0  0  0  3  0  0  0  0  0  0
    1.7654   -0.3746    0.1928 S   0  0  0  0  0  0  0  0  0  0  0  0
    0.4103    2.0518    0.0832 C   0  0  0  0  0  0  0  0  0  0  0  0
    0.3817   -0.3725   -2.4098 H   0  0  0  0  0  0  0  0  0  0  0  0
    1.3088    1.1315   -2.3968 H   0  0  0  0  0  0  0  0  0  0  0  0
   -0.4566    1.1892   -2.3920 H   0  0  0  0  0  0  0  0  0  0  0  0
   -0.6576    0.0099   -0.0659 H   0  0  0  0  0  0  0  0  0  0  0  0
    2.7716    0.3609   -0.3019 H   0  0  0  0  0  0  0  0  0  0  0  0
   -0.4566    2.6090   -0.2810 H   0  0  0  0  0  0  0  0  0  0  0  0
    1.3088    2.5917   -0.2257 H   0  0  0  0  0  0  0  0  0  0  0  0
    0.3817    2.0367    1.1722 H   0  0  0  0  0  0  0  0  0  0  0  0
   -2.5885    0.0347    1.1121 C   0  0  0  0  0  0  0  0  0  0  0  0
   -1.7196   -0.6185    0.3568 C   0  0  0  0  0  0  0  0  0  0  0  0
   -1.2360   -2.0102    0.6087 C   0  0  0  0  0  0  0  0  0  0  0  0
   -2.8991    1.0444    0.8745 H   0  0  0  0  0  0  0  0  0  0  0  0
   -3.0216   -0.4184    1.9977 H   0  0  0  0  0  0  0  0  0  0  0  0
   -0.1501   -2.0282    0.7322 H   0  0  0  0  0  0  0  0  0  0  0  0
   -1.6907   -2.4343    1.5048 H   0  0  0  0  0  0  0  0  0  0  0  0
   -1.4692   -2.6620   -0.2372 H   0  0  0  0  0  0  0  0  0  0  0  0
  1  2  1  0
  1  5  1  0
  1  6  1  0
  1  7  1  0
  2  4  1  0
  2  3  1  0
  3  9  1  0
  4 10  1  0
  4 11  1  0
  4 12  1  0
  8 14  1  0
 13 14  2  3
 13 16  1  0
 13 17  1  0
 14 15  1  0
 15 18  1  0
 15 19  1  0
 15 20  1  0
M  RAD  1   2   2
M  END
>  <reaction>  (11) 
rxn_1926

>  <mol_properties>  (11) 
{"1": {"label": "*1", "atom_type": "Cs"}, "2": {"label": "*0", "atom_type": "S2s"}, "7": {"label": "*2", "atom_type": "H0"}, "12": {"label": "*4", "atom_type": "Cd"}, "13": {"label": "*3", "atom_type": "Cd"}}

>  <type>  (11) 
unop_7

>  <geom_source>  (11) 
Heuristics

$$$$

     RDKit          3D

 20 18  0  0  0  0  0  0  0  0999 V2000
    0.4514    0.5709   -2.0295 C   0  0  0  0  0  0  0  0  0  0  0  0
    0.4514    0.5709   -0.5071 C   0  0  0  0  0  3  0  0  0  0  0  0
    1.8064   -0.4456    0.1765 S   0  0  0  0  0  0  0  0  0  0  0  0
    0.4514    1.9808    0.0669 C   0  0  0  0  0  0  0  0  0  0  0  0
    0.4228   -0.4434   -2.4261 H   0  0  0  0  0  0  0  0  0  0  0  0
    1.3498    1.0606   -2.4131 H   0  0  0  0  0  0  0  0  0  0  0  0
   -0.4156    1.1183   -2.4083 H   0  0  0  0  0  0  0  0  0  0  0  0
   -0.6165   -0.0610   -0.0822 H   0  0  0  0  0  0  0  0  0  0  0  0
    2.8127    0.2899   -0.3182 H   0  0  0  0  0  0  0  0  0  0  0  0
   -0.4156    2.5381   -0.2973 H   0  0  0  0  0  0  0  0  0  0  0  0
    1.3498    2.5208   -0.2420 H   0  0  0  0  0  0  0  0  0  0  0  0
    0.4228    1.9657    1.1559 H   0  0  0  0  0  0  0  0  0  0  0  0
   -1.6069   -1.9950    0.5471 C   0  0  0  0  0  0  0  0  0  0  0  0
   -1.6786   -0.6894    0.3405 C   0  0  0  0  0  0  0  0  0  0  0  0
   -2.3828    0.2849    1.2287 C   0  0  0  0  0  0  0  0  0  0  0  0
   -1.0797   -2.6486   -0.1365 H   0  0  0  0  0  0  0  0  0  0  0  0
   -2.0742   -2.4581    1.4098 H   0  0  0  0  0  0  0  0  0  0  0  0
   -3.1655    0.8155    0.6805 H   0  0  0  0  0  0  0  0  0  0  0  0
   -2.8401   -0.2138    2.0841 H   0  0  0  0  0  0  0  0  0  0  0  0
   -1.6889    1.0424    1.6023 H   0  0  0  0  0  0  0  0  0  0  0  0
  1  2  1  0
  1  5  1  0
  1  6  1  0
  1  7  1  0
  2  4  1  0
  2  3  1  0
  3  9  1  0
  4 10  1  0
  4 11  1  0
  4 12  1  0
  8 14  1  0
 13 14  2  3
 13 16  1  0
 13 17  1  0
 14 15  1  0
 15 18  1  0
 15 19  1  0
 15 20  1  0
M  RAD  1   2   2
M  END
>  <reaction>  (12) 
rxn_1926

>  <mol_properties>  (12) 
{"1": {"label": "*1", "atom_type": "Cs"}, "2": {"label": "*0", "atom_type": "S2s"}, "7": {"label": "*2", "atom_type": "H0"}, "12": {"label": "*4", "atom_type": "Cd"}, "13": {"label": "*3", "atom_type": "Cd"}}

>  <type>  (12) 
unop_8

>  <geom_source>  (12) 
Heuristics

$$$$

     RDKit          3D

 20 18  0  0  0  0  0  0  0  0999 V2000
    0.4980    0.5822   -1.9847 C   0  0  0  0  0  0  0  0  0  0  0  0
    0.4980    0.5822   -0.4624 C   0  0  0  0  0  3  0  0  0  0  0  0
    1.8530   -0.4343    0.2213 S   0  0  0  0  0  0  0  0  0  0  0  0
    0.4980    1.9921    0.1117 C   0  0  0  0  0  0  0  0  0  0  0  0
    0.4694   -0.4321   -2.3814 H   0  0  0  0  0  0  0  0  0  0  0  0
    1.3964    1.0719   -2.3683 H   0  0  0  0  0  0  0  0  0  0  0  0
   -0.3690    1.1296   -2.3635 H   0  0  0  0  0  0  0  0  0  0  0  0
   -0.5699   -0.0497   -0.0374 H   0  0  0  0  0  0  0  0  0  0  0  0
    2.8592    0.3012   -0.2734 H   0  0  0  0  0  0  0  0  0  0  0  0
   -0.3690    2.5494   -0.2525 H   0  0  0  0  0  0  0  0  0  0  0  0
    1.3964    2.5321   -0.1972 H   0  0  0  0  0  0  0  0  0  0  0  0
    0.4694    1.9770    1.2006 H   0  0  0  0  0  0  0  0  0  0  0  0
   -2.7266   -0.6519   -0.3586 C   0  0  0  0  0  0  0  0  0  0  0  0
   -1.6320   -0.6781    0.3853 C   0  0  0  0  0  0  0  0  0  0  0  0
   -1.5853   -1.0390    1.8350 C   0  0  0  0  0  0  0  0  0  0  0  0
   -2.6931   -0.3811   -1.4064 H   0  0  0  0  0  0  0  0  0  0  0  0
   -3.6982   -0.9010    0.0550 H   0  0  0  0  0  0  0  0  0  0  0  0
   -1.1810   -0.2146    2.4281 H   0  0  0  0  0  0  0  0  0  0  0  0
   -2.5772   -1.2831    2.2173 H   0  0  0  0  0  0  0  0  0  0  0  0
   -0.9311   -1.8988    2.0009 H   0  0  0  0  0  0  0  0  0  0  0  0
  1  2  1  0
  1  5  1  0
  1  6  1  0
  1  7  1  0
  2  4  1  0
  2  3  1  0
  3  9  1  0
  4 10  1  0
  4 11  1  0
  4 12  1  0
  8 14  1  0
 13 14  2  3
 13 16  1  0
 13 17  1  0
 14 15  1  0
 15 18  1  0
 15 19  1  0
 15 20  1  0
M  RAD  1   2   2
M  END
>  <reaction>  (13) 
rxn_1926

>  <mol_properties>  (13) 
{"1": {"label": "*1", "atom_type": "Cs"}, "2": {"label": "*0", "atom_type": "S2s"}, "7": {"label": "*2", "atom_type": "H0"}, "12": {"label": "*4", "atom_type": "Cd"}, "13": {"label": "*3", "atom_type": "Cd"}}

>  <type>  (13) 
unop_9

>  <geom_source>  (13) 
Heuristics

$$$$

     RDKit          3D

 20 18  0  0  0  0  0  0  0  0999 V2000
    0.4487    0.6148   -2.0133 C   0  0  0  0  0  0  0  0  0  0  0  0
    0.4487    0.6148   -0.4909 C   0  0  0  0  0  3  0  0  0  0  0  0
    1.8037   -0.4017    0.1927 S   0  0  0  0  0  0  0  0  0  0  0  0
    0.4487    2.0247    0.0831 C   0  0  0  0  0  0  0  0  0  0  0  0
    0.4201   -0.3995   -2.4099 H   0  0  0  0  0  0  0  0  0  0  0  0
    1.3471    1.1045   -2.3969 H   0  0  0  0  0  0  0  0  0  0  0  0
   -0.4183    1.1622   -2.3921 H   0  0  0  0  0  0  0  0  0  0  0  0
   -0.6192   -0.0171   -0.0659 H   0  0  0  0  0  0  0  0  0  0  0  0
    2.8100    0.3338   -0.3020 H   0  0  0  0  0  0  0  0  0  0  0  0
   -0.4183    2.5820   -0.2811 H   0  0  0  0  0  0  0  0  0  0  0  0
    1.3471    2.5647   -0.2258 H   0  0  0  0  0  0  0  0  0  0  0  0
    0.4201    2.0097    1.1721 H   0  0  0  0  0  0  0  0  0  0  0  0
   -1.8504   -1.9130    0.0145 C   0  0  0  0  0  0  0  0  0  0  0  0
   -1.6812   -0.6455    0.3567 C   0  0  0  0  0  0  0  0  0  0  0  0
   -2.1393   -0.0323    1.6406 C   0  0  0  0  0  0  0  0  0  0  0  0
   -1.4939   -2.2964   -0.9333 H   0  0  0  0  0  0  0  0  0  0  0  0
   -2.3530   -2.6146    0.6721 H   0  0  0  0  0  0  0  0  0  0  0  0
   -2.8330    0.7912    1.4524 H   0  0  0  0  0  0  0  0  0  0  0  0
   -2.6393   -0.7643    2.2760 H   0  0  0  0  0  0  0  0  0  0  0  0
   -1.2951    0.3854    2.1951 H   0  0  0  0  0  0  0  0  0  0  0  0
  1  2  1  0
  1  5  1  0
  1  6  1  0
  1  7  1  0
  2  4  1  0
  2  3  1  0
  3  9  1  0
  4 10  1  0
  4 11  1  0
  4 12  1  0
  8 14  1  0
 13 14  2  3
 13 16  1  0
 13 17  1  0
 14 15  1  0
 15 18  1  0
 15 19  1  0
 15 20  1  0
M  RAD  1   2   2
M  END
>  <reaction>  (14) 
rxn_1926

>  <mol_properties>  (14) 
{"1": {"label": "*1", "atom_type": "Cs"}, "2": {"label": "*0", "atom_type": "S2s"}, "7": {"label": "*2", "atom_type": "H0"}, "12": {"label": "*4", "atom_type": "Cd"}, "13": {"label": "*3", "atom_type": "Cd"}}

>  <type>  (14) 
unop_10

>  <geom_source>  (14) 
Heuristics

$$$$

     RDKit          3D

 20 18  0  0  0  0  0  0  0  0999 V2000
    0.4281    0.6797   -1.9578 C   0  0  0  0  0  0  0  0  0  0  0  0
    0.4281    0.6797   -0.4355 C   0  0  0  0  0  3  0  0  0  0  0  0
    1.7831   -0.3367    0.2481 S   0  0  0  0  0  0  0  0  0  0  0  0
    0.4281    2.0897    0.1385 C   0  0  0  0  0  0  0  0  0  0  0  0
    0.3995   -0.3346   -2.3545 H   0  0  0  0  0  0  0  0  0  0  0  0
    1.3265    1.1694   -2.3414 H   0  0  0  0  0  0  0  0  0  0  0  0
   -0.4389    1.2271   -2.3366 H   0  0  0  0  0  0  0  0  0  0  0  0
   -0.6398    0.0478   -0.0105 H   0  0  0  0  0  0  0  0  0  0  0  0
    2.7894    0.3988   -0.2465 H   0  0  0  0  0  0  0  0  0  0  0  0
   -0.4389    2.6469   -0.2256 H   0  0  0  0  0  0  0  0  0  0  0  0
    1.3265    2.6296   -0.1704 H   0  0  0  0  0  0  0  0  0  0  0  0
    0.3995    2.0746    1.2275 H   0  0  0  0  0  0  0  0  0  0  0  0
   -2.2362   -0.2228    1.5692 C   0  0  0  0  0  0  0  0  0  0  0  0
   -1.7019   -0.5806    0.4121 C   0  0  0  0  0  0  0  0  0  0  0  0
   -1.6641   -1.9756   -0.1235 C   0  0  0  0  0  0  0  0  0  0  0  0
   -2.2311    0.8079    1.9009 H   0  0  0  0  0  0  0  0  0  0  0  0
   -2.6990   -0.9500    2.2279 H   0  0  0  0  0  0  0  0  0  0  0  0
   -0.6339   -2.2994   -0.2926 H   0  0  0  0  0  0  0  0  0  0  0  0
   -2.1371   -2.6791    0.5628 H   0  0  0  0  0  0  0  0  0  0  0  0
   -2.1772   -2.0363   -1.0867 H   0  0  0  0  0  0  0  0  0  0  0  0
  1  2  1  0
  1  5  1  0
  1  6  1  0
  1  7  1  0
  2  4  1  0
  2  3  1  0
  3  9  1  0
  4 10  1  0
  4 11  1  0
  4 12  1  0
  8 14  1  0
 13 14  2  3
 13 16  1  0
 13 17  1  0
 14 15  1  0
 15 18  1  0
 15 19  1  0
 15 20  1  0
M  RAD  1   2   2
M  END
>  <reaction>  (15) 
rxn_1926

>  <mol_properties>  (15) 
{"1": {"label": "*1", "atom_type": "Cs"}, "2": {"label": "*0", "atom_type": "S2s"}, "7": {"label": "*2", "atom_type": "H0"}, "12": {"label": "*4", "atom_type": "Cd"}, "13": {"label": "*3", "atom_type": "Cd"}}

>  <type>  (15) 
unop_11

>  <geom_source>  (15) 
Heuristics

$$$$

     RDKit          3D

 20 18  0  0  0  0  0  0  0  0999 V2000
    0.4939    0.6128   -1.9706 C   0  0  0  0  0  0  0  0  0  0  0  0
    0.4939    0.6128   -0.4482 C   0  0  0  0  0  3  0  0  0  0  0  0
    1.8489   -0.4036    0.2354 S   0  0  0  0  0  0  0  0  0  0  0  0
    0.4939    2.0228    0.1258 C   0  0  0  0  0  0  0  0  0  0  0  0
    0.4653   -0.4014   -2.3672 H   0  0  0  0  0  0  0  0  0  0  0  0
    1.3923    1.1025   -2.3542 H   0  0  0  0  0  0  0  0  0  0  0  0
   -0.3731    1.1602   -2.3494 H   0  0  0  0  0  0  0  0  0  0  0  0
   -0.5740   -0.0191   -0.0232 H   0  0  0  0  0  0  0  0  0  0  0  0
    2.8552    0.3319   -0.2593 H   0  0  0  0  0  0  0  0  0  0  0  0
   -0.3731    2.5800   -0.2383 H   0  0  0  0  0  0  0  0  0  0  0  0
    1.3923    2.5627   -0.1831 H   0  0  0  0  0  0  0  0  0  0  0  0
    0.4653    2.0077    1.2148 H   0  0  0  0  0  0  0  0  0  0  0  0
   -2.4786   -1.1460   -0.4915 C   0  0  0  0  0  0  0  0  0  0  0  0
   -1.6360   -0.6475    0.3994 C   0  0  0  0  0  0  0  0  0  0  0  0
   -1.7962   -0.7423    1.8825 C   0  0  0  0  0  0  0  0  0  0  0  0
   -2.3047   -1.0431   -1.5552 H   0  0  0  0  0  0  0  0  0  0  0  0
   -3.3750   -1.6765   -0.1879 H   0  0  0  0  0  0  0  0  0  0  0  0
   -1.8386    0.2525    2.3335 H   0  0  0  0  0  0  0  0  0  0  0  0
   -2.7059   -1.2805    2.1517 H   0  0  0  0  0  0  0  0  0  0  0  0
   -0.9447   -1.2582    2.3335 H   0  0  0  0  0  0  0  0  0  0  0  0
  1  2  1  0
  1  5  1  0
  1  6  1  0
  1  7  1  0
  2  4  1  0
  2  3  1  0
  3  9  1  0
  4 10  1  0
  4 11  1  0
  4 12  1  0
  8 14  1  0
 13 14  2  3
 13 16  1  0
 13 17  1  0
 14 15  1  0
 15 18  1  0
 15 19  1  0
 15 20  1  0
M  RAD  1   2   2
M  END
>  <reaction>  (16) 
rxn_1926

>  <mol_properties>  (16) 
{"1": {"label": "*1", "atom_type": "Cs"}, "2": {"label": "*0", "atom_type": "S2s"}, "7": {"label": "*2", "atom_type": "H0"}, "12": {"label": "*4", "atom_type": "Cd"}, "13": {"label": "*3", "atom_type": "Cd"}}

>  <type>  (16) 
unop_12

>  <geom_source>  (16) 
Heuristics

$$$$

     RDKit          3D

 20 18  0  0  0  0  0  0  0  0999 V2000
   -0.9284    0.5163   -1.8118 S   0  0  0  0  0  0  0  0  0  0  0  0
   -1.9323    0.6670    0.7507 C   0  0  0  0  0  0  0  0  0  0  0  0
   -1.7182   -1.6258   -0.2788 C   0  0  0  0  0  0  0  0  0  0  0  0
    2.2778    0.4348    1.1629 C   0  0  0  0  0  0  0  0  0  0  0  0
   -1.1033   -0.2345   -0.1608 C   0  0  0  0  0  3  0  0  0  0  0  0
    1.4661    0.0672   -0.0394 C   0  0  0  0  0  0  0  0  0  0  0  0
    1.9625    0.1878   -1.2721 C   0  0  0  0  0  0  0  0  0  0  0  0
    3.1957   -0.1887    1.2064 H   0  0  0  0  0  0  0  0  0  0  0  0
    2.5604    1.5078    1.1165 H   0  0  0  0  0  0  0  0  0  0  0  0
    1.6800    0.2596    2.0812 H   0  0  0  0  0  0  0  0  0  0  0  0
   -2.9530    0.8100    0.3354 H   0  0  0  0  0  0  0  0  0  0  0  0
   -1.4393    1.6566    0.8498 H   0  0  0  0  0  0  0  0  0  0  0  0
   -2.0099    0.2154    1.7621 H   0  0  0  0  0  0  0  0  0  0  0  0
   -1.0764   -2.2648   -0.9209 H   0  0  0  0  0  0  0  0  0  0  0  0
   -1.7856   -2.0971    0.7243 H   0  0  0  0  0  0  0  0  0  0  0  0
   -2.7345   -1.5680   -0.7244 H   0  0  0  0  0  0  0  0  0  0  0  0
    0.3066   -0.3589    0.1143 H   0  0  0  0  0  0  0  0  0  0  0  0
    1.3550   -0.0851   -2.1284 H   0  0  0  0  0  0  0  0  0  0  0  0
    2.9709    0.5568   -1.4347 H   0  0  0  0  0  0  0  0  0  0  0  0
   -0.0940    1.5437   -1.3323 H   0  0  0  0  0  0  0  0  0  0  0  0
  1  5  1  0
  1 20  1  0
  2  5  1  0
  2 11  1  0
  2 12  1  0
  2 13  1  0
  3  5  1  0
  3 14  1  0
  3 15  1  0
  3 16  1  0
  4  6  1  0
  4  8  1  0
  4  9  1  0
  4 10  1  0
  6  7  2  3
  6 17  1  0
  7 18  1  0
  7 19  1  0
M  RAD  1   5   2
M  END
>  <reaction>  (17) 
rxn_1926

>  <mol_properties>  (17) 
{"1": {"label": "*1", "atom_type": "Cs"}, "2": {"label": "*0", "atom_type": "S2s"}, "7": {"label": "*2", "atom_type": "H0"}, "12": {"label": "*4", "atom_type": "Cd"}, "13": {"label": "*3", "atom_type": "Cd"}}

>  <type>  (17) 
unop_13

>  <geom_source>  (17) 
AutoTST

$$$$
