
     RDKit          3D

  9  8  0  0  0  0  0  0  0  0999 V2000
   -0.8818   -0.3578    0.1297 C   0  0  0  0  0  0  0  0  0  0  0  0
    0.6153   -0.3021   -0.1188 C   0  0  0  0  0  0  0  0  0  0  0  0
    1.5354   -1.7170    0.5545 S   0  0  0  0  0  0  0  0  0  0  0  0
   -1.1018   -0.3317    1.1984 H   0  0  0  0  0  0  0  0  0  0  0  0
   -1.3114   -1.2723   -0.2799 H   0  0  0  0  0  0  0  0  0  0  0  0
   -1.3767    0.4976   -0.3363 H   0  0  0  0  0  0  0  0  0  0  0  0
    1.0467    0.6194    0.2718 H   0  0  0  0  0  0  0  0  0  0  0  0
    0.8295   -0.3275   -1.1882 H   0  0  0  0  0  0  0  0  0  0  0  0
    1.2306   -1.5077    1.8423 H   0  0  0  0  0  0  0  0  0  0  0  0
  1  2  1  0
  1  4  1  0
  1  5  1  0
  1  6  1  0
  2  3  1  0
  2  7  1  0
  2  8  1  0
  3  9  1  0
M  END
>  <reaction>  (1) 
rxn_1887

>  <mol_properties>  (1) 
{"1": {"label": "donator", "atom_type": "Cs"}, "6": {"label": "d_hydrogen", "atom_type": "H0"}}

>  <type>  (1) 
r1h

$$$$

     RDKit          3D

 11 10  0  0  0  0  0  0  0  0999 V2000
    1.0781   -1.0166   -0.1159 C   0  0  0  0  0  0  0  0  0  0  0  0
    0.2180    0.1942   -0.2297 C   0  0  0  0  0  3  0  0  0  0  0  0
    0.9343    1.7769   -0.3011 S   0  0  0  0  0  0  0  0  0  0  0  0
   -1.1949    0.1490    0.2439 C   0  0  0  0  0  0  0  0  0  0  0  0
    1.4718   -1.1461    0.9024 H   0  0  0  0  0  0  0  0  0  0  0  0
    1.9367   -0.9751   -0.7902 H   0  0  0  0  0  0  0  0  0  0  0  0
    0.5033   -1.9136   -0.3576 H   0  0  0  0  0  0  0  0  0  0  0  0
    2.1166    1.4195   -0.8209 H   0  0  0  0  0  0  0  0  0  0  0  0
   -1.2620    0.0939    1.3399 H   0  0  0  0  0  0  0  0  0  0  0  0
   -1.7600    1.0270   -0.0739 H   0  0  0  0  0  0  0  0  0  0  0  0
   -1.6972   -0.7380   -0.1506 H   0  0  0  0  0  0  0  0  0  0  0  0
  1  2  1  0
  1  5  1  0
  1  6  1  0
  1  7  1  0
  2  4  1  0
  2  3  1  0
  3  8  1  0
  4  9  1  0
  4 10  1  0
  4 11  1  0
M  RAD  1   2   2
M  END
>  <reaction>  (2) 
rxn_1887

>  <mol_properties>  (2) 
{"1": {"label": "acceptor", "atom_type": "Cs"}}

>  <type>  (2) 
r2

$$$$

     RDKit          3D

 12 11  0  0  0  0  0  0  0  0999 V2000
    1.2394   -0.3763   -0.3020 C   0  0  0  0  0  0  0  0  0  0  0  0
    0.1007    0.3023    0.4464 C   0  0  0  0  0  0  0  0  0  0  0  0
   -0.1187    2.0399   -0.0725 S   0  0  0  0  0  0  0  0  0  0  0  0
   -1.1974   -0.4877    0.3552 C   0  0  0  0  0  0  0  0  0  0  0  0
    2.1681    0.1849   -0.2048 H   0  0  0  0  0  0  0  0  0  0  0  0
    1.0031   -0.4606   -1.3656 H   0  0  0  0  0  0  0  0  0  0  0  0
    1.3994   -1.3856    0.0860 H   0  0  0  0  0  0  0  0  0  0  0  0
    0.3796    0.4050    1.4981 H   0  0  0  0  0  0  0  0  0  0  0  0
   -0.4500    1.7779   -1.3452 H   0  0  0  0  0  0  0  0  0  0  0  0
   -1.0545   -1.4978    0.7479 H   0  0  0  0  0  0  0  0  0  0  0  0
   -1.5206   -0.5759   -0.6849 H   0  0  0  0  0  0  0  0  0  0  0  0
   -1.9957   -0.0054    0.9183 H   0  0  0  0  0  0  0  0  0  0  0  0
  1  2  1  0
  1  5  1  0
  1  6  1  0
  1  7  1  0
  2  4  1  0
  2  3  1  0
  2  8  1  0
  3  9  1  0
  4 10  1  0
  4 11  1  0
  4 12  1  0
M  END
>  <reaction>  (3) 
rxn_1887

>  <mol_properties>  (3) 
{"1": {"label": "acceptor", "atom_type": "Cs"}, "11": {"label": "a_hydrogen", "atom_type": "H0"}}

>  <type>  (3) 
r2h

$$$$

     RDKit          3D

 20 18  0  0  0  0  0  0  0  0999 V2000
    0.5039   -1.2174    1.9607 C   0  0  0  0  0  0  0  0  0  0  0  0
    0.6462   -1.1701    0.4600 C   0  0  0  0  0  0  0  0  0  0  0  0
    2.1263   -0.3545   -0.1365 S   0  0  0  0  0  0  0  0  0  0  0  0
    0.4522   -2.4929   -0.2425 C   0  0  0  0  0  0  0  0  0  0  0  0
    0.5218   -0.2144    2.3910 H   0  0  0  0  0  0  0  0  0  0  0  0
    1.3077   -1.8016    2.4193 H   0  0  0  0  0  0  0  0  0  0  0  0
   -0.4491   -1.6809    2.2285 H   0  0  0  0  0  0  0  0  0  0  0  0
    2.0814    0.6923    0.6986 H   0  0  0  0  0  0  0  0  0  0  0  0
   -0.5337   -2.8964   -0.0011 H   0  0  0  0  0  0  0  0  0  0  0  0
    0.5186   -2.3864   -1.3267 H   0  0  0  0  0  0  0  0  0  0  0  0
    1.1999   -3.2280    0.0726 H   0  0  0  0  0  0  0  0  0  0  0  0
   -1.4566    0.1401   -1.8613 C   0  0  0  0  0  0  0  0  0  0  0  0
   -1.3645    0.4042   -0.3819 C   0  0  0  0  0  3  0  0  0  0  0  0
   -0.9467    2.0549    0.1275 S   0  0  0  0  0  0  0  0  0  0  0  0
   -0.4941    0.3263   -2.3443 H   0  0  0  0  0  0  0  0  0  0  0  0
   -2.2040    0.7769   -2.3425 H   0  0  0  0  0  0  0  0  0  0  0  0
   -1.7272   -0.9022   -2.0431 H   0  0  0  0  0  0  0  0  0  0  0  0
   -0.3631   -0.4018    0.0606 H   0  0  0  0  0  0  0  0  0  0  0  0
   -2.2364    0.0892    0.1897 H   0  0  0  0  0  0  0  0  0  0  0  0
    0.1167    2.1997   -0.6772 H   0  0  0  0  0  0  0  0  0  0  0  0
  1  2  1  0
  1  5  1  0
  1  6  1  0
  1  7  1  0
  2  4  1  0
  2  3  1  0
  2 18  1  0
  3  8  1  0
  4  9  1  0
  4 10  1  0
  4 11  1  0
 12 13  1  0
 12 15  1  0
 12 16  1  0
 12 17  1  0
 13 14  1  0
 13 19  1  0
 14 20  1  0
M  RAD  1  13   2
M  END
>  <reaction>  (4) 
rxn_1887

>  <mol_properties>  (4) 
{"1": {"label": "*1", "atom_type": "Cs"}, "2": {"label": "*0", "atom_type": "S2s"}, "12": {"label": "*3", "atom_type": "Cs"}, "13": {"label": "*4", "atom_type": "S2s"}, "17": {"label": "*2", "atom_type": "H0"}}

>  <type>  (4) 
ts

$$$$

     RDKit          3D

 20 18  0  0  0  0  0  0  0  0999 V2000
    1.5687    0.1984    1.2591 C   0  0  0  0  0  0  0  0  0  0  0  0
    0.7085   -0.7265    0.4091 C   0  0  0  0  0  3  0  0  0  0  0  0
    1.6889   -2.0709   -0.3446 S   0  0  0  0  0  0  0  0  0  0  0  0
   -0.4933   -1.2591    1.1768 C   0  0  0  0  0  0  0  0  0  0  0  0
    2.4085    0.5940    0.6891 H   0  0  0  0  0  0  0  0  0  0  0  0
    1.9673   -0.3364    2.1247 H   0  0  0  0  0  0  0  0  0  0  0  0
    0.9724    1.0364    1.6292 H   0  0  0  0  0  0  0  0  0  0  0  0
    2.0557   -2.6547    0.8055 H   0  0  0  0  0  0  0  0  0  0  0  0
   -1.1040   -0.4313    1.5463 H   0  0  0  0  0  0  0  0  0  0  0  0
   -1.1147   -1.8963    0.5485 H   0  0  0  0  0  0  0  0  0  0  0  0
   -0.1682   -1.8459    2.0395 H   0  0  0  0  0  0  0  0  0  0  0  0
   -1.3182    0.6342   -2.0592 C   0  0  0  0  0  0  0  0  0  0  0  0
   -1.3182    0.6342   -0.5405 C   0  0  0  0  0  0  0  0  0  0  0  0
   -1.3182    2.2916    0.2045 S   0  0  0  0  0  0  0  0  0  0  0  0
   -0.4116    1.0996   -2.4499 H   0  0  0  0  0  0  0  0  0  0  0  0
   -2.1742    1.1854   -2.4493 H   0  0  0  0  0  0  0  0  0  0  0  0
   -1.3613   -0.3892   -2.4395 H   0  0  0  0  0  0  0  0  0  0  0  0
   -0.3063   -0.0451   -0.0664 H   0  0  0  0  0  0  0  0  0  0  0  0
   -2.2259    0.1671   -0.1554 H   0  0  0  0  0  0  0  0  0  0  0  0
   -0.1434    2.6932   -0.2991 H   0  0  0  0  0  0  0  0  0  0  0  0
  1  2  1  0
  1  5  1  0
  1  6  1  0
  1  7  1  0
  2  4  1  0
  2  3  1  0
  3  8  1  0
  4  9  1  0
  4 10  1  0
  4 11  1  0
 12 13  1  0
 12 15  1  0
 12 16  1  0
 12 17  1  0
 13 14  1  0
 13 18  1  0
 13 19  1  0
 14 20  1  0
M  RAD  1   2   2
M  END
>  <reaction>  (5) 
rxn_1887

>  <mol_properties>  (5) 
{"1": {"label": "*1", "atom_type": "Cs"}, "2": {"label": "*0", "atom_type": "S2s"}, "12": {"label": "*3", "atom_type": "Cs"}, "13": {"label": "*4", "atom_type": "S2s"}, "17": {"label": "*2", "atom_type": "H0"}}

>  <type>  (5) 
unop_1

>  <geom_source>  (5) 
Heuristics

$$$$

     RDKit          3D

 20 18  0  0  0  0  0  0  0  0999 V2000
    1.9817   -0.6203   -0.7126 C   0  0  0  0  0  0  0  0  0  0  0  0
    0.8232   -0.7099    0.2709 C   0  0  0  0  0  3  0  0  0  0  0  0
    0.4920   -2.4320    0.7820 S   0  0  0  0  0  0  0  0  0  0  0  0
    1.0128    0.2129    1.4668 C   0  0  0  0  0  0  0  0  0  0  0  0
    1.8194   -1.2641   -1.5764 H   0  0  0  0  0  0  0  0  0  0  0  0
    2.9159   -0.9234   -0.2336 H   0  0  0  0  0  0  0  0  0  0  0  0
    2.1033    0.4082   -1.0620 H   0  0  0  0  0  0  0  0  0  0  0  0
    1.6709   -2.6408    1.3860 H   0  0  0  0  0  0  0  0  0  0  0  0
    1.1277    1.2473    1.1326 H   0  0  0  0  0  0  0  0  0  0  0  0
    0.1639    0.1595    2.1475 H   0  0  0  0  0  0  0  0  0  0  0  0
    1.9125   -0.0605    2.0235 H   0  0  0  0  0  0  0  0  0  0  0  0
   -1.2036    0.6508   -2.1974 C   0  0  0  0  0  0  0  0  0  0  0  0
   -1.2036    0.6508   -0.6787 C   0  0  0  0  0  0  0  0  0  0  0  0
   -1.2036    2.3081    0.0663 S   0  0  0  0  0  0  0  0  0  0  0  0
   -0.2969    1.1162   -2.5881 H   0  0  0  0  0  0  0  0  0  0  0  0
   -2.0595    1.2020   -2.5875 H   0  0  0  0  0  0  0  0  0  0  0  0
   -1.2466   -0.3726   -2.5777 H   0  0  0  0  0  0  0  0  0  0  0  0
   -0.1917   -0.0286   -0.2046 H   0  0  0  0  0  0  0  0  0  0  0  0
   -2.1112    0.1837   -0.2936 H   0  0  0  0  0  0  0  0  0  0  0  0
   -0.0288    2.7098   -0.4373 H   0  0  0  0  0  0  0  0  0  0  0  0
  1  2  1  0
  1  5  1  0
  1  6  1  0
  1  7  1  0
  2  4  1  0
  2  3  1  0
  3  8  1  0
  4  9  1  0
  4 10  1  0
  4 11  1  0
 12 13  1  0
 12 15  1  0
 12 16  1  0
 12 17  1  0
 13 14  1  0
 13 18  1  0
 13 19  1  0
 14 20  1  0
M  RAD  1   2   2
M  END
>  <reaction>  (6) 
rxn_1887

>  <mol_properties>  (6) 
{"1": {"label": "*1", "atom_type": "Cs"}, "2": {"label": "*0", "atom_type": "S2s"}, "12": {"label": "*3", "atom_type": "Cs"}, "13": {"label": "*4", "atom_type": "S2s"}, "17": {"label": "*2", "atom_type": "H0"}}

>  <type>  (6) 
unop_2

>  <geom_source>  (6) 
Heuristics

$$$$

     RDKit          3D

 20 18  0  0  0  0  0  0  0  0999 V2000
    1.0305   -0.2292    1.8267 C   0  0  0  0  0  0  0  0  0  0  0  0
    0.6229   -0.8229    0.4854 C   0  0  0  0  0  3  0  0  0  0  0  0
    2.0715   -1.3029   -0.5183 S   0  0  0  0  0  0  0  0  0  0  0  0
   -0.3668   -1.9689    0.6420 C   0  0  0  0  0  0  0  0  0  0  0  0
    1.7164    0.6074    1.6981 H   0  0  0  0  0  0  0  0  0  0  0  0
    1.5251   -0.9822    2.4451 H   0  0  0  0  0  0  0  0  0  0  0  0
    0.1489    0.1224    2.3689 H   0  0  0  0  0  0  0  0  0  0  0  0
    2.5321   -2.2433    0.3195 H   0  0  0  0  0  0  0  0  0  0  0  0
   -1.2582   -1.6295    1.1759 H   0  0  0  0  0  0  0  0  0  0  0  0
   -0.6712   -2.3652   -0.3261 H   0  0  0  0  0  0  0  0  0  0  0  0
    0.0780   -2.7840    1.2182 H   0  0  0  0  0  0  0  0  0  0  0  0
   -1.4039    0.5378   -1.9829 C   0  0  0  0  0  0  0  0  0  0  0  0
   -1.4039    0.5378   -0.4642 C   0  0  0  0  0  0  0  0  0  0  0  0
   -1.4039    2.1952    0.2808 S   0  0  0  0  0  0  0  0  0  0  0  0
   -0.4973    1.0032   -2.3736 H   0  0  0  0  0  0  0  0  0  0  0  0
   -2.2599    1.0890   -2.3730 H   0  0  0  0  0  0  0  0  0  0  0  0
   -1.4470   -0.4856   -2.3632 H   0  0  0  0  0  0  0  0  0  0  0  0
   -0.3920   -0.1415    0.0099 H   0  0  0  0  0  0  0  0  0  0  0  0
   -2.3115    0.0707   -0.0791 H   0  0  0  0  0  0  0  0  0  0  0  0
   -0.2291    2.5968   -0.2228 H   0  0  0  0  0  0  0  0  0  0  0  0
  1  2  1  0
  1  5  1  0
  1  6  1  0
  1  7  1  0
  2  4  1  0
  2  3  1  0
  3  8  1  0
  4  9  1  0
  4 10  1  0
  4 11  1  0
 12 13  1  0
 12 15  1  0
 12 16  1  0
 12 17  1  0
 13 14  1  0
 13 18  1  0
 13 19  1  0
 14 20  1  0
M  RAD  1   2   2
M  END
>  <reaction>  (7) 
rxn_1887

>  <mol_properties>  (7) 
{"1": {"label": "*1", "atom_type": "Cs"}, "2": {"label": "*0", "atom_type": "S2s"}, "12": {"label": "*3", "atom_type": "Cs"}, "13": {"label": "*4", "atom_type": "S2s"}, "17": {"label": "*2", "atom_type": "H0"}}

>  <type>  (7) 
unop_3

>  <geom_source>  (7) 
Heuristics

$$$$

     RDKit          3D

 20 18  0  0  0  0  0  0  0  0999 V2000
    0.9129   -2.3958   -0.3962 C   0  0  0  0  0  0  0  0  0  0  0  0
    1.0096   -0.9585    0.0961 C   0  0  0  0  0  3  0  0  0  0  0  0
   -0.0757   -0.6536    1.5333 S   0  0  0  0  0  0  0  0  0  0  0  0
    2.4478   -0.5409    0.3694 C   0  0  0  0  0  0  0  0  0  0  0  0
   -0.1182   -2.6717   -0.6146 H   0  0  0  0  0  0  0  0  0  0  0  0
    1.2969   -3.0865    0.3585 H   0  0  0  0  0  0  0  0  0  0  0  0
    1.5087   -2.5265   -1.3032 H   0  0  0  0  0  0  0  0  0  0  0  0
    0.5363   -1.5051    2.3693 H   0  0  0  0  0  0  0  0  0  0  0  0
    3.0544   -0.6587   -0.5323 H   0  0  0  0  0  0  0  0  0  0  0  0
    2.5046    0.4976    0.6936 H   0  0  0  0  0  0  0  0  0  0  0  0
    2.8866   -1.1655    1.1514 H   0  0  0  0  0  0  0  0  0  0  0  0
   -1.0171    0.4022   -2.3722 C   0  0  0  0  0  0  0  0  0  0  0  0
   -1.0171    0.4022   -0.8536 C   0  0  0  0  0  0  0  0  0  0  0  0
   -1.0171    2.0595   -0.1086 S   0  0  0  0  0  0  0  0  0  0  0  0
   -0.1105    0.8676   -2.7630 H   0  0  0  0  0  0  0  0  0  0  0  0
   -1.8731    0.9534   -2.7623 H   0  0  0  0  0  0  0  0  0  0  0  0
   -1.0602   -0.6212   -2.7525 H   0  0  0  0  0  0  0  0  0  0  0  0
   -0.0052   -0.2772   -0.3794 H   0  0  0  0  0  0  0  0  0  0  0  0
   -1.9247   -0.0649   -0.4684 H   0  0  0  0  0  0  0  0  0  0  0  0
    0.1577    2.4612   -0.6121 H   0  0  0  0  0  0  0  0  0  0  0  0
  1  2  1  0
  1  5  1  0
  1  6  1  0
  1  7  1  0
  2  4  1  0
  2  3  1  0
  3  8  1  0
  4  9  1  0
  4 10  1  0
  4 11  1  0
 12 13  1  0
 12 15  1  0
 12 16  1  0
 12 17  1  0
 13 14  1  0
 13 18  1  0
 13 19  1  0
 14 20  1  0
M  RAD  1   2   2
M  END
>  <reaction>  (8) 
rxn_1887

>  <mol_properties>  (8) 
{"1": {"label": "*1", "atom_type": "Cs"}, "2": {"label": "*0", "atom_type": "S2s"}, "12": {"label": "*3", "atom_type": "Cs"}, "13": {"label": "*4", "atom_type": "S2s"}, "17": {"label": "*2", "atom_type": "H0"}}

>  <type>  (8) 
unop_4

>  <geom_source>  (8) 
Heuristics

$$$$

     RDKit          3D

 20 18  0  0  0  0  0  0  0  0999 V2000
    0.5170   -1.0306    1.9852 C   0  0  0  0  0  0  0  0  0  0  0  0
    0.5688   -1.0654    0.4641 C   0  0  0  0  0  3  0  0  0  0  0  0
    2.0023   -0.1431   -0.1923 S   0  0  0  0  0  0  0  0  0  0  0  0
    0.5076   -2.4859   -0.0800 C   0  0  0  0  0  0  0  0  0  0  0  0
    0.5330   -0.0076    2.3593 H   0  0  0  0  0  0  0  0  0  0  0  0
    1.3723   -1.5614    2.4104 H   0  0  0  0  0  0  0  0  0  0  0  0
   -0.3923   -1.5194    2.3445 H   0  0  0  0  0  0  0  0  0  0  0  0
    2.9474   -0.9227    0.3528 H   0  0  0  0  0  0  0  0  0  0  0  0
   -0.4017   -2.9848    0.2649 H   0  0  0  0  0  0  0  0  0  0  0  0
    0.5171   -2.4941   -1.1694 H   0  0  0  0  0  0  0  0  0  0  0  0
    1.3626   -3.0685    0.2717 H   0  0  0  0  0  0  0  0  0  0  0  0
   -1.4580    0.2953   -2.0042 C   0  0  0  0  0  0  0  0  0  0  0  0
   -1.4580    0.2953   -0.4855 C   0  0  0  0  0  0  0  0  0  0  0  0
   -1.4580    1.9526    0.2595 S   0  0  0  0  0  0  0  0  0  0  0  0
   -0.5513    0.7607   -2.3949 H   0  0  0  0  0  0  0  0  0  0  0  0
   -2.3139    0.8465   -2.3943 H   0  0  0  0  0  0  0  0  0  0  0  0
   -1.5010   -0.7281   -2.3845 H   0  0  0  0  0  0  0  0  0  0  0  0
   -0.4460   -0.3841   -0.0114 H   0  0  0  0  0  0  0  0  0  0  0  0
   -2.3656   -0.1718   -0.1004 H   0  0  0  0  0  0  0  0  0  0  0  0
   -0.2832    2.3543   -0.2441 H   0  0  0  0  0  0  0  0  0  0  0  0
  1  2  1  0
  1  5  1  0
  1  6  1  0
  1  7  1  0
  2  4  1  0
  2  3  1  0
  3  8  1  0
  4  9  1  0
  4 10  1  0
  4 11  1  0
 12 13  1  0
 12 15  1  0
 12 16  1  0
 12 17  1  0
 13 14  1  0
 13 18  1  0
 13 19  1  0
 14 20  1  0
M  RAD  1   2   2
M  END
>  <reaction>  (9) 
rxn_1887

>  <mol_properties>  (9) 
{"1": {"label": "*1", "atom_type": "Cs"}, "2": {"label": "*0", "atom_type": "S2s"}, "12": {"label": "*3", "atom_type": "Cs"}, "13": {"label": "*4", "atom_type": "S2s"}, "17": {"label": "*2", "atom_type": "H0"}}

>  <type>  (9) 
unop_5

>  <geom_source>  (9) 
Heuristics

$$$$

     RDKit          3D

 20 18  0  0  0  0  0  0  0  0999 V2000
    0.5332   -2.5686    0.2761 C   0  0  0  0  0  0  0  0  0  0  0  0
    0.9543   -1.1166    0.0973 C   0  0  0  0  0  3  0  0  0  0  0  0
    0.2189   -0.0301    1.3682 S   0  0  0  0  0  0  0  0  0  0  0  0
    2.4670   -0.9627    0.0221 C   0  0  0  0  0  0  0  0  0  0  0  0
   -0.5515   -2.6670    0.2999 H   0  0  0  0  0  0  0  0  0  0  0  0
    0.9315   -2.9712    1.2107 H   0  0  0  0  0  0  0  0  0  0  0  0
    0.9211   -3.1792   -0.5433 H   0  0  0  0  0  0  0  0  0  0  0  0
    0.8266   -0.5952    2.4215 H   0  0  0  0  0  0  0  0  0  0  0  0
    2.8684   -1.5621   -0.7991 H   0  0  0  0  0  0  0  0  0  0  0  0
    2.7526    0.0770   -0.1341 H   0  0  0  0  0  0  0  0  0  0  0  0
    2.9341   -1.3081    0.9477 H   0  0  0  0  0  0  0  0  0  0  0  0
   -1.0725    0.2440   -2.3710 C   0  0  0  0  0  0  0  0  0  0  0  0
   -1.0725    0.2440   -0.8524 C   0  0  0  0  0  0  0  0  0  0  0  0
   -1.0725    1.9014   -0.1074 S   0  0  0  0  0  0  0  0  0  0  0  0
   -0.1658    0.7095   -2.7618 H   0  0  0  0  0  0  0  0  0  0  0  0
   -1.9284    0.7952   -2.7611 H   0  0  0  0  0  0  0  0  0  0  0  0
   -1.1156   -0.7793   -2.7513 H   0  0  0  0  0  0  0  0  0  0  0  0
   -0.0606   -0.4353   -0.3782 H   0  0  0  0  0  0  0  0  0  0  0  0
   -1.9801   -0.2230   -0.4672 H   0  0  0  0  0  0  0  0  0  0  0  0
    0.1023    2.3031   -0.6109 H   0  0  0  0  0  0  0  0  0  0  0  0
  1  2  1  0
  1  5  1  0
  1  6  1  0
  1  7  1  0
  2  4  1  0
  2  3  1  0
  3  8  1  0
  4  9  1  0
  4 10  1  0
  4 11  1  0
 12 13  1  0
 12 15  1  0
 12 16  1  0
 12 17  1  0
 13 14  1  0
 13 18  1  0
 13 19  1  0
 14 20  1  0
M  RAD  1   2   2
M  END
>  <reaction>  (10) 
rxn_1887

>  <mol_properties>  (10) 
{"1": {"label": "*1", "atom_type": "Cs"}, "2": {"label": "*0", "atom_type": "S2s"}, "12": {"label": "*3", "atom_type": "Cs"}, "13": {"label": "*4", "atom_type": "S2s"}, "17": {"label": "*2", "atom_type": "H0"}}

>  <type>  (10) 
unop_6

>  <geom_source>  (10) 
Heuristics

$$$$

     RDKit          3D

 20 19  0  0  0  0  0  0  0  0999 V2000
    0.3104   -2.3808    1.0191 C   0  0  0  0  0  0  0  0  0  0  0  0
    0.8407   -1.2346    0.1691 C   0  0  0  0  0  0  0  0  0  0  0  0
    0.6640    0.3779    1.0090 S   0  0  0  0  0  4  0  0  0  0  0  0
    2.2684   -1.4797   -0.2990 C   0  0  0  0  0  0  0  0  0  0  0  0
   -0.7209   -2.2050    1.3232 H   0  0  0  0  0  0  0  0  0  0  0  0
    0.9150   -2.5009    1.9213 H   0  0  0  0  0  0  0  0  0  0  0  0
    0.3542   -3.3189    0.4597 H   0  0  0  0  0  0  0  0  0  0  0  0
    1.4814    0.1045    2.0364 H   0  0  0  0  0  0  0  0  0  0  0  0
    2.3258   -2.4116   -0.8675 H   0  0  0  0  0  0  0  0  0  0  0  0
    2.6246   -0.6654   -0.9289 H   0  0  0  0  0  0  0  0  0  0  0  0
    2.9427   -1.5678    0.5563 H   0  0  0  0  0  0  0  0  0  0  0  0
   -1.1861    0.1261   -2.2992 C   0  0  0  0  0  0  0  0  0  0  0  0
   -1.1861    0.1261   -0.7805 C   0  0  0  0  0  0  0  0  0  0  0  0
   -1.1861    1.7835   -0.0356 S   0  0  0  0  0  3  0  0  0  0  0  0
   -0.2795    0.5915   -2.6900 H   0  0  0  0  0  0  0  0  0  0  0  0
   -2.0421    0.6773   -2.6893 H   0  0  0  0  0  0  0  0  0  0  0  0
   -1.2292   -0.8972   -2.6795 H   0  0  0  0  0  0  0  0  0  0  0  0
   -0.1742   -0.5532   -0.3064 H   0  0  0  0  0  0  0  0  0  0  0  0
   -2.0937   -0.3409   -0.3954 H   0  0  0  0  0  0  0  0  0  0  0  0
   -0.0113    2.1852   -0.5391 H   0  0  0  0  0  0  0  0  0  0  0  0
  1  2  1  0
  1  5  1  0
  1  6  1  0
  1  7  1  0
  2  4  1  0
  2  3  2  3
  3 14  1  0
  3  8  1  0
  4  9  1  0
  4 10  1  0
  4 11  1  0
 12 13  1  0
 12 15  1  0
 12 16  1  0
 12 17  1  0
 13 14  1  0
 13 18  1  0
 13 19  1  0
 14 20  1  0
M  RAD  1  14   2
M  END
>  <reaction>  (11) 
rxn_1887

>  <mol_properties>  (11) 
{"1": {"label": "*1", "atom_type": "Cs"}, "2": {"label": "*0", "atom_type": "S2s"}, "12": {"label": "*3", "atom_type": "Cs"}, "13": {"label": "*4", "atom_type": "S2s"}, "17": {"label": "*2", "atom_type": "H0"}}

>  <type>  (11) 
unop_7

>  <geom_source>  (11) 
Heuristics

$$$$

     RDKit          3D

 20 18  0  0  0  0  0  0  0  0999 V2000
    1.9358    0.2272    0.5167 C   0  0  0  0  0  0  0  0  0  0  0  0
    0.7513   -0.7123    0.3379 C   0  0  0  0  0  3  0  0  0  0  0  0
    1.2836   -2.4289    0.0114 S   0  0  0  0  0  0  0  0  0  0  0  0
   -0.2269   -0.6307    1.5015 C   0  0  0  0  0  0  0  0  0  0  0  0
    2.6124    0.1791   -0.3357 H   0  0  0  0  0  0  0  0  0  0  0  0
    2.5010   -0.0348    1.4145 H   0  0  0  0  0  0  0  0  0  0  0  0
    1.5884    1.2575    0.6289 H   0  0  0  0  0  0  0  0  0  0  0  0
    1.8968   -2.6244    1.1878 H   0  0  0  0  0  0  0  0  0  0  0  0
   -0.5893    0.3936    1.6205 H   0  0  0  0  0  0  0  0  0  0  0  0
   -1.0828   -1.2867    1.3468 H   0  0  0  0  0  0  0  0  0  0  0  0
    0.2613   -0.9232    2.4343 H   0  0  0  0  0  0  0  0  0  0  0  0
   -1.2754    0.6483   -2.1304 C   0  0  0  0  0  0  0  0  0  0  0  0
   -1.2754    0.6483   -0.6118 C   0  0  0  0  0  0  0  0  0  0  0  0
   -1.2754    2.3057    0.1332 S   0  0  0  0  0  0  0  0  0  0  0  0
   -0.3688    1.1138   -2.5212 H   0  0  0  0  0  0  0  0  0  0  0  0
   -2.1314    1.1995   -2.5205 H   0  0  0  0  0  0  0  0  0  0  0  0
   -1.3185   -0.3750   -2.5107 H   0  0  0  0  0  0  0  0  0  0  0  0
   -0.2635   -0.0310   -0.1376 H   0  0  0  0  0  0  0  0  0  0  0  0
   -2.1830    0.1813   -0.2266 H   0  0  0  0  0  0  0  0  0  0  0  0
   -0.1006    2.7074   -0.3703 H   0  0  0  0  0  0  0  0  0  0  0  0
  1  2  1  0
  1  5  1  0
  1  6  1  0
  1  7  1  0
  2  4  1  0
  2  3  1  0
  3  8  1  0
  4  9  1  0
  4 10  1  0
  4 11  1  0
 12 13  1  0
 12 15  1  0
 12 16  1  0
 12 17  1  0
 13 14  1  0
 13 18  1  0
 13 19  1  0
 14 20  1  0
M  RAD  1   2   2
M  END
>  <reaction>  (12) 
rxn_1887

>  <mol_properties>  (12) 
{"1": {"label": "*1", "atom_type": "Cs"}, "2": {"label": "*0", "atom_type": "S2s"}, "12": {"label": "*3", "atom_type": "Cs"}, "13": {"label": "*4", "atom_type": "S2s"}, "17": {"label": "*2", "atom_type": "H0"}}

>  <type>  (12) 
unop_8

>  <geom_source>  (12) 
Heuristics

$$$$

     RDKit          3D

 20 18  0  0  0  0  0  0  0  0999 V2000
    1.3467   -1.9177   -0.8323 C   0  0  0  0  0  0  0  0  0  0  0  0
    0.9910   -0.8116    0.1512 C   0  0  0  0  0  3  0  0  0  0  0  0
   -0.1442   -1.3969    1.4571 S   0  0  0  0  0  0  0  0  0  0  0  0
    2.2277   -0.1391    0.7307 C   0  0  0  0  0  0  0  0  0  0  0  0
    0.4530   -2.3707   -1.2601 H   0  0  0  0  0  0  0  0  0  0  0  0
    1.9210   -2.7032   -0.3350 H   0  0  0  0  0  0  0  0  0  0  0  0
    1.9592   -1.5192   -1.6452 H   0  0  0  0  0  0  0  0  0  0  0  0
    0.6961   -2.2901    1.9998 H   0  0  0  0  0  0  0  0  0  0  0  0
    2.8464    0.2718   -0.0713 H   0  0  0  0  0  0  0  0  0  0  0  0
    1.9583    0.6684    1.4107 H   0  0  0  0  0  0  0  0  0  0  0  0
    2.8334   -0.8612    1.2838 H   0  0  0  0  0  0  0  0  0  0  0  0
   -1.0358    0.5491   -2.3171 C   0  0  0  0  0  0  0  0  0  0  0  0
   -1.0358    0.5491   -0.7984 C   0  0  0  0  0  0  0  0  0  0  0  0
   -1.0358    2.2065   -0.0534 S   0  0  0  0  0  0  0  0  0  0  0  0
   -0.1292    1.0145   -2.7078 H   0  0  0  0  0  0  0  0  0  0  0  0
   -1.8918    1.1003   -2.7072 H   0  0  0  0  0  0  0  0  0  0  0  0
   -1.0789   -0.4743   -2.6974 H   0  0  0  0  0  0  0  0  0  0  0  0
   -0.0239   -0.1302   -0.3243 H   0  0  0  0  0  0  0  0  0  0  0  0
   -1.9434    0.0821   -0.4133 H   0  0  0  0  0  0  0  0  0  0  0  0
    0.1390    2.6081   -0.5570 H   0  0  0  0  0  0  0  0  0  0  0  0
  1  2  1  0
  1  5  1  0
  1  6  1  0
  1  7  1  0
  2  4  1  0
  2  3  1  0
  3  8  1  0
  4  9  1  0
  4 10  1  0
  4 11  1  0
 12 13  1  0
 12 15  1  0
 12 16  1  0
 12 17  1  0
 13 14  1  0
 13 18  1  0
 13 19  1  0
 14 20  1  0
M  RAD  1   2   2
M  END
>  <reaction>  (13) 
rxn_1887

>  <mol_properties>  (13) 
{"1": {"label": "*1", "atom_type": "Cs"}, "2": {"label": "*0", "atom_type": "S2s"}, "12": {"label": "*3", "atom_type": "Cs"}, "13": {"label": "*4", "atom_type": "S2s"}, "17": {"label": "*2", "atom_type": "H0"}}

>  <type>  (13) 
unop_9

>  <geom_source>  (13) 
Heuristics

$$$$

     RDKit          3D

 20 18  0  0  0  0  0  0  0  0999 V2000
    2.0699   -0.0808   -0.1948 C   0  0  0  0  0  0  0  0  0  0  0  0
    0.7763   -0.7146    0.2975 C   0  0  0  0  0  3  0  0  0  0  0  0
    0.9013   -2.5342    0.3975 S   0  0  0  0  0  0  0  0  0  0  0  0
    0.2999   -0.1033    1.6078 C   0  0  0  0  0  0  0  0  0  0  0  0
    2.3837   -0.5078   -1.1467 H   0  0  0  0  0  0  0  0  0  0  0  0
    2.8734   -0.2371    0.5291 H   0  0  0  0  0  0  0  0  0  0  0  0
    1.9393    0.9970   -0.3219 H   0  0  0  0  0  0  0  0  0  0  0  0
    1.8581   -2.5694    1.3365 H   0  0  0  0  0  0  0  0  0  0  0  0
    0.1570    0.9743    1.4933 H   0  0  0  0  0  0  0  0  0  0  0  0
   -0.6406   -0.5463    1.9334 H   0  0  0  0  0  0  0  0  0  0  0  0
    1.0404   -0.2605    2.3960 H   0  0  0  0  0  0  0  0  0  0  0  0
   -1.2505    0.6461   -2.1708 C   0  0  0  0  0  0  0  0  0  0  0  0
   -1.2505    0.6461   -0.6522 C   0  0  0  0  0  0  0  0  0  0  0  0
   -1.2505    2.3035    0.0928 S   0  0  0  0  0  0  0  0  0  0  0  0
   -0.3438    1.1115   -2.5616 H   0  0  0  0  0  0  0  0  0  0  0  0
   -2.1065    1.1973   -2.5609 H   0  0  0  0  0  0  0  0  0  0  0  0
   -1.2936   -0.3773   -2.5511 H   0  0  0  0  0  0  0  0  0  0  0  0
   -0.2386   -0.0332   -0.1780 H   0  0  0  0  0  0  0  0  0  0  0  0
   -2.1581    0.1791   -0.2670 H   0  0  0  0  0  0  0  0  0  0  0  0
   -0.0757    2.7051   -0.4107 H   0  0  0  0  0  0  0  0  0  0  0  0
  1  2  1  0
  1  5  1  0
  1  6  1  0
  1  7  1  0
  2  4  1  0
  2  3  1  0
  3  8  1  0
  4  9  1  0
  4 10  1  0
  4 11  1  0
 12 13  1  0
 12 15  1  0
 12 16  1  0
 12 17  1  0
 13 14  1  0
 13 18  1  0
 13 19  1  0
 14 20  1  0
M  RAD  1   2   2
M  END
>  <reaction>  (14) 
rxn_1887

>  <mol_properties>  (14) 
{"1": {"label": "*1", "atom_type": "Cs"}, "2": {"label": "*0", "atom_type": "S2s"}, "12": {"label": "*3", "atom_type": "Cs"}, "13": {"label": "*4", "atom_type": "S2s"}, "17": {"label": "*2", "atom_type": "H0"}}

>  <type>  (14) 
unop_10

>  <geom_source>  (14) 
Heuristics

$$$$

     RDKit          3D

 20 18  0  0  0  0  0  0  0  0999 V2000
    0.2909   -1.8509    1.6496 C   0  0  0  0  0  0  0  0  0  0  0  0
    0.6861   -1.2488    0.3084 C   0  0  0  0  0  3  0  0  0  0  0  0
    1.2904    0.4663    0.4804 S   0  0  0  0  0  0  0  0  0  0  0  0
    1.6733   -2.1277   -0.4469 C   0  0  0  0  0  0  0  0  0  0  0  0
   -0.4368   -1.2259    2.1660 H   0  0  0  0  0  0  0  0  0  0  0  0
    1.1662   -1.9573    2.2951 H   0  0  0  0  0  0  0  0  0  0  0  0
   -0.1417   -2.8444    1.5061 H   0  0  0  0  0  0  0  0  0  0  0  0
    2.3650    0.1747    1.2275 H   0  0  0  0  0  0  0  0  0  0  0  0
    1.2504   -3.1231   -0.6050 H   0  0  0  0  0  0  0  0  0  0  0  0
    1.9253   -1.6989   -1.4161 H   0  0  0  0  0  0  0  0  0  0  0  0
    2.5979   -2.2440    0.1239 H   0  0  0  0  0  0  0  0  0  0  0  0
   -1.3407    0.1118   -2.1600 C   0  0  0  0  0  0  0  0  0  0  0  0
   -1.3407    0.1118   -0.6413 C   0  0  0  0  0  0  0  0  0  0  0  0
   -1.3407    1.7692    0.1037 S   0  0  0  0  0  0  0  0  0  0  0  0
   -0.4341    0.5773   -2.5507 H   0  0  0  0  0  0  0  0  0  0  0  0
   -2.1967    0.6631   -2.5501 H   0  0  0  0  0  0  0  0  0  0  0  0
   -1.3838   -0.9115   -2.5402 H   0  0  0  0  0  0  0  0  0  0  0  0
   -0.3288   -0.5675   -0.1672 H   0  0  0  0  0  0  0  0  0  0  0  0
   -2.2483   -0.3552   -0.2562 H   0  0  0  0  0  0  0  0  0  0  0  0
   -0.1659    2.1709   -0.3998 H   0  0  0  0  0  0  0  0  0  0  0  0
  1  2  1  0
  1  5  1  0
  1  6  1  0
  1  7  1  0
  2  4  1  0
  2  3  1  0
  3  8  1  0
  4  9  1  0
  4 10  1  0
  4 11  1  0
 12 13  1  0
 12 15  1  0
 12 16  1  0
 12 17  1  0
 13 14  1  0
 13 18  1  0
 13 19  1  0
 14 20  1  0
M  RAD  1   2   2
M  END
>  <reaction>  (15) 
rxn_1887

>  <mol_properties>  (15) 
{"1": {"label": "*1", "atom_type": "Cs"}, "2": {"label": "*0", "atom_type": "S2s"}, "12": {"label": "*3", "atom_type": "Cs"}, "13": {"label": "*4", "atom_type": "S2s"}, "17": {"label": "*2", "atom_type": "H0"}}

>  <type>  (15) 
unop_11

>  <geom_source>  (15) 
Heuristics

$$$$

     RDKit          3D

 20 18  0  0  0  0  0  0  0  0999 V2000
    1.7244   -1.2735   -0.9398 C   0  0  0  0  0  0  0  0  0  0  0  0
    0.9093   -0.7262    0.2236 C   0  0  0  0  0  3  0  0  0  0  0  0
    0.0825   -2.0559    1.1643 S   0  0  0  0  0  0  0  0  0  0  0  0
    1.7338    0.1818    1.1253 C   0  0  0  0  0  0  0  0  0  0  0  0
    1.1151   -1.8982   -1.5920 H   0  0  0  0  0  0  0  0  0  0  0  0
    2.5586   -1.8769   -0.5735 H   0  0  0  0  0  0  0  0  0  0  0  0
    2.1394   -0.4529   -1.5308 H   0  0  0  0  0  0  0  0  0  0  0  0
    1.2017   -2.6621    1.5864 H   0  0  0  0  0  0  0  0  0  0  0  0
    2.1488    1.0125    0.5488 H   0  0  0  0  0  0  0  0  0  0  0  0
    1.1311    0.5883    1.9367 H   0  0  0  0  0  0  0  0  0  0  0  0
    2.5683   -0.3698    1.5653 H   0  0  0  0  0  0  0  0  0  0  0  0
   -1.1175    0.6344   -2.2448 C   0  0  0  0  0  0  0  0  0  0  0  0
   -1.1175    0.6344   -0.7261 C   0  0  0  0  0  0  0  0  0  0  0  0
   -1.1175    2.2918    0.0189 S   0  0  0  0  0  0  0  0  0  0  0  0
   -0.2109    1.0999   -2.6355 H   0  0  0  0  0  0  0  0  0  0  0  0
   -1.9735    1.1857   -2.6349 H   0  0  0  0  0  0  0  0  0  0  0  0
   -1.1606   -0.3889   -2.6250 H   0  0  0  0  0  0  0  0  0  0  0  0
   -0.1056   -0.0449   -0.2520 H   0  0  0  0  0  0  0  0  0  0  0  0
   -2.0251    0.1674   -0.3410 H   0  0  0  0  0  0  0  0  0  0  0  0
    0.0573    2.6935   -0.4846 H   0  0  0  0  0  0  0  0  0  0  0  0
  1  2  1  0
  1  5  1  0
  1  6  1  0
  1  7  1  0
  2  4  1  0
  2  3  1  0
  3  8  1  0
  4  9  1  0
  4 10  1  0
  4 11  1  0
 12 13  1  0
 12 15  1  0
 12 16  1  0
 12 17  1  0
 13 14  1  0
 13 18  1  0
 13 19  1  0
 14 20  1  0
M  RAD  1   2   2
M  END
>  <reaction>  (16) 
rxn_1887

>  <mol_properties>  (16) 
{"1": {"label": "*1", "atom_type": "Cs"}, "2": {"label": "*0", "atom_type": "S2s"}, "12": {"label": "*3", "atom_type": "Cs"}, "13": {"label": "*4", "atom_type": "S2s"}, "17": {"label": "*2", "atom_type": "H0"}}

>  <type>  (16) 
unop_12

>  <geom_source>  (16) 
Heuristics

$$$$

     RDKit          3D

 20 18  0  0  0  0  0  0  0  0999 V2000
   -1.1367    1.0242    1.7078 S   0  0  0  0  0  0  0  0  0  0  0  0
    2.2697    1.8578    0.1886 S   0  0  0  0  0  0  0  0  0  0  0  0
   -1.0460    0.0998    0.1391 C   0  0  0  0  0  0  0  0  0  0  0  0
   -1.7764   -1.2355    0.2741 C   0  0  0  0  0  0  0  0  0  0  0  0
   -1.6446    0.9392   -0.9873 C   0  0  0  0  0  0  0  0  0  0  0  0
    2.4941   -0.8783    0.1894 C   0  0  0  0  0  0  0  0  0  0  0  0
    1.5414    0.2387   -0.2017 C   0  0  0  0  0  3  0  0  0  0  0  0
    0.2243   -0.1349   -0.1393 H   0  0  0  0  0  0  0  0  0  0  0  0
   -1.3079   -1.8432    1.0765 H   0  0  0  0  0  0  0  0  0  0  0  0
   -1.7080   -1.8051   -0.6768 H   0  0  0  0  0  0  0  0  0  0  0  0
   -2.8469   -1.0724    0.5235 H   0  0  0  0  0  0  0  0  0  0  0  0
   -1.5651    0.3948   -1.9520 H   0  0  0  0  0  0  0  0  0  0  0  0
   -1.0875    1.8952   -1.0803 H   0  0  0  0  0  0  0  0  0  0  0  0
   -2.7138    1.1630   -0.7834 H   0  0  0  0  0  0  0  0  0  0  0  0
    3.4473   -0.7851   -0.3732 H   0  0  0  0  0  0  0  0  0  0  0  0
    2.0294   -1.8581   -0.0468 H   0  0  0  0  0  0  0  0  0  0  0  0
    2.7012   -0.8348    1.2793 H   0  0  0  0  0  0  0  0  0  0  0  0
    1.3191    0.1838   -1.2885 H   0  0  0  0  0  0  0  0  0  0  0  0
   -0.3082    0.1086    2.3844 H   0  0  0  0  0  0  0  0  0  0  0  0
    1.1146    2.5424   -0.2335 H   0  0  0  0  0  0  0  0  0  0  0  0
  1  3  1  0
  1 19  1  0
  2  7  1  0
  2 20  1  0
  3  4  1  0
  3  5  1  0
  3  8  1  0
  4  9  1  0
  4 10  1  0
  4 11  1  0
  5 12  1  0
  5 13  1  0
  5 14  1  0
  6  7  1  0
  6 15  1  0
  6 16  1  0
  6 17  1  0
  7 18  1  0
M  RAD  1   7   2
M  END
>  <reaction>  (17) 
rxn_1887

>  <mol_properties>  (17) 
{"1": {"label": "*1", "atom_type": "Cs"}, "2": {"label": "*0", "atom_type": "S2s"}, "12": {"label": "*3", "atom_type": "Cs"}, "13": {"label": "*4", "atom_type": "S2s"}, "17": {"label": "*2", "atom_type": "H0"}}

>  <type>  (17) 
unop_13

>  <geom_source>  (17) 
AutoTST

$$$$
