
     RDKit          3D

 11 10  0  0  0  0  0  0  0  0999 V2000
   -1.2710    0.1907   -0.2084 C   0  0  0  0  0  0  0  0  0  0  0  0
    0.0202   -0.6130   -0.2928 C   0  0  0  0  0  0  0  0  0  0  0  0
    0.1086   -1.6953    0.7756 C   0  0  0  0  0  0  0  0  0  0  0  0
   -1.3607    0.6851    0.7620 H   0  0  0  0  0  0  0  0  0  0  0  0
   -2.1429   -0.4567   -0.3299 H   0  0  0  0  0  0  0  0  0  0  0  0
   -1.3158    0.9602   -0.9809 H   0  0  0  0  0  0  0  0  0  0  0  0
    0.8757    0.0616   -0.1992 H   0  0  0  0  0  0  0  0  0  0  0  0
    0.0997   -1.0712   -1.2825 H   0  0  0  0  0  0  0  0  0  0  0  0
   -0.7198   -2.4022    0.6850 H   0  0  0  0  0  0  0  0  0  0  0  0
    1.0395   -2.2596    0.6989 H   0  0  0  0  0  0  0  0  0  0  0  0
    0.0624   -1.2603    1.7770 H   0  0  0  0  0  0  0  0  0  0  0  0
  1  2  1  0
  1  4  1  0
  1  5  1  0
  1  6  1  0
  2  3  1  0
  2  7  1  0
  2  8  1  0
  3  9  1  0
  3 10  1  0
  3 11  1  0
M  END
>  <reaction>  (1) 
rxn_938

>  <mol_properties>  (1) 
{"1": {"label": "donator", "atom_type": "Cs"}, "6": {"label": "d_hydrogen", "atom_type": "H0"}}

>  <type>  (1) 
r1h

$$$$

     RDKit          3D

  7  6  0  0  0  0  0  0  0  0999 V2000
   -1.3496    0.0255    0.0758 C   0  0  0  0  0  0  0  0  0  0  0  0
   -0.0636   -0.0704   -0.0033 C   0  0  0  0  0  0  0  0  0  0  0  0
    1.2597   -0.1602   -0.0839 C   0  0  0  0  0  0  0  0  0  0  0  0
    2.2616    1.2090   -0.0064 S   0  0  0  0  0  1  0  0  0  0  0  0
   -1.8547   -0.0180    1.0345 H   0  0  0  0  0  0  0  0  0  0  0  0
   -1.9552    0.1601   -0.8138 H   0  0  0  0  0  0  0  0  0  0  0  0
    1.7017   -1.1460   -0.2029 H   0  0  0  0  0  0  0  0  0  0  0  0
  1  2  2  0
  1  5  1  0
  1  6  1  0
  2  3  2  0
  3  4  1  0
  3  7  1  0
M  RAD  1   4   2
M  END
>  <reaction>  (2) 
rxn_938

>  <mol_properties>  (2) 
{"1": {"label": "acceptor", "atom_type": "Cd"}}

>  <type>  (2) 
r2

$$$$

     RDKit          3D

  8  7  0  0  0  0  0  0  0  0999 V2000
   -1.1617    0.0338    0.5053 C   0  0  0  0  0  0  0  0  0  0  0  0
   -0.1023    0.4503   -0.1863 C   0  0  0  0  0  0  0  0  0  0  0  0
    1.0978   -0.3557   -0.3104 C   0  0  0  0  0  0  0  0  0  0  0  0
    2.4251    0.0667   -1.1256 S   0  0  0  0  0  0  0  0  0  0  0  0
   -1.1653   -0.9292    1.0039 H   0  0  0  0  0  0  0  0  0  0  0  0
   -2.0546    0.6389    0.5948 H   0  0  0  0  0  0  0  0  0  0  0  0
   -0.0991    1.4132   -0.6847 H   0  0  0  0  0  0  0  0  0  0  0  0
    1.0601   -1.3180    0.2032 H   0  0  0  0  0  0  0  0  0  0  0  0
  1  2  2  3
  1  5  1  0
  1  6  1  0
  2  3  1  0
  2  7  1  0
  3  4  2  0
  3  8  1  0
M  END
>  <reaction>  (3) 
rxn_938

>  <mol_properties>  (3) 
{"1": {"label": "acceptor", "atom_type": "Cd"}, "7": {"label": "a_hydrogen", "atom_type": "H0"}}

>  <type>  (3) 
r2h

$$$$

     RDKit          3D

 18 16  0  0  0  0  0  0  0  0999 V2000
    0.4388   -0.7626    2.3918 C   0  0  0  0  0  0  0  0  0  0  0  0
    0.4757   -0.4889    1.1028 C   0  0  0  0  0  0  0  0  0  0  0  0
    1.4446   -0.6411    0.0720 C   0  0  0  0  0  0  0  0  0  0  0  0
    2.0930    0.5897   -0.7809 S   0  0  0  0  0  0  0  0  0  0  0  0
    1.3016   -1.1543    2.9208 H   0  0  0  0  0  0  0  0  0  0  0  0
   -0.4548   -0.5734    2.9758 H   0  0  0  0  0  0  0  0  0  0  0  0
    1.7040   -1.6685   -0.1894 H   0  0  0  0  0  0  0  0  0  0  0  0
   -1.8388    0.5087   -1.1308 C   0  0  0  0  0  0  0  0  0  0  0  0
   -1.6740    0.8563    0.3189 C   0  0  0  0  0  3  0  0  0  0  0  0
   -1.3078    2.2712    0.6565 C   0  0  0  0  0  0  0  0  0  0  0  0
   -0.9780    0.8434   -1.7125 H   0  0  0  0  0  0  0  0  0  0  0  0
   -2.7287    0.9985   -1.5419 H   0  0  0  0  0  0  0  0  0  0  0  0
   -1.9570   -0.5661   -1.2764 H   0  0  0  0  0  0  0  0  0  0  0  0
   -0.5817    0.1186    0.6921 H   0  0  0  0  0  0  0  0  0  0  0  0
   -2.4279    0.4167    0.9723 H   0  0  0  0  0  0  0  0  0  0  0  0
   -2.1266    2.9505    0.3933 H   0  0  0  0  0  0  0  0  0  0  0  0
   -1.1064    2.3895    1.7218 H   0  0  0  0  0  0  0  0  0  0  0  0
   -0.4197    2.5828    0.1040 H   0  0  0  0  0  0  0  0  0  0  0  0
  1  2  2  3
  1  5  1  0
  1  6  1  0
  2  3  1  0
  2 14  1  0
  3  4  2  0
  3  7  1  0
  8  9  1  0
  8 11  1  0
  8 12  1  0
  8 13  1  0
  9 10  1  0
  9 15  1  0
 10 16  1  0
 10 17  1  0
 10 18  1  0
M  RAD  1   9   2
M  END
>  <reaction>  (4) 
rxn_938

>  <mol_properties>  (4) 
{"1": {"label": "*1", "atom_type": "Cd"}, "2": {"label": "*0", "atom_type": "CS"}, "7": {"label": "*4", "atom_type": "Cs"}, "8": {"label": "*3", "atom_type": "Cs"}, "13": {"label": "*2", "atom_type": "H0"}}

>  <type>  (4) 
ts

$$$$

     RDKit          3D

 18 16  0  0  0  0  0  0  0  0999 V2000
    2.1040    0.5710    1.2352 C   0  0  0  0  0  0  0  0  0  0  0  0
    1.1896   -0.0205    0.4683 C   0  0  0  0  0  0  0  0  0  0  0  0
    0.6646   -1.3372    0.7779 C   0  0  0  0  0  0  0  0  0  0  0  0
   -0.4413   -2.1287   -0.0912 S   0  0  0  0  0  0  0  0  0  0  0  0
    2.4915    0.0865    2.1246 H   0  0  0  0  0  0  0  0  0  0  0  0
    2.4924    1.5534    0.9998 H   0  0  0  0  0  0  0  0  0  0  0  0
    1.0759   -1.7957    1.6791 H   0  0  0  0  0  0  0  0  0  0  0  0
   -0.9004    1.2852   -1.9249 C   0  0  0  0  0  0  0  0  0  0  0  0
   -0.9004    1.2852   -0.4016 C   0  0  0  0  0  3  0  0  0  0  0  0
   -0.9004    2.6910    0.1852 C   0  0  0  0  0  0  0  0  0  0  0  0
   -0.0189    1.7994   -2.3155 H   0  0  0  0  0  0  0  0  0  0  0  0
   -1.7818    1.7994   -2.3155 H   0  0  0  0  0  0  0  0  0  0  0  0
   -0.9003    0.2703   -2.3260 H   0  0  0  0  0  0  0  0  0  0  0  0
    0.1491    0.6296    0.0352 H   0  0  0  0  0  0  0  0  0  0  0  0
   -1.7749    0.7388   -0.0376 H   0  0  0  0  0  0  0  0  0  0  0  0
   -1.7818    3.2496   -0.1390 H   0  0  0  0  0  0  0  0  0  0  0  0
   -0.9004    2.6703    1.2763 H   0  0  0  0  0  0  0  0  0  0  0  0
   -0.0189    3.2496   -0.1390 H   0  0  0  0  0  0  0  0  0  0  0  0
  1  2  2  3
  1  5  1  0
  1  6  1  0
  2  3  1  0
  2 14  1  0
  3  4  2  0
  3  7  1  0
  8  9  1  0
  8 11  1  0
  8 12  1  0
  8 13  1  0
  9 10  1  0
  9 15  1  0
 10 16  1  0
 10 17  1  0
 10 18  1  0
M  RAD  1   9   2
M  END
>  <reaction>  (5) 
rxn_938

>  <mol_properties>  (5) 
{"1": {"label": "*1", "atom_type": "Cd"}, "2": {"label": "*0", "atom_type": "CS"}, "7": {"label": "*4", "atom_type": "Cs"}, "8": {"label": "*3", "atom_type": "Cs"}, "13": {"label": "*2", "atom_type": "H0"}}

>  <type>  (5) 
unop_1

>  <geom_source>  (5) 
Heuristics

$$$$

     RDKit          3D

 18 16  0  0  0  0  0  0  0  0999 V2000
    2.1601   -0.5849   -0.9670 C   0  0  0  0  0  0  0  0  0  0  0  0
    1.0275   -0.5486   -0.2671 C   0  0  0  0  0  0  0  0  0  0  0  0
    0.9866   -0.8849    1.1438 C   0  0  0  0  0  0  0  0  0  0  0  0
   -0.3359   -0.8688    2.0688 S   0  0  0  0  0  0  0  0  0  0  0  0
    3.0988   -0.8690   -0.5043 H   0  0  0  0  0  0  0  0  0  0  0  0
    2.1852   -0.3331   -2.0193 H   0  0  0  0  0  0  0  0  0  0  0  0
    1.9481   -1.1660    1.5772 H   0  0  0  0  0  0  0  0  0  0  0  0
   -1.0625    0.7570   -2.6603 C   0  0  0  0  0  0  0  0  0  0  0  0
   -1.0625    0.7570   -1.1370 C   0  0  0  0  0  3  0  0  0  0  0  0
   -1.0625    2.1629   -0.5503 C   0  0  0  0  0  0  0  0  0  0  0  0
   -0.1811    1.2713   -3.0509 H   0  0  0  0  0  0  0  0  0  0  0  0
   -1.9440    1.2713   -3.0509 H   0  0  0  0  0  0  0  0  0  0  0  0
   -1.0625   -0.2578   -3.0615 H   0  0  0  0  0  0  0  0  0  0  0  0
   -0.0131    0.1014   -0.7002 H   0  0  0  0  0  0  0  0  0  0  0  0
   -1.9370    0.2107   -0.7730 H   0  0  0  0  0  0  0  0  0  0  0  0
   -1.9440    2.7214   -0.8744 H   0  0  0  0  0  0  0  0  0  0  0  0
   -1.0625    2.1422    0.5409 H   0  0  0  0  0  0  0  0  0  0  0  0
   -0.1811    2.7214   -0.8744 H   0  0  0  0  0  0  0  0  0  0  0  0
  1  2  2  3
  1  5  1  0
  1  6  1  0
  2  3  1  0
  2 14  1  0
  3  4  2  0
  3  7  1  0
  8  9  1  0
  8 11  1  0
  8 12  1  0
  8 13  1  0
  9 10  1  0
  9 15  1  0
 10 16  1  0
 10 17  1  0
 10 18  1  0
M  RAD  1   9   2
M  END
>  <reaction>  (6) 
rxn_938

>  <mol_properties>  (6) 
{"1": {"label": "*1", "atom_type": "Cd"}, "2": {"label": "*0", "atom_type": "CS"}, "7": {"label": "*4", "atom_type": "Cs"}, "8": {"label": "*3", "atom_type": "Cs"}, "13": {"label": "*2", "atom_type": "H0"}}

>  <type>  (6) 
unop_2

>  <geom_source>  (6) 
Heuristics

$$$$

     RDKit          3D

 18 16  0  0  0  0  0  0  0  0999 V2000
    1.5303    0.2624    2.0221 C   0  0  0  0  0  0  0  0  0  0  0  0
    0.9544   -0.0492    0.8622 C   0  0  0  0  0  0  0  0  0  0  0  0
    0.8398   -1.4222    0.4071 C   0  0  0  0  0  0  0  0  0  0  0  0
    0.1601   -1.8919   -0.9793 S   0  0  0  0  0  0  0  0  0  0  0  0
    1.9369   -0.5042    2.6724 H   0  0  0  0  0  0  0  0  0  0  0  0
    1.6132    1.2882    2.3569 H   0  0  0  0  0  0  0  0  0  0  0  0
    1.2591   -2.1675    1.0854 H   0  0  0  0  0  0  0  0  0  0  0  0
   -1.1356    1.2565   -1.5311 C   0  0  0  0  0  0  0  0  0  0  0  0
   -1.1356    1.2565   -0.0077 C   0  0  0  0  0  3  0  0  0  0  0  0
   -1.1356    2.6623    0.5790 C   0  0  0  0  0  0  0  0  0  0  0  0
   -0.2541    1.7707   -1.9217 H   0  0  0  0  0  0  0  0  0  0  0  0
   -2.0170    1.7707   -1.9217 H   0  0  0  0  0  0  0  0  0  0  0  0
   -1.1356    0.2416   -1.9322 H   0  0  0  0  0  0  0  0  0  0  0  0
   -0.0861    0.6009    0.4291 H   0  0  0  0  0  0  0  0  0  0  0  0
   -2.0101    0.7101    0.3563 H   0  0  0  0  0  0  0  0  0  0  0  0
   -2.0170    3.2209    0.2548 H   0  0  0  0  0  0  0  0  0  0  0  0
   -1.1356    2.6416    1.6701 H   0  0  0  0  0  0  0  0  0  0  0  0
   -0.2541    3.2209    0.2549 H   0  0  0  0  0  0  0  0  0  0  0  0
  1  2  2  3
  1  5  1  0
  1  6  1  0
  2  3  1  0
  2 14  1  0
  3  4  2  0
  3  7  1  0
  8  9  1  0
  8 11  1  0
  8 12  1  0
  8 13  1  0
  9 10  1  0
  9 15  1  0
 10 16  1  0
 10 17  1  0
 10 18  1  0
M  RAD  1   9   2
M  END
>  <reaction>  (7) 
rxn_938

>  <mol_properties>  (7) 
{"1": {"label": "*1", "atom_type": "Cd"}, "2": {"label": "*0", "atom_type": "CS"}, "7": {"label": "*4", "atom_type": "Cs"}, "8": {"label": "*3", "atom_type": "Cs"}, "13": {"label": "*2", "atom_type": "H0"}}

>  <type>  (7) 
unop_3

>  <geom_source>  (7) 
Heuristics

$$$$

     RDKit          3D

 18 16  0  0  0  0  0  0  0  0999 V2000
    0.8414   -2.4386   -0.4393 C   0  0  0  0  0  0  0  0  0  0  0  0
    0.6506   -1.1566   -0.1325 C   0  0  0  0  0  0  0  0  0  0  0  0
    1.0894   -0.5972    1.1323 C   0  0  0  0  0  0  0  0  0  0  0  0
    0.9013    0.9396    1.5882 S   0  0  0  0  0  0  0  0  0  0  0  0
    1.3350   -3.1149    0.2498 H   0  0  0  0  0  0  0  0  0  0  0  0
    0.5121   -2.8510   -1.3843 H   0  0  0  0  0  0  0  0  0  0  0  0
    1.5820   -1.3049    1.8016 H   0  0  0  0  0  0  0  0  0  0  0  0
   -1.4394    0.1491   -2.5257 C   0  0  0  0  0  0  0  0  0  0  0  0
   -1.4394    0.1491   -1.0024 C   0  0  0  0  0  3  0  0  0  0  0  0
   -1.4394    1.5549   -0.4157 C   0  0  0  0  0  0  0  0  0  0  0  0
   -0.5580    0.6633   -2.9163 H   0  0  0  0  0  0  0  0  0  0  0  0
   -2.3209    0.6633   -2.9163 H   0  0  0  0  0  0  0  0  0  0  0  0
   -1.4394   -0.8658   -2.9269 H   0  0  0  0  0  0  0  0  0  0  0  0
   -0.3900   -0.5065   -0.5656 H   0  0  0  0  0  0  0  0  0  0  0  0
   -2.3140   -0.3973   -0.6384 H   0  0  0  0  0  0  0  0  0  0  0  0
   -2.3209    2.1135   -0.7398 H   0  0  0  0  0  0  0  0  0  0  0  0
   -1.4394    1.5342    0.6755 H   0  0  0  0  0  0  0  0  0  0  0  0
   -0.5580    2.1135   -0.7398 H   0  0  0  0  0  0  0  0  0  0  0  0
  1  2  2  3
  1  5  1  0
  1  6  1  0
  2  3  1  0
  2 14  1  0
  3  4  2  0
  3  7  1  0
  8  9  1  0
  8 11  1  0
  8 12  1  0
  8 13  1  0
  9 10  1  0
  9 15  1  0
 10 16  1  0
 10 17  1  0
 10 18  1  0
M  RAD  1   9   2
M  END
>  <reaction>  (8) 
rxn_938

>  <mol_properties>  (8) 
{"1": {"label": "*1", "atom_type": "Cd"}, "2": {"label": "*0", "atom_type": "CS"}, "7": {"label": "*4", "atom_type": "Cs"}, "8": {"label": "*3", "atom_type": "Cs"}, "13": {"label": "*2", "atom_type": "H0"}}

>  <type>  (8) 
unop_4

>  <geom_source>  (8) 
Heuristics

$$$$

     RDKit          3D

 18 16  0  0  0  0  0  0  0  0999 V2000
    0.7004   -0.6213    2.4224 C   0  0  0  0  0  0  0  0  0  0  0  0
    0.4693   -0.4769    1.1186 C   0  0  0  0  0  0  0  0  0  0  0  0
    1.3587   -1.0325    0.1158 C   0  0  0  0  0  0  0  0  0  0  0  0
    1.1587   -0.9076   -1.4808 S   0  0  0  0  0  0  0  0  0  0  0  0
    1.5675   -1.1630    2.7837 H   0  0  0  0  0  0  0  0  0  0  0  0
    0.0338   -0.2048    3.1663 H   0  0  0  0  0  0  0  0  0  0  0  0
    2.2206   -1.5710    0.5139 H   0  0  0  0  0  0  0  0  0  0  0  0
   -1.6207    0.8288   -1.2746 C   0  0  0  0  0  0  0  0  0  0  0  0
   -1.6207    0.8288    0.2487 C   0  0  0  0  0  3  0  0  0  0  0  0
   -1.6207    2.2346    0.8354 C   0  0  0  0  0  0  0  0  0  0  0  0
   -0.7393    1.3431   -1.6653 H   0  0  0  0  0  0  0  0  0  0  0  0
   -2.5022    1.3431   -1.6653 H   0  0  0  0  0  0  0  0  0  0  0  0
   -1.6207   -0.1861   -1.6758 H   0  0  0  0  0  0  0  0  0  0  0  0
   -0.5713    0.1732    0.6855 H   0  0  0  0  0  0  0  0  0  0  0  0
   -2.4952    0.2824    0.6127 H   0  0  0  0  0  0  0  0  0  0  0  0
   -2.5022    2.7932    0.5113 H   0  0  0  0  0  0  0  0  0  0  0  0
   -1.6207    2.2139    1.9265 H   0  0  0  0  0  0  0  0  0  0  0  0
   -0.7393    2.7932    0.5113 H   0  0  0  0  0  0  0  0  0  0  0  0
  1  2  2  3
  1  5  1  0
  1  6  1  0
  2  3  1  0
  2 14  1  0
  3  4  2  0
  3  7  1  0
  8  9  1  0
  8 11  1  0
  8 12  1  0
  8 13  1  0
  9 10  1  0
  9 15  1  0
 10 16  1  0
 10 17  1  0
 10 18  1  0
M  RAD  1   9   2
M  END
>  <reaction>  (9) 
rxn_938

>  <mol_properties>  (9) 
{"1": {"label": "*1", "atom_type": "Cd"}, "2": {"label": "*0", "atom_type": "CS"}, "7": {"label": "*4", "atom_type": "Cs"}, "8": {"label": "*3", "atom_type": "Cs"}, "13": {"label": "*2", "atom_type": "H0"}}

>  <type>  (9) 
unop_5

>  <geom_source>  (9) 
Heuristics

$$$$

     RDKit          3D

 18 16  0  0  0  0  0  0  0  0999 V2000
    0.4559   -2.6207    0.3487 C   0  0  0  0  0  0  0  0  0  0  0  0
    0.5066   -1.3097    0.1187 C   0  0  0  0  0  0  0  0  0  0  0  0
    1.1813   -0.3978    1.0234 C   0  0  0  0  0  0  0  0  0  0  0  0
    1.2929    1.2001    0.8259 S   0  0  0  0  0  0  0  0  0  0  0  0
    0.9202   -3.0565    1.2264 H   0  0  0  0  0  0  0  0  0  0  0  0
   -0.0488   -3.2966   -0.3294 H   0  0  0  0  0  0  0  0  0  0  0  0
    1.6373   -0.8696    1.8957 H   0  0  0  0  0  0  0  0  0  0  0  0
   -1.5834   -0.0040   -2.2745 C   0  0  0  0  0  0  0  0  0  0  0  0
   -1.5834   -0.0040   -0.7512 C   0  0  0  0  0  3  0  0  0  0  0  0
   -1.5834    1.4018   -0.1645 C   0  0  0  0  0  0  0  0  0  0  0  0
   -0.7019    0.5102   -2.6652 H   0  0  0  0  0  0  0  0  0  0  0  0
   -2.4648    0.5102   -2.6652 H   0  0  0  0  0  0  0  0  0  0  0  0
   -1.5834   -1.0189   -2.6757 H   0  0  0  0  0  0  0  0  0  0  0  0
   -0.5339   -0.6597   -0.3144 H   0  0  0  0  0  0  0  0  0  0  0  0
   -2.4579   -0.5504   -0.3872 H   0  0  0  0  0  0  0  0  0  0  0  0
   -2.4648    1.9603   -0.4886 H   0  0  0  0  0  0  0  0  0  0  0  0
   -1.5834    1.3811    0.9266 H   0  0  0  0  0  0  0  0  0  0  0  0
   -0.7019    1.9603   -0.4886 H   0  0  0  0  0  0  0  0  0  0  0  0
  1  2  2  3
  1  5  1  0
  1  6  1  0
  2  3  1  0
  2 14  1  0
  3  4  2  0
  3  7  1  0
  8  9  1  0
  8 11  1  0
  8 12  1  0
  8 13  1  0
  9 10  1  0
  9 15  1  0
 10 16  1  0
 10 17  1  0
 10 18  1  0
M  RAD  1   9   2
M  END
>  <reaction>  (10) 
rxn_938

>  <mol_properties>  (10) 
{"1": {"label": "*1", "atom_type": "Cd"}, "2": {"label": "*0", "atom_type": "CS"}, "7": {"label": "*4", "atom_type": "Cs"}, "8": {"label": "*3", "atom_type": "Cs"}, "13": {"label": "*2", "atom_type": "H0"}}

>  <type>  (10) 
unop_6

>  <geom_source>  (10) 
Heuristics

$$$$

     RDKit          3D

 18 16  0  0  0  0  0  0  0  0999 V2000
    0.2444   -2.4056    1.2352 C   0  0  0  0  0  0  0  0  0  0  0  0
    0.3750   -1.3244    0.4683 C   0  0  0  0  0  0  0  0  0  0  0  0
    1.3281   -0.2751    0.7779 C   0  0  0  0  0  0  0  0  0  0  0  0
    1.5544    1.0659   -0.0912 S   0  0  0  0  0  0  0  0  0  0  0  0
    0.8498   -2.5413    2.1246 H   0  0  0  0  0  0  0  0  0  0  0  0
   -0.4681   -3.1855    0.9998 H   0  0  0  0  0  0  0  0  0  0  0  0
    1.9205   -0.4437    1.6791 H   0  0  0  0  0  0  0  0  0  0  0  0
   -1.7149   -0.0187   -1.9249 C   0  0  0  0  0  0  0  0  0  0  0  0
   -1.7149   -0.0187   -0.4016 C   0  0  0  0  0  3  0  0  0  0  0  0
   -1.7149    1.3871    0.1852 C   0  0  0  0  0  0  0  0  0  0  0  0
   -0.8335    0.4955   -2.3155 H   0  0  0  0  0  0  0  0  0  0  0  0
   -2.5964    0.4955   -2.3155 H   0  0  0  0  0  0  0  0  0  0  0  0
   -1.7149   -1.0336   -2.3261 H   0  0  0  0  0  0  0  0  0  0  0  0
   -0.6655   -0.6744    0.0352 H   0  0  0  0  0  0  0  0  0  0  0  0
   -2.5895   -0.5651   -0.0376 H   0  0  0  0  0  0  0  0  0  0  0  0
   -2.5964    1.9456   -0.1390 H   0  0  0  0  0  0  0  0  0  0  0  0
   -1.7149    1.3664    1.2763 H   0  0  0  0  0  0  0  0  0  0  0  0
   -0.8335    1.9456   -0.1390 H   0  0  0  0  0  0  0  0  0  0  0  0
  1  2  2  3
  1  5  1  0
  1  6  1  0
  2  3  1  0
  2 14  1  0
  3  4  2  0
  3  7  1  0
  8  9  1  0
  8 11  1  0
  8 12  1  0
  8 13  1  0
  9 10  1  0
  9 15  1  0
 10 16  1  0
 10 17  1  0
 10 18  1  0
M  RAD  1   9   2
M  END
>  <reaction>  (11) 
rxn_938

>  <mol_properties>  (11) 
{"1": {"label": "*1", "atom_type": "Cd"}, "2": {"label": "*0", "atom_type": "CS"}, "7": {"label": "*4", "atom_type": "Cs"}, "8": {"label": "*3", "atom_type": "Cs"}, "13": {"label": "*2", "atom_type": "H0"}}

>  <type>  (11) 
unop_7

>  <geom_source>  (11) 
Heuristics

$$$$

     RDKit          3D

 18 16  0  0  0  0  0  0  0  0999 V2000
    2.3900    0.4753    0.3487 C   0  0  0  0  0  0  0  0  0  0  0  0
    1.2341   -0.1452    0.1187 C   0  0  0  0  0  0  0  0  0  0  0  0
    0.7105   -1.1515    1.0234 C   0  0  0  0  0  0  0  0  0  0  0  0
   -0.6766   -1.9525    0.8259 S   0  0  0  0  0  0  0  0  0  0  0  0
    2.9854    0.2491    1.2264 H   0  0  0  0  0  0  0  0  0  0  0  0
    2.7762    1.2253   -0.3294 H   0  0  0  0  0  0  0  0  0  0  0  0
    1.3344   -1.3544    1.8957 H   0  0  0  0  0  0  0  0  0  0  0  0
   -0.8559    1.1605   -2.2745 C   0  0  0  0  0  0  0  0  0  0  0  0
   -0.8559    1.1605   -0.7512 C   0  0  0  0  0  3  0  0  0  0  0  0
   -0.8559    2.5663   -0.1645 C   0  0  0  0  0  0  0  0  0  0  0  0
    0.0256    1.6748   -2.6652 H   0  0  0  0  0  0  0  0  0  0  0  0
   -1.7373    1.6748   -2.6652 H   0  0  0  0  0  0  0  0  0  0  0  0
   -0.8559    0.1456   -2.6757 H   0  0  0  0  0  0  0  0  0  0  0  0
    0.1936    0.5049   -0.3144 H   0  0  0  0  0  0  0  0  0  0  0  0
   -1.7304    0.6141   -0.3872 H   0  0  0  0  0  0  0  0  0  0  0  0
   -1.7373    3.1249   -0.4886 H   0  0  0  0  0  0  0  0  0  0  0  0
   -0.8559    2.5456    0.9266 H   0  0  0  0  0  0  0  0  0  0  0  0
    0.0256    3.1249   -0.4886 H   0  0  0  0  0  0  0  0  0  0  0  0
  1  2  2  3
  1  5  1  0
  1  6  1  0
  2  3  1  0
  2 14  1  0
  3  4  2  0
  3  7  1  0
  8  9  1  0
  8 11  1  0
  8 12  1  0
  8 13  1  0
  9 10  1  0
  9 15  1  0
 10 16  1  0
 10 17  1  0
 10 18  1  0
M  RAD  1   9   2
M  END
>  <reaction>  (12) 
rxn_938

>  <mol_properties>  (12) 
{"1": {"label": "*1", "atom_type": "Cd"}, "2": {"label": "*0", "atom_type": "CS"}, "7": {"label": "*4", "atom_type": "Cs"}, "8": {"label": "*3", "atom_type": "Cs"}, "13": {"label": "*2", "atom_type": "H0"}}

>  <type>  (12) 
unop_8

>  <geom_source>  (12) 
Heuristics

$$$$

     RDKit          3D

 18 16  0  0  0  0  0  0  0  0999 V2000
    1.3079   -1.9491   -0.9670 C   0  0  0  0  0  0  0  0  0  0  0  0
    0.7785   -0.9471   -0.2671 C   0  0  0  0  0  0  0  0  0  0  0  0
    1.0628   -0.7629    1.1438 C   0  0  0  0  0  0  0  0  0  0  0  0
    0.4684    0.4186    2.0688 S   0  0  0  0  0  0  0  0  0  0  0  0
    1.9749   -2.6681   -0.5043 H   0  0  0  0  0  0  0  0  0  0  0  0
    1.0926   -2.0820   -2.0193 H   0  0  0  0  0  0  0  0  0  0  0  0
    1.7372   -1.5037    1.5772 H   0  0  0  0  0  0  0  0  0  0  0  0
   -1.3114    0.3586   -2.6603 C   0  0  0  0  0  0  0  0  0  0  0  0
   -1.3114    0.3586   -1.1370 C   0  0  0  0  0  3  0  0  0  0  0  0
   -1.3114    1.7644   -0.5503 C   0  0  0  0  0  0  0  0  0  0  0  0
   -0.4300    0.8729   -3.0509 H   0  0  0  0  0  0  0  0  0  0  0  0
   -2.1929    0.8729   -3.0509 H   0  0  0  0  0  0  0  0  0  0  0  0
   -1.3114   -0.6563   -3.0615 H   0  0  0  0  0  0  0  0  0  0  0  0
   -0.2620   -0.2970   -0.7002 H   0  0  0  0  0  0  0  0  0  0  0  0
   -2.1860   -0.1877   -0.7730 H   0  0  0  0  0  0  0  0  0  0  0  0
   -2.1929    2.3230   -0.8744 H   0  0  0  0  0  0  0  0  0  0  0  0
   -1.3114    1.7437    0.5409 H   0  0  0  0  0  0  0  0  0  0  0  0
   -0.4300    2.3230   -0.8744 H   0  0  0  0  0  0  0  0  0  0  0  0
  1  2  2  3
  1  5  1  0
  1  6  1  0
  2  3  1  0
  2 14  1  0
  3  4  2  0
  3  7  1  0
  8  9  1  0
  8 11  1  0
  8 12  1  0
  8 13  1  0
  9 10  1  0
  9 15  1  0
 10 16  1  0
 10 17  1  0
 10 18  1  0
M  RAD  1   9   2
M  END
>  <reaction>  (13) 
rxn_938

>  <mol_properties>  (13) 
{"1": {"label": "*1", "atom_type": "Cd"}, "2": {"label": "*0", "atom_type": "CS"}, "7": {"label": "*4", "atom_type": "Cs"}, "8": {"label": "*3", "atom_type": "Cs"}, "13": {"label": "*2", "atom_type": "H0"}}

>  <type>  (13) 
unop_9

>  <geom_source>  (13) 
Heuristics

$$$$

     RDKit          3D

 18 16  0  0  0  0  0  0  0  0999 V2000
    2.3955    0.0490   -0.4393 C   0  0  0  0  0  0  0  0  0  0  0  0
    1.1596   -0.3417   -0.1325 C   0  0  0  0  0  0  0  0  0  0  0  0
    0.8493   -0.9815    1.1323 C   0  0  0  0  0  0  0  0  0  0  0  0
   -0.6142   -1.4863    1.5882 S   0  0  0  0  0  0  0  0  0  0  0  0
    3.2197   -0.0980    0.2498 H   0  0  0  0  0  0  0  0  0  0  0  0
    2.6216    0.5258   -1.3842 H   0  0  0  0  0  0  0  0  0  0  0  0
    1.7014   -1.1138    1.8016 H   0  0  0  0  0  0  0  0  0  0  0  0
   -0.9303    0.9640   -2.5257 C   0  0  0  0  0  0  0  0  0  0  0  0
   -0.9303    0.9640   -1.0024 C   0  0  0  0  0  3  0  0  0  0  0  0
   -0.9303    2.3698   -0.4157 C   0  0  0  0  0  0  0  0  0  0  0  0
   -0.0489    1.4782   -2.9163 H   0  0  0  0  0  0  0  0  0  0  0  0
   -1.8118    1.4782   -2.9163 H   0  0  0  0  0  0  0  0  0  0  0  0
   -0.9303   -0.0509   -2.9269 H   0  0  0  0  0  0  0  0  0  0  0  0
    0.1191    0.3083   -0.5656 H   0  0  0  0  0  0  0  0  0  0  0  0
   -1.8049    0.4176   -0.6384 H   0  0  0  0  0  0  0  0  0  0  0  0
   -1.8118    2.9284   -0.7398 H   0  0  0  0  0  0  0  0  0  0  0  0
   -0.9303    2.3491    0.6755 H   0  0  0  0  0  0  0  0  0  0  0  0
   -0.0489    2.9283   -0.7398 H   0  0  0  0  0  0  0  0  0  0  0  0
  1  2  2  3
  1  5  1  0
  1  6  1  0
  2  3  1  0
  2 14  1  0
  3  4  2  0
  3  7  1  0
  8  9  1  0
  8 11  1  0
  8 12  1  0
  8 13  1  0
  9 10  1  0
  9 15  1  0
 10 16  1  0
 10 17  1  0
 10 18  1  0
M  RAD  1   9   2
M  END
>  <reaction>  (14) 
rxn_938

>  <mol_properties>  (14) 
{"1": {"label": "*1", "atom_type": "Cd"}, "2": {"label": "*0", "atom_type": "CS"}, "7": {"label": "*4", "atom_type": "Cs"}, "8": {"label": "*3", "atom_type": "Cs"}, "13": {"label": "*2", "atom_type": "H0"}}

>  <type>  (14) 
unop_10

>  <geom_source>  (14) 
Heuristics

$$$$

     RDKit          3D

 18 16  0  0  0  0  0  0  0  0999 V2000
    0.2702   -1.7546    2.0221 C   0  0  0  0  0  0  0  0  0  0  0  0
    0.2977   -1.1004    0.8622 C   0  0  0  0  0  0  0  0  0  0  0  0
    1.4813   -0.3953    0.4071 C   0  0  0  0  0  0  0  0  0  0  0  0
    1.6054    0.4215   -0.9793 S   0  0  0  0  0  0  0  0  0  0  0  0
    1.1374   -1.7839    2.6724 H   0  0  0  0  0  0  0  0  0  0  0  0
   -0.6153   -2.2791    2.3569 H   0  0  0  0  0  0  0  0  0  0  0  0
    2.3350   -0.4452    1.0854 H   0  0  0  0  0  0  0  0  0  0  0  0
   -1.7923    0.2052   -1.5311 C   0  0  0  0  0  0  0  0  0  0  0  0
   -1.7923    0.2052   -0.0077 C   0  0  0  0  0  3  0  0  0  0  0  0
   -1.7923    1.6111    0.5790 C   0  0  0  0  0  0  0  0  0  0  0  0
   -0.9109    0.7195   -1.9217 H   0  0  0  0  0  0  0  0  0  0  0  0
   -2.6738    0.7195   -1.9217 H   0  0  0  0  0  0  0  0  0  0  0  0
   -1.7923   -0.8097   -1.9322 H   0  0  0  0  0  0  0  0  0  0  0  0
   -0.7429   -0.4504    0.4291 H   0  0  0  0  0  0  0  0  0  0  0  0
   -2.6668   -0.3411    0.3563 H   0  0  0  0  0  0  0  0  0  0  0  0
   -2.6738    2.1696    0.2548 H   0  0  0  0  0  0  0  0  0  0  0  0
   -1.7923    1.5904    1.6701 H   0  0  0  0  0  0  0  0  0  0  0  0
   -0.9109    2.1696    0.2549 H   0  0  0  0  0  0  0  0  0  0  0  0
  1  2  2  3
  1  5  1  0
  1  6  1  0
  2  3  1  0
  2 14  1  0
  3  4  2  0
  3  7  1  0
  8  9  1  0
  8 11  1  0
  8 12  1  0
  8 13  1  0
  9 10  1  0
  9 15  1  0
 10 16  1  0
 10 17  1  0
 10 18  1  0
M  RAD  1   9   2
M  END
>  <reaction>  (15) 
rxn_938

>  <mol_properties>  (15) 
{"1": {"label": "*1", "atom_type": "Cd"}, "2": {"label": "*0", "atom_type": "CS"}, "7": {"label": "*4", "atom_type": "Cs"}, "8": {"label": "*3", "atom_type": "Cs"}, "13": {"label": "*2", "atom_type": "H0"}}

>  <type>  (15) 
unop_11

>  <geom_source>  (15) 
Heuristics

$$$$

     RDKit          3D

 18 16  0  0  0  0  0  0  0  0999 V2000
    1.7697   -1.2893   -1.1494 C   0  0  0  0  0  0  0  0  0  0  0  0
    0.8957   -0.7433   -0.3057 C   0  0  0  0  0  0  0  0  0  0  0  0
    1.0541   -0.8422    1.1332 C   0  0  0  0  0  0  0  0  0  0  0  0
    0.0483   -0.2139    2.2280 S   0  0  0  0  0  0  0  0  0  0  0  0
    2.6370   -1.8312   -0.7888 H   0  0  0  0  0  0  0  0  0  0  0  0
    1.6469   -1.2126   -2.2220 H   0  0  0  0  0  0  0  0  0  0  0  0
    1.9369   -1.3938    1.4614 H   0  0  0  0  0  0  0  0  0  0  0  0
   -1.1943    0.5624   -2.6989 C   0  0  0  0  0  0  0  0  0  0  0  0
   -1.1943    0.5624   -1.1756 C   0  0  0  0  0  3  0  0  0  0  0  0
   -1.1943    1.9682   -0.5889 C   0  0  0  0  0  0  0  0  0  0  0  0
   -0.3129    1.0767   -3.0895 H   0  0  0  0  0  0  0  0  0  0  0  0
   -2.0758    1.0767   -3.0895 H   0  0  0  0  0  0  0  0  0  0  0  0
   -1.1943   -0.4525   -3.1001 H   0  0  0  0  0  0  0  0  0  0  0  0
   -0.1449   -0.0932   -0.7388 H   0  0  0  0  0  0  0  0  0  0  0  0
   -2.0688    0.0161   -0.8116 H   0  0  0  0  0  0  0  0  0  0  0  0
   -2.0758    2.5268   -0.9130 H   0  0  0  0  0  0  0  0  0  0  0  0
   -1.1943    1.9475    0.5022 H   0  0  0  0  0  0  0  0  0  0  0  0
   -0.3129    2.5268   -0.9130 H   0  0  0  0  0  0  0  0  0  0  0  0
  1  2  2  3
  1  5  1  0
  1  6  1  0
  2  3  1  0
  2 14  1  0
  3  4  2  0
  3  7  1  0
  8  9  1  0
  8 11  1  0
  8 12  1  0
  8 13  1  0
  9 10  1  0
  9 15  1  0
 10 16  1  0
 10 17  1  0
 10 18  1  0
M  RAD  1   9   2
M  END
>  <reaction>  (16) 
rxn_938

>  <mol_properties>  (16) 
{"1": {"label": "*1", "atom_type": "Cd"}, "2": {"label": "*0", "atom_type": "CS"}, "7": {"label": "*4", "atom_type": "Cs"}, "8": {"label": "*3", "atom_type": "Cs"}, "13": {"label": "*2", "atom_type": "H0"}}

>  <type>  (16) 
unop_12

>  <geom_source>  (16) 
Heuristics

$$$$

     RDKit          3D

 18 16  0  0  0  0  0  0  0  0999 V2000
    3.6242    1.5701    0.7183 S   0  0  0  0  0  0  0  0  0  0  0  0
   -1.6905    1.2189    0.0638 C   0  0  0  0  0  0  0  0  0  0  0  0
   -1.9342   -1.2850   -0.1018 C   0  0  0  0  0  0  0  0  0  0  0  0
   -0.9753   -0.1037   -0.1830 C   0  0  0  0  0  3  0  0  0  0  0  0
    1.6061   -0.0381   -0.2095 C   0  0  0  0  0  0  0  0  0  0  0  0
    2.3797   -1.1203   -0.2866 C   0  0  0  0  0  0  0  0  0  0  0  0
    2.0801    1.2813    0.2483 C   0  0  0  0  0  0  0  0  0  0  0  0
   -2.1366    1.2335    1.0810 H   0  0  0  0  0  0  0  0  0  0  0  0
   -0.9614    2.0514   -0.0206 H   0  0  0  0  0  0  0  0  0  0  0  0
   -2.4890    1.3689   -0.6932 H   0  0  0  0  0  0  0  0  0  0  0  0
   -1.3775   -2.2237   -0.3034 H   0  0  0  0  0  0  0  0  0  0  0  0
   -2.7370   -1.1788   -0.8617 H   0  0  0  0  0  0  0  0  0  0  0  0
   -2.3877   -1.3463    0.9104 H   0  0  0  0  0  0  0  0  0  0  0  0
   -0.1543   -0.2324    0.5548 H   0  0  0  0  0  0  0  0  0  0  0  0
    0.3962   -0.1421   -0.5467 H   0  0  0  0  0  0  0  0  0  0  0  0
    3.4260   -1.0994   -0.0126 H   0  0  0  0  0  0  0  0  0  0  0  0
    1.9574   -2.0540   -0.6329 H   0  0  0  0  0  0  0  0  0  0  0  0
    1.3734    2.0996    0.2753 H   0  0  0  0  0  0  0  0  0  0  0  0
  1  7  2  0
  2  4  1  0
  2  8  1  0
  2  9  1  0
  2 10  1  0
  3  4  1  0
  3 11  1  0
  3 12  1  0
  3 13  1  0
  4 14  1  0
  5  6  2  3
  5  7  1  0
  5 15  1  0
  6 16  1  0
  6 17  1  0
  7 18  1  0
M  RAD  1   4   2
M  END
>  <reaction>  (17) 
rxn_938

>  <mol_properties>  (17) 
{"1": {"label": "*1", "atom_type": "Cd"}, "2": {"label": "*0", "atom_type": "CS"}, "7": {"label": "*4", "atom_type": "Cs"}, "8": {"label": "*3", "atom_type": "Cs"}, "13": {"label": "*2", "atom_type": "H0"}}

>  <type>  (17) 
unop_13

>  <geom_source>  (17) 
AutoTST

$$$$

     RDKit          3D

 18 16  0  0  0  0  0  0  0  0999 V2000
    2.1601   -0.5849   -0.9670 C   0  0  0  0  0  0  0  0  0  0  0  0
    1.0275   -0.5486   -0.2671 C   0  0  0  0  0  0  0  0  0  0  0  0
    0.9866   -0.8849    1.1438 C   0  0  0  0  0  0  0  0  0  0  0  0
   -0.3359   -0.8688    2.0688 S   0  0  0  0  0  0  0  0  0  0  0  0
    3.0988   -0.8690   -0.5043 H   0  0  0  0  0  0  0  0  0  0  0  0
    2.1852   -0.3331   -2.0193 H   0  0  0  0  0  0  0  0  0  0  0  0
    1.9481   -1.1660    1.5772 H   0  0  0  0  0  0  0  0  0  0  0  0
   -1.0625    0.7571   -2.6603 C   0  0  0  0  0  0  0  0  0  0  0  0
   -1.0625    0.7571   -1.1370 C   0  0  0  0  0  3  0  0  0  0  0  0
   -1.0625    2.1629   -0.5503 C   0  0  0  0  0  0  0  0  0  0  0  0
   -0.1811    1.2713   -3.0509 H   0  0  0  0  0  0  0  0  0  0  0  0
   -1.9440    1.2713   -3.0509 H   0  0  0  0  0  0  0  0  0  0  0  0
   -1.0625   -0.2579   -3.0615 H   0  0  0  0  0  0  0  0  0  0  0  0
   -0.0131    0.1014   -0.7002 H   0  0  0  0  0  0  0  0  0  0  0  0
   -1.9370    0.2107   -0.7730 H   0  0  0  0  0  0  0  0  0  0  0  0
   -1.9440    2.7214   -0.8744 H   0  0  0  0  0  0  0  0  0  0  0  0
   -1.0625    2.1422    0.5409 H   0  0  0  0  0  0  0  0  0  0  0  0
   -0.1810    2.7214   -0.8744 H   0  0  0  0  0  0  0  0  0  0  0  0
  1  2  2  3
  1  5  1  0
  1  6  1  0
  2  3  1  0
  2 14  1  0
  3  4  2  0
  3  7  1  0
  8  9  1  0
  8 11  1  0
  8 12  1  0
  8 13  1  0
  9 10  1  0
  9 15  1  0
 10 16  1  0
 10 17  1  0
 10 18  1  0
M  RAD  1   9   2
M  END
>  <reaction>  (18) 
rxn_938

>  <mol_properties>  (18) 
{"1": {"label": "*1", "atom_type": "Cd"}, "2": {"label": "*0", "atom_type": "CS"}, "7": {"label": "*4", "atom_type": "Cs"}, "8": {"label": "*3", "atom_type": "Cs"}, "13": {"label": "*2", "atom_type": "H0"}}

>  <type>  (18) 
unop_14

>  <geom_source>  (18) 
gaussian_log

$$$$
