
     RDKit          3D

  5  4  0  0  0  0  0  0  0  0999 V2000
    0.0000    0.0000    0.0000 C   0  0  0  0  0  0  0  0  0  0  0  0
   -0.6486   -0.7720   -0.4113 H   0  0  0  0  0  0  0  0  0  0  0  0
   -0.3482    0.9787   -0.3267 H   0  0  0  0  0  0  0  0  0  0  0  0
   -0.0223   -0.0487    1.0876 H   0  0  0  0  0  0  0  0  0  0  0  0
    1.0191   -0.1580   -0.3496 H   0  0  0  0  0  0  0  0  0  0  0  0
  1  2  1  0
  1  3  1  0
  1  4  1  0
  1  5  1  0
M  END
>  <reaction>  (1) 
rxn_688

>  <mol_properties>  (1) 
{"0": {"label": "donator", "atom_type": "Cs"}, "1": {"label": "d_hydrogen", "atom_type": "H0"}}

>  <type>  (1) 
r1h

$$$$

     RDKit          3D

  3  2  0  0  0  0  0  0  0  0999 V2000
   -1.2036   -0.0000    0.0000 N   0  0  0  0  0  0  0  0  0  0  0  0
    0.0175    0.0000    0.0000 C   0  0  0  0  0  0  0  0  0  0  0  0
    1.1862    0.0000    0.0000 O   0  0  0  0  0  1  0  0  0  0  0  0
  1  2  3  0
  2  3  1  0
M  RAD  1   3   2
M  END
>  <reaction>  (2) 
rxn_688

>  <mol_properties>  (2) 
{"0": {"label": "acceptor", "atom_type": "N3d"}}

>  <type>  (2) 
r2

$$$$

     RDKit          3D

  4  3  0  0  0  0  0  0  0  0999 V2000
   -0.6811    0.2130   -0.1145 N   0  0  0  0  0  0  0  0  0  0  0  0
    0.4886    0.0558    0.1399 C   0  0  0  0  0  0  0  0  0  0  0  0
    1.6370   -0.0014    0.2890 O   0  0  0  0  0  0  0  0  0  0  0  0
   -1.4444   -0.2674    0.3244 H   0  0  0  0  0  0  0  0  0  0  0  0
  1  2  2  0
  1  4  1  0
  2  3  2  0
M  END
>  <reaction>  (3) 
rxn_688

>  <mol_properties>  (3) 
{"0": {"label": "a_hydrogen", "atom_type": "H0"}, "1": {"label": "acceptor", "atom_type": "N3d"}}

>  <type>  (3) 
r2h

$$$$

     RDKit          3D

  8  6  0  0  0  0  0  0  0  0999 V2000
    0.3535   -2.3680   -0.2568 C   0  0  0  0  0  0  0  0  0  0  0  0
    0.7002   -1.1926   -0.0097 H   0  0  0  0  0  0  0  0  0  0  0  0
    0.6465   -2.9120    0.6364 H   0  0  0  0  0  0  0  0  0  0  0  0
   -0.7190   -2.3468   -0.4250 H   0  0  0  0  0  0  0  0  0  0  0  0
    0.9310   -2.6223   -1.1407 H   0  0  0  0  0  0  0  0  0  0  0  0
    0.8982    0.1023    0.2332 N   0  0  0  0  0  0  0  0  0  0  0  0
   -0.1727    0.6843    0.1567 C   0  0  0  0  0  0  0  0  0  0  0  0
   -1.1616    1.2971    0.0983 O   0  0  0  0  0  1  0  0  0  0  0  0
  1  2  1  0
  1  3  1  0
  1  4  1  0
  1  5  1  0
  6  7  3  0
  7  8  1  0
M  RAD  1   8   2
M  END
>  <reaction>  (4) 
rxn_688

>  <mol_properties>  (4) 
{"0": {"label": "*1", "atom_type": "Cs"}, "1": {"label": "*2", "atom_type": "H0"}, "2": {"label": "*0", "atom_type": "H0"}, "5": {"label": "*3", "atom_type": "N3t"}, "6": {"label": "*4", "atom_type": "Ct"}}

>  <type>  (4) 
ts

$$$$

     RDKit          3D

  8  6  0  0  0  0  0  0  0  0999 V2000
    0.6069   -2.1006   -1.1502 C   0  0  0  0  0  3  0  0  0  0  0  0
    0.6069   -0.8686   -0.7147 H   0  0  0  0  0  0  0  0  0  0  0  0
    1.4960   -2.6139   -0.7873 H   0  0  0  0  0  0  0  0  0  0  0  0
   -0.2822   -2.6139   -0.7873 H   0  0  0  0  0  0  0  0  0  0  0  0
    0.6069   -2.1006   -2.2392 H   0  0  0  0  0  0  0  0  0  0  0  0
    0.6069    0.2662   -0.3135 N   0  0  0  0  0  0  0  0  0  0  0  0
   -0.2428    0.7660    0.3836 C   0  0  0  0  0  0  0  0  0  0  0  0
   -0.9574    1.2847    1.1349 O   0  0  0  0  0  0  0  0  0  0  0  0
  1  3  1  0
  1  4  1  0
  1  5  1  0
  2  6  1  0
  6  7  2  0
  7  8  2  0
M  RAD  1   1   2
M  END
>  <reaction>  (5) 
rxn_688

>  <mol_properties>  (5) 
{"0": {"label": "*1", "atom_type": "Cs"}, "1": {"label": "*2", "atom_type": "H0"}, "2": {"label": "*0", "atom_type": "H0"}, "5": {"label": "*3", "atom_type": "N3t"}, "6": {"label": "*4", "atom_type": "Ct"}}

>  <type>  (5) 
unop_1

>  <geom_source>  (5) 
Heuristics

$$$$

     RDKit          3D

  8  6  0  0  0  0  0  0  0  0999 V2000
    0.3657   -2.4412   -0.2167 C   0  0  0  0  0  3  0  0  0  0  0  0
    0.3657   -1.2092    0.2189 H   0  0  0  0  0  0  0  0  0  0  0  0
    1.2548   -2.9545    0.1463 H   0  0  0  0  0  0  0  0  0  0  0  0
   -0.5234   -2.9545    0.1463 H   0  0  0  0  0  0  0  0  0  0  0  0
    0.3657   -2.4412   -1.3056 H   0  0  0  0  0  0  0  0  0  0  0  0
    0.3657   -0.0744    0.6201 N   0  0  0  0  0  0  0  0  0  0  0  0
   -0.1249    0.8721    0.0535 C   0  0  0  0  0  0  0  0  0  0  0  0
   -0.5929    1.8446   -0.3704 O   0  0  0  0  0  0  0  0  0  0  0  0
  1  3  1  0
  1  4  1  0
  1  5  1  0
  2  6  1  0
  6  7  2  0
  7  8  2  0
M  RAD  1   1   2
M  END
>  <reaction>  (6) 
rxn_688

>  <mol_properties>  (6) 
{"0": {"label": "*1", "atom_type": "Cs"}, "1": {"label": "*2", "atom_type": "H0"}, "2": {"label": "*0", "atom_type": "H0"}, "5": {"label": "*3", "atom_type": "N3t"}, "6": {"label": "*4", "atom_type": "Ct"}}

>  <type>  (6) 
unop_2

>  <geom_source>  (6) 
Heuristics

$$$$

     RDKit          3D

  8  6  0  0  0  0  0  0  0  0999 V2000
    0.3346   -2.0193   -1.3863 C   0  0  0  0  0  3  0  0  0  0  0  0
    0.3346   -0.7873   -0.9507 H   0  0  0  0  0  0  0  0  0  0  0  0
    1.2237   -2.5326   -1.0233 H   0  0  0  0  0  0  0  0  0  0  0  0
   -0.5545   -2.5326   -1.0233 H   0  0  0  0  0  0  0  0  0  0  0  0
    0.3346   -2.0193   -2.4752 H   0  0  0  0  0  0  0  0  0  0  0  0
    0.3346    0.3475   -0.5495 N   0  0  0  0  0  0  0  0  0  0  0  0
   -0.1560    0.7276    0.4861 C   0  0  0  0  0  0  0  0  0  0  0  0
   -0.5113    1.1609    1.5012 O   0  0  0  0  0  0  0  0  0  0  0  0
  1  3  1  0
  1  4  1  0
  1  5  1  0
  2  6  1  0
  6  7  2  0
  7  8  2  0
M  RAD  1   1   2
M  END
>  <reaction>  (7) 
rxn_688

>  <mol_properties>  (7) 
{"0": {"label": "*1", "atom_type": "Cs"}, "1": {"label": "*2", "atom_type": "H0"}, "2": {"label": "*0", "atom_type": "H0"}, "5": {"label": "*3", "atom_type": "N3t"}, "6": {"label": "*4", "atom_type": "Ct"}}

>  <type>  (7) 
unop_3

>  <geom_source>  (7) 
Heuristics

$$$$

     RDKit          3D

  8  6  0  0  0  0  0  0  0  0999 V2000
   -0.6282   -2.3473   -0.4710 C   0  0  0  0  0  3  0  0  0  0  0  0
   -0.6282   -1.1153   -0.0354 H   0  0  0  0  0  0  0  0  0  0  0  0
    0.2609   -2.8607   -0.1080 H   0  0  0  0  0  0  0  0  0  0  0  0
   -1.5174   -2.8607   -0.1080 H   0  0  0  0  0  0  0  0  0  0  0  0
   -0.6282   -2.3473   -1.5599 H   0  0  0  0  0  0  0  0  0  0  0  0
   -0.6282    0.0194    0.3658 N   0  0  0  0  0  0  0  0  0  0  0  0
    0.2215    0.8463    0.1377 C   0  0  0  0  0  0  0  0  0  0  0  0
    1.0135    1.6878    0.0440 O   0  0  0  0  0  0  0  0  0  0  0  0
  1  3  1  0
  1  4  1  0
  1  5  1  0
  2  6  1  0
  6  7  2  0
  7  8  2  0
M  RAD  1   1   2
M  END
>  <reaction>  (8) 
rxn_688

>  <mol_properties>  (8) 
{"0": {"label": "*1", "atom_type": "Cs"}, "1": {"label": "*2", "atom_type": "H0"}, "2": {"label": "*0", "atom_type": "H0"}, "5": {"label": "*3", "atom_type": "N3t"}, "6": {"label": "*4", "atom_type": "Ct"}}

>  <type>  (8) 
unop_4

>  <geom_source>  (8) 
Heuristics

$$$$

     RDKit          3D

  8  6  0  0  0  0  0  0  0  0999 V2000
   -0.0000   -2.0030   -1.4607 C   0  0  0  0  0  3  0  0  0  0  0  0
   -0.0000   -0.7711   -1.0251 H   0  0  0  0  0  0  0  0  0  0  0  0
    0.8891   -2.5164   -1.0977 H   0  0  0  0  0  0  0  0  0  0  0  0
   -0.8891   -2.5164   -1.0977 H   0  0  0  0  0  0  0  0  0  0  0  0
   -0.0000   -2.0030   -2.5496 H   0  0  0  0  0  0  0  0  0  0  0  0
   -0.0000    0.3637   -0.6239 N   0  0  0  0  0  0  0  0  0  0  0  0
   -0.0000    0.7000    0.5357 C   0  0  0  0  0  0  0  0  0  0  0  0
    0.0000    1.1511    1.6038 O   0  0  0  0  0  0  0  0  0  0  0  0
  1  3  1  0
  1  4  1  0
  1  5  1  0
  2  6  1  0
  6  7  2  0
  7  8  2  0
M  RAD  1   1   2
M  END
>  <reaction>  (9) 
rxn_688

>  <mol_properties>  (9) 
{"0": {"label": "*1", "atom_type": "Cs"}, "1": {"label": "*2", "atom_type": "H0"}, "2": {"label": "*0", "atom_type": "H0"}, "5": {"label": "*3", "atom_type": "N3t"}, "6": {"label": "*4", "atom_type": "Ct"}}

>  <type>  (9) 
unop_5

>  <geom_source>  (9) 
Heuristics

$$$$

     RDKit          3D

  8  6  0  0  0  0  0  0  0  0999 V2000
   -0.7160   -2.2220   -0.8140 C   0  0  0  0  0  3  0  0  0  0  0  0
   -0.7160   -0.9900   -0.3784 H   0  0  0  0  0  0  0  0  0  0  0  0
    0.1731   -2.7353   -0.4510 H   0  0  0  0  0  0  0  0  0  0  0  0
   -1.6051   -2.7353   -0.4510 H   0  0  0  0  0  0  0  0  0  0  0  0
   -0.7160   -2.2220   -1.9029 H   0  0  0  0  0  0  0  0  0  0  0  0
   -0.7160    0.1448    0.0228 N   0  0  0  0  0  0  0  0  0  0  0  0
    0.2651    0.8081    0.2573 C   0  0  0  0  0  0  0  0  0  0  0  0
    1.1456    1.4811    0.5982 O   0  0  0  0  0  0  0  0  0  0  0  0
  1  3  1  0
  1  4  1  0
  1  5  1  0
  2  6  1  0
  6  7  2  0
  7  8  2  0
M  RAD  1   1   2
M  END
>  <reaction>  (10) 
rxn_688

>  <mol_properties>  (10) 
{"0": {"label": "*1", "atom_type": "Cs"}, "1": {"label": "*2", "atom_type": "H0"}, "2": {"label": "*0", "atom_type": "H0"}, "5": {"label": "*3", "atom_type": "N3t"}, "6": {"label": "*4", "atom_type": "Ct"}}

>  <type>  (10) 
unop_6

>  <geom_source>  (10) 
Heuristics

$$$$

     RDKit          3D

  8  6  0  0  0  0  0  0  0  0999 V2000
   -0.6069   -2.1006   -1.1502 C   0  0  0  0  0  3  0  0  0  0  0  0
   -0.6069   -0.8686   -0.7147 H   0  0  0  0  0  0  0  0  0  0  0  0
    0.2822   -2.6139   -0.7873 H   0  0  0  0  0  0  0  0  0  0  0  0
   -1.4960   -2.6139   -0.7873 H   0  0  0  0  0  0  0  0  0  0  0  0
   -0.6069   -2.1006   -2.2392 H   0  0  0  0  0  0  0  0  0  0  0  0
   -0.6069    0.2662   -0.3135 N   0  0  0  0  0  0  0  0  0  0  0  0
    0.2428    0.7660    0.3836 C   0  0  0  0  0  0  0  0  0  0  0  0
    0.9574    1.2847    1.1349 O   0  0  0  0  0  0  0  0  0  0  0  0
  1  3  1  0
  1  4  1  0
  1  5  1  0
  2  6  1  0
  6  7  2  0
  7  8  2  0
M  RAD  1   1   2
M  END
>  <reaction>  (11) 
rxn_688

>  <mol_properties>  (11) 
{"0": {"label": "*1", "atom_type": "Cs"}, "1": {"label": "*2", "atom_type": "H0"}, "2": {"label": "*0", "atom_type": "H0"}, "5": {"label": "*3", "atom_type": "N3t"}, "6": {"label": "*4", "atom_type": "Ct"}}

>  <type>  (11) 
unop_7

>  <geom_source>  (11) 
Heuristics

$$$$

     RDKit          3D

  8  6  0  0  0  0  0  0  0  0999 V2000
    0.7160   -2.2220   -0.8140 C   0  0  0  0  0  3  0  0  0  0  0  0
    0.7160   -0.9900   -0.3784 H   0  0  0  0  0  0  0  0  0  0  0  0
    1.6051   -2.7353   -0.4510 H   0  0  0  0  0  0  0  0  0  0  0  0
   -0.1731   -2.7353   -0.4510 H   0  0  0  0  0  0  0  0  0  0  0  0
    0.7160   -2.2220   -1.9029 H   0  0  0  0  0  0  0  0  0  0  0  0
    0.7160    0.1448    0.0228 N   0  0  0  0  0  0  0  0  0  0  0  0
   -0.2651    0.8081    0.2573 C   0  0  0  0  0  0  0  0  0  0  0  0
   -1.1456    1.4811    0.5982 O   0  0  0  0  0  0  0  0  0  0  0  0
  1  3  1  0
  1  4  1  0
  1  5  1  0
  2  6  1  0
  6  7  2  0
  7  8  2  0
M  RAD  1   1   2
M  END
>  <reaction>  (12) 
rxn_688

>  <mol_properties>  (12) 
{"0": {"label": "*1", "atom_type": "Cs"}, "1": {"label": "*2", "atom_type": "H0"}, "2": {"label": "*0", "atom_type": "H0"}, "5": {"label": "*3", "atom_type": "N3t"}, "6": {"label": "*4", "atom_type": "Ct"}}

>  <type>  (12) 
unop_8

>  <geom_source>  (12) 
Heuristics

$$$$

     RDKit          3D

  8  6  0  0  0  0  0  0  0  0999 V2000
   -0.3657   -2.4412   -0.2167 C   0  0  0  0  0  3  0  0  0  0  0  0
   -0.3657   -1.2092    0.2189 H   0  0  0  0  0  0  0  0  0  0  0  0
    0.5234   -2.9545    0.1463 H   0  0  0  0  0  0  0  0  0  0  0  0
   -1.2548   -2.9545    0.1463 H   0  0  0  0  0  0  0  0  0  0  0  0
   -0.3657   -2.4412   -1.3056 H   0  0  0  0  0  0  0  0  0  0  0  0
   -0.3657   -0.0744    0.6201 N   0  0  0  0  0  0  0  0  0  0  0  0
    0.1249    0.8721    0.0535 C   0  0  0  0  0  0  0  0  0  0  0  0
    0.5929    1.8446   -0.3704 O   0  0  0  0  0  0  0  0  0  0  0  0
  1  3  1  0
  1  4  1  0
  1  5  1  0
  2  6  1  0
  6  7  2  0
  7  8  2  0
M  RAD  1   1   2
M  END
>  <reaction>  (13) 
rxn_688

>  <mol_properties>  (13) 
{"0": {"label": "*1", "atom_type": "Cs"}, "1": {"label": "*2", "atom_type": "H0"}, "2": {"label": "*0", "atom_type": "H0"}, "5": {"label": "*3", "atom_type": "N3t"}, "6": {"label": "*4", "atom_type": "Ct"}}

>  <type>  (13) 
unop_9

>  <geom_source>  (13) 
Heuristics

$$$$

     RDKit          3D

  8  6  0  0  0  0  0  0  0  0999 V2000
    0.6282   -2.3473   -0.4710 C   0  0  0  0  0  3  0  0  0  0  0  0
    0.6282   -1.1153   -0.0354 H   0  0  0  0  0  0  0  0  0  0  0  0
    1.5174   -2.8607   -0.1080 H   0  0  0  0  0  0  0  0  0  0  0  0
   -0.2609   -2.8607   -0.1080 H   0  0  0  0  0  0  0  0  0  0  0  0
    0.6282   -2.3473   -1.5599 H   0  0  0  0  0  0  0  0  0  0  0  0
    0.6282    0.0194    0.3658 N   0  0  0  0  0  0  0  0  0  0  0  0
   -0.2215    0.8463    0.1377 C   0  0  0  0  0  0  0  0  0  0  0  0
   -1.0135    1.6878    0.0440 O   0  0  0  0  0  0  0  0  0  0  0  0
  1  3  1  0
  1  4  1  0
  1  5  1  0
  2  6  1  0
  6  7  2  0
  7  8  2  0
M  RAD  1   1   2
M  END
>  <reaction>  (14) 
rxn_688

>  <mol_properties>  (14) 
{"0": {"label": "*1", "atom_type": "Cs"}, "1": {"label": "*2", "atom_type": "H0"}, "2": {"label": "*0", "atom_type": "H0"}, "5": {"label": "*3", "atom_type": "N3t"}, "6": {"label": "*4", "atom_type": "Ct"}}

>  <type>  (14) 
unop_10

>  <geom_source>  (14) 
Heuristics

$$$$

     RDKit          3D

  8  6  0  0  0  0  0  0  0  0999 V2000
   -0.3346   -2.0193   -1.3863 C   0  0  0  0  0  3  0  0  0  0  0  0
   -0.3346   -0.7873   -0.9507 H   0  0  0  0  0  0  0  0  0  0  0  0
    0.5545   -2.5326   -1.0233 H   0  0  0  0  0  0  0  0  0  0  0  0
   -1.2237   -2.5326   -1.0233 H   0  0  0  0  0  0  0  0  0  0  0  0
   -0.3346   -2.0193   -2.4752 H   0  0  0  0  0  0  0  0  0  0  0  0
   -0.3346    0.3475   -0.5495 N   0  0  0  0  0  0  0  0  0  0  0  0
    0.1560    0.7276    0.4861 C   0  0  0  0  0  0  0  0  0  0  0  0
    0.5113    1.1609    1.5012 O   0  0  0  0  0  0  0  0  0  0  0  0
  1  3  1  0
  1  4  1  0
  1  5  1  0
  2  6  1  0
  6  7  2  0
  7  8  2  0
M  RAD  1   1   2
M  END
>  <reaction>  (15) 
rxn_688

>  <mol_properties>  (15) 
{"0": {"label": "*1", "atom_type": "Cs"}, "1": {"label": "*2", "atom_type": "H0"}, "2": {"label": "*0", "atom_type": "H0"}, "5": {"label": "*3", "atom_type": "N3t"}, "6": {"label": "*4", "atom_type": "Ct"}}

>  <type>  (15) 
unop_11

>  <geom_source>  (15) 
Heuristics

$$$$

     RDKit          3D

  8  6  0  0  0  0  0  0  0  0999 V2000
    0.0000   -2.4760   -0.1229 C   0  0  0  0  0  3  0  0  0  0  0  0
    0.0000   -1.2440    0.3127 H   0  0  0  0  0  0  0  0  0  0  0  0
    0.8891   -2.9893    0.2401 H   0  0  0  0  0  0  0  0  0  0  0  0
   -0.8891   -2.9893    0.2401 H   0  0  0  0  0  0  0  0  0  0  0  0
    0.0000   -2.4760   -1.2118 H   0  0  0  0  0  0  0  0  0  0  0  0
    0.0000   -0.1093    0.7139 N   0  0  0  0  0  0  0  0  0  0  0  0
    0.0000    0.8811    0.0233 C   0  0  0  0  0  0  0  0  0  0  0  0
   -0.0000    1.9033   -0.5239 O   0  0  0  0  0  0  0  0  0  0  0  0
  1  3  1  0
  1  4  1  0
  1  5  1  0
  2  6  1  0
  6  7  2  0
  7  8  2  0
M  RAD  1   1   2
M  END
>  <reaction>  (16) 
rxn_688

>  <mol_properties>  (16) 
{"0": {"label": "*1", "atom_type": "Cs"}, "1": {"label": "*2", "atom_type": "H0"}, "2": {"label": "*0", "atom_type": "H0"}, "5": {"label": "*3", "atom_type": "N3t"}, "6": {"label": "*4", "atom_type": "Ct"}}

>  <type>  (16) 
unop_12

>  <geom_source>  (16) 
Heuristics

$$$$
