
     RDKit          3D

 25 26  0  0  0  0  0  0  0  0999 V2000
    2.0298   -1.1515    0.0571 C   0  0  0  0  0  0  0  0  0  0  0  0
    2.2278    0.2445    0.6528 C   0  0  0  0  0  0  0  0  0  0  0  0
    1.2292    1.2625    0.0947 C   0  0  0  0  0  0  0  0  0  0  0  0
   -0.1869    0.7454    0.2762 C   0  0  0  0  0  0  0  0  0  0  0  0
   -1.3415    1.5501   -0.3122 C   0  0  0  0  0  0  0  0  0  0  0  0
   -2.5060    0.5338   -0.4178 C   0  0  0  0  0  0  0  0  0  0  0  0
   -1.8709   -0.8658   -0.2234 C   0  0  0  0  0  0  0  0  0  0  0  0
   -0.3715   -0.6265   -0.3693 C   0  0  0  0  0  0  0  0  0  0  0  0
    0.5898   -1.6500    0.2086 C   0  0  0  0  0  0  0  0  0  0  0  0
    2.2820   -1.1226   -1.0088 H   0  0  0  0  0  0  0  0  0  0  0  0
    2.7243   -1.8549    0.5221 H   0  0  0  0  0  0  0  0  0  0  0  0
    2.1030    0.1885    1.7400 H   0  0  0  0  0  0  0  0  0  0  0  0
    3.2514    0.5819    0.4743 H   0  0  0  0  0  0  0  0  0  0  0  0
    1.3611    2.2304    0.5855 H   0  0  0  0  0  0  0  0  0  0  0  0
    1.4198    1.4194   -0.9737 H   0  0  0  0  0  0  0  0  0  0  0  0
   -0.3675    0.6209    1.3539 H   0  0  0  0  0  0  0  0  0  0  0  0
   -1.5992    2.4249    0.2862 H   0  0  0  0  0  0  0  0  0  0  0  0
   -1.0595    1.9116   -1.3055 H   0  0  0  0  0  0  0  0  0  0  0  0
   -3.2666    0.7244    0.3399 H   0  0  0  0  0  0  0  0  0  0  0  0
   -3.0030    0.6112   -1.3853 H   0  0  0  0  0  0  0  0  0  0  0  0
   -2.2549   -1.6039   -0.9288 H   0  0  0  0  0  0  0  0  0  0  0  0
   -2.0796   -1.2429    0.7821 H   0  0  0  0  0  0  0  0  0  0  0  0
   -0.1432   -0.5121   -1.4391 H   0  0  0  0  0  0  0  0  0  0  0  0
    0.4720   -2.6209   -0.2799 H   0  0  0  0  0  0  0  0  0  0  0  0
    0.3601   -1.7986    1.2704 H   0  0  0  0  0  0  0  0  0  0  0  0
  1  2  1  0
  1  9  1  0
  1 10  1  0
  1 11  1  0
  2  3  1  0
  2 12  1  0
  2 13  1  0
  3  4  1  0
  3 14  1  0
  3 15  1  0
  4  5  1  0
  4  8  1  0
  4 16  1  0
  5  6  1  0
  5 17  1  0
  5 18  1  0
  6  7  1  0
  6 19  1  0
  6 20  1  0
  7  8  1  0
  7 21  1  0
  7 22  1  0
  8  9  1  0
  8 23  1  0
  9 24  1  0
  9 25  1  0
M  END
>  <reaction>  (1) 
rxn_601

>  <mol_properties>  (1) 
{"5": {"label": "donator", "atom_type": "Cs"}, "18": {"label": "d_hydrogen", "atom_type": "H0"}}

>  <type>  (1) 
r1h

$$$$

     RDKit          3D

 10  9  0  0  0  0  0  0  0  0999 V2000
    1.2930    0.1441    0.3288 C   0  0  0  0  0  0  0  0  0  0  0  0
   -0.0374   -0.1647    0.9100 C   0  0  0  0  0  3  0  0  0  0  0  0
   -1.2664    0.4569    0.3567 C   0  0  0  0  0  0  0  0  0  0  0  0
    1.4384    1.2242    0.2174 H   0  0  0  0  0  0  0  0  0  0  0  0
    2.1077   -0.2477    0.9385 H   0  0  0  0  0  0  0  0  0  0  0  0
    1.4057   -0.2836   -0.6789 H   0  0  0  0  0  0  0  0  0  0  0  0
   -0.1309   -0.9912    1.6030 H   0  0  0  0  0  0  0  0  0  0  0  0
   -1.5005    0.0716   -0.6471 H   0  0  0  0  0  0  0  0  0  0  0  0
   -2.1382    0.2713    0.9849 H   0  0  0  0  0  0  0  0  0  0  0  0
   -1.1497    1.5406    0.2456 H   0  0  0  0  0  0  0  0  0  0  0  0
  1  2  1  0
  1  4  1  0
  1  5  1  0
  1  6  1  0
  2  3  1  0
  2  7  1  0
  3  8  1  0
  3  9  1  0
  3 10  1  0
M  RAD  1   2   2
M  END
>  <reaction>  (2) 
rxn_601

>  <mol_properties>  (2) 
{"1": {"label": "acceptor", "atom_type": "Cs"}}

>  <type>  (2) 
r2

$$$$

     RDKit          3D

 11 10  0  0  0  0  0  0  0  0999 V2000
   -1.2710    0.1907   -0.2084 C   0  0  0  0  0  0  0  0  0  0  0  0
    0.0202   -0.6130   -0.2928 C   0  0  0  0  0  0  0  0  0  0  0  0
    0.1086   -1.6953    0.7756 C   0  0  0  0  0  0  0  0  0  0  0  0
   -1.3607    0.6851    0.7620 H   0  0  0  0  0  0  0  0  0  0  0  0
   -2.1429   -0.4567   -0.3299 H   0  0  0  0  0  0  0  0  0  0  0  0
   -1.3158    0.9602   -0.9809 H   0  0  0  0  0  0  0  0  0  0  0  0
    0.8757    0.0616   -0.1992 H   0  0  0  0  0  0  0  0  0  0  0  0
    0.0997   -1.0712   -1.2825 H   0  0  0  0  0  0  0  0  0  0  0  0
   -0.7198   -2.4022    0.6850 H   0  0  0  0  0  0  0  0  0  0  0  0
    1.0395   -2.2596    0.6989 H   0  0  0  0  0  0  0  0  0  0  0  0
    0.0624   -1.2603    1.7770 H   0  0  0  0  0  0  0  0  0  0  0  0
  1  2  1  0
  1  4  1  0
  1  5  1  0
  1  6  1  0
  2  3  1  0
  2  7  1  0
  2  8  1  0
  3  9  1  0
  3 10  1  0
  3 11  1  0
M  END
>  <reaction>  (3) 
rxn_601

>  <mol_properties>  (3) 
{"1": {"label": "acceptor", "atom_type": "Cs"}, "10": {"label": "a_hydrogen", "atom_type": "H0"}}

>  <type>  (3) 
r2h

$$$$

     RDKit          3D

 35 35  0  0  0  0  0  0  0  0999 V2000
    1.0505    3.9740    1.0313 C   0  0  0  0  0  0  0  0  0  0  0  0
    0.0416    3.2357    0.1917 C   0  0  0  0  0  3  0  0  0  0  0  0
   -1.1538    2.6925    0.9296 C   0  0  0  0  0  0  0  0  0  0  0  0
    1.4009    3.3502    1.8584 H   0  0  0  0  0  0  0  0  0  0  0  0
    1.9211    4.2699    0.4433 H   0  0  0  0  0  0  0  0  0  0  0  0
    0.6222    4.8828    1.4699 H   0  0  0  0  0  0  0  0  0  0  0  0
   -0.2267    3.7670   -0.7224 H   0  0  0  0  0  0  0  0  0  0  0  0
   -1.7642    3.4984    1.3538 H   0  0  0  0  0  0  0  0  0  0  0  0
   -1.7974    2.1024    0.2742 H   0  0  0  0  0  0  0  0  0  0  0  0
   -0.8427    2.0517    1.7593 H   0  0  0  0  0  0  0  0  0  0  0  0
   -1.2081   -3.0632   -0.6862 C   0  0  0  0  0  0  0  0  0  0  0  0
   -1.0861   -2.8410    0.8236 C   0  0  0  0  0  0  0  0  0  0  0  0
    0.1724   -2.0523    1.1979 C   0  0  0  0  0  0  0  0  0  0  0  0
    0.2135   -0.7558    0.4099 C   0  0  0  0  0  0  0  0  0  0  0  0
    1.4279    0.1578    0.5436 C   0  0  0  0  0  0  0  0  0  0  0  0
    1.3292    1.0544   -0.6861 C   0  0  0  0  0  0  0  0  0  0  0  0
    0.4101    0.3686   -1.6982 C   0  0  0  0  0  0  0  0  0  0  0  0
    0.1529   -1.0142   -1.0953 C   0  0  0  0  0  0  0  0  0  0  0  0
   -1.1152   -1.7560   -1.4789 C   0  0  0  0  0  0  0  0  0  0  0  0
   -0.4029   -3.7303   -1.0137 H   0  0  0  0  0  0  0  0  0  0  0  0
   -2.1466   -3.5755   -0.9103 H   0  0  0  0  0  0  0  0  0  0  0  0
   -1.9643   -2.2871    1.1737 H   0  0  0  0  0  0  0  0  0  0  0  0
   -1.0982   -3.8027    1.3414 H   0  0  0  0  0  0  0  0  0  0  0  0
    0.1918   -1.8602    2.2740 H   0  0  0  0  0  0  0  0  0  0  0  0
    1.0645   -2.6453    0.9643 H   0  0  0  0  0  0  0  0  0  0  0  0
   -0.6786   -0.1706    0.6730 H   0  0  0  0  0  0  0  0  0  0  0  0
    1.4392    0.7229    1.4798 H   0  0  0  0  0  0  0  0  0  0  0  0
    2.3471   -0.4399    0.5215 H   0  0  0  0  0  0  0  0  0  0  0  0
    0.7036    2.1615   -0.2901 H   0  0  0  0  0  0  0  0  0  0  0  0
    2.2719    1.4372   -1.0714 H   0  0  0  0  0  0  0  0  0  0  0  0
    0.8421    0.3193   -2.6991 H   0  0  0  0  0  0  0  0  0  0  0  0
   -0.5380    0.9135   -1.7908 H   0  0  0  0  0  0  0  0  0  0  0  0
    1.0096   -1.6566   -1.3440 H   0  0  0  0  0  0  0  0  0  0  0  0
   -1.1426   -1.9619   -2.5522 H   0  0  0  0  0  0  0  0  0  0  0  0
   -1.9826   -1.1237   -1.2541 H   0  0  0  0  0  0  0  0  0  0  0  0
  1  2  1  0
  1  4  1  0
  1  5  1  0
  1  6  1  0
  2  3  1  0
  2  7  1  0
  3  8  1  0
  3  9  1  0
  3 10  1  0
 11 12  1  0
 11 19  1  0
 11 20  1  0
 11 21  1  0
 12 13  1  0
 12 22  1  0
 12 23  1  0
 13 14  1  0
 13 24  1  0
 13 25  1  0
 14 15  1  0
 14 18  1  0
 14 26  1  0
 15 16  1  0
 15 27  1  0
 15 28  1  0
 16 17  1  0
 16 29  1  0
 16 30  1  0
 17 18  1  0
 17 31  1  0
 17 32  1  0
 18 19  1  0
 18 33  1  0
 19 34  1  0
 19 35  1  0
M  RAD  1   2   2
M  END
>  <reaction>  (4) 
rxn_601

>  <mol_properties>  (4) 
{"0": {"label": "*4", "atom_type": "Cs"}, "1": {"label": "*3", "atom_type": "Cs"}, "14": {"label": "*0", "atom_type": "Cs"}, "15": {"label": "*1", "atom_type": "Cs"}, "28": {"label": "*2", "atom_type": "H0"}}

>  <type>  (4) 
ts

$$$$

     RDKit          3D

 35 35  0  0  0  0  0  0  0  0999 V2000
    1.1719    4.3521    0.4183 C   0  0  0  0  0  0  0  0  0  0  0  0
    0.1393    3.2448    0.5862 C   0  0  0  0  0  3  0  0  0  0  0  0
   -0.9421    3.5997    1.5987 C   0  0  0  0  0  0  0  0  0  0  0  0
    1.6726    4.5663    1.3656 H   0  0  0  0  0  0  0  0  0  0  0  0
    1.9374    4.0796   -0.3102 H   0  0  0  0  0  0  0  0  0  0  0  0
    0.7006    5.2774    0.0782 H   0  0  0  0  0  0  0  0  0  0  0  0
   -0.3239    3.0293   -0.3807 H   0  0  0  0  0  0  0  0  0  0  0  0
   -1.4800    4.5013    1.2959 H   0  0  0  0  0  0  0  0  0  0  0  0
   -1.6716    2.7951    1.7050 H   0  0  0  0  0  0  0  0  0  0  0  0
   -0.5081    3.7901    2.5832 H   0  0  0  0  0  0  0  0  0  0  0  0
   -1.0439   -3.2946   -1.0690 C   0  0  0  0  0  0  0  0  0  0  0  0
   -1.0439   -3.2946    0.4616 C   0  0  0  0  0  0  0  0  0  0  0  0
    0.0992   -2.4583    1.0436 C   0  0  0  0  0  0  0  0  0  0  0  0
    0.0596   -1.0573    0.4595 C   0  0  0  0  0  0  0  0  0  0  0  0
    1.1787   -0.0835    0.8149 C   0  0  0  0  0  0  0  0  0  0  0  0
    1.1287    0.9871   -0.3037 C   0  0  0  0  0  0  0  0  0  0  0  0
    0.2352    0.3952   -1.4223 C   0  0  0  0  0  0  0  0  0  0  0  0
    0.1102   -1.0829   -1.0669 C   0  0  0  0  0  0  0  0  0  0  0  0
   -1.0439   -1.8782   -1.6510 C   0  0  0  0  0  0  0  0  0  0  0  0
   -0.1514   -3.8215   -1.4249 H   0  0  0  0  0  0  0  0  0  0  0  0
   -1.9048   -3.8557   -1.4397 H   0  0  0  0  0  0  0  0  0  0  0  0
   -1.9960   -2.8855    0.8175 H   0  0  0  0  0  0  0  0  0  0  0  0
   -0.9884   -4.3207    0.8323 H   0  0  0  0  0  0  0  0  0  0  0  0
    0.0320   -2.4323    2.1344 H   0  0  0  0  0  0  0  0  0  0  0  0
    1.0608   -2.9234    0.7955 H   0  0  0  0  0  0  0  0  0  0  0  0
   -0.8992   -0.5984    0.7420 H   0  0  0  0  0  0  0  0  0  0  0  0
    1.0698    0.3445    1.8123 H   0  0  0  0  0  0  0  0  0  0  0  0
    2.1363   -0.6120    0.7945 H   0  0  0  0  0  0  0  0  0  0  0  0
    0.6347    2.1143    0.1406 H   0  0  0  0  0  0  0  0  0  0  0  0
    2.1299    1.2095   -0.6740 H   0  0  0  0  0  0  0  0  0  0  0  0
    0.6449    0.5601   -2.4198 H   0  0  0  0  0  0  0  0  0  0  0  0
   -0.7568    0.8560   -1.4019 H   0  0  0  0  0  0  0  0  0  0  0  0
    1.0466   -1.5857   -1.3494 H   0  0  0  0  0  0  0  0  0  0  0  0
   -0.9832   -1.9172   -2.7419 H   0  0  0  0  0  0  0  0  0  0  0  0
   -1.9871   -1.3769   -1.4030 H   0  0  0  0  0  0  0  0  0  0  0  0
  1  2  1  0
  1  4  1  0
  1  5  1  0
  1  6  1  0
  2  3  1  0
  2  7  1  0
  3  8  1  0
  3  9  1  0
  3 10  1  0
 11 12  1  0
 11 19  1  0
 11 20  1  0
 11 21  1  0
 12 13  1  0
 12 22  1  0
 12 23  1  0
 13 14  1  0
 13 24  1  0
 13 25  1  0
 14 15  1  0
 14 18  1  0
 14 26  1  0
 15 16  1  0
 15 27  1  0
 15 28  1  0
 16 17  1  0
 16 29  1  0
 16 30  1  0
 17 18  1  0
 17 31  1  0
 17 32  1  0
 18 19  1  0
 18 33  1  0
 19 34  1  0
 19 35  1  0
M  RAD  1   2   2
M  END
>  <reaction>  (5) 
rxn_601

>  <mol_properties>  (5) 
{"0": {"label": "*4", "atom_type": "Cs"}, "1": {"label": "*3", "atom_type": "Cs"}, "14": {"label": "*0", "atom_type": "Cs"}, "15": {"label": "*1", "atom_type": "Cs"}, "28": {"label": "*2", "atom_type": "H0"}}

>  <type>  (5) 
unop_1

>  <geom_source>  (5) 
Heuristics

$$$$

     RDKit          3D

 35 35  0  0  0  0  0  0  0  0999 V2000
    0.5589    3.4694    2.0356 C   0  0  0  0  0  0  0  0  0  0  0  0
    0.2297    3.3198    0.5558 C   0  0  0  0  0  3  0  0  0  0  0  0
   -1.1792    3.7901    0.2178 C   0  0  0  0  0  0  0  0  0  0  0  0
   -0.1329    2.8885    2.6504 H   0  0  0  0  0  0  0  0  0  0  0  0
    1.5712    3.1277    2.2579 H   0  0  0  0  0  0  0  0  0  0  0  0
    0.4816    4.5132    2.3494 H   0  0  0  0  0  0  0  0  0  0  0  0
    0.9542    3.8848   -0.0372 H   0  0  0  0  0  0  0  0  0  0  0  0
   -1.3113    4.8440    0.4743 H   0  0  0  0  0  0  0  0  0  0  0  0
   -1.3962    3.6752   -0.8456 H   0  0  0  0  0  0  0  0  0  0  0  0
   -1.9259    3.2193    0.7752 H   0  0  0  0  0  0  0  0  0  0  0  0
   -0.9535   -3.2197   -1.0994 C   0  0  0  0  0  0  0  0  0  0  0  0
   -0.9535   -3.2197    0.4312 C   0  0  0  0  0  0  0  0  0  0  0  0
    0.1896   -2.3833    1.0132 C   0  0  0  0  0  0  0  0  0  0  0  0
    0.1500   -0.9823    0.4291 C   0  0  0  0  0  0  0  0  0  0  0  0
    1.2691   -0.0085    0.7845 C   0  0  0  0  0  0  0  0  0  0  0  0
    1.2191    1.0621   -0.3341 C   0  0  0  0  0  0  0  0  0  0  0  0
    0.3256    0.4702   -1.4527 C   0  0  0  0  0  0  0  0  0  0  0  0
    0.2005   -1.0079   -1.0973 C   0  0  0  0  0  0  0  0  0  0  0  0
   -0.9535   -1.8032   -1.6814 C   0  0  0  0  0  0  0  0  0  0  0  0
   -0.0611   -3.7465   -1.4553 H   0  0  0  0  0  0  0  0  0  0  0  0
   -1.8144   -3.7807   -1.4701 H   0  0  0  0  0  0  0  0  0  0  0  0
   -1.9056   -2.8105    0.7871 H   0  0  0  0  0  0  0  0  0  0  0  0
   -0.8980   -4.2457    0.8019 H   0  0  0  0  0  0  0  0  0  0  0  0
    0.1224   -2.3573    2.1040 H   0  0  0  0  0  0  0  0  0  0  0  0
    1.1511   -2.8484    0.7652 H   0  0  0  0  0  0  0  0  0  0  0  0
   -0.8088   -0.5234    0.7116 H   0  0  0  0  0  0  0  0  0  0  0  0
    1.1602    0.4194    1.7820 H   0  0  0  0  0  0  0  0  0  0  0  0
    2.2267   -0.5370    0.7641 H   0  0  0  0  0  0  0  0  0  0  0  0
    0.7251    2.1893    0.1102 H   0  0  0  0  0  0  0  0  0  0  0  0
    2.2203    1.2845   -0.7044 H   0  0  0  0  0  0  0  0  0  0  0  0
    0.7352    0.6351   -2.4501 H   0  0  0  0  0  0  0  0  0  0  0  0
   -0.6664    0.9310   -1.4323 H   0  0  0  0  0  0  0  0  0  0  0  0
    1.1370   -1.5108   -1.3798 H   0  0  0  0  0  0  0  0  0  0  0  0
   -0.8929   -1.8422   -2.7722 H   0  0  0  0  0  0  0  0  0  0  0  0
   -1.8967   -1.3019   -1.4333 H   0  0  0  0  0  0  0  0  0  0  0  0
  1  2  1  0
  1  4  1  0
  1  5  1  0
  1  6  1  0
  2  3  1  0
  2  7  1  0
  3  8  1  0
  3  9  1  0
  3 10  1  0
 11 12  1  0
 11 19  1  0
 11 20  1  0
 11 21  1  0
 12 13  1  0
 12 22  1  0
 12 23  1  0
 13 14  1  0
 13 24  1  0
 13 25  1  0
 14 15  1  0
 14 18  1  0
 14 26  1  0
 15 16  1  0
 15 27  1  0
 15 28  1  0
 16 17  1  0
 16 29  1  0
 16 30  1  0
 17 18  1  0
 17 31  1  0
 17 32  1  0
 18 19  1  0
 18 33  1  0
 19 34  1  0
 19 35  1  0
M  RAD  1   2   2
M  END
>  <reaction>  (6) 
rxn_601

>  <mol_properties>  (6) 
{"0": {"label": "*4", "atom_type": "Cs"}, "1": {"label": "*3", "atom_type": "Cs"}, "14": {"label": "*0", "atom_type": "Cs"}, "15": {"label": "*1", "atom_type": "Cs"}, "28": {"label": "*2", "atom_type": "H0"}}

>  <type>  (6) 
unop_2

>  <geom_source>  (6) 
Heuristics

$$$$

     RDKit          3D

 35 35  0  0  0  0  0  0  0  0999 V2000
    0.7228    4.3994   -0.1745 C   0  0  0  0  0  0  0  0  0  0  0  0
    0.1146    3.2384    0.6017 C   0  0  0  0  0  3  0  0  0  0  0  0
   -0.2536    3.6167    2.0306 C   0  0  0  0  0  0  0  0  0  0  0  0
    1.6336    4.7590    0.3105 H   0  0  0  0  0  0  0  0  0  0  0  0
    0.9797    4.1092   -1.1947 H   0  0  0  0  0  0  0  0  0  0  0  0
    0.0261    5.2393   -0.2308 H   0  0  0  0  0  0  0  0  0  0  0  0
   -0.7762    2.8784    0.0794 H   0  0  0  0  0  0  0  0  0  0  0  0
   -0.9811    4.4319    2.0438 H   0  0  0  0  0  0  0  0  0  0  0  0
   -0.6873    2.7729    2.5699 H   0  0  0  0  0  0  0  0  0  0  0  0
    0.6264    3.9516    2.5851 H   0  0  0  0  0  0  0  0  0  0  0  0
   -1.0686   -3.3011   -1.0536 C   0  0  0  0  0  0  0  0  0  0  0  0
   -1.0686   -3.3011    0.4771 C   0  0  0  0  0  0  0  0  0  0  0  0
    0.0745   -2.4647    1.0590 C   0  0  0  0  0  0  0  0  0  0  0  0
    0.0349   -1.0637    0.4749 C   0  0  0  0  0  0  0  0  0  0  0  0
    1.1539   -0.0899    0.8304 C   0  0  0  0  0  0  0  0  0  0  0  0
    1.1040    0.9806   -0.2882 C   0  0  0  0  0  0  0  0  0  0  0  0
    0.2105    0.3888   -1.4069 C   0  0  0  0  0  0  0  0  0  0  0  0
    0.0854   -1.0894   -1.0514 C   0  0  0  0  0  0  0  0  0  0  0  0
   -1.0686   -1.8847   -1.6355 C   0  0  0  0  0  0  0  0  0  0  0  0
   -0.1762   -3.8279   -1.4095 H   0  0  0  0  0  0  0  0  0  0  0  0
   -1.9295   -3.8622   -1.4243 H   0  0  0  0  0  0  0  0  0  0  0  0
   -2.0208   -2.8919    0.8330 H   0  0  0  0  0  0  0  0  0  0  0  0
   -1.0131   -4.3272    0.8478 H   0  0  0  0  0  0  0  0  0  0  0  0
    0.0072   -2.4388    2.1499 H   0  0  0  0  0  0  0  0  0  0  0  0
    1.0360   -2.9298    0.8110 H   0  0  0  0  0  0  0  0  0  0  0  0
   -0.9239   -0.6049    0.7575 H   0  0  0  0  0  0  0  0  0  0  0  0
    1.0451    0.3380    1.8278 H   0  0  0  0  0  0  0  0  0  0  0  0
    2.1115   -0.6185    0.8100 H   0  0  0  0  0  0  0  0  0  0  0  0
    0.6100    2.1079    0.1561 H   0  0  0  0  0  0  0  0  0  0  0  0
    2.1051    1.2031   -0.6585 H   0  0  0  0  0  0  0  0  0  0  0  0
    0.6201    0.5537   -2.4043 H   0  0  0  0  0  0  0  0  0  0  0  0
   -0.7816    0.8495   -1.3864 H   0  0  0  0  0  0  0  0  0  0  0  0
    1.0218   -1.5922   -1.3340 H   0  0  0  0  0  0  0  0  0  0  0  0
   -1.0080   -1.9236   -2.7264 H   0  0  0  0  0  0  0  0  0  0  0  0
   -2.0118   -1.3833   -1.3875 H   0  0  0  0  0  0  0  0  0  0  0  0
  1  2  1  0
  1  4  1  0
  1  5  1  0
  1  6  1  0
  2  3  1  0
  2  7  1  0
  3  8  1  0
  3  9  1  0
  3 10  1  0
 11 12  1  0
 11 19  1  0
 11 20  1  0
 11 21  1  0
 12 13  1  0
 12 22  1  0
 12 23  1  0
 13 14  1  0
 13 24  1  0
 13 25  1  0
 14 15  1  0
 14 18  1  0
 14 26  1  0
 15 16  1  0
 15 27  1  0
 15 28  1  0
 16 17  1  0
 16 29  1  0
 16 30  1  0
 17 18  1  0
 17 31  1  0
 17 32  1  0
 18 19  1  0
 18 33  1  0
 19 34  1  0
 19 35  1  0
M  RAD  1   2   2
M  END
>  <reaction>  (7) 
rxn_601

>  <mol_properties>  (7) 
{"0": {"label": "*4", "atom_type": "Cs"}, "1": {"label": "*3", "atom_type": "Cs"}, "14": {"label": "*0", "atom_type": "Cs"}, "15": {"label": "*1", "atom_type": "Cs"}, "28": {"label": "*2", "atom_type": "H0"}}

>  <type>  (7) 
unop_3

>  <geom_source>  (7) 
Heuristics

$$$$

     RDKit          3D

 35 35  0  0  0  0  0  0  0  0999 V2000
   -1.1558    3.1298    1.2601 C   0  0  0  0  0  0  0  0  0  0  0  0
    0.2597    3.3634    0.7478 C   0  0  0  0  0  3  0  0  0  0  0  0
    0.2947    3.7421   -0.7273 C   0  0  0  0  0  0  0  0  0  0  0  0
   -1.6434    2.3235    0.7068 H   0  0  0  0  0  0  0  0  0  0  0  0
   -1.1603    2.8597    2.3175 H   0  0  0  0  0  0  0  0  0  0  0  0
   -1.7673    4.0275    1.1414 H   0  0  0  0  0  0  0  0  0  0  0  0
    0.7347    4.1523    1.3376 H   0  0  0  0  0  0  0  0  0  0  0  0
   -0.2711    4.6592   -0.9086 H   0  0  0  0  0  0  0  0  0  0  0  0
    1.3161    3.9052   -1.0754 H   0  0  0  0  0  0  0  0  0  0  0  0
   -0.1472    2.9552   -1.3432 H   0  0  0  0  0  0  0  0  0  0  0  0
   -0.9235   -3.1761   -0.9074 C   0  0  0  0  0  0  0  0  0  0  0  0
   -0.9235   -3.1761    0.6232 C   0  0  0  0  0  0  0  0  0  0  0  0
    0.2196   -2.3397    1.2052 C   0  0  0  0  0  0  0  0  0  0  0  0
    0.1800   -0.9387    0.6211 C   0  0  0  0  0  0  0  0  0  0  0  0
    1.2990    0.0351    0.9765 C   0  0  0  0  0  0  0  0  0  0  0  0
    1.2491    1.1056   -0.1421 C   0  0  0  0  0  0  0  0  0  0  0  0
    0.3556    0.5138   -1.2607 C   0  0  0  0  0  0  0  0  0  0  0  0
    0.2305   -0.9643   -0.9053 C   0  0  0  0  0  0  0  0  0  0  0  0
   -0.9235   -1.7597   -1.4894 C   0  0  0  0  0  0  0  0  0  0  0  0
   -0.0311   -3.7029   -1.2633 H   0  0  0  0  0  0  0  0  0  0  0  0
   -1.7844   -3.7372   -1.2781 H   0  0  0  0  0  0  0  0  0  0  0  0
   -1.8757   -2.7669    0.9791 H   0  0  0  0  0  0  0  0  0  0  0  0
   -0.8680   -4.2022    0.9939 H   0  0  0  0  0  0  0  0  0  0  0  0
    0.1523   -2.3137    2.2961 H   0  0  0  0  0  0  0  0  0  0  0  0
    1.1811   -2.8048    0.9572 H   0  0  0  0  0  0  0  0  0  0  0  0
   -0.7788   -0.4799    0.9036 H   0  0  0  0  0  0  0  0  0  0  0  0
    1.1902    0.4630    1.9740 H   0  0  0  0  0  0  0  0  0  0  0  0
    2.2566   -0.4935    0.9561 H   0  0  0  0  0  0  0  0  0  0  0  0
    0.7551    2.2329    0.3022 H   0  0  0  0  0  0  0  0  0  0  0  0
    2.2503    1.3281   -0.5123 H   0  0  0  0  0  0  0  0  0  0  0  0
    0.7652    0.6787   -2.2581 H   0  0  0  0  0  0  0  0  0  0  0  0
   -0.6365    0.9745   -1.2403 H   0  0  0  0  0  0  0  0  0  0  0  0
    1.1670   -1.4672   -1.1878 H   0  0  0  0  0  0  0  0  0  0  0  0
   -0.8629   -1.7986   -2.5802 H   0  0  0  0  0  0  0  0  0  0  0  0
   -1.8667   -1.2583   -1.2413 H   0  0  0  0  0  0  0  0  0  0  0  0
  1  2  1  0
  1  4  1  0
  1  5  1  0
  1  6  1  0
  2  3  1  0
  2  7  1  0
  3  8  1  0
  3  9  1  0
  3 10  1  0
 11 12  1  0
 11 19  1  0
 11 20  1  0
 11 21  1  0
 12 13  1  0
 12 22  1  0
 12 23  1  0
 13 14  1  0
 13 24  1  0
 13 25  1  0
 14 15  1  0
 14 18  1  0
 14 26  1  0
 15 16  1  0
 15 27  1  0
 15 28  1  0
 16 17  1  0
 16 29  1  0
 16 30  1  0
 17 18  1  0
 17 31  1  0
 17 32  1  0
 18 19  1  0
 18 33  1  0
 19 34  1  0
 19 35  1  0
M  RAD  1   2   2
M  END
>  <reaction>  (8) 
rxn_601

>  <mol_properties>  (8) 
{"0": {"label": "*4", "atom_type": "Cs"}, "1": {"label": "*3", "atom_type": "Cs"}, "14": {"label": "*0", "atom_type": "Cs"}, "15": {"label": "*1", "atom_type": "Cs"}, "28": {"label": "*2", "atom_type": "H0"}}

>  <type>  (8) 
unop_4

>  <geom_source>  (8) 
Heuristics

$$$$

     RDKit          3D

 35 35  0  0  0  0  0  0  0  0999 V2000
    0.0335    4.2626   -0.4782 C   0  0  0  0  0  0  0  0  0  0  0  0
    0.0639    3.2418    0.6521 C   0  0  0  0  0  3  0  0  0  0  0  0
    0.8785    3.7156    1.8489 C   0  0  0  0  0  0  0  0  0  0  0  0
    1.0428    4.4775   -0.8377 H   0  0  0  0  0  0  0  0  0  0  0  0
   -0.5541    3.9055   -1.3256 H   0  0  0  0  0  0  0  0  0  0  0  0
   -0.4038    5.2056   -0.1413 H   0  0  0  0  0  0  0  0  0  0  0  0
   -0.9586    3.0221    0.9717 H   0  0  0  0  0  0  0  0  0  0  0  0
    0.4677    4.6413    2.2591 H   0  0  0  0  0  0  0  0  0  0  0  0
    0.8884    2.9717    2.6473 H   0  0  0  0  0  0  0  0  0  0  0  0
    1.9144    3.9132    1.5627 H   0  0  0  0  0  0  0  0  0  0  0  0
   -1.1193   -3.2977   -1.0032 C   0  0  0  0  0  0  0  0  0  0  0  0
   -1.1193   -3.2977    0.5275 C   0  0  0  0  0  0  0  0  0  0  0  0
    0.0238   -2.4613    1.1094 C   0  0  0  0  0  0  0  0  0  0  0  0
   -0.0158   -1.0603    0.5253 C   0  0  0  0  0  0  0  0  0  0  0  0
    1.1032   -0.0865    0.8808 C   0  0  0  0  0  0  0  0  0  0  0  0
    1.0533    0.9840   -0.2379 C   0  0  0  0  0  0  0  0  0  0  0  0
    0.1598    0.3922   -1.3565 C   0  0  0  0  0  0  0  0  0  0  0  0
    0.0347   -1.0860   -1.0010 C   0  0  0  0  0  0  0  0  0  0  0  0
   -1.1193   -1.8813   -1.5851 C   0  0  0  0  0  0  0  0  0  0  0  0
   -0.2269   -3.8245   -1.3591 H   0  0  0  0  0  0  0  0  0  0  0  0
   -1.9802   -3.8588   -1.3739 H   0  0  0  0  0  0  0  0  0  0  0  0
   -2.0715   -2.8885    0.8834 H   0  0  0  0  0  0  0  0  0  0  0  0
   -1.0638   -4.3238    0.8982 H   0  0  0  0  0  0  0  0  0  0  0  0
   -0.0435   -2.4354    2.2003 H   0  0  0  0  0  0  0  0  0  0  0  0
    0.9853   -2.9264    0.8614 H   0  0  0  0  0  0  0  0  0  0  0  0
   -0.9746   -0.6015    0.8079 H   0  0  0  0  0  0  0  0  0  0  0  0
    0.9944    0.3414    1.8782 H   0  0  0  0  0  0  0  0  0  0  0  0
    2.0608   -0.6151    0.8603 H   0  0  0  0  0  0  0  0  0  0  0  0
    0.5593    2.1113    0.2065 H   0  0  0  0  0  0  0  0  0  0  0  0
    2.0545    1.2065   -0.6081 H   0  0  0  0  0  0  0  0  0  0  0  0
    0.5694    0.5570   -2.3539 H   0  0  0  0  0  0  0  0  0  0  0  0
   -0.8323    0.8529   -1.3360 H   0  0  0  0  0  0  0  0  0  0  0  0
    0.9711   -1.5888   -1.2836 H   0  0  0  0  0  0  0  0  0  0  0  0
   -1.0587   -1.9202   -2.6760 H   0  0  0  0  0  0  0  0  0  0  0  0
   -2.0625   -1.3799   -1.3371 H   0  0  0  0  0  0  0  0  0  0  0  0
  1  2  1  0
  1  4  1  0
  1  5  1  0
  1  6  1  0
  2  3  1  0
  2  7  1  0
  3  8  1  0
  3  9  1  0
  3 10  1  0
 11 12  1  0
 11 19  1  0
 11 20  1  0
 11 21  1  0
 12 13  1  0
 12 22  1  0
 12 23  1  0
 13 14  1  0
 13 24  1  0
 13 25  1  0
 14 15  1  0
 14 18  1  0
 14 26  1  0
 15 16  1  0
 15 27  1  0
 15 28  1  0
 16 17  1  0
 16 29  1  0
 16 30  1  0
 17 18  1  0
 17 31  1  0
 17 32  1  0
 18 19  1  0
 18 33  1  0
 19 34  1  0
 19 35  1  0
M  RAD  1   2   2
M  END
>  <reaction>  (9) 
rxn_601

>  <mol_properties>  (9) 
{"0": {"label": "*4", "atom_type": "Cs"}, "1": {"label": "*3", "atom_type": "Cs"}, "14": {"label": "*0", "atom_type": "Cs"}, "15": {"label": "*1", "atom_type": "Cs"}, "28": {"label": "*2", "atom_type": "H0"}}

>  <type>  (9) 
unop_5

>  <geom_source>  (9) 
Heuristics

$$$$

     RDKit          3D

 35 35  0  0  0  0  0  0  0  0999 V2000
   -1.3092    3.3386    0.6054 C   0  0  0  0  0  0  0  0  0  0  0  0
    0.2027    3.3388    0.7925 C   0  0  0  0  0  3  0  0  0  0  0  0
    0.9499    3.7508   -0.4694 C   0  0  0  0  0  0  0  0  0  0  0  0
   -1.6046    2.6465   -0.1869 H   0  0  0  0  0  0  0  0  0  0  0  0
   -1.8264    3.0412    1.5191 H   0  0  0  0  0  0  0  0  0  0  0  0
   -1.6683    4.3321    0.3258 H   0  0  0  0  0  0  0  0  0  0  0  0
    0.4682    4.0149    1.6099 H   0  0  0  0  0  0  0  0  0  0  0  0
    0.6620    4.7572   -0.7829 H   0  0  0  0  0  0  0  0  0  0  0  0
    2.0304    3.7449   -0.3158 H   0  0  0  0  0  0  0  0  0  0  0  0
    0.7256    3.0717   -1.2956 H   0  0  0  0  0  0  0  0  0  0  0  0
   -0.9806   -3.2006   -0.8628 C   0  0  0  0  0  0  0  0  0  0  0  0
   -0.9806   -3.2006    0.6679 C   0  0  0  0  0  0  0  0  0  0  0  0
    0.1626   -2.3642    1.2498 C   0  0  0  0  0  0  0  0  0  0  0  0
    0.1229   -0.9633    0.6657 C   0  0  0  0  0  0  0  0  0  0  0  0
    1.2420    0.0105    1.0212 C   0  0  0  0  0  0  0  0  0  0  0  0
    1.1920    1.0811   -0.0974 C   0  0  0  0  0  0  0  0  0  0  0  0
    0.2986    0.4892   -1.2161 C   0  0  0  0  0  0  0  0  0  0  0  0
    0.1735   -0.9889   -0.8606 C   0  0  0  0  0  0  0  0  0  0  0  0
   -0.9806   -1.7842   -1.4447 C   0  0  0  0  0  0  0  0  0  0  0  0
   -0.0881   -3.7274   -1.2187 H   0  0  0  0  0  0  0  0  0  0  0  0
   -1.8414   -3.7617   -1.2335 H   0  0  0  0  0  0  0  0  0  0  0  0
   -1.9327   -2.7915    1.0238 H   0  0  0  0  0  0  0  0  0  0  0  0
   -0.9250   -4.2267    1.0386 H   0  0  0  0  0  0  0  0  0  0  0  0
    0.0953   -2.3383    2.3407 H   0  0  0  0  0  0  0  0  0  0  0  0
    1.1241   -2.8294    1.0018 H   0  0  0  0  0  0  0  0  0  0  0  0
   -0.8358   -0.5044    0.9483 H   0  0  0  0  0  0  0  0  0  0  0  0
    1.1332    0.4385    2.0186 H   0  0  0  0  0  0  0  0  0  0  0  0
    2.1996   -0.5180    1.0008 H   0  0  0  0  0  0  0  0  0  0  0  0
    0.6981    2.2083    0.3469 H   0  0  0  0  0  0  0  0  0  0  0  0
    2.1932    1.3036   -0.4677 H   0  0  0  0  0  0  0  0  0  0  0  0
    0.7082    0.6541   -2.2135 H   0  0  0  0  0  0  0  0  0  0  0  0
   -0.6935    0.9500   -1.1956 H   0  0  0  0  0  0  0  0  0  0  0  0
    1.1099   -1.4917   -1.1432 H   0  0  0  0  0  0  0  0  0  0  0  0
   -0.9199   -1.8232   -2.5356 H   0  0  0  0  0  0  0  0  0  0  0  0
   -1.9237   -1.2829   -1.1967 H   0  0  0  0  0  0  0  0  0  0  0  0
  1  2  1  0
  1  4  1  0
  1  5  1  0
  1  6  1  0
  2  3  1  0
  2  7  1  0
  3  8  1  0
  3  9  1  0
  3 10  1  0
 11 12  1  0
 11 19  1  0
 11 20  1  0
 11 21  1  0
 12 13  1  0
 12 22  1  0
 12 23  1  0
 13 14  1  0
 13 24  1  0
 13 25  1  0
 14 15  1  0
 14 18  1  0
 14 26  1  0
 15 16  1  0
 15 27  1  0
 15 28  1  0
 16 17  1  0
 16 29  1  0
 16 30  1  0
 17 18  1  0
 17 31  1  0
 17 32  1  0
 18 19  1  0
 18 33  1  0
 19 34  1  0
 19 35  1  0
M  RAD  1   2   2
M  END
>  <reaction>  (10) 
rxn_601

>  <mol_properties>  (10) 
{"0": {"label": "*4", "atom_type": "Cs"}, "1": {"label": "*3", "atom_type": "Cs"}, "14": {"label": "*0", "atom_type": "Cs"}, "15": {"label": "*1", "atom_type": "Cs"}, "28": {"label": "*2", "atom_type": "H0"}}

>  <type>  (10) 
unop_6

>  <geom_source>  (10) 
Heuristics

$$$$

     RDKit          3D

 35 35  0  0  0  0  0  0  0  0999 V2000
   -1.1245    3.6558    0.0061 C   0  0  0  0  0  0  0  0  0  0  0  0
    0.1299    3.3055    0.7963 C   0  0  0  0  0  3  0  0  0  0  0  0
    1.4086    3.7322    0.0867 C   0  0  0  0  0  0  0  0  0  0  0  0
   -1.1186    3.1689   -0.9721 H   0  0  0  0  0  0  0  0  0  0  0  0
   -2.0291    3.3426    0.5299 H   0  0  0  0  0  0  0  0  0  0  0  0
   -1.1916    4.7333   -0.1627 H   0  0  0  0  0  0  0  0  0  0  0  0
    0.0843    3.7795    1.7806 H   0  0  0  0  0  0  0  0  0  0  0  0
    1.4213    4.8121   -0.0796 H   0  0  0  0  0  0  0  0  0  0  0  0
    2.2953    3.4730    0.6676 H   0  0  0  0  0  0  0  0  0  0  0  0
    1.4942    3.2477   -0.8890 H   0  0  0  0  0  0  0  0  0  0  0  0
   -1.0533   -3.2340   -0.8590 C   0  0  0  0  0  0  0  0  0  0  0  0
   -1.0533   -3.2340    0.6716 C   0  0  0  0  0  0  0  0  0  0  0  0
    0.0898   -2.3976    1.2536 C   0  0  0  0  0  0  0  0  0  0  0  0
    0.0502   -0.9966    0.6695 C   0  0  0  0  0  0  0  0  0  0  0  0
    1.1692   -0.0228    1.0250 C   0  0  0  0  0  0  0  0  0  0  0  0
    1.1193    1.0477   -0.0937 C   0  0  0  0  0  0  0  0  0  0  0  0
    0.2258    0.4559   -1.2123 C   0  0  0  0  0  0  0  0  0  0  0  0
    0.1007   -1.0222   -0.8568 C   0  0  0  0  0  0  0  0  0  0  0  0
   -1.0533   -1.8176   -1.4409 C   0  0  0  0  0  0  0  0  0  0  0  0
   -0.1609   -3.7608   -1.2149 H   0  0  0  0  0  0  0  0  0  0  0  0
   -1.9142   -3.7951   -1.2297 H   0  0  0  0  0  0  0  0  0  0  0  0
   -2.0055   -2.8248    1.0276 H   0  0  0  0  0  0  0  0  0  0  0  0
   -0.9978   -4.2601    1.0424 H   0  0  0  0  0  0  0  0  0  0  0  0
    0.0225   -2.3716    2.3445 H   0  0  0  0  0  0  0  0  0  0  0  0
    1.0513   -2.8627    1.0056 H   0  0  0  0  0  0  0  0  0  0  0  0
   -0.9086   -0.5378    0.9521 H   0  0  0  0  0  0  0  0  0  0  0  0
    1.0604    0.4051    2.0224 H   0  0  0  0  0  0  0  0  0  0  0  0
    2.1269   -0.5514    1.0045 H   0  0  0  0  0  0  0  0  0  0  0  0
    0.6253    2.1750    0.3507 H   0  0  0  0  0  0  0  0  0  0  0  0
    2.1205    1.2702   -0.4639 H   0  0  0  0  0  0  0  0  0  0  0  0
    0.6354    0.6208   -2.2097 H   0  0  0  0  0  0  0  0  0  0  0  0
   -0.7662    0.9166   -1.1919 H   0  0  0  0  0  0  0  0  0  0  0  0
    1.0372   -1.5251   -1.1394 H   0  0  0  0  0  0  0  0  0  0  0  0
   -0.9927   -1.8565   -2.5318 H   0  0  0  0  0  0  0  0  0  0  0  0
   -1.9965   -1.3162   -1.1929 H   0  0  0  0  0  0  0  0  0  0  0  0
  1  2  1  0
  1  4  1  0
  1  5  1  0
  1  6  1  0
  2  3  1  0
  2  7  1  0
  3  8  1  0
  3  9  1  0
  3 10  1  0
 11 12  1  0
 11 19  1  0
 11 20  1  0
 11 21  1  0
 12 13  1  0
 12 22  1  0
 12 23  1  0
 13 14  1  0
 13 24  1  0
 13 25  1  0
 14 15  1  0
 14 18  1  0
 14 26  1  0
 15 16  1  0
 15 27  1  0
 15 28  1  0
 16 17  1  0
 16 29  1  0
 16 30  1  0
 17 18  1  0
 17 31  1  0
 17 32  1  0
 18 19  1  0
 18 33  1  0
 19 34  1  0
 19 35  1  0
M  RAD  1   2   2
M  END
>  <reaction>  (11) 
rxn_601

>  <mol_properties>  (11) 
{"0": {"label": "*4", "atom_type": "Cs"}, "1": {"label": "*3", "atom_type": "Cs"}, "14": {"label": "*0", "atom_type": "Cs"}, "15": {"label": "*1", "atom_type": "Cs"}, "28": {"label": "*2", "atom_type": "H0"}}

>  <type>  (11) 
unop_7

>  <geom_source>  (11) 
Heuristics

$$$$

     RDKit          3D

 35 35  0  0  0  0  0  0  0  0999 V2000
    1.2833    4.1329    1.0982 C   0  0  0  0  0  0  0  0  0  0  0  0
    0.1544    3.2591    0.5668 C   0  0  0  0  0  3  0  0  0  0  0  0
   -1.2115    3.6807    1.0932 C   0  0  0  0  0  0  0  0  0  0  0  0
    1.3293    4.0909    2.1891 H   0  0  0  0  0  0  0  0  0  0  0  0
    2.2528    3.8157    0.7103 H   0  0  0  0  0  0  0  0  0  0  0  0
    1.1351    5.1778    0.8148 H   0  0  0  0  0  0  0  0  0  0  0  0
    0.1501    3.2947   -0.5262 H   0  0  0  0  0  0  0  0  0  0  0  0
   -1.4384    4.7113    0.8096 H   0  0  0  0  0  0  0  0  0  0  0  0
   -2.0064    3.0436    0.7018 H   0  0  0  0  0  0  0  0  0  0  0  0
   -1.2441    3.6245    2.1840 H   0  0  0  0  0  0  0  0  0  0  0  0
   -1.0289   -3.2804   -1.0884 C   0  0  0  0  0  0  0  0  0  0  0  0
   -1.0289   -3.2804    0.4422 C   0  0  0  0  0  0  0  0  0  0  0  0
    0.1143   -2.4440    1.0241 C   0  0  0  0  0  0  0  0  0  0  0  0
    0.0747   -1.0430    0.4400 C   0  0  0  0  0  0  0  0  0  0  0  0
    1.1937   -0.0692    0.7955 C   0  0  0  0  0  0  0  0  0  0  0  0
    1.1437    1.0013   -0.3231 C   0  0  0  0  0  0  0  0  0  0  0  0
    0.2503    0.4095   -1.4418 C   0  0  0  0  0  0  0  0  0  0  0  0
    0.1252   -1.0687   -1.0863 C   0  0  0  0  0  0  0  0  0  0  0  0
   -1.0289   -1.8640   -1.6704 C   0  0  0  0  0  0  0  0  0  0  0  0
   -0.1364   -3.8072   -1.4444 H   0  0  0  0  0  0  0  0  0  0  0  0
   -1.8897   -3.8415   -1.4592 H   0  0  0  0  0  0  0  0  0  0  0  0
   -1.9810   -2.8712    0.7981 H   0  0  0  0  0  0  0  0  0  0  0  0
   -0.9733   -4.3065    0.8129 H   0  0  0  0  0  0  0  0  0  0  0  0
    0.0470   -2.4181    2.1150 H   0  0  0  0  0  0  0  0  0  0  0  0
    1.0758   -2.9091    0.7761 H   0  0  0  0  0  0  0  0  0  0  0  0
   -0.8841   -0.5842    0.7226 H   0  0  0  0  0  0  0  0  0  0  0  0
    1.0849    0.3587    1.7929 H   0  0  0  0  0  0  0  0  0  0  0  0
    2.1513   -0.5978    0.7751 H   0  0  0  0  0  0  0  0  0  0  0  0
    0.6498    2.1286    0.1212 H   0  0  0  0  0  0  0  0  0  0  0  0
    2.1449    1.2238   -0.6934 H   0  0  0  0  0  0  0  0  0  0  0  0
    0.6599    0.5743   -2.4392 H   0  0  0  0  0  0  0  0  0  0  0  0
   -0.7418    0.8702   -1.4213 H   0  0  0  0  0  0  0  0  0  0  0  0
    1.0616   -1.5715   -1.3689 H   0  0  0  0  0  0  0  0  0  0  0  0
   -0.9682   -1.9029   -2.7613 H   0  0  0  0  0  0  0  0  0  0  0  0
   -1.9720   -1.3626   -1.4224 H   0  0  0  0  0  0  0  0  0  0  0  0
  1  2  1  0
  1  4  1  0
  1  5  1  0
  1  6  1  0
  2  3  1  0
  2  7  1  0
  3  8  1  0
  3  9  1  0
  3 10  1  0
 11 12  1  0
 11 19  1  0
 11 20  1  0
 11 21  1  0
 12 13  1  0
 12 22  1  0
 12 23  1  0
 13 14  1  0
 13 24  1  0
 13 25  1  0
 14 15  1  0
 14 18  1  0
 14 26  1  0
 15 16  1  0
 15 27  1  0
 15 28  1  0
 16 17  1  0
 16 29  1  0
 16 30  1  0
 17 18  1  0
 17 31  1  0
 17 32  1  0
 18 19  1  0
 18 33  1  0
 19 34  1  0
 19 35  1  0
M  RAD  1   2   2
M  END
>  <reaction>  (12) 
rxn_601

>  <mol_properties>  (12) 
{"0": {"label": "*4", "atom_type": "Cs"}, "1": {"label": "*3", "atom_type": "Cs"}, "14": {"label": "*0", "atom_type": "Cs"}, "15": {"label": "*1", "atom_type": "Cs"}, "28": {"label": "*2", "atom_type": "H0"}}

>  <type>  (12) 
unop_8

>  <geom_source>  (12) 
Heuristics

$$$$

     RDKit          3D

 35 35  0  0  0  0  0  0  0  0999 V2000
   -0.7045    3.0828    1.7971 C   0  0  0  0  0  0  0  0  0  0  0  0
    0.2866    3.3702    0.6766 C   0  0  0  0  0  3  0  0  0  0  0  0
   -0.3991    3.7286   -0.6356 C   0  0  0  0  0  0  0  0  0  0  0  0
   -1.3592    2.2481    1.5350 H   0  0  0  0  0  0  0  0  0  0  0  0
   -0.1949    2.8283    2.7280 H   0  0  0  0  0  0  0  0  0  0  0  0
   -1.3391    3.9513    1.9896 H   0  0  0  0  0  0  0  0  0  0  0  0
    0.9482    4.1875    0.9766 H   0  0  0  0  0  0  0  0  0  0  0  0
   -1.0241    4.6174   -0.5198 H   0  0  0  0  0  0  0  0  0  0  0  0
    0.3265    3.9308   -1.4253 H   0  0  0  0  0  0  0  0  0  0  0  0
   -1.0442    2.9143   -0.9744 H   0  0  0  0  0  0  0  0  0  0  0  0
   -0.8966   -3.1692   -0.9786 C   0  0  0  0  0  0  0  0  0  0  0  0
   -0.8966   -3.1692    0.5520 C   0  0  0  0  0  0  0  0  0  0  0  0
    0.2465   -2.3328    1.1340 C   0  0  0  0  0  0  0  0  0  0  0  0
    0.2069   -0.9319    0.5499 C   0  0  0  0  0  0  0  0  0  0  0  0
    1.3259    0.0419    0.9053 C   0  0  0  0  0  0  0  0  0  0  0  0
    1.2760    1.1125   -0.2133 C   0  0  0  0  0  0  0  0  0  0  0  0
    0.3825    0.5206   -1.3319 C   0  0  0  0  0  0  0  0  0  0  0  0
    0.2574   -0.9575   -0.9765 C   0  0  0  0  0  0  0  0  0  0  0  0
   -0.8966   -1.7528   -1.5606 C   0  0  0  0  0  0  0  0  0  0  0  0
   -0.0042   -3.6960   -1.3345 H   0  0  0  0  0  0  0  0  0  0  0  0
   -1.7575   -3.7303   -1.3493 H   0  0  0  0  0  0  0  0  0  0  0  0
   -1.8488   -2.7601    0.9079 H   0  0  0  0  0  0  0  0  0  0  0  0
   -0.8411   -4.1953    0.9227 H   0  0  0  0  0  0  0  0  0  0  0  0
    0.1792   -2.3069    2.2248 H   0  0  0  0  0  0  0  0  0  0  0  0
    1.2080   -2.7980    0.8859 H   0  0  0  0  0  0  0  0  0  0  0  0
   -0.7519   -0.4730    0.8324 H   0  0  0  0  0  0  0  0  0  0  0  0
    1.2171    0.4699    1.9027 H   0  0  0  0  0  0  0  0  0  0  0  0
    2.2836   -0.4866    0.8849 H   0  0  0  0  0  0  0  0  0  0  0  0
    0.7820    2.2397    0.2310 H   0  0  0  0  0  0  0  0  0  0  0  0
    2.2772    1.3350   -0.5836 H   0  0  0  0  0  0  0  0  0  0  0  0
    0.7921    0.6855   -2.3293 H   0  0  0  0  0  0  0  0  0  0  0  0
   -0.6095    0.9814   -1.3115 H   0  0  0  0  0  0  0  0  0  0  0  0
    1.1939   -1.4603   -1.2590 H   0  0  0  0  0  0  0  0  0  0  0  0
   -0.8360   -1.7918   -2.6514 H   0  0  0  0  0  0  0  0  0  0  0  0
   -1.8398   -1.2515   -1.3125 H   0  0  0  0  0  0  0  0  0  0  0  0
  1  2  1  0
  1  4  1  0
  1  5  1  0
  1  6  1  0
  2  3  1  0
  2  7  1  0
  3  8  1  0
  3  9  1  0
  3 10  1  0
 11 12  1  0
 11 19  1  0
 11 20  1  0
 11 21  1  0
 12 13  1  0
 12 22  1  0
 12 23  1  0
 13 14  1  0
 13 24  1  0
 13 25  1  0
 14 15  1  0
 14 18  1  0
 14 26  1  0
 15 16  1  0
 15 27  1  0
 15 28  1  0
 16 17  1  0
 16 29  1  0
 16 30  1  0
 17 18  1  0
 17 31  1  0
 17 32  1  0
 18 19  1  0
 18 33  1  0
 19 34  1  0
 19 35  1  0
M  RAD  1   2   2
M  END
>  <reaction>  (13) 
rxn_601

>  <mol_properties>  (13) 
{"0": {"label": "*4", "atom_type": "Cs"}, "1": {"label": "*3", "atom_type": "Cs"}, "14": {"label": "*0", "atom_type": "Cs"}, "15": {"label": "*1", "atom_type": "Cs"}, "28": {"label": "*2", "atom_type": "H0"}}

>  <type>  (13) 
unop_9

>  <geom_source>  (13) 
Heuristics

$$$$

     RDKit          3D

 35 35  0  0  0  0  0  0  0  0999 V2000
    1.0548    3.8081    1.6840 C   0  0  0  0  0  0  0  0  0  0  0  0
    0.1833    3.2848    0.5495 C   0  0  0  0  0  3  0  0  0  0  0  0
   -1.2584    3.7671    0.6467 C   0  0  0  0  0  0  0  0  0  0  0  0
    0.6694    3.4844    2.6539 H   0  0  0  0  0  0  0  0  0  0  0  0
    2.0828    3.4523    1.5972 H   0  0  0  0  0  0  0  0  0  0  0  0
    1.0779    4.9006    1.6869 H   0  0  0  0  0  0  0  0  0  0  0  0
    0.6076    3.5966   -0.4089 H   0  0  0  0  0  0  0  0  0  0  0  0
   -1.3082    4.8583    0.6168 H   0  0  0  0  0  0  0  0  0  0  0  0
   -1.8663    3.3822   -0.1738 H   0  0  0  0  0  0  0  0  0  0  0  0
   -1.7167    3.4420    1.5839 H   0  0  0  0  0  0  0  0  0  0  0  0
   -0.9999   -3.2546   -1.1057 C   0  0  0  0  0  0  0  0  0  0  0  0
   -0.9999   -3.2546    0.4249 C   0  0  0  0  0  0  0  0  0  0  0  0
    0.1432   -2.4182    1.0069 C   0  0  0  0  0  0  0  0  0  0  0  0
    0.1036   -1.0172    0.4228 C   0  0  0  0  0  0  0  0  0  0  0  0
    1.2227   -0.0435    0.7782 C   0  0  0  0  0  0  0  0  0  0  0  0
    1.1727    1.0271   -0.3404 C   0  0  0  0  0  0  0  0  0  0  0  0
    0.2792    0.4352   -1.4590 C   0  0  0  0  0  0  0  0  0  0  0  0
    0.1541   -1.0429   -1.1036 C   0  0  0  0  0  0  0  0  0  0  0  0
   -0.9999   -1.8382   -1.6877 C   0  0  0  0  0  0  0  0  0  0  0  0
   -0.1075   -3.7814   -1.4616 H   0  0  0  0  0  0  0  0  0  0  0  0
   -1.8608   -3.8157   -1.4764 H   0  0  0  0  0  0  0  0  0  0  0  0
   -1.9520   -2.8455    0.7808 H   0  0  0  0  0  0  0  0  0  0  0  0
   -0.9444   -4.2807    0.7956 H   0  0  0  0  0  0  0  0  0  0  0  0
    0.0760   -2.3923    2.0977 H   0  0  0  0  0  0  0  0  0  0  0  0
    1.1047   -2.8834    0.7588 H   0  0  0  0  0  0  0  0  0  0  0  0
   -0.8552   -0.5584    0.7053 H   0  0  0  0  0  0  0  0  0  0  0  0
    1.1138    0.3845    1.7756 H   0  0  0  0  0  0  0  0  0  0  0  0
    2.1803   -0.5720    0.7578 H   0  0  0  0  0  0  0  0  0  0  0  0
    0.6787    2.1543    0.1039 H   0  0  0  0  0  0  0  0  0  0  0  0
    2.1739    1.2496   -0.7107 H   0  0  0  0  0  0  0  0  0  0  0  0
    0.6888    0.6001   -2.4565 H   0  0  0  0  0  0  0  0  0  0  0  0
   -0.7128    0.8960   -1.4386 H   0  0  0  0  0  0  0  0  0  0  0  0
    1.0906   -1.5457   -1.3861 H   0  0  0  0  0  0  0  0  0  0  0  0
   -0.9393   -1.8772   -2.7785 H   0  0  0  0  0  0  0  0  0  0  0  0
   -1.9431   -1.3369   -1.4396 H   0  0  0  0  0  0  0  0  0  0  0  0
  1  2  1  0
  1  4  1  0
  1  5  1  0
  1  6  1  0
  2  3  1  0
  2  7  1  0
  3  8  1  0
  3  9  1  0
  3 10  1  0
 11 12  1  0
 11 19  1  0
 11 20  1  0
 11 21  1  0
 12 13  1  0
 12 22  1  0
 12 23  1  0
 13 14  1  0
 13 24  1  0
 13 25  1  0
 14 15  1  0
 14 18  1  0
 14 26  1  0
 15 16  1  0
 15 27  1  0
 15 28  1  0
 16 17  1  0
 16 29  1  0
 16 30  1  0
 17 18  1  0
 17 31  1  0
 17 32  1  0
 18 19  1  0
 18 33  1  0
 19 34  1  0
 19 35  1  0
M  RAD  1   2   2
M  END
>  <reaction>  (14) 
rxn_601

>  <mol_properties>  (14) 
{"0": {"label": "*4", "atom_type": "Cs"}, "1": {"label": "*3", "atom_type": "Cs"}, "14": {"label": "*0", "atom_type": "Cs"}, "15": {"label": "*1", "atom_type": "Cs"}, "28": {"label": "*2", "atom_type": "H0"}}

>  <type>  (14) 
unop_10

>  <geom_source>  (14) 
Heuristics

$$$$

     RDKit          3D

 35 35  0  0  0  0  0  0  0  0999 V2000
   -0.6462    3.9936   -0.3894 C   0  0  0  0  0  0  0  0  0  0  0  0
    0.0659    3.2695    0.7460 C   0  0  0  0  0  3  0  0  0  0  0  0
    1.5105    3.7221    0.9158 C   0  0  0  0  0  0  0  0  0  0  0  0
   -0.1386    3.8215   -1.3416 H   0  0  0  0  0  0  0  0  0  0  0  0
   -1.6787    3.6563   -0.4952 H   0  0  0  0  0  0  0  0  0  0  0  0
   -0.6628    5.0722   -0.2153 H   0  0  0  0  0  0  0  0  0  0  0  0
   -0.4788    3.4327    1.6801 H   0  0  0  0  0  0  0  0  0  0  0  0
    1.5619    4.7921    1.1310 H   0  0  0  0  0  0  0  0  0  0  0  0
    2.0033    3.1927    1.7330 H   0  0  0  0  0  0  0  0  0  0  0  0
    2.0861    3.5414    0.0047 H   0  0  0  0  0  0  0  0  0  0  0  0
   -1.1173   -3.2699   -0.9092 C   0  0  0  0  0  0  0  0  0  0  0  0
   -1.1173   -3.2699    0.6214 C   0  0  0  0  0  0  0  0  0  0  0  0
    0.0258   -2.4335    1.2034 C   0  0  0  0  0  0  0  0  0  0  0  0
   -0.0138   -1.0325    0.6193 C   0  0  0  0  0  0  0  0  0  0  0  0
    1.1052   -0.0588    0.9747 C   0  0  0  0  0  0  0  0  0  0  0  0
    1.0553    1.0118   -0.1439 C   0  0  0  0  0  0  0  0  0  0  0  0
    0.1618    0.4200   -1.2625 C   0  0  0  0  0  0  0  0  0  0  0  0
    0.0367   -1.0582   -0.9071 C   0  0  0  0  0  0  0  0  0  0  0  0
   -1.1173   -1.8535   -1.4912 C   0  0  0  0  0  0  0  0  0  0  0  0
   -0.2249   -3.7967   -1.2651 H   0  0  0  0  0  0  0  0  0  0  0  0
   -1.9782   -3.8310   -1.2799 H   0  0  0  0  0  0  0  0  0  0  0  0
   -2.0695   -2.8608    0.9773 H   0  0  0  0  0  0  0  0  0  0  0  0
   -1.0618   -4.2960    0.9921 H   0  0  0  0  0  0  0  0  0  0  0  0
   -0.0415   -2.4076    2.2943 H   0  0  0  0  0  0  0  0  0  0  0  0
    0.9873   -2.8987    0.9554 H   0  0  0  0  0  0  0  0  0  0  0  0
   -0.9726   -0.5737    0.9018 H   0  0  0  0  0  0  0  0  0  0  0  0
    0.9964    0.3692    1.9722 H   0  0  0  0  0  0  0  0  0  0  0  0
    2.0629   -0.5873    0.9543 H   0  0  0  0  0  0  0  0  0  0  0  0
    0.5613    2.1391    0.3004 H   0  0  0  0  0  0  0  0  0  0  0  0
    2.0565    1.2343   -0.5141 H   0  0  0  0  0  0  0  0  0  0  0  0
    0.5714    0.5848   -2.2599 H   0  0  0  0  0  0  0  0  0  0  0  0
   -0.8302    0.8807   -1.2421 H   0  0  0  0  0  0  0  0  0  0  0  0
    0.9732   -1.5610   -1.1896 H   0  0  0  0  0  0  0  0  0  0  0  0
   -1.0567   -1.8924   -2.5820 H   0  0  0  0  0  0  0  0  0  0  0  0
   -2.0605   -1.3522   -1.2431 H   0  0  0  0  0  0  0  0  0  0  0  0
  1  2  1  0
  1  4  1  0
  1  5  1  0
  1  6  1  0
  2  3  1  0
  2  7  1  0
  3  8  1  0
  3  9  1  0
  3 10  1  0
 11 12  1  0
 11 19  1  0
 11 20  1  0
 11 21  1  0
 12 13  1  0
 12 22  1  0
 12 23  1  0
 13 14  1  0
 13 24  1  0
 13 25  1  0
 14 15  1  0
 14 18  1  0
 14 26  1  0
 15 16  1  0
 15 27  1  0
 15 28  1  0
 16 17  1  0
 16 29  1  0
 16 30  1  0
 17 18  1  0
 17 31  1  0
 17 32  1  0
 18 19  1  0
 18 33  1  0
 19 34  1  0
 19 35  1  0
M  RAD  1   2   2
M  END
>  <reaction>  (15) 
rxn_601

>  <mol_properties>  (15) 
{"0": {"label": "*4", "atom_type": "Cs"}, "1": {"label": "*3", "atom_type": "Cs"}, "14": {"label": "*0", "atom_type": "Cs"}, "15": {"label": "*1", "atom_type": "Cs"}, "28": {"label": "*2", "atom_type": "H0"}}

>  <type>  (15) 
unop_11

>  <geom_source>  (15) 
Heuristics

$$$$

     RDKit          3D

 35 35  0  0  0  0  0  0  0  0999 V2000
   -0.0787    3.2063    2.0767 C   0  0  0  0  0  0  0  0  0  0  0  0
    0.2738    3.3535    0.6021 C   0  0  0  0  0  3  0  0  0  0  0  0
   -0.9237    3.7533   -0.2504 C   0  0  0  0  0  0  0  0  0  0  0  0
   -0.8479    2.4436    2.2203 H   0  0  0  0  0  0  0  0  0  0  0  0
    0.7910    2.9198    2.6705 H   0  0  0  0  0  0  0  0  0  0  0  0
   -0.4658    4.1447    2.4814 H   0  0  0  0  0  0  0  0  0  0  0  0
    1.0658    4.0991    0.4898 H   0  0  0  0  0  0  0  0  0  0  0  0
   -1.3374    4.7089    0.0809 H   0  0  0  0  0  0  0  0  0  0  0  0
   -0.6516    3.8536   -1.3024 H   0  0  0  0  0  0  0  0  0  0  0  0
   -1.7195    3.0078   -0.1802 H   0  0  0  0  0  0  0  0  0  0  0  0
   -0.9094   -3.1860   -1.0531 C   0  0  0  0  0  0  0  0  0  0  0  0
   -0.9094   -3.1860    0.4775 C   0  0  0  0  0  0  0  0  0  0  0  0
    0.2337   -2.3496    1.0595 C   0  0  0  0  0  0  0  0  0  0  0  0
    0.1941   -0.9486    0.4754 C   0  0  0  0  0  0  0  0  0  0  0  0
    1.3132    0.0252    0.8308 C   0  0  0  0  0  0  0  0  0  0  0  0
    1.2632    1.0957   -0.2878 C   0  0  0  0  0  0  0  0  0  0  0  0
    0.3697    0.5039   -1.4064 C   0  0  0  0  0  0  0  0  0  0  0  0
    0.2446   -0.9743   -1.0510 C   0  0  0  0  0  0  0  0  0  0  0  0
   -0.9094   -1.7696   -1.6351 C   0  0  0  0  0  0  0  0  0  0  0  0
   -0.0170   -3.7128   -1.4090 H   0  0  0  0  0  0  0  0  0  0  0  0
   -1.7703   -3.7471   -1.4238 H   0  0  0  0  0  0  0  0  0  0  0  0
   -1.8615   -2.7768    0.8334 H   0  0  0  0  0  0  0  0  0  0  0  0
   -0.8539   -4.2121    0.8482 H   0  0  0  0  0  0  0  0  0  0  0  0
    0.1665   -2.3237    2.1503 H   0  0  0  0  0  0  0  0  0  0  0  0
    1.1952   -2.8147    0.8114 H   0  0  0  0  0  0  0  0  0  0  0  0
   -0.7647   -0.4898    0.7579 H   0  0  0  0  0  0  0  0  0  0  0  0
    1.2043    0.4531    1.8282 H   0  0  0  0  0  0  0  0  0  0  0  0
    2.2708   -0.5034    0.8104 H   0  0  0  0  0  0  0  0  0  0  0  0
    0.7692    2.2230    0.1565 H   0  0  0  0  0  0  0  0  0  0  0  0
    2.2644    1.3182   -0.6581 H   0  0  0  0  0  0  0  0  0  0  0  0
    0.7793    0.6687   -2.4039 H   0  0  0  0  0  0  0  0  0  0  0  0
   -0.6223    0.9646   -1.3860 H   0  0  0  0  0  0  0  0  0  0  0  0
    1.1811   -1.4771   -1.3335 H   0  0  0  0  0  0  0  0  0  0  0  0
   -0.8488   -1.8085   -2.7260 H   0  0  0  0  0  0  0  0  0  0  0  0
   -1.8526   -1.2682   -1.3871 H   0  0  0  0  0  0  0  0  0  0  0  0
  1  2  1  0
  1  4  1  0
  1  5  1  0
  1  6  1  0
  2  3  1  0
  2  7  1  0
  3  8  1  0
  3  9  1  0
  3 10  1  0
 11 12  1  0
 11 19  1  0
 11 20  1  0
 11 21  1  0
 12 13  1  0
 12 22  1  0
 12 23  1  0
 13 14  1  0
 13 24  1  0
 13 25  1  0
 14 15  1  0
 14 18  1  0
 14 26  1  0
 15 16  1  0
 15 27  1  0
 15 28  1  0
 16 17  1  0
 16 29  1  0
 16 30  1  0
 17 18  1  0
 17 31  1  0
 17 32  1  0
 18 19  1  0
 18 33  1  0
 19 34  1  0
 19 35  1  0
M  RAD  1   2   2
M  END
>  <reaction>  (16) 
rxn_601

>  <mol_properties>  (16) 
{"0": {"label": "*4", "atom_type": "Cs"}, "1": {"label": "*3", "atom_type": "Cs"}, "14": {"label": "*0", "atom_type": "Cs"}, "15": {"label": "*1", "atom_type": "Cs"}, "28": {"label": "*2", "atom_type": "H0"}}

>  <type>  (16) 
unop_12

>  <geom_source>  (16) 
Heuristics

$$$$

     RDKit          3D

 35 35  0  0  0  0  0  0  0  0999 V2000
   -1.4995   -0.3469    1.2254 C   0  0  0  0  0  0  0  0  0  0  0  0
   -1.4124   -1.3696    0.0722 C   0  0  0  0  0  0  0  0  0  0  0  0
   -2.8436    0.4060    1.2963 C   0  0  0  0  0  0  0  0  0  0  0  0
   -2.5429   -1.2193   -0.9716 C   0  0  0  0  0  0  0  0  0  0  0  0
   -3.2654    1.0491   -0.0398 C   0  0  0  0  0  0  0  0  0  0  0  0
   -2.8319    0.2530   -1.2862 C   0  0  0  0  0  0  0  0  0  0  0  0
    3.1679    0.1846   -0.4203 C   0  0  0  0  0  0  0  0  0  0  0  0
   -0.2977    0.5810    1.0623 C   0  0  0  0  0  0  0  0  0  0  0  0
   -0.0147   -1.1971   -0.5470 C   0  0  0  0  0  0  0  0  0  0  0  0
    3.5148    1.6415   -0.7060 C   0  0  0  0  0  0  0  0  0  0  0  0
    4.2785   -0.5078    0.3620 C   0  0  0  0  0  0  0  0  0  0  0  0
    0.7556   -0.2519    0.3606 C   0  0  0  0  0  3  0  0  0  0  0  0
   -1.3690   -0.8952    2.1866 H   0  0  0  0  0  0  0  0  0  0  0  0
   -1.4816   -2.3961    0.4986 H   0  0  0  0  0  0  0  0  0  0  0  0
    3.0055   -0.3504   -1.3808 H   0  0  0  0  0  0  0  0  0  0  0  0
    2.0455    0.1359    0.2844 H   0  0  0  0  0  0  0  0  0  0  0  0
   -3.6292   -0.3193    1.6032 H   0  0  0  0  0  0  0  0  0  0  0  0
   -2.7975    1.1865    2.0867 H   0  0  0  0  0  0  0  0  0  0  0  0
   -4.3722    1.1567   -0.0412 H   0  0  0  0  0  0  0  0  0  0  0  0
   -2.8448    2.0762   -0.1042 H   0  0  0  0  0  0  0  0  0  0  0  0
   -1.9241    0.7211   -1.7239 H   0  0  0  0  0  0  0  0  0  0  0  0
   -3.6307    0.3113   -2.0570 H   0  0  0  0  0  0  0  0  0  0  0  0
   -2.2752   -1.7578   -1.9068 H   0  0  0  0  0  0  0  0  0  0  0  0
   -3.4702   -1.6913   -0.5785 H   0  0  0  0  0  0  0  0  0  0  0  0
    0.0692    0.9484    2.0453 H   0  0  0  0  0  0  0  0  0  0  0  0
   -0.5395    1.4526    0.4178 H   0  0  0  0  0  0  0  0  0  0  0  0
    0.5096   -2.1741   -0.6292 H   0  0  0  0  0  0  0  0  0  0  0  0
   -0.0613   -0.7431   -1.5598 H   0  0  0  0  0  0  0  0  0  0  0  0
    3.6562    2.1962    0.2458 H   0  0  0  0  0  0  0  0  0  0  0  0
    2.6851    2.1141   -1.2721 H   0  0  0  0  0  0  0  0  0  0  0  0
    4.4433    1.7063   -1.3124 H   0  0  0  0  0  0  0  0  0  0  0  0
    3.9915   -1.5626    0.5548 H   0  0  0  0  0  0  0  0  0  0  0  0
    5.2257   -0.4956   -0.2183 H   0  0  0  0  0  0  0  0  0  0  0  0
    4.4362    0.0010    1.3365 H   0  0  0  0  0  0  0  0  0  0  0  0
    1.3186   -0.8432    1.1165 H   0  0  0  0  0  0  0  0  0  0  0  0
  1  3  1  0
  1  8  1  0
  1  2  1  0
  1 13  1  0
  2  4  1  0
  2  9  1  0
  2 14  1  0
  3  5  1  0
  3 17  1  0
  3 18  1  0
  4  6  1  0
  4 23  1  0
  4 24  1  0
  5  6  1  0
  5 19  1  0
  5 20  1  0
  6 21  1  0
  6 22  1  0
  7 10  1  0
  7 11  1  0
  7 15  1  0
  7 16  1  0
  8 12  1  0
  8 25  1  0
  8 26  1  0
  9 12  1  0
  9 27  1  0
  9 28  1  0
 10 29  1  0
 10 30  1  0
 10 31  1  0
 11 32  1  0
 11 33  1  0
 11 34  1  0
 12 35  1  0
M  RAD  1  12   2
M  END
>  <reaction>  (17) 
rxn_601

>  <mol_properties>  (17) 
{"0": {"label": "*4", "atom_type": "Cs"}, "1": {"label": "*3", "atom_type": "Cs"}, "14": {"label": "*0", "atom_type": "Cs"}, "15": {"label": "*1", "atom_type": "Cs"}, "28": {"label": "*2", "atom_type": "H0"}}

>  <type>  (17) 
unop_13

>  <geom_source>  (17) 
AutoTST

$$$$

     RDKit          3D

 35 35  0  0  0  0  0  0  0  0999 V2000
    0.5589    3.4694    2.0356 C   0  0  0  0  0  0  0  0  0  0  0  0
    0.2297    3.3198    0.5558 C   0  0  0  0  0  3  0  0  0  0  0  0
   -1.1792    3.7901    0.2178 C   0  0  0  0  0  0  0  0  0  0  0  0
   -0.1329    2.8885    2.6504 H   0  0  0  0  0  0  0  0  0  0  0  0
    1.5712    3.1277    2.2579 H   0  0  0  0  0  0  0  0  0  0  0  0
    0.4816    4.5132    2.3494 H   0  0  0  0  0  0  0  0  0  0  0  0
    0.9542    3.8848   -0.0372 H   0  0  0  0  0  0  0  0  0  0  0  0
   -1.3113    4.8440    0.4743 H   0  0  0  0  0  0  0  0  0  0  0  0
   -1.3962    3.6752   -0.8456 H   0  0  0  0  0  0  0  0  0  0  0  0
   -1.9259    3.2193    0.7752 H   0  0  0  0  0  0  0  0  0  0  0  0
   -0.9535   -3.2197   -1.0994 C   0  0  0  0  0  0  0  0  0  0  0  0
   -0.9535   -3.2197    0.4312 C   0  0  0  0  0  0  0  0  0  0  0  0
    0.1896   -2.3833    1.0132 C   0  0  0  0  0  0  0  0  0  0  0  0
    0.1500   -0.9823    0.4291 C   0  0  0  0  0  0  0  0  0  0  0  0
    1.2691   -0.0085    0.7845 C   0  0  0  0  0  0  0  0  0  0  0  0
    1.2191    1.0621   -0.3341 C   0  0  0  0  0  0  0  0  0  0  0  0
    0.3256    0.4702   -1.4527 C   0  0  0  0  0  0  0  0  0  0  0  0
    0.2005   -1.0079   -1.0973 C   0  0  0  0  0  0  0  0  0  0  0  0
   -0.9535   -1.8032   -1.6814 C   0  0  0  0  0  0  0  0  0  0  0  0
   -0.0611   -3.7465   -1.4553 H   0  0  0  0  0  0  0  0  0  0  0  0
   -1.8144   -3.7807   -1.4701 H   0  0  0  0  0  0  0  0  0  0  0  0
   -1.9056   -2.8105    0.7871 H   0  0  0  0  0  0  0  0  0  0  0  0
   -0.8980   -4.2458    0.8019 H   0  0  0  0  0  0  0  0  0  0  0  0
    0.1224   -2.3573    2.1040 H   0  0  0  0  0  0  0  0  0  0  0  0
    1.1511   -2.8484    0.7651 H   0  0  0  0  0  0  0  0  0  0  0  0
   -0.8088   -0.5234    0.7116 H   0  0  0  0  0  0  0  0  0  0  0  0
    1.1602    0.4194    1.7820 H   0  0  0  0  0  0  0  0  0  0  0  0
    2.2267   -0.5371    0.7641 H   0  0  0  0  0  0  0  0  0  0  0  0
    0.7251    2.1893    0.1102 H   0  0  0  0  0  0  0  0  0  0  0  0
    2.2203    1.2845   -0.7044 H   0  0  0  0  0  0  0  0  0  0  0  0
    0.7352    0.6351   -2.4501 H   0  0  0  0  0  0  0  0  0  0  0  0
   -0.6664    0.9310   -1.4323 H   0  0  0  0  0  0  0  0  0  0  0  0
    1.1370   -1.5108   -1.3798 H   0  0  0  0  0  0  0  0  0  0  0  0
   -0.8929   -1.8422   -2.7722 H   0  0  0  0  0  0  0  0  0  0  0  0
   -1.8967   -1.3019   -1.4333 H   0  0  0  0  0  0  0  0  0  0  0  0
  1  2  1  0
  1  4  1  0
  1  5  1  0
  1  6  1  0
  2  3  1  0
  2  7  1  0
  3  8  1  0
  3  9  1  0
  3 10  1  0
 11 12  1  0
 11 19  1  0
 11 20  1  0
 11 21  1  0
 12 13  1  0
 12 22  1  0
 12 23  1  0
 13 14  1  0
 13 24  1  0
 13 25  1  0
 14 15  1  0
 14 18  1  0
 14 26  1  0
 15 16  1  0
 15 27  1  0
 15 28  1  0
 16 17  1  0
 16 29  1  0
 16 30  1  0
 17 18  1  0
 17 31  1  0
 17 32  1  0
 18 19  1  0
 18 33  1  0
 19 34  1  0
 19 35  1  0
M  RAD  1   2   2
M  END
>  <reaction>  (18) 
rxn_601

>  <mol_properties>  (18) 
{"0": {"label": "*4", "atom_type": "Cs"}, "1": {"label": "*3", "atom_type": "Cs"}, "14": {"label": "*0", "atom_type": "Cs"}, "15": {"label": "*1", "atom_type": "Cs"}, "28": {"label": "*2", "atom_type": "H0"}}

>  <type>  (18) 
unop_14

>  <geom_source>  (18) 
gaussian_log

$$$$
