
     RDKit          3D

 15 14  0  0  0  0  0  0  0  0999 V2000
    2.1256    0.4849   -0.6284 C   0  0  0  0  0  0  0  0  0  0  0  0
    1.1128    0.2141    0.1794 C   0  0  0  0  0  0  0  0  0  0  0  0
   -0.3017   -0.0425   -0.2513 C   0  0  0  0  0  0  0  0  0  0  0  0
   -1.2427    1.0075    0.3423 C   0  0  0  0  0  0  0  0  0  0  0  0
   -0.7381   -1.4526    0.1504 C   0  0  0  0  0  0  0  0  0  0  0  0
    3.1243    0.6602   -0.2486 H   0  0  0  0  0  0  0  0  0  0  0  0
    1.9908    0.5411   -1.7036 H   0  0  0  0  0  0  0  0  0  0  0  0
    1.2888    0.1665    1.2533 H   0  0  0  0  0  0  0  0  0  0  0  0
   -0.3426    0.0343   -1.3424 H   0  0  0  0  0  0  0  0  0  0  0  0
   -0.9570    2.0133    0.0315 H   0  0  0  0  0  0  0  0  0  0  0  0
   -1.2189    0.9728    1.4350 H   0  0  0  0  0  0  0  0  0  0  0  0
   -2.2723    0.8287    0.0254 H   0  0  0  0  0  0  0  0  0  0  0  0
   -0.6964   -1.5744    1.2363 H   0  0  0  0  0  0  0  0  0  0  0  0
   -0.0911   -2.2079   -0.2978 H   0  0  0  0  0  0  0  0  0  0  0  0
   -1.7646   -1.6461   -0.1677 H   0  0  0  0  0  0  0  0  0  0  0  0
  1  2  2  3
  1  6  1  0
  1  7  1  0
  2  3  1  0
  2  8  1  0
  3  4  1  0
  3  5  1  0
  3  9  1  0
  4 10  1  0
  4 11  1  0
  4 12  1  0
  5 13  1  0
  5 14  1  0
  5 15  1  0
M  END
>  <reaction>  (1) 
rxn_1095

>  <mol_properties>  (1) 
{"2": {"label": "donator", "atom_type": "Cs"}, "8": {"label": "d_hydrogen", "atom_type": "H0"}}

>  <type>  (1) 
r1h

$$$$

     RDKit          3D

 14 14  0  0  0  0  0  0  0  0999 V2000
    2.3111    0.1295    0.0255 C   0  0  0  0  0  0  0  0  0  0  0  0
    0.9132    0.0511    0.0101 C   0  0  0  0  0  0  0  0  0  0  0  0
    0.2446   -1.1981    0.0389 C   0  0  0  0  0  3  0  0  0  0  0  0
   -1.1306   -1.2689    0.0235 C   0  0  0  0  0  0  0  0  0  0  0  0
   -1.8967   -0.1062   -0.0209 C   0  0  0  0  0  0  0  0  0  0  0  0
   -1.2644    1.1347   -0.0499 C   0  0  0  0  0  0  0  0  0  0  0  0
    0.1101    1.2180   -0.0350 C   0  0  0  0  0  0  0  0  0  0  0  0
    2.9188   -0.7647    0.0599 H   0  0  0  0  0  0  0  0  0  0  0  0
    2.8158    1.0859    0.0034 H   0  0  0  0  0  0  0  0  0  0  0  0
    0.8353   -2.1058    0.0735 H   0  0  0  0  0  0  0  0  0  0  0  0
   -1.6191   -2.2351    0.0461 H   0  0  0  0  0  0  0  0  0  0  0  0
   -2.9772   -0.1668   -0.0328 H   0  0  0  0  0  0  0  0  0  0  0  0
   -1.8572    2.0404   -0.0845 H   0  0  0  0  0  0  0  0  0  0  0  0
    0.5964    2.1860   -0.0577 H   0  0  0  0  0  0  0  0  0  0  0  0
  1  2  2  3
  1  8  1  0
  1  9  1  0
  2  3  1  0
  2  7  1  0
  3  4  1  0
  3 10  1  0
  4  5  2  0
  4 11  1  0
  5  6  1  0
  5 12  1  0
  6  7  2  0
  6 13  1  0
  7 14  1  0
M  RAD  1   3   2
M  END
>  <reaction>  (2) 
rxn_1095

>  <mol_properties>  (2) 
{"0": {"label": "acceptor", "atom_type": "Cs"}}

>  <type>  (2) 
r2

$$$$

     RDKit          3D

 15 15  0  0  0  0  0  0  0  0999 V2000
    2.2031   -0.2111   -0.1693 C   0  0  0  0  0  0  0  0  0  0  0  0
    0.7140   -0.0314   -0.0623 C   0  0  0  0  0  0  0  0  0  0  0  0
   -0.0114    0.5491   -1.0982 C   0  0  0  0  0  0  0  0  0  0  0  0
   -1.3882    0.6886   -1.0150 C   0  0  0  0  0  0  0  0  0  0  0  0
   -2.0661    0.2493    0.1118 C   0  0  0  0  0  0  0  0  0  0  0  0
   -1.3551   -0.3278    1.1528 C   0  0  0  0  0  0  0  0  0  0  0  0
    0.0216   -0.4648    1.0642 C   0  0  0  0  0  0  0  0  0  0  0  0
    2.6776   -0.1836    0.8122 H   0  0  0  0  0  0  0  0  0  0  0  0
    2.4446   -1.1749   -0.6249 H   0  0  0  0  0  0  0  0  0  0  0  0
    2.6532    0.5664   -0.7875 H   0  0  0  0  0  0  0  0  0  0  0  0
    0.5104    0.8989   -1.9819 H   0  0  0  0  0  0  0  0  0  0  0  0
   -1.9328    1.1452   -1.8322 H   0  0  0  0  0  0  0  0  0  0  0  0
   -3.1409    0.3597    0.1800 H   0  0  0  0  0  0  0  0  0  0  0  0
   -1.8736   -0.6702    2.0398 H   0  0  0  0  0  0  0  0  0  0  0  0
    0.5695   -0.9141    1.8849 H   0  0  0  0  0  0  0  0  0  0  0  0
  1  2  1  0
  1  8  1  0
  1  9  1  0
  1 10  1  0
  2  3  2  0
  2  7  1  0
  3  4  1  0
  3 11  1  0
  4  5  2  0
  4 12  1  0
  5  6  1  0
  5 13  1  0
  6  7  2  0
  6 14  1  0
  7 15  1  0
M  END
>  <reaction>  (3) 
rxn_1095

>  <mol_properties>  (3) 
{"0": {"label": "a_hydrogen", "atom_type": "H0"}, "1": {"label": "acceptor", "atom_type": "Cs"}}

>  <type>  (3) 
r2h

$$$$

     RDKit          3D

 29 28  0  0  0  0  0  0  0  0999 V2000
    0.0541   -2.9661    0.3854 C   0  0  0  0  0  0  0  0  0  0  0  0
   -0.1633   -2.2890    1.5133 C   0  0  0  0  0  0  0  0  0  0  0  0
   -1.0090   -1.1002    1.6758 C   0  0  0  0  0  0  0  0  0  0  0  0
   -1.6182   -0.9406    3.0525 C   0  0  0  0  0  0  0  0  0  0  0  0
   -1.9451   -0.7667    0.5389 C   0  0  0  0  0  0  0  0  0  0  0  0
    0.7287   -3.8123    0.3664 H   0  0  0  0  0  0  0  0  0  0  0  0
   -0.4312   -2.7060   -0.5472 H   0  0  0  0  0  0  0  0  0  0  0  0
    0.3617   -2.6090    2.4109 H   0  0  0  0  0  0  0  0  0  0  0  0
   -0.1423   -0.1204    1.6150 H   0  0  0  0  0  0  0  0  0  0  0  0
   -0.8789   -1.1127    3.8374 H   0  0  0  0  0  0  0  0  0  0  0  0
   -2.4362   -1.6526    3.2031 H   0  0  0  0  0  0  0  0  0  0  0  0
   -2.0259    0.0639    3.1841 H   0  0  0  0  0  0  0  0  0  0  0  0
   -2.7102   -1.5414    0.4247 H   0  0  0  0  0  0  0  0  0  0  0  0
   -1.4140   -0.6726   -0.4094 H   0  0  0  0  0  0  0  0  0  0  0  0
   -2.4506    0.1823    0.7261 H   0  0  0  0  0  0  0  0  0  0  0  0
    0.7533    0.9310    1.4244 C   0  0  0  0  0  0  0  0  0  0  0  0
    0.7646    1.1539   -0.0121 C   0  0  0  0  0  0  0  0  0  0  0  0
   -0.0509    2.1278   -0.6016 C   0  0  0  0  0  3  0  0  0  0  0  0
   -0.1015    2.2791   -1.9753 C   0  0  0  0  0  0  0  0  0  0  0  0
    0.6582    1.4586   -2.7989 C   0  0  0  0  0  0  0  0  0  0  0  0
    1.4738    0.4886   -2.2312 C   0  0  0  0  0  0  0  0  0  0  0  0
    1.5272    0.3375   -0.8574 C   0  0  0  0  0  0  0  0  0  0  0  0
    0.3334    1.7242    2.0367 H   0  0  0  0  0  0  0  0  0  0  0  0
    1.6419    0.4732    1.8505 H   0  0  0  0  0  0  0  0  0  0  0  0
   -0.6515    2.7685    0.0340 H   0  0  0  0  0  0  0  0  0  0  0  0
   -0.7373    3.0412   -2.4087 H   0  0  0  0  0  0  0  0  0  0  0  0
    0.6174    1.5767   -3.8741 H   0  0  0  0  0  0  0  0  0  0  0  0
    2.0715   -0.1544   -2.8653 H   0  0  0  0  0  0  0  0  0  0  0  0
    2.1558   -0.4298   -0.4213 H   0  0  0  0  0  0  0  0  0  0  0  0
  1  2  2  3
  1  6  1  0
  1  7  1  0
  2  3  1  0
  2  8  1  0
  3  4  1  0
  3  5  1  0
  3  9  1  0
  4 10  1  0
  4 11  1  0
  4 12  1  0
  5 13  1  0
  5 14  1  0
  5 15  1  0
 16 17  2  3
 16 23  1  0
 16 24  1  0
 17 18  1  0
 17 22  1  0
 18 19  1  0
 18 25  1  0
 19 20  2  0
 19 26  1  0
 20 21  1  0
 20 27  1  0
 21 22  2  0
 21 28  1  0
 22 29  1  0
M  RAD  1  18   2
M  END
>  <reaction>  (4) 
rxn_1095

>  <mol_properties>  (4) 
{"1": {"label": "*0", "atom_type": "Cd"}, "2": {"label": "*1", "atom_type": "Cs"}, "8": {"label": "*2", "atom_type": "H0"}, "15": {"label": "*3", "atom_type": "Cd"}, "16": {"label": "*4", "atom_type": "Cd"}}

>  <type>  (4) 
ts

$$$$

     RDKit          3D

 29 28  0  0  0  0  0  0  0  0999 V2000
    1.1250   -3.0257   -1.4239 C   0  0  0  0  0  0  0  0  0  0  0  0
    1.1250   -3.0257   -0.1005 C   0  0  0  0  0  0  0  0  0  0  0  0
    1.1250   -1.8043    0.7716 C   0  0  0  0  0  3  0  0  0  0  0  0
    2.3843   -1.7639    1.6392 C   0  0  0  0  0  0  0  0  0  0  0  0
   -0.1343   -1.7639    1.6392 C   0  0  0  0  0  0  0  0  0  0  0  0
    1.1250   -3.9474   -1.9922 H   0  0  0  0  0  0  0  0  0  0  0  0
    1.1250   -2.0991   -1.9885 H   0  0  0  0  0  0  0  0  0  0  0  0
    1.1250   -3.9770    0.4301 H   0  0  0  0  0  0  0  0  0  0  0  0
    1.1250   -0.7479   -0.0089 H   0  0  0  0  0  0  0  0  0  0  0  0
    3.2858   -1.7580    1.0251 H   0  0  0  0  0  0  0  0  0  0  0  0
    2.4289   -2.6377    2.2950 H   0  0  0  0  0  0  0  0  0  0  0  0
    2.3918   -0.8727    2.2702 H   0  0  0  0  0  0  0  0  0  0  0  0
   -0.1789   -2.6377    2.2950 H   0  0  0  0  0  0  0  0  0  0  0  0
   -1.0359   -1.7580    1.0251 H   0  0  0  0  0  0  0  0  0  0  0  0
   -0.1419   -0.8727    2.2702 H   0  0  0  0  0  0  0  0  0  0  0  0
    1.1250    0.3046   -0.7864 C   0  0  0  0  0  0  0  0  0  0  0  0
   -0.0881    1.1608   -0.5482 C   0  0  0  0  0  0  0  0  0  0  0  0
    0.0287    2.4172    0.0384 C   0  0  0  0  0  0  0  0  0  0  0  0
   -1.0839    3.2212    0.2318 C   0  0  0  0  0  0  0  0  0  0  0  0
   -2.3389    2.7796   -0.1587 C   0  0  0  0  0  0  0  0  0  0  0  0
   -2.4699    1.5283   -0.7414 C   0  0  0  0  0  0  0  0  0  0  0  0
   -1.3537    0.7285   -0.9323 C   0  0  0  0  0  0  0  0  0  0  0  0
    1.8965    0.4930   -0.0392 H   0  0  0  0  0  0  0  0  0  0  0  0
    1.5590    0.5133   -1.7676 H   0  0  0  0  0  0  0  0  0  0  0  0
    1.0055    2.7697    0.3504 H   0  0  0  0  0  0  0  0  0  0  0  0
   -0.9704    4.1949    0.6922 H   0  0  0  0  0  0  0  0  0  0  0  0
   -3.2095    3.4047   -0.0063 H   0  0  0  0  0  0  0  0  0  0  0  0
   -3.4459    1.1712   -1.0459 H   0  0  0  0  0  0  0  0  0  0  0  0
   -1.4667   -0.2500   -1.3854 H   0  0  0  0  0  0  0  0  0  0  0  0
  1  2  2  3
  1  6  1  0
  1  7  1  0
  2  3  1  0
  2  8  1  0
  3  4  1  0
  3  5  1  0
  4 10  1  0
  4 11  1  0
  4 12  1  0
  5 13  1  0
  5 14  1  0
  5 15  1  0
  9 16  1  0
 16 17  1  0
 16 23  1  0
 16 24  1  0
 17 18  2  0
 17 22  1  0
 18 19  1  0
 18 25  1  0
 19 20  2  0
 19 26  1  0
 20 21  1  0
 20 27  1  0
 21 22  2  0
 21 28  1  0
 22 29  1  0
M  RAD  1   3   2
M  END
>  <reaction>  (5) 
rxn_1095

>  <mol_properties>  (5) 
{"1": {"label": "*0", "atom_type": "Cd"}, "2": {"label": "*1", "atom_type": "Cs"}, "8": {"label": "*2", "atom_type": "H0"}, "15": {"label": "*3", "atom_type": "Cd"}, "16": {"label": "*4", "atom_type": "Cd"}}

>  <type>  (5) 
unop_1

>  <geom_source>  (5) 
Heuristics

$$$$

     RDKit          3D

 29 28  0  0  0  0  0  0  0  0999 V2000
    0.6430   -1.9684    0.0047 C   0  0  0  0  0  0  0  0  0  0  0  0
    0.6430   -1.9684    1.3282 C   0  0  0  0  0  0  0  0  0  0  0  0
    0.6430   -0.7470    2.2002 C   0  0  0  0  0  3  0  0  0  0  0  0
    1.9023   -0.7066    3.0678 C   0  0  0  0  0  0  0  0  0  0  0  0
   -0.6163   -0.7066    3.0678 C   0  0  0  0  0  0  0  0  0  0  0  0
    0.6430   -2.8901   -0.5636 H   0  0  0  0  0  0  0  0  0  0  0  0
    0.6430   -1.0418   -0.5599 H   0  0  0  0  0  0  0  0  0  0  0  0
    0.6430   -2.9197    1.8587 H   0  0  0  0  0  0  0  0  0  0  0  0
    0.6430    0.3094    1.4197 H   0  0  0  0  0  0  0  0  0  0  0  0
    2.8038   -0.7007    2.4537 H   0  0  0  0  0  0  0  0  0  0  0  0
    1.9469   -1.5804    3.7236 H   0  0  0  0  0  0  0  0  0  0  0  0
    1.9098    0.1846    3.6988 H   0  0  0  0  0  0  0  0  0  0  0  0
   -0.6609   -1.5804    3.7236 H   0  0  0  0  0  0  0  0  0  0  0  0
   -1.5179   -0.7007    2.4537 H   0  0  0  0  0  0  0  0  0  0  0  0
   -0.6239    0.1846    3.6988 H   0  0  0  0  0  0  0  0  0  0  0  0
    0.6430    1.3619    0.6422 C   0  0  0  0  0  0  0  0  0  0  0  0
   -0.0574    1.0811   -0.6586 C   0  0  0  0  0  0  0  0  0  0  0  0
   -0.9981    1.9701   -1.1694 C   0  0  0  0  0  0  0  0  0  0  0  0
   -1.6233    1.7289   -2.3830 C   0  0  0  0  0  0  0  0  0  0  0  0
   -1.3179    0.5880   -3.1093 C   0  0  0  0  0  0  0  0  0  0  0  0
   -0.3849   -0.3079   -2.6102 C   0  0  0  0  0  0  0  0  0  0  0  0
    0.2372   -0.0615   -1.3960 C   0  0  0  0  0  0  0  0  0  0  0  0
    0.0109    1.9411    1.3161 H   0  0  0  0  0  0  0  0  0  0  0  0
    1.5572    1.9366    0.4730 H   0  0  0  0  0  0  0  0  0  0  0  0
   -1.2462    2.8632   -0.6069 H   0  0  0  0  0  0  0  0  0  0  0  0
   -2.3540    2.4332   -2.7610 H   0  0  0  0  0  0  0  0  0  0  0  0
   -1.8068    0.3963   -4.0560 H   0  0  0  0  0  0  0  0  0  0  0  0
   -0.1420   -1.2047   -3.1667 H   0  0  0  0  0  0  0  0  0  0  0  0
    0.9629   -0.7698   -1.0121 H   0  0  0  0  0  0  0  0  0  0  0  0
  1  2  2  3
  1  6  1  0
  1  7  1  0
  2  3  1  0
  2  8  1  0
  3  4  1  0
  3  5  1  0
  4 10  1  0
  4 11  1  0
  4 12  1  0
  5 13  1  0
  5 14  1  0
  5 15  1  0
  9 16  1  0
 16 17  1  0
 16 23  1  0
 16 24  1  0
 17 18  2  0
 17 22  1  0
 18 19  1  0
 18 25  1  0
 19 20  2  0
 19 26  1  0
 20 21  1  0
 20 27  1  0
 21 22  2  0
 21 28  1  0
 22 29  1  0
M  RAD  1   3   2
M  END
>  <reaction>  (6) 
rxn_1095

>  <mol_properties>  (6) 
{"1": {"label": "*0", "atom_type": "Cd"}, "2": {"label": "*1", "atom_type": "Cs"}, "8": {"label": "*2", "atom_type": "H0"}, "15": {"label": "*3", "atom_type": "Cd"}, "16": {"label": "*4", "atom_type": "Cd"}}

>  <type>  (6) 
unop_2

>  <geom_source>  (6) 
Heuristics

$$$$

     RDKit          3D

 29 28  0  0  0  0  0  0  0  0999 V2000
    0.6531   -3.3070   -1.8055 C   0  0  0  0  0  0  0  0  0  0  0  0
    0.6531   -3.3070   -0.4820 C   0  0  0  0  0  0  0  0  0  0  0  0
    0.6531   -2.0856    0.3900 C   0  0  0  0  0  3  0  0  0  0  0  0
    1.9124   -2.0452    1.2577 C   0  0  0  0  0  0  0  0  0  0  0  0
   -0.6062   -2.0452    1.2577 C   0  0  0  0  0  0  0  0  0  0  0  0
    0.6531   -4.2287   -2.3738 H   0  0  0  0  0  0  0  0  0  0  0  0
    0.6531   -2.3805   -2.3701 H   0  0  0  0  0  0  0  0  0  0  0  0
    0.6531   -4.2583    0.0485 H   0  0  0  0  0  0  0  0  0  0  0  0
    0.6531   -1.0292   -0.3904 H   0  0  0  0  0  0  0  0  0  0  0  0
    2.8139   -2.0393    0.6435 H   0  0  0  0  0  0  0  0  0  0  0  0
    1.9570   -2.9190    1.9135 H   0  0  0  0  0  0  0  0  0  0  0  0
    1.9199   -1.1540    1.8887 H   0  0  0  0  0  0  0  0  0  0  0  0
   -0.6508   -2.9190    1.9135 H   0  0  0  0  0  0  0  0  0  0  0  0
   -1.5078   -2.0393    0.6435 H   0  0  0  0  0  0  0  0  0  0  0  0
   -0.6138   -1.1540    1.8887 H   0  0  0  0  0  0  0  0  0  0  0  0
    0.6531    0.0233   -1.1680 C   0  0  0  0  0  0  0  0  0  0  0  0
   -0.0473    1.1841   -0.5174 C   0  0  0  0  0  0  0  0  0  0  0  0
    0.6118    2.3926   -0.3139 C   0  0  0  0  0  0  0  0  0  0  0  0
   -0.0403    3.4741    0.2582 C   0  0  0  0  0  0  0  0  0  0  0  0
   -1.3687    3.3643    0.6397 C   0  0  0  0  0  0  0  0  0  0  0  0
   -2.0363    2.1647    0.4458 C   0  0  0  0  0  0  0  0  0  0  0  0
   -1.3792    1.0865   -0.1267 C   0  0  0  0  0  0  0  0  0  0  0  0
    1.7232    0.0377   -0.9586 H   0  0  0  0  0  0  0  0  0  0  0  0
    0.5295    0.0561   -2.2535 H   0  0  0  0  0  0  0  0  0  0  0  0
    1.6517    2.4870   -0.6057 H   0  0  0  0  0  0  0  0  0  0  0  0
    0.4924    4.4048    0.4093 H   0  0  0  0  0  0  0  0  0  0  0  0
   -1.8791    4.2067    1.0890 H   0  0  0  0  0  0  0  0  0  0  0  0
   -3.0727    2.0661    0.7443 H   0  0  0  0  0  0  0  0  0  0  0  0
   -1.9086    0.1514   -0.2711 H   0  0  0  0  0  0  0  0  0  0  0  0
  1  2  2  3
  1  6  1  0
  1  7  1  0
  2  3  1  0
  2  8  1  0
  3  4  1  0
  3  5  1  0
  4 10  1  0
  4 11  1  0
  4 12  1  0
  5 13  1  0
  5 14  1  0
  5 15  1  0
  9 16  1  0
 16 17  1  0
 16 23  1  0
 16 24  1  0
 17 18  2  0
 17 22  1  0
 18 19  1  0
 18 25  1  0
 19 20  2  0
 19 26  1  0
 20 21  1  0
 20 27  1  0
 21 22  2  0
 21 28  1  0
 22 29  1  0
M  RAD  1   3   2
M  END
>  <reaction>  (7) 
rxn_1095

>  <mol_properties>  (7) 
{"1": {"label": "*0", "atom_type": "Cd"}, "2": {"label": "*1", "atom_type": "Cs"}, "8": {"label": "*2", "atom_type": "H0"}, "15": {"label": "*3", "atom_type": "Cd"}, "16": {"label": "*4", "atom_type": "Cd"}}

>  <type>  (7) 
unop_3

>  <geom_source>  (7) 
Heuristics

$$$$

     RDKit          3D

 29 28  0  0  0  0  0  0  0  0999 V2000
   -1.1375   -2.2522   -0.3978 C   0  0  0  0  0  0  0  0  0  0  0  0
   -1.1375   -2.2522    0.9257 C   0  0  0  0  0  0  0  0  0  0  0  0
   -1.1375   -1.0308    1.7977 C   0  0  0  0  0  3  0  0  0  0  0  0
    0.1218   -0.9904    2.6654 C   0  0  0  0  0  0  0  0  0  0  0  0
   -2.3968   -0.9904    2.6654 C   0  0  0  0  0  0  0  0  0  0  0  0
   -1.1375   -3.1739   -0.9661 H   0  0  0  0  0  0  0  0  0  0  0  0
   -1.1375   -1.3257   -0.9624 H   0  0  0  0  0  0  0  0  0  0  0  0
   -1.1375   -3.2035    1.4563 H   0  0  0  0  0  0  0  0  0  0  0  0
   -1.1375    0.0256    1.0173 H   0  0  0  0  0  0  0  0  0  0  0  0
    1.0234   -0.9845    2.0512 H   0  0  0  0  0  0  0  0  0  0  0  0
    0.1664   -1.8642    3.3212 H   0  0  0  0  0  0  0  0  0  0  0  0
    0.1294   -0.0992    3.2964 H   0  0  0  0  0  0  0  0  0  0  0  0
   -2.4413   -1.8642    3.3212 H   0  0  0  0  0  0  0  0  0  0  0  0
   -3.2983   -0.9845    2.0512 H   0  0  0  0  0  0  0  0  0  0  0  0
   -2.4043   -0.0992    3.2964 H   0  0  0  0  0  0  0  0  0  0  0  0
   -1.1375    1.0781    0.2397 C   0  0  0  0  0  0  0  0  0  0  0  0
    0.0756    1.1020   -0.6486 C   0  0  0  0  0  0  0  0  0  0  0  0
    0.3048    2.1658   -1.5158 C   0  0  0  0  0  0  0  0  0  0  0  0
    1.4375    2.2051   -2.3141 C   0  0  0  0  0  0  0  0  0  0  0  0
    2.3642    1.1753   -2.2596 C   0  0  0  0  0  0  0  0  0  0  0  0
    2.1464    0.1075   -1.4024 C   0  0  0  0  0  0  0  0  0  0  0  0
    1.0119    0.0735   -0.6064 C   0  0  0  0  0  0  0  0  0  0  0  0
   -1.9755    1.6041   -0.2189 H   0  0  0  0  0  0  0  0  0  0  0  0
   -0.9266    1.5648    1.1954 H   0  0  0  0  0  0  0  0  0  0  0  0
   -0.4161    2.9741   -1.5680 H   0  0  0  0  0  0  0  0  0  0  0  0
    1.5950    3.0418   -2.9834 H   0  0  0  0  0  0  0  0  0  0  0  0
    3.2482    1.2027   -2.8839 H   0  0  0  0  0  0  0  0  0  0  0  0
    2.8612   -0.7047   -1.3550 H   0  0  0  0  0  0  0  0  0  0  0  0
    0.8484   -0.7675    0.0582 H   0  0  0  0  0  0  0  0  0  0  0  0
  1  2  2  3
  1  6  1  0
  1  7  1  0
  2  3  1  0
  2  8  1  0
  3  4  1  0
  3  5  1  0
  4 10  1  0
  4 11  1  0
  4 12  1  0
  5 13  1  0
  5 14  1  0
  5 15  1  0
  9 16  1  0
 16 17  1  0
 16 23  1  0
 16 24  1  0
 17 18  2  0
 17 22  1  0
 18 19  1  0
 18 25  1  0
 19 20  2  0
 19 26  1  0
 20 21  1  0
 20 27  1  0
 21 22  2  0
 21 28  1  0
 22 29  1  0
M  RAD  1   3   2
M  END
>  <reaction>  (8) 
rxn_1095

>  <mol_properties>  (8) 
{"1": {"label": "*0", "atom_type": "Cd"}, "2": {"label": "*1", "atom_type": "Cs"}, "8": {"label": "*2", "atom_type": "H0"}, "15": {"label": "*3", "atom_type": "Cd"}, "16": {"label": "*4", "atom_type": "Cd"}}

>  <type>  (8) 
unop_4

>  <geom_source>  (8) 
Heuristics

$$$$

     RDKit          3D

 29 28  0  0  0  0  0  0  0  0999 V2000
    0.0123   -3.4094   -1.9508 C   0  0  0  0  0  0  0  0  0  0  0  0
    0.0123   -3.4094   -0.6273 C   0  0  0  0  0  0  0  0  0  0  0  0
    0.0123   -2.1880    0.2447 C   0  0  0  0  0  3  0  0  0  0  0  0
    1.2716   -2.1476    1.1124 C   0  0  0  0  0  0  0  0  0  0  0  0
   -1.2470   -2.1476    1.1124 C   0  0  0  0  0  0  0  0  0  0  0  0
    0.0123   -4.3311   -2.5191 H   0  0  0  0  0  0  0  0  0  0  0  0
    0.0123   -2.4828   -2.5154 H   0  0  0  0  0  0  0  0  0  0  0  0
    0.0123   -4.3607   -0.0968 H   0  0  0  0  0  0  0  0  0  0  0  0
    0.0123   -1.1316   -0.5357 H   0  0  0  0  0  0  0  0  0  0  0  0
    2.1732   -2.1417    0.4982 H   0  0  0  0  0  0  0  0  0  0  0  0
    1.3162   -3.0214    1.7681 H   0  0  0  0  0  0  0  0  0  0  0  0
    1.2792   -1.2564    1.7433 H   0  0  0  0  0  0  0  0  0  0  0  0
   -1.2916   -3.0214    1.7681 H   0  0  0  0  0  0  0  0  0  0  0  0
   -2.1485   -2.1417    0.4982 H   0  0  0  0  0  0  0  0  0  0  0  0
   -1.2545   -1.2564    1.7433 H   0  0  0  0  0  0  0  0  0  0  0  0
    0.0123   -0.0791   -1.3133 C   0  0  0  0  0  0  0  0  0  0  0  0
    0.0123    1.1932   -0.5118 C   0  0  0  0  0  0  0  0  0  0  0  0
    0.5903    2.3545   -1.0155 C   0  0  0  0  0  0  0  0  0  0  0  0
    0.5653    3.5366   -0.2917 C   0  0  0  0  0  0  0  0  0  0  0  0
   -0.0399    3.5773    0.9552 C   0  0  0  0  0  0  0  0  0  0  0  0
   -0.6165    2.4265    1.4704 C   0  0  0  0  0  0  0  0  0  0  0  0
   -0.5885    1.2472    0.7421 C   0  0  0  0  0  0  0  0  0  0  0  0
    0.8844   -0.1370   -1.9656 H   0  0  0  0  0  0  0  0  0  0  0  0
   -0.8768   -0.1374   -1.9464 H   0  0  0  0  0  0  0  0  0  0  0  0
    1.0690    2.3316   -1.9881 H   0  0  0  0  0  0  0  0  0  0  0  0
    1.0230    4.4282   -0.7019 H   0  0  0  0  0  0  0  0  0  0  0  0
   -0.0583    4.4986    1.5233 H   0  0  0  0  0  0  0  0  0  0  0  0
   -1.0878    2.4455    2.4453 H   0  0  0  0  0  0  0  0  0  0  0  0
   -1.0390    0.3515    1.1549 H   0  0  0  0  0  0  0  0  0  0  0  0
  1  2  2  3
  1  6  1  0
  1  7  1  0
  2  3  1  0
  2  8  1  0
  3  4  1  0
  3  5  1  0
  4 10  1  0
  4 11  1  0
  4 12  1  0
  5 13  1  0
  5 14  1  0
  5 15  1  0
  9 16  1  0
 16 17  1  0
 16 23  1  0
 16 24  1  0
 17 18  2  0
 17 22  1  0
 18 19  1  0
 18 25  1  0
 19 20  2  0
 19 26  1  0
 20 21  1  0
 20 27  1  0
 21 22  2  0
 21 28  1  0
 22 29  1  0
M  RAD  1   3   2
M  END
>  <reaction>  (9) 
rxn_1095

>  <mol_properties>  (9) 
{"1": {"label": "*0", "atom_type": "Cd"}, "2": {"label": "*1", "atom_type": "Cs"}, "8": {"label": "*2", "atom_type": "H0"}, "15": {"label": "*3", "atom_type": "Cd"}, "16": {"label": "*4", "atom_type": "Cd"}}

>  <type>  (9) 
unop_5

>  <geom_source>  (9) 
Heuristics

$$$$

     RDKit          3D

 29 28  0  0  0  0  0  0  0  0999 V2000
   -1.3042   -2.6393   -0.9255 C   0  0  0  0  0  0  0  0  0  0  0  0
   -1.3042   -2.6393    0.3980 C   0  0  0  0  0  0  0  0  0  0  0  0
   -1.3042   -1.4180    1.2700 C   0  0  0  0  0  3  0  0  0  0  0  0
   -0.0449   -1.3775    2.1377 C   0  0  0  0  0  0  0  0  0  0  0  0
   -2.5635   -1.3775    2.1377 C   0  0  0  0  0  0  0  0  0  0  0  0
   -1.3042   -3.5611   -1.4938 H   0  0  0  0  0  0  0  0  0  0  0  0
   -1.3042   -1.7128   -1.4901 H   0  0  0  0  0  0  0  0  0  0  0  0
   -1.3042   -3.5907    0.9285 H   0  0  0  0  0  0  0  0  0  0  0  0
   -1.3042   -0.3616    0.4896 H   0  0  0  0  0  0  0  0  0  0  0  0
    0.8567   -1.3716    1.5235 H   0  0  0  0  0  0  0  0  0  0  0  0
   -0.0003   -2.2514    2.7935 H   0  0  0  0  0  0  0  0  0  0  0  0
   -0.0373   -0.4863    2.7687 H   0  0  0  0  0  0  0  0  0  0  0  0
   -2.6081   -2.2514    2.7935 H   0  0  0  0  0  0  0  0  0  0  0  0
   -3.4650   -1.3716    1.5235 H   0  0  0  0  0  0  0  0  0  0  0  0
   -2.5710   -0.4863    2.7687 H   0  0  0  0  0  0  0  0  0  0  0  0
   -1.3042    0.6910   -0.2880 C   0  0  0  0  0  0  0  0  0  0  0  0
    0.0965    1.1310   -0.6131 C   0  0  0  0  0  0  0  0  0  0  0  0
    0.3343    2.3483   -1.2438 C   0  0  0  0  0  0  0  0  0  0  0  0
    1.6261    2.7704   -1.5176 C   0  0  0  0  0  0  0  0  0  0  0  0
    2.7075    1.9775   -1.1649 C   0  0  0  0  0  0  0  0  0  0  0  0
    2.4846    0.7606   -0.5391 C   0  0  0  0  0  0  0  0  0  0  0  0
    1.1906    0.3436   -0.2677 C   0  0  0  0  0  0  0  0  0  0  0  0
   -2.0215    1.0868   -1.0078 H   0  0  0  0  0  0  0  0  0  0  0  0
   -1.6012    1.0461    0.7021 H   0  0  0  0  0  0  0  0  0  0  0  0
   -0.5051    2.9736   -1.5266 H   0  0  0  0  0  0  0  0  0  0  0  0
    1.7882    3.7206   -2.0111 H   0  0  0  0  0  0  0  0  0  0  0  0
    3.7170    2.3039   -1.3801 H   0  0  0  0  0  0  0  0  0  0  0  0
    3.3215    0.1309   -0.2634 H   0  0  0  0  0  0  0  0  0  0  0  0
    1.0261   -0.6113    0.2188 H   0  0  0  0  0  0  0  0  0  0  0  0
  1  2  2  3
  1  6  1  0
  1  7  1  0
  2  3  1  0
  2  8  1  0
  3  4  1  0
  3  5  1  0
  4 10  1  0
  4 11  1  0
  4 12  1  0
  5 13  1  0
  5 14  1  0
  5 15  1  0
  9 16  1  0
 16 17  1  0
 16 23  1  0
 16 24  1  0
 17 18  2  0
 17 22  1  0
 18 19  1  0
 18 25  1  0
 19 20  2  0
 19 26  1  0
 20 21  1  0
 20 27  1  0
 21 22  2  0
 21 28  1  0
 22 29  1  0
M  RAD  1   3   2
M  END
>  <reaction>  (10) 
rxn_1095

>  <mol_properties>  (10) 
{"1": {"label": "*0", "atom_type": "Cd"}, "2": {"label": "*1", "atom_type": "Cs"}, "8": {"label": "*2", "atom_type": "H0"}, "15": {"label": "*3", "atom_type": "Cd"}, "16": {"label": "*4", "atom_type": "Cd"}}

>  <type>  (10) 
unop_6

>  <geom_source>  (10) 
Heuristics

$$$$

     RDKit          3D

 29 28  0  0  0  0  0  0  0  0999 V2000
   -1.1205   -3.0253   -1.4482 C   0  0  0  0  0  0  0  0  0  0  0  0
   -1.1205   -3.0253   -0.1247 C   0  0  0  0  0  0  0  0  0  0  0  0
   -1.1205   -1.8039    0.7473 C   0  0  0  0  0  3  0  0  0  0  0  0
    0.1388   -1.7635    1.6150 C   0  0  0  0  0  0  0  0  0  0  0  0
   -2.3798   -1.7635    1.6150 C   0  0  0  0  0  0  0  0  0  0  0  0
   -1.1205   -3.9470   -2.0165 H   0  0  0  0  0  0  0  0  0  0  0  0
   -1.1205   -2.0987   -2.0128 H   0  0  0  0  0  0  0  0  0  0  0  0
   -1.1205   -3.9766    0.4058 H   0  0  0  0  0  0  0  0  0  0  0  0
   -1.1205   -0.7475   -0.0331 H   0  0  0  0  0  0  0  0  0  0  0  0
    1.0404   -1.7576    1.0008 H   0  0  0  0  0  0  0  0  0  0  0  0
    0.1834   -2.6373    2.2708 H   0  0  0  0  0  0  0  0  0  0  0  0
    0.1463   -0.8723    2.2460 H   0  0  0  0  0  0  0  0  0  0  0  0
   -2.4244   -2.6373    2.2708 H   0  0  0  0  0  0  0  0  0  0  0  0
   -3.2814   -1.7576    1.0008 H   0  0  0  0  0  0  0  0  0  0  0  0
   -2.3873   -0.8723    2.2460 H   0  0  0  0  0  0  0  0  0  0  0  0
   -1.1205    0.3050   -0.8107 C   0  0  0  0  0  0  0  0  0  0  0  0
    0.0925    1.1612   -0.5724 C   0  0  0  0  0  0  0  0  0  0  0  0
    0.1859    2.4360   -1.1223 C   0  0  0  0  0  0  0  0  0  0  0  0
    1.2895    3.2392   -0.8797 C   0  0  0  0  0  0  0  0  0  0  0  0
    2.3244    2.7783   -0.0804 C   0  0  0  0  0  0  0  0  0  0  0  0
    2.2457    1.5086    0.4710 C   0  0  0  0  0  0  0  0  0  0  0  0
    1.1397    0.7098    0.2250 C   0  0  0  0  0  0  0  0  0  0  0  0
   -1.5749    0.5213   -1.7781 H   0  0  0  0  0  0  0  0  0  0  0  0
   -1.8779    0.4853   -0.0435 H   0  0  0  0  0  0  0  0  0  0  0  0
   -0.6167    2.8038   -1.7517 H   0  0  0  0  0  0  0  0  0  0  0  0
    1.3425    4.2275   -1.3195 H   0  0  0  0  0  0  0  0  0  0  0  0
    3.1883    3.4029    0.1083 H   0  0  0  0  0  0  0  0  0  0  0  0
    3.0503    1.1364    1.0931 H   0  0  0  0  0  0  0  0  0  0  0  0
    1.0888   -0.2831    0.6577 H   0  0  0  0  0  0  0  0  0  0  0  0
  1  2  2  3
  1  6  1  0
  1  7  1  0
  2  3  1  0
  2  8  1  0
  3  4  1  0
  3  5  1  0
  4 10  1  0
  4 11  1  0
  4 12  1  0
  5 13  1  0
  5 14  1  0
  5 15  1  0
  9 16  1  0
 16 17  1  0
 16 23  1  0
 16 24  1  0
 17 18  2  0
 17 22  1  0
 18 19  1  0
 18 25  1  0
 19 20  2  0
 19 26  1  0
 20 21  1  0
 20 27  1  0
 21 22  2  0
 21 28  1  0
 22 29  1  0
M  RAD  1   3   2
M  END
>  <reaction>  (11) 
rxn_1095

>  <mol_properties>  (11) 
{"1": {"label": "*0", "atom_type": "Cd"}, "2": {"label": "*1", "atom_type": "Cs"}, "8": {"label": "*2", "atom_type": "H0"}, "15": {"label": "*3", "atom_type": "Cd"}, "16": {"label": "*4", "atom_type": "Cd"}}

>  <type>  (11) 
unop_7

>  <geom_source>  (11) 
Heuristics

$$$$

     RDKit          3D

 29 28  0  0  0  0  0  0  0  0999 V2000
    1.2985   -2.6397   -0.9015 C   0  0  0  0  0  0  0  0  0  0  0  0
    1.2985   -2.6397    0.4220 C   0  0  0  0  0  0  0  0  0  0  0  0
    1.2985   -1.4183    1.2940 C   0  0  0  0  0  3  0  0  0  0  0  0
    2.5578   -1.3779    2.1617 C   0  0  0  0  0  0  0  0  0  0  0  0
    0.0392   -1.3779    2.1617 C   0  0  0  0  0  0  0  0  0  0  0  0
    1.2985   -3.5614   -1.4698 H   0  0  0  0  0  0  0  0  0  0  0  0
    1.2985   -1.7132   -1.4661 H   0  0  0  0  0  0  0  0  0  0  0  0
    1.2985   -3.5910    0.9525 H   0  0  0  0  0  0  0  0  0  0  0  0
    1.2985   -0.3620    0.5136 H   0  0  0  0  0  0  0  0  0  0  0  0
    3.4594   -1.3720    1.5475 H   0  0  0  0  0  0  0  0  0  0  0  0
    2.6024   -2.2518    2.8175 H   0  0  0  0  0  0  0  0  0  0  0  0
    2.5653   -0.4867    2.7926 H   0  0  0  0  0  0  0  0  0  0  0  0
   -0.0054   -2.2518    2.8175 H   0  0  0  0  0  0  0  0  0  0  0  0
   -0.8624   -1.3720    1.5475 H   0  0  0  0  0  0  0  0  0  0  0  0
    0.0317   -0.4867    2.7926 H   0  0  0  0  0  0  0  0  0  0  0  0
    1.2985    0.6906   -0.2640 C   0  0  0  0  0  0  0  0  0  0  0  0
   -0.1022    1.1306   -0.5891 C   0  0  0  0  0  0  0  0  0  0  0  0
   -0.6067    2.3297   -0.0952 C   0  0  0  0  0  0  0  0  0  0  0  0
   -1.8870    2.7525   -0.4177 C   0  0  0  0  0  0  0  0  0  0  0  0
   -2.6891    1.9788   -1.2425 C   0  0  0  0  0  0  0  0  0  0  0  0
   -2.2000    0.7800   -1.7387 C   0  0  0  0  0  0  0  0  0  0  0  0
   -0.9190    0.3622   -1.4129 C   0  0  0  0  0  0  0  0  0  0  0  0
    1.6134    1.0588    0.7130 H   0  0  0  0  0  0  0  0  0  0  0  0
    2.0058    1.0738   -1.0039 H   0  0  0  0  0  0  0  0  0  0  0  0
    0.0118    2.9399    0.5534 H   0  0  0  0  0  0  0  0  0  0  0  0
   -2.2603    3.6883   -0.0205 H   0  0  0  0  0  0  0  0  0  0  0  0
   -3.6901    2.3057   -1.4935 H   0  0  0  0  0  0  0  0  0  0  0  0
   -2.8195    0.1652   -2.3800 H   0  0  0  0  0  0  0  0  0  0  0  0
   -0.5466   -0.5785   -1.8029 H   0  0  0  0  0  0  0  0  0  0  0  0
  1  2  2  3
  1  6  1  0
  1  7  1  0
  2  3  1  0
  2  8  1  0
  3  4  1  0
  3  5  1  0
  4 10  1  0
  4 11  1  0
  4 12  1  0
  5 13  1  0
  5 14  1  0
  5 15  1  0
  9 16  1  0
 16 17  1  0
 16 23  1  0
 16 24  1  0
 17 18  2  0
 17 22  1  0
 18 19  1  0
 18 25  1  0
 19 20  2  0
 19 26  1  0
 20 21  1  0
 20 27  1  0
 21 22  2  0
 21 28  1  0
 22 29  1  0
M  RAD  1   3   2
M  END
>  <reaction>  (12) 
rxn_1095

>  <mol_properties>  (12) 
{"1": {"label": "*0", "atom_type": "Cd"}, "2": {"label": "*1", "atom_type": "Cs"}, "8": {"label": "*2", "atom_type": "H0"}, "15": {"label": "*3", "atom_type": "Cd"}, "16": {"label": "*4", "atom_type": "Cd"}}

>  <type>  (12) 
unop_8

>  <geom_source>  (12) 
Heuristics

$$$$

     RDKit          3D

 29 28  0  0  0  0  0  0  0  0999 V2000
   -0.6647   -1.9682   -0.0071 C   0  0  0  0  0  0  0  0  0  0  0  0
   -0.6647   -1.9682    1.3164 C   0  0  0  0  0  0  0  0  0  0  0  0
   -0.6647   -0.7468    2.1885 C   0  0  0  0  0  3  0  0  0  0  0  0
    0.5946   -0.7064    3.0561 C   0  0  0  0  0  0  0  0  0  0  0  0
   -1.9240   -0.7064    3.0561 C   0  0  0  0  0  0  0  0  0  0  0  0
   -0.6647   -2.8899   -0.5753 H   0  0  0  0  0  0  0  0  0  0  0  0
   -0.6647   -1.0416   -0.5716 H   0  0  0  0  0  0  0  0  0  0  0  0
   -0.6647   -2.9195    1.8470 H   0  0  0  0  0  0  0  0  0  0  0  0
   -0.6647    0.3096    1.4080 H   0  0  0  0  0  0  0  0  0  0  0  0
    1.4962   -0.7005    2.4420 H   0  0  0  0  0  0  0  0  0  0  0  0
    0.6392   -1.5802    3.7119 H   0  0  0  0  0  0  0  0  0  0  0  0
    0.6022    0.1848    3.6871 H   0  0  0  0  0  0  0  0  0  0  0  0
   -1.9686   -1.5802    3.7119 H   0  0  0  0  0  0  0  0  0  0  0  0
   -2.8255   -0.7005    2.4420 H   0  0  0  0  0  0  0  0  0  0  0  0
   -1.9315    0.1848    3.6871 H   0  0  0  0  0  0  0  0  0  0  0  0
   -0.6647    1.3621    0.6304 C   0  0  0  0  0  0  0  0  0  0  0  0
    0.0357    1.0813   -0.6703 C   0  0  0  0  0  0  0  0  0  0  0  0
   -0.0405    1.9792   -1.7306 C   0  0  0  0  0  0  0  0  0  0  0  0
    0.6287    1.7376   -2.9204 C   0  0  0  0  0  0  0  0  0  0  0  0
    1.3881    0.5874   -3.0714 C   0  0  0  0  0  0  0  0  0  0  0  0
    1.4697   -0.3174   -2.0240 C   0  0  0  0  0  0  0  0  0  0  0  0
    0.7984   -0.0706   -0.8365 C   0  0  0  0  0  0  0  0  0  0  0  0
   -1.5669    1.9547    0.4754 H   0  0  0  0  0  0  0  0  0  0  0  0
   -0.0144    1.9231    1.3066 H   0  0  0  0  0  0  0  0  0  0  0  0
   -0.6347    2.8797   -1.6232 H   0  0  0  0  0  0  0  0  0  0  0  0
    0.5540    2.4490   -3.7336 H   0  0  0  0  0  0  0  0  0  0  0  0
    1.9093    0.3954   -4.0006 H   0  0  0  0  0  0  0  0  0  0  0  0
    2.0560   -1.2215   -2.1325 H   0  0  0  0  0  0  0  0  0  0  0  0
    0.8653   -0.7858   -0.0243 H   0  0  0  0  0  0  0  0  0  0  0  0
  1  2  2  3
  1  6  1  0
  1  7  1  0
  2  3  1  0
  2  8  1  0
  3  4  1  0
  3  5  1  0
  4 10  1  0
  4 11  1  0
  4 12  1  0
  5 13  1  0
  5 14  1  0
  5 15  1  0
  9 16  1  0
 16 17  1  0
 16 23  1  0
 16 24  1  0
 17 18  2  0
 17 22  1  0
 18 19  1  0
 18 25  1  0
 19 20  2  0
 19 26  1  0
 20 21  1  0
 20 27  1  0
 21 22  2  0
 21 28  1  0
 22 29  1  0
M  RAD  1   3   2
M  END
>  <reaction>  (13) 
rxn_1095

>  <mol_properties>  (13) 
{"1": {"label": "*0", "atom_type": "Cd"}, "2": {"label": "*1", "atom_type": "Cs"}, "8": {"label": "*2", "atom_type": "H0"}, "15": {"label": "*3", "atom_type": "Cd"}, "16": {"label": "*4", "atom_type": "Cd"}}

>  <type>  (13) 
unop_9

>  <geom_source>  (13) 
Heuristics

$$$$

     RDKit          3D

 29 28  0  0  0  0  0  0  0  0999 V2000
    1.1229   -2.2525   -0.3779 C   0  0  0  0  0  0  0  0  0  0  0  0
    1.1229   -2.2525    0.9456 C   0  0  0  0  0  0  0  0  0  0  0  0
    1.1229   -1.0312    1.8176 C   0  0  0  0  0  3  0  0  0  0  0  0
    2.3822   -0.9907    2.6853 C   0  0  0  0  0  0  0  0  0  0  0  0
   -0.1364   -0.9907    2.6853 C   0  0  0  0  0  0  0  0  0  0  0  0
    1.1229   -3.1743   -0.9462 H   0  0  0  0  0  0  0  0  0  0  0  0
    1.1229   -1.3260   -0.9425 H   0  0  0  0  0  0  0  0  0  0  0  0
    1.1229   -3.2038    1.4761 H   0  0  0  0  0  0  0  0  0  0  0  0
    1.1229    0.0252    1.0372 H   0  0  0  0  0  0  0  0  0  0  0  0
    3.2838   -0.9848    2.0711 H   0  0  0  0  0  0  0  0  0  0  0  0
    2.4268   -1.8646    3.3411 H   0  0  0  0  0  0  0  0  0  0  0  0
    2.3897   -0.0995    3.3163 H   0  0  0  0  0  0  0  0  0  0  0  0
   -0.1810   -1.8646    3.3411 H   0  0  0  0  0  0  0  0  0  0  0  0
   -1.0380   -0.9848    2.0711 H   0  0  0  0  0  0  0  0  0  0  0  0
   -0.1439   -0.0995    3.3163 H   0  0  0  0  0  0  0  0  0  0  0  0
    1.1229    1.0778    0.2596 C   0  0  0  0  0  0  0  0  0  0  0  0
   -0.0901    1.1016   -0.6288 C   0  0  0  0  0  0  0  0  0  0  0  0
   -1.0024    2.1503   -0.5636 C   0  0  0  0  0  0  0  0  0  0  0  0
   -2.1056    2.1903   -1.4022 C   0  0  0  0  0  0  0  0  0  0  0  0
   -2.3171    1.1763   -2.3239 C   0  0  0  0  0  0  0  0  0  0  0  0
   -1.4177    0.1237   -2.3970 C   0  0  0  0  0  0  0  0  0  0  0  0
   -0.3163    0.0889   -1.5558 C   0  0  0  0  0  0  0  0  0  0  0  0
    0.9302    1.5809    1.2077 H   0  0  0  0  0  0  0  0  0  0  0  0
    1.9629    1.5877   -0.2190 H   0  0  0  0  0  0  0  0  0  0  0  0
   -0.8474    2.9461    0.1564 H   0  0  0  0  0  0  0  0  0  0  0  0
   -2.8041    3.0150   -1.3331 H   0  0  0  0  0  0  0  0  0  0  0  0
   -3.1793    1.2042   -2.9779 H   0  0  0  0  0  0  0  0  0  0  0  0
   -1.5755   -0.6762   -3.1098 H   0  0  0  0  0  0  0  0  0  0  0  0
    0.3796   -0.7403   -1.6179 H   0  0  0  0  0  0  0  0  0  0  0  0
  1  2  2  3
  1  6  1  0
  1  7  1  0
  2  3  1  0
  2  8  1  0
  3  4  1  0
  3  5  1  0
  4 10  1  0
  4 11  1  0
  4 12  1  0
  5 13  1  0
  5 14  1  0
  5 15  1  0
  9 16  1  0
 16 17  1  0
 16 23  1  0
 16 24  1  0
 17 18  2  0
 17 22  1  0
 18 19  1  0
 18 25  1  0
 19 20  2  0
 19 26  1  0
 20 21  1  0
 20 27  1  0
 21 22  2  0
 21 28  1  0
 22 29  1  0
M  RAD  1   3   2
M  END
>  <reaction>  (14) 
rxn_1095

>  <mol_properties>  (14) 
{"1": {"label": "*0", "atom_type": "Cd"}, "2": {"label": "*1", "atom_type": "Cs"}, "8": {"label": "*2", "atom_type": "H0"}, "15": {"label": "*3", "atom_type": "Cd"}, "16": {"label": "*4", "atom_type": "Cd"}}

>  <type>  (14) 
unop_10

>  <geom_source>  (14) 
Heuristics

$$$$

     RDKit          3D

 29 28  0  0  0  0  0  0  0  0999 V2000
   -0.6366   -3.3067   -1.8238 C   0  0  0  0  0  0  0  0  0  0  0  0
   -0.6366   -3.3067   -0.5003 C   0  0  0  0  0  0  0  0  0  0  0  0
   -0.6366   -2.0853    0.3717 C   0  0  0  0  0  3  0  0  0  0  0  0
    0.6227   -2.0449    1.2394 C   0  0  0  0  0  0  0  0  0  0  0  0
   -1.8959   -2.0449    1.2394 C   0  0  0  0  0  0  0  0  0  0  0  0
   -0.6366   -4.2284   -2.3921 H   0  0  0  0  0  0  0  0  0  0  0  0
   -0.6366   -2.3802   -2.3884 H   0  0  0  0  0  0  0  0  0  0  0  0
   -0.6366   -4.2580    0.0302 H   0  0  0  0  0  0  0  0  0  0  0  0
   -0.6366   -1.0289   -0.4087 H   0  0  0  0  0  0  0  0  0  0  0  0
    1.5243   -2.0390    0.6252 H   0  0  0  0  0  0  0  0  0  0  0  0
    0.6673   -2.9187    1.8952 H   0  0  0  0  0  0  0  0  0  0  0  0
    0.6303   -1.1537    1.8704 H   0  0  0  0  0  0  0  0  0  0  0  0
   -1.9405   -2.9187    1.8952 H   0  0  0  0  0  0  0  0  0  0  0  0
   -2.7974   -2.0390    0.6252 H   0  0  0  0  0  0  0  0  0  0  0  0
   -1.9034   -1.1537    1.8704 H   0  0  0  0  0  0  0  0  0  0  0  0
   -0.6366    0.0236   -1.1863 C   0  0  0  0  0  0  0  0  0  0  0  0
    0.0638    1.1844   -0.5357 C   0  0  0  0  0  0  0  0  0  0  0  0
    0.1789    2.4069   -1.1904 C   0  0  0  0  0  0  0  0  0  0  0  0
    0.7975    3.4877   -0.5812 C   0  0  0  0  0  0  0  0  0  0  0  0
    1.3153    3.3633    0.6989 C   0  0  0  0  0  0  0  0  0  0  0  0
    1.2104    2.1498    1.3613 C   0  0  0  0  0  0  0  0  0  0  0  0
    0.5909    1.0723    0.7472 C   0  0  0  0  0  0  0  0  0  0  0  0
   -0.5386    0.0590   -2.2718 H   0  0  0  0  0  0  0  0  0  0  0  0
   -1.7040    0.0350   -0.9515 H   0  0  0  0  0  0  0  0  0  0  0  0
   -0.2198    2.5127   -2.1931 H   0  0  0  0  0  0  0  0  0  0  0  0
    0.8780    4.4294   -1.1099 H   0  0  0  0  0  0  0  0  0  0  0  0
    1.8011    4.2052    1.1756 H   0  0  0  0  0  0  0  0  0  0  0  0
    1.6155    2.0398    2.3597 H   0  0  0  0  0  0  0  0  0  0  0  0
    0.5168    0.1263    1.2718 H   0  0  0  0  0  0  0  0  0  0  0  0
  1  2  2  3
  1  6  1  0
  1  7  1  0
  2  3  1  0
  2  8  1  0
  3  4  1  0
  3  5  1  0
  4 10  1  0
  4 11  1  0
  4 12  1  0
  5 13  1  0
  5 14  1  0
  5 15  1  0
  9 16  1  0
 16 17  1  0
 16 23  1  0
 16 24  1  0
 17 18  2  0
 17 22  1  0
 18 19  1  0
 18 25  1  0
 19 20  2  0
 19 26  1  0
 20 21  1  0
 20 27  1  0
 21 22  2  0
 21 28  1  0
 22 29  1  0
M  RAD  1   3   2
M  END
>  <reaction>  (15) 
rxn_1095

>  <mol_properties>  (15) 
{"1": {"label": "*0", "atom_type": "Cd"}, "2": {"label": "*1", "atom_type": "Cs"}, "8": {"label": "*2", "atom_type": "H0"}, "15": {"label": "*3", "atom_type": "Cd"}, "16": {"label": "*4", "atom_type": "Cd"}}

>  <type>  (15) 
unop_11

>  <geom_source>  (15) 
Heuristics

$$$$

     RDKit          3D

 29 28  0  0  0  0  0  0  0  0999 V2000
   -0.0123   -1.8642    0.1408 C   0  0  0  0  0  0  0  0  0  0  0  0
   -0.0123   -1.8642    1.4643 C   0  0  0  0  0  0  0  0  0  0  0  0
   -0.0123   -0.6428    2.3363 C   0  0  0  0  0  3  0  0  0  0  0  0
    1.2470   -0.6024    3.2040 C   0  0  0  0  0  0  0  0  0  0  0  0
   -1.2716   -0.6024    3.2040 C   0  0  0  0  0  0  0  0  0  0  0  0
   -0.0123   -2.7859   -0.4275 H   0  0  0  0  0  0  0  0  0  0  0  0
   -0.0123   -0.9376   -0.4238 H   0  0  0  0  0  0  0  0  0  0  0  0
   -0.0123   -2.8155    1.9948 H   0  0  0  0  0  0  0  0  0  0  0  0
   -0.0123    0.4136    1.5559 H   0  0  0  0  0  0  0  0  0  0  0  0
    2.1485   -0.5965    2.5898 H   0  0  0  0  0  0  0  0  0  0  0  0
    1.2916   -1.4762    3.8598 H   0  0  0  0  0  0  0  0  0  0  0  0
    1.2545    0.2888    3.8349 H   0  0  0  0  0  0  0  0  0  0  0  0
   -1.3162   -1.4762    3.8598 H   0  0  0  0  0  0  0  0  0  0  0  0
   -2.1732   -0.5965    2.5898 H   0  0  0  0  0  0  0  0  0  0  0  0
   -1.2792    0.2888    3.8349 H   0  0  0  0  0  0  0  0  0  0  0  0
   -0.0123    1.4662    0.7783 C   0  0  0  0  0  0  0  0  0  0  0  0
   -0.0123    1.0739   -0.6734 C   0  0  0  0  0  0  0  0  0  0  0  0
   -0.5903    1.8965   -1.6354 C   0  0  0  0  0  0  0  0  0  0  0  0
   -0.5652    1.5520   -2.9780 C   0  0  0  0  0  0  0  0  0  0  0  0
    0.0399    0.3722   -3.3833 C   0  0  0  0  0  0  0  0  0  0  0  0
    0.6166   -0.4584   -2.4347 C   0  0  0  0  0  0  0  0  0  0  0  0
    0.5885   -0.1088   -1.0934 C   0  0  0  0  0  0  0  0  0  0  0  0
   -0.8844    2.0726    1.0254 H   0  0  0  0  0  0  0  0  0  0  0  0
    0.8768    2.0541    1.0200 H   0  0  0  0  0  0  0  0  0  0  0  0
   -1.0690    2.8195   -1.3277 H   0  0  0  0  0  0  0  0  0  0  0  0
   -1.0230    2.2062   -3.7097 H   0  0  0  0  0  0  0  0  0  0  0  0
    0.0583    0.0999   -4.4309 H   0  0  0  0  0  0  0  0  0  0  0  0
    1.0878   -1.3847   -2.7393 H   0  0  0  0  0  0  0  0  0  0  0  0
    1.0390   -0.7666   -0.3586 H   0  0  0  0  0  0  0  0  0  0  0  0
  1  2  2  3
  1  6  1  0
  1  7  1  0
  2  3  1  0
  2  8  1  0
  3  4  1  0
  3  5  1  0
  4 10  1  0
  4 11  1  0
  4 12  1  0
  5 13  1  0
  5 14  1  0
  5 15  1  0
  9 16  1  0
 16 17  1  0
 16 23  1  0
 16 24  1  0
 17 18  2  0
 17 22  1  0
 18 19  1  0
 18 25  1  0
 19 20  2  0
 19 26  1  0
 20 21  1  0
 20 27  1  0
 21 22  2  0
 21 28  1  0
 22 29  1  0
M  RAD  1   3   2
M  END
>  <reaction>  (16) 
rxn_1095

>  <mol_properties>  (16) 
{"1": {"label": "*0", "atom_type": "Cd"}, "2": {"label": "*1", "atom_type": "Cs"}, "8": {"label": "*2", "atom_type": "H0"}, "15": {"label": "*3", "atom_type": "Cd"}, "16": {"label": "*4", "atom_type": "Cd"}}

>  <type>  (16) 
unop_12

>  <geom_source>  (16) 
Heuristics

$$$$

     RDKit          3D

 29 28  0  0  0  0  0  0  0  0999 V2000
   -1.3875   -1.0453   -1.2312 C   0  0  0  0  0  0  0  0  0  0  0  0
   -3.3405   -0.7225    0.3374 C   0  0  0  0  0  0  0  0  0  0  0  0
    0.2066   -0.8059    1.1388 C   0  0  0  0  0  0  0  0  0  0  0  0
   -1.9788   -0.1879   -0.1114 C   0  0  0  0  0  3  0  0  0  0  0  0
    1.5117   -0.3273    0.5789 C   0  0  0  0  0  0  0  0  0  0  0  0
    1.5824    0.1475   -0.7403 C   0  0  0  0  0  0  0  0  0  0  0  0
    2.6849   -0.4118    1.3460 C   0  0  0  0  0  0  0  0  0  0  0  0
   -2.0713    1.2581   -0.5217 C   0  0  0  0  0  0  0  0  0  0  0  0
    2.8074    0.5606   -1.2744 C   0  0  0  0  0  0  0  0  0  0  0  0
    3.9080    0.0021    0.8085 C   0  0  0  0  0  0  0  0  0  0  0  0
    3.9688    0.4903   -0.4998 C   0  0  0  0  0  0  0  0  0  0  0  0
   -2.1469    2.2263    0.3939 C   0  0  0  0  0  0  0  0  0  0  0  0
    0.0999   -1.8943    0.9487 H   0  0  0  0  0  0  0  0  0  0  0  0
    0.1602   -0.6217    2.2333 H   0  0  0  0  0  0  0  0  0  0  0  0
   -0.7890   -0.1767    0.5805 H   0  0  0  0  0  0  0  0  0  0  0  0
   -2.0476   -1.0344   -2.1254 H   0  0  0  0  0  0  0  0  0  0  0  0
   -0.3859   -0.6576   -1.5142 H   0  0  0  0  0  0  0  0  0  0  0  0
   -1.2668   -2.0925   -0.8822 H   0  0  0  0  0  0  0  0  0  0  0  0
   -3.7212   -0.1271    1.1938 H   0  0  0  0  0  0  0  0  0  0  0  0
   -3.2425   -1.7775    0.6695 H   0  0  0  0  0  0  0  0  0  0  0  0
   -4.0747   -0.6707   -0.4953 H   0  0  0  0  0  0  0  0  0  0  0  0
    0.6919    0.1981   -1.3546 H   0  0  0  0  0  0  0  0  0  0  0  0
    2.6523   -0.7967    2.3578 H   0  0  0  0  0  0  0  0  0  0  0  0
    2.8568    0.9315   -2.2900 H   0  0  0  0  0  0  0  0  0  0  0  0
    4.8091   -0.0590    1.4050 H   0  0  0  0  0  0  0  0  0  0  0  0
    4.9162    0.8090   -0.9150 H   0  0  0  0  0  0  0  0  0  0  0  0
   -2.0498    1.5281   -1.5742 H   0  0  0  0  0  0  0  0  0  0  0  0
   -2.1533    1.9926    1.4543 H   0  0  0  0  0  0  0  0  0  0  0  0
   -2.2004    3.2647    0.0833 H   0  0  0  0  0  0  0  0  0  0  0  0
  1  4  1  0
  1 16  1  0
  1 17  1  0
  1 18  1  0
  2  4  1  0
  2 19  1  0
  2 20  1  0
  2 21  1  0
  3  5  1  0
  3 13  1  0
  3 14  1  0
  3 15  1  0
  4  8  1  0
  5  6  2  0
  5  7  1  0
  6  9  1  0
  6 22  1  0
  7 10  2  0
  7 23  1  0
  8 12  2  3
  8 27  1  0
  9 11  2  0
  9 24  1  0
 10 11  1  0
 10 25  1  0
 11 26  1  0
 12 28  1  0
 12 29  1  0
M  RAD  1   4   2
M  END
>  <reaction>  (17) 
rxn_1095

>  <mol_properties>  (17) 
{"1": {"label": "*0", "atom_type": "Cd"}, "2": {"label": "*1", "atom_type": "Cs"}, "8": {"label": "*2", "atom_type": "H0"}, "15": {"label": "*3", "atom_type": "Cd"}, "16": {"label": "*4", "atom_type": "Cd"}}

>  <type>  (17) 
unop_13

>  <geom_source>  (17) 
AutoTST

$$$$

     RDKit          3D

 29 28  0  0  0  0  0  0  0  0999 V2000
    0.6430   -1.9684    0.0047 C   0  0  0  0  0  0  0  0  0  0  0  0
    0.6430   -1.9684    1.3281 C   0  0  0  0  0  0  0  0  0  0  0  0
    0.6430   -0.7470    2.2002 C   0  0  0  0  0  3  0  0  0  0  0  0
    1.9023   -0.7066    3.0678 C   0  0  0  0  0  0  0  0  0  0  0  0
   -0.6163   -0.7066    3.0678 C   0  0  0  0  0  0  0  0  0  0  0  0
    0.6430   -2.8901   -0.5636 H   0  0  0  0  0  0  0  0  0  0  0  0
    0.6430   -1.0418   -0.5599 H   0  0  0  0  0  0  0  0  0  0  0  0
    0.6430   -2.9197    1.8587 H   0  0  0  0  0  0  0  0  0  0  0  0
    0.6430    0.3094    1.4197 H   0  0  0  0  0  0  0  0  0  0  0  0
    2.8038   -0.7007    2.4537 H   0  0  0  0  0  0  0  0  0  0  0  0
    1.9469   -1.5804    3.7236 H   0  0  0  0  0  0  0  0  0  0  0  0
    1.9098    0.1846    3.6988 H   0  0  0  0  0  0  0  0  0  0  0  0
   -0.6609   -1.5804    3.7236 H   0  0  0  0  0  0  0  0  0  0  0  0
   -1.5179   -0.7007    2.4537 H   0  0  0  0  0  0  0  0  0  0  0  0
   -0.6239    0.1846    3.6988 H   0  0  0  0  0  0  0  0  0  0  0  0
    0.6430    1.3619    0.6422 C   0  0  0  0  0  0  0  0  0  0  0  0
   -0.0574    1.0812   -0.6586 C   0  0  0  0  0  0  0  0  0  0  0  0
   -0.9981    1.9701   -1.1694 C   0  0  0  0  0  0  0  0  0  0  0  0
   -1.6233    1.7289   -2.3830 C   0  0  0  0  0  0  0  0  0  0  0  0
   -1.3179    0.5880   -3.1093 C   0  0  0  0  0  0  0  0  0  0  0  0
   -0.3849   -0.3079   -2.6102 C   0  0  0  0  0  0  0  0  0  0  0  0
    0.2372   -0.0615   -1.3960 C   0  0  0  0  0  0  0  0  0  0  0  0
    0.0109    1.9411    1.3161 H   0  0  0  0  0  0  0  0  0  0  0  0
    1.5572    1.9366    0.4730 H   0  0  0  0  0  0  0  0  0  0  0  0
   -1.2462    2.8632   -0.6069 H   0  0  0  0  0  0  0  0  0  0  0  0
   -2.3540    2.4332   -2.7610 H   0  0  0  0  0  0  0  0  0  0  0  0
   -1.8068    0.3963   -4.0560 H   0  0  0  0  0  0  0  0  0  0  0  0
   -0.1420   -1.2047   -3.1667 H   0  0  0  0  0  0  0  0  0  0  0  0
    0.9629   -0.7698   -1.0121 H   0  0  0  0  0  0  0  0  0  0  0  0
  1  2  2  3
  1  6  1  0
  1  7  1  0
  2  3  1  0
  2  8  1  0
  3  4  1  0
  3  5  1  0
  4 10  1  0
  4 11  1  0
  4 12  1  0
  5 13  1  0
  5 14  1  0
  5 15  1  0
  9 16  1  0
 16 17  1  0
 16 23  1  0
 16 24  1  0
 17 18  2  0
 17 22  1  0
 18 19  1  0
 18 25  1  0
 19 20  2  0
 19 26  1  0
 20 21  1  0
 20 27  1  0
 21 22  2  0
 21 28  1  0
 22 29  1  0
M  RAD  1   3   2
M  END
>  <reaction>  (18) 
rxn_1095

>  <mol_properties>  (18) 
{"1": {"label": "*0", "atom_type": "Cd"}, "2": {"label": "*1", "atom_type": "Cs"}, "8": {"label": "*2", "atom_type": "H0"}, "15": {"label": "*3", "atom_type": "Cd"}, "16": {"label": "*4", "atom_type": "Cd"}}

>  <type>  (18) 
unop_14

>  <geom_source>  (18) 
gaussian_log

$$$$
