
     RDKit          3D

 10  9  0  0  0  0  0  0  0  0999 V2000
    2.2738    0.0217   -0.0992 C   0  0  0  0  0  0  0  0  0  0  0  0
    1.1083    0.2960   -0.0695 C   0  0  0  0  0  0  0  0  0  0  0  0
   -0.3173    0.6046   -0.0227 C   0  0  0  0  0  0  0  0  0  0  0  0
   -1.1561   -0.5495    0.5292 C   0  0  0  0  0  0  0  0  0  0  0  0
    3.3097   -0.2166   -0.1277 H   0  0  0  0  0  0  0  0  0  0  0  0
   -0.6542    0.8617   -1.0302 H   0  0  0  0  0  0  0  0  0  0  0  0
   -0.4633    1.4978    0.5900 H   0  0  0  0  0  0  0  0  0  0  0  0
   -0.8485   -0.7997    1.5447 H   0  0  0  0  0  0  0  0  0  0  0  0
   -2.2115   -0.2752    0.5459 H   0  0  0  0  0  0  0  0  0  0  0  0
   -1.0409   -1.4407   -0.0879 H   0  0  0  0  0  0  0  0  0  0  0  0
  1  2  3  0
  1  5  1  0
  2  3  1  0
  3  4  1  0
  3  6  1  0
  3  7  1  0
  4  8  1  0
  4  9  1  0
  4 10  1  0
M  END
>  <reaction>  (1) 
rxn_1281

>  <mol_properties>  (1) 
{"2": {"label": "donator", "atom_type": "Cs"}, "5": {"label": "d_hydrogen", "atom_type": "H0"}}

>  <type>  (1) 
r1h

$$$$

     RDKit          3D

 11 10  0  0  0  0  0  0  0  0999 V2000
    1.0781   -1.0166   -0.1159 C   0  0  0  0  0  0  0  0  0  0  0  0
    0.2180    0.1942   -0.2297 C   0  0  0  0  0  3  0  0  0  0  0  0
    0.9343    1.7769   -0.3011 S   0  0  0  0  0  0  0  0  0  0  0  0
   -1.1949    0.1490    0.2439 C   0  0  0  0  0  0  0  0  0  0  0  0
    1.4718   -1.1461    0.9024 H   0  0  0  0  0  0  0  0  0  0  0  0
    1.9367   -0.9751   -0.7902 H   0  0  0  0  0  0  0  0  0  0  0  0
    0.5033   -1.9136   -0.3576 H   0  0  0  0  0  0  0  0  0  0  0  0
    2.1166    1.4195   -0.8209 H   0  0  0  0  0  0  0  0  0  0  0  0
   -1.2620    0.0939    1.3399 H   0  0  0  0  0  0  0  0  0  0  0  0
   -1.7600    1.0270   -0.0739 H   0  0  0  0  0  0  0  0  0  0  0  0
   -1.6972   -0.7380   -0.1506 H   0  0  0  0  0  0  0  0  0  0  0  0
  1  2  1  0
  1  5  1  0
  1  6  1  0
  1  7  1  0
  2  4  1  0
  2  3  1  0
  3  8  1  0
  4  9  1  0
  4 10  1  0
  4 11  1  0
M  RAD  1   2   2
M  END
>  <reaction>  (2) 
rxn_1281

>  <mol_properties>  (2) 
{"1": {"label": "acceptor", "atom_type": "Cs"}}

>  <type>  (2) 
r2

$$$$

     RDKit          3D

 12 11  0  0  0  0  0  0  0  0999 V2000
    1.2394   -0.3763   -0.3020 C   0  0  0  0  0  0  0  0  0  0  0  0
    0.1007    0.3023    0.4464 C   0  0  0  0  0  0  0  0  0  0  0  0
   -0.1187    2.0399   -0.0725 S   0  0  0  0  0  0  0  0  0  0  0  0
   -1.1974   -0.4877    0.3552 C   0  0  0  0  0  0  0  0  0  0  0  0
    2.1681    0.1849   -0.2048 H   0  0  0  0  0  0  0  0  0  0  0  0
    1.0031   -0.4606   -1.3656 H   0  0  0  0  0  0  0  0  0  0  0  0
    1.3994   -1.3856    0.0860 H   0  0  0  0  0  0  0  0  0  0  0  0
    0.3796    0.4050    1.4981 H   0  0  0  0  0  0  0  0  0  0  0  0
   -0.4500    1.7779   -1.3452 H   0  0  0  0  0  0  0  0  0  0  0  0
   -1.0545   -1.4978    0.7479 H   0  0  0  0  0  0  0  0  0  0  0  0
   -1.5206   -0.5759   -0.6849 H   0  0  0  0  0  0  0  0  0  0  0  0
   -1.9957   -0.0054    0.9183 H   0  0  0  0  0  0  0  0  0  0  0  0
  1  2  1  0
  1  5  1  0
  1  6  1  0
  1  7  1  0
  2  4  1  0
  2  3  1  0
  2  8  1  0
  3  9  1  0
  4 10  1  0
  4 11  1  0
  4 12  1  0
M  END
>  <reaction>  (3) 
rxn_1281

>  <mol_properties>  (3) 
{"0": {"label": "a_hydrogen", "atom_type": "H0"}, "2": {"label": "acceptor", "atom_type": "Cs"}}

>  <type>  (3) 
r2h

$$$$

     RDKit          3D

 21 19  0  0  0  0  0  0  0  0999 V2000
   -1.8704   -0.2993   -2.1961 C   0  0  0  0  0  0  0  0  0  0  0  0
   -1.7136    0.4052   -1.2323 C   0  0  0  0  0  0  0  0  0  0  0  0
   -1.4531    1.1998   -0.0778 C   0  0  0  0  0  0  0  0  0  0  0  0
   -0.8855    2.5831   -0.3102 C   0  0  0  0  0  0  0  0  0  0  0  0
   -2.0383   -0.9032   -3.0549 H   0  0  0  0  0  0  0  0  0  0  0  0
   -0.4627    0.5453    0.5418 H   0  0  0  0  0  0  0  0  0  0  0  0
   -2.2606    1.1620    0.6527 H   0  0  0  0  0  0  0  0  0  0  0  0
   -1.5926    3.2204   -0.8469 H   0  0  0  0  0  0  0  0  0  0  0  0
   -0.6526    3.0616    0.6421 H   0  0  0  0  0  0  0  0  0  0  0  0
    0.0317    2.5243   -0.8981 H   0  0  0  0  0  0  0  0  0  0  0  0
    0.9626    0.6163    2.3210 C   0  0  0  0  0  0  0  0  0  0  0  0
    0.5538   -0.1543    1.0905 C   0  0  0  0  0  3  0  0  0  0  0  0
    1.8342   -0.1219   -0.1524 S   0  0  0  0  0  0  0  0  0  0  0  0
   -0.0729   -1.5013    1.3460 C   0  0  0  0  0  0  0  0  0  0  0  0
    1.3364    1.6092    2.0671 H   0  0  0  0  0  0  0  0  0  0  0  0
    1.7452    0.0912    2.8786 H   0  0  0  0  0  0  0  0  0  0  0  0
    0.1044    0.7321    2.9864 H   0  0  0  0  0  0  0  0  0  0  0  0
    1.1402   -0.7626   -1.1040 H   0  0  0  0  0  0  0  0  0  0  0  0
   -0.8971   -1.4011    2.0568 H   0  0  0  0  0  0  0  0  0  0  0  0
   -0.4716   -1.9313    0.4257 H   0  0  0  0  0  0  0  0  0  0  0  0
    0.6560   -2.2021    1.7640 H   0  0  0  0  0  0  0  0  0  0  0  0
  1  2  3  0
  1  5  1  0
  2  3  1  0
  3  4  1  0
  3  6  1  0
  3  7  1  0
  4  8  1  0
  4  9  1  0
  4 10  1  0
 11 12  1  0
 11 15  1  0
 11 16  1  0
 11 17  1  0
 12 14  1  0
 12 13  1  0
 13 18  1  0
 14 19  1  0
 14 20  1  0
 14 21  1  0
M  RAD  1  12   2
M  END
>  <reaction>  (4) 
rxn_1281

>  <mol_properties>  (4) 
{"1": {"label": "*0", "atom_type": "Ct"}, "2": {"label": "*1", "atom_type": "Cs"}, "5": {"label": "*2", "atom_type": "H0"}, "11": {"label": "*3", "atom_type": "Cs"}, "12": {"label": "*4", "atom_type": "S2s"}}

>  <type>  (4) 
ts

$$$$

     RDKit          3D

 21 19  0  0  0  0  0  0  0  0999 V2000
   -1.4431    0.8673   -2.8304 C   0  0  0  0  0  0  0  0  0  0  0  0
   -1.4431    0.8673   -1.6327 C   0  0  0  0  0  0  0  0  0  0  0  0
   -1.4431    0.8955   -0.1735 C   0  0  0  0  0  0  0  0  0  0  0  0
   -1.4431    2.3169    0.3921 C   0  0  0  0  0  0  0  0  0  0  0  0
   -1.4431    0.8673   -3.8937 H   0  0  0  0  0  0  0  0  0  0  0  0
   -0.3925    0.2414    0.2606 H   0  0  0  0  0  0  0  0  0  0  0  0
   -2.3186    0.3504    0.1882 H   0  0  0  0  0  0  0  0  0  0  0  0
   -2.3253    2.8647    0.0606 H   0  0  0  0  0  0  0  0  0  0  0  0
   -1.4431    2.2896    1.4824 H   0  0  0  0  0  0  0  0  0  0  0  0
   -0.5608    2.8647    0.0606 H   0  0  0  0  0  0  0  0  0  0  0  0
    1.5228    0.5326    1.5169 C   0  0  0  0  0  0  0  0  0  0  0  0
    0.6582   -0.4128    0.6946 C   0  0  0  0  0  3  0  0  0  0  0  0
    1.6474   -1.7257   -0.1018 S   0  0  0  0  0  0  0  0  0  0  0  0
   -0.4988   -0.9825    1.5035 C   0  0  0  0  0  0  0  0  0  0  0  0
    2.3294    0.9543    0.9182 H   0  0  0  0  0  0  0  0  0  0  0  0
    1.9683    0.0058    2.3644 H   0  0  0  0  0  0  0  0  0  0  0  0
    0.9173    1.3518    1.9131 H   0  0  0  0  0  0  0  0  0  0  0  0
    2.0731   -2.3036    1.0309 H   0  0  0  0  0  0  0  0  0  0  0  0
   -1.1185   -0.1739    1.8997 H   0  0  0  0  0  0  0  0  0  0  0  0
   -1.1248   -1.6345    0.8954 H   0  0  0  0  0  0  0  0  0  0  0  0
   -0.1253   -1.5633    2.3505 H   0  0  0  0  0  0  0  0  0  0  0  0
  1  2  3  0
  1  5  1  0
  2  3  1  0
  3  4  1  0
  3  6  1  0
  3  7  1  0
  4  8  1  0
  4  9  1  0
  4 10  1  0
 11 12  1  0
 11 15  1  0
 11 16  1  0
 11 17  1  0
 12 14  1  0
 12 13  1  0
 13 18  1  0
 14 19  1  0
 14 20  1  0
 14 21  1  0
M  RAD  1  12   2
M  END
>  <reaction>  (5) 
rxn_1281

>  <mol_properties>  (5) 
{"1": {"label": "*0", "atom_type": "Ct"}, "2": {"label": "*1", "atom_type": "Cs"}, "5": {"label": "*2", "atom_type": "H0"}, "11": {"label": "*3", "atom_type": "Cs"}, "12": {"label": "*4", "atom_type": "S2s"}}

>  <type>  (5) 
unop_1

>  <geom_source>  (5) 
Heuristics

$$$$

     RDKit          3D

 21 19  0  0  0  0  0  0  0  0999 V2000
   -1.3274    0.8889   -2.9814 C   0  0  0  0  0  0  0  0  0  0  0  0
   -1.3274    0.8889   -1.7837 C   0  0  0  0  0  0  0  0  0  0  0  0
   -1.3274    0.9171   -0.3246 C   0  0  0  0  0  0  0  0  0  0  0  0
   -1.3274    2.3385    0.2410 C   0  0  0  0  0  0  0  0  0  0  0  0
   -1.3274    0.8889   -4.0447 H   0  0  0  0  0  0  0  0  0  0  0  0
   -0.2768    0.2630    0.1095 H   0  0  0  0  0  0  0  0  0  0  0  0
   -2.2029    0.3721    0.0372 H   0  0  0  0  0  0  0  0  0  0  0  0
   -2.2096    2.8864   -0.0904 H   0  0  0  0  0  0  0  0  0  0  0  0
   -1.3274    2.3112    1.3313 H   0  0  0  0  0  0  0  0  0  0  0  0
   -0.4451    2.8864   -0.0904 H   0  0  0  0  0  0  0  0  0  0  0  0
    1.8920   -0.2646   -0.4817 C   0  0  0  0  0  0  0  0  0  0  0  0
    0.7739   -0.3911    0.5436 C   0  0  0  0  0  3  0  0  0  0  0  0
    0.5106   -2.1240    1.0577 S   0  0  0  0  0  0  0  0  0  0  0  0
    0.9816    0.5317    1.7363 C   0  0  0  0  0  0  0  0  0  0  0  0
    1.7160   -0.9092   -1.3422 H   0  0  0  0  0  0  0  0  0  0  0  0
    2.8516   -0.5430   -0.0392 H   0  0  0  0  0  0  0  0  0  0  0  0
    1.9715    0.7684   -0.8301 H   0  0  0  0  0  0  0  0  0  0  0  0
    1.7166   -2.3017    1.6165 H   0  0  0  0  0  0  0  0  0  0  0  0
    1.0547    1.5703    1.4035 H   0  0  0  0  0  0  0  0  0  0  0  0
    0.1605    0.4515    2.4477 H   0  0  0  0  0  0  0  0  0  0  0  0
    1.9088    0.2817    2.2579 H   0  0  0  0  0  0  0  0  0  0  0  0
  1  2  3  0
  1  5  1  0
  2  3  1  0
  3  4  1  0
  3  6  1  0
  3  7  1  0
  4  8  1  0
  4  9  1  0
  4 10  1  0
 11 12  1  0
 11 15  1  0
 11 16  1  0
 11 17  1  0
 12 14  1  0
 12 13  1  0
 13 18  1  0
 14 19  1  0
 14 20  1  0
 14 21  1  0
M  RAD  1  12   2
M  END
>  <reaction>  (6) 
rxn_1281

>  <mol_properties>  (6) 
{"1": {"label": "*0", "atom_type": "Ct"}, "2": {"label": "*1", "atom_type": "Cs"}, "5": {"label": "*2", "atom_type": "H0"}, "11": {"label": "*3", "atom_type": "Cs"}, "12": {"label": "*4", "atom_type": "S2s"}}

>  <type>  (6) 
unop_2

>  <geom_source>  (6) 
Heuristics

$$$$

     RDKit          3D

 21 19  0  0  0  0  0  0  0  0999 V2000
   -1.5280    0.7620   -2.7466 C   0  0  0  0  0  0  0  0  0  0  0  0
   -1.5280    0.7620   -1.5489 C   0  0  0  0  0  0  0  0  0  0  0  0
   -1.5280    0.7903   -0.0897 C   0  0  0  0  0  0  0  0  0  0  0  0
   -1.5280    2.2116    0.4759 C   0  0  0  0  0  0  0  0  0  0  0  0
   -1.5280    0.7620   -3.8099 H   0  0  0  0  0  0  0  0  0  0  0  0
   -0.4774    0.1362    0.3444 H   0  0  0  0  0  0  0  0  0  0  0  0
   -2.4035    0.2452    0.2720 H   0  0  0  0  0  0  0  0  0  0  0  0
   -2.4102    2.7595    0.1444 H   0  0  0  0  0  0  0  0  0  0  0  0
   -1.5280    2.1844    1.5662 H   0  0  0  0  0  0  0  0  0  0  0  0
   -0.6458    2.7595    0.1444 H   0  0  0  0  0  0  0  0  0  0  0  0
    1.0135    0.0815    2.1067 C   0  0  0  0  0  0  0  0  0  0  0  0
    0.5732   -0.5180    0.7784 C   0  0  0  0  0  3  0  0  0  0  0  0
    1.9966   -0.9526   -0.2807 S   0  0  0  0  0  0  0  0  0  0  0  0
   -0.3772   -1.6924    0.9656 C   0  0  0  0  0  0  0  0  0  0  0  0
    1.6702    0.9378    1.9572 H   0  0  0  0  0  0  0  0  0  0  0  0
    1.5518   -0.6597    2.7025 H   0  0  0  0  0  0  0  0  0  0  0  0
    0.1431    0.4057    2.6830 H   0  0  0  0  0  0  0  0  0  0  0  0
    2.5143   -1.8829    0.5346 H   0  0  0  0  0  0  0  0  0  0  0  0
   -1.2573   -1.3806    1.5339 H   0  0  0  0  0  0  0  0  0  0  0  0
   -0.7060   -2.0932    0.0074 H   0  0  0  0  0  0  0  0  0  0  0  0
    0.1116   -2.4968    1.5207 H   0  0  0  0  0  0  0  0  0  0  0  0
  1  2  3  0
  1  5  1  0
  2  3  1  0
  3  4  1  0
  3  6  1  0
  3  7  1  0
  4  8  1  0
  4  9  1  0
  4 10  1  0
 11 12  1  0
 11 15  1  0
 11 16  1  0
 11 17  1  0
 12 14  1  0
 12 13  1  0
 13 18  1  0
 14 19  1  0
 14 20  1  0
 14 21  1  0
M  RAD  1  12   2
M  END
>  <reaction>  (7) 
rxn_1281

>  <mol_properties>  (7) 
{"1": {"label": "*0", "atom_type": "Ct"}, "2": {"label": "*1", "atom_type": "Cs"}, "5": {"label": "*2", "atom_type": "H0"}, "11": {"label": "*3", "atom_type": "Cs"}, "12": {"label": "*4", "atom_type": "S2s"}}

>  <type>  (7) 
unop_3

>  <geom_source>  (7) 
Heuristics

$$$$

     RDKit          3D

 21 19  0  0  0  0  0  0  0  0999 V2000
   -1.1291    0.6315   -3.1756 C   0  0  0  0  0  0  0  0  0  0  0  0
   -1.1291    0.6315   -1.9779 C   0  0  0  0  0  0  0  0  0  0  0  0
   -1.1291    0.6597   -0.5188 C   0  0  0  0  0  0  0  0  0  0  0  0
   -1.1291    2.0811    0.0468 C   0  0  0  0  0  0  0  0  0  0  0  0
   -1.1291    0.6315   -4.2389 H   0  0  0  0  0  0  0  0  0  0  0  0
   -0.0785    0.0056   -0.0847 H   0  0  0  0  0  0  0  0  0  0  0  0
   -2.0046    0.1146   -0.1571 H   0  0  0  0  0  0  0  0  0  0  0  0
   -2.0113    2.6289   -0.2846 H   0  0  0  0  0  0  0  0  0  0  0  0
   -1.1291    2.0538    1.1371 H   0  0  0  0  0  0  0  0  0  0  0  0
   -0.2469    2.6289   -0.2846 H   0  0  0  0  0  0  0  0  0  0  0  0
    0.8978   -2.0860   -0.1464 C   0  0  0  0  0  0  0  0  0  0  0  0
    0.9722   -0.6486    0.3494 C   0  0  0  0  0  3  0  0  0  0  0  0
   -0.0672   -0.3806    1.8274 S   0  0  0  0  0  0  0  0  0  0  0  0
    2.4072   -0.1915    0.5714 C   0  0  0  0  0  0  0  0  0  0  0  0
   -0.1325   -2.3902   -0.3278 H   0  0  0  0  0  0  0  0  0  0  0  0
    1.3290   -2.7686    0.5900 H   0  0  0  0  0  0  0  0  0  0  0  0
    1.4629   -2.1960   -1.0755 H   0  0  0  0  0  0  0  0  0  0  0  0
    0.5992   -1.2177    2.6357 H   0  0  0  0  0  0  0  0  0  0  0  0
    2.9828   -0.2882   -0.3527 H   0  0  0  0  0  0  0  0  0  0  0  0
    2.4465    0.8469    0.8987 H   0  0  0  0  0  0  0  0  0  0  0  0
    2.8921   -0.8065    1.3334 H   0  0  0  0  0  0  0  0  0  0  0  0
  1  2  3  0
  1  5  1  0
  2  3  1  0
  3  4  1  0
  3  6  1  0
  3  7  1  0
  4  8  1  0
  4  9  1  0
  4 10  1  0
 11 12  1  0
 11 15  1  0
 11 16  1  0
 11 17  1  0
 12 14  1  0
 12 13  1  0
 13 18  1  0
 14 19  1  0
 14 20  1  0
 14 21  1  0
M  RAD  1  12   2
M  END
>  <reaction>  (8) 
rxn_1281

>  <mol_properties>  (8) 
{"1": {"label": "*0", "atom_type": "Ct"}, "2": {"label": "*1", "atom_type": "Cs"}, "5": {"label": "*2", "atom_type": "H0"}, "11": {"label": "*3", "atom_type": "Cs"}, "12": {"label": "*4", "atom_type": "S2s"}}

>  <type>  (8) 
unop_4

>  <geom_source>  (8) 
Heuristics

$$$$

     RDKit          3D

 21 19  0  0  0  0  0  0  0  0999 V2000
   -1.5789    0.5031   -2.7684 C   0  0  0  0  0  0  0  0  0  0  0  0
   -1.5789    0.5031   -1.5707 C   0  0  0  0  0  0  0  0  0  0  0  0
   -1.5789    0.5313   -0.1115 C   0  0  0  0  0  0  0  0  0  0  0  0
   -1.5789    1.9527    0.4541 C   0  0  0  0  0  0  0  0  0  0  0  0
   -1.5789    0.5031   -3.8317 H   0  0  0  0  0  0  0  0  0  0  0  0
   -0.5283   -0.1228    0.3225 H   0  0  0  0  0  0  0  0  0  0  0  0
   -2.4544   -0.0138    0.2502 H   0  0  0  0  0  0  0  0  0  0  0  0
   -2.4611    2.5006    0.1226 H   0  0  0  0  0  0  0  0  0  0  0  0
   -1.5789    1.9254    1.5444 H   0  0  0  0  0  0  0  0  0  0  0  0
   -0.6967    2.5005    0.1226 H   0  0  0  0  0  0  0  0  0  0  0  0
    0.5261   -0.7499    2.2787 C   0  0  0  0  0  0  0  0  0  0  0  0
    0.5224   -0.7770    0.7566 C   0  0  0  0  0  3  0  0  0  0  0  0
    1.9038    0.1885    0.0523 S   0  0  0  0  0  0  0  0  0  0  0  0
    0.4811   -2.1963    0.2078 C   0  0  0  0  0  0  0  0  0  0  0  0
    0.5272    0.2717    2.6573 H   0  0  0  0  0  0  0  0  0  0  0  0
    1.4113   -1.2579    2.6692 H   0  0  0  0  0  0  0  0  0  0  0  0
   -0.3550   -1.2658    2.6689 H   0  0  0  0  0  0  0  0  0  0  0  0
    2.8902   -0.5663    0.5580 H   0  0  0  0  0  0  0  0  0  0  0  0
   -0.4003   -2.7223    0.5836 H   0  0  0  0  0  0  0  0  0  0  0  0
    0.4503   -2.1998   -0.8812 H   0  0  0  0  0  0  0  0  0  0  0  0
    1.3647   -2.7559    0.5246 H   0  0  0  0  0  0  0  0  0  0  0  0
  1  2  3  0
  1  5  1  0
  2  3  1  0
  3  4  1  0
  3  6  1  0
  3  7  1  0
  4  8  1  0
  4  9  1  0
  4 10  1  0
 11 12  1  0
 11 15  1  0
 11 16  1  0
 11 17  1  0
 12 14  1  0
 12 13  1  0
 13 18  1  0
 14 19  1  0
 14 20  1  0
 14 21  1  0
M  RAD  1  12   2
M  END
>  <reaction>  (9) 
rxn_1281

>  <mol_properties>  (9) 
{"1": {"label": "*0", "atom_type": "Ct"}, "2": {"label": "*1", "atom_type": "Cs"}, "5": {"label": "*2", "atom_type": "H0"}, "11": {"label": "*3", "atom_type": "Cs"}, "12": {"label": "*4", "atom_type": "S2s"}}

>  <type>  (9) 
unop_5

>  <geom_source>  (9) 
Heuristics

$$$$

     RDKit          3D

 21 19  0  0  0  0  0  0  0  0999 V2000
   -1.1830    0.4620   -3.1730 C   0  0  0  0  0  0  0  0  0  0  0  0
   -1.1830    0.4620   -1.9753 C   0  0  0  0  0  0  0  0  0  0  0  0
   -1.1830    0.4902   -0.5162 C   0  0  0  0  0  0  0  0  0  0  0  0
   -1.1830    1.9116    0.0494 C   0  0  0  0  0  0  0  0  0  0  0  0
   -1.1830    0.4620   -4.2363 H   0  0  0  0  0  0  0  0  0  0  0  0
   -0.1324   -0.1639   -0.0821 H   0  0  0  0  0  0  0  0  0  0  0  0
   -2.0585   -0.0549   -0.1545 H   0  0  0  0  0  0  0  0  0  0  0  0
   -2.0652    2.4594   -0.2820 H   0  0  0  0  0  0  0  0  0  0  0  0
   -1.1830    1.8843    1.1397 H   0  0  0  0  0  0  0  0  0  0  0  0
   -0.3008    2.4594   -0.2820 H   0  0  0  0  0  0  0  0  0  0  0  0
    0.5453   -2.2822    0.5388 C   0  0  0  0  0  0  0  0  0  0  0  0
    0.9182   -0.8181    0.3520 C   0  0  0  0  0  3  0  0  0  0  0  0
    0.2002    0.2419    1.6548 S   0  0  0  0  0  0  0  0  0  0  0  0
    2.4221   -0.6209    0.2216 C   0  0  0  0  0  0  0  0  0  0  0  0
   -0.5346   -2.4114    0.6022 H   0  0  0  0  0  0  0  0  0  0  0  0
    0.9893   -2.6771    1.4559 H   0  0  0  0  0  0  0  0  0  0  0  0
    0.9196   -2.8781   -0.2976 H   0  0  0  0  0  0  0  0  0  0  0  0
    0.8623   -0.3101    2.6820 H   0  0  0  0  0  0  0  0  0  0  0  0
    2.8095   -1.2053   -0.6170 H   0  0  0  0  0  0  0  0  0  0  0  0
    2.6723    0.4271    0.0603 H   0  0  0  0  0  0  0  0  0  0  0  0
    2.9330   -0.9567    1.1274 H   0  0  0  0  0  0  0  0  0  0  0  0
  1  2  3  0
  1  5  1  0
  2  3  1  0
  3  4  1  0
  3  6  1  0
  3  7  1  0
  4  8  1  0
  4  9  1  0
  4 10  1  0
 11 12  1  0
 11 15  1  0
 11 16  1  0
 11 17  1  0
 12 14  1  0
 12 13  1  0
 13 18  1  0
 14 19  1  0
 14 20  1  0
 14 21  1  0
M  RAD  1  12   2
M  END
>  <reaction>  (10) 
rxn_1281

>  <mol_properties>  (10) 
{"1": {"label": "*0", "atom_type": "Ct"}, "2": {"label": "*1", "atom_type": "Cs"}, "5": {"label": "*2", "atom_type": "H0"}, "11": {"label": "*3", "atom_type": "Cs"}, "12": {"label": "*4", "atom_type": "S2s"}}

>  <type>  (10) 
unop_6

>  <geom_source>  (10) 
Heuristics

$$$$

     RDKit          3D

 21 19  0  0  0  0  0  0  0  0999 V2000
   -1.2972    0.3331   -3.0930 C   0  0  0  0  0  0  0  0  0  0  0  0
   -1.2972    0.3331   -1.8953 C   0  0  0  0  0  0  0  0  0  0  0  0
   -1.2972    0.3613   -0.4361 C   0  0  0  0  0  0  0  0  0  0  0  0
   -1.2971    1.7827    0.1295 C   0  0  0  0  0  0  0  0  0  0  0  0
   -1.2972    0.3331   -4.1563 H   0  0  0  0  0  0  0  0  0  0  0  0
   -0.2466   -0.2928   -0.0021 H   0  0  0  0  0  0  0  0  0  0  0  0
   -2.1727   -0.1838   -0.0744 H   0  0  0  0  0  0  0  0  0  0  0  0
   -2.1794    2.3305   -0.2020 H   0  0  0  0  0  0  0  0  0  0  0  0
   -1.2971    1.7554    1.2197 H   0  0  0  0  0  0  0  0  0  0  0  0
   -0.4149    2.3305   -0.2020 H   0  0  0  0  0  0  0  0  0  0  0  0
    0.3384   -2.1113    1.2951 C   0  0  0  0  0  0  0  0  0  0  0  0
    0.8041   -0.9470    0.4320 C   0  0  0  0  0  3  0  0  0  0  0  0
    0.6133    0.6563    1.2862 S   0  0  0  0  0  0  0  0  0  0  0  0
    2.2198   -1.1496   -0.0899 C   0  0  0  0  0  0  0  0  0  0  0  0
   -0.6854   -1.9662    1.6381 H   0  0  0  0  0  0  0  0  0  0  0  0
    0.9793   -2.2179    2.1737 H   0  0  0  0  0  0  0  0  0  0  0  0
    0.3878   -3.0455    0.7297 H   0  0  0  0  0  0  0  0  0  0  0  0
    1.4757    0.4021    2.2811 H   0  0  0  0  0  0  0  0  0  0  0  0
    2.2824   -2.0770   -0.6650 H   0  0  0  0  0  0  0  0  0  0  0  0
    2.5292   -0.3229   -0.7284 H   0  0  0  0  0  0  0  0  0  0  0  0
    2.9277   -1.2219    0.7394 H   0  0  0  0  0  0  0  0  0  0  0  0
  1  2  3  0
  1  5  1  0
  2  3  1  0
  3  4  1  0
  3  6  1  0
  3  7  1  0
  4  8  1  0
  4  9  1  0
  4 10  1  0
 11 12  1  0
 11 15  1  0
 11 16  1  0
 11 17  1  0
 12 14  1  0
 12 13  1  0
 13 18  1  0
 14 19  1  0
 14 20  1  0
 14 21  1  0
M  RAD  1  12   2
M  END
>  <reaction>  (11) 
rxn_1281

>  <mol_properties>  (11) 
{"1": {"label": "*0", "atom_type": "Ct"}, "2": {"label": "*1", "atom_type": "Cs"}, "5": {"label": "*2", "atom_type": "H0"}, "11": {"label": "*3", "atom_type": "Cs"}, "12": {"label": "*4", "atom_type": "S2s"}}

>  <type>  (11) 
unop_7

>  <geom_source>  (11) 
Heuristics

$$$$

     RDKit          3D

 21 19  0  0  0  0  0  0  0  0999 V2000
   -1.4009    0.8839   -2.9076 C   0  0  0  0  0  0  0  0  0  0  0  0
   -1.4009    0.8839   -1.7098 C   0  0  0  0  0  0  0  0  0  0  0  0
   -1.4009    0.9121   -0.2507 C   0  0  0  0  0  0  0  0  0  0  0  0
   -1.4009    2.3335    0.3149 C   0  0  0  0  0  0  0  0  0  0  0  0
   -1.4009    0.8839   -3.9709 H   0  0  0  0  0  0  0  0  0  0  0  0
   -0.3503    0.2580    0.1834 H   0  0  0  0  0  0  0  0  0  0  0  0
   -2.2764    0.3670    0.1110 H   0  0  0  0  0  0  0  0  0  0  0  0
   -2.2831    2.8813   -0.0166 H   0  0  0  0  0  0  0  0  0  0  0  0
   -1.4009    2.3062    1.4052 H   0  0  0  0  0  0  0  0  0  0  0  0
   -0.5187    2.8813   -0.0166 H   0  0  0  0  0  0  0  0  0  0  0  0
    1.8636    0.5759    0.7571 C   0  0  0  0  0  0  0  0  0  0  0  0
    0.7004   -0.3962    0.6174 C   0  0  0  0  0  3  0  0  0  0  0  0
    1.2684   -2.0956    0.2626 S   0  0  0  0  0  0  0  0  0  0  0  0
   -0.2359   -0.3472    1.8169 C   0  0  0  0  0  0  0  0  0  0  0  0
    2.5092    0.5505   -0.1200 H   0  0  0  0  0  0  0  0  0  0  0  0
    2.4690    0.3264    1.6320 H   0  0  0  0  0  0  0  0  0  0  0  0
    1.4917    1.5954    0.8874 H   0  0  0  0  0  0  0  0  0  0  0  0
    1.9302   -2.2784    1.4145 H   0  0  0  0  0  0  0  0  0  0  0  0
   -0.6224    0.6660    1.9545 H   0  0  0  0  0  0  0  0  0  0  0  0
   -1.0781   -1.0266    1.6907 H   0  0  0  0  0  0  0  0  0  0  0  0
    0.2947   -0.6295    2.7295 H   0  0  0  0  0  0  0  0  0  0  0  0
  1  2  3  0
  1  5  1  0
  2  3  1  0
  3  4  1  0
  3  6  1  0
  3  7  1  0
  4  8  1  0
  4  9  1  0
  4 10  1  0
 11 12  1  0
 11 15  1  0
 11 16  1  0
 11 17  1  0
 12 14  1  0
 12 13  1  0
 13 18  1  0
 14 19  1  0
 14 20  1  0
 14 21  1  0
M  RAD  1  12   2
M  END
>  <reaction>  (12) 
rxn_1281

>  <mol_properties>  (12) 
{"1": {"label": "*0", "atom_type": "Ct"}, "2": {"label": "*1", "atom_type": "Cs"}, "5": {"label": "*2", "atom_type": "H0"}, "11": {"label": "*3", "atom_type": "Cs"}, "12": {"label": "*4", "atom_type": "S2s"}}

>  <type>  (12) 
unop_8

>  <geom_source>  (12) 
Heuristics

$$$$

     RDKit          3D

 21 19  0  0  0  0  0  0  0  0999 V2000
   -1.1511    0.7866   -3.1156 C   0  0  0  0  0  0  0  0  0  0  0  0
   -1.1511    0.7866   -1.9179 C   0  0  0  0  0  0  0  0  0  0  0  0
   -1.1511    0.8148   -0.4587 C   0  0  0  0  0  0  0  0  0  0  0  0
   -1.1511    2.2362    0.1069 C   0  0  0  0  0  0  0  0  0  0  0  0
   -1.1511    0.7866   -4.1789 H   0  0  0  0  0  0  0  0  0  0  0  0
   -0.1005    0.1607   -0.0247 H   0  0  0  0  0  0  0  0  0  0  0  0
   -2.0266    0.2698   -0.0970 H   0  0  0  0  0  0  0  0  0  0  0  0
   -2.0333    2.7841   -0.2246 H   0  0  0  0  0  0  0  0  0  0  0  0
   -1.1511    2.2089    1.1972 H   0  0  0  0  0  0  0  0  0  0  0  0
   -0.2689    2.7841   -0.2246 H   0  0  0  0  0  0  0  0  0  0  0  0
    1.3002   -1.5850   -0.5923 C   0  0  0  0  0  0  0  0  0  0  0  0
    0.9501   -0.4934    0.4094 C   0  0  0  0  0  3  0  0  0  0  0  0
   -0.1187   -1.1162    1.7534 S   0  0  0  0  0  0  0  0  0  0  0  0
    2.1881    0.2115    0.9462 C   0  0  0  0  0  0  0  0  0  0  0  0
    0.4043   -2.0614   -0.9890 H   0  0  0  0  0  0  0  0  0  0  0  0
    1.9145   -2.3559   -0.1207 H   0  0  0  0  0  0  0  0  0  0  0  0
    1.8706   -1.1659   -1.4253 H   0  0  0  0  0  0  0  0  0  0  0  0
    0.7660   -1.9873    2.2600 H   0  0  0  0  0  0  0  0  0  0  0  0
    2.7646    0.6431    0.1240 H   0  0  0  0  0  0  0  0  0  0  0  0
    1.9214    1.0082    1.6398 H   0  0  0  0  0  0  0  0  0  0  0  0
    2.8340   -0.4954    1.4727 H   0  0  0  0  0  0  0  0  0  0  0  0
  1  2  3  0
  1  5  1  0
  2  3  1  0
  3  4  1  0
  3  6  1  0
  3  7  1  0
  4  8  1  0
  4  9  1  0
  4 10  1  0
 11 12  1  0
 11 15  1  0
 11 16  1  0
 11 17  1  0
 12 14  1  0
 12 13  1  0
 13 18  1  0
 14 19  1  0
 14 20  1  0
 14 21  1  0
M  RAD  1  12   2
M  END
>  <reaction>  (13) 
rxn_1281

>  <mol_properties>  (13) 
{"1": {"label": "*0", "atom_type": "Ct"}, "2": {"label": "*1", "atom_type": "Cs"}, "5": {"label": "*2", "atom_type": "H0"}, "11": {"label": "*3", "atom_type": "Cs"}, "12": {"label": "*4", "atom_type": "S2s"}}

>  <type>  (13) 
unop_9

>  <geom_source>  (13) 
Heuristics

$$$$

     RDKit          3D

 21 19  0  0  0  0  0  0  0  0999 V2000
   -1.3760    0.8824   -2.9514 C   0  0  0  0  0  0  0  0  0  0  0  0
   -1.3760    0.8824   -1.7537 C   0  0  0  0  0  0  0  0  0  0  0  0
   -1.3760    0.9107   -0.2946 C   0  0  0  0  0  0  0  0  0  0  0  0
   -1.3760    2.3320    0.2711 C   0  0  0  0  0  0  0  0  0  0  0  0
   -1.3760    0.8824   -4.0147 H   0  0  0  0  0  0  0  0  0  0  0  0
   -0.3254    0.2566    0.1395 H   0  0  0  0  0  0  0  0  0  0  0  0
   -2.2515    0.3656    0.0672 H   0  0  0  0  0  0  0  0  0  0  0  0
   -2.2582    2.8799   -0.0604 H   0  0  0  0  0  0  0  0  0  0  0  0
   -1.3760    2.3048    1.3613 H   0  0  0  0  0  0  0  0  0  0  0  0
   -0.4937    2.8799   -0.0604 H   0  0  0  0  0  0  0  0  0  0  0  0
    1.9813    0.2747    0.0370 C   0  0  0  0  0  0  0  0  0  0  0  0
    0.7253   -0.3976    0.5736 C   0  0  0  0  0  3  0  0  0  0  0  0
    0.9053   -2.2133    0.6595 S   0  0  0  0  0  0  0  0  0  0  0  0
    0.2809    0.1945    1.9038 C   0  0  0  0  0  0  0  0  0  0  0  0
    2.2714   -0.1393   -0.9280 H   0  0  0  0  0  0  0  0  0  0  0  0
    2.8153    0.1383    0.7299 H   0  0  0  0  0  0  0  0  0  0  0  0
    1.8157    1.3488   -0.0796 H   0  0  0  0  0  0  0  0  0  0  0  0
    1.8969   -2.2253    1.5622 H   0  0  0  0  0  0  0  0  0  0  0  0
    0.1034    1.2680    1.8002 H   0  0  0  0  0  0  0  0  0  0  0  0
   -0.6340   -0.2764    2.2617 H   0  0  0  0  0  0  0  0  0  0  0  0
    1.0543    0.0552    2.6632 H   0  0  0  0  0  0  0  0  0  0  0  0
  1  2  3  0
  1  5  1  0
  2  3  1  0
  3  4  1  0
  3  6  1  0
  3  7  1  0
  4  8  1  0
  4  9  1  0
  4 10  1  0
 11 12  1  0
 11 15  1  0
 11 16  1  0
 11 17  1  0
 12 14  1  0
 12 13  1  0
 13 18  1  0
 14 19  1  0
 14 20  1  0
 14 21  1  0
M  RAD  1  12   2
M  END
>  <reaction>  (14) 
rxn_1281

>  <mol_properties>  (14) 
{"1": {"label": "*0", "atom_type": "Ct"}, "2": {"label": "*1", "atom_type": "Cs"}, "5": {"label": "*2", "atom_type": "H0"}, "11": {"label": "*3", "atom_type": "Cs"}, "12": {"label": "*4", "atom_type": "S2s"}}

>  <type>  (14) 
unop_10

>  <geom_source>  (14) 
Heuristics

$$$$

     RDKit          3D

 21 19  0  0  0  0  0  0  0  0999 V2000
   -1.4552    0.3126   -2.9393 C   0  0  0  0  0  0  0  0  0  0  0  0
   -1.4552    0.3126   -1.7416 C   0  0  0  0  0  0  0  0  0  0  0  0
   -1.4552    0.3409   -0.2824 C   0  0  0  0  0  0  0  0  0  0  0  0
   -1.4552    1.7622    0.2832 C   0  0  0  0  0  0  0  0  0  0  0  0
   -1.4552    0.3126   -4.0026 H   0  0  0  0  0  0  0  0  0  0  0  0
   -0.4046   -0.3132    0.1516 H   0  0  0  0  0  0  0  0  0  0  0  0
   -2.3307   -0.2042    0.0793 H   0  0  0  0  0  0  0  0  0  0  0  0
   -2.3374    2.3101   -0.0483 H   0  0  0  0  0  0  0  0  0  0  0  0
   -1.4552    1.7350    1.3735 H   0  0  0  0  0  0  0  0  0  0  0  0
   -0.5730    2.3101   -0.0483 H   0  0  0  0  0  0  0  0  0  0  0  0
    0.3182   -1.5859    1.9376 C   0  0  0  0  0  0  0  0  0  0  0  0
    0.6460   -0.9674    0.5857 C   0  0  0  0  0  3  0  0  0  0  0  0
    1.2076    0.7635    0.7441 S   0  0  0  0  0  0  0  0  0  0  0  0
    1.6290   -1.8148   -0.2100 C   0  0  0  0  0  0  0  0  0  0  0  0
   -0.4072   -0.9840    2.4837 H   0  0  0  0  0  0  0  0  0  0  0  0
    1.2195   -1.6701    2.5496 H   0  0  0  0  0  0  0  0  0  0  0  0
   -0.0912   -2.5907    1.8051 H   0  0  0  0  0  0  0  0  0  0  0  0
    2.3171    0.4995    1.4494 H   0  0  0  0  0  0  0  0  0  0  0  0
    1.2287   -2.8212   -0.3575 H   0  0  0  0  0  0  0  0  0  0  0  0
    1.8325   -1.3750   -1.1858 H   0  0  0  0  0  0  0  0  0  0  0  0
    2.5771   -1.9071    0.3255 H   0  0  0  0  0  0  0  0  0  0  0  0
  1  2  3  0
  1  5  1  0
  2  3  1  0
  3  4  1  0
  3  6  1  0
  3  7  1  0
  4  8  1  0
  4  9  1  0
  4 10  1  0
 11 12  1  0
 11 15  1  0
 11 16  1  0
 11 17  1  0
 12 14  1  0
 12 13  1  0
 13 18  1  0
 14 19  1  0
 14 20  1  0
 14 21  1  0
M  RAD  1  12   2
M  END
>  <reaction>  (15) 
rxn_1281

>  <mol_properties>  (15) 
{"1": {"label": "*0", "atom_type": "Ct"}, "2": {"label": "*1", "atom_type": "Cs"}, "5": {"label": "*2", "atom_type": "H0"}, "11": {"label": "*3", "atom_type": "Cs"}, "12": {"label": "*4", "atom_type": "S2s"}}

>  <type>  (15) 
unop_11

>  <geom_source>  (15) 
Heuristics

$$$$

     RDKit          3D

 21 19  0  0  0  0  0  0  0  0999 V2000
   -1.2375    0.8744   -3.0352 C   0  0  0  0  0  0  0  0  0  0  0  0
   -1.2375    0.8744   -1.8374 C   0  0  0  0  0  0  0  0  0  0  0  0
   -1.2375    0.9026   -0.3783 C   0  0  0  0  0  0  0  0  0  0  0  0
   -1.2375    2.3240    0.1873 C   0  0  0  0  0  0  0  0  0  0  0  0
   -1.2375    0.8744   -4.0985 H   0  0  0  0  0  0  0  0  0  0  0  0
   -0.1869    0.2485    0.0558 H   0  0  0  0  0  0  0  0  0  0  0  0
   -2.1130    0.3576   -0.0166 H   0  0  0  0  0  0  0  0  0  0  0  0
   -2.1197    2.8719   -0.1442 H   0  0  0  0  0  0  0  0  0  0  0  0
   -1.2375    2.2967    1.2776 H   0  0  0  0  0  0  0  0  0  0  0  0
   -0.3553    2.8718   -0.1442 H   0  0  0  0  0  0  0  0  0  0  0  0
    1.6503   -0.9248   -0.7057 C   0  0  0  0  0  0  0  0  0  0  0  0
    0.8638   -0.4056    0.4898 C   0  0  0  0  0  3  0  0  0  0  0  0
    0.1104   -1.7621    1.4537 S   0  0  0  0  0  0  0  0  0  0  0  0
    1.6953    0.5217    1.3651 C   0  0  0  0  0  0  0  0  0  0  0  0
    1.0350   -1.5639   -1.3381 H   0  0  0  0  0  0  0  0  0  0  0  0
    2.5142   -1.5057   -0.3736 H   0  0  0  0  0  0  0  0  0  0  0  0
    2.0197   -0.0903   -1.3074 H   0  0  0  0  0  0  0  0  0  0  0  0
    1.2612   -2.3380    1.8309 H   0  0  0  0  0  0  0  0  0  0  0  0
    2.0650    1.3663    0.7780 H   0  0  0  0  0  0  0  0  0  0  0  0
    1.1119    0.9076    2.2004 H   0  0  0  0  0  0  0  0  0  0  0  0
    2.5608   -0.0077    1.7710 H   0  0  0  0  0  0  0  0  0  0  0  0
  1  2  3  0
  1  5  1  0
  2  3  1  0
  3  4  1  0
  3  6  1  0
  3  7  1  0
  4  8  1  0
  4  9  1  0
  4 10  1  0
 11 12  1  0
 11 15  1  0
 11 16  1  0
 11 17  1  0
 12 14  1  0
 12 13  1  0
 13 18  1  0
 14 19  1  0
 14 20  1  0
 14 21  1  0
M  RAD  1  12   2
M  END
>  <reaction>  (16) 
rxn_1281

>  <mol_properties>  (16) 
{"1": {"label": "*0", "atom_type": "Ct"}, "2": {"label": "*1", "atom_type": "Cs"}, "5": {"label": "*2", "atom_type": "H0"}, "11": {"label": "*3", "atom_type": "Cs"}, "12": {"label": "*4", "atom_type": "S2s"}}

>  <type>  (16) 
unop_12

>  <geom_source>  (16) 
Heuristics

$$$$

     RDKit          3D

 21 19  0  0  0  0  0  0  0  0999 V2000
   -1.5950    1.2864    0.9549 S   0  0  0  0  0  0  0  0  0  0  0  0
   -1.2305   -0.1147   -0.1533 C   0  0  0  0  0  0  0  0  0  0  0  0
   -2.1860   -0.0901   -1.3441 C   0  0  0  0  0  0  0  0  0  0  0  0
   -1.3440   -1.4322    0.6123 C   0  0  0  0  0  0  0  0  0  0  0  0
    2.2231   -0.7634    0.2373 C   0  0  0  0  0  0  0  0  0  0  0  0
    1.3412    0.3125   -0.3795 C   0  0  0  0  0  3  0  0  0  0  0  0
    1.6708    1.6325    0.1689 C   0  0  0  0  0  0  0  0  0  0  0  0
    1.9408    2.7177    0.6191 C   0  0  0  0  0  0  0  0  0  0  0  0
    0.0011    0.0126   -0.6003 H   0  0  0  0  0  0  0  0  0  0  0  0
   -3.2392   -0.1883   -1.0035 H   0  0  0  0  0  0  0  0  0  0  0  0
   -1.9501   -0.9232   -2.0395 H   0  0  0  0  0  0  0  0  0  0  0  0
   -2.0735    0.8666   -1.8965 H   0  0  0  0  0  0  0  0  0  0  0  0
   -2.3708   -1.5628    1.0163 H   0  0  0  0  0  0  0  0  0  0  0  0
   -0.6210   -1.4433    1.4548 H   0  0  0  0  0  0  0  0  0  0  0  0
   -1.1070   -2.2846   -0.0591 H   0  0  0  0  0  0  0  0  0  0  0  0
    2.0750   -0.7958    1.3378 H   0  0  0  0  0  0  0  0  0  0  0  0
    1.9459   -1.7512   -0.1861 H   0  0  0  0  0  0  0  0  0  0  0  0
    3.2932   -0.5645    0.0127 H   0  0  0  0  0  0  0  0  0  0  0  0
    1.4742    0.3265   -1.4818 H   0  0  0  0  0  0  0  0  0  0  0  0
   -0.4265    1.0890    1.7151 H   0  0  0  0  0  0  0  0  0  0  0  0
    2.1781    3.6703    1.0145 H   0  0  0  0  0  0  0  0  0  0  0  0
  1  2  1  0
  1 20  1  0
  2  3  1  0
  2  4  1  0
  2  9  1  0
  3 10  1  0
  3 11  1  0
  3 12  1  0
  4 13  1  0
  4 14  1  0
  4 15  1  0
  5  6  1  0
  5 16  1  0
  5 17  1  0
  5 18  1  0
  6  7  1  0
  6 19  1  0
  7  8  3  0
  8 21  1  0
M  RAD  1   6   2
M  END
>  <reaction>  (17) 
rxn_1281

>  <mol_properties>  (17) 
{"1": {"label": "*0", "atom_type": "Ct"}, "2": {"label": "*1", "atom_type": "Cs"}, "5": {"label": "*2", "atom_type": "H0"}, "11": {"label": "*3", "atom_type": "Cs"}, "12": {"label": "*4", "atom_type": "S2s"}}

>  <type>  (17) 
unop_13

>  <geom_source>  (17) 
AutoTST

$$$$
