
     RDKit          3D

  4  3  0  0  0  0  0  0  0  0999 V2000
    0.5949   -0.3853    0.2659 O   0  0  0  0  0  0  0  0  0  0  0  0
   -0.5918    0.4028    0.2462 O   0  0  0  0  0  0  0  0  0  0  0  0
    1.1865    0.1539   -0.2689 H   0  0  0  0  0  0  0  0  0  0  0  0
   -1.1896   -0.1714   -0.2432 H   0  0  0  0  0  0  0  0  0  0  0  0
  1  2  1  0
  1  3  1  0
  2  4  1  0
M  END
>  <reaction>  (1) 
rxn_778

>  <mol_properties>  (1) 
{"1": {"label": "donator", "atom_type": "O2s"}, "3": {"label": "d_hydrogen", "atom_type": "H0"}}

>  <type>  (1) 
r1h

$$$$

     RDKit          3D

  7  6  0  0  0  0  0  0  0  0999 V2000
   -0.6201    0.0189   -0.0017 C   0  0  0  0  0  0  0  0  0  0  0  0
    0.8589   -0.0553    0.0500 C   0  0  0  0  0  3  0  0  0  0  0  0
   -1.0738   -0.9730   -0.0559 H   0  0  0  0  0  0  0  0  0  0  0  0
   -0.9680    0.5706   -0.8872 H   0  0  0  0  0  0  0  0  0  0  0  0
   -1.0303    0.5369    0.8678 H   0  0  0  0  0  0  0  0  0  0  0  0
    1.3939   -0.8386   -0.4695 H   0  0  0  0  0  0  0  0  0  0  0  0
    1.4394    0.7404    0.4965 H   0  0  0  0  0  0  0  0  0  0  0  0
  1  2  1  0
  1  3  1  0
  1  4  1  0
  1  5  1  0
  2  6  1  0
  2  7  1  0
M  RAD  1   2   2
M  END
>  <reaction>  (2) 
rxn_778

>  <mol_properties>  (2) 
{"1": {"label": "acceptor", "atom_type": "Cs"}}

>  <type>  (2) 
r2

$$$$

     RDKit          3D

  8  7  0  0  0  0  0  0  0  0999 V2000
    0.7610    0.0250    0.0051 C   0  0  0  0  0  0  0  0  0  0  0  0
   -0.7610   -0.0250   -0.0051 C   0  0  0  0  0  0  0  0  0  0  0  0
    1.1904   -0.9237   -0.3217 H   0  0  0  0  0  0  0  0  0  0  0  0
    1.1359    0.8041   -0.6609 H   0  0  0  0  0  0  0  0  0  0  0  0
    1.1435    0.2336    1.0058 H   0  0  0  0  0  0  0  0  0  0  0  0
   -1.1435   -0.2336   -1.0058 H   0  0  0  0  0  0  0  0  0  0  0  0
   -1.1904    0.9237    0.3216 H   0  0  0  0  0  0  0  0  0  0  0  0
   -1.1359   -0.8041    0.6609 H   0  0  0  0  0  0  0  0  0  0  0  0
  1  2  1  0
  1  3  1  0
  1  4  1  0
  1  5  1  0
  2  6  1  0
  2  7  1  0
  2  8  1  0
M  END
>  <reaction>  (3) 
rxn_778

>  <mol_properties>  (3) 
{"0": {"label": "a_hydrogen", "atom_type": "H0"}, "2": {"label": "acceptor", "atom_type": "Cs"}}

>  <type>  (3) 
r2h

$$$$

     RDKit          3D

 11  9  0  0  0  0  0  0  0  0999 V2000
   -0.3081   -1.3940   -0.7815 O   0  0  0  0  0  0  0  0  0  0  0  0
    0.2908   -1.2845    0.4673 O   0  0  0  0  0  0  0  0  0  0  0  0
    0.4379   -1.3123   -1.3870 H   0  0  0  0  0  0  0  0  0  0  0  0
    0.1424   -0.1718    0.7694 H   0  0  0  0  0  0  0  0  0  0  0  0
    0.0842    1.8053   -0.3540 C   0  0  0  0  0  0  0  0  0  0  0  0
   -0.0259    1.1587    0.9916 C   0  0  0  0  0  3  0  0  0  0  0  0
   -0.1166    2.8804   -0.2850 H   0  0  0  0  0  0  0  0  0  0  0  0
   -0.6394    1.3838   -1.0538 H   0  0  0  0  0  0  0  0  0  0  0  0
    1.0844    1.6878   -0.7745 H   0  0  0  0  0  0  0  0  0  0  0  0
   -1.0133    1.1710    1.4473 H   0  0  0  0  0  0  0  0  0  0  0  0
    0.7731    1.3733    1.6978 H   0  0  0  0  0  0  0  0  0  0  0  0
  1  2  1  0
  1  3  1  0
  2  4  1  0
  5  6  1  0
  5  7  1  0
  5  8  1  0
  5  9  1  0
  6 10  1  0
  6 11  1  0
M  RAD  1   6   2
M  END
>  <reaction>  (4) 
rxn_778

>  <mol_properties>  (4) 
{"0": {"label": "*0", "atom_type": "O2s"}, "1": {"label": "*1", "atom_type": "O2s"}, "3": {"label": "*2", "atom_type": "H0"}, "4": {"label": "*4", "atom_type": "Cs"}, "5": {"label": "*3", "atom_type": "Cs"}}

>  <type>  (4) 
ts

$$$$

     RDKit          3D

 11  9  0  0  0  0  0  0  0  0999 V2000
    0.2751   -1.2336   -1.4653 O   0  0  0  0  0  0  0  0  0  0  0  0
    0.2751   -1.2336   -0.0407 O   0  0  0  0  0  0  0  0  0  0  0  0
    1.1358   -1.6219   -1.6524 H   0  0  0  0  0  0  0  0  0  0  0  0
    0.2751   -0.1005    0.1838 H   0  0  0  0  0  0  0  0  0  0  0  0
   -0.9539    1.5881    1.2417 C   0  0  0  0  0  0  0  0  0  0  0  0
    0.2751    1.1842    0.4383 C   0  0  0  0  0  3  0  0  0  0  0  0
   -0.7024    2.3253    2.0062 H   0  0  0  0  0  0  0  0  0  0  0  0
   -1.3977    0.7277    1.7457 H   0  0  0  0  0  0  0  0  0  0  0  0
   -1.7201    2.0262    0.5996 H   0  0  0  0  0  0  0  0  0  0  0  0
    1.0413    0.7461    1.0804 H   0  0  0  0  0  0  0  0  0  0  0  0
    0.7188    2.0446   -0.0657 H   0  0  0  0  0  0  0  0  0  0  0  0
  1  2  1  0
  1  3  1  0
  2  4  1  0
  5  6  1  0
  5  7  1  0
  5  8  1  0
  5  9  1  0
  6 10  1  0
  6 11  1  0
M  RAD  1   6   2
M  END
>  <reaction>  (5) 
rxn_778

>  <mol_properties>  (5) 
{"0": {"label": "*0", "atom_type": "O2s"}, "1": {"label": "*1", "atom_type": "O2s"}, "3": {"label": "*2", "atom_type": "H0"}, "4": {"label": "*4", "atom_type": "Cs"}, "5": {"label": "*3", "atom_type": "Cs"}}

>  <type>  (5) 
unop_1

>  <geom_source>  (5) 
Heuristics

$$$$

     RDKit          3D

 11  9  0  0  0  0  0  0  0  0999 V2000
    0.1598   -1.3276   -1.0054 O   0  0  0  0  0  0  0  0  0  0  0  0
    0.1598   -1.3276    0.4192 O   0  0  0  0  0  0  0  0  0  0  0  0
    1.0206   -1.7159   -1.1925 H   0  0  0  0  0  0  0  0  0  0  0  0
    0.1598   -0.1944    0.6437 H   0  0  0  0  0  0  0  0  0  0  0  0
   -0.5497    1.8709   -0.2000 C   0  0  0  0  0  0  0  0  0  0  0  0
    0.1598    1.0903    0.8982 C   0  0  0  0  0  3  0  0  0  0  0  0
   -0.8317    2.8682    0.1421 H   0  0  0  0  0  0  0  0  0  0  0  0
   -1.4602    1.3624   -0.5220 H   0  0  0  0  0  0  0  0  0  0  0  0
    0.0894    1.9908   -1.0766 H   0  0  0  0  0  0  0  0  0  0  0  0
   -0.4793    0.9704    1.7748 H   0  0  0  0  0  0  0  0  0  0  0  0
    1.0703    1.5988    1.2202 H   0  0  0  0  0  0  0  0  0  0  0  0
  1  2  1  0
  1  3  1  0
  2  4  1  0
  5  6  1  0
  5  7  1  0
  5  8  1  0
  5  9  1  0
  6 10  1  0
  6 11  1  0
M  RAD  1   6   2
M  END
>  <reaction>  (6) 
rxn_778

>  <mol_properties>  (6) 
{"0": {"label": "*0", "atom_type": "O2s"}, "1": {"label": "*1", "atom_type": "O2s"}, "3": {"label": "*2", "atom_type": "H0"}, "4": {"label": "*4", "atom_type": "Cs"}, "5": {"label": "*3", "atom_type": "Cs"}}

>  <type>  (6) 
unop_2

>  <geom_source>  (6) 
Heuristics

$$$$

     RDKit          3D

 11  9  0  0  0  0  0  0  0  0999 V2000
    0.1489   -1.2122   -1.5820 O   0  0  0  0  0  0  0  0  0  0  0  0
    0.1489   -1.2122   -0.1574 O   0  0  0  0  0  0  0  0  0  0  0  0
    1.0096   -1.6005   -1.7691 H   0  0  0  0  0  0  0  0  0  0  0  0
    0.1489   -0.0791    0.0671 H   0  0  0  0  0  0  0  0  0  0  0  0
   -0.5607    1.5086    1.6345 C   0  0  0  0  0  0  0  0  0  0  0  0
    0.1489    1.2057    0.3216 C   0  0  0  0  0  3  0  0  0  0  0  0
   -0.1582    2.4082    2.1036 H   0  0  0  0  0  0  0  0  0  0  0  0
   -0.4478    0.6872    2.3442 H   0  0  0  0  0  0  0  0  0  0  0  0
   -1.6294    1.6668    1.4795 H   0  0  0  0  0  0  0  0  0  0  0  0
    1.2176    1.0475    0.4766 H   0  0  0  0  0  0  0  0  0  0  0  0
    0.0360    2.0271   -0.3881 H   0  0  0  0  0  0  0  0  0  0  0  0
  1  2  1  0
  1  3  1  0
  2  4  1  0
  5  6  1  0
  5  7  1  0
  5  8  1  0
  5  9  1  0
  6 10  1  0
  6 11  1  0
M  RAD  1   6   2
M  END
>  <reaction>  (7) 
rxn_778

>  <mol_properties>  (7) 
{"0": {"label": "*0", "atom_type": "O2s"}, "1": {"label": "*1", "atom_type": "O2s"}, "3": {"label": "*2", "atom_type": "H0"}, "4": {"label": "*4", "atom_type": "Cs"}, "5": {"label": "*3", "atom_type": "Cs"}}

>  <type>  (7) 
unop_3

>  <geom_source>  (7) 
Heuristics

$$$$

     RDKit          3D

 11  9  0  0  0  0  0  0  0  0999 V2000
   -0.3117   -1.3011   -1.1311 O   0  0  0  0  0  0  0  0  0  0  0  0
   -0.3117   -1.3011    0.2935 O   0  0  0  0  0  0  0  0  0  0  0  0
    0.5491   -1.6894   -1.3182 H   0  0  0  0  0  0  0  0  0  0  0  0
   -0.3117   -0.1680    0.5180 H   0  0  0  0  0  0  0  0  0  0  0  0
    0.9173    1.7964    0.1838 C   0  0  0  0  0  0  0  0  0  0  0  0
   -0.3117    1.1168    0.7725 C   0  0  0  0  0  3  0  0  0  0  0  0
    1.2323    2.6436    0.7955 H   0  0  0  0  0  0  0  0  0  0  0  0
    0.7189    2.1708   -0.8220 H   0  0  0  0  0  0  0  0  0  0  0  0
    1.7591    1.1048    0.1188 H   0  0  0  0  0  0  0  0  0  0  0  0
   -1.1535    1.8084    0.8375 H   0  0  0  0  0  0  0  0  0  0  0  0
   -0.1133    0.7424    1.7783 H   0  0  0  0  0  0  0  0  0  0  0  0
  1  2  1  0
  1  3  1  0
  2  4  1  0
  5  6  1  0
  5  7  1  0
  5  8  1  0
  5  9  1  0
  6 10  1  0
  6 11  1  0
M  RAD  1   6   2
M  END
>  <reaction>  (8) 
rxn_778

>  <mol_properties>  (8) 
{"0": {"label": "*0", "atom_type": "O2s"}, "1": {"label": "*1", "atom_type": "O2s"}, "3": {"label": "*2", "atom_type": "H0"}, "4": {"label": "*4", "atom_type": "Cs"}, "5": {"label": "*3", "atom_type": "Cs"}}

>  <type>  (8) 
unop_4

>  <geom_source>  (8) 
Heuristics

$$$$

     RDKit          3D

 11  9  0  0  0  0  0  0  0  0999 V2000
   -0.0138   -1.2061   -1.6223 O   0  0  0  0  0  0  0  0  0  0  0  0
   -0.0138   -1.2061   -0.1977 O   0  0  0  0  0  0  0  0  0  0  0  0
    0.8470   -1.5944   -1.8094 H   0  0  0  0  0  0  0  0  0  0  0  0
   -0.0138   -0.0730    0.0268 H   0  0  0  0  0  0  0  0  0  0  0  0
   -0.0138    1.4778    1.7807 C   0  0  0  0  0  0  0  0  0  0  0  0
   -0.0138    1.2118    0.2813 C   0  0  0  0  0  3  0  0  0  0  0  0
   -0.0138    2.5484    1.9928 H   0  0  0  0  0  0  0  0  0  0  0  0
    0.8671    1.0462    2.2593 H   0  0  0  0  0  0  0  0  0  0  0  0
   -0.8946    1.0462    2.2593 H   0  0  0  0  0  0  0  0  0  0  0  0
    0.8671    1.6433   -0.1973 H   0  0  0  0  0  0  0  0  0  0  0  0
   -0.8946    1.6433   -0.1973 H   0  0  0  0  0  0  0  0  0  0  0  0
  1  2  1  0
  1  3  1  0
  2  4  1  0
  5  6  1  0
  5  7  1  0
  5  8  1  0
  5  9  1  0
  6 10  1  0
  6 11  1  0
M  RAD  1   6   2
M  END
>  <reaction>  (9) 
rxn_778

>  <mol_properties>  (9) 
{"0": {"label": "*0", "atom_type": "O2s"}, "1": {"label": "*1", "atom_type": "O2s"}, "3": {"label": "*2", "atom_type": "H0"}, "4": {"label": "*4", "atom_type": "Cs"}, "5": {"label": "*3", "atom_type": "Cs"}}

>  <type>  (9) 
unop_5

>  <geom_source>  (9) 
Heuristics

$$$$

     RDKit          3D

 11  9  0  0  0  0  0  0  0  0999 V2000
   -0.3533   -1.2665   -1.3001 O   0  0  0  0  0  0  0  0  0  0  0  0
   -0.3533   -1.2665    0.1246 O   0  0  0  0  0  0  0  0  0  0  0  0
    0.5075   -1.6547   -1.4871 H   0  0  0  0  0  0  0  0  0  0  0  0
   -0.3533   -0.1333    0.3491 H   0  0  0  0  0  0  0  0  0  0  0  0
    1.0658    1.6932    0.7109 C   0  0  0  0  0  0  0  0  0  0  0  0
   -0.3533    1.1514    0.6036 C   0  0  0  0  0  3  0  0  0  0  0  0
    1.1494    2.4280    1.5136 H   0  0  0  0  0  0  0  0  0  0  0  0
    1.3749    2.1798   -0.2159 H   0  0  0  0  0  0  0  0  0  0  0  0
    1.7799    0.8943    0.9187 H   0  0  0  0  0  0  0  0  0  0  0  0
   -1.0673    1.9503    0.3958 H   0  0  0  0  0  0  0  0  0  0  0  0
   -0.6624    0.6648    1.5303 H   0  0  0  0  0  0  0  0  0  0  0  0
  1  2  1  0
  1  3  1  0
  2  4  1  0
  5  6  1  0
  5  7  1  0
  5  8  1  0
  5  9  1  0
  6 10  1  0
  6 11  1  0
M  RAD  1   6   2
M  END
>  <reaction>  (10) 
rxn_778

>  <mol_properties>  (10) 
{"0": {"label": "*0", "atom_type": "O2s"}, "1": {"label": "*1", "atom_type": "O2s"}, "3": {"label": "*2", "atom_type": "H0"}, "4": {"label": "*4", "atom_type": "Cs"}, "5": {"label": "*3", "atom_type": "Cs"}}

>  <type>  (10) 
unop_6

>  <geom_source>  (10) 
Heuristics

$$$$

     RDKit          3D

 11  9  0  0  0  0  0  0  0  0999 V2000
   -0.3026   -1.2336   -1.4653 O   0  0  0  0  0  0  0  0  0  0  0  0
   -0.3026   -1.2336   -0.0407 O   0  0  0  0  0  0  0  0  0  0  0  0
    0.5581   -1.6219   -1.6524 H   0  0  0  0  0  0  0  0  0  0  0  0
   -0.3026   -0.1005    0.1838 H   0  0  0  0  0  0  0  0  0  0  0  0
    0.9264    1.5881    1.2417 C   0  0  0  0  0  0  0  0  0  0  0  0
   -0.3026    1.1842    0.4383 C   0  0  0  0  0  3  0  0  0  0  0  0
    0.6749    2.3253    2.0062 H   0  0  0  0  0  0  0  0  0  0  0  0
    1.6926    2.0262    0.5996 H   0  0  0  0  0  0  0  0  0  0  0  0
    1.3701    0.7277    1.7457 H   0  0  0  0  0  0  0  0  0  0  0  0
   -0.7464    2.0446   -0.0657 H   0  0  0  0  0  0  0  0  0  0  0  0
   -1.0688    0.7461    1.0804 H   0  0  0  0  0  0  0  0  0  0  0  0
  1  2  1  0
  1  3  1  0
  2  4  1  0
  5  6  1  0
  5  7  1  0
  5  8  1  0
  5  9  1  0
  6 10  1  0
  6 11  1  0
M  RAD  1   6   2
M  END
>  <reaction>  (11) 
rxn_778

>  <mol_properties>  (11) 
{"0": {"label": "*0", "atom_type": "O2s"}, "1": {"label": "*1", "atom_type": "O2s"}, "3": {"label": "*2", "atom_type": "H0"}, "4": {"label": "*4", "atom_type": "Cs"}, "5": {"label": "*3", "atom_type": "Cs"}}

>  <type>  (11) 
unop_7

>  <geom_source>  (11) 
Heuristics

$$$$

     RDKit          3D

 11  9  0  0  0  0  0  0  0  0999 V2000
    0.3257   -1.2665   -1.3001 O   0  0  0  0  0  0  0  0  0  0  0  0
    0.3257   -1.2665    0.1246 O   0  0  0  0  0  0  0  0  0  0  0  0
    1.1865   -1.6547   -1.4871 H   0  0  0  0  0  0  0  0  0  0  0  0
    0.3257   -0.1333    0.3491 H   0  0  0  0  0  0  0  0  0  0  0  0
   -1.0934    1.6932    0.7109 C   0  0  0  0  0  0  0  0  0  0  0  0
    0.3257    1.1514    0.6036 C   0  0  0  0  0  3  0  0  0  0  0  0
   -1.1769    2.4280    1.5136 H   0  0  0  0  0  0  0  0  0  0  0  0
   -1.8074    0.8943    0.9187 H   0  0  0  0  0  0  0  0  0  0  0  0
   -1.4025    2.1798   -0.2159 H   0  0  0  0  0  0  0  0  0  0  0  0
    0.6348    0.6648    1.5303 H   0  0  0  0  0  0  0  0  0  0  0  0
    1.0398    1.9503    0.3958 H   0  0  0  0  0  0  0  0  0  0  0  0
  1  2  1  0
  1  3  1  0
  2  4  1  0
  5  6  1  0
  5  7  1  0
  5  8  1  0
  5  9  1  0
  6 10  1  0
  6 11  1  0
M  RAD  1   6   2
M  END
>  <reaction>  (12) 
rxn_778

>  <mol_properties>  (12) 
{"0": {"label": "*0", "atom_type": "O2s"}, "1": {"label": "*1", "atom_type": "O2s"}, "3": {"label": "*2", "atom_type": "H0"}, "4": {"label": "*4", "atom_type": "Cs"}, "5": {"label": "*3", "atom_type": "Cs"}}

>  <type>  (12) 
unop_8

>  <geom_source>  (12) 
Heuristics

$$$$

     RDKit          3D

 11  9  0  0  0  0  0  0  0  0999 V2000
   -0.1874   -1.3276   -1.0054 O   0  0  0  0  0  0  0  0  0  0  0  0
   -0.1874   -1.3276    0.4192 O   0  0  0  0  0  0  0  0  0  0  0  0
    0.6734   -1.7159   -1.1925 H   0  0  0  0  0  0  0  0  0  0  0  0
   -0.1874   -0.1944    0.6437 H   0  0  0  0  0  0  0  0  0  0  0  0
    0.5222    1.8709   -0.2000 C   0  0  0  0  0  0  0  0  0  0  0  0
   -0.1874    1.0903    0.8982 C   0  0  0  0  0  3  0  0  0  0  0  0
    0.8041    2.8682    0.1421 H   0  0  0  0  0  0  0  0  0  0  0  0
   -0.1169    1.9908   -1.0766 H   0  0  0  0  0  0  0  0  0  0  0  0
    1.4327    1.3624   -0.5220 H   0  0  0  0  0  0  0  0  0  0  0  0
   -1.0978    1.5988    1.2202 H   0  0  0  0  0  0  0  0  0  0  0  0
    0.4517    0.9704    1.7748 H   0  0  0  0  0  0  0  0  0  0  0  0
  1  2  1  0
  1  3  1  0
  2  4  1  0
  5  6  1  0
  5  7  1  0
  5  8  1  0
  5  9  1  0
  6 10  1  0
  6 11  1  0
M  RAD  1   6   2
M  END
>  <reaction>  (13) 
rxn_778

>  <mol_properties>  (13) 
{"0": {"label": "*0", "atom_type": "O2s"}, "1": {"label": "*1", "atom_type": "O2s"}, "3": {"label": "*2", "atom_type": "H0"}, "4": {"label": "*4", "atom_type": "Cs"}, "5": {"label": "*3", "atom_type": "Cs"}}

>  <type>  (13) 
unop_9

>  <geom_source>  (13) 
Heuristics

$$$$

     RDKit          3D

 11  9  0  0  0  0  0  0  0  0999 V2000
    0.2841   -1.3011   -1.1311 O   0  0  0  0  0  0  0  0  0  0  0  0
    0.2841   -1.3011    0.2935 O   0  0  0  0  0  0  0  0  0  0  0  0
    1.1449   -1.6894   -1.3182 H   0  0  0  0  0  0  0  0  0  0  0  0
    0.2841   -0.1680    0.5180 H   0  0  0  0  0  0  0  0  0  0  0  0
   -0.9448    1.7964    0.1838 C   0  0  0  0  0  0  0  0  0  0  0  0
    0.2841    1.1168    0.7725 C   0  0  0  0  0  3  0  0  0  0  0  0
   -1.2598    2.6437    0.7955 H   0  0  0  0  0  0  0  0  0  0  0  0
   -1.7867    1.1048    0.1188 H   0  0  0  0  0  0  0  0  0  0  0  0
   -0.7465    2.1708   -0.8220 H   0  0  0  0  0  0  0  0  0  0  0  0
    0.0858    0.7424    1.7783 H   0  0  0  0  0  0  0  0  0  0  0  0
    1.1260    1.8084    0.8375 H   0  0  0  0  0  0  0  0  0  0  0  0
  1  2  1  0
  1  3  1  0
  2  4  1  0
  5  6  1  0
  5  7  1  0
  5  8  1  0
  5  9  1  0
  6 10  1  0
  6 11  1  0
M  RAD  1   6   2
M  END
>  <reaction>  (14) 
rxn_778

>  <mol_properties>  (14) 
{"0": {"label": "*0", "atom_type": "O2s"}, "1": {"label": "*1", "atom_type": "O2s"}, "3": {"label": "*2", "atom_type": "H0"}, "4": {"label": "*4", "atom_type": "Cs"}, "5": {"label": "*3", "atom_type": "Cs"}}

>  <type>  (14) 
unop_10

>  <geom_source>  (14) 
Heuristics

$$$$

     RDKit          3D

 11  9  0  0  0  0  0  0  0  0999 V2000
   -0.1764   -1.2122   -1.5820 O   0  0  0  0  0  0  0  0  0  0  0  0
   -0.1764   -1.2122   -0.1574 O   0  0  0  0  0  0  0  0  0  0  0  0
    0.6843   -1.6005   -1.7691 H   0  0  0  0  0  0  0  0  0  0  0  0
   -0.1764   -0.0791    0.0671 H   0  0  0  0  0  0  0  0  0  0  0  0
    0.5331    1.5086    1.6345 C   0  0  0  0  0  0  0  0  0  0  0  0
   -0.1764    1.2057    0.3216 C   0  0  0  0  0  3  0  0  0  0  0  0
    0.1306    2.4082    2.1036 H   0  0  0  0  0  0  0  0  0  0  0  0
    1.6019    1.6668    1.4795 H   0  0  0  0  0  0  0  0  0  0  0  0
    0.4203    0.6872    2.3442 H   0  0  0  0  0  0  0  0  0  0  0  0
   -0.0635    2.0271   -0.3881 H   0  0  0  0  0  0  0  0  0  0  0  0
   -1.2451    1.0475    0.4766 H   0  0  0  0  0  0  0  0  0  0  0  0
  1  2  1  0
  1  3  1  0
  2  4  1  0
  5  6  1  0
  5  7  1  0
  5  8  1  0
  5  9  1  0
  6 10  1  0
  6 11  1  0
M  RAD  1   6   2
M  END
>  <reaction>  (15) 
rxn_778

>  <mol_properties>  (15) 
{"0": {"label": "*0", "atom_type": "O2s"}, "1": {"label": "*1", "atom_type": "O2s"}, "3": {"label": "*2", "atom_type": "H0"}, "4": {"label": "*4", "atom_type": "Cs"}, "5": {"label": "*3", "atom_type": "Cs"}}

>  <type>  (15) 
unop_11

>  <geom_source>  (15) 
Heuristics

$$$$

     RDKit          3D

 11  9  0  0  0  0  0  0  0  0999 V2000
   -0.0138   -1.3375   -0.9589 O   0  0  0  0  0  0  0  0  0  0  0  0
   -0.0138   -1.3375    0.4658 O   0  0  0  0  0  0  0  0  0  0  0  0
    0.8470   -1.7258   -1.1460 H   0  0  0  0  0  0  0  0  0  0  0  0
   -0.0138   -0.2044    0.6902 H   0  0  0  0  0  0  0  0  0  0  0  0
   -0.0138    1.8979   -0.3400 C   0  0  0  0  0  0  0  0  0  0  0  0
   -0.0138    1.0803    0.9447 C   0  0  0  0  0  3  0  0  0  0  0  0
   -0.0138    2.9685   -0.1279 H   0  0  0  0  0  0  0  0  0  0  0  0
   -0.8946    1.6813   -0.9470 H   0  0  0  0  0  0  0  0  0  0  0  0
    0.8671    1.6813   -0.9470 H   0  0  0  0  0  0  0  0  0  0  0  0
   -0.8946    1.2969    1.5517 H   0  0  0  0  0  0  0  0  0  0  0  0
    0.8671    1.2969    1.5517 H   0  0  0  0  0  0  0  0  0  0  0  0
  1  2  1  0
  1  3  1  0
  2  4  1  0
  5  6  1  0
  5  7  1  0
  5  8  1  0
  5  9  1  0
  6 10  1  0
  6 11  1  0
M  RAD  1   6   2
M  END
>  <reaction>  (16) 
rxn_778

>  <mol_properties>  (16) 
{"0": {"label": "*0", "atom_type": "O2s"}, "1": {"label": "*1", "atom_type": "O2s"}, "3": {"label": "*2", "atom_type": "H0"}, "4": {"label": "*4", "atom_type": "Cs"}, "5": {"label": "*3", "atom_type": "Cs"}}

>  <type>  (16) 
unop_12

>  <geom_source>  (16) 
Heuristics

$$$$

     RDKit          3D

 11  9  0  0  0  0  0  0  0  0999 V2000
    2.9498    0.5811    0.4182 O   0  0  0  0  0  0  0  0  0  0  0  0
    1.8573   -0.1497    0.4829 O   0  0  0  0  0  1  0  0  0  0  0  0
   -0.4935   -0.6838    0.1413 C   0  0  0  0  0  0  0  0  0  0  0  0
   -1.4950    0.3970   -0.2276 C   0  0  0  0  0  0  0  0  0  0  0  0
   -0.6337   -1.5674   -0.5165 H   0  0  0  0  0  0  0  0  0  0  0  0
   -0.6419   -0.9897    1.1983 H   0  0  0  0  0  0  0  0  0  0  0  0
    0.5749   -0.2838    0.0117 H   0  0  0  0  0  0  0  0  0  0  0  0
   -1.3540    1.2804    0.4301 H   0  0  0  0  0  0  0  0  0  0  0  0
   -1.3458    0.7028   -1.2845 H   0  0  0  0  0  0  0  0  0  0  0  0
   -2.5287    0.0112   -0.1026 H   0  0  0  0  0  0  0  0  0  0  0  0
    3.1106    0.7018   -0.5514 H   0  0  0  0  0  0  0  0  0  0  0  0
  1  2  1  0
  1 11  1  0
  3  4  1  0
  3  5  1  0
  3  6  1  0
  3  7  1  0
  4  8  1  0
  4  9  1  0
  4 10  1  0
M  RAD  1   2   2
M  END
>  <reaction>  (17) 
rxn_778

>  <mol_properties>  (17) 
{"0": {"label": "*0", "atom_type": "O2s"}, "1": {"label": "*1", "atom_type": "O2s"}, "3": {"label": "*2", "atom_type": "H0"}, "4": {"label": "*4", "atom_type": "Cs"}, "5": {"label": "*3", "atom_type": "Cs"}}

>  <type>  (17) 
unop_13

>  <geom_source>  (17) 
AutoTST

$$$$
