
     RDKit          3D

  9  8  0  0  0  0  0  0  0  0999 V2000
    1.1303   -0.2933   -0.7510 C   0  0  0  0  0  0  0  0  0  0  0  0
    0.2866    0.4560   -0.0588 C   0  0  0  0  0  0  0  0  0  0  0  0
   -0.9719   -0.0331    0.5823 C   0  0  0  0  0  0  0  0  0  0  0  0
    2.0274    0.1230   -1.1916 H   0  0  0  0  0  0  0  0  0  0  0  0
    0.9532   -1.3530   -0.9023 H   0  0  0  0  0  0  0  0  0  0  0  0
    0.5065    1.5132    0.0659 H   0  0  0  0  0  0  0  0  0  0  0  0
   -0.9526    0.1426    1.6610 H   0  0  0  0  0  0  0  0  0  0  0  0
   -1.1182   -1.1002    0.4106 H   0  0  0  0  0  0  0  0  0  0  0  0
   -1.8412    0.5010    0.1901 H   0  0  0  0  0  0  0  0  0  0  0  0
  1  2  2  3
  1  4  1  0
  1  5  1  0
  2  3  1  0
  2  6  1  0
  3  7  1  0
  3  8  1  0
  3  9  1  0
M  END
>  <reaction>  (1) 
rxn_1037

>  <mol_properties>  (1) 
{"2": {"label": "donator", "atom_type": "Cs"}, "6": {"label": "d_hydrogen", "atom_type": "H0"}}

>  <type>  (1) 
r1h

$$$$

     RDKit          3D

  7  6  0  0  0  0  0  0  0  0999 V2000
   -0.6904   -0.9066   -0.0346 C   0  0  0  0  0  0  0  0  0  0  0  0
    0.1413    0.0254   -0.6161 C   0  0  0  0  0  0  0  0  0  0  0  0
    0.4603    0.1105   -1.9267 C   0  0  0  0  0  3  0  0  0  0  0  0
    0.8318    0.2180   -3.4201 S   0  0  0  0  0  0  0  0  0  0  0  0
   -0.8731   -0.8770    1.0287 H   0  0  0  0  0  0  0  0  0  0  0  0
   -1.1718   -1.6767   -0.6199 H   0  0  0  0  0  0  0  0  0  0  0  0
    0.6090    0.7866    0.0044 H   0  0  0  0  0  0  0  0  0  0  0  0
  1  2  2  3
  1  5  1  0
  1  6  1  0
  2  3  1  0
  2  7  1  0
  3  4  2  0
M  RAD  1   3   2
M  END
>  <reaction>  (2) 
rxn_1037

>  <mol_properties>  (2) 
{"2": {"label": "acceptor", "atom_type": "CS"}}

>  <type>  (2) 
r2

$$$$

     RDKit          3D

  8  7  0  0  0  0  0  0  0  0999 V2000
   -1.1617    0.0338    0.5053 C   0  0  0  0  0  0  0  0  0  0  0  0
   -0.1023    0.4503   -0.1863 C   0  0  0  0  0  0  0  0  0  0  0  0
    1.0978   -0.3557   -0.3104 C   0  0  0  0  0  0  0  0  0  0  0  0
    2.4251    0.0667   -1.1256 S   0  0  0  0  0  0  0  0  0  0  0  0
   -1.1653   -0.9292    1.0039 H   0  0  0  0  0  0  0  0  0  0  0  0
   -2.0546    0.6389    0.5948 H   0  0  0  0  0  0  0  0  0  0  0  0
   -0.0991    1.4132   -0.6847 H   0  0  0  0  0  0  0  0  0  0  0  0
    1.0601   -1.3180    0.2032 H   0  0  0  0  0  0  0  0  0  0  0  0
  1  2  2  3
  1  5  1  0
  1  6  1  0
  2  3  1  0
  2  7  1  0
  3  4  2  0
  3  8  1  0
M  END
>  <reaction>  (3) 
rxn_1037

>  <mol_properties>  (3) 
{"0": {"label": "a_hydrogen", "atom_type": "H0"}, "3": {"label": "acceptor", "atom_type": "CS"}}

>  <type>  (3) 
r2h

$$$$

     RDKit          3D

 16 14  0  0  0  0  0  0  0  0999 V2000
    1.6158   -1.2434   -2.7282 C   0  0  0  0  0  0  0  0  0  0  0  0
    1.9871   -0.7750   -1.5328 C   0  0  0  0  0  0  0  0  0  0  0  0
    1.5051    0.4571   -0.9312 C   0  0  0  0  0  0  0  0  0  0  0  0
    1.9885   -2.1856   -3.1079 H   0  0  0  0  0  0  0  0  0  0  0  0
    0.9417   -0.6839   -3.3685 H   0  0  0  0  0  0  0  0  0  0  0  0
    2.6724   -1.3700   -0.9352 H   0  0  0  0  0  0  0  0  0  0  0  0
    0.5809    0.1773   -0.0091 H   0  0  0  0  0  0  0  0  0  0  0  0
    0.9774    1.1315   -1.6034 H   0  0  0  0  0  0  0  0  0  0  0  0
    2.2042    0.9747   -0.2773 H   0  0  0  0  0  0  0  0  0  0  0  0
   -1.5485   -1.3836   -0.5334 C   0  0  0  0  0  0  0  0  0  0  0  0
   -1.4740   -0.7624    0.6436 C   0  0  0  0  0  0  0  0  0  0  0  0
   -0.3412    0.0563    1.0110 C   0  0  0  0  0  3  0  0  0  0  0  0
   -0.0262    0.8221    2.3681 S   0  0  0  0  0  0  0  0  0  0  0  0
   -2.4042   -1.9971   -0.7858 H   0  0  0  0  0  0  0  0  0  0  0  0
   -0.7541   -1.3074   -1.2662 H   0  0  0  0  0  0  0  0  0  0  0  0
   -2.2716   -0.8605    1.3753 H   0  0  0  0  0  0  0  0  0  0  0  0
  1  2  2  3
  1  4  1  0
  1  5  1  0
  2  3  1  0
  2  6  1  0
  3  7  1  0
  3  8  1  0
  3  9  1  0
 10 11  2  3
 10 14  1  0
 10 15  1  0
 11 12  1  0
 11 16  1  0
 12 13  2  0
M  RAD  1  12   2
M  END
>  <reaction>  (4) 
rxn_1037

>  <mol_properties>  (4) 
{"1": {"label": "*0", "atom_type": "Cd"}, "2": {"label": "*1", "atom_type": "Cs"}, "6": {"label": "*2", "atom_type": "H0"}, "11": {"label": "*3", "atom_type": "CS"}, "12": {"label": "*4", "atom_type": "S2d"}}

>  <type>  (4) 
ts

$$$$

     RDKit          3D

 16 14  0  0  0  0  0  0  0  0999 V2000
    1.4561   -1.1140   -3.0065 C   0  0  0  0  0  0  0  0  0  0  0  0
    1.4561   -1.1140   -1.6827 C   0  0  0  0  0  0  0  0  0  0  0  0
    1.4561    0.1082   -0.8222 C   0  0  0  0  0  3  0  0  0  0  0  0
    1.4561   -2.0367   -3.5730 H   0  0  0  0  0  0  0  0  0  0  0  0
    1.4561   -0.1884   -3.5725 H   0  0  0  0  0  0  0  0  0  0  0  0
    1.4561   -2.0666   -1.1592 H   0  0  0  0  0  0  0  0  0  0  0  0
    0.4028    0.1287   -0.0408 H   0  0  0  0  0  0  0  0  0  0  0  0
    1.4561    1.0186   -1.4228 H   0  0  0  0  0  0  0  0  0  0  0  0
    2.3338    0.1253   -0.1710 H   0  0  0  0  0  0  0  0  0  0  0  0
    0.6096   -0.5841    2.6892 C   0  0  0  0  0  0  0  0  0  0  0  0
   -0.3551    0.1668    2.1604 C   0  0  0  0  0  0  0  0  0  0  0  0
   -0.6489    0.1492    0.7396 C   0  0  0  0  0  0  0  0  0  0  0  0
   -1.7954    1.0225    0.0131 S   0  0  0  0  0  0  0  0  0  0  0  0
    0.8248   -0.5673    3.7497 H   0  0  0  0  0  0  0  0  0  0  0  0
    1.2141   -1.2401    2.0726 H   0  0  0  0  0  0  0  0  0  0  0  0
   -0.9593    0.8226    2.7772 H   0  0  0  0  0  0  0  0  0  0  0  0
  1  2  2  3
  1  4  1  0
  1  5  1  0
  2  3  1  0
  2  6  1  0
  3  8  1  0
  3  9  1  0
  7 12  1  0
 10 11  2  3
 10 14  1  0
 10 15  1  0
 11 12  1  0
 11 16  1  0
 12 13  2  0
M  RAD  1   3   2
M  END
>  <reaction>  (5) 
rxn_1037

>  <mol_properties>  (5) 
{"1": {"label": "*0", "atom_type": "Cd"}, "2": {"label": "*1", "atom_type": "Cs"}, "6": {"label": "*2", "atom_type": "H0"}, "11": {"label": "*3", "atom_type": "CS"}, "12": {"label": "*4", "atom_type": "S2d"}}

>  <type>  (5) 
unop_1

>  <geom_source>  (5) 
Heuristics

$$$$

     RDKit          3D

 16 14  0  0  0  0  0  0  0  0999 V2000
    1.5037   -0.8904   -3.0201 C   0  0  0  0  0  0  0  0  0  0  0  0
    1.5037   -0.8904   -1.6964 C   0  0  0  0  0  0  0  0  0  0  0  0
    1.5037    0.3318   -0.8359 C   0  0  0  0  0  3  0  0  0  0  0  0
    1.5037   -1.8132   -3.5866 H   0  0  0  0  0  0  0  0  0  0  0  0
    1.5037    0.0352   -3.5861 H   0  0  0  0  0  0  0  0  0  0  0  0
    1.5037   -1.8431   -1.1729 H   0  0  0  0  0  0  0  0  0  0  0  0
    0.4504    0.3523   -0.0544 H   0  0  0  0  0  0  0  0  0  0  0  0
    1.5037    1.2422   -1.4365 H   0  0  0  0  0  0  0  0  0  0  0  0
    2.3814    0.3489   -0.1846 H   0  0  0  0  0  0  0  0  0  0  0  0
   -0.7739   -2.0379    0.4407 C   0  0  0  0  0  0  0  0  0  0  0  0
   -1.1036   -0.9336    1.1086 C   0  0  0  0  0  0  0  0  0  0  0  0
   -0.6013    0.3728    0.7260 C   0  0  0  0  0  0  0  0  0  0  0  0
   -0.9462    1.7607    1.4740 S   0  0  0  0  0  0  0  0  0  0  0  0
   -1.1513   -3.0100    0.7303 H   0  0  0  0  0  0  0  0  0  0  0  0
   -0.1139   -2.0000   -0.4188 H   0  0  0  0  0  0  0  0  0  0  0  0
   -1.7636   -0.9719    1.9679 H   0  0  0  0  0  0  0  0  0  0  0  0
  1  2  2  3
  1  4  1  0
  1  5  1  0
  2  3  1  0
  2  6  1  0
  3  8  1  0
  3  9  1  0
  7 12  1  0
 10 11  2  3
 10 14  1  0
 10 15  1  0
 11 12  1  0
 11 16  1  0
 12 13  2  0
M  RAD  1   3   2
M  END
>  <reaction>  (6) 
rxn_1037

>  <mol_properties>  (6) 
{"1": {"label": "*0", "atom_type": "Cd"}, "2": {"label": "*1", "atom_type": "Cs"}, "6": {"label": "*2", "atom_type": "H0"}, "11": {"label": "*3", "atom_type": "CS"}, "12": {"label": "*4", "atom_type": "S2d"}}

>  <type>  (6) 
unop_2

>  <geom_source>  (6) 
Heuristics

$$$$

     RDKit          3D

 16 14  0  0  0  0  0  0  0  0999 V2000
    1.5226   -1.1040   -2.9547 C   0  0  0  0  0  0  0  0  0  0  0  0
    1.5226   -1.1040   -1.6309 C   0  0  0  0  0  0  0  0  0  0  0  0
    1.5226    0.1181   -0.7704 C   0  0  0  0  0  3  0  0  0  0  0  0
    1.5226   -2.0268   -3.5211 H   0  0  0  0  0  0  0  0  0  0  0  0
    1.5226   -0.1784   -3.5207 H   0  0  0  0  0  0  0  0  0  0  0  0
    1.5226   -2.0567   -1.1074 H   0  0  0  0  0  0  0  0  0  0  0  0
    0.4694    0.1387    0.0111 H   0  0  0  0  0  0  0  0  0  0  0  0
    1.5226    1.0286   -1.3710 H   0  0  0  0  0  0  0  0  0  0  0  0
    2.4003    0.1353   -0.1192 H   0  0  0  0  0  0  0  0  0  0  0  0
    0.7928    0.8465    2.6780 C   0  0  0  0  0  0  0  0  0  0  0  0
   -0.3877    0.8337    2.0612 C   0  0  0  0  0  0  0  0  0  0  0  0
   -0.5824    0.1592    0.7914 C   0  0  0  0  0  0  0  0  0  0  0  0
   -1.9725    0.0918   -0.0257 S   0  0  0  0  0  0  0  0  0  0  0  0
    0.9327    1.3511    3.6251 H   0  0  0  0  0  0  0  0  0  0  0  0
    1.6567    0.3499    2.2503 H   0  0  0  0  0  0  0  0  0  0  0  0
   -1.2513    1.3303    2.4892 H   0  0  0  0  0  0  0  0  0  0  0  0
  1  2  2  3
  1  4  1  0
  1  5  1  0
  2  3  1  0
  2  6  1  0
  3  8  1  0
  3  9  1  0
  7 12  1  0
 10 11  2  3
 10 14  1  0
 10 15  1  0
 11 12  1  0
 11 16  1  0
 12 13  2  0
M  RAD  1   3   2
M  END
>  <reaction>  (7) 
rxn_1037

>  <mol_properties>  (7) 
{"1": {"label": "*0", "atom_type": "Cd"}, "2": {"label": "*1", "atom_type": "Cs"}, "6": {"label": "*2", "atom_type": "H0"}, "11": {"label": "*3", "atom_type": "CS"}, "12": {"label": "*4", "atom_type": "S2d"}}

>  <type>  (7) 
unop_3

>  <geom_source>  (7) 
Heuristics

$$$$

     RDKit          3D

 16 14  0  0  0  0  0  0  0  0999 V2000
    1.5749   -1.0816   -2.8831 C   0  0  0  0  0  0  0  0  0  0  0  0
    1.5749   -1.0816   -1.5594 C   0  0  0  0  0  0  0  0  0  0  0  0
    1.5749    0.1406   -0.6989 C   0  0  0  0  0  3  0  0  0  0  0  0
    1.5749   -2.0043   -3.4496 H   0  0  0  0  0  0  0  0  0  0  0  0
    1.5749   -0.1560   -3.4492 H   0  0  0  0  0  0  0  0  0  0  0  0
    1.5749   -2.0342   -1.0359 H   0  0  0  0  0  0  0  0  0  0  0  0
    0.5217    0.1611    0.0826 H   0  0  0  0  0  0  0  0  0  0  0  0
    1.5749    1.0511   -1.2995 H   0  0  0  0  0  0  0  0  0  0  0  0
    2.4526    0.1577   -0.0477 H   0  0  0  0  0  0  0  0  0  0  0  0
   -1.9697   -0.4273   -1.0023 C   0  0  0  0  0  0  0  0  0  0  0  0
   -1.8049    0.1832    0.1699 C   0  0  0  0  0  0  0  0  0  0  0  0
   -0.5301    0.1817    0.8629 C   0  0  0  0  0  0  0  0  0  0  0  0
   -0.2389    0.8926    2.2822 S   0  0  0  0  0  0  0  0  0  0  0  0
   -2.9228   -0.4232   -1.5151 H   0  0  0  0  0  0  0  0  0  0  0  0
   -1.1515   -0.9510   -1.4842 H   0  0  0  0  0  0  0  0  0  0  0  0
   -2.6232    0.7068    0.6514 H   0  0  0  0  0  0  0  0  0  0  0  0
  1  2  2  3
  1  4  1  0
  1  5  1  0
  2  3  1  0
  2  6  1  0
  3  8  1  0
  3  9  1  0
  7 12  1  0
 10 11  2  3
 10 14  1  0
 10 15  1  0
 11 12  1  0
 11 16  1  0
 12 13  2  0
M  RAD  1   3   2
M  END
>  <reaction>  (8) 
rxn_1037

>  <mol_properties>  (8) 
{"1": {"label": "*0", "atom_type": "Cd"}, "2": {"label": "*1", "atom_type": "Cs"}, "6": {"label": "*2", "atom_type": "H0"}, "11": {"label": "*3", "atom_type": "CS"}, "12": {"label": "*4", "atom_type": "S2d"}}

>  <type>  (8) 
unop_4

>  <geom_source>  (8) 
Heuristics

$$$$

     RDKit          3D

 16 14  0  0  0  0  0  0  0  0999 V2000
    1.5337   -1.0171   -2.9934 C   0  0  0  0  0  0  0  0  0  0  0  0
    1.5337   -1.0171   -1.6697 C   0  0  0  0  0  0  0  0  0  0  0  0
    1.5337    0.2051   -0.8092 C   0  0  0  0  0  3  0  0  0  0  0  0
    1.5337   -1.9398   -3.5599 H   0  0  0  0  0  0  0  0  0  0  0  0
    1.5337   -0.0915   -3.5595 H   0  0  0  0  0  0  0  0  0  0  0  0
    1.5337   -1.9697   -1.1462 H   0  0  0  0  0  0  0  0  0  0  0  0
    0.4804    0.2256   -0.0277 H   0  0  0  0  0  0  0  0  0  0  0  0
    1.5337    1.1155   -1.4098 H   0  0  0  0  0  0  0  0  0  0  0  0
    2.4114    0.2222   -0.1580 H   0  0  0  0  0  0  0  0  0  0  0  0
    0.2668    2.3565    1.6281 C   0  0  0  0  0  0  0  0  0  0  0  0
   -0.6595    1.3994    1.6288 C   0  0  0  0  0  0  0  0  0  0  0  0
   -0.5714    0.2461    0.7526 C   0  0  0  0  0  0  0  0  0  0  0  0
   -1.6434   -0.9584    0.6852 S   0  0  0  0  0  0  0  0  0  0  0  0
    0.1964    3.2147    2.2837 H   0  0  0  0  0  0  0  0  0  0  0  0
    1.1260    2.3078    0.9682 H   0  0  0  0  0  0  0  0  0  0  0  0
   -1.5184    1.4483    2.2887 H   0  0  0  0  0  0  0  0  0  0  0  0
  1  2  2  3
  1  4  1  0
  1  5  1  0
  2  3  1  0
  2  6  1  0
  3  8  1  0
  3  9  1  0
  7 12  1  0
 10 11  2  3
 10 14  1  0
 10 15  1  0
 11 12  1  0
 11 16  1  0
 12 13  2  0
M  RAD  1   3   2
M  END
>  <reaction>  (9) 
rxn_1037

>  <mol_properties>  (9) 
{"1": {"label": "*0", "atom_type": "Cd"}, "2": {"label": "*1", "atom_type": "Cs"}, "6": {"label": "*2", "atom_type": "H0"}, "11": {"label": "*3", "atom_type": "CS"}, "12": {"label": "*4", "atom_type": "S2d"}}

>  <type>  (9) 
unop_5

>  <geom_source>  (9) 
Heuristics

$$$$

     RDKit          3D

 16 14  0  0  0  0  0  0  0  0999 V2000
    1.5134   -1.1332   -2.9346 C   0  0  0  0  0  0  0  0  0  0  0  0
    1.5134   -1.1332   -1.6109 C   0  0  0  0  0  0  0  0  0  0  0  0
    1.5134    0.0890   -0.7504 C   0  0  0  0  0  3  0  0  0  0  0  0
    1.5134   -2.0559   -3.5011 H   0  0  0  0  0  0  0  0  0  0  0  0
    1.5134   -0.2076   -3.5006 H   0  0  0  0  0  0  0  0  0  0  0  0
    1.5134   -2.0858   -1.0873 H   0  0  0  0  0  0  0  0  0  0  0  0
    0.4601    0.1095    0.0311 H   0  0  0  0  0  0  0  0  0  0  0  0
    1.5134    0.9994   -1.3509 H   0  0  0  0  0  0  0  0  0  0  0  0
    2.3911    0.1061   -0.0991 H   0  0  0  0  0  0  0  0  0  0  0  0
   -2.0990    0.6463   -1.0281 C   0  0  0  0  0  0  0  0  0  0  0  0
   -1.7554    0.7906    0.2507 C   0  0  0  0  0  0  0  0  0  0  0  0
   -0.5916    0.1300    0.8115 C   0  0  0  0  0  0  0  0  0  0  0  0
   -0.1010    0.2467    2.3445 S   0  0  0  0  0  0  0  0  0  0  0  0
   -2.9681    1.1414   -1.4414 H   0  0  0  0  0  0  0  0  0  0  0  0
   -1.5172    0.0257   -1.7006 H   0  0  0  0  0  0  0  0  0  0  0  0
   -2.3374    1.4112    0.9229 H   0  0  0  0  0  0  0  0  0  0  0  0
  1  2  2  3
  1  4  1  0
  1  5  1  0
  2  3  1  0
  2  6  1  0
  3  8  1  0
  3  9  1  0
  7 12  1  0
 10 11  2  3
 10 14  1  0
 10 15  1  0
 11 12  1  0
 11 16  1  0
 12 13  2  0
M  RAD  1   3   2
M  END
>  <reaction>  (10) 
rxn_1037

>  <mol_properties>  (10) 
{"1": {"label": "*0", "atom_type": "Cd"}, "2": {"label": "*1", "atom_type": "Cs"}, "6": {"label": "*2", "atom_type": "H0"}, "11": {"label": "*3", "atom_type": "CS"}, "12": {"label": "*4", "atom_type": "S2d"}}

>  <type>  (10) 
unop_6

>  <geom_source>  (10) 
Heuristics

$$$$

     RDKit          3D

 16 14  0  0  0  0  0  0  0  0999 V2000
    1.4570   -1.1149   -3.0052 C   0  0  0  0  0  0  0  0  0  0  0  0
    1.4570   -1.1149   -1.6815 C   0  0  0  0  0  0  0  0  0  0  0  0
    1.4570    0.1073   -0.8209 C   0  0  0  0  0  3  0  0  0  0  0  0
    1.4570   -2.0377   -3.5717 H   0  0  0  0  0  0  0  0  0  0  0  0
    1.4570   -0.1893   -3.5712 H   0  0  0  0  0  0  0  0  0  0  0  0
    1.4570   -2.0676   -1.1579 H   0  0  0  0  0  0  0  0  0  0  0  0
    0.4038    0.1278   -0.0395 H   0  0  0  0  0  0  0  0  0  0  0  0
    1.4570    1.0177   -1.4215 H   0  0  0  0  0  0  0  0  0  0  0  0
    2.3347    0.1244   -0.1697 H   0  0  0  0  0  0  0  0  0  0  0  0
   -1.8209    1.7658   -0.6485 C   0  0  0  0  0  0  0  0  0  0  0  0
   -1.5204    1.2935    0.5601 C   0  0  0  0  0  0  0  0  0  0  0  0
   -0.6480    0.1483    0.7409 C   0  0  0  0  0  0  0  0  0  0  0  0
   -0.2301   -0.4910    2.1626 S   0  0  0  0  0  0  0  0  0  0  0  0
   -2.4723    2.6205   -0.7778 H   0  0  0  0  0  0  0  0  0  0  0  0
   -1.4217    1.3083   -1.5469 H   0  0  0  0  0  0  0  0  0  0  0  0
   -1.9198    1.7512    1.4582 H   0  0  0  0  0  0  0  0  0  0  0  0
  1  2  2  3
  1  4  1  0
  1  5  1  0
  2  3  1  0
  2  6  1  0
  3  8  1  0
  3  9  1  0
  7 12  1  0
 10 11  2  3
 10 14  1  0
 10 15  1  0
 11 12  1  0
 11 16  1  0
 12 13  2  0
M  RAD  1   3   2
M  END
>  <reaction>  (11) 
rxn_1037

>  <mol_properties>  (11) 
{"1": {"label": "*0", "atom_type": "Cd"}, "2": {"label": "*1", "atom_type": "Cs"}, "6": {"label": "*2", "atom_type": "H0"}, "11": {"label": "*3", "atom_type": "CS"}, "12": {"label": "*4", "atom_type": "S2d"}}

>  <type>  (11) 
unop_7

>  <geom_source>  (11) 
Heuristics

$$$$

     RDKit          3D

 16 14  0  0  0  0  0  0  0  0999 V2000
    1.4229   -1.0458   -3.0588 C   0  0  0  0  0  0  0  0  0  0  0  0
    1.4229   -1.0458   -1.7351 C   0  0  0  0  0  0  0  0  0  0  0  0
    1.4229    0.1764   -0.8745 C   0  0  0  0  0  3  0  0  0  0  0  0
    1.4229   -1.9685   -3.6253 H   0  0  0  0  0  0  0  0  0  0  0  0
    1.4229   -0.1202   -3.6248 H   0  0  0  0  0  0  0  0  0  0  0  0
    1.4229   -1.9984   -1.2115 H   0  0  0  0  0  0  0  0  0  0  0  0
    0.3697    0.1970   -0.0931 H   0  0  0  0  0  0  0  0  0  0  0  0
    1.4229    1.0869   -1.4751 H   0  0  0  0  0  0  0  0  0  0  0  0
    2.3007    0.1935   -0.2233 H   0  0  0  0  0  0  0  0  0  0  0  0
    0.1834   -1.5603    2.1060 C   0  0  0  0  0  0  0  0  0  0  0  0
   -0.4992   -0.4240    1.9758 C   0  0  0  0  0  0  0  0  0  0  0  0
   -0.6821    0.2175    0.6873 C   0  0  0  0  0  0  0  0  0  0  0  0
   -1.4913    1.5909    0.4353 S   0  0  0  0  0  0  0  0  0  0  0  0
    0.3169   -2.0348    3.0696 H   0  0  0  0  0  0  0  0  0  0  0  0
    0.6299   -2.0502    1.2479 H   0  0  0  0  0  0  0  0  0  0  0  0
   -0.9456    0.0656    2.8341 H   0  0  0  0  0  0  0  0  0  0  0  0
  1  2  2  3
  1  4  1  0
  1  5  1  0
  2  3  1  0
  2  6  1  0
  3  8  1  0
  3  9  1  0
  7 12  1  0
 10 11  2  3
 10 14  1  0
 10 15  1  0
 11 12  1  0
 11 16  1  0
 12 13  2  0
M  RAD  1   3   2
M  END
>  <reaction>  (12) 
rxn_1037

>  <mol_properties>  (12) 
{"1": {"label": "*0", "atom_type": "Cd"}, "2": {"label": "*1", "atom_type": "Cs"}, "6": {"label": "*2", "atom_type": "H0"}, "11": {"label": "*3", "atom_type": "CS"}, "12": {"label": "*4", "atom_type": "S2d"}}

>  <type>  (12) 
unop_8

>  <geom_source>  (12) 
Heuristics

$$$$

     RDKit          3D

 16 14  0  0  0  0  0  0  0  0999 V2000
    1.6027   -0.9861   -2.8842 C   0  0  0  0  0  0  0  0  0  0  0  0
    1.6027   -0.9861   -1.5605 C   0  0  0  0  0  0  0  0  0  0  0  0
    1.6027    0.2361   -0.6999 C   0  0  0  0  0  3  0  0  0  0  0  0
    1.6027   -1.9089   -3.4507 H   0  0  0  0  0  0  0  0  0  0  0  0
    1.6027   -0.0605   -3.4502 H   0  0  0  0  0  0  0  0  0  0  0  0
    1.6027   -1.9388   -1.0369 H   0  0  0  0  0  0  0  0  0  0  0  0
    0.5494    0.2566    0.0815 H   0  0  0  0  0  0  0  0  0  0  0  0
    1.6027    1.1465   -1.3005 H   0  0  0  0  0  0  0  0  0  0  0  0
    2.4804    0.2532   -0.0487 H   0  0  0  0  0  0  0  0  0  0  0  0
   -1.5997   -1.2395   -0.6932 C   0  0  0  0  0  0  0  0  0  0  0  0
   -1.6779   -0.3783    0.3198 C   0  0  0  0  0  0  0  0  0  0  0  0
   -0.5023    0.2771    0.8619 C   0  0  0  0  0  0  0  0  0  0  0  0
   -0.5020    1.3312    2.0840 S   0  0  0  0  0  0  0  0  0  0  0  0
   -2.4797   -1.7257   -1.0939 H   0  0  0  0  0  0  0  0  0  0  0  0
   -0.6481   -1.4834   -1.1524 H   0  0  0  0  0  0  0  0  0  0  0  0
   -2.6296   -0.1346    0.7787 H   0  0  0  0  0  0  0  0  0  0  0  0
  1  2  2  3
  1  4  1  0
  1  5  1  0
  2  3  1  0
  2  6  1  0
  3  8  1  0
  3  9  1  0
  7 12  1  0
 10 11  2  3
 10 14  1  0
 10 15  1  0
 11 12  1  0
 11 16  1  0
 12 13  2  0
M  RAD  1   3   2
M  END
>  <reaction>  (13) 
rxn_1037

>  <mol_properties>  (13) 
{"1": {"label": "*0", "atom_type": "Cd"}, "2": {"label": "*1", "atom_type": "Cs"}, "6": {"label": "*2", "atom_type": "H0"}, "11": {"label": "*3", "atom_type": "CS"}, "12": {"label": "*4", "atom_type": "S2d"}}

>  <type>  (13) 
unop_9

>  <geom_source>  (13) 
Heuristics

$$$$

     RDKit          3D

 16 14  0  0  0  0  0  0  0  0999 V2000
    1.4414   -0.9525   -3.0665 C   0  0  0  0  0  0  0  0  0  0  0  0
    1.4414   -0.9525   -1.7428 C   0  0  0  0  0  0  0  0  0  0  0  0
    1.4414    0.2697   -0.8822 C   0  0  0  0  0  3  0  0  0  0  0  0
    1.4414   -1.8752   -3.6330 H   0  0  0  0  0  0  0  0  0  0  0  0
    1.4414   -0.0269   -3.6325 H   0  0  0  0  0  0  0  0  0  0  0  0
    1.4414   -1.9051   -1.2192 H   0  0  0  0  0  0  0  0  0  0  0  0
    0.3881    0.2902   -0.1008 H   0  0  0  0  0  0  0  0  0  0  0  0
    1.4414    1.1801   -1.4828 H   0  0  0  0  0  0  0  0  0  0  0  0
    2.3191    0.2868   -0.2310 H   0  0  0  0  0  0  0  0  0  0  0  0
   -0.3170   -2.0253    1.2672 C   0  0  0  0  0  0  0  0  0  0  0  0
   -0.7721   -0.8153    1.5881 C   0  0  0  0  0  0  0  0  0  0  0  0
   -0.6636    0.3108    0.6796 C   0  0  0  0  0  0  0  0  0  0  0  0
   -1.1853    1.8077    0.9826 S   0  0  0  0  0  0  0  0  0  0  0  0
   -0.4004   -2.8620    1.9486 H   0  0  0  0  0  0  0  0  0  0  0  0
    0.1542   -2.2135    0.3089 H   0  0  0  0  0  0  0  0  0  0  0  0
   -1.2432   -0.6275    2.5465 H   0  0  0  0  0  0  0  0  0  0  0  0
  1  2  2  3
  1  4  1  0
  1  5  1  0
  2  3  1  0
  2  6  1  0
  3  8  1  0
  3  9  1  0
  7 12  1  0
 10 11  2  3
 10 14  1  0
 10 15  1  0
 11 12  1  0
 11 16  1  0
 12 13  2  0
M  RAD  1   3   2
M  END
>  <reaction>  (14) 
rxn_1037

>  <mol_properties>  (14) 
{"1": {"label": "*0", "atom_type": "Cd"}, "2": {"label": "*1", "atom_type": "Cs"}, "6": {"label": "*2", "atom_type": "H0"}, "11": {"label": "*3", "atom_type": "CS"}, "12": {"label": "*4", "atom_type": "S2d"}}

>  <type>  (14) 
unop_10

>  <geom_source>  (14) 
Heuristics

$$$$

     RDKit          3D

 16 14  0  0  0  0  0  0  0  0999 V2000
    1.4565   -1.0401   -3.0454 C   0  0  0  0  0  0  0  0  0  0  0  0
    1.4565   -1.0401   -1.7217 C   0  0  0  0  0  0  0  0  0  0  0  0
    1.4565    0.1821   -0.8612 C   0  0  0  0  0  3  0  0  0  0  0  0
    1.4565   -1.9628   -3.6119 H   0  0  0  0  0  0  0  0  0  0  0  0
    1.4565   -0.1145   -3.6115 H   0  0  0  0  0  0  0  0  0  0  0  0
    1.4565   -1.9928   -1.1982 H   0  0  0  0  0  0  0  0  0  0  0  0
    0.4033    0.2026   -0.0797 H   0  0  0  0  0  0  0  0  0  0  0  0
    1.4565    1.0925   -1.4618 H   0  0  0  0  0  0  0  0  0  0  0  0
    2.3342    0.1992   -0.2100 H   0  0  0  0  0  0  0  0  0  0  0  0
   -1.0015    2.5813    0.2140 C   0  0  0  0  0  0  0  0  0  0  0  0
   -1.1272    1.5486    1.0458 C   0  0  0  0  0  0  0  0  0  0  0  0
   -0.6485    0.2231    0.7006 C   0  0  0  0  0  0  0  0  0  0  0  0
   -0.7576   -1.0829    1.6426 S   0  0  0  0  0  0  0  0  0  0  0  0
   -1.3603    3.5681    0.4764 H   0  0  0  0  0  0  0  0  0  0  0  0
   -0.5338    2.4677   -0.7577 H   0  0  0  0  0  0  0  0  0  0  0  0
   -1.5950    1.6626    2.0173 H   0  0  0  0  0  0  0  0  0  0  0  0
  1  2  2  3
  1  4  1  0
  1  5  1  0
  2  3  1  0
  2  6  1  0
  3  8  1  0
  3  9  1  0
  7 12  1  0
 10 11  2  3
 10 14  1  0
 10 15  1  0
 11 12  1  0
 11 16  1  0
 12 13  2  0
M  RAD  1   3   2
M  END
>  <reaction>  (15) 
rxn_1037

>  <mol_properties>  (15) 
{"1": {"label": "*0", "atom_type": "Cd"}, "2": {"label": "*1", "atom_type": "Cs"}, "6": {"label": "*2", "atom_type": "H0"}, "11": {"label": "*3", "atom_type": "CS"}, "12": {"label": "*4", "atom_type": "S2d"}}

>  <type>  (15) 
unop_11

>  <geom_source>  (15) 
Heuristics

$$$$

     RDKit          3D

 16 14  0  0  0  0  0  0  0  0999 V2000
    1.5737   -0.9034   -2.9425 C   0  0  0  0  0  0  0  0  0  0  0  0
    1.5737   -0.9034   -1.6188 C   0  0  0  0  0  0  0  0  0  0  0  0
    1.5737    0.3188   -0.7583 C   0  0  0  0  0  3  0  0  0  0  0  0
    1.5737   -1.8261   -3.5090 H   0  0  0  0  0  0  0  0  0  0  0  0
    1.5737    0.0222   -3.5085 H   0  0  0  0  0  0  0  0  0  0  0  0
    1.5737   -1.8561   -1.0953 H   0  0  0  0  0  0  0  0  0  0  0  0
    0.5204    0.3393    0.0232 H   0  0  0  0  0  0  0  0  0  0  0  0
    1.5737    1.2292   -1.3589 H   0  0  0  0  0  0  0  0  0  0  0  0
    2.4514    0.3359   -0.1070 H   0  0  0  0  0  0  0  0  0  0  0  0
   -1.1794   -1.7542   -0.2130 C   0  0  0  0  0  0  0  0  0  0  0  0
   -1.4242   -0.7743    0.6552 C   0  0  0  0  0  0  0  0  0  0  0  0
   -0.5314    0.3598    0.8036 C   0  0  0  0  0  0  0  0  0  0  0  0
   -0.7470    1.5895    1.8264 S   0  0  0  0  0  0  0  0  0  0  0  0
   -1.8486   -2.5981   -0.3198 H   0  0  0  0  0  0  0  0  0  0  0  0
   -0.2980   -1.7396   -0.8445 H   0  0  0  0  0  0  0  0  0  0  0  0
   -2.3056   -0.7893    1.2865 H   0  0  0  0  0  0  0  0  0  0  0  0
  1  2  2  3
  1  4  1  0
  1  5  1  0
  2  3  1  0
  2  6  1  0
  3  8  1  0
  3  9  1  0
  7 12  1  0
 10 11  2  3
 10 14  1  0
 10 15  1  0
 11 12  1  0
 11 16  1  0
 12 13  2  0
M  RAD  1   3   2
M  END
>  <reaction>  (16) 
rxn_1037

>  <mol_properties>  (16) 
{"1": {"label": "*0", "atom_type": "Cd"}, "2": {"label": "*1", "atom_type": "Cs"}, "6": {"label": "*2", "atom_type": "H0"}, "11": {"label": "*3", "atom_type": "CS"}, "12": {"label": "*4", "atom_type": "S2d"}}

>  <type>  (16) 
unop_12

>  <geom_source>  (16) 
Heuristics

$$$$

     RDKit          3D

 16 14  0  0  0  0  0  0  0  0999 V2000
    0.8699   -1.7677    1.3006 S   0  0  0  0  0  0  0  0  0  0  0  0
    2.0306   -0.2907   -0.6973 C   0  0  0  0  0  0  0  0  0  0  0  0
   -1.8726    1.0316    0.0953 C   0  0  0  0  0  0  0  0  0  0  0  0
   -1.6980   -0.3253   -0.5077 C   0  0  0  0  0  0  0  0  0  0  0  0
    3.2569   -0.7517   -0.4504 C   0  0  0  0  0  0  0  0  0  0  0  0
    0.8319   -0.6963    0.0600 C   0  0  0  0  0  0  0  0  0  0  0  0
   -2.1716    1.1717    1.3876 C   0  0  0  0  0  3  0  0  0  0  0  0
    1.8991    0.4239   -1.4996 H   0  0  0  0  0  0  0  0  0  0  0  0
   -1.7419    1.9140   -0.5242 H   0  0  0  0  0  0  0  0  0  0  0  0
    4.0902   -0.4076   -1.0493 H   0  0  0  0  0  0  0  0  0  0  0  0
    3.4534   -1.4668    0.3371 H   0  0  0  0  0  0  0  0  0  0  0  0
   -0.3128   -0.1780   -0.2732 H   0  0  0  0  0  0  0  0  0  0  0  0
   -2.6509   -0.8925   -0.4492 H   0  0  0  0  0  0  0  0  0  0  0  0
   -1.3943   -0.2313   -1.5712 H   0  0  0  0  0  0  0  0  0  0  0  0
   -2.2894    2.1628    1.8135 H   0  0  0  0  0  0  0  0  0  0  0  0
   -2.3005    0.3040    2.0280 H   0  0  0  0  0  0  0  0  0  0  0  0
  1  6  2  0
  2  5  2  3
  2  6  1  0
  2  8  1  0
  3  4  2  3
  3  7  1  0
  3  9  1  0
  4 13  1  0
  4 14  1  0
  5 10  1  0
  5 11  1  0
  6 12  1  0
  7 15  1  0
  7 16  1  0
M  RAD  1   7   2
M  END
>  <reaction>  (17) 
rxn_1037

>  <mol_properties>  (17) 
{"1": {"label": "*0", "atom_type": "Cd"}, "2": {"label": "*1", "atom_type": "Cs"}, "6": {"label": "*2", "atom_type": "H0"}, "11": {"label": "*3", "atom_type": "CS"}, "12": {"label": "*4", "atom_type": "S2d"}}

>  <type>  (17) 
unop_13

>  <geom_source>  (17) 
AutoTST

$$$$
