
     RDKit          3D

 14 13  0  0  0  0  0  0  0  0999 V2000
   -0.7647   -1.2352   -0.0349 C   0  0  0  0  0  0  0  0  0  0  0  0
    0.0570   -0.0126    0.3624 C   0  0  0  0  0  0  0  0  0  0  0  0
    1.4161   -0.0194   -0.3308 C   0  0  0  0  0  0  0  0  0  0  0  0
   -0.7022    1.2765    0.0629 C   0  0  0  0  0  0  0  0  0  0  0  0
   -0.2387   -2.1618    0.2040 H   0  0  0  0  0  0  0  0  0  0  0  0
   -0.9625   -1.2316   -1.1108 H   0  0  0  0  0  0  0  0  0  0  0  0
   -1.7273   -1.2512    0.4806 H   0  0  0  0  0  0  0  0  0  0  0  0
    0.2295   -0.0590    1.4432 H   0  0  0  0  0  0  0  0  0  0  0  0
    1.2933    0.0260   -1.4168 H   0  0  0  0  0  0  0  0  0  0  0  0
    2.0206    0.8381   -0.0279 H   0  0  0  0  0  0  0  0  0  0  0  0
    1.9767   -0.9268   -0.0966 H   0  0  0  0  0  0  0  0  0  0  0  0
   -1.6639    1.3001    0.5798 H   0  0  0  0  0  0  0  0  0  0  0  0
   -0.8977    1.3664   -1.0096 H   0  0  0  0  0  0  0  0  0  0  0  0
   -0.1313    2.1545    0.3722 H   0  0  0  0  0  0  0  0  0  0  0  0
  1  2  1  0
  1  5  1  0
  1  6  1  0
  1  7  1  0
  2  3  1  0
  2  4  1  0
  2  8  1  0
  3  9  1  0
  3 10  1  0
  3 11  1  0
  4 12  1  0
  4 13  1  0
  4 14  1  0
M  END
>  <reaction>  (1) 
rxn_964

>  <mol_properties>  (1) 
{"1": {"label": "donator", "atom_type": "Cs"}, "7": {"label": "d_hydrogen", "atom_type": "H0"}}

>  <type>  (1) 
r1h

$$$$

     RDKit          3D

  8  7  0  0  0  0  0  0  0  0999 V2000
   -2.2129    0.4855    0.7390 C   0  0  0  0  0  0  0  0  0  0  0  0
   -1.2226    0.0526    0.1974 C   0  0  0  0  0  0  0  0  0  0  0  0
   -0.1006   -0.4575   -0.4419 C   0  0  0  0  0  3  0  0  0  0  0  0
    1.1960   -0.1737   -0.0342 C   0  0  0  0  0  0  0  0  0  0  0  0
    2.3329    0.0603    0.3036 C   0  0  0  0  0  0  0  0  0  0  0  0
   -3.0803    0.8696    1.2198 H   0  0  0  0  0  0  0  0  0  0  0  0
   -0.2433   -1.1067   -1.2980 H   0  0  0  0  0  0  0  0  0  0  0  0
    3.3308    0.2700    0.6058 H   0  0  0  0  0  0  0  0  0  0  0  0
  1  2  3  0
  1  6  1  0
  2  3  1  0
  3  4  1  0
  3  7  1  0
  4  5  3  0
  5  8  1  0
M  RAD  1   3   2
M  END
>  <reaction>  (2) 
rxn_964

>  <mol_properties>  (2) 
{"2": {"label": "acceptor", "atom_type": "Cs"}}

>  <type>  (2) 
r2

$$$$

     RDKit          3D

  9  8  0  0  0  0  0  0  0  0999 V2000
   -2.1022   -0.6873    0.3932 C   0  0  0  0  0  0  0  0  0  0  0  0
   -1.2072   -0.1086   -0.1482 C   0  0  0  0  0  0  0  0  0  0  0  0
   -0.1242    0.6105   -0.8193 C   0  0  0  0  0  0  0  0  0  0  0  0
    1.2067    0.1106   -0.4741 C   0  0  0  0  0  0  0  0  0  0  0  0
    2.3005   -0.2875   -0.2012 C   0  0  0  0  0  0  0  0  0  0  0  0
   -2.8942   -1.2059    0.8778 H   0  0  0  0  0  0  0  0  0  0  0  0
   -0.1862    1.6723   -0.5649 H   0  0  0  0  0  0  0  0  0  0  0  0
   -0.2641    0.5418   -1.9017 H   0  0  0  0  0  0  0  0  0  0  0  0
    3.2709   -0.6459    0.0455 H   0  0  0  0  0  0  0  0  0  0  0  0
  1  2  3  0
  1  6  1  0
  2  3  1  0
  3  4  1  0
  3  7  1  0
  3  8  1  0
  4  5  3  0
  5  9  1  0
M  END
>  <reaction>  (3) 
rxn_964

>  <mol_properties>  (3) 
{"2": {"label": "acceptor", "atom_type": "Cs"}, "8": {"label": "a_hydrogen", "atom_type": "H0"}}

>  <type>  (3) 
r2h

$$$$

     RDKit          3D

 22 20  0  0  0  0  0  0  0  0999 V2000
    1.6166   -1.8179   -1.6718 C   0  0  0  0  0  0  0  0  0  0  0  0
    1.4453   -1.0745   -0.7456 C   0  0  0  0  0  0  0  0  0  0  0  0
    1.1819   -0.1474    0.3198 C   0  0  0  0  0  0  0  0  0  0  0  0
    0.9144   -0.7053    1.6163 C   0  0  0  0  0  0  0  0  0  0  0  0
    0.6337   -1.1344    2.7012 C   0  0  0  0  0  0  0  0  0  0  0  0
    1.7887   -2.4883   -2.4789 H   0  0  0  0  0  0  0  0  0  0  0  0
    1.8963    0.6753    0.3517 H   0  0  0  0  0  0  0  0  0  0  0  0
    0.4083   -1.5283    3.6627 H   0  0  0  0  0  0  0  0  0  0  0  0
   -0.8535    1.6200   -1.7358 C   0  0  0  0  0  0  0  0  0  0  0  0
   -1.1447    1.0238   -0.3862 C   0  0  0  0  0  3  0  0  0  0  0  0
   -1.4063    2.0044    0.7236 C   0  0  0  0  0  0  0  0  0  0  0  0
   -2.0283   -0.1928   -0.3946 C   0  0  0  0  0  0  0  0  0  0  0  0
   -0.1062    2.4135   -1.6704 H   0  0  0  0  0  0  0  0  0  0  0  0
   -1.7620    2.0587   -2.1673 H   0  0  0  0  0  0  0  0  0  0  0  0
   -0.4906    0.8612   -2.4318 H   0  0  0  0  0  0  0  0  0  0  0  0
    0.0820    0.4613   -0.0226 H   0  0  0  0  0  0  0  0  0  0  0  0
   -2.3811    2.4893    0.5874 H   0  0  0  0  0  0  0  0  0  0  0  0
   -1.4182    1.5062    1.6950 H   0  0  0  0  0  0  0  0  0  0  0  0
   -0.6500    2.7916    0.7491 H   0  0  0  0  0  0  0  0  0  0  0  0
   -1.6757   -0.9313   -1.1172 H   0  0  0  0  0  0  0  0  0  0  0  0
   -3.0556    0.0788   -0.6680 H   0  0  0  0  0  0  0  0  0  0  0  0
   -2.0593   -0.6646    0.5894 H   0  0  0  0  0  0  0  0  0  0  0  0
  1  2  3  0
  1  6  1  0
  2  3  1  0
  3  4  1  0
  3  7  1  0
  3 16  1  0
  4  5  3  0
  5  8  1  0
  9 10  1  0
  9 13  1  0
  9 14  1  0
  9 15  1  0
 10 11  1  0
 10 12  1  0
 11 17  1  0
 11 18  1  0
 11 19  1  0
 12 20  1  0
 12 21  1  0
 12 22  1  0
M  RAD  1  10   2
M  END
>  <reaction>  (4) 
rxn_964

>  <mol_properties>  (4) 
{"1": {"label": "*0", "atom_type": "Ct"}, "2": {"label": "*1", "atom_type": "Cs"}, "8": {"label": "*4", "atom_type": "Cs"}, "9": {"label": "*3", "atom_type": "Cs"}, "15": {"label": "*2", "atom_type": "H0"}}

>  <type>  (4) 
ts

$$$$

     RDKit          3D

 22 20  0  0  0  0  0  0  0  0999 V2000
    2.1539    1.1252    1.8116 C   0  0  0  0  0  0  0  0  0  0  0  0
    1.5175    0.3562    1.1535 C   0  0  0  0  0  0  0  0  0  0  0  0
    0.7387   -0.5847    0.3482 C   0  0  0  0  0  0  0  0  0  0  0  0
    1.5294   -1.7037   -0.1647 C   0  0  0  0  0  0  0  0  0  0  0  0
    2.1754   -2.6181   -0.5838 C   0  0  0  0  0  0  0  0  0  0  0  0
    2.7200    1.8092    2.3969 H   0  0  0  0  0  0  0  0  0  0  0  0
   -0.0872   -0.9744    0.9498 H   0  0  0  0  0  0  0  0  0  0  0  0
    2.7502   -3.4316   -0.9566 H   0  0  0  0  0  0  0  0  0  0  0  0
   -1.4668    0.5911   -1.9860 C   0  0  0  0  0  0  0  0  0  0  0  0
   -1.4668    0.5911   -0.4602 C   0  0  0  0  0  3  0  0  0  0  0  0
   -1.4668    2.0157    0.0858 C   0  0  0  0  0  0  0  0  0  0  0  0
   -2.6496   -0.2030    0.0858 C   0  0  0  0  0  0  0  0  0  0  0  0
   -0.6061    1.1333   -2.3830 H   0  0  0  0  0  0  0  0  0  0  0  0
   -2.3707    1.0730   -2.3697 H   0  0  0  0  0  0  0  0  0  0  0  0
   -1.4373   -0.4258   -2.3830 H   0  0  0  0  0  0  0  0  0  0  0  0
   -0.3631    0.0027   -0.0557 H   0  0  0  0  0  0  0  0  0  0  0  0
   -2.3708    2.5465   -0.2268 H   0  0  0  0  0  0  0  0  0  0  0  0
   -1.4373    2.0225    1.1774 H   0  0  0  0  0  0  0  0  0  0  0  0
   -0.6061    2.5806   -0.2784 H   0  0  0  0  0  0  0  0  0  0  0  0
   -2.6389   -1.2324   -0.2786 H   0  0  0  0  0  0  0  0  0  0  0  0
   -3.5942    0.2518   -0.2267 H   0  0  0  0  0  0  0  0  0  0  0  0
   -2.6387   -0.2314    1.1774 H   0  0  0  0  0  0  0  0  0  0  0  0
  1  2  3  0
  1  6  1  0
  2  3  1  0
  3  4  1  0
  3  7  1  0
  3 16  1  0
  4  5  3  0
  5  8  1  0
  9 10  1  0
  9 13  1  0
  9 14  1  0
  9 15  1  0
 10 11  1  0
 10 12  1  0
 11 17  1  0
 11 18  1  0
 11 19  1  0
 12 20  1  0
 12 21  1  0
 12 22  1  0
M  RAD  1  10   2
M  END
>  <reaction>  (5) 
rxn_964

>  <mol_properties>  (5) 
{"1": {"label": "*0", "atom_type": "Ct"}, "2": {"label": "*1", "atom_type": "Cs"}, "8": {"label": "*4", "atom_type": "Cs"}, "9": {"label": "*3", "atom_type": "Cs"}, "15": {"label": "*2", "atom_type": "H0"}}

>  <type>  (5) 
unop_1

>  <geom_source>  (5) 
Heuristics

$$$$

     RDKit          3D

 22 20  0  0  0  0  0  0  0  0999 V2000
    2.7985    0.0938   -1.2374 C   0  0  0  0  0  0  0  0  0  0  0  0
    1.9376   -0.0870   -0.4278 C   0  0  0  0  0  0  0  0  0  0  0  0
    0.8841   -0.3084    0.5629 C   0  0  0  0  0  0  0  0  0  0  0  0
    0.8899   -1.6588    1.1255 C   0  0  0  0  0  0  0  0  0  0  0  0
    0.8946   -2.7624    1.5852 C   0  0  0  0  0  0  0  0  0  0  0  0
    3.5643    0.2547   -1.9575 H   0  0  0  0  0  0  0  0  0  0  0  0
    0.9940    0.4185    1.3725 H   0  0  0  0  0  0  0  0  0  0  0  0
    0.8987   -3.7441    1.9942 H   0  0  0  0  0  0  0  0  0  0  0  0
   -1.3213    0.8674   -1.7713 C   0  0  0  0  0  0  0  0  0  0  0  0
   -1.3213    0.8674   -0.2456 C   0  0  0  0  0  3  0  0  0  0  0  0
   -1.3213    2.2920    0.3005 C   0  0  0  0  0  0  0  0  0  0  0  0
   -2.5042    0.0733    0.3005 C   0  0  0  0  0  0  0  0  0  0  0  0
   -0.4606    1.4097   -2.1684 H   0  0  0  0  0  0  0  0  0  0  0  0
   -2.2253    1.3494   -2.1551 H   0  0  0  0  0  0  0  0  0  0  0  0
   -1.2919   -0.1495   -2.1684 H   0  0  0  0  0  0  0  0  0  0  0  0
   -0.2177    0.2790    0.1590 H   0  0  0  0  0  0  0  0  0  0  0  0
   -2.2253    2.8229   -0.0122 H   0  0  0  0  0  0  0  0  0  0  0  0
   -1.2918    2.2988    1.3921 H   0  0  0  0  0  0  0  0  0  0  0  0
   -0.4607    2.8569   -0.0638 H   0  0  0  0  0  0  0  0  0  0  0  0
   -2.4935   -0.9560   -0.0639 H   0  0  0  0  0  0  0  0  0  0  0  0
   -3.4488    0.5281   -0.0120 H   0  0  0  0  0  0  0  0  0  0  0  0
   -2.4933    0.0449    1.3921 H   0  0  0  0  0  0  0  0  0  0  0  0
  1  2  3  0
  1  6  1  0
  2  3  1  0
  3  4  1  0
  3  7  1  0
  3 16  1  0
  4  5  3  0
  5  8  1  0
  9 10  1  0
  9 13  1  0
  9 14  1  0
  9 15  1  0
 10 11  1  0
 10 12  1  0
 11 17  1  0
 11 18  1  0
 11 19  1  0
 12 20  1  0
 12 21  1  0
 12 22  1  0
M  RAD  1  10   2
M  END
>  <reaction>  (6) 
rxn_964

>  <mol_properties>  (6) 
{"1": {"label": "*0", "atom_type": "Ct"}, "2": {"label": "*1", "atom_type": "Cs"}, "8": {"label": "*4", "atom_type": "Cs"}, "9": {"label": "*3", "atom_type": "Cs"}, "15": {"label": "*2", "atom_type": "H0"}}

>  <type>  (6) 
unop_2

>  <geom_source>  (6) 
Heuristics

$$$$

     RDKit          3D

 22 20  0  0  0  0  0  0  0  0999 V2000
    1.4823    0.3653    2.6346 C   0  0  0  0  0  0  0  0  0  0  0  0
    1.1526   -0.0988    1.5833 C   0  0  0  0  0  0  0  0  0  0  0  0
    0.7492   -0.6666    0.2968 C   0  0  0  0  0  0  0  0  0  0  0  0
    1.8763   -1.1274   -0.5142 C   0  0  0  0  0  0  0  0  0  0  0  0
    2.7973   -1.5038   -1.1769 C   0  0  0  0  0  0  0  0  0  0  0  0
    1.7756    0.7781    3.5698 H   0  0  0  0  0  0  0  0  0  0  0  0
    0.0668   -1.5031    0.4716 H   0  0  0  0  0  0  0  0  0  0  0  0
    3.6166   -1.8387   -1.7665 H   0  0  0  0  0  0  0  0  0  0  0  0
   -1.4563    0.5091   -2.0374 C   0  0  0  0  0  0  0  0  0  0  0  0
   -1.4563    0.5091   -0.5117 C   0  0  0  0  0  3  0  0  0  0  0  0
   -1.4563    1.9338    0.0344 C   0  0  0  0  0  0  0  0  0  0  0  0
   -2.6391   -0.2850    0.0344 C   0  0  0  0  0  0  0  0  0  0  0  0
   -0.5956    1.0514   -2.4345 H   0  0  0  0  0  0  0  0  0  0  0  0
   -2.3603    0.9911   -2.4212 H   0  0  0  0  0  0  0  0  0  0  0  0
   -1.4269   -0.5077   -2.4344 H   0  0  0  0  0  0  0  0  0  0  0  0
   -0.3526   -0.0793   -0.1071 H   0  0  0  0  0  0  0  0  0  0  0  0
   -2.3603    2.4646   -0.2783 H   0  0  0  0  0  0  0  0  0  0  0  0
   -1.4268    1.9406    1.1260 H   0  0  0  0  0  0  0  0  0  0  0  0
   -0.5956    2.4986   -0.3299 H   0  0  0  0  0  0  0  0  0  0  0  0
   -2.6284   -1.3143   -0.3300 H   0  0  0  0  0  0  0  0  0  0  0  0
   -3.5837    0.1698   -0.2781 H   0  0  0  0  0  0  0  0  0  0  0  0
   -2.6282   -0.3134    1.1260 H   0  0  0  0  0  0  0  0  0  0  0  0
  1  2  3  0
  1  6  1  0
  2  3  1  0
  3  4  1  0
  3  7  1  0
  3 16  1  0
  4  5  3  0
  5  8  1  0
  9 10  1  0
  9 13  1  0
  9 14  1  0
  9 15  1  0
 10 11  1  0
 10 12  1  0
 11 17  1  0
 11 18  1  0
 11 19  1  0
 12 20  1  0
 12 21  1  0
 12 22  1  0
M  RAD  1  10   2
M  END
>  <reaction>  (7) 
rxn_964

>  <mol_properties>  (7) 
{"1": {"label": "*0", "atom_type": "Ct"}, "2": {"label": "*1", "atom_type": "Cs"}, "8": {"label": "*4", "atom_type": "Cs"}, "9": {"label": "*3", "atom_type": "Cs"}, "15": {"label": "*2", "atom_type": "H0"}}

>  <type>  (7) 
unop_3

>  <geom_source>  (7) 
Heuristics

$$$$

     RDKit          3D

 22 20  0  0  0  0  0  0  0  0999 V2000
    1.4285   -2.7603   -0.7262 C   0  0  0  0  0  0  0  0  0  0  0  0
    1.4055   -1.6399   -0.3099 C   0  0  0  0  0  0  0  0  0  0  0  0
    1.3774   -0.2687    0.1996 C   0  0  0  0  0  0  0  0  0  0  0  0
    0.7408   -0.1491    1.5114 C   0  0  0  0  0  0  0  0  0  0  0  0
    0.2205   -0.0514    2.5833 C   0  0  0  0  0  0  0  0  0  0  0  0
    1.4490   -3.7570   -1.0965 H   0  0  0  0  0  0  0  0  0  0  0  0
    2.4004    0.1128    0.2607 H   0  0  0  0  0  0  0  0  0  0  0  0
   -0.2423    0.0356    3.5368 H   0  0  0  0  0  0  0  0  0  0  0  0
   -0.8281    0.9070   -2.1346 C   0  0  0  0  0  0  0  0  0  0  0  0
   -0.8281    0.9070   -0.6089 C   0  0  0  0  0  3  0  0  0  0  0  0
   -0.8281    2.3317   -0.0628 C   0  0  0  0  0  0  0  0  0  0  0  0
   -2.0109    0.1130   -0.0628 C   0  0  0  0  0  0  0  0  0  0  0  0
    0.0326    1.4493   -2.5317 H   0  0  0  0  0  0  0  0  0  0  0  0
   -1.7320    1.3890   -2.5184 H   0  0  0  0  0  0  0  0  0  0  0  0
   -0.7986   -0.1098   -2.5316 H   0  0  0  0  0  0  0  0  0  0  0  0
    0.2756    0.3186   -0.2043 H   0  0  0  0  0  0  0  0  0  0  0  0
   -1.7321    2.8625   -0.3755 H   0  0  0  0  0  0  0  0  0  0  0  0
   -0.7986    2.3385    1.0288 H   0  0  0  0  0  0  0  0  0  0  0  0
    0.0326    2.8965   -0.4271 H   0  0  0  0  0  0  0  0  0  0  0  0
   -2.0002   -0.9164   -0.4272 H   0  0  0  0  0  0  0  0  0  0  0  0
   -2.9555    0.5677   -0.3753 H   0  0  0  0  0  0  0  0  0  0  0  0
   -2.0000    0.0845    1.0288 H   0  0  0  0  0  0  0  0  0  0  0  0
  1  2  3  0
  1  6  1  0
  2  3  1  0
  3  4  1  0
  3  7  1  0
  3 16  1  0
  4  5  3  0
  5  8  1  0
  9 10  1  0
  9 13  1  0
  9 14  1  0
  9 15  1  0
 10 11  1  0
 10 12  1  0
 11 17  1  0
 11 18  1  0
 11 19  1  0
 12 20  1  0
 12 21  1  0
 12 22  1  0
M  RAD  1  10   2
M  END
>  <reaction>  (8) 
rxn_964

>  <mol_properties>  (8) 
{"1": {"label": "*0", "atom_type": "Ct"}, "2": {"label": "*1", "atom_type": "Cs"}, "8": {"label": "*4", "atom_type": "Cs"}, "9": {"label": "*3", "atom_type": "Cs"}, "15": {"label": "*2", "atom_type": "H0"}}

>  <type>  (8) 
unop_4

>  <geom_source>  (8) 
Heuristics

$$$$

     RDKit          3D

 22 20  0  0  0  0  0  0  0  0999 V2000
    0.9003   -0.8589    2.8419 C   0  0  0  0  0  0  0  0  0  0  0  0
    0.8773   -0.8466    1.6467 C   0  0  0  0  0  0  0  0  0  0  0  0
    0.8492   -0.8316    0.1840 C   0  0  0  0  0  0  0  0  0  0  0  0
    2.0009   -0.1549   -0.4125 C   0  0  0  0  0  0  0  0  0  0  0  0
    2.9421    0.3981   -0.9000 C   0  0  0  0  0  0  0  0  0  0  0  0
    0.9208   -0.8698    3.9051 H   0  0  0  0  0  0  0  0  0  0  0  0
    0.8061   -1.8601   -0.1850 H   0  0  0  0  0  0  0  0  0  0  0  0
    3.7794    0.8900   -1.3336 H   0  0  0  0  0  0  0  0  0  0  0  0
   -1.3563    0.3442   -2.1502 C   0  0  0  0  0  0  0  0  0  0  0  0
   -1.3563    0.3442   -0.6245 C   0  0  0  0  0  3  0  0  0  0  0  0
   -1.3563    1.7688   -0.0784 C   0  0  0  0  0  0  0  0  0  0  0  0
   -2.5391   -0.4499   -0.0784 C   0  0  0  0  0  0  0  0  0  0  0  0
   -0.4956    0.8864   -2.5472 H   0  0  0  0  0  0  0  0  0  0  0  0
   -2.2603    0.8261   -2.5340 H   0  0  0  0  0  0  0  0  0  0  0  0
   -1.3269   -0.6727   -2.5472 H   0  0  0  0  0  0  0  0  0  0  0  0
   -0.2526   -0.2442   -0.2199 H   0  0  0  0  0  0  0  0  0  0  0  0
   -2.2603    2.2997   -0.3910 H   0  0  0  0  0  0  0  0  0  0  0  0
   -1.3268    1.7756    1.0132 H   0  0  0  0  0  0  0  0  0  0  0  0
   -0.4956    2.3337   -0.4427 H   0  0  0  0  0  0  0  0  0  0  0  0
   -2.5285   -1.4793   -0.4428 H   0  0  0  0  0  0  0  0  0  0  0  0
   -3.4837    0.0049   -0.3909 H   0  0  0  0  0  0  0  0  0  0  0  0
   -2.5282   -0.4783    1.0132 H   0  0  0  0  0  0  0  0  0  0  0  0
  1  2  3  0
  1  6  1  0
  2  3  1  0
  3  4  1  0
  3  7  1  0
  3 16  1  0
  4  5  3  0
  5  8  1  0
  9 10  1  0
  9 13  1  0
  9 14  1  0
  9 15  1  0
 10 11  1  0
 10 12  1  0
 11 17  1  0
 11 18  1  0
 11 19  1  0
 12 20  1  0
 12 21  1  0
 12 22  1  0
M  RAD  1  10   2
M  END
>  <reaction>  (9) 
rxn_964

>  <mol_properties>  (9) 
{"1": {"label": "*0", "atom_type": "Ct"}, "2": {"label": "*1", "atom_type": "Cs"}, "8": {"label": "*4", "atom_type": "Cs"}, "9": {"label": "*3", "atom_type": "Cs"}, "15": {"label": "*2", "atom_type": "H0"}}

>  <type>  (9) 
unop_5

>  <geom_source>  (9) 
Heuristics

$$$$

     RDKit          3D

 22 20  0  0  0  0  0  0  0  0999 V2000
    0.9456   -3.0542    0.3178 C   0  0  0  0  0  0  0  0  0  0  0  0
    1.1471   -1.8820    0.1970 C   0  0  0  0  0  0  0  0  0  0  0  0
    1.3937   -0.4475    0.0491 C   0  0  0  0  0  0  0  0  0  0  0  0
    0.9763    0.3368    1.2114 C   0  0  0  0  0  0  0  0  0  0  0  0
    0.6351    0.9777    2.1611 C   0  0  0  0  0  0  0  0  0  0  0  0
    0.7663   -4.0969    0.4253 H   0  0  0  0  0  0  0  0  0  0  0  0
    2.4597   -0.2831   -0.1312 H   0  0  0  0  0  0  0  0  0  0  0  0
    0.3317    1.5479    3.0060 H   0  0  0  0  0  0  0  0  0  0  0  0
   -0.8117    0.7282   -2.2851 C   0  0  0  0  0  0  0  0  0  0  0  0
   -0.8117    0.7282   -0.7594 C   0  0  0  0  0  3  0  0  0  0  0  0
   -0.8117    2.1529   -0.2133 C   0  0  0  0  0  0  0  0  0  0  0  0
   -1.9946   -0.0658   -0.2134 C   0  0  0  0  0  0  0  0  0  0  0  0
    0.0490    1.2705   -2.6822 H   0  0  0  0  0  0  0  0  0  0  0  0
   -1.7157    1.2102   -2.6689 H   0  0  0  0  0  0  0  0  0  0  0  0
   -0.7823   -0.2886   -2.6822 H   0  0  0  0  0  0  0  0  0  0  0  0
    0.2919    0.1398   -0.3548 H   0  0  0  0  0  0  0  0  0  0  0  0
   -1.7157    2.6837   -0.5260 H   0  0  0  0  0  0  0  0  0  0  0  0
   -0.7822    2.1597    0.8783 H   0  0  0  0  0  0  0  0  0  0  0  0
    0.0489    2.7177   -0.5776 H   0  0  0  0  0  0  0  0  0  0  0  0
   -1.9839   -1.0952   -0.5777 H   0  0  0  0  0  0  0  0  0  0  0  0
   -2.9392    0.3889   -0.5258 H   0  0  0  0  0  0  0  0  0  0  0  0
   -1.9837   -0.0943    0.8782 H   0  0  0  0  0  0  0  0  0  0  0  0
  1  2  3  0
  1  6  1  0
  2  3  1  0
  3  4  1  0
  3  7  1  0
  3 16  1  0
  4  5  3  0
  5  8  1  0
  9 10  1  0
  9 13  1  0
  9 14  1  0
  9 15  1  0
 10 11  1  0
 10 12  1  0
 11 17  1  0
 11 18  1  0
 11 19  1  0
 12 20  1  0
 12 21  1  0
 12 22  1  0
M  RAD  1  10   2
M  END
>  <reaction>  (10) 
rxn_964

>  <mol_properties>  (10) 
{"1": {"label": "*0", "atom_type": "Ct"}, "2": {"label": "*1", "atom_type": "Cs"}, "8": {"label": "*4", "atom_type": "Cs"}, "9": {"label": "*3", "atom_type": "Cs"}, "15": {"label": "*2", "atom_type": "H0"}}

>  <type>  (10) 
unop_6

>  <geom_source>  (10) 
Heuristics

$$$$

     RDKit          3D

 22 20  0  0  0  0  0  0  0  0999 V2000
    0.6738   -2.7925    1.4388 C   0  0  0  0  0  0  0  0  0  0  0  0
    0.9575   -1.8356    0.7808 C   0  0  0  0  0  0  0  0  0  0  0  0
    1.3047   -0.6645   -0.0245 C   0  0  0  0  0  0  0  0  0  0  0  0
    1.2864    0.5874    0.7323 C   0  0  0  0  0  0  0  0  0  0  0  0
    1.2714    1.6104    1.3508 C   0  0  0  0  0  0  0  0  0  0  0  0
    0.4214   -3.6438    2.0242 H   0  0  0  0  0  0  0  0  0  0  0  0
    2.2986   -0.8081   -0.4573 H   0  0  0  0  0  0  0  0  0  0  0  0
    1.2581    2.5204    1.9009 H   0  0  0  0  0  0  0  0  0  0  0  0
   -0.9008    0.5113   -2.3587 C   0  0  0  0  0  0  0  0  0  0  0  0
   -0.9008    0.5113   -0.8330 C   0  0  0  0  0  3  0  0  0  0  0  0
   -0.9008    1.9359   -0.2869 C   0  0  0  0  0  0  0  0  0  0  0  0
   -2.0836   -0.2828   -0.2869 C   0  0  0  0  0  0  0  0  0  0  0  0
   -0.0401    1.0535   -2.7557 H   0  0  0  0  0  0  0  0  0  0  0  0
   -1.8048    0.9932   -2.7425 H   0  0  0  0  0  0  0  0  0  0  0  0
   -0.8714   -0.5056   -2.7557 H   0  0  0  0  0  0  0  0  0  0  0  0
    0.2029   -0.0771   -0.4284 H   0  0  0  0  0  0  0  0  0  0  0  0
   -1.8048    2.4667   -0.5995 H   0  0  0  0  0  0  0  0  0  0  0  0
   -0.8713    1.9427    0.8047 H   0  0  0  0  0  0  0  0  0  0  0  0
   -0.0401    2.5008   -0.6512 H   0  0  0  0  0  0  0  0  0  0  0  0
   -2.0730   -1.3122   -0.6513 H   0  0  0  0  0  0  0  0  0  0  0  0
   -3.0282    0.1720   -0.5994 H   0  0  0  0  0  0  0  0  0  0  0  0
   -2.0727   -0.3112    0.8047 H   0  0  0  0  0  0  0  0  0  0  0  0
  1  2  3  0
  1  6  1  0
  2  3  1  0
  3  4  1  0
  3  7  1  0
  3 16  1  0
  4  5  3  0
  5  8  1  0
  9 10  1  0
  9 13  1  0
  9 14  1  0
  9 15  1  0
 10 11  1  0
 10 12  1  0
 11 17  1  0
 11 18  1  0
 11 19  1  0
 12 20  1  0
 12 21  1  0
 12 22  1  0
M  RAD  1  10   2
M  END
>  <reaction>  (11) 
rxn_964

>  <mol_properties>  (11) 
{"1": {"label": "*0", "atom_type": "Ct"}, "2": {"label": "*1", "atom_type": "Cs"}, "8": {"label": "*4", "atom_type": "Cs"}, "9": {"label": "*3", "atom_type": "Cs"}, "15": {"label": "*2", "atom_type": "H0"}}

>  <type>  (11) 
unop_7

>  <geom_source>  (11) 
Heuristics

$$$$

     RDKit          3D

 22 20  0  0  0  0  0  0  0  0999 V2000
    2.6534    1.2918    0.6909 C   0  0  0  0  0  0  0  0  0  0  0  0
    1.7925    0.4711    0.5701 C   0  0  0  0  0  0  0  0  0  0  0  0
    0.7390   -0.5331    0.4222 C   0  0  0  0  0  0  0  0  0  0  0  0
    1.2499   -1.8997    0.3134 C   0  0  0  0  0  0  0  0  0  0  0  0
    1.6674   -3.0164    0.2246 C   0  0  0  0  0  0  0  0  0  0  0  0
    3.4192    2.0218    0.7985 H   0  0  0  0  0  0  0  0  0  0  0  0
    0.0603   -0.4704    1.2774 H   0  0  0  0  0  0  0  0  0  0  0  0
    2.0388   -4.0098    0.1455 H   0  0  0  0  0  0  0  0  0  0  0  0
   -1.4665    0.6426   -1.9120 C   0  0  0  0  0  0  0  0  0  0  0  0
   -1.4665    0.6426   -0.3863 C   0  0  0  0  0  3  0  0  0  0  0  0
   -1.4665    2.0673    0.1598 C   0  0  0  0  0  0  0  0  0  0  0  0
   -2.6493   -0.1514    0.1598 C   0  0  0  0  0  0  0  0  0  0  0  0
   -0.6058    1.1849   -2.3091 H   0  0  0  0  0  0  0  0  0  0  0  0
   -2.3705    1.1246   -2.2958 H   0  0  0  0  0  0  0  0  0  0  0  0
   -1.4371   -0.3742   -2.3091 H   0  0  0  0  0  0  0  0  0  0  0  0
   -0.3628    0.0542    0.0183 H   0  0  0  0  0  0  0  0  0  0  0  0
   -2.3705    2.5981   -0.1529 H   0  0  0  0  0  0  0  0  0  0  0  0
   -1.4370    2.0741    1.2514 H   0  0  0  0  0  0  0  0  0  0  0  0
   -0.6058    2.6321   -0.2045 H   0  0  0  0  0  0  0  0  0  0  0  0
   -2.6386   -1.1808   -0.2046 H   0  0  0  0  0  0  0  0  0  0  0  0
   -3.5939    0.3033   -0.1527 H   0  0  0  0  0  0  0  0  0  0  0  0
   -2.6384   -0.1799    1.2513 H   0  0  0  0  0  0  0  0  0  0  0  0
  1  2  3  0
  1  6  1  0
  2  3  1  0
  3  4  1  0
  3  7  1  0
  3 16  1  0
  4  5  3  0
  5  8  1  0
  9 10  1  0
  9 13  1  0
  9 14  1  0
  9 15  1  0
 10 11  1  0
 10 12  1  0
 11 17  1  0
 11 18  1  0
 11 19  1  0
 12 20  1  0
 12 21  1  0
 12 22  1  0
M  RAD  1  10   2
M  END
>  <reaction>  (12) 
rxn_964

>  <mol_properties>  (12) 
{"1": {"label": "*0", "atom_type": "Ct"}, "2": {"label": "*1", "atom_type": "Cs"}, "8": {"label": "*4", "atom_type": "Cs"}, "9": {"label": "*3", "atom_type": "Cs"}, "15": {"label": "*2", "atom_type": "H0"}}

>  <type>  (12) 
unop_8

>  <geom_source>  (12) 
Heuristics

$$$$

     RDKit          3D

 22 20  0  0  0  0  0  0  0  0999 V2000
    1.9924   -1.9856   -1.4226 C   0  0  0  0  0  0  0  0  0  0  0  0
    1.6627   -1.1700   -0.6131 C   0  0  0  0  0  0  0  0  0  0  0  0
    1.2593   -0.1720    0.3777 C   0  0  0  0  0  0  0  0  0  0  0  0
    0.6448   -0.7533    1.5713 C   0  0  0  0  0  0  0  0  0  0  0  0
    0.1427   -1.2284    2.5467 C   0  0  0  0  0  0  0  0  0  0  0  0
    2.2857   -2.7111   -2.1428 H   0  0  0  0  0  0  0  0  0  0  0  0
    2.1336    0.4146    0.6732 H   0  0  0  0  0  0  0  0  0  0  0  0
   -0.3040   -1.6510    3.4144 H   0  0  0  0  0  0  0  0  0  0  0  0
   -0.9462    1.0038   -1.9565 C   0  0  0  0  0  0  0  0  0  0  0  0
   -0.9462    1.0038   -0.4308 C   0  0  0  0  0  3  0  0  0  0  0  0
   -0.9462    2.4284    0.1152 C   0  0  0  0  0  0  0  0  0  0  0  0
   -2.1290    0.2097    0.1152 C   0  0  0  0  0  0  0  0  0  0  0  0
   -0.0855    1.5461   -2.3536 H   0  0  0  0  0  0  0  0  0  0  0  0
   -1.8502    1.4858   -2.3403 H   0  0  0  0  0  0  0  0  0  0  0  0
   -0.9168   -0.0131   -2.3536 H   0  0  0  0  0  0  0  0  0  0  0  0
    0.1575    0.4154   -0.0262 H   0  0  0  0  0  0  0  0  0  0  0  0
   -1.8502    2.9593   -0.1974 H   0  0  0  0  0  0  0  0  0  0  0  0
   -0.9167    2.4352    1.2068 H   0  0  0  0  0  0  0  0  0  0  0  0
   -0.0855    2.9933   -0.2490 H   0  0  0  0  0  0  0  0  0  0  0  0
   -2.1184   -0.8197   -0.2492 H   0  0  0  0  0  0  0  0  0  0  0  0
   -3.0736    0.6645   -0.1973 H   0  0  0  0  0  0  0  0  0  0  0  0
   -2.1181    0.1813    1.2068 H   0  0  0  0  0  0  0  0  0  0  0  0
  1  2  3  0
  1  6  1  0
  2  3  1  0
  3  4  1  0
  3  7  1  0
  3 16  1  0
  4  5  3  0
  5  8  1  0
  9 10  1  0
  9 13  1  0
  9 14  1  0
  9 15  1  0
 10 11  1  0
 10 12  1  0
 11 17  1  0
 11 18  1  0
 11 19  1  0
 12 20  1  0
 12 21  1  0
 12 22  1  0
M  RAD  1  10   2
M  END
>  <reaction>  (13) 
rxn_964

>  <mol_properties>  (13) 
{"1": {"label": "*0", "atom_type": "Ct"}, "2": {"label": "*1", "atom_type": "Cs"}, "8": {"label": "*4", "atom_type": "Cs"}, "9": {"label": "*3", "atom_type": "Cs"}, "15": {"label": "*2", "atom_type": "H0"}}

>  <type>  (13) 
unop_9

>  <geom_source>  (13) 
Heuristics

$$$$

     RDKit          3D

 22 20  0  0  0  0  0  0  0  0999 V2000
    2.8722    0.9032   -0.4142 C   0  0  0  0  0  0  0  0  0  0  0  0
    1.9292    0.2977    0.0021 C   0  0  0  0  0  0  0  0  0  0  0  0
    0.7751   -0.4431    0.5116 C   0  0  0  0  0  0  0  0  0  0  0  0
    1.0560   -1.8572    0.7605 C   0  0  0  0  0  0  0  0  0  0  0  0
    1.2856   -3.0127    0.9639 C   0  0  0  0  0  0  0  0  0  0  0  0
    3.7111    1.4417   -0.7845 H   0  0  0  0  0  0  0  0  0  0  0  0
    0.4297    0.0230    1.4386 H   0  0  0  0  0  0  0  0  0  0  0  0
    1.4898   -4.0406    1.1449 H   0  0  0  0  0  0  0  0  0  0  0  0
   -1.4304    0.7326   -1.8226 C   0  0  0  0  0  0  0  0  0  0  0  0
   -1.4304    0.7326   -0.2969 C   0  0  0  0  0  3  0  0  0  0  0  0
   -1.4304    2.1573    0.2492 C   0  0  0  0  0  0  0  0  0  0  0  0
   -2.6132   -0.0614    0.2492 C   0  0  0  0  0  0  0  0  0  0  0  0
   -0.5697    1.2749   -2.2197 H   0  0  0  0  0  0  0  0  0  0  0  0
   -2.3344    1.2146   -2.2064 H   0  0  0  0  0  0  0  0  0  0  0  0
   -1.4010   -0.2842   -2.2196 H   0  0  0  0  0  0  0  0  0  0  0  0
   -0.3267    0.1442    0.1077 H   0  0  0  0  0  0  0  0  0  0  0  0
   -2.3344    2.6881   -0.0635 H   0  0  0  0  0  0  0  0  0  0  0  0
   -1.4009    2.1641    1.3408 H   0  0  0  0  0  0  0  0  0  0  0  0
   -0.5697    2.7221   -0.1151 H   0  0  0  0  0  0  0  0  0  0  0  0
   -2.6025   -1.0908   -0.1152 H   0  0  0  0  0  0  0  0  0  0  0  0
   -3.5578    0.3933   -0.0633 H   0  0  0  0  0  0  0  0  0  0  0  0
   -2.6023   -0.0899    1.3408 H   0  0  0  0  0  0  0  0  0  0  0  0
  1  2  3  0
  1  6  1  0
  2  3  1  0
  3  4  1  0
  3  7  1  0
  3 16  1  0
  4  5  3  0
  5  8  1  0
  9 10  1  0
  9 13  1  0
  9 14  1  0
  9 15  1  0
 10 11  1  0
 10 12  1  0
 11 17  1  0
 11 18  1  0
 11 19  1  0
 12 20  1  0
 12 21  1  0
 12 22  1  0
M  RAD  1  10   2
M  END
>  <reaction>  (14) 
rxn_964

>  <mol_properties>  (14) 
{"1": {"label": "*0", "atom_type": "Ct"}, "2": {"label": "*1", "atom_type": "Cs"}, "8": {"label": "*4", "atom_type": "Cs"}, "9": {"label": "*3", "atom_type": "Cs"}, "15": {"label": "*2", "atom_type": "H0"}}

>  <type>  (14) 
unop_10

>  <geom_source>  (14) 
Heuristics

$$$$

     RDKit          3D

 22 20  0  0  0  0  0  0  0  0999 V2000
    0.6559   -2.0289    2.3590 C   0  0  0  0  0  0  0  0  0  0  0  0
    0.8574   -1.4965    1.3077 C   0  0  0  0  0  0  0  0  0  0  0  0
    1.1040   -0.8450    0.0212 C   0  0  0  0  0  0  0  0  0  0  0  0
    1.6618    0.5014    0.1491 C   0  0  0  0  0  0  0  0  0  0  0  0
    2.1175    1.6017    0.2536 C   0  0  0  0  0  0  0  0  0  0  0  0
    0.4767   -2.5025    3.2942 H   0  0  0  0  0  0  0  0  0  0  0  0
    1.7872   -1.4622   -0.5689 H   0  0  0  0  0  0  0  0  0  0  0  0
    2.5230    2.5805    0.3465 H   0  0  0  0  0  0  0  0  0  0  0  0
   -1.1014    0.3308   -2.3130 C   0  0  0  0  0  0  0  0  0  0  0  0
   -1.1014    0.3308   -0.7873 C   0  0  0  0  0  3  0  0  0  0  0  0
   -1.1014    1.7554   -0.2412 C   0  0  0  0  0  0  0  0  0  0  0  0
   -2.2843   -0.4633   -0.2412 C   0  0  0  0  0  0  0  0  0  0  0  0
   -0.2407    0.8730   -2.7101 H   0  0  0  0  0  0  0  0  0  0  0  0
   -2.0054    0.8127   -2.6968 H   0  0  0  0  0  0  0  0  0  0  0  0
   -1.0720   -0.6861   -2.7101 H   0  0  0  0  0  0  0  0  0  0  0  0
    0.0022   -0.2576   -0.3827 H   0  0  0  0  0  0  0  0  0  0  0  0
   -2.0054    2.2862   -0.5539 H   0  0  0  0  0  0  0  0  0  0  0  0
   -1.0719    1.7622    0.8504 H   0  0  0  0  0  0  0  0  0  0  0  0
   -0.2408    2.3203   -0.6055 H   0  0  0  0  0  0  0  0  0  0  0  0
   -2.2736   -1.4927   -0.6056 H   0  0  0  0  0  0  0  0  0  0  0  0
   -3.2289   -0.0085   -0.5537 H   0  0  0  0  0  0  0  0  0  0  0  0
   -2.2734   -0.4917    0.8504 H   0  0  0  0  0  0  0  0  0  0  0  0
  1  2  3  0
  1  6  1  0
  2  3  1  0
  3  4  1  0
  3  7  1  0
  3 16  1  0
  4  5  3  0
  5  8  1  0
  9 10  1  0
  9 13  1  0
  9 14  1  0
  9 15  1  0
 10 11  1  0
 10 12  1  0
 11 17  1  0
 11 18  1  0
 11 19  1  0
 12 20  1  0
 12 21  1  0
 12 22  1  0
M  RAD  1  10   2
M  END
>  <reaction>  (15) 
rxn_964

>  <mol_properties>  (15) 
{"1": {"label": "*0", "atom_type": "Ct"}, "2": {"label": "*1", "atom_type": "Cs"}, "8": {"label": "*4", "atom_type": "Cs"}, "9": {"label": "*3", "atom_type": "Cs"}, "15": {"label": "*2", "atom_type": "H0"}}

>  <type>  (15) 
unop_11

>  <geom_source>  (15) 
Heuristics

$$$$

     RDKit          3D

 22 20  0  0  0  0  0  0  0  0999 V2000
    2.4833   -0.9450   -1.6015 C   0  0  0  0  0  0  0  0  0  0  0  0
    1.8469   -0.6057   -0.6480 C   0  0  0  0  0  0  0  0  0  0  0  0
    1.0682   -0.1906    0.5188 C   0  0  0  0  0  0  0  0  0  0  0  0
    0.7233   -1.2974    1.4112 C   0  0  0  0  0  0  0  0  0  0  0  0
    0.4415   -2.2019    2.1403 C   0  0  0  0  0  0  0  0  0  0  0  0
    3.0494   -1.2468   -2.4497 H   0  0  0  0  0  0  0  0  0  0  0  0
    1.6329    0.5599    1.0791 H   0  0  0  0  0  0  0  0  0  0  0  0
    0.1908   -3.0066    2.7890 H   0  0  0  0  0  0  0  0  0  0  0  0
   -1.1373    0.9852   -1.8154 C   0  0  0  0  0  0  0  0  0  0  0  0
   -1.1373    0.9852   -0.2897 C   0  0  0  0  0  3  0  0  0  0  0  0
   -1.1373    2.4098    0.2564 C   0  0  0  0  0  0  0  0  0  0  0  0
   -2.3201    0.1911    0.2564 C   0  0  0  0  0  0  0  0  0  0  0  0
   -0.2766    1.5275   -2.2124 H   0  0  0  0  0  0  0  0  0  0  0  0
   -2.0413    1.4672   -2.1991 H   0  0  0  0  0  0  0  0  0  0  0  0
   -1.1079   -0.0317   -2.2124 H   0  0  0  0  0  0  0  0  0  0  0  0
   -0.0336    0.3968    0.1149 H   0  0  0  0  0  0  0  0  0  0  0  0
   -2.0413    2.9407   -0.0562 H   0  0  0  0  0  0  0  0  0  0  0  0
   -1.1078    2.4166    1.3480 H   0  0  0  0  0  0  0  0  0  0  0  0
   -0.2766    2.9747   -0.1078 H   0  0  0  0  0  0  0  0  0  0  0  0
   -2.3095   -0.8382   -0.1080 H   0  0  0  0  0  0  0  0  0  0  0  0
   -3.2647    0.6459   -0.0561 H   0  0  0  0  0  0  0  0  0  0  0  0
   -2.3092    0.1627    1.3480 H   0  0  0  0  0  0  0  0  0  0  0  0
  1  2  3  0
  1  6  1  0
  2  3  1  0
  3  4  1  0
  3  7  1  0
  3 16  1  0
  4  5  3  0
  5  8  1  0
  9 10  1  0
  9 13  1  0
  9 14  1  0
  9 15  1  0
 10 11  1  0
 10 12  1  0
 11 17  1  0
 11 18  1  0
 11 19  1  0
 12 20  1  0
 12 21  1  0
 12 22  1  0
M  RAD  1  10   2
M  END
>  <reaction>  (16) 
rxn_964

>  <mol_properties>  (16) 
{"1": {"label": "*0", "atom_type": "Ct"}, "2": {"label": "*1", "atom_type": "Cs"}, "8": {"label": "*4", "atom_type": "Cs"}, "9": {"label": "*3", "atom_type": "Cs"}, "15": {"label": "*2", "atom_type": "H0"}}

>  <type>  (16) 
unop_12

>  <geom_source>  (16) 
Heuristics

$$$$

     RDKit          3D

 22 20  0  0  0  0  0  0  0  0999 V2000
   -1.2037   -1.3276   -0.4908 C   0  0  0  0  0  0  0  0  0  0  0  0
   -1.7346    1.1305   -0.2448 C   0  0  0  0  0  0  0  0  0  0  0  0
   -1.4030   -0.3022    1.8100 C   0  0  0  0  0  0  0  0  0  0  0  0
    1.3905   -0.0761   -0.7090 C   0  0  0  0  0  3  0  0  0  0  0  0
   -0.9966   -0.0686    0.3536 C   0  0  0  0  0  0  0  0  0  0  0  0
    1.8200    1.2878   -1.0239 C   0  0  0  0  0  0  0  0  0  0  0  0
    2.4824   -0.7994   -0.0545 C   0  0  0  0  0  0  0  0  0  0  0  0
    2.1717    2.4114   -1.2837 C   0  0  0  0  0  0  0  0  0  0  0  0
    3.3802   -1.3967    0.4849 C   0  0  0  0  0  0  0  0  0  0  0  0
    1.1093   -0.6003   -1.6456 H   0  0  0  0  0  0  0  0  0  0  0  0
    0.3142   -0.0307    0.1243 H   0  0  0  0  0  0  0  0  0  0  0  0
   -0.8518   -1.1496   -1.5288 H   0  0  0  0  0  0  0  0  0  0  0  0
   -2.2780   -1.6110   -0.5151 H   0  0  0  0  0  0  0  0  0  0  0  0
   -0.6158   -2.1689   -0.0670 H   0  0  0  0  0  0  0  0  0  0  0  0
   -2.8309    0.9490   -0.2589 H   0  0  0  0  0  0  0  0  0  0  0  0
   -1.5252    2.0416    0.3544 H   0  0  0  0  0  0  0  0  0  0  0  0
   -1.3834    1.3121   -1.2824 H   0  0  0  0  0  0  0  0  0  0  0  0
   -2.4855   -0.5431    1.8811 H   0  0  0  0  0  0  0  0  0  0  0  0
   -0.8155   -1.1420    2.2372 H   0  0  0  0  0  0  0  0  0  0  0  0
   -1.1932    0.6068    2.4122 H   0  0  0  0  0  0  0  0  0  0  0  0
    2.4805    3.3976   -1.5118 H   0  0  0  0  0  0  0  0  0  0  0  0
    4.1684   -1.9208    0.9583 H   0  0  0  0  0  0  0  0  0  0  0  0
  1  5  1  0
  1 12  1  0
  1 13  1  0
  1 14  1  0
  2  5  1  0
  2 15  1  0
  2 16  1  0
  2 17  1  0
  3  5  1  0
  3 18  1  0
  3 19  1  0
  3 20  1  0
  4  6  1  0
  4  7  1  0
  4 10  1  0
  5 11  1  0
  6  8  3  0
  7  9  3  0
  8 21  1  0
  9 22  1  0
M  RAD  1   4   2
M  END
>  <reaction>  (17) 
rxn_964

>  <mol_properties>  (17) 
{"1": {"label": "*0", "atom_type": "Ct"}, "2": {"label": "*1", "atom_type": "Cs"}, "8": {"label": "*4", "atom_type": "Cs"}, "9": {"label": "*3", "atom_type": "Cs"}, "15": {"label": "*2", "atom_type": "H0"}}

>  <type>  (17) 
unop_13

>  <geom_source>  (17) 
AutoTST

$$$$
