
     RDKit          3D

  8  7  0  0  0  0  0  0  0  0999 V2000
    0.7610    0.0250    0.0051 C   0  0  0  0  0  0  0  0  0  0  0  0
   -0.7610   -0.0250   -0.0051 C   0  0  0  0  0  0  0  0  0  0  0  0
    1.1904   -0.9237   -0.3217 H   0  0  0  0  0  0  0  0  0  0  0  0
    1.1359    0.8041   -0.6609 H   0  0  0  0  0  0  0  0  0  0  0  0
    1.1435    0.2336    1.0058 H   0  0  0  0  0  0  0  0  0  0  0  0
   -1.1435   -0.2336   -1.0058 H   0  0  0  0  0  0  0  0  0  0  0  0
   -1.1904    0.9237    0.3216 H   0  0  0  0  0  0  0  0  0  0  0  0
   -1.1359   -0.8041    0.6609 H   0  0  0  0  0  0  0  0  0  0  0  0
  1  2  1  0
  1  3  1  0
  1  4  1  0
  1  5  1  0
  2  6  1  0
  2  7  1  0
  2  8  1  0
M  END
>  <reaction>  (1) 
rxn_897

>  <mol_properties>  (1) 
{"1": {"label": "donator", "atom_type": "Cs"}, "5": {"label": "d_hydrogen", "atom_type": "H0"}}

>  <type>  (1) 
r1h

$$$$

     RDKit          3D

 12 11  0  0  0  0  0  0  0  0999 V2000
   -0.9951    0.1196   -0.8321 C   0  0  0  0  0  0  0  0  0  0  0  0
   -0.3760    0.2571    0.5231 C   0  0  0  0  0  3  0  0  0  0  0  0
    0.9330   -0.1537    0.7810 C   0  0  0  0  0  0  0  0  0  0  0  0
    1.5987   -0.1880    1.9734 C   0  0  0  0  0  0  0  0  0  0  0  0
   -1.4483    0.9449    1.7152 S   0  0  0  0  0  0  0  0  0  0  0  0
   -1.9164   -0.4696   -0.7936 H   0  0  0  0  0  0  0  0  0  0  0  0
   -1.2565    1.0958   -1.2506 H   0  0  0  0  0  0  0  0  0  0  0  0
   -0.3088   -0.3780   -1.5170 H   0  0  0  0  0  0  0  0  0  0  0  0
    1.4783   -0.4898   -0.0971 H   0  0  0  0  0  0  0  0  0  0  0  0
    2.6278   -0.5153    2.0142 H   0  0  0  0  0  0  0  0  0  0  0  0
    1.1316    0.0690    2.9151 H   0  0  0  0  0  0  0  0  0  0  0  0
   -0.5306    1.3052    2.6211 H   0  0  0  0  0  0  0  0  0  0  0  0
  1  2  1  0
  1  6  1  0
  1  7  1  0
  1  8  1  0
  2  3  1  0
  2  5  1  0
  3  4  2  3
  3  9  1  0
  4 10  1  0
  4 11  1  0
  5 12  1  0
M  RAD  1   2   2
M  END
>  <reaction>  (2) 
rxn_897

>  <mol_properties>  (2) 
{"1": {"label": "acceptor", "atom_type": "Cs"}}

>  <type>  (2) 
r2

$$$$

     RDKit          3D

 13 12  0  0  0  0  0  0  0  0999 V2000
   -1.1828    0.8269   -0.1645 C   0  0  0  0  0  0  0  0  0  0  0  0
   -0.4827   -0.4584   -0.5736 C   0  0  1  0  0  0  0  0  0  0  0  0
   -0.9759   -1.7030    0.1030 C   0  0  0  0  0  0  0  0  0  0  0  0
   -2.0084   -1.7831    0.9287 C   0  0  0  0  0  0  0  0  0  0  0  0
   -0.4908   -0.7025   -2.3913 S   0  0  0  0  0  0  0  0  0  0  0  0
   -1.0941    0.9860    0.9125 H   0  0  0  0  0  0  0  0  0  0  0  0
   -0.7405    1.6784   -0.6793 H   0  0  0  0  0  0  0  0  0  0  0  0
   -2.2437    0.7943   -0.4195 H   0  0  0  0  0  0  0  0  0  0  0  0
    0.5870   -0.3637   -0.3637 H   0  0  0  0  0  0  0  0  0  0  0  0
   -0.4209   -2.6026   -0.1443 H   0  0  0  0  0  0  0  0  0  0  0  0
   -2.2982   -2.7315    1.3623 H   0  0  0  0  0  0  0  0  0  0  0  0
   -2.5999   -0.9190    1.2055 H   0  0  0  0  0  0  0  0  0  0  0  0
   -1.8040   -0.9489   -2.4971 H   0  0  0  0  0  0  0  0  0  0  0  0
  1  2  1  0
  1  6  1  0
  1  7  1  0
  1  8  1  0
  2  3  1  0
  2  5  1  0
  2  9  1  1
  3  4  2  3
  3 10  1  0
  4 11  1  0
  4 12  1  0
  5 13  1  0
M  END
>  <reaction>  (3) 
rxn_897

>  <mol_properties>  (3) 
{"1": {"label": "acceptor", "atom_type": "Cs"}, "12": {"label": "a_hydrogen", "atom_type": "H0"}}

>  <type>  (3) 
r2h

$$$$

     RDKit          3D

 20 18  0  0  0  0  0  0  0  0999 V2000
   -1.3550    1.2840   -0.2869 C   0  0  0  0  0  0  0  0  0  0  0  0
   -0.2140    0.4004    0.1596 C   0  0  1  0  0  0  0  0  0  0  0  0
    1.1528    0.9325    0.0191 C   0  0  0  0  0  0  0  0  0  0  0  0
    1.4880    2.0803   -0.5661 C   0  0  0  0  0  0  0  0  0  0  0  0
   -0.4869   -0.4420    1.7361 S   0  0  0  0  0  0  0  0  0  0  0  0
   -1.4179    2.1881    0.3253 H   0  0  0  0  0  0  0  0  0  0  0  0
   -1.2218    1.5877   -1.3280 H   0  0  0  0  0  0  0  0  0  0  0  0
   -2.3019    0.7522   -0.2033 H   0  0  0  0  0  0  0  0  0  0  0  0
    1.9358    0.2980    0.4229 H   0  0  0  0  0  0  0  0  0  0  0  0
    2.5252    2.3794   -0.6436 H   0  0  0  0  0  0  0  0  0  0  0  0
    0.7508    2.7595   -0.9761 H   0  0  0  0  0  0  0  0  0  0  0  0
   -0.2384    0.6052    2.5380 H   0  0  0  0  0  0  0  0  0  0  0  0
    1.1202   -2.2180   -1.5122 C   0  0  0  0  0  0  0  0  0  0  0  0
   -0.2939   -1.7207   -1.5172 C   0  0  0  0  0  3  0  0  0  0  0  0
    1.8109   -1.4459   -1.8569 H   0  0  0  0  0  0  0  0  0  0  0  0
    1.4265   -2.5241   -0.5099 H   0  0  0  0  0  0  0  0  0  0  0  0
    1.2417   -3.0843   -2.1712 H   0  0  0  0  0  0  0  0  0  0  0  0
   -0.2684   -0.6097   -0.6289 H   0  0  0  0  0  0  0  0  0  0  0  0
   -1.0360   -2.3694   -1.0583 H   0  0  0  0  0  0  0  0  0  0  0  0
   -0.6414   -1.2621   -2.4399 H   0  0  0  0  0  0  0  0  0  0  0  0
  1  2  1  0
  1  6  1  0
  1  7  1  0
  1  8  1  0
  2  3  1  0
  2  5  1  0
  2 18  1  6
  3  4  2  3
  3  9  1  0
  4 10  1  0
  4 11  1  0
  5 12  1  0
 13 14  1  0
 13 15  1  0
 13 16  1  0
 13 17  1  0
 14 19  1  0
 14 20  1  0
M  RAD  1  14   2
M  END
>  <reaction>  (4) 
rxn_897

>  <mol_properties>  (4) 
{"1": {"label": "*1", "atom_type": "Cs"}, "4": {"label": "*0", "atom_type": "S2s"}, "12": {"label": "*4", "atom_type": "Cs"}, "13": {"label": "*3", "atom_type": "Cs"}, "17": {"label": "*2", "atom_type": "H0"}}

>  <type>  (4) 
ts

$$$$

     RDKit          3D

 20 18  0  0  0  0  0  0  0  0999 V2000
   -1.5443    0.6444    1.0069 C   0  0  0  0  0  0  0  0  0  0  0  0
   -0.3000    0.4438    0.1579 C   0  0  0  0  0  3  0  0  0  0  0  0
    0.3577    1.7017   -0.3269 C   0  0  0  0  0  0  0  0  0  0  0  0
    0.0094    2.9374   -0.0014 C   0  0  0  0  0  0  0  0  0  0  0  0
    0.9424   -0.6176    0.9909 S   0  0  0  0  0  0  0  0  0  0  0  0
   -1.3100    1.1867    1.9248 H   0  0  0  0  0  0  0  0  0  0  0  0
   -2.2971    1.2127    0.4559 H   0  0  0  0  0  0  0  0  0  0  0  0
   -1.9706   -0.3180    1.2859 H   0  0  0  0  0  0  0  0  0  0  0  0
    1.2025    1.5439   -0.9901 H   0  0  0  0  0  0  0  0  0  0  0  0
    0.5526    3.7873   -0.3940 H   0  0  0  0  0  0  0  0  0  0  0  0
   -0.8212    3.1523    0.6597 H   0  0  0  0  0  0  0  0  0  0  0  0
    1.2804    0.2714    1.9353 H   0  0  0  0  0  0  0  0  0  0  0  0
   -0.3000   -2.0004   -2.3161 C   0  0  0  0  0  0  0  0  0  0  0  0
   -0.3000   -2.0004   -0.7933 C   0  0  0  0  0  0  0  0  0  0  0  0
   -1.1808   -1.4919   -2.7120 H   0  0  0  0  0  0  0  0  0  0  0  0
    0.5809   -1.4919   -2.7120 H   0  0  0  0  0  0  0  0  0  0  0  0
   -0.3000   -3.0175   -2.7120 H   0  0  0  0  0  0  0  0  0  0  0  0
   -0.3000   -0.7799   -0.3183 H   0  0  0  0  0  0  0  0  0  0  0  0
    0.5808   -2.5090   -0.3975 H   0  0  0  0  0  0  0  0  0  0  0  0
   -1.1808   -2.5090   -0.3975 H   0  0  0  0  0  0  0  0  0  0  0  0
  1  2  1  0
  1  6  1  0
  1  7  1  0
  1  8  1  0
  2  3  1  0
  2  5  1  0
  3  4  2  3
  3  9  1  0
  4 10  1  0
  4 11  1  0
  5 12  1  0
 13 14  1  0
 13 15  1  0
 13 16  1  0
 13 17  1  0
 14 18  1  0
 14 19  1  0
 14 20  1  0
M  RAD  1   2   2
M  END
>  <reaction>  (5) 
rxn_897

>  <mol_properties>  (5) 
{"1": {"label": "*1", "atom_type": "Cs"}, "4": {"label": "*0", "atom_type": "S2s"}, "12": {"label": "*4", "atom_type": "Cs"}, "13": {"label": "*3", "atom_type": "Cs"}, "17": {"label": "*2", "atom_type": "H0"}}

>  <type>  (5) 
unop_1

>  <geom_source>  (5) 
Heuristics

$$$$

     RDKit          3D

 20 18  0  0  0  0  0  0  0  0999 V2000
   -0.6495    1.2984   -0.9152 C   0  0  0  0  0  0  0  0  0  0  0  0
    0.0690    0.3860    0.0650 C   0  0  0  0  0  3  0  0  0  0  0  0
    1.3007    0.9632    0.6971 C   0  0  0  0  0  0  0  0  0  0  0  0
    1.7429    2.2030    0.5501 C   0  0  0  0  0  0  0  0  0  0  0  0
   -1.0528   -0.2473    1.3706 S   0  0  0  0  0  0  0  0  0  0  0  0
   -1.0097    2.2015   -0.4190 H   0  0  0  0  0  0  0  0  0  0  0  0
    0.0213    1.5964   -1.7242 H   0  0  0  0  0  0  0  0  0  0  0  0
   -1.5089    0.7876   -1.3466 H   0  0  0  0  0  0  0  0  0  0  0  0
    1.8435    0.2771    1.3397 H   0  0  0  0  0  0  0  0  0  0  0  0
    2.6399    2.5346    1.0570 H   0  0  0  0  0  0  0  0  0  0  0  0
    1.2382    2.9302   -0.0741 H   0  0  0  0  0  0  0  0  0  0  0  0
   -1.2100    0.9231    2.0046 H   0  0  0  0  0  0  0  0  0  0  0  0
    0.0690   -2.0583   -2.4091 C   0  0  0  0  0  0  0  0  0  0  0  0
    0.0690   -2.0583   -0.8863 C   0  0  0  0  0  0  0  0  0  0  0  0
   -0.8119   -1.5497   -2.8049 H   0  0  0  0  0  0  0  0  0  0  0  0
    0.9498   -1.5497   -2.8049 H   0  0  0  0  0  0  0  0  0  0  0  0
    0.0690   -3.0754   -2.8049 H   0  0  0  0  0  0  0  0  0  0  0  0
    0.0690   -0.8377   -0.4113 H   0  0  0  0  0  0  0  0  0  0  0  0
    0.9498   -2.5668   -0.4905 H   0  0  0  0  0  0  0  0  0  0  0  0
   -0.8119   -2.5668   -0.4905 H   0  0  0  0  0  0  0  0  0  0  0  0
  1  2  1  0
  1  6  1  0
  1  7  1  0
  1  8  1  0
  2  3  1  0
  2  5  1  0
  3  4  2  3
  3  9  1  0
  4 10  1  0
  4 11  1  0
  5 12  1  0
 13 14  1  0
 13 15  1  0
 13 16  1  0
 13 17  1  0
 14 18  1  0
 14 19  1  0
 14 20  1  0
M  RAD  1   2   2
M  END
>  <reaction>  (6) 
rxn_897

>  <mol_properties>  (6) 
{"1": {"label": "*1", "atom_type": "Cs"}, "4": {"label": "*0", "atom_type": "S2s"}, "12": {"label": "*4", "atom_type": "Cs"}, "13": {"label": "*3", "atom_type": "Cs"}, "17": {"label": "*2", "atom_type": "H0"}}

>  <type>  (6) 
unop_2

>  <geom_source>  (6) 
Heuristics

$$$$

     RDKit          3D

 20 18  0  0  0  0  0  0  0  0999 V2000
   -1.0279    0.3223    1.6877 C   0  0  0  0  0  0  0  0  0  0  0  0
   -0.3094    0.3124    0.3486 C   0  0  0  0  0  3  0  0  0  0  0  0
   -0.4200    1.5772   -0.4502 C   0  0  0  0  0  0  0  0  0  0  0  0
   -0.9920    2.7029   -0.0502 C   0  0  0  0  0  0  0  0  0  0  0  0
    1.4556   -0.1580    0.5136 S   0  0  0  0  0  0  0  0  0  0  0  0
   -0.6144    1.0856    2.3494 H   0  0  0  0  0  0  0  0  0  0  0  0
   -2.0919    0.5276    1.5506 H   0  0  0  0  0  0  0  0  0  0  0  0
   -0.9208   -0.6425    2.1810 H   0  0  0  0  0  0  0  0  0  0  0  0
    0.0366    1.5324   -1.4340 H   0  0  0  0  0  0  0  0  0  0  0  0
   -1.0141    3.5721   -0.6948 H   0  0  0  0  0  0  0  0  0  0  0  0
   -1.4577    2.8047    0.9224 H   0  0  0  0  0  0  0  0  0  0  0  0
    1.8460    0.9649    1.1326 H   0  0  0  0  0  0  0  0  0  0  0  0
   -0.3094   -2.1318   -2.1255 C   0  0  0  0  0  0  0  0  0  0  0  0
   -0.3094   -2.1318   -0.6027 C   0  0  0  0  0  0  0  0  0  0  0  0
   -1.1903   -1.6233   -2.5213 H   0  0  0  0  0  0  0  0  0  0  0  0
    0.5714   -1.6233   -2.5213 H   0  0  0  0  0  0  0  0  0  0  0  0
   -0.3095   -3.1489   -2.5213 H   0  0  0  0  0  0  0  0  0  0  0  0
   -0.3094   -0.9113   -0.1277 H   0  0  0  0  0  0  0  0  0  0  0  0
    0.5714   -2.6404   -0.2068 H   0  0  0  0  0  0  0  0  0  0  0  0
   -1.1903   -2.6404   -0.2068 H   0  0  0  0  0  0  0  0  0  0  0  0
  1  2  1  0
  1  6  1  0
  1  7  1  0
  1  8  1  0
  2  3  1  0
  2  5  1  0
  3  4  2  3
  3  9  1  0
  4 10  1  0
  4 11  1  0
  5 12  1  0
 13 14  1  0
 13 15  1  0
 13 16  1  0
 13 17  1  0
 14 18  1  0
 14 19  1  0
 14 20  1  0
M  RAD  1   2   2
M  END
>  <reaction>  (7) 
rxn_897

>  <mol_properties>  (7) 
{"1": {"label": "*1", "atom_type": "Cs"}, "4": {"label": "*0", "atom_type": "S2s"}, "12": {"label": "*4", "atom_type": "Cs"}, "13": {"label": "*3", "atom_type": "Cs"}, "17": {"label": "*2", "atom_type": "H0"}}

>  <type>  (7) 
unop_3

>  <geom_source>  (7) 
Heuristics

$$$$

     RDKit          3D

 20 18  0  0  0  0  0  0  0  0999 V2000
    1.3194    1.1031   -0.4209 C   0  0  0  0  0  0  0  0  0  0  0  0
    0.0750    0.3814    0.0691 C   0  0  0  0  0  3  0  0  0  0  0  0
    0.2268   -0.3528    1.3683 C   0  0  0  0  0  0  0  0  0  0  0  0
    1.2965   -0.3400    2.1493 C   0  0  0  0  0  0  0  0  0  0  0  0
   -1.3804    1.4940    0.1582 S   0  0  0  0  0  0  0  0  0  0  0  0
    1.6259    1.8791    0.2830 H   0  0  0  0  0  0  0  0  0  0  0  0
    2.1481    0.4014   -0.5394 H   0  0  0  0  0  0  0  0  0  0  0  0
    1.1266    1.5789   -1.3812 H   0  0  0  0  0  0  0  0  0  0  0  0
   -0.6466   -0.9220    1.6710 H   0  0  0  0  0  0  0  0  0  0  0  0
    1.3101   -0.8947    3.0786 H   0  0  0  0  0  0  0  0  0  0  0  0
    2.1925    0.2146    1.8989 H   0  0  0  0  0  0  0  0  0  0  0  0
   -0.9427    2.2197    1.1966 H   0  0  0  0  0  0  0  0  0  0  0  0
    0.0750   -2.0629   -2.4049 C   0  0  0  0  0  0  0  0  0  0  0  0
    0.0750   -2.0629   -0.8821 C   0  0  0  0  0  0  0  0  0  0  0  0
   -0.8058   -1.5543   -2.8008 H   0  0  0  0  0  0  0  0  0  0  0  0
    0.9559   -1.5543   -2.8008 H   0  0  0  0  0  0  0  0  0  0  0  0
    0.0750   -3.0800   -2.8008 H   0  0  0  0  0  0  0  0  0  0  0  0
    0.0750   -0.8423   -0.4071 H   0  0  0  0  0  0  0  0  0  0  0  0
    0.9559   -2.5714   -0.4863 H   0  0  0  0  0  0  0  0  0  0  0  0
   -0.8058   -2.5714   -0.4863 H   0  0  0  0  0  0  0  0  0  0  0  0
  1  2  1  0
  1  6  1  0
  1  7  1  0
  1  8  1  0
  2  3  1  0
  2  5  1  0
  3  4  2  3
  3  9  1  0
  4 10  1  0
  4 11  1  0
  5 12  1  0
 13 14  1  0
 13 15  1  0
 13 16  1  0
 13 17  1  0
 14 18  1  0
 14 19  1  0
 14 20  1  0
M  RAD  1   2   2
M  END
>  <reaction>  (8) 
rxn_897

>  <mol_properties>  (8) 
{"1": {"label": "*1", "atom_type": "Cs"}, "4": {"label": "*0", "atom_type": "S2s"}, "12": {"label": "*4", "atom_type": "Cs"}, "13": {"label": "*3", "atom_type": "Cs"}, "17": {"label": "*2", "atom_type": "H0"}}

>  <type>  (8) 
unop_4

>  <geom_source>  (8) 
Heuristics

$$$$

     RDKit          3D

 20 18  0  0  0  0  0  0  0  0999 V2000
   -0.0557    0.1221    2.0046 C   0  0  0  0  0  0  0  0  0  0  0  0
   -0.0557    0.1821    0.4861 C   0  0  0  0  0  3  0  0  0  0  0  0
   -1.2109    0.9151   -0.1288 C   0  0  0  0  0  0  0  0  0  0  0  0
   -2.1493    1.5801    0.5281 C   0  0  0  0  0  0  0  0  0  0  0  0
    1.5186    0.8466   -0.1802 S   0  0  0  0  0  0  0  0  0  0  0  0
    0.0100    1.1223    2.4369 H   0  0  0  0  0  0  0  0  0  0  0  0
   -0.9708   -0.3495    2.3698 H   0  0  0  0  0  0  0  0  0  0  0  0
    0.7977   -0.4533    2.3600 H   0  0  0  0  0  0  0  0  0  0  0  0
   -1.2371    0.8895   -1.2137 H   0  0  0  0  0  0  0  0  0  0  0  0
   -2.9419    2.0900   -0.0041 H   0  0  0  0  0  0  0  0  0  0  0  0
   -2.1687    1.6427    1.6092 H   0  0  0  0  0  0  0  0  0  0  0  0
    1.3311    2.1062    0.2380 H   0  0  0  0  0  0  0  0  0  0  0  0
   -0.0557   -2.2621   -1.9879 C   0  0  0  0  0  0  0  0  0  0  0  0
   -0.0557   -2.2621   -0.4652 C   0  0  0  0  0  0  0  0  0  0  0  0
   -0.9365   -1.7535   -2.3838 H   0  0  0  0  0  0  0  0  0  0  0  0
    0.8252   -1.7536   -2.3838 H   0  0  0  0  0  0  0  0  0  0  0  0
   -0.0557   -3.2792   -2.3838 H   0  0  0  0  0  0  0  0  0  0  0  0
   -0.0557   -1.0416    0.0099 H   0  0  0  0  0  0  0  0  0  0  0  0
    0.8252   -2.7707   -0.0693 H   0  0  0  0  0  0  0  0  0  0  0  0
   -0.9365   -2.7707   -0.0693 H   0  0  0  0  0  0  0  0  0  0  0  0
  1  2  1  0
  1  6  1  0
  1  7  1  0
  1  8  1  0
  2  3  1  0
  2  5  1  0
  3  4  2  3
  3  9  1  0
  4 10  1  0
  4 11  1  0
  5 12  1  0
 13 14  1  0
 13 15  1  0
 13 16  1  0
 13 17  1  0
 14 18  1  0
 14 19  1  0
 14 20  1  0
M  RAD  1   2   2
M  END
>  <reaction>  (9) 
rxn_897

>  <mol_properties>  (9) 
{"1": {"label": "*1", "atom_type": "Cs"}, "4": {"label": "*0", "atom_type": "S2s"}, "12": {"label": "*4", "atom_type": "Cs"}, "13": {"label": "*3", "atom_type": "Cs"}, "17": {"label": "*2", "atom_type": "H0"}}

>  <type>  (9) 
unop_5

>  <geom_source>  (9) 
Heuristics

$$$$

     RDKit          3D

 20 18  0  0  0  0  0  0  0  0999 V2000
    1.6213    0.8574    0.2787 C   0  0  0  0  0  0  0  0  0  0  0  0
    0.1844    0.3963    0.0992 C   0  0  0  0  0  3  0  0  0  0  0  0
   -0.3675   -0.4390    1.2162 C   0  0  0  0  0  0  0  0  0  0  0  0
    0.2449   -0.7148    2.3578 C   0  0  0  0  0  0  0  0  0  0  0  0
   -0.9532    1.7936   -0.2434 S   0  0  0  0  0  0  0  0  0  0  0  0
    1.7212    1.4977    1.1571 H   0  0  0  0  0  0  0  0  0  0  0  0
    2.2867    0.0000    0.4022 H   0  0  0  0  0  0  0  0  0  0  0  0
    1.9464    1.4275   -0.5902 H   0  0  0  0  0  0  0  0  0  0  0  0
   -1.3688   -0.8209    1.0434 H   0  0  0  0  0  0  0  0  0  0  0  0
   -0.2389   -1.3201    3.1134 H   0  0  0  0  0  0  0  0  0  0  0  0
    1.2413   -0.3556    2.5846 H   0  0  0  0  0  0  0  0  0  0  0  0
   -0.8901    2.3336    0.9817 H   0  0  0  0  0  0  0  0  0  0  0  0
    0.1844   -2.0479   -2.3749 C   0  0  0  0  0  0  0  0  0  0  0  0
    0.1844   -2.0479   -0.8521 C   0  0  0  0  0  0  0  0  0  0  0  0
   -0.6964   -1.5394   -2.7707 H   0  0  0  0  0  0  0  0  0  0  0  0
    1.0653   -1.5394   -2.7707 H   0  0  0  0  0  0  0  0  0  0  0  0
    0.1844   -3.0650   -2.7707 H   0  0  0  0  0  0  0  0  0  0  0  0
    0.1844   -0.8274   -0.3771 H   0  0  0  0  0  0  0  0  0  0  0  0
    1.0653   -2.5565   -0.4562 H   0  0  0  0  0  0  0  0  0  0  0  0
   -0.6964   -2.5565   -0.4562 H   0  0  0  0  0  0  0  0  0  0  0  0
  1  2  1  0
  1  6  1  0
  1  7  1  0
  1  8  1  0
  2  3  1  0
  2  5  1  0
  3  4  2  3
  3  9  1  0
  4 10  1  0
  4 11  1  0
  5 12  1  0
 13 14  1  0
 13 15  1  0
 13 16  1  0
 13 17  1  0
 14 18  1  0
 14 19  1  0
 14 20  1  0
M  RAD  1   2   2
M  END
>  <reaction>  (10) 
rxn_897

>  <mol_properties>  (10) 
{"1": {"label": "*1", "atom_type": "Cs"}, "4": {"label": "*0", "atom_type": "S2s"}, "12": {"label": "*4", "atom_type": "Cs"}, "13": {"label": "*3", "atom_type": "Cs"}, "17": {"label": "*2", "atom_type": "H0"}}

>  <type>  (10) 
unop_6

>  <geom_source>  (10) 
Heuristics

$$$$

     RDKit          3D

 20 18  0  0  0  0  0  0  0  0999 V2000
    1.5206    0.5516    1.0637 C   0  0  0  0  0  0  0  0  0  0  0  0
    0.2762    0.3510    0.2147 C   0  0  0  0  0  3  0  0  0  0  0  0
   -0.8744   -0.3170    0.9074 C   0  0  0  0  0  0  0  0  0  0  0  0
   -0.9266   -0.6455    2.1894 C   0  0  0  0  0  0  0  0  0  0  0  0
   -0.2944    1.9139   -0.5570 S   0  0  0  0  0  0  0  0  0  0  0  0
    1.3143    1.2035    1.9145 H   0  0  0  0  0  0  0  0  0  0  0  0
    1.8829   -0.4057    1.4454 H   0  0  0  0  0  0  0  0  0  0  0  0
    2.3110    1.0118    0.4728 H   0  0  0  0  0  0  0  0  0  0  0  0
   -1.7304   -0.5185    0.2709 H   0  0  0  0  0  0  0  0  0  0  0  0
   -1.8080   -1.1169    2.6047 H   0  0  0  0  0  0  0  0  0  0  0  0
   -0.1042   -0.4630    2.8703 H   0  0  0  0  0  0  0  0  0  0  0  0
   -0.7124    2.4903    0.5786 H   0  0  0  0  0  0  0  0  0  0  0  0
    0.2762   -2.0933   -2.2594 C   0  0  0  0  0  0  0  0  0  0  0  0
    0.2762   -2.0933   -0.7366 C   0  0  0  0  0  0  0  0  0  0  0  0
   -0.6046   -1.5847   -2.6552 H   0  0  0  0  0  0  0  0  0  0  0  0
    1.1571   -1.5847   -2.6552 H   0  0  0  0  0  0  0  0  0  0  0  0
    0.2762   -3.1104   -2.6552 H   0  0  0  0  0  0  0  0  0  0  0  0
    0.2762   -0.8727   -0.2616 H   0  0  0  0  0  0  0  0  0  0  0  0
    1.1571   -2.6018   -0.3407 H   0  0  0  0  0  0  0  0  0  0  0  0
   -0.6046   -2.6018   -0.3407 H   0  0  0  0  0  0  0  0  0  0  0  0
  1  2  1  0
  1  6  1  0
  1  7  1  0
  1  8  1  0
  2  3  1  0
  2  5  1  0
  3  4  2  3
  3  9  1  0
  4 10  1  0
  4 11  1  0
  5 12  1  0
 13 14  1  0
 13 15  1  0
 13 16  1  0
 13 17  1  0
 14 18  1  0
 14 19  1  0
 14 20  1  0
M  RAD  1   2   2
M  END
>  <reaction>  (11) 
rxn_897

>  <mol_properties>  (11) 
{"1": {"label": "*1", "atom_type": "Cs"}, "4": {"label": "*0", "atom_type": "S2s"}, "12": {"label": "*4", "atom_type": "Cs"}, "13": {"label": "*3", "atom_type": "Cs"}, "17": {"label": "*2", "atom_type": "H0"}}

>  <type>  (11) 
unop_7

>  <geom_source>  (11) 
Heuristics

$$$$

     RDKit          3D

 20 18  0  0  0  0  0  0  0  0999 V2000
   -1.5985    0.9505    0.2218 C   0  0  0  0  0  0  0  0  0  0  0  0
   -0.1617    0.4893    0.0423 C   0  0  0  0  0  3  0  0  0  0  0  0
    0.8622    1.5837   -0.0206 C   0  0  0  0  0  0  0  0  0  0  0  0
    0.6331    2.8753    0.1626 C   0  0  0  0  0  0  0  0  0  0  0  0
    0.3328   -0.7430    1.3076 S   0  0  0  0  0  0  0  0  0  0  0  0
   -1.7253    1.4809    1.1673 H   0  0  0  0  0  0  0  0  0  0  0  0
   -1.8901    1.6216   -0.5893 H   0  0  0  0  0  0  0  0  0  0  0  0
   -2.2723    0.0951    0.2245 H   0  0  0  0  0  0  0  0  0  0  0  0
    1.8742    1.2455   -0.2201 H   0  0  0  0  0  0  0  0  0  0  0  0
    1.4407    3.5939    0.1088 H   0  0  0  0  0  0  0  0  0  0  0  0
   -0.3553    3.2668    0.3696 H   0  0  0  0  0  0  0  0  0  0  0  0
    0.3464    0.1102    2.3412 H   0  0  0  0  0  0  0  0  0  0  0  0
   -0.1617   -1.9549   -2.4317 C   0  0  0  0  0  0  0  0  0  0  0  0
   -0.1617   -1.9549   -0.9089 C   0  0  0  0  0  0  0  0  0  0  0  0
   -1.0425   -1.4464   -2.8276 H   0  0  0  0  0  0  0  0  0  0  0  0
    0.7192   -1.4464   -2.8276 H   0  0  0  0  0  0  0  0  0  0  0  0
   -0.1617   -2.9720   -2.8276 H   0  0  0  0  0  0  0  0  0  0  0  0
   -0.1617   -0.7344   -0.4339 H   0  0  0  0  0  0  0  0  0  0  0  0
    0.7192   -2.4635   -0.5131 H   0  0  0  0  0  0  0  0  0  0  0  0
   -1.0425   -2.4635   -0.5131 H   0  0  0  0  0  0  0  0  0  0  0  0
  1  2  1  0
  1  6  1  0
  1  7  1  0
  1  8  1  0
  2  3  1  0
  2  5  1  0
  3  4  2  3
  3  9  1  0
  4 10  1  0
  4 11  1  0
  5 12  1  0
 13 14  1  0
 13 15  1  0
 13 16  1  0
 13 17  1  0
 14 18  1  0
 14 19  1  0
 14 20  1  0
M  RAD  1   2   2
M  END
>  <reaction>  (12) 
rxn_897

>  <mol_properties>  (12) 
{"1": {"label": "*1", "atom_type": "Cs"}, "4": {"label": "*0", "atom_type": "S2s"}, "12": {"label": "*4", "atom_type": "Cs"}, "13": {"label": "*3", "atom_type": "Cs"}, "17": {"label": "*2", "atom_type": "H0"}}

>  <type>  (12) 
unop_8

>  <geom_source>  (12) 
Heuristics

$$$$

     RDKit          3D

 20 18  0  0  0  0  0  0  0  0999 V2000
    0.7468    1.2522   -0.8869 C   0  0  0  0  0  0  0  0  0  0  0  0
    0.0283    0.3397    0.0932 C   0  0  0  0  0  3  0  0  0  0  0  0
    0.8151   -0.0422    1.3119 C   0  0  0  0  0  0  0  0  0  0  0  0
    2.0124    0.4184    1.6413 C   0  0  0  0  0  0  0  0  0  0  0  0
   -1.6006    1.0136    0.5996 S   0  0  0  0  0  0  0  0  0  0  0  0
    0.9921    2.2098   -0.4241 H   0  0  0  0  0  0  0  0  0  0  0  0
    1.6748    0.7903   -1.2313 H   0  0  0  0  0  0  0  0  0  0  0  0
    0.1151    1.4499   -1.7516 H   0  0  0  0  0  0  0  0  0  0  0  0
    0.3181   -0.7502    1.9677 H   0  0  0  0  0  0  0  0  0  0  0  0
    2.5003    0.0919    2.5506 H   0  0  0  0  0  0  0  0  0  0  0  0
    2.5510    1.1294    1.0269 H   0  0  0  0  0  0  0  0  0  0  0  0
   -1.1156    2.0283    1.3288 H   0  0  0  0  0  0  0  0  0  0  0  0
    0.0283   -2.1045   -2.3808 C   0  0  0  0  0  0  0  0  0  0  0  0
    0.0283   -2.1045   -0.8580 C   0  0  0  0  0  0  0  0  0  0  0  0
   -0.8525   -1.5959   -2.7767 H   0  0  0  0  0  0  0  0  0  0  0  0
    0.9092   -1.5959   -2.7767 H   0  0  0  0  0  0  0  0  0  0  0  0
    0.0283   -3.1216   -2.7767 H   0  0  0  0  0  0  0  0  0  0  0  0
    0.0283   -0.8840   -0.3830 H   0  0  0  0  0  0  0  0  0  0  0  0
    0.9092   -2.6131   -0.4622 H   0  0  0  0  0  0  0  0  0  0  0  0
   -0.8525   -2.6131   -0.4622 H   0  0  0  0  0  0  0  0  0  0  0  0
  1  2  1  0
  1  6  1  0
  1  7  1  0
  1  8  1  0
  2  3  1  0
  2  5  1  0
  3  4  2  3
  3  9  1  0
  4 10  1  0
  4 11  1  0
  5 12  1  0
 13 14  1  0
 13 15  1  0
 13 16  1  0
 13 17  1  0
 14 18  1  0
 14 19  1  0
 14 20  1  0
M  RAD  1   2   2
M  END
>  <reaction>  (13) 
rxn_897

>  <mol_properties>  (13) 
{"1": {"label": "*1", "atom_type": "Cs"}, "4": {"label": "*0", "atom_type": "S2s"}, "12": {"label": "*4", "atom_type": "Cs"}, "13": {"label": "*3", "atom_type": "Cs"}, "17": {"label": "*2", "atom_type": "H0"}}

>  <type>  (13) 
unop_9

>  <geom_source>  (13) 
Heuristics

$$$$

     RDKit          3D

 20 18  0  0  0  0  0  0  0  0999 V2000
   -1.2555    1.1809   -0.4685 C   0  0  0  0  0  0  0  0  0  0  0  0
   -0.0111    0.4592    0.0215 C   0  0  0  0  0  3  0  0  0  0  0  0
    1.1625    1.3397    0.3334 C   0  0  0  0  0  0  0  0  0  0  0  0
    1.1693    2.6641    0.3124 C   0  0  0  0  0  0  0  0  0  0  0  0
   -0.3618   -0.6286    1.4560 S   0  0  0  0  0  0  0  0  0  0  0  0
   -1.6374    1.8650    0.2915 H   0  0  0  0  0  0  0  0  0  0  0  0
   -1.0344    1.7582   -1.3691 H   0  0  0  0  0  0  0  0  0  0  0  0
   -2.0418    0.4639   -0.6995 H   0  0  0  0  0  0  0  0  0  0  0  0
    2.0658    0.8071    0.6137 H   0  0  0  0  0  0  0  0  0  0  0  0
    2.0649    3.2171    0.5644 H   0  0  0  0  0  0  0  0  0  0  0  0
    0.2955    3.2457    0.0455 H   0  0  0  0  0  0  0  0  0  0  0  0
   -0.5843    0.3593    2.3341 H   0  0  0  0  0  0  0  0  0  0  0  0
   -0.0111   -1.9850   -2.4525 C   0  0  0  0  0  0  0  0  0  0  0  0
   -0.0111   -1.9850   -0.9297 C   0  0  0  0  0  0  0  0  0  0  0  0
   -0.8920   -1.4765   -2.8484 H   0  0  0  0  0  0  0  0  0  0  0  0
    0.8697   -1.4765   -2.8484 H   0  0  0  0  0  0  0  0  0  0  0  0
   -0.0111   -3.0021   -2.8484 H   0  0  0  0  0  0  0  0  0  0  0  0
   -0.0111   -0.7645   -0.4547 H   0  0  0  0  0  0  0  0  0  0  0  0
    0.8697   -2.4936   -0.5339 H   0  0  0  0  0  0  0  0  0  0  0  0
   -0.8920   -2.4936   -0.5339 H   0  0  0  0  0  0  0  0  0  0  0  0
  1  2  1  0
  1  6  1  0
  1  7  1  0
  1  8  1  0
  2  3  1  0
  2  5  1  0
  3  4  2  3
  3  9  1  0
  4 10  1  0
  4 11  1  0
  5 12  1  0
 13 14  1  0
 13 15  1  0
 13 16  1  0
 13 17  1  0
 14 18  1  0
 14 19  1  0
 14 20  1  0
M  RAD  1   2   2
M  END
>  <reaction>  (14) 
rxn_897

>  <mol_properties>  (14) 
{"1": {"label": "*1", "atom_type": "Cs"}, "4": {"label": "*0", "atom_type": "S2s"}, "12": {"label": "*4", "atom_type": "Cs"}, "13": {"label": "*3", "atom_type": "Cs"}, "17": {"label": "*2", "atom_type": "H0"}}

>  <type>  (14) 
unop_10

>  <geom_source>  (14) 
Heuristics

$$$$

     RDKit          3D

 20 18  0  0  0  0  0  0  0  0999 V2000
    0.9507    0.2537    1.7296 C   0  0  0  0  0  0  0  0  0  0  0  0
    0.2323    0.2439    0.3905 C   0  0  0  0  0  3  0  0  0  0  0  0
   -1.2578    0.0871    0.4609 C   0  0  0  0  0  0  0  0  0  0  0  0
   -1.9860    0.0581    1.5669 C   0  0  0  0  0  0  0  0  0  0  0  0
    0.6485    1.7107   -0.6290 S   0  0  0  0  0  0  0  0  0  0  0  0
    0.6283    1.0980    2.3418 H   0  0  0  0  0  0  0  0  0  0  0  0
    0.7469   -0.6669    2.2810 H   0  0  0  0  0  0  0  0  0  0  0  0
    2.0260    0.3391    1.5808 H   0  0  0  0  0  0  0  0  0  0  0  0
   -1.7507    0.0101   -0.5032 H   0  0  0  0  0  0  0  0  0  0  0  0
   -3.0620   -0.0480    1.5187 H   0  0  0  0  0  0  0  0  0  0  0  0
   -1.5472    0.1361    2.5541 H   0  0  0  0  0  0  0  0  0  0  0  0
   -0.0018    2.6028    0.1312 H   0  0  0  0  0  0  0  0  0  0  0  0
    0.2323   -2.2003   -2.0836 C   0  0  0  0  0  0  0  0  0  0  0  0
    0.2323   -2.2003   -0.5608 C   0  0  0  0  0  0  0  0  0  0  0  0
   -0.6485   -1.6918   -2.4794 H   0  0  0  0  0  0  0  0  0  0  0  0
    1.1131   -1.6918   -2.4794 H   0  0  0  0  0  0  0  0  0  0  0  0
    0.2323   -3.2174   -2.4794 H   0  0  0  0  0  0  0  0  0  0  0  0
    0.2323   -0.9798   -0.0858 H   0  0  0  0  0  0  0  0  0  0  0  0
    1.1131   -2.7089   -0.1649 H   0  0  0  0  0  0  0  0  0  0  0  0
   -0.6486   -2.7089   -0.1649 H   0  0  0  0  0  0  0  0  0  0  0  0
  1  2  1  0
  1  6  1  0
  1  7  1  0
  1  8  1  0
  2  3  1  0
  2  5  1  0
  3  4  2  3
  3  9  1  0
  4 10  1  0
  4 11  1  0
  5 12  1  0
 13 14  1  0
 13 15  1  0
 13 16  1  0
 13 17  1  0
 14 18  1  0
 14 19  1  0
 14 20  1  0
M  RAD  1   2   2
M  END
>  <reaction>  (15) 
rxn_897

>  <mol_properties>  (15) 
{"1": {"label": "*1", "atom_type": "Cs"}, "4": {"label": "*0", "atom_type": "S2s"}, "12": {"label": "*4", "atom_type": "Cs"}, "13": {"label": "*3", "atom_type": "Cs"}, "17": {"label": "*2", "atom_type": "H0"}}

>  <type>  (15) 
unop_11

>  <geom_source>  (15) 
Heuristics

$$$$

     RDKit          3D

 20 18  0  0  0  0  0  0  0  0999 V2000
    0.0557    1.3130   -1.0552 C   0  0  0  0  0  0  0  0  0  0  0  0
    0.0557    0.3307    0.1043 C   0  0  0  0  0  3  0  0  0  0  0  0
    1.2109    0.4551    1.0529 C   0  0  0  0  0  0  0  0  0  0  0  0
    2.1493    1.3892    1.0184 C   0  0  0  0  0  0  0  0  0  0  0  0
   -1.5186    0.3700    1.0445 S   0  0  0  0  0  0  0  0  0  0  0  0
   -0.0100    2.3423   -0.6977 H   0  0  0  0  0  0  0  0  0  0  0  0
    0.9708    1.2123   -1.6432 H   0  0  0  0  0  0  0  0  0  0  0  0
   -0.7977    1.1292   -1.7061 H   0  0  0  0  0  0  0  0  0  0  0  0
    1.2371   -0.2971    1.8351 H   0  0  0  0  0  0  0  0  0  0  0  0
    2.9419    1.4053    1.7553 H   0  0  0  0  0  0  0  0  0  0  0  0
    2.1687    2.1662    0.2640 H   0  0  0  0  0  0  0  0  0  0  0  0
   -1.3311    1.5808    1.5878 H   0  0  0  0  0  0  0  0  0  0  0  0
    0.0557   -2.1135   -2.3697 C   0  0  0  0  0  0  0  0  0  0  0  0
    0.0557   -2.1135   -0.8470 C   0  0  0  0  0  0  0  0  0  0  0  0
   -0.8252   -1.6050   -2.7656 H   0  0  0  0  0  0  0  0  0  0  0  0
    0.9365   -1.6050   -2.7656 H   0  0  0  0  0  0  0  0  0  0  0  0
    0.0557   -3.1306   -2.7656 H   0  0  0  0  0  0  0  0  0  0  0  0
    0.0557   -0.8930   -0.3719 H   0  0  0  0  0  0  0  0  0  0  0  0
    0.9365   -2.6221   -0.4511 H   0  0  0  0  0  0  0  0  0  0  0  0
   -0.8252   -2.6221   -0.4511 H   0  0  0  0  0  0  0  0  0  0  0  0
  1  2  1  0
  1  6  1  0
  1  7  1  0
  1  8  1  0
  2  3  1  0
  2  5  1  0
  3  4  2  3
  3  9  1  0
  4 10  1  0
  4 11  1  0
  5 12  1  0
 13 14  1  0
 13 15  1  0
 13 16  1  0
 13 17  1  0
 14 18  1  0
 14 19  1  0
 14 20  1  0
M  RAD  1   2   2
M  END
>  <reaction>  (16) 
rxn_897

>  <mol_properties>  (16) 
{"1": {"label": "*1", "atom_type": "Cs"}, "4": {"label": "*0", "atom_type": "S2s"}, "12": {"label": "*4", "atom_type": "Cs"}, "13": {"label": "*3", "atom_type": "Cs"}, "17": {"label": "*2", "atom_type": "H0"}}

>  <type>  (16) 
unop_12

>  <geom_source>  (16) 
Heuristics

$$$$

     RDKit          3D

 20 18  0  0  0  0  0  0  0  0999 V2000
   -0.0763   -1.5759    1.5140 S   0  0  0  0  0  0  0  0  0  0  0  0
   -0.6172   -0.5928    0.0744 C   0  0  0  0  0  3  0  0  0  0  0  0
   -1.3035   -1.4984   -0.9479 C   0  0  0  0  0  0  0  0  0  0  0  0
    2.7048    0.4513    0.6398 C   0  0  0  0  0  0  0  0  0  0  0  0
   -1.5310    0.5202    0.5173 C   0  0  0  0  0  0  0  0  0  0  0  0
    1.6162    0.6266   -0.4028 C   0  0  0  0  0  0  0  0  0  0  0  0
   -1.8311    1.5371   -0.2953 C   0  0  0  0  0  0  0  0  0  0  0  0
    0.5119   -0.0428   -0.5053 H   0  0  0  0  0  0  0  0  0  0  0  0
   -0.6171   -2.3201   -1.2424 H   0  0  0  0  0  0  0  0  0  0  0  0
   -2.2318   -1.9373   -0.5234 H   0  0  0  0  0  0  0  0  0  0  0  0
   -1.5614   -0.9207   -1.8604 H   0  0  0  0  0  0  0  0  0  0  0  0
    2.2919    0.6637    1.6479 H   0  0  0  0  0  0  0  0  0  0  0  0
    3.5437    1.1485    0.4320 H   0  0  0  0  0  0  0  0  0  0  0  0
    3.0801   -0.5928    0.6139 H   0  0  0  0  0  0  0  0  0  0  0  0
   -1.9348    0.5219    1.5259 H   0  0  0  0  0  0  0  0  0  0  0  0
    2.0194    0.4072   -1.4139 H   0  0  0  0  0  0  0  0  0  0  0  0
    1.2292    1.6670   -0.3772 H   0  0  0  0  0  0  0  0  0  0  0  0
   -1.4320    1.5841   -1.3039 H   0  0  0  0  0  0  0  0  0  0  0  0
   -2.4801    2.3351    0.0505 H   0  0  0  0  0  0  0  0  0  0  0  0
   -1.3810   -1.9821    1.8569 H   0  0  0  0  0  0  0  0  0  0  0  0
  1  2  1  0
  1 20  1  0
  2  3  1  0
  2  5  1  0
  3  9  1  0
  3 10  1  0
  3 11  1  0
  4  6  1  0
  4 12  1  0
  4 13  1  0
  4 14  1  0
  5  7  2  3
  5 15  1  0
  6  8  1  0
  6 16  1  0
  6 17  1  0
  7 18  1  0
  7 19  1  0
M  RAD  1   2   2
M  END
>  <reaction>  (17) 
rxn_897

>  <mol_properties>  (17) 
{"1": {"label": "*1", "atom_type": "Cs"}, "4": {"label": "*0", "atom_type": "S2s"}, "12": {"label": "*4", "atom_type": "Cs"}, "13": {"label": "*3", "atom_type": "Cs"}, "17": {"label": "*2", "atom_type": "H0"}}

>  <type>  (17) 
unop_13

>  <geom_source>  (17) 
AutoTST

$$$$
