
     RDKit          3D

 13 12  0  0  0  0  0  0  0  0999 V2000
    3.0977   -0.3549   -0.5105 C   0  0  0  0  0  0  0  0  0  0  0  0
    2.0556    0.4221   -0.2627 C   0  0  0  0  0  0  0  0  0  0  0  0
    0.6313   -0.0354   -0.2366 C   0  0  0  0  0  0  0  0  0  0  0  0
   -0.2567    0.6038   -1.2694 C   0  0  0  0  0  0  0  0  0  0  0  0
    0.1459    1.3456   -2.2891 C   0  0  0  0  0  0  0  0  0  0  0  0
    4.1081    0.0344   -0.5074 H   0  0  0  0  0  0  0  0  0  0  0  0
    2.9777   -1.4116   -0.7243 H   0  0  0  0  0  0  0  0  0  0  0  0
    2.2171    1.4781   -0.0618 H   0  0  0  0  0  0  0  0  0  0  0  0
    0.5865   -1.1233   -0.3540 H   0  0  0  0  0  0  0  0  0  0  0  0
    0.2065    0.1743    0.7521 H   0  0  0  0  0  0  0  0  0  0  0  0
   -1.3190    0.4126   -1.1445 H   0  0  0  0  0  0  0  0  0  0  0  0
    1.1948    1.5564   -2.4628 H   0  0  0  0  0  0  0  0  0  0  0  0
   -0.5644    1.7621   -2.9918 H   0  0  0  0  0  0  0  0  0  0  0  0
  1  2  2  3
  1  6  1  0
  1  7  1  0
  2  3  1  0
  2  8  1  0
  3  4  1  0
  3  9  1  0
  3 10  1  0
  4  5  2  3
  4 11  1  0
  5 12  1  0
  5 13  1  0
M  END
>  <reaction>  (1) 
rxn_1135

>  <mol_properties>  (1) 
{"2": {"label": "donator", "atom_type": "Cs"}, "8": {"label": "d_hydrogen", "atom_type": "H0"}}

>  <type>  (1) 
r1h

$$$$

     RDKit          3D

  9  8  0  0  0  0  0  0  0  0999 V2000
    2.3038   -0.0269    0.1590 C   0  0  0  0  0  0  0  0  0  0  0  0
    1.1426    0.1377   -0.1648 C   0  0  0  0  0  0  0  0  0  0  0  0
   -0.1694    0.3175   -0.5203 C   0  0  0  0  0  3  0  0  0  0  0  0
   -1.3163   -0.1910    0.2856 C   0  0  0  0  0  0  0  0  0  0  0  0
    3.3199   -0.1683    0.4378 H   0  0  0  0  0  0  0  0  0  0  0  0
   -0.3786    0.8584   -1.4360 H   0  0  0  0  0  0  0  0  0  0  0  0
   -1.9694    0.6309    0.5951 H   0  0  0  0  0  0  0  0  0  0  0  0
   -1.9325   -0.8770   -0.3039 H   0  0  0  0  0  0  0  0  0  0  0  0
   -0.9753   -0.7144    1.1774 H   0  0  0  0  0  0  0  0  0  0  0  0
  1  2  3  0
  1  5  1  0
  2  3  1  0
  3  4  1  0
  3  6  1  0
  4  7  1  0
  4  8  1  0
  4  9  1  0
M  RAD  1   3   2
M  END
>  <reaction>  (2) 
rxn_1135

>  <mol_properties>  (2) 
{"2": {"label": "acceptor", "atom_type": "Cs"}}

>  <type>  (2) 
r2

$$$$

     RDKit          3D

 10  9  0  0  0  0  0  0  0  0999 V2000
    2.2738    0.0217   -0.0992 C   0  0  0  0  0  0  0  0  0  0  0  0
    1.1083    0.2960   -0.0695 C   0  0  0  0  0  0  0  0  0  0  0  0
   -0.3173    0.6046   -0.0227 C   0  0  0  0  0  0  0  0  0  0  0  0
   -1.1561   -0.5495    0.5292 C   0  0  0  0  0  0  0  0  0  0  0  0
    3.3097   -0.2166   -0.1277 H   0  0  0  0  0  0  0  0  0  0  0  0
   -0.6542    0.8617   -1.0302 H   0  0  0  0  0  0  0  0  0  0  0  0
   -0.4633    1.4978    0.5900 H   0  0  0  0  0  0  0  0  0  0  0  0
   -0.8485   -0.7997    1.5447 H   0  0  0  0  0  0  0  0  0  0  0  0
   -2.2115   -0.2752    0.5459 H   0  0  0  0  0  0  0  0  0  0  0  0
   -1.0409   -1.4407   -0.0879 H   0  0  0  0  0  0  0  0  0  0  0  0
  1  2  3  0
  1  5  1  0
  2  3  1  0
  3  4  1  0
  3  6  1  0
  3  7  1  0
  4  8  1  0
  4  9  1  0
  4 10  1  0
M  END
>  <reaction>  (3) 
rxn_1135

>  <mol_properties>  (3) 
{"2": {"label": "acceptor", "atom_type": "Cs"}, "9": {"label": "a_hydrogen", "atom_type": "H0"}}

>  <type>  (3) 
r2h

$$$$

     RDKit          3D

 22 20  0  0  0  0  0  0  0  0999 V2000
   -1.0054    3.0453    1.0131 C   0  0  0  0  0  0  0  0  0  0  0  0
   -0.6700    2.3076    0.1219 C   0  0  0  0  0  0  0  0  0  0  0  0
   -0.2645    1.3824   -0.8711 C   0  0  0  0  0  3  0  0  0  0  0  0
    1.1887    1.3583   -1.2721 C   0  0  0  0  0  0  0  0  0  0  0  0
   -1.3029    3.7158    1.7828 H   0  0  0  0  0  0  0  0  0  0  0  0
   -0.9752    1.2597   -1.6859 H   0  0  0  0  0  0  0  0  0  0  0  0
    1.3848    0.5075   -1.9261 H   0  0  0  0  0  0  0  0  0  0  0  0
    1.4674    2.2699   -1.8072 H   0  0  0  0  0  0  0  0  0  0  0  0
    1.8277    1.2748   -0.3916 H   0  0  0  0  0  0  0  0  0  0  0  0
   -0.5812   -2.6816   -1.5270 C   0  0  0  0  0  0  0  0  0  0  0  0
    0.1503   -1.9596   -0.6812 C   0  0  0  0  0  0  0  0  0  0  0  0
   -0.4021   -1.0434    0.3207 C   0  0  0  0  0  0  0  0  0  0  0  0
    0.3212   -0.7845    1.5745 C   0  0  0  0  0  0  0  0  0  0  0  0
    1.5324   -1.2251    1.9089 C   0  0  0  0  0  0  0  0  0  0  0  0
   -0.1205   -3.3126   -2.2759 H   0  0  0  0  0  0  0  0  0  0  0  0
   -1.6651   -2.6701   -1.4902 H   0  0  0  0  0  0  0  0  0  0  0  0
    1.2324   -2.0034   -0.7615 H   0  0  0  0  0  0  0  0  0  0  0  0
   -0.3985    0.1247   -0.2484 H   0  0  0  0  0  0  0  0  0  0  0  0
   -1.4779   -1.1522    0.4629 H   0  0  0  0  0  0  0  0  0  0  0  0
   -0.1966   -0.1261    2.2658 H   0  0  0  0  0  0  0  0  0  0  0  0
    2.1044   -1.8937    1.2773 H   0  0  0  0  0  0  0  0  0  0  0  0
    1.9849   -0.9379    2.8489 H   0  0  0  0  0  0  0  0  0  0  0  0
  1  2  3  0
  1  5  1  0
  2  3  1  0
  3  4  1  0
  3  6  1  0
  4  7  1  0
  4  8  1  0
  4  9  1  0
 10 11  2  3
 10 15  1  0
 10 16  1  0
 11 12  1  0
 11 17  1  0
 12 13  1  0
 12 18  1  0
 12 19  1  0
 13 14  2  3
 13 20  1  0
 14 21  1  0
 14 22  1  0
M  RAD  1   3   2
M  END
>  <reaction>  (4) 
rxn_1135

>  <mol_properties>  (4) 
{"1": {"label": "*4", "atom_type": "Ct"}, "2": {"label": "*3", "atom_type": "Cs"}, "10": {"label": "*0", "atom_type": "Cd"}, "11": {"label": "*1", "atom_type": "Cs"}, "17": {"label": "*2", "atom_type": "H0"}}

>  <type>  (4) 
ts

$$$$

     RDKit          3D

 22 20  0  0  0  0  0  0  0  0999 V2000
   -2.5211    2.5709   -0.1820 C   0  0  0  0  0  0  0  0  0  0  0  0
   -1.5390    1.9751   -0.5209 C   0  0  0  0  0  0  0  0  0  0  0  0
   -0.3278    1.2615   -0.9130 C   0  0  0  0  0  0  0  0  0  0  0  0
    0.8725    1.5989   -0.0265 C   0  0  0  0  0  0  0  0  0  0  0  0
   -3.3931    3.0999    0.1189 H   0  0  0  0  0  0  0  0  0  0  0  0
   -0.1007    1.5012   -1.9548 H   0  0  0  0  0  0  0  0  0  0  0  0
    1.7524    1.0446   -0.3551 H   0  0  0  0  0  0  0  0  0  0  0  0
    1.0990    2.6643   -0.0717 H   0  0  0  0  0  0  0  0  0  0  0  0
    0.6700    1.3403    1.0129 H   0  0  0  0  0  0  0  0  0  0  0  0
   -0.0879   -2.1061   -1.5946 C   0  0  0  0  0  0  0  0  0  0  0  0
   -0.0879   -2.1061   -0.2714 C   0  0  0  0  0  0  0  0  0  0  0  0
   -0.0879   -0.8803    0.5866 C   0  0  0  0  0  3  0  0  0  0  0  0
    1.1219   -0.7259    1.4678 C   0  0  0  0  0  0  0  0  0  0  0  0
    2.2330   -1.4416    1.3954 C   0  0  0  0  0  0  0  0  0  0  0  0
   -0.0960   -3.0288   -2.1612 H   0  0  0  0  0  0  0  0  0  0  0  0
   -0.0815   -1.1807   -2.1606 H   0  0  0  0  0  0  0  0  0  0  0  0
   -0.0853   -3.0549    0.2591 H   0  0  0  0  0  0  0  0  0  0  0  0
   -0.2079    0.1917   -0.1639 H   0  0  0  0  0  0  0  0  0  0  0  0
   -0.9758   -0.8938    1.2294 H   0  0  0  0  0  0  0  0  0  0  0  0
    1.0492    0.0591    2.2156 H   0  0  0  0  0  0  0  0  0  0  0  0
    2.3585   -2.2285    0.6605 H   0  0  0  0  0  0  0  0  0  0  0  0
    3.0612   -1.2573    2.0677 H   0  0  0  0  0  0  0  0  0  0  0  0
  1  2  3  0
  1  5  1  0
  2  3  1  0
  3  4  1  0
  3  6  1  0
  3 18  1  0
  4  7  1  0
  4  8  1  0
  4  9  1  0
 10 11  2  3
 10 15  1  0
 10 16  1  0
 11 12  1  0
 11 17  1  0
 12 13  1  0
 12 19  1  0
 13 14  2  3
 13 20  1  0
 14 21  1  0
 14 22  1  0
M  RAD  1  12   2
M  END
>  <reaction>  (5) 
rxn_1135

>  <mol_properties>  (5) 
{"1": {"label": "*4", "atom_type": "Ct"}, "2": {"label": "*3", "atom_type": "Cs"}, "10": {"label": "*0", "atom_type": "Cd"}, "11": {"label": "*1", "atom_type": "Cs"}, "17": {"label": "*2", "atom_type": "H0"}}

>  <type>  (5) 
unop_1

>  <geom_source>  (5) 
Heuristics

$$$$

     RDKit          3D

 22 20  0  0  0  0  0  0  0  0999 V2000
   -1.6204    0.9004   -2.6190 C   0  0  0  0  0  0  0  0  0  0  0  0
   -0.9699    1.1729   -1.6510 C   0  0  0  0  0  0  0  0  0  0  0  0
   -0.1996    1.5181   -0.4604 C   0  0  0  0  0  0  0  0  0  0  0  0
   -1.0150    2.3079    0.5651 C   0  0  0  0  0  0  0  0  0  0  0  0
   -2.1980    0.6585   -3.4784 H   0  0  0  0  0  0  0  0  0  0  0  0
    0.6768    2.0958   -0.7645 H   0  0  0  0  0  0  0  0  0  0  0  0
   -0.4013    2.5432    1.4353 H   0  0  0  0  0  0  0  0  0  0  0  0
   -1.3764    3.2420    0.1348 H   0  0  0  0  0  0  0  0  0  0  0  0
   -1.8792    1.7325    0.8976 H   0  0  0  0  0  0  0  0  0  0  0  0
    0.0403   -1.8496   -1.1420 C   0  0  0  0  0  0  0  0  0  0  0  0
    0.0403   -1.8496    0.1812 C   0  0  0  0  0  0  0  0  0  0  0  0
    0.0403   -0.6238    1.0392 C   0  0  0  0  0  3  0  0  0  0  0  0
    1.2500   -0.4694    1.9204 C   0  0  0  0  0  0  0  0  0  0  0  0
    2.3611   -1.1851    1.8480 C   0  0  0  0  0  0  0  0  0  0  0  0
    0.0321   -2.7723   -1.7086 H   0  0  0  0  0  0  0  0  0  0  0  0
    0.0466   -0.9241   -1.7080 H   0  0  0  0  0  0  0  0  0  0  0  0
    0.0428   -2.7983    0.7117 H   0  0  0  0  0  0  0  0  0  0  0  0
   -0.0798    0.4482    0.2887 H   0  0  0  0  0  0  0  0  0  0  0  0
   -0.8477   -0.6373    1.6820 H   0  0  0  0  0  0  0  0  0  0  0  0
    1.1773    0.3156    2.6681 H   0  0  0  0  0  0  0  0  0  0  0  0
    2.4866   -1.9720    1.1131 H   0  0  0  0  0  0  0  0  0  0  0  0
    3.1894   -1.0008    2.5203 H   0  0  0  0  0  0  0  0  0  0  0  0
  1  2  3  0
  1  5  1  0
  2  3  1  0
  3  4  1  0
  3  6  1  0
  3 18  1  0
  4  7  1  0
  4  8  1  0
  4  9  1  0
 10 11  2  3
 10 15  1  0
 10 16  1  0
 11 12  1  0
 11 17  1  0
 12 13  1  0
 12 19  1  0
 13 14  2  3
 13 20  1  0
 14 21  1  0
 14 22  1  0
M  RAD  1  12   2
M  END
>  <reaction>  (6) 
rxn_1135

>  <mol_properties>  (6) 
{"1": {"label": "*4", "atom_type": "Ct"}, "2": {"label": "*3", "atom_type": "Cs"}, "10": {"label": "*0", "atom_type": "Cd"}, "11": {"label": "*1", "atom_type": "Cs"}, "17": {"label": "*2", "atom_type": "H0"}}

>  <type>  (6) 
unop_2

>  <geom_source>  (6) 
Heuristics

$$$$

     RDKit          3D

 22 20  0  0  0  0  0  0  0  0999 V2000
   -1.7601    3.0843    0.4812 C   0  0  0  0  0  0  0  0  0  0  0  0
   -1.2136    2.2277   -0.1529 C   0  0  0  0  0  0  0  0  0  0  0  0
   -0.5226    1.1947   -0.9180 C   0  0  0  0  0  0  0  0  0  0  0  0
    1.0002    1.3208   -0.8441 C   0  0  0  0  0  0  0  0  0  0  0  0
   -2.2453    3.8448    1.0441 H   0  0  0  0  0  0  0  0  0  0  0  0
   -0.8511    1.2499   -1.9589 H   0  0  0  0  0  0  0  0  0  0  0  0
    1.4734    0.5308   -1.4285 H   0  0  0  0  0  0  0  0  0  0  0  0
    1.3278    2.2836   -1.2364 H   0  0  0  0  0  0  0  0  0  0  0  0
    1.3450    1.2410    0.1870 H   0  0  0  0  0  0  0  0  0  0  0  0
   -0.2827   -2.1729   -1.5997 C   0  0  0  0  0  0  0  0  0  0  0  0
   -0.2827   -2.1729   -0.2764 C   0  0  0  0  0  0  0  0  0  0  0  0
   -0.2827   -0.9471    0.5816 C   0  0  0  0  0  3  0  0  0  0  0  0
    0.9270   -0.7928    1.4628 C   0  0  0  0  0  0  0  0  0  0  0  0
    2.0382   -1.5085    1.3904 C   0  0  0  0  0  0  0  0  0  0  0  0
   -0.2909   -3.0957   -2.1662 H   0  0  0  0  0  0  0  0  0  0  0  0
   -0.2764   -1.2475   -2.1656 H   0  0  0  0  0  0  0  0  0  0  0  0
   -0.2801   -3.1217    0.2541 H   0  0  0  0  0  0  0  0  0  0  0  0
   -0.4028    0.1249   -0.1690 H   0  0  0  0  0  0  0  0  0  0  0  0
   -1.1707   -0.9606    1.2244 H   0  0  0  0  0  0  0  0  0  0  0  0
    0.8543   -0.0077    2.2105 H   0  0  0  0  0  0  0  0  0  0  0  0
    2.1636   -2.2953    0.6555 H   0  0  0  0  0  0  0  0  0  0  0  0
    2.8664   -1.3242    2.0627 H   0  0  0  0  0  0  0  0  0  0  0  0
  1  2  3  0
  1  5  1  0
  2  3  1  0
  3  4  1  0
  3  6  1  0
  3 18  1  0
  4  7  1  0
  4  8  1  0
  4  9  1  0
 10 11  2  3
 10 15  1  0
 10 16  1  0
 11 12  1  0
 11 17  1  0
 12 13  1  0
 12 19  1  0
 13 14  2  3
 13 20  1  0
 14 21  1  0
 14 22  1  0
M  RAD  1  12   2
M  END
>  <reaction>  (7) 
rxn_1135

>  <mol_properties>  (7) 
{"1": {"label": "*4", "atom_type": "Ct"}, "2": {"label": "*3", "atom_type": "Cs"}, "10": {"label": "*0", "atom_type": "Cd"}, "11": {"label": "*1", "atom_type": "Cs"}, "17": {"label": "*2", "atom_type": "H0"}}

>  <type>  (7) 
unop_3

>  <geom_source>  (7) 
Heuristics

$$$$

     RDKit          3D

 22 20  0  0  0  0  0  0  0  0999 V2000
    1.3255    1.5136   -2.0484 C   0  0  0  0  0  0  0  0  0  0  0  0
    0.4149    1.4591   -1.2724 C   0  0  0  0  0  0  0  0  0  0  0  0
   -0.7107    1.4078   -0.3448 C   0  0  0  0  0  0  0  0  0  0  0  0
   -1.9478    2.1366   -0.8726 C   0  0  0  0  0  0  0  0  0  0  0  0
    2.1340    1.5619   -2.7374 H   0  0  0  0  0  0  0  0  0  0  0  0
   -0.4001    1.8429    0.6085 H   0  0  0  0  0  0  0  0  0  0  0  0
   -2.7613    2.0725   -0.1490 H   0  0  0  0  0  0  0  0  0  0  0  0
   -1.7287    3.1890   -1.0532 H   0  0  0  0  0  0  0  0  0  0  0  0
   -2.2851    1.6958   -1.8108 H   0  0  0  0  0  0  0  0  0  0  0  0
   -0.4707   -1.9598   -1.0264 C   0  0  0  0  0  0  0  0  0  0  0  0
   -0.4707   -1.9598    0.2968 C   0  0  0  0  0  0  0  0  0  0  0  0
   -0.4707   -0.7340    1.1548 C   0  0  0  0  0  3  0  0  0  0  0  0
    0.7390   -0.5797    2.0360 C   0  0  0  0  0  0  0  0  0  0  0  0
    1.8501   -1.2954    1.9636 C   0  0  0  0  0  0  0  0  0  0  0  0
   -0.4789   -2.8826   -1.5930 H   0  0  0  0  0  0  0  0  0  0  0  0
   -0.4644   -1.0344   -1.5924 H   0  0  0  0  0  0  0  0  0  0  0  0
   -0.4682   -2.9086    0.8273 H   0  0  0  0  0  0  0  0  0  0  0  0
   -0.5908    0.3379    0.4043 H   0  0  0  0  0  0  0  0  0  0  0  0
   -1.3587   -0.7475    1.7976 H   0  0  0  0  0  0  0  0  0  0  0  0
    0.6663    0.2054    2.7837 H   0  0  0  0  0  0  0  0  0  0  0  0
    1.9756   -2.0822    1.2287 H   0  0  0  0  0  0  0  0  0  0  0  0
    2.6783   -1.1111    2.6359 H   0  0  0  0  0  0  0  0  0  0  0  0
  1  2  3  0
  1  5  1  0
  2  3  1  0
  3  4  1  0
  3  6  1  0
  3 18  1  0
  4  7  1  0
  4  8  1  0
  4  9  1  0
 10 11  2  3
 10 15  1  0
 10 16  1  0
 11 12  1  0
 11 17  1  0
 12 13  1  0
 12 19  1  0
 13 14  2  3
 13 20  1  0
 14 21  1  0
 14 22  1  0
M  RAD  1  12   2
M  END
>  <reaction>  (8) 
rxn_1135

>  <mol_properties>  (8) 
{"1": {"label": "*4", "atom_type": "Ct"}, "2": {"label": "*3", "atom_type": "Cs"}, "10": {"label": "*0", "atom_type": "Cd"}, "11": {"label": "*1", "atom_type": "Cs"}, "17": {"label": "*2", "atom_type": "H0"}}

>  <type>  (8) 
unop_4

>  <geom_source>  (8) 
Heuristics

$$$$

     RDKit          3D

 22 20  0  0  0  0  0  0  0  0999 V2000
   -0.6486    3.3179    0.7535 C   0  0  0  0  0  0  0  0  0  0  0  0
   -0.6693    2.3429    0.0582 C   0  0  0  0  0  0  0  0  0  0  0  0
   -0.6722    1.1648   -0.8031 C   0  0  0  0  0  0  0  0  0  0  0  0
    0.4407    1.1944   -1.8523 C   0  0  0  0  0  0  0  0  0  0  0  0
   -0.6302    4.1836    1.3707 H   0  0  0  0  0  0  0  0  0  0  0  0
   -1.6457    1.0915   -1.2945 H   0  0  0  0  0  0  0  0  0  0  0  0
    0.4003    0.2975   -2.4713 H   0  0  0  0  0  0  0  0  0  0  0  0
    0.3384    2.0655   -2.4997 H   0  0  0  0  0  0  0  0  0  0  0  0
    1.4200    1.2409   -1.3756 H   0  0  0  0  0  0  0  0  0  0  0  0
   -0.4323   -2.2029   -1.4848 C   0  0  0  0  0  0  0  0  0  0  0  0
   -0.4323   -2.2029   -0.1615 C   0  0  0  0  0  0  0  0  0  0  0  0
   -0.4323   -0.9771    0.6965 C   0  0  0  0  0  3  0  0  0  0  0  0
    0.7774   -0.8227    1.5777 C   0  0  0  0  0  0  0  0  0  0  0  0
    1.8885   -1.5384    1.5052 C   0  0  0  0  0  0  0  0  0  0  0  0
   -0.4405   -3.1256   -2.0513 H   0  0  0  0  0  0  0  0  0  0  0  0
   -0.4260   -1.2774   -2.0508 H   0  0  0  0  0  0  0  0  0  0  0  0
   -0.4298   -3.1516    0.3690 H   0  0  0  0  0  0  0  0  0  0  0  0
   -0.5524    0.0949   -0.0541 H   0  0  0  0  0  0  0  0  0  0  0  0
   -1.3203   -0.9905    1.3392 H   0  0  0  0  0  0  0  0  0  0  0  0
    0.7047   -0.0377    2.3254 H   0  0  0  0  0  0  0  0  0  0  0  0
    2.0140   -2.3252    0.7704 H   0  0  0  0  0  0  0  0  0  0  0  0
    2.7167   -1.3541    2.1776 H   0  0  0  0  0  0  0  0  0  0  0  0
  1  2  3  0
  1  5  1  0
  2  3  1  0
  3  4  1  0
  3  6  1  0
  3 18  1  0
  4  7  1  0
  4  8  1  0
  4  9  1  0
 10 11  2  3
 10 15  1  0
 10 16  1  0
 11 12  1  0
 11 17  1  0
 12 13  1  0
 12 19  1  0
 13 14  2  3
 13 20  1  0
 14 21  1  0
 14 22  1  0
M  RAD  1  12   2
M  END
>  <reaction>  (9) 
rxn_1135

>  <mol_properties>  (9) 
{"1": {"label": "*4", "atom_type": "Ct"}, "2": {"label": "*3", "atom_type": "Cs"}, "10": {"label": "*0", "atom_type": "Cd"}, "11": {"label": "*1", "atom_type": "Cs"}, "17": {"label": "*2", "atom_type": "H0"}}

>  <type>  (9) 
unop_5

>  <geom_source>  (9) 
Heuristics

$$$$

     RDKit          3D

 22 20  0  0  0  0  0  0  0  0999 V2000
    1.6298    2.1575   -1.1663 C   0  0  0  0  0  0  0  0  0  0  0  0
    0.5454    1.7682   -0.8388 C   0  0  0  0  0  0  0  0  0  0  0  0
   -0.7873    1.3087   -0.4610 C   0  0  0  0  0  0  0  0  0  0  0  0
   -1.8858    1.8652   -1.3686 C   0  0  0  0  0  0  0  0  0  0  0  0
    2.5924    2.5030   -1.4570 H   0  0  0  0  0  0  0  0  0  0  0  0
   -0.9778    1.5984    0.5755 H   0  0  0  0  0  0  0  0  0  0  0  0
   -2.8616    1.4967   -1.0501 H   0  0  0  0  0  0  0  0  0  0  0  0
   -1.9004    2.9547   -1.3343 H   0  0  0  0  0  0  0  0  0  0  0  0
   -1.7232    1.5619   -2.4029 H   0  0  0  0  0  0  0  0  0  0  0  0
   -0.5473   -2.0589   -1.1427 C   0  0  0  0  0  0  0  0  0  0  0  0
   -0.5473   -2.0589    0.1806 C   0  0  0  0  0  0  0  0  0  0  0  0
   -0.5473   -0.8331    1.0386 C   0  0  0  0  0  3  0  0  0  0  0  0
    0.6624   -0.6787    1.9198 C   0  0  0  0  0  0  0  0  0  0  0  0
    1.7735   -1.3944    1.8474 C   0  0  0  0  0  0  0  0  0  0  0  0
   -0.5555   -2.9816   -1.7092 H   0  0  0  0  0  0  0  0  0  0  0  0
   -0.5410   -1.1334   -1.7086 H   0  0  0  0  0  0  0  0  0  0  0  0
   -0.5448   -3.0076    0.7111 H   0  0  0  0  0  0  0  0  0  0  0  0
   -0.6674    0.2389    0.2880 H   0  0  0  0  0  0  0  0  0  0  0  0
   -1.4353   -0.8466    1.6814 H   0  0  0  0  0  0  0  0  0  0  0  0
    0.5897    0.1063    2.6675 H   0  0  0  0  0  0  0  0  0  0  0  0
    1.8990   -2.1813    1.1125 H   0  0  0  0  0  0  0  0  0  0  0  0
    2.6017   -1.2101    2.5197 H   0  0  0  0  0  0  0  0  0  0  0  0
  1  2  3  0
  1  5  1  0
  2  3  1  0
  3  4  1  0
  3  6  1  0
  3 18  1  0
  4  7  1  0
  4  8  1  0
  4  9  1  0
 10 11  2  3
 10 15  1  0
 10 16  1  0
 11 12  1  0
 11 17  1  0
 12 13  1  0
 12 19  1  0
 13 14  2  3
 13 20  1  0
 14 21  1  0
 14 22  1  0
M  RAD  1  12   2
M  END
>  <reaction>  (10) 
rxn_1135

>  <mol_properties>  (10) 
{"1": {"label": "*4", "atom_type": "Ct"}, "2": {"label": "*3", "atom_type": "Cs"}, "10": {"label": "*0", "atom_type": "Cd"}, "11": {"label": "*1", "atom_type": "Cs"}, "17": {"label": "*2", "atom_type": "H0"}}

>  <type>  (10) 
unop_6

>  <geom_source>  (10) 
Heuristics

$$$$

     RDKit          3D

 22 20  0  0  0  0  0  0  0  0999 V2000
    1.3473    2.7770   -0.2364 C   0  0  0  0  0  0  0  0  0  0  0  0
    0.3907    2.0711   -0.3818 C   0  0  0  0  0  0  0  0  0  0  0  0
   -0.7806    1.2241   -0.5833 C   0  0  0  0  0  0  0  0  0  0  0  0
   -1.5317    1.5485   -1.8758 C   0  0  0  0  0  0  0  0  0  0  0  0
    2.1965    3.4038   -0.1073 H   0  0  0  0  0  0  0  0  0  0  0  0
   -1.4481    1.3382    0.2745 H   0  0  0  0  0  0  0  0  0  0  0  0
   -2.3967    0.8933   -1.9847 H   0  0  0  0  0  0  0  0  0  0  0  0
   -1.8798    2.5816   -1.8716 H   0  0  0  0  0  0  0  0  0  0  0  0
   -0.8851    1.4134   -2.7430 H   0  0  0  0  0  0  0  0  0  0  0  0
   -0.5406   -2.1436   -1.2649 C   0  0  0  0  0  0  0  0  0  0  0  0
   -0.5406   -2.1436    0.0583 C   0  0  0  0  0  0  0  0  0  0  0  0
   -0.5406   -0.9178    0.9163 C   0  0  0  0  0  3  0  0  0  0  0  0
    0.6691   -0.7634    1.7975 C   0  0  0  0  0  0  0  0  0  0  0  0
    1.7802   -1.4791    1.7251 C   0  0  0  0  0  0  0  0  0  0  0  0
   -0.5488   -3.0663   -1.8314 H   0  0  0  0  0  0  0  0  0  0  0  0
   -0.5343   -1.2181   -1.8309 H   0  0  0  0  0  0  0  0  0  0  0  0
   -0.5381   -3.0923    0.5889 H   0  0  0  0  0  0  0  0  0  0  0  0
   -0.6607    0.1542    0.1658 H   0  0  0  0  0  0  0  0  0  0  0  0
   -1.4286   -0.9313    1.5591 H   0  0  0  0  0  0  0  0  0  0  0  0
    0.5964    0.0216    2.5453 H   0  0  0  0  0  0  0  0  0  0  0  0
    1.9057   -2.2660    0.9902 H   0  0  0  0  0  0  0  0  0  0  0  0
    2.6084   -1.2948    2.3974 H   0  0  0  0  0  0  0  0  0  0  0  0
  1  2  3  0
  1  5  1  0
  2  3  1  0
  3  4  1  0
  3  6  1  0
  3 18  1  0
  4  7  1  0
  4  8  1  0
  4  9  1  0
 10 11  2  3
 10 15  1  0
 10 16  1  0
 11 12  1  0
 11 17  1  0
 12 13  1  0
 12 19  1  0
 13 14  2  3
 13 20  1  0
 14 21  1  0
 14 22  1  0
M  RAD  1  12   2
M  END
>  <reaction>  (11) 
rxn_1135

>  <mol_properties>  (11) 
{"1": {"label": "*4", "atom_type": "Ct"}, "2": {"label": "*3", "atom_type": "Cs"}, "10": {"label": "*0", "atom_type": "Cd"}, "11": {"label": "*1", "atom_type": "Cs"}, "17": {"label": "*2", "atom_type": "H0"}}

>  <type>  (11) 
unop_7

>  <geom_source>  (11) 
Heuristics

$$$$

     RDKit          3D

 22 20  0  0  0  0  0  0  0  0999 V2000
   -2.7686    1.9217   -1.0703 C   0  0  0  0  0  0  0  0  0  0  0  0
   -1.6050    1.6600   -0.9612 C   0  0  0  0  0  0  0  0  0  0  0  0
   -0.1866    1.3545   -0.8035 C   0  0  0  0  0  0  0  0  0  0  0  0
    0.3982    1.9086    0.4970 C   0  0  0  0  0  0  0  0  0  0  0  0
   -3.8017    2.1541   -1.1672 H   0  0  0  0  0  0  0  0  0  0  0  0
    0.3574    1.7610   -1.6598 H   0  0  0  0  0  0  0  0  0  0  0  0
    1.4568    1.6573    0.5723 H   0  0  0  0  0  0  0  0  0  0  0  0
    0.2975    2.9934    0.5347 H   0  0  0  0  0  0  0  0  0  0  0  0
   -0.1179    1.4911    1.3616 H   0  0  0  0  0  0  0  0  0  0  0  0
    0.0533   -2.0131   -1.4852 C   0  0  0  0  0  0  0  0  0  0  0  0
    0.0533   -2.0131   -0.1619 C   0  0  0  0  0  0  0  0  0  0  0  0
    0.0533   -0.7873    0.6961 C   0  0  0  0  0  3  0  0  0  0  0  0
    1.2630   -0.6329    1.5773 C   0  0  0  0  0  0  0  0  0  0  0  0
    2.3742   -1.3486    1.5049 C   0  0  0  0  0  0  0  0  0  0  0  0
    0.0451   -2.9358   -2.0517 H   0  0  0  0  0  0  0  0  0  0  0  0
    0.0597   -1.0876   -2.0511 H   0  0  0  0  0  0  0  0  0  0  0  0
    0.0559   -2.9619    0.3686 H   0  0  0  0  0  0  0  0  0  0  0  0
   -0.0668    0.2847   -0.0545 H   0  0  0  0  0  0  0  0  0  0  0  0
   -0.8347   -0.8008    1.3389 H   0  0  0  0  0  0  0  0  0  0  0  0
    1.1903    0.1521    2.3250 H   0  0  0  0  0  0  0  0  0  0  0  0
    2.4996   -2.1355    0.7700 H   0  0  0  0  0  0  0  0  0  0  0  0
    3.2024   -1.1643    2.1772 H   0  0  0  0  0  0  0  0  0  0  0  0
  1  2  3  0
  1  5  1  0
  2  3  1  0
  3  4  1  0
  3  6  1  0
  3 18  1  0
  4  7  1  0
  4  8  1  0
  4  9  1  0
 10 11  2  3
 10 15  1  0
 10 16  1  0
 11 12  1  0
 11 17  1  0
 12 13  1  0
 12 19  1  0
 13 14  2  3
 13 20  1  0
 14 21  1  0
 14 22  1  0
M  RAD  1  12   2
M  END
>  <reaction>  (12) 
rxn_1135

>  <mol_properties>  (12) 
{"1": {"label": "*4", "atom_type": "Ct"}, "2": {"label": "*3", "atom_type": "Cs"}, "10": {"label": "*0", "atom_type": "Cd"}, "11": {"label": "*1", "atom_type": "Cs"}, "17": {"label": "*2", "atom_type": "H0"}}

>  <type>  (12) 
unop_8

>  <geom_source>  (12) 
Heuristics

$$$$

     RDKit          3D

 22 20  0  0  0  0  0  0  0  0999 V2000
    0.5348    1.0158   -2.6639 C   0  0  0  0  0  0  0  0  0  0  0  0
    0.0554    1.2243   -1.5863 C   0  0  0  0  0  0  0  0  0  0  0  0
   -0.5499    1.4924   -0.2857 C   0  0  0  0  0  0  0  0  0  0  0  0
   -1.8427    2.3036   -0.3892 C   0  0  0  0  0  0  0  0  0  0  0  0
    0.9604    0.8308   -3.6206 H   0  0  0  0  0  0  0  0  0  0  0  0
    0.1749    2.0240    0.3360 H   0  0  0  0  0  0  0  0  0  0  0  0
   -2.2587    2.4797    0.6035 H   0  0  0  0  0  0  0  0  0  0  0  0
   -1.6569    3.2684   -0.8615 H   0  0  0  0  0  0  0  0  0  0  0  0
   -2.5853    1.7730   -0.9853 H   0  0  0  0  0  0  0  0  0  0  0  0
   -0.3100   -1.8753   -0.9673 C   0  0  0  0  0  0  0  0  0  0  0  0
   -0.3100   -1.8753    0.3559 C   0  0  0  0  0  0  0  0  0  0  0  0
   -0.3100   -0.6494    1.2139 C   0  0  0  0  0  3  0  0  0  0  0  0
    0.8997   -0.4951    2.0951 C   0  0  0  0  0  0  0  0  0  0  0  0
    2.0109   -1.2108    2.0227 C   0  0  0  0  0  0  0  0  0  0  0  0
   -0.3182   -2.7980   -1.5339 H   0  0  0  0  0  0  0  0  0  0  0  0
   -0.3037   -0.9498   -1.5333 H   0  0  0  0  0  0  0  0  0  0  0  0
   -0.3074   -2.8240    0.8864 H   0  0  0  0  0  0  0  0  0  0  0  0
   -0.4301    0.4225    0.4634 H   0  0  0  0  0  0  0  0  0  0  0  0
   -1.1980   -0.6629    1.8567 H   0  0  0  0  0  0  0  0  0  0  0  0
    0.8270    0.2899    2.8429 H   0  0  0  0  0  0  0  0  0  0  0  0
    2.1363   -1.9976    1.2878 H   0  0  0  0  0  0  0  0  0  0  0  0
    2.8391   -1.0265    2.6950 H   0  0  0  0  0  0  0  0  0  0  0  0
  1  2  3  0
  1  5  1  0
  2  3  1  0
  3  4  1  0
  3  6  1  0
  3 18  1  0
  4  7  1  0
  4  8  1  0
  4  9  1  0
 10 11  2  3
 10 15  1  0
 10 16  1  0
 11 12  1  0
 11 17  1  0
 12 13  1  0
 12 19  1  0
 13 14  2  3
 13 20  1  0
 14 21  1  0
 14 22  1  0
M  RAD  1  12   2
M  END
>  <reaction>  (13) 
rxn_1135

>  <mol_properties>  (13) 
{"1": {"label": "*4", "atom_type": "Ct"}, "2": {"label": "*3", "atom_type": "Cs"}, "10": {"label": "*0", "atom_type": "Cd"}, "11": {"label": "*1", "atom_type": "Cs"}, "17": {"label": "*2", "atom_type": "H0"}}

>  <type>  (13) 
unop_9

>  <geom_source>  (13) 
Heuristics

$$$$

     RDKit          3D

 22 20  0  0  0  0  0  0  0  0999 V2000
   -2.4391    1.3116   -1.9617 C   0  0  0  0  0  0  0  0  0  0  0  0
   -1.3969    1.3678   -1.3741 C   0  0  0  0  0  0  0  0  0  0  0  0
   -0.1400    1.4499   -0.6371 C   0  0  0  0  0  0  0  0  0  0  0  0
   -0.2879    2.1587    0.7105 C   0  0  0  0  0  0  0  0  0  0  0  0
   -3.3644    1.2616   -2.4833 H   0  0  0  0  0  0  0  0  0  0  0  0
    0.5954    1.9723   -1.2542 H   0  0  0  0  0  0  0  0  0  0  0  0
    0.6731    2.1968    1.2248 H   0  0  0  0  0  0  0  0  0  0  0  0
   -0.6466    3.1789    0.5733 H   0  0  0  0  0  0  0  0  0  0  0  0
   -0.9996    1.6332    1.3475 H   0  0  0  0  0  0  0  0  0  0  0  0
    0.0999   -1.9177   -1.3187 C   0  0  0  0  0  0  0  0  0  0  0  0
    0.0999   -1.9177    0.0045 C   0  0  0  0  0  0  0  0  0  0  0  0
    0.0999   -0.6919    0.8625 C   0  0  0  0  0  3  0  0  0  0  0  0
    1.3097   -0.5375    1.7437 C   0  0  0  0  0  0  0  0  0  0  0  0
    2.4208   -1.2532    1.6713 C   0  0  0  0  0  0  0  0  0  0  0  0
    0.0918   -2.8404   -1.8853 H   0  0  0  0  0  0  0  0  0  0  0  0
    0.1063   -0.9922   -1.8847 H   0  0  0  0  0  0  0  0  0  0  0  0
    0.1025   -2.8665    0.5350 H   0  0  0  0  0  0  0  0  0  0  0  0
   -0.0201    0.3801    0.1120 H   0  0  0  0  0  0  0  0  0  0  0  0
   -0.7880   -0.7054    1.5053 H   0  0  0  0  0  0  0  0  0  0  0  0
    1.2370    0.2475    2.4914 H   0  0  0  0  0  0  0  0  0  0  0  0
    2.5463   -2.0401    0.9364 H   0  0  0  0  0  0  0  0  0  0  0  0
    3.2490   -1.0689    2.3436 H   0  0  0  0  0  0  0  0  0  0  0  0
  1  2  3  0
  1  5  1  0
  2  3  1  0
  3  4  1  0
  3  6  1  0
  3 18  1  0
  4  7  1  0
  4  8  1  0
  4  9  1  0
 10 11  2  3
 10 15  1  0
 10 16  1  0
 11 12  1  0
 11 17  1  0
 12 13  1  0
 12 19  1  0
 13 14  2  3
 13 20  1  0
 14 21  1  0
 14 22  1  0
M  RAD  1  12   2
M  END
>  <reaction>  (14) 
rxn_1135

>  <mol_properties>  (14) 
{"1": {"label": "*4", "atom_type": "Ct"}, "2": {"label": "*3", "atom_type": "Cs"}, "10": {"label": "*0", "atom_type": "Cd"}, "11": {"label": "*1", "atom_type": "Cs"}, "17": {"label": "*2", "atom_type": "H0"}}

>  <type>  (14) 
unop_10

>  <geom_source>  (14) 
Heuristics

$$$$

     RDKit          3D

 22 20  0  0  0  0  0  0  0  0999 V2000
    0.5192    3.2042    0.4868 C   0  0  0  0  0  0  0  0  0  0  0  0
   -0.0473    2.2841   -0.0300 C   0  0  0  0  0  0  0  0  0  0  0  0
   -0.7319    1.1741   -0.6851 C   0  0  0  0  0  0  0  0  0  0  0  0
   -0.7187    1.2866   -2.2106 C   0  0  0  0  0  0  0  0  0  0  0  0
    1.0221    4.0210    0.9455 H   0  0  0  0  0  0  0  0  0  0  0  0
   -1.7623    1.1344   -0.3231 H   0  0  0  0  0  0  0  0  0  0  0  0
   -1.2398    0.4385   -2.6565 H   0  0  0  0  0  0  0  0  0  0  0  0
   -1.2113    2.2034   -2.5348 H   0  0  0  0  0  0  0  0  0  0  0  0
    0.3038    1.3007   -2.5883 H   0  0  0  0  0  0  0  0  0  0  0  0
   -0.4919   -2.1936   -1.3667 C   0  0  0  0  0  0  0  0  0  0  0  0
   -0.4919   -2.1936   -0.0435 C   0  0  0  0  0  0  0  0  0  0  0  0
   -0.4919   -0.9678    0.8145 C   0  0  0  0  0  3  0  0  0  0  0  0
    0.7178   -0.8134    1.6958 C   0  0  0  0  0  0  0  0  0  0  0  0
    1.8289   -1.5291    1.6233 C   0  0  0  0  0  0  0  0  0  0  0  0
   -0.5001   -3.1163   -1.9332 H   0  0  0  0  0  0  0  0  0  0  0  0
   -0.4856   -1.2681   -1.9327 H   0  0  0  0  0  0  0  0  0  0  0  0
   -0.4894   -3.1423    0.4871 H   0  0  0  0  0  0  0  0  0  0  0  0
   -0.6120    0.1042    0.0640 H   0  0  0  0  0  0  0  0  0  0  0  0
   -1.3799   -0.9813    1.4573 H   0  0  0  0  0  0  0  0  0  0  0  0
    0.6451   -0.0284    2.4435 H   0  0  0  0  0  0  0  0  0  0  0  0
    1.9544   -2.3160    0.8884 H   0  0  0  0  0  0  0  0  0  0  0  0
    2.6571   -1.3448    2.2957 H   0  0  0  0  0  0  0  0  0  0  0  0
  1  2  3  0
  1  5  1  0
  2  3  1  0
  3  4  1  0
  3  6  1  0
  3 18  1  0
  4  7  1  0
  4  8  1  0
  4  9  1  0
 10 11  2  3
 10 15  1  0
 10 16  1  0
 11 12  1  0
 11 17  1  0
 12 13  1  0
 12 19  1  0
 13 14  2  3
 13 20  1  0
 14 21  1  0
 14 22  1  0
M  RAD  1  12   2
M  END
>  <reaction>  (15) 
rxn_1135

>  <mol_properties>  (15) 
{"1": {"label": "*4", "atom_type": "Ct"}, "2": {"label": "*3", "atom_type": "Cs"}, "10": {"label": "*0", "atom_type": "Cd"}, "11": {"label": "*1", "atom_type": "Cs"}, "17": {"label": "*2", "atom_type": "H0"}}

>  <type>  (15) 
unop_11

>  <geom_source>  (15) 
Heuristics

$$$$

     RDKit          3D

 22 20  0  0  0  0  0  0  0  0999 V2000
   -0.5353    0.7928   -2.8712 C   0  0  0  0  0  0  0  0  0  0  0  0
   -0.4421    1.1212   -1.7231 C   0  0  0  0  0  0  0  0  0  0  0  0
   -0.3535    1.5344   -0.3262 C   0  0  0  0  0  0  0  0  0  0  0  0
   -1.5618    2.3559    0.1270 C   0  0  0  0  0  0  0  0  0  0  0  0
   -0.6180    0.5014   -3.8904 H   0  0  0  0  0  0  0  0  0  0  0  0
    0.5634    2.1131   -0.1888 H   0  0  0  0  0  0  0  0  0  0  0  0
   -1.4530    2.6419    1.1737 H   0  0  0  0  0  0  0  0  0  0  0  0
   -1.6586    3.2627   -0.4703 H   0  0  0  0  0  0  0  0  0  0  0  0
   -2.4819    1.7811    0.0202 H   0  0  0  0  0  0  0  0  0  0  0  0
   -0.1136   -1.8333   -1.0079 C   0  0  0  0  0  0  0  0  0  0  0  0
   -0.1136   -1.8333    0.3154 C   0  0  0  0  0  0  0  0  0  0  0  0
   -0.1136   -0.6074    1.1734 C   0  0  0  0  0  3  0  0  0  0  0  0
    1.0961   -0.4531    2.0546 C   0  0  0  0  0  0  0  0  0  0  0  0
    2.2073   -1.1688    1.9821 C   0  0  0  0  0  0  0  0  0  0  0  0
   -0.1218   -2.7560   -1.5744 H   0  0  0  0  0  0  0  0  0  0  0  0
   -0.1073   -0.9078   -1.5739 H   0  0  0  0  0  0  0  0  0  0  0  0
   -0.1110   -2.7820    0.8459 H   0  0  0  0  0  0  0  0  0  0  0  0
   -0.2337    0.4645    0.4228 H   0  0  0  0  0  0  0  0  0  0  0  0
   -1.0016   -0.6209    1.8162 H   0  0  0  0  0  0  0  0  0  0  0  0
    1.0234    0.3319    2.8023 H   0  0  0  0  0  0  0  0  0  0  0  0
    2.3327   -1.9556    1.2473 H   0  0  0  0  0  0  0  0  0  0  0  0
    3.0355   -0.9845    2.6545 H   0  0  0  0  0  0  0  0  0  0  0  0
  1  2  3  0
  1  5  1  0
  2  3  1  0
  3  4  1  0
  3  6  1  0
  3 18  1  0
  4  7  1  0
  4  8  1  0
  4  9  1  0
 10 11  2  3
 10 15  1  0
 10 16  1  0
 11 12  1  0
 11 17  1  0
 12 13  1  0
 12 19  1  0
 13 14  2  3
 13 20  1  0
 14 21  1  0
 14 22  1  0
M  RAD  1  12   2
M  END
>  <reaction>  (16) 
rxn_1135

>  <mol_properties>  (16) 
{"1": {"label": "*4", "atom_type": "Ct"}, "2": {"label": "*3", "atom_type": "Cs"}, "10": {"label": "*0", "atom_type": "Cd"}, "11": {"label": "*1", "atom_type": "Cs"}, "17": {"label": "*2", "atom_type": "H0"}}

>  <type>  (16) 
unop_12

>  <geom_source>  (16) 
Heuristics

$$$$

     RDKit          3D

 22 20  0  0  0  0  0  0  0  0999 V2000
    1.5562   -0.7130   -0.1114 C   0  0  0  0  0  0  0  0  0  0  0  0
    2.1166   -0.6738   -1.5266 C   0  0  0  0  0  0  0  0  0  0  0  0
   -1.0562   -0.2963    0.1614 C   0  0  0  0  0  3  0  0  0  0  0  0
   -2.4368   -0.8806    0.1453 C   0  0  0  0  0  0  0  0  0  0  0  0
   -1.1034    1.1995    0.1426 C   0  0  0  0  0  0  0  0  0  0  0  0
   -3.2235   -0.8522    1.2248 C   0  0  0  0  0  0  0  0  0  0  0  0
   -0.7291    1.8771   -0.9430 C   0  0  0  0  0  0  0  0  0  0  0  0
    2.4159    0.0439    0.8051 C   0  0  0  0  0  0  0  0  0  0  0  0
    3.1216    0.6660    1.5590 C   0  0  0  0  0  0  0  0  0  0  0  0
    1.4919   -1.7658    0.2358 H   0  0  0  0  0  0  0  0  0  0  0  0
    0.3436   -0.1840   -0.1043 H   0  0  0  0  0  0  0  0  0  0  0  0
    1.4504   -1.2496   -2.2026 H   0  0  0  0  0  0  0  0  0  0  0  0
    2.1701    0.3747   -1.8904 H   0  0  0  0  0  0  0  0  0  0  0  0
    3.1311   -1.1267   -1.5549 H   0  0  0  0  0  0  0  0  0  0  0  0
   -2.7986   -1.3407   -0.7686 H   0  0  0  0  0  0  0  0  0  0  0  0
   -0.4759   -0.6620    1.0353 H   0  0  0  0  0  0  0  0  0  0  0  0
   -1.4632    1.7363    1.0155 H   0  0  0  0  0  0  0  0  0  0  0  0
   -2.8831   -0.4001    2.1516 H   0  0  0  0  0  0  0  0  0  0  0  0
   -4.2178   -1.2848    1.1837 H   0  0  0  0  0  0  0  0  0  0  0  0
   -0.3753    1.3589   -1.8294 H   0  0  0  0  0  0  0  0  0  0  0  0
   -0.7759    2.9612   -0.9494 H   0  0  0  0  0  0  0  0  0  0  0  0
    3.7412    1.2121    2.2207 H   0  0  0  0  0  0  0  0  0  0  0  0
  1  2  1  0
  1  8  1  0
  1 10  1  0
  1 11  1  0
  2 12  1  0
  2 13  1  0
  2 14  1  0
  3  4  1  0
  3  5  1  0
  3 16  1  0
  4  6  2  3
  4 15  1  0
  5  7  2  3
  5 17  1  0
  6 18  1  0
  6 19  1  0
  7 20  1  0
  7 21  1  0
  8  9  3  0
  9 22  1  0
M  RAD  1   3   2
M  END
>  <reaction>  (17) 
rxn_1135

>  <mol_properties>  (17) 
{"1": {"label": "*4", "atom_type": "Ct"}, "2": {"label": "*3", "atom_type": "Cs"}, "10": {"label": "*0", "atom_type": "Cd"}, "11": {"label": "*1", "atom_type": "Cs"}, "17": {"label": "*2", "atom_type": "H0"}}

>  <type>  (17) 
unop_13

>  <geom_source>  (17) 
AutoTST

$$$$

     RDKit          3D

 22 20  0  0  0  0  0  0  0  0999 V2000
   -1.6204    0.9004   -2.6190 C   0  0  0  0  0  0  0  0  0  0  0  0
   -0.9699    1.1729   -1.6510 C   0  0  0  0  0  0  0  0  0  0  0  0
   -0.1996    1.5181   -0.4604 C   0  0  0  0  0  0  0  0  0  0  0  0
   -1.0151    2.3079    0.5651 C   0  0  0  0  0  0  0  0  0  0  0  0
   -2.1980    0.6585   -3.4784 H   0  0  0  0  0  0  0  0  0  0  0  0
    0.6768    2.0958   -0.7645 H   0  0  0  0  0  0  0  0  0  0  0  0
   -0.4013    2.5432    1.4353 H   0  0  0  0  0  0  0  0  0  0  0  0
   -1.3764    3.2420    0.1348 H   0  0  0  0  0  0  0  0  0  0  0  0
   -1.8792    1.7325    0.8976 H   0  0  0  0  0  0  0  0  0  0  0  0
    0.0403   -1.8496   -1.1420 C   0  0  0  0  0  0  0  0  0  0  0  0
    0.0403   -1.8496    0.1812 C   0  0  0  0  0  0  0  0  0  0  0  0
    0.0403   -0.6238    1.0392 C   0  0  0  0  0  3  0  0  0  0  0  0
    1.2500   -0.4694    1.9204 C   0  0  0  0  0  0  0  0  0  0  0  0
    2.3611   -1.1851    1.8480 C   0  0  0  0  0  0  0  0  0  0  0  0
    0.0321   -2.7723   -1.7086 H   0  0  0  0  0  0  0  0  0  0  0  0
    0.0466   -0.9241   -1.7080 H   0  0  0  0  0  0  0  0  0  0  0  0
    0.0428   -2.7983    0.7117 H   0  0  0  0  0  0  0  0  0  0  0  0
   -0.0798    0.4482    0.2887 H   0  0  0  0  0  0  0  0  0  0  0  0
   -0.8477   -0.6373    1.6820 H   0  0  0  0  0  0  0  0  0  0  0  0
    1.1773    0.3156    2.6681 H   0  0  0  0  0  0  0  0  0  0  0  0
    2.4866   -1.9720    1.1131 H   0  0  0  0  0  0  0  0  0  0  0  0
    3.1894   -1.0008    2.5203 H   0  0  0  0  0  0  0  0  0  0  0  0
  1  2  3  0
  1  5  1  0
  2  3  1  0
  3  4  1  0
  3  6  1  0
  3 18  1  0
  4  7  1  0
  4  8  1  0
  4  9  1  0
 10 11  2  3
 10 15  1  0
 10 16  1  0
 11 12  1  0
 11 17  1  0
 12 13  1  0
 12 19  1  0
 13 14  2  3
 13 20  1  0
 14 21  1  0
 14 22  1  0
M  RAD  1  12   2
M  END
>  <reaction>  (18) 
rxn_1135

>  <mol_properties>  (18) 
{"1": {"label": "*4", "atom_type": "Ct"}, "2": {"label": "*3", "atom_type": "Cs"}, "10": {"label": "*0", "atom_type": "Cd"}, "11": {"label": "*1", "atom_type": "Cs"}, "17": {"label": "*2", "atom_type": "H0"}}

>  <type>  (18) 
unop_14

>  <geom_source>  (18) 
gaussian_log

$$$$
