
     RDKit          3D

  7  6  0  0  0  0  0  0  0  0999 V2000
   -0.6782    0.0507    0.0301 C   0  0  0  0  0  0  0  0  0  0  0  0
    0.8092    0.0996    0.0213 C   0  0  0  0  0  0  0  0  0  0  0  0
    1.7473    0.7521    1.1507 S   0  0  0  0  0  0  0  0  0  0  0  0
   -1.0667    0.5456   -0.8653 H   0  0  0  0  0  0  0  0  0  0  0  0
   -1.0112   -0.9904   -0.0239 H   0  0  0  0  0  0  0  0  0  0  0  0
   -1.0920    0.5225    0.9188 H   0  0  0  0  0  0  0  0  0  0  0  0
    1.2740   -0.3620   -0.8520 H   0  0  0  0  0  0  0  0  0  0  0  0
  1  2  1  0
  1  4  1  0
  1  5  1  0
  1  6  1  0
  2  3  2  0
  2  7  1  0
M  END
>  <reaction>  (1) 
rxn_1982

>  <mol_properties>  (1) 
{"0": {"label": "donator", "atom_type": "Cs"}, "3": {"label": "d_hydrogen", "atom_type": "H0"}}

>  <type>  (1) 
r1h

$$$$

     RDKit          3D

 12 11  0  0  0  0  0  0  0  0999 V2000
   -0.9951    0.1196   -0.8321 C   0  0  0  0  0  0  0  0  0  0  0  0
   -0.3760    0.2571    0.5231 C   0  0  0  0  0  3  0  0  0  0  0  0
    0.9330   -0.1537    0.7810 C   0  0  0  0  0  0  0  0  0  0  0  0
    1.5987   -0.1880    1.9734 C   0  0  0  0  0  0  0  0  0  0  0  0
   -1.4483    0.9449    1.7152 S   0  0  0  0  0  0  0  0  0  0  0  0
   -1.9164   -0.4696   -0.7936 H   0  0  0  0  0  0  0  0  0  0  0  0
   -1.2565    1.0958   -1.2506 H   0  0  0  0  0  0  0  0  0  0  0  0
   -0.3088   -0.3780   -1.5170 H   0  0  0  0  0  0  0  0  0  0  0  0
    1.4783   -0.4898   -0.0971 H   0  0  0  0  0  0  0  0  0  0  0  0
    2.6278   -0.5153    2.0142 H   0  0  0  0  0  0  0  0  0  0  0  0
    1.1316    0.0690    2.9151 H   0  0  0  0  0  0  0  0  0  0  0  0
   -0.5306    1.3052    2.6211 H   0  0  0  0  0  0  0  0  0  0  0  0
  1  2  1  0
  1  6  1  0
  1  7  1  0
  1  8  1  0
  2  3  1  0
  2  5  1  0
  3  4  2  3
  3  9  1  0
  4 10  1  0
  4 11  1  0
  5 12  1  0
M  RAD  1   2   2
M  END
>  <reaction>  (2) 
rxn_1982

>  <mol_properties>  (2) 
{"1": {"label": "acceptor", "atom_type": "Cs"}}

>  <type>  (2) 
r2

$$$$

     RDKit          3D

 13 12  0  0  0  0  0  0  0  0999 V2000
   -1.1828    0.8269   -0.1645 C   0  0  0  0  0  0  0  0  0  0  0  0
   -0.4827   -0.4584   -0.5736 C   0  0  1  0  0  0  0  0  0  0  0  0
   -0.9759   -1.7030    0.1030 C   0  0  0  0  0  0  0  0  0  0  0  0
   -2.0084   -1.7831    0.9287 C   0  0  0  0  0  0  0  0  0  0  0  0
   -0.4908   -0.7025   -2.3913 S   0  0  0  0  0  0  0  0  0  0  0  0
   -1.0941    0.9860    0.9125 H   0  0  0  0  0  0  0  0  0  0  0  0
   -0.7405    1.6784   -0.6793 H   0  0  0  0  0  0  0  0  0  0  0  0
   -2.2437    0.7943   -0.4195 H   0  0  0  0  0  0  0  0  0  0  0  0
    0.5870   -0.3637   -0.3637 H   0  0  0  0  0  0  0  0  0  0  0  0
   -0.4209   -2.6026   -0.1443 H   0  0  0  0  0  0  0  0  0  0  0  0
   -2.2982   -2.7315    1.3623 H   0  0  0  0  0  0  0  0  0  0  0  0
   -2.5999   -0.9190    1.2055 H   0  0  0  0  0  0  0  0  0  0  0  0
   -1.8040   -0.9489   -2.4971 H   0  0  0  0  0  0  0  0  0  0  0  0
  1  2  1  0
  1  6  1  0
  1  7  1  0
  1  8  1  0
  2  3  1  0
  2  5  1  0
  2  9  1  1
  3  4  2  3
  3 10  1  0
  4 11  1  0
  4 12  1  0
  5 13  1  0
M  END
>  <reaction>  (3) 
rxn_1982

>  <mol_properties>  (3) 
{"1": {"label": "acceptor", "atom_type": "Cs"}, "12": {"label": "a_hydrogen", "atom_type": "H0"}}

>  <type>  (3) 
r2h

$$$$

     RDKit          3D

 19 17  0  0  0  0  0  0  0  0999 V2000
   -1.3524   -1.2376    1.5041 C   0  0  0  0  0  0  0  0  0  0  0  0
   -0.7982    0.1262    1.1697 C   0  0  0  0  0  3  0  0  0  0  0  0
   -1.6169    1.0409    0.3661 C   0  0  0  0  0  0  0  0  0  0  0  0
   -2.6815    0.6897   -0.3528 C   0  0  0  0  0  0  0  0  0  0  0  0
    0.0620    0.8473    2.5521 S   0  0  0  0  0  0  0  0  0  0  0  0
   -2.2370   -1.1540    2.1402 H   0  0  0  0  0  0  0  0  0  0  0  0
   -1.6378   -1.7673    0.5946 H   0  0  0  0  0  0  0  0  0  0  0  0
   -0.6079   -1.8402    2.0244 H   0  0  0  0  0  0  0  0  0  0  0  0
   -1.2766    2.0699    0.3248 H   0  0  0  0  0  0  0  0  0  0  0  0
   -3.2061    1.4222   -0.9518 H   0  0  0  0  0  0  0  0  0  0  0  0
   -3.0736   -0.3196   -0.3601 H   0  0  0  0  0  0  0  0  0  0  0  0
    0.5198    1.9284    1.9017 H   0  0  0  0  0  0  0  0  0  0  0  0
    1.2650   -0.3651   -0.4819 C   0  0  0  0  0  0  0  0  0  0  0  0
    1.2010    0.7025   -1.4199 C   0  0  0  0  0  0  0  0  0  0  0  0
    1.6745    2.2454   -1.1193 S   0  0  0  0  0  0  0  0  0  0  0  0
    0.1937   -0.1542    0.3001 H   0  0  0  0  0  0  0  0  0  0  0  0
    1.0983   -1.3714   -0.8579 H   0  0  0  0  0  0  0  0  0  0  0  0
    2.0034   -0.2781    0.3111 H   0  0  0  0  0  0  0  0  0  0  0  0
    0.7295    0.4790   -2.3761 H   0  0  0  0  0  0  0  0  0  0  0  0
  1  2  1  0
  1  6  1  0
  1  7  1  0
  1  8  1  0
  2  3  1  0
  2  5  1  0
  3  4  2  3
  3  9  1  0
  4 10  1  0
  4 11  1  0
  5 12  1  0
 13 14  1  0
 13 16  1  0
 13 17  1  0
 13 18  1  0
 14 15  2  0
 14 19  1  0
M  RAD  1   2   2
M  END
>  <reaction>  (4) 
rxn_1982

>  <mol_properties>  (4) 
{"1": {"label": "*3", "atom_type": "Cs"}, "4": {"label": "*4", "atom_type": "S2s"}, "12": {"label": "*1", "atom_type": "Cs"}, "13": {"label": "*0", "atom_type": "CS"}, "15": {"label": "*2", "atom_type": "H0"}}

>  <type>  (4) 
ts

$$$$

     RDKit          3D

 19 17  0  0  0  0  0  0  0  0999 V2000
   -0.1379    0.0726    2.6674 C   0  0  0  0  0  0  0  0  0  0  0  0
   -0.6024    0.0912    1.2206 C   0  0  0  0  0  0  0  0  0  0  0  0
   -2.0055   -0.3861    0.9892 C   0  0  0  0  0  0  0  0  0  0  0  0
   -2.8795   -0.7178    1.9274 C   0  0  0  0  0  0  0  0  0  0  0  0
   -0.3767    1.7366    0.4424 S   0  0  0  0  0  0  0  0  0  0  0  0
   -0.7450    0.7388    3.2832 H   0  0  0  0  0  0  0  0  0  0  0  0
   -0.2099   -0.9361    3.0805 H   0  0  0  0  0  0  0  0  0  0  0  0
    0.8973    0.4034    2.7362 H   0  0  0  0  0  0  0  0  0  0  0  0
   -2.3003   -0.4353   -0.0544 H   0  0  0  0  0  0  0  0  0  0  0  0
   -3.8780   -1.0422    1.6641 H   0  0  0  0  0  0  0  0  0  0  0  0
   -2.6406   -0.6823    2.9832 H   0  0  0  0  0  0  0  0  0  0  0  0
   -1.3336    2.3597    1.1443 H   0  0  0  0  0  0  0  0  0  0  0  0
    1.5002    0.1558   -0.3519 C   0  0  0  0  0  0  0  0  0  0  0  0
    1.5002   -1.0427   -1.2341 C   0  0  0  0  0  0  0  0  0  0  0  0
    1.5002   -1.0427   -2.8407 S   0  0  0  0  0  1  0  0  0  0  0  0
    0.4488    0.1235    0.4344 H   0  0  0  0  0  0  0  0  0  0  0  0
    2.3763    0.1289    0.3034 H   0  0  0  0  0  0  0  0  0  0  0  0
    1.5002    1.0795   -0.9265 H   0  0  0  0  0  0  0  0  0  0  0  0
    1.5002   -1.9971   -0.7041 H   0  0  0  0  0  0  0  0  0  0  0  0
  1  2  1  0
  1  6  1  0
  1  7  1  0
  1  8  1  0
  2  3  1  0
  2  5  1  0
  2 16  1  0
  3  4  2  3
  3  9  1  0
  4 10  1  0
  4 11  1  0
  5 12  1  0
 13 14  2  3
 13 17  1  0
 13 18  1  0
 14 15  1  0
 14 19  1  0
M  RAD  1  15   2
M  END
>  <reaction>  (5) 
rxn_1982

>  <mol_properties>  (5) 
{"1": {"label": "*3", "atom_type": "Cs"}, "4": {"label": "*4", "atom_type": "S2s"}, "12": {"label": "*1", "atom_type": "Cs"}, "13": {"label": "*0", "atom_type": "CS"}, "15": {"label": "*2", "atom_type": "H0"}}

>  <type>  (5) 
unop_1

>  <geom_source>  (5) 
Heuristics

$$$$

     RDKit          3D

 19 17  0  0  0  0  0  0  0  0999 V2000
   -1.0881   -1.2528    1.2260 C   0  0  0  0  0  0  0  0  0  0  0  0
   -0.7163    0.1958    0.9561 C   0  0  0  0  0  0  0  0  0  0  0  0
   -1.8719    1.1252    0.7306 C   0  0  0  0  0  0  0  0  0  0  0  0
   -3.1544    0.8144    0.8436 C   0  0  0  0  0  0  0  0  0  0  0  0
    0.3803    0.8826    2.2559 S   0  0  0  0  0  0  0  0  0  0  0  0
   -1.6776   -1.3429    2.1403 H   0  0  0  0  0  0  0  0  0  0  0  0
   -1.6746   -1.6588    0.3988 H   0  0  0  0  0  0  0  0  0  0  0  0
   -0.1903   -1.8573    1.3453 H   0  0  0  0  0  0  0  0  0  0  0  0
   -1.5913    2.1406    0.4687 H   0  0  0  0  0  0  0  0  0  0  0  0
   -3.9216    1.5582    0.6715 H   0  0  0  0  0  0  0  0  0  0  0  0
   -3.4902   -0.1811    1.1073 H   0  0  0  0  0  0  0  0  0  0  0  0
   -0.5466    0.9146    3.2235 H   0  0  0  0  0  0  0  0  0  0  0  0
    1.3862    0.2603   -0.6164 C   0  0  0  0  0  0  0  0  0  0  0  0
    1.3862   -0.9382   -1.4986 C   0  0  0  0  0  0  0  0  0  0  0  0
    1.3862   -0.9382   -3.1053 S   0  0  0  0  0  1  0  0  0  0  0  0
    0.3349    0.2280    0.1699 H   0  0  0  0  0  0  0  0  0  0  0  0
    2.2624    0.2334    0.0388 H   0  0  0  0  0  0  0  0  0  0  0  0
    1.3862    1.1841   -1.1911 H   0  0  0  0  0  0  0  0  0  0  0  0
    1.3863   -1.8926   -0.9687 H   0  0  0  0  0  0  0  0  0  0  0  0
  1  2  1  0
  1  6  1  0
  1  7  1  0
  1  8  1  0
  2  3  1  0
  2  5  1  0
  2 16  1  0
  3  4  2  3
  3  9  1  0
  4 10  1  0
  4 11  1  0
  5 12  1  0
 13 14  2  3
 13 17  1  0
 13 18  1  0
 14 15  1  0
 14 19  1  0
M  RAD  1  15   2
M  END
>  <reaction>  (6) 
rxn_1982

>  <mol_properties>  (6) 
{"1": {"label": "*3", "atom_type": "Cs"}, "4": {"label": "*4", "atom_type": "S2s"}, "12": {"label": "*1", "atom_type": "Cs"}, "13": {"label": "*0", "atom_type": "CS"}, "15": {"label": "*2", "atom_type": "H0"}}

>  <type>  (6) 
unop_2

>  <geom_source>  (6) 
Heuristics

$$$$

     RDKit          3D

 19 17  0  0  0  0  0  0  0  0999 V2000
   -0.1764    0.9438    2.5809 C   0  0  0  0  0  0  0  0  0  0  0  0
   -0.5134    0.2434    1.2751 C   0  0  0  0  0  0  0  0  0  0  0  0
   -1.5094   -0.8731    1.3822 C   0  0  0  0  0  0  0  0  0  0  0  0
   -2.1739   -1.2212    2.4738 C   0  0  0  0  0  0  0  0  0  0  0  0
   -1.0486    1.4219   -0.0244 S   0  0  0  0  0  0  0  0  0  0  0  0
   -1.0593    1.4222    3.0089 H   0  0  0  0  0  0  0  0  0  0  0  0
    0.2136    0.2297    3.3097 H   0  0  0  0  0  0  0  0  0  0  0  0
    0.5742    1.7146    2.4134 H   0  0  0  0  0  0  0  0  0  0  0  0
   -1.6875   -1.4109    0.4563 H   0  0  0  0  0  0  0  0  0  0  0  0
   -2.8844   -2.0374    2.4527 H   0  0  0  0  0  0  0  0  0  0  0  0
   -2.0392   -0.7160    3.4224 H   0  0  0  0  0  0  0  0  0  0  0  0
   -2.2236    1.7338    0.5400 H   0  0  0  0  0  0  0  0  0  0  0  0
    1.5892    0.3079   -0.2974 C   0  0  0  0  0  0  0  0  0  0  0  0
    1.5892   -0.8905   -1.1796 C   0  0  0  0  0  0  0  0  0  0  0  0
    1.5892   -0.8905   -2.7863 S   0  0  0  0  0  1  0  0  0  0  0  0
    0.5378    0.2757    0.4889 H   0  0  0  0  0  0  0  0  0  0  0  0
    2.4654    0.2810    0.3578 H   0  0  0  0  0  0  0  0  0  0  0  0
    1.5892    1.2317   -0.8721 H   0  0  0  0  0  0  0  0  0  0  0  0
    1.5892   -1.8450   -0.6497 H   0  0  0  0  0  0  0  0  0  0  0  0
  1  2  1  0
  1  6  1  0
  1  7  1  0
  1  8  1  0
  2  3  1  0
  2  5  1  0
  2 16  1  0
  3  4  2  3
  3  9  1  0
  4 10  1  0
  4 11  1  0
  5 12  1  0
 13 14  2  3
 13 17  1  0
 13 18  1  0
 14 15  1  0
 14 19  1  0
M  RAD  1  15   2
M  END
>  <reaction>  (7) 
rxn_1982

>  <mol_properties>  (7) 
{"1": {"label": "*3", "atom_type": "Cs"}, "4": {"label": "*4", "atom_type": "S2s"}, "12": {"label": "*1", "atom_type": "Cs"}, "13": {"label": "*0", "atom_type": "CS"}, "15": {"label": "*2", "atom_type": "H0"}}

>  <type>  (7) 
unop_3

>  <geom_source>  (7) 
Heuristics

$$$$

     RDKit          3D

 19 17  0  0  0  0  0  0  0  0999 V2000
   -1.9727    0.1963    0.0990 C   0  0  0  0  0  0  0  0  0  0  0  0
   -0.7159    0.2021    0.9533 C   0  0  0  0  0  0  0  0  0  0  0  0
   -0.2048    1.5591    1.3367 C   0  0  0  0  0  0  0  0  0  0  0  0
   -0.7991    2.7152    1.0824 C   0  0  0  0  0  0  0  0  0  0  0  0
   -0.8957   -0.8341    2.4559 S   0  0  0  0  0  0  0  0  0  0  0  0
   -2.8110    0.6500    0.6310 H   0  0  0  0  0  0  0  0  0  0  0  0
   -1.8107    0.7553   -0.8254 H   0  0  0  0  0  0  0  0  0  0  0  0
   -2.2512   -0.8249   -0.1565 H   0  0  0  0  0  0  0  0  0  0  0  0
    0.7316    1.5514    1.8858 H   0  0  0  0  0  0  0  0  0  0  0  0
   -0.3584    3.6480    1.4095 H   0  0  0  0  0  0  0  0  0  0  0  0
   -1.7363    2.7808    0.5434 H   0  0  0  0  0  0  0  0  0  0  0  0
   -1.7688   -0.0312    3.0801 H   0  0  0  0  0  0  0  0  0  0  0  0
    1.3867    0.2666   -0.6192 C   0  0  0  0  0  0  0  0  0  0  0  0
    1.3867   -0.9319   -1.5014 C   0  0  0  0  0  0  0  0  0  0  0  0
    1.3867   -0.9319   -3.1081 S   0  0  0  0  0  1  0  0  0  0  0  0
    0.3354    0.2343    0.1671 H   0  0  0  0  0  0  0  0  0  0  0  0
    2.2629    0.2397    0.0360 H   0  0  0  0  0  0  0  0  0  0  0  0
    1.3867    1.1904   -1.1939 H   0  0  0  0  0  0  0  0  0  0  0  0
    1.3867   -1.8863   -0.9715 H   0  0  0  0  0  0  0  0  0  0  0  0
  1  2  1  0
  1  6  1  0
  1  7  1  0
  1  8  1  0
  2  3  1  0
  2  5  1  0
  2 16  1  0
  3  4  2  3
  3  9  1  0
  4 10  1  0
  4 11  1  0
  5 12  1  0
 13 14  2  3
 13 17  1  0
 13 18  1  0
 14 15  1  0
 14 19  1  0
M  RAD  1  15   2
M  END
>  <reaction>  (8) 
rxn_1982

>  <mol_properties>  (8) 
{"1": {"label": "*3", "atom_type": "Cs"}, "4": {"label": "*4", "atom_type": "S2s"}, "12": {"label": "*1", "atom_type": "Cs"}, "13": {"label": "*0", "atom_type": "CS"}, "15": {"label": "*2", "atom_type": "H0"}}

>  <type>  (8) 
unop_4

>  <geom_source>  (8) 
Heuristics

$$$$

     RDKit          3D

 19 17  0  0  0  0  0  0  0  0999 V2000
   -0.5215    1.6958    2.0551 C   0  0  0  0  0  0  0  0  0  0  0  0
   -0.5345    0.4672    1.1608 C   0  0  0  0  0  0  0  0  0  0  0  0
   -0.5326   -0.8504    1.8776 C   0  0  0  0  0  0  0  0  0  0  0  0
   -0.6191   -1.0239    3.1879 C   0  0  0  0  0  0  0  0  0  0  0  0
   -1.9123    0.5066   -0.0492 S   0  0  0  0  0  0  0  0  0  0  0  0
   -1.4164    1.7368    2.6788 H   0  0  0  0  0  0  0  0  0  0  0  0
    0.3524    1.6840    2.7104 H   0  0  0  0  0  0  0  0  0  0  0  0
   -0.4916    2.6018    1.4520 H   0  0  0  0  0  0  0  0  0  0  0  0
   -0.4700   -1.7184    1.2287 H   0  0  0  0  0  0  0  0  0  0  0  0
   -0.6210   -2.0180    3.6158 H   0  0  0  0  0  0  0  0  0  0  0  0
   -0.6890   -0.1943    3.8807 H   0  0  0  0  0  0  0  0  0  0  0  0
   -2.8937    0.3216    0.8448 H   0  0  0  0  0  0  0  0  0  0  0  0
    1.5681    0.5317   -0.4117 C   0  0  0  0  0  0  0  0  0  0  0  0
    1.5681   -0.6667   -1.2939 C   0  0  0  0  0  0  0  0  0  0  0  0
    1.5681   -0.6667   -2.9005 S   0  0  0  0  0  1  0  0  0  0  0  0
    0.5167    0.4995    0.3746 H   0  0  0  0  0  0  0  0  0  0  0  0
    2.4442    0.5048    0.2435 H   0  0  0  0  0  0  0  0  0  0  0  0
    1.5680    1.4555   -0.9864 H   0  0  0  0  0  0  0  0  0  0  0  0
    1.5681   -1.6212   -0.7639 H   0  0  0  0  0  0  0  0  0  0  0  0
  1  2  1  0
  1  6  1  0
  1  7  1  0
  1  8  1  0
  2  3  1  0
  2  5  1  0
  2 16  1  0
  3  4  2  3
  3  9  1  0
  4 10  1  0
  4 11  1  0
  5 12  1  0
 13 14  2  3
 13 17  1  0
 13 18  1  0
 14 15  1  0
 14 19  1  0
M  RAD  1  15   2
M  END
>  <reaction>  (9) 
rxn_1982

>  <mol_properties>  (9) 
{"1": {"label": "*3", "atom_type": "Cs"}, "4": {"label": "*4", "atom_type": "S2s"}, "12": {"label": "*1", "atom_type": "Cs"}, "13": {"label": "*0", "atom_type": "CS"}, "15": {"label": "*2", "atom_type": "H0"}}

>  <type>  (9) 
unop_5

>  <geom_source>  (9) 
Heuristics

$$$$

     RDKit          3D

 19 17  0  0  0  0  0  0  0  0999 V2000
   -1.9262    0.9726    0.2260 C   0  0  0  0  0  0  0  0  0  0  0  0
   -0.7725    0.2610    0.9130 C   0  0  0  0  0  0  0  0  0  0  0  0
    0.2000    1.1526    1.6265 C   0  0  0  0  0  0  0  0  0  0  0  0
    0.0829    2.4623    1.7859 C   0  0  0  0  0  0  0  0  0  0  0  0
   -1.3510   -1.0543    2.0529 S   0  0  0  0  0  0  0  0  0  0  0  0
   -2.5446    1.5068    0.9497 H   0  0  0  0  0  0  0  0  0  0  0  0
   -1.5519    1.6943   -0.5036 H   0  0  0  0  0  0  0  0  0  0  0  0
   -2.5601    0.2533   -0.2902 H   0  0  0  0  0  0  0  0  0  0  0  0
    1.0567    0.6391    2.0518 H   0  0  0  0  0  0  0  0  0  0  0  0
    0.8332    3.0233    2.3278 H   0  0  0  0  0  0  0  0  0  0  0  0
   -0.7531    3.0239    1.3875 H   0  0  0  0  0  0  0  0  0  0  0  0
   -1.8734   -0.2290    2.9708 H   0  0  0  0  0  0  0  0  0  0  0  0
    1.3301    0.3255   -0.6595 C   0  0  0  0  0  0  0  0  0  0  0  0
    1.3301   -0.8729   -1.5417 C   0  0  0  0  0  0  0  0  0  0  0  0
    1.3301   -0.8729   -3.1484 S   0  0  0  0  0  1  0  0  0  0  0  0
    0.2787    0.2933    0.1268 H   0  0  0  0  0  0  0  0  0  0  0  0
    2.2063    0.2987   -0.0043 H   0  0  0  0  0  0  0  0  0  0  0  0
    1.3301    1.2493   -1.2342 H   0  0  0  0  0  0  0  0  0  0  0  0
    1.3301   -1.8273   -1.0118 H   0  0  0  0  0  0  0  0  0  0  0  0
  1  2  1  0
  1  6  1  0
  1  7  1  0
  1  8  1  0
  2  3  1  0
  2  5  1  0
  2 16  1  0
  3  4  2  3
  3  9  1  0
  4 10  1  0
  4 11  1  0
  5 12  1  0
 13 14  2  3
 13 17  1  0
 13 18  1  0
 14 15  1  0
 14 19  1  0
M  RAD  1  15   2
M  END
>  <reaction>  (10) 
rxn_1982

>  <mol_properties>  (10) 
{"1": {"label": "*3", "atom_type": "Cs"}, "4": {"label": "*4", "atom_type": "S2s"}, "12": {"label": "*1", "atom_type": "Cs"}, "13": {"label": "*0", "atom_type": "CS"}, "15": {"label": "*2", "atom_type": "H0"}}

>  <type>  (10) 
unop_6

>  <geom_source>  (10) 
Heuristics

$$$$

     RDKit          3D

 19 17  0  0  0  0  0  0  0  0999 V2000
   -1.6303    1.6181    0.6477 C   0  0  0  0  0  0  0  0  0  0  0  0
   -0.7827    0.3831    0.9039 C   0  0  0  0  0  0  0  0  0  0  0  0
    0.3740    0.5793    1.8385 C   0  0  0  0  0  0  0  0  0  0  0  0
    0.6486    1.6837    2.5162 C   0  0  0  0  0  0  0  0  0  0  0  0
   -1.7901   -1.0437    1.4636 S   0  0  0  0  0  0  0  0  0  0  0  0
   -2.0965    1.9723    1.5690 H   0  0  0  0  0  0  0  0  0  0  0  0
   -1.0179    2.4261    0.2411 H   0  0  0  0  0  0  0  0  0  0  0  0
   -2.4232    1.3913   -0.0634 H   0  0  0  0  0  0  0  0  0  0  0  0
    1.0123   -0.2907    1.9572 H   0  0  0  0  0  0  0  0  0  0  0  0
    1.5033    1.7286    3.1787 H   0  0  0  0  0  0  0  0  0  0  0  0
    0.0429    2.5784    2.4397 H   0  0  0  0  0  0  0  0  0  0  0  0
   -2.0875   -0.5443    2.6714 H   0  0  0  0  0  0  0  0  0  0  0  0
    1.3199    0.4477   -0.6686 C   0  0  0  0  0  0  0  0  0  0  0  0
    1.3199   -0.7508   -1.5508 C   0  0  0  0  0  0  0  0  0  0  0  0
    1.3199   -0.7508   -3.1574 S   0  0  0  0  0  1  0  0  0  0  0  0
    0.2686    0.4154    0.1177 H   0  0  0  0  0  0  0  0  0  0  0  0
    2.1961    0.4208   -0.0134 H   0  0  0  0  0  0  0  0  0  0  0  0
    1.3199    1.3715   -1.2433 H   0  0  0  0  0  0  0  0  0  0  0  0
    1.3199   -1.7052   -1.0208 H   0  0  0  0  0  0  0  0  0  0  0  0
  1  2  1  0
  1  6  1  0
  1  7  1  0
  1  8  1  0
  2  3  1  0
  2  5  1  0
  2 16  1  0
  3  4  2  3
  3  9  1  0
  4 10  1  0
  4 11  1  0
  5 12  1  0
 13 14  2  3
 13 17  1  0
 13 18  1  0
 14 15  1  0
 14 19  1  0
M  RAD  1  15   2
M  END
>  <reaction>  (11) 
rxn_1982

>  <mol_properties>  (11) 
{"1": {"label": "*3", "atom_type": "Cs"}, "4": {"label": "*4", "atom_type": "S2s"}, "12": {"label": "*1", "atom_type": "Cs"}, "13": {"label": "*0", "atom_type": "CS"}, "15": {"label": "*2", "atom_type": "H0"}}

>  <type>  (11) 
unop_7

>  <geom_source>  (11) 
Heuristics

$$$$

     RDKit          3D

 19 17  0  0  0  0  0  0  0  0999 V2000
   -0.3275   -0.6747    2.3838 C   0  0  0  0  0  0  0  0  0  0  0  0
   -0.6890    0.0612    1.1043 C   0  0  0  0  0  0  0  0  0  0  0  0
   -2.1567    0.1591    0.8111 C   0  0  0  0  0  0  0  0  0  0  0  0
   -3.1376   -0.2446    1.6043 C   0  0  0  0  0  0  0  0  0  0  0  0
    0.0654    1.7314    1.0299 S   0  0  0  0  0  0  0  0  0  0  0  0
   -0.7349   -0.1644    3.2586 H   0  0  0  0  0  0  0  0  0  0  0  0
   -0.7235   -1.6926    2.3658 H   0  0  0  0  0  0  0  0  0  0  0  0
    0.7542   -0.7245    2.4984 H   0  0  0  0  0  0  0  0  0  0  0  0
   -2.3981    0.6238   -0.1398 H   0  0  0  0  0  0  0  0  0  0  0  0
   -4.1724   -0.1221    1.3116 H   0  0  0  0  0  0  0  0  0  0  0  0
   -2.9541   -0.7093    2.5653 H   0  0  0  0  0  0  0  0  0  0  0  0
   -0.6923    2.2740    1.9933 H   0  0  0  0  0  0  0  0  0  0  0  0
    1.4136    0.1258   -0.4682 C   0  0  0  0  0  0  0  0  0  0  0  0
    1.4136   -1.0727   -1.3504 C   0  0  0  0  0  0  0  0  0  0  0  0
    1.4136   -1.0727   -2.9570 S   0  0  0  0  0  1  0  0  0  0  0  0
    0.3623    0.0935    0.3181 H   0  0  0  0  0  0  0  0  0  0  0  0
    2.2898    0.0989    0.1870 H   0  0  0  0  0  0  0  0  0  0  0  0
    1.4136    1.0496   -1.0428 H   0  0  0  0  0  0  0  0  0  0  0  0
    1.4136   -2.0271   -0.8204 H   0  0  0  0  0  0  0  0  0  0  0  0
  1  2  1  0
  1  6  1  0
  1  7  1  0
  1  8  1  0
  2  3  1  0
  2  5  1  0
  2 16  1  0
  3  4  2  3
  3  9  1  0
  4 10  1  0
  4 11  1  0
  5 12  1  0
 13 14  2  3
 13 17  1  0
 13 18  1  0
 14 15  1  0
 14 19  1  0
M  RAD  1  15   2
M  END
>  <reaction>  (12) 
rxn_1982

>  <mol_properties>  (12) 
{"1": {"label": "*3", "atom_type": "Cs"}, "4": {"label": "*4", "atom_type": "S2s"}, "12": {"label": "*1", "atom_type": "Cs"}, "13": {"label": "*0", "atom_type": "CS"}, "15": {"label": "*2", "atom_type": "H0"}}

>  <type>  (12) 
unop_8

>  <geom_source>  (12) 
Heuristics

$$$$

     RDKit          3D

 19 17  0  0  0  0  0  0  0  0999 V2000
   -1.7979   -0.5150    0.2636 C   0  0  0  0  0  0  0  0  0  0  0  0
   -0.6686    0.2098    0.9768 C   0  0  0  0  0  0  0  0  0  0  0  0
   -0.7894    1.7042    1.0203 C   0  0  0  0  0  0  0  0  0  0  0  0
   -1.8202    2.4147    0.5878 C   0  0  0  0  0  0  0  0  0  0  0  0
   -0.3948   -0.4343    2.6722 S   0  0  0  0  0  0  0  0  0  0  0  0
   -2.7522   -0.3450    0.7654 H   0  0  0  0  0  0  0  0  0  0  0  0
   -1.8863   -0.1664   -0.7679 H   0  0  0  0  0  0  0  0  0  0  0  0
   -1.6112   -1.5878    0.2531 H   0  0  0  0  0  0  0  0  0  0  0  0
    0.0575    2.2138    1.4691 H   0  0  0  0  0  0  0  0  0  0  0  0
   -1.8228    3.4938    0.6712 H   0  0  0  0  0  0  0  0  0  0  0  0
   -2.6927    1.9581    0.1368 H   0  0  0  0  0  0  0  0  0  0  0  0
   -1.5305    0.0493    3.1945 H   0  0  0  0  0  0  0  0  0  0  0  0
    1.4340    0.2743   -0.5957 C   0  0  0  0  0  0  0  0  0  0  0  0
    1.4340   -0.9242   -1.4779 C   0  0  0  0  0  0  0  0  0  0  0  0
    1.4340   -0.9242   -3.0845 S   0  0  0  0  0  1  0  0  0  0  0  0
    0.3826    0.2420    0.1906 H   0  0  0  0  0  0  0  0  0  0  0  0
    2.3102    0.2474    0.0596 H   0  0  0  0  0  0  0  0  0  0  0  0
    1.4340    1.1981   -1.1703 H   0  0  0  0  0  0  0  0  0  0  0  0
    1.4340   -1.8786   -0.9479 H   0  0  0  0  0  0  0  0  0  0  0  0
  1  2  1  0
  1  6  1  0
  1  7  1  0
  1  8  1  0
  2  3  1  0
  2  5  1  0
  2 16  1  0
  3  4  2  3
  3  9  1  0
  4 10  1  0
  4 11  1  0
  5 12  1  0
 13 14  2  3
 13 17  1  0
 13 18  1  0
 14 15  1  0
 14 19  1  0
M  RAD  1  15   2
M  END
>  <reaction>  (13) 
rxn_1982

>  <mol_properties>  (13) 
{"1": {"label": "*3", "atom_type": "Cs"}, "4": {"label": "*4", "atom_type": "S2s"}, "12": {"label": "*1", "atom_type": "Cs"}, "13": {"label": "*0", "atom_type": "CS"}, "15": {"label": "*2", "atom_type": "H0"}}

>  <type>  (13) 
unop_9

>  <geom_source>  (13) 
Heuristics

$$$$

     RDKit          3D

 19 17  0  0  0  0  0  0  0  0999 V2000
   -0.6761   -1.1428    1.8513 C   0  0  0  0  0  0  0  0  0  0  0  0
   -0.7314    0.1165    1.0025 C   0  0  0  0  0  0  0  0  0  0  0  0
   -2.1058    0.6599    0.7465 C   0  0  0  0  0  0  0  0  0  0  0  0
   -3.2337    0.2016    1.2681 C   0  0  0  0  0  0  0  0  0  0  0  0
    0.3416    1.4470    1.6677 S   0  0  0  0  0  0  0  0  0  0  0  0
   -1.0748   -0.9603    2.8509 H   0  0  0  0  0  0  0  0  0  0  0  0
   -1.2605   -1.9422    1.3901 H   0  0  0  0  0  0  0  0  0  0  0  0
    0.3532   -1.4817    1.9578 H   0  0  0  0  0  0  0  0  0  0  0  0
   -2.1367    1.5171    0.0811 H   0  0  0  0  0  0  0  0  0  0  0  0
   -4.1820    0.6673    1.0328 H   0  0  0  0  0  0  0  0  0  0  0  0
   -3.2604   -0.6465    1.9413 H   0  0  0  0  0  0  0  0  0  0  0  0
   -0.4021    1.7018    2.7533 H   0  0  0  0  0  0  0  0  0  0  0  0
    1.3712    0.1811   -0.5700 C   0  0  0  0  0  0  0  0  0  0  0  0
    1.3712   -1.0174   -1.4522 C   0  0  0  0  0  0  0  0  0  0  0  0
    1.3712   -1.0174   -3.0588 S   0  0  0  0  0  1  0  0  0  0  0  0
    0.3198    0.1488    0.2163 H   0  0  0  0  0  0  0  0  0  0  0  0
    2.2474    0.1542    0.0853 H   0  0  0  0  0  0  0  0  0  0  0  0
    1.3712    1.1048   -1.1446 H   0  0  0  0  0  0  0  0  0  0  0  0
    1.3712   -1.9718   -0.9222 H   0  0  0  0  0  0  0  0  0  0  0  0
  1  2  1  0
  1  6  1  0
  1  7  1  0
  1  8  1  0
  2  3  1  0
  2  5  1  0
  2 16  1  0
  3  4  2  3
  3  9  1  0
  4 10  1  0
  4 11  1  0
  5 12  1  0
 13 14  2  3
 13 17  1  0
 13 18  1  0
 14 15  1  0
 14 19  1  0
M  RAD  1  15   2
M  END
>  <reaction>  (14) 
rxn_1982

>  <mol_properties>  (14) 
{"1": {"label": "*3", "atom_type": "Cs"}, "4": {"label": "*4", "atom_type": "S2s"}, "12": {"label": "*1", "atom_type": "Cs"}, "13": {"label": "*0", "atom_type": "CS"}, "15": {"label": "*2", "atom_type": "H0"}}

>  <type>  (14) 
unop_10

>  <geom_source>  (14) 
Heuristics

$$$$

     RDKit          3D

 19 17  0  0  0  0  0  0  0  0999 V2000
   -1.1159    1.9298    1.3004 C   0  0  0  0  0  0  0  0  0  0  0  0
   -0.6953    0.5056    0.9778 C   0  0  0  0  0  0  0  0  0  0  0  0
    0.2217   -0.1363    1.9764 C   0  0  0  0  0  0  0  0  0  0  0  0
    0.6027    0.3868    3.1320 C   0  0  0  0  0  0  0  0  0  0  0  0
   -2.1351   -0.5890    0.6732 S   0  0  0  0  0  0  0  0  0  0  0  0
   -1.6782    1.9709    2.2351 H   0  0  0  0  0  0  0  0  0  0  0  0
   -0.2402    2.5754    1.3988 H   0  0  0  0  0  0  0  0  0  0  0  0
   -1.7516    2.3244    0.5093 H   0  0  0  0  0  0  0  0  0  0  0  0
    0.5711   -1.1259    1.6990 H   0  0  0  0  0  0  0  0  0  0  0  0
    1.2613   -0.1580    3.7960 H   0  0  0  0  0  0  0  0  0  0  0  0
    0.2804    1.3672    3.4607 H   0  0  0  0  0  0  0  0  0  0  0  0
   -2.5690   -0.6115    1.9412 H   0  0  0  0  0  0  0  0  0  0  0  0
    1.4073    0.5701   -0.5946 C   0  0  0  0  0  0  0  0  0  0  0  0
    1.4073   -0.6284   -1.4768 C   0  0  0  0  0  0  0  0  0  0  0  0
    1.4073   -0.6284   -3.0835 S   0  0  0  0  0  1  0  0  0  0  0  0
    0.3559    0.5378    0.1916 H   0  0  0  0  0  0  0  0  0  0  0  0
    2.2834    0.5432    0.0606 H   0  0  0  0  0  0  0  0  0  0  0  0
    1.4073    1.4939   -1.1693 H   0  0  0  0  0  0  0  0  0  0  0  0
    1.4073   -1.5828   -0.9469 H   0  0  0  0  0  0  0  0  0  0  0  0
  1  2  1  0
  1  6  1  0
  1  7  1  0
  1  8  1  0
  2  3  1  0
  2  5  1  0
  2 16  1  0
  3  4  2  3
  3  9  1  0
  4 10  1  0
  4 11  1  0
  5 12  1  0
 13 14  2  3
 13 17  1  0
 13 18  1  0
 14 15  1  0
 14 19  1  0
M  RAD  1  15   2
M  END
>  <reaction>  (15) 
rxn_1982

>  <mol_properties>  (15) 
{"1": {"label": "*3", "atom_type": "Cs"}, "4": {"label": "*4", "atom_type": "S2s"}, "12": {"label": "*1", "atom_type": "Cs"}, "13": {"label": "*0", "atom_type": "CS"}, "15": {"label": "*2", "atom_type": "H0"}}

>  <type>  (15) 
unop_11

>  <geom_source>  (15) 
Heuristics

$$$$

     RDKit          3D

 19 17  0  0  0  0  0  0  0  0999 V2000
   -1.4795   -1.0228    0.6626 C   0  0  0  0  0  0  0  0  0  0  0  0
   -0.6742    0.2301    0.9643 C   0  0  0  0  0  0  0  0  0  0  0  0
   -1.4127    1.5252    0.7984 C   0  0  0  0  0  0  0  0  0  0  0  0
   -2.6999    1.6564    0.5155 C   0  0  0  0  0  0  0  0  0  0  0  0
    0.0990    0.1722    2.6265 S   0  0  0  0  0  0  0  0  0  0  0  0
   -2.3280   -1.1173    1.3428 H   0  0  0  0  0  0  0  0  0  0  0  0
   -1.8618   -0.9959   -0.3603 H   0  0  0  0  0  0  0  0  0  0  0  0
   -0.8572   -1.9088    0.7780 H   0  0  0  0  0  0  0  0  0  0  0  0
   -0.8071    2.4136    0.9475 H   0  0  0  0  0  0  0  0  0  0  0  0
   -3.1498    2.6367    0.4255 H   0  0  0  0  0  0  0  0  0  0  0  0
   -3.3512    0.8047    0.3620 H   0  0  0  0  0  0  0  0  0  0  0  0
   -1.0419    0.2920    3.3197 H   0  0  0  0  0  0  0  0  0  0  0  0
    1.4284    0.2947   -0.6081 C   0  0  0  0  0  0  0  0  0  0  0  0
    1.4284   -0.9038   -1.4903 C   0  0  0  0  0  0  0  0  0  0  0  0
    1.4284   -0.9038   -3.0970 S   0  0  0  0  0  1  0  0  0  0  0  0
    0.3770    0.2624    0.1781 H   0  0  0  0  0  0  0  0  0  0  0  0
    2.3046    0.2678    0.0471 H   0  0  0  0  0  0  0  0  0  0  0  0
    1.4284    1.2185   -1.1828 H   0  0  0  0  0  0  0  0  0  0  0  0
    1.4284   -1.8582   -0.9604 H   0  0  0  0  0  0  0  0  0  0  0  0
  1  2  1  0
  1  6  1  0
  1  7  1  0
  1  8  1  0
  2  3  1  0
  2  5  1  0
  2 16  1  0
  3  4  2  3
  3  9  1  0
  4 10  1  0
  4 11  1  0
  5 12  1  0
 13 14  2  3
 13 17  1  0
 13 18  1  0
 14 15  1  0
 14 19  1  0
M  RAD  1  15   2
M  END
>  <reaction>  (16) 
rxn_1982

>  <mol_properties>  (16) 
{"1": {"label": "*3", "atom_type": "Cs"}, "4": {"label": "*4", "atom_type": "S2s"}, "12": {"label": "*1", "atom_type": "Cs"}, "13": {"label": "*0", "atom_type": "CS"}, "15": {"label": "*2", "atom_type": "H0"}}

>  <type>  (16) 
unop_12

>  <geom_source>  (16) 
Heuristics

$$$$

     RDKit          3D

 19 17  0  0  0  0  0  0  0  0999 V2000
   -1.3061   -1.7083   -1.1195 S   0  0  0  0  0  0  0  0  0  0  0  0
    4.1222    0.0745   -0.1641 S   0  0  0  0  0  0  0  0  0  0  0  0
   -0.7421   -0.3862    0.0020 C   0  0  0  0  0  3  0  0  0  0  0  0
   -0.7050   -0.8919    1.4415 C   0  0  0  0  0  0  0  0  0  0  0  0
   -1.6598    0.8005   -0.1153 C   0  0  0  0  0  0  0  0  0  0  0  0
   -1.2260    1.9847   -0.5542 C   0  0  0  0  0  0  0  0  0  0  0  0
    1.7094   -0.3504   -0.8644 C   0  0  0  0  0  0  0  0  0  0  0  0
    2.7174    0.3023    0.0258 C   0  0  0  0  0  0  0  0  0  0  0  0
    0.5278   -0.0487   -0.3594 H   0  0  0  0  0  0  0  0  0  0  0  0
   -0.3230   -0.0935    2.1125 H   0  0  0  0  0  0  0  0  0  0  0  0
   -0.0235   -1.7655    1.5150 H   0  0  0  0  0  0  0  0  0  0  0  0
   -1.7187   -1.1954    1.7810 H   0  0  0  0  0  0  0  0  0  0  0  0
   -2.7058    0.6903    0.1575 H   0  0  0  0  0  0  0  0  0  0  0  0
   -0.1901    2.1362   -0.8406 H   0  0  0  0  0  0  0  0  0  0  0  0
   -1.9156    2.8191   -0.6300 H   0  0  0  0  0  0  0  0  0  0  0  0
    2.3821    0.9551    0.8241 H   0  0  0  0  0  0  0  0  0  0  0  0
    1.7737   -1.4568   -0.7859 H   0  0  0  0  0  0  0  0  0  0  0  0
    1.8516   -0.0313   -1.9191 H   0  0  0  0  0  0  0  0  0  0  0  0
   -2.5682   -1.8350   -0.5068 H   0  0  0  0  0  0  0  0  0  0  0  0
  1  3  1  0
  1 19  1  0
  2  8  2  0
  3  4  1  0
  3  5  1  0
  4 10  1  0
  4 11  1  0
  4 12  1  0
  5  6  2  3
  5 13  1  0
  6 14  1  0
  6 15  1  0
  7  8  1  0
  7  9  1  0
  7 17  1  0
  7 18  1  0
  8 16  1  0
M  RAD  1   3   2
M  END
>  <reaction>  (17) 
rxn_1982

>  <mol_properties>  (17) 
{"1": {"label": "*3", "atom_type": "Cs"}, "4": {"label": "*4", "atom_type": "S2s"}, "12": {"label": "*1", "atom_type": "Cs"}, "13": {"label": "*0", "atom_type": "CS"}, "15": {"label": "*2", "atom_type": "H0"}}

>  <type>  (17) 
unop_13

>  <geom_source>  (17) 
AutoTST

$$$$
