
     RDKit          3D

 13 12  0  0  0  0  0  0  0  0999 V2000
    3.0977   -0.3549   -0.5105 C   0  0  0  0  0  0  0  0  0  0  0  0
    2.0556    0.4221   -0.2627 C   0  0  0  0  0  0  0  0  0  0  0  0
    0.6313   -0.0354   -0.2366 C   0  0  0  0  0  0  0  0  0  0  0  0
   -0.2567    0.6038   -1.2694 C   0  0  0  0  0  0  0  0  0  0  0  0
    0.1459    1.3456   -2.2891 C   0  0  0  0  0  0  0  0  0  0  0  0
    4.1081    0.0344   -0.5074 H   0  0  0  0  0  0  0  0  0  0  0  0
    2.9777   -1.4116   -0.7243 H   0  0  0  0  0  0  0  0  0  0  0  0
    2.2171    1.4781   -0.0618 H   0  0  0  0  0  0  0  0  0  0  0  0
    0.5865   -1.1233   -0.3540 H   0  0  0  0  0  0  0  0  0  0  0  0
    0.2065    0.1743    0.7521 H   0  0  0  0  0  0  0  0  0  0  0  0
   -1.3190    0.4126   -1.1445 H   0  0  0  0  0  0  0  0  0  0  0  0
    1.1948    1.5564   -2.4628 H   0  0  0  0  0  0  0  0  0  0  0  0
   -0.5644    1.7621   -2.9918 H   0  0  0  0  0  0  0  0  0  0  0  0
  1  2  2  3
  1  6  1  0
  1  7  1  0
  2  3  1  0
  2  8  1  0
  3  4  1  0
  3  9  1  0
  3 10  1  0
  4  5  2  3
  4 11  1  0
  5 12  1  0
  5 13  1  0
M  END
>  <reaction>  (1) 
rxn_743

>  <mol_properties>  (1) 
{"2": {"label": "donator", "atom_type": "Cs"}, "8": {"label": "d_hydrogen", "atom_type": "H0"}}

>  <type>  (1) 
r1h

$$$$

     RDKit          3D

 18 19  0  0  0  0  0  0  0  0999 V2000
    1.0085    0.0884    1.2095 C   0  0  0  0  0  3  0  0  0  0  0  0
    1.2139    1.0410    0.0690 C   0  0  0  0  0  0  0  0  0  0  0  0
    0.2881    0.4324   -1.0019 C   0  0  0  0  0  0  0  0  0  0  0  0
   -1.1714    0.6323   -0.5516 C   0  0  0  0  0  0  0  0  0  0  0  0
   -1.3278   -0.3670    0.6275 C   0  0  0  0  0  0  0  0  0  0  0  0
    0.0899   -0.9908    0.7354 C   0  0  0  0  0  0  0  0  0  0  0  0
    0.4790   -1.0703   -0.7525 C   0  0  0  0  0  0  0  0  0  0  0  0
    1.2161    0.3102    2.2471 H   0  0  0  0  0  0  0  0  0  0  0  0
    2.2567    1.0516   -0.2755 H   0  0  0  0  0  0  0  0  0  0  0  0
    0.9543    2.0764    0.3130 H   0  0  0  0  0  0  0  0  0  0  0  0
    0.4908    0.7813   -2.0131 H   0  0  0  0  0  0  0  0  0  0  0  0
   -1.8596    0.3913   -1.3630 H   0  0  0  0  0  0  0  0  0  0  0  0
   -1.3656    1.6639   -0.2546 H   0  0  0  0  0  0  0  0  0  0  0  0
   -1.6314    0.1167    1.5558 H   0  0  0  0  0  0  0  0  0  0  0  0
   -2.0651   -1.1401    0.3991 H   0  0  0  0  0  0  0  0  0  0  0  0
    0.1199   -1.9185    1.3041 H   0  0  0  0  0  0  0  0  0  0  0  0
   -0.2009   -1.6913   -1.3392 H   0  0  0  0  0  0  0  0  0  0  0  0
    1.5046   -1.4076   -0.9091 H   0  0  0  0  0  0  0  0  0  0  0  0
  1  2  1  0
  1  6  1  0
  1  8  1  0
  2  3  1  0
  2  9  1  0
  2 10  1  0
  3  4  1  0
  3  7  1  0
  3 11  1  0
  4  5  1  0
  4 12  1  0
  4 13  1  0
  5  6  1  0
  5 14  1  0
  5 15  1  0
  6  7  1  0
  6 16  1  0
  7 17  1  0
  7 18  1  0
M  RAD  1   1   2
M  END
>  <reaction>  (2) 
rxn_743

>  <mol_properties>  (2) 
{"0": {"label": "acceptor", "atom_type": "Cs"}}

>  <type>  (2) 
r2

$$$$

     RDKit          3D

 19 20  0  0  0  0  0  0  0  0999 V2000
    1.1087   -0.4716   -0.9619 C   0  0  0  0  0  0  0  0  0  0  0  0
    0.9355    1.0407   -0.6470 C   0  0  0  0  0  0  0  0  0  0  0  0
   -0.0085    1.0377    0.5657 C   0  0  0  0  0  0  0  0  0  0  0  0
   -1.4093    0.6181    0.0927 C   0  0  0  0  0  0  0  0  0  0  0  0
   -1.2361   -0.8942   -0.2222 C   0  0  0  0  0  0  0  0  0  0  0  0
    0.2422   -1.1516    0.1099 C   0  0  0  0  0  0  0  0  0  0  0  0
    0.4537   -0.2211    1.3118 C   0  0  0  0  0  0  0  0  0  0  0  0
    2.1524   -0.7752   -0.8653 H   0  0  0  0  0  0  0  0  0  0  0  0
    0.7855   -0.7316   -1.9710 H   0  0  0  0  0  0  0  0  0  0  0  0
    1.8918    1.5001   -0.3916 H   0  0  0  0  0  0  0  0  0  0  0  0
    0.5184    1.6005   -1.4855 H   0  0  0  0  0  0  0  0  0  0  0  0
    0.0038    1.9661    1.1351 H   0  0  0  0  0  0  0  0  0  0  0  0
   -1.7351    1.1944   -0.7746 H   0  0  0  0  0  0  0  0  0  0  0  0
   -2.1465    0.7723    0.8824 H   0  0  0  0  0  0  0  0  0  0  0  0
   -1.4680   -1.1377   -1.2601 H   0  0  0  0  0  0  0  0  0  0  0  0
   -1.8859   -1.5030    0.4087 H   0  0  0  0  0  0  0  0  0  0  0  0
    0.4812   -2.2025    0.2673 H   0  0  0  0  0  0  0  0  0  0  0  0
    1.4942   -0.1701    1.6391 H   0  0  0  0  0  0  0  0  0  0  0  0
   -0.1779   -0.4714    2.1666 H   0  0  0  0  0  0  0  0  0  0  0  0
  1  2  1  0
  1  6  1  0
  1  8  1  0
  1  9  1  0
  2  3  1  0
  2 10  1  0
  2 11  1  0
  3  4  1  0
  3  7  1  0
  3 12  1  0
  4  5  1  0
  4 13  1  0
  4 14  1  0
  5  6  1  0
  5 15  1  0
  5 16  1  0
  6  7  1  0
  6 17  1  0
  7 18  1  0
  7 19  1  0
M  END
>  <reaction>  (3) 
rxn_743

>  <mol_properties>  (3) 
{"0": {"label": "a_hydrogen", "atom_type": "H0"}, "1": {"label": "acceptor", "atom_type": "Cs"}}

>  <type>  (3) 
r2h

$$$$

     RDKit          3D

 31 31  0  0  0  0  0  0  0  0999 V2000
   -1.2457   -3.4314   -0.8760 C   0  0  0  0  0  0  0  0  0  0  0  0
   -0.4282   -2.6256   -0.2070 C   0  0  0  0  0  0  0  0  0  0  0  0
   -0.8640   -1.6160    0.7735 C   0  0  0  0  0  0  0  0  0  0  0  0
   -0.0256   -1.3458    1.9577 C   0  0  0  0  0  0  0  0  0  0  0  0
    1.2042   -1.7932    2.1971 C   0  0  0  0  0  0  0  0  0  0  0  0
   -0.8730   -4.1244   -1.6192 H   0  0  0  0  0  0  0  0  0  0  0  0
   -2.3156   -3.4281   -0.6971 H   0  0  0  0  0  0  0  0  0  0  0  0
    0.6346   -2.6682   -0.4275 H   0  0  0  0  0  0  0  0  0  0  0  0
   -0.9101   -0.5259    0.1358 H   0  0  0  0  0  0  0  0  0  0  0  0
   -1.9177   -1.7247    1.0366 H   0  0  0  0  0  0  0  0  0  0  0  0
   -0.4757   -0.6780    2.6875 H   0  0  0  0  0  0  0  0  0  0  0  0
    1.7159   -2.4745    1.5284 H   0  0  0  0  0  0  0  0  0  0  0  0
    1.7378   -1.4967    3.0907 H   0  0  0  0  0  0  0  0  0  0  0  0
   -1.0871    0.7350   -0.5932 C   0  0  0  0  0  3  0  0  0  0  0  0
   -0.9704    1.8648    0.4236 C   0  0  0  0  0  0  0  0  0  0  0  0
    0.2978    2.5958   -0.0496 C   0  0  1  0  0  0  0  0  0  0  0  0
    1.5150    1.6958    0.2276 C   0  0  0  0  0  0  0  0  0  0  0  0
    1.3882    0.5829   -0.8462 C   0  0  0  0  0  0  0  0  0  0  0  0
    0.0659    0.9330   -1.5566 C   0  0  2  0  0  0  0  0  0  0  0  0
    0.1586    2.4740   -1.5741 C   0  0  0  0  0  0  0  0  0  0  0  0
   -2.0673    0.5411   -1.0212 H   0  0  0  0  0  0  0  0  0  0  0  0
   -0.8804    1.5085    1.4541 H   0  0  0  0  0  0  0  0  0  0  0  0
   -1.8436    2.5217    0.3841 H   0  0  0  0  0  0  0  0  0  0  0  0
    0.3956    3.6056    0.3459 H   0  0  0  0  0  0  0  0  0  0  0  0
    2.4453    2.2538    0.1117 H   0  0  0  0  0  0  0  0  0  0  0  0
    1.4974    1.2899    1.2401 H   0  0  0  0  0  0  0  0  0  0  0  0
    2.2141    0.6259   -1.5583 H   0  0  0  0  0  0  0  0  0  0  0  0
    1.3805   -0.4140   -0.4100 H   0  0  0  0  0  0  0  0  0  0  0  0
   -0.0642    0.4418   -2.5186 H   0  0  0  0  0  0  0  0  0  0  0  0
   -0.7382    2.9577   -1.9655 H   0  0  0  0  0  0  0  0  0  0  0  0
    1.0317    2.8385   -2.1201 H   0  0  0  0  0  0  0  0  0  0  0  0
  1  2  2  3
  1  6  1  0
  1  7  1  0
  2  3  1  0
  2  8  1  0
  3  4  1  0
  3  9  1  0
  3 10  1  0
  4  5  2  3
  4 11  1  0
  5 12  1  0
  5 13  1  0
 14 15  1  0
 14 19  1  0
 14 21  1  0
 15 16  1  0
 15 22  1  0
 15 23  1  0
 16 17  1  0
 16 20  1  0
 16 24  1  6
 17 18  1  0
 17 25  1  0
 17 26  1  0
 18 19  1  0
 18 27  1  0
 18 28  1  0
 19 20  1  0
 19 29  1  6
 20 30  1  0
 20 31  1  0
M  RAD  1  14   2
M  END
>  <reaction>  (4) 
rxn_743

>  <mol_properties>  (4) 
{"1": {"label": "*0", "atom_type": "Cd"}, "2": {"label": "*1", "atom_type": "Cs"}, "8": {"label": "*2", "atom_type": "H0"}, "13": {"label": "*3", "atom_type": "Cs"}, "14": {"label": "*4", "atom_type": "Cs"}}

>  <type>  (4) 
ts

$$$$

     RDKit          3D

 31 30  0  0  0  0  0  0  0  0999 V2000
   -0.1001   -2.6834   -1.9900 C   0  0  0  0  0  3  0  0  0  0  0  0
   -0.1001   -2.6834   -0.6667 C   0  0  0  0  0  0  0  0  0  0  0  0
   -0.1001   -1.4576    0.1913 C   0  0  0  0  0  3  0  0  0  0  0  0
    1.1096   -1.3032    1.0725 C   0  0  0  0  0  3  0  0  0  0  0  0
    2.2208   -2.0189    1.0001 C   0  0  0  0  0  0  0  0  0  0  0  0
   -0.1083   -3.6061   -2.5565 H   0  0  0  0  0  0  0  0  0  0  0  0
   -0.0937   -1.7579   -2.5559 H   0  0  0  0  0  0  0  0  0  0  0  0
   -0.0975   -3.6321   -0.1362 H   0  0  0  0  0  0  0  0  0  0  0  0
   -0.2202   -0.3856   -0.5593 H   0  0  0  0  0  0  0  0  0  0  0  0
   -0.9880   -1.4710    0.8341 H   0  0  0  0  0  0  0  0  0  0  0  0
    1.0370   -0.5182    1.8202 H   0  0  0  0  0  0  0  0  0  0  0  0
    2.3463   -2.8057    0.2652 H   0  0  0  0  0  0  0  0  0  0  0  0
    3.0490   -1.8346    1.6724 H   0  0  0  0  0  0  0  0  0  0  0  0
   -0.3398    0.6825   -1.3070 C   0  0  0  0  0  0  0  0  0  0  0  0
   -1.6067    1.5156   -0.9653 C   0  0  0  0  0  0  0  0  0  0  0  0
   -1.1747    2.3128    0.2755 C   0  0  0  0  0  0  0  0  0  0  0  0
   -1.0642    1.3443    1.4637 C   0  0  0  0  0  0  0  0  0  0  0  0
    0.2027    0.5111    1.1220 C   0  0  0  0  0  0  0  0  0  0  0  0
    0.6595    1.1066   -0.2192 C   0  0  0  0  0  0  0  0  0  0  0  0
    0.3028    2.5878   -0.0350 C   0  0  0  0  0  0  0  0  0  0  0  0
    0.0389    0.9336   -2.2992 H   0  0  0  0  0  0  0  0  0  0  0  0
   -2.4794    0.8923   -0.7645 H   0  0  0  0  0  0  0  0  0  0  0  0
   -1.8673    2.1872   -1.7851 H   0  0  0  0  0  0  0  0  0  0  0  0
   -1.7947    3.1857    0.4756 H   0  0  0  0  0  0  0  0  0  0  0  0
   -0.9330    1.8921    2.3983 H   0  0  0  0  0  0  0  0  0  0  0  0
   -1.9580    0.7277    1.5700 H   0  0  0  0  0  0  0  0  0  0  0  0
    0.9732    0.6385    1.8842 H   0  0  0  0  0  0  0  0  0  0  0  0
   -0.0043   -0.5572    1.0430 H   0  0  0  0  0  0  0  0  0  0  0  0
    1.6977    0.8890   -0.4664 H   0  0  0  0  0  0  0  0  0  0  0  0
    0.4495    3.1817   -0.9395 H   0  0  0  0  0  0  0  0  0  0  0  0
    0.8363    3.0596    0.7927 H   0  0  0  0  0  0  0  0  0  0  0  0
  1  2  1  0
  1  6  1  0
  1  7  1  0
  2  3  2  3
  2  8  1  0
  3 10  1  0
  4  5  2  3
  4 11  1  0
  5 12  1  0
  5 13  1  0
  9 14  1  0
 14 15  1  0
 14 19  1  0
 14 21  1  0
 15 16  1  0
 15 22  1  0
 15 23  1  0
 16 17  1  0
 16 20  1  0
 16 24  1  0
 17 18  1  0
 17 25  1  0
 17 26  1  0
 18 19  1  0
 18 27  1  0
 18 28  1  0
 19 20  1  0
 19 29  1  0
 20 30  1  0
 20 31  1  0
M  CHG  2   1   1   3  -1
M  RAD  1   4   2
M  END
>  <reaction>  (5) 
rxn_743

>  <mol_properties>  (5) 
{"1": {"label": "*0", "atom_type": "Cd"}, "2": {"label": "*1", "atom_type": "Cs"}, "8": {"label": "*2", "atom_type": "H0"}, "13": {"label": "*3", "atom_type": "Cs"}, "14": {"label": "*4", "atom_type": "Cs"}}

>  <type>  (5) 
unop_1

>  <geom_source>  (5) 
Heuristics

$$$$

     RDKit          3D

 31 31  0  0  0  0  0  0  0  0999 V2000
    0.7521   -2.3656   -1.1799 C   0  0  0  0  0  0  0  0  0  0  0  0
    0.7521   -2.3656    0.1433 C   0  0  0  0  0  0  0  0  0  0  0  0
    0.7521   -1.1398    1.0013 C   0  0  0  0  0  3  0  0  0  0  0  0
    1.9618   -0.9854    1.8825 C   0  0  0  0  0  0  0  0  0  0  0  0
    3.0729   -1.7011    1.8101 C   0  0  0  0  0  0  0  0  0  0  0  0
    0.7439   -3.2883   -1.7464 H   0  0  0  0  0  0  0  0  0  0  0  0
    0.7584   -1.4402   -1.7459 H   0  0  0  0  0  0  0  0  0  0  0  0
    0.7546   -3.3144    0.6739 H   0  0  0  0  0  0  0  0  0  0  0  0
    0.6320   -0.0678    0.2508 H   0  0  0  0  0  0  0  0  0  0  0  0
   -0.1359   -1.1533    1.6441 H   0  0  0  0  0  0  0  0  0  0  0  0
    1.8891   -0.2004    2.6303 H   0  0  0  0  0  0  0  0  0  0  0  0
    3.1984   -2.4880    1.0752 H   0  0  0  0  0  0  0  0  0  0  0  0
    3.9011   -1.5168    2.4824 H   0  0  0  0  0  0  0  0  0  0  0  0
    0.5123    1.0002   -0.4970 C   0  0  0  0  0  0  0  0  0  0  0  0
   -0.2971    0.7350   -1.7972 C   0  0  0  0  0  0  0  0  0  0  0  0
   -1.6726    1.3432   -1.4808 C   0  0  0  0  0  0  0  0  0  0  0  0
   -2.3746    0.4501   -0.4457 C   0  0  0  0  0  0  0  0  0  0  0  0
   -1.5651    0.7153    0.8545 C   0  0  0  0  0  0  0  0  0  0  0  0
   -0.5007    1.7271    0.4015 C   0  0  0  0  0  0  0  0  0  0  0  0
   -1.2828    2.5565   -0.6259 C   0  0  0  0  0  0  0  0  0  0  0  0
    1.3776    1.6347   -0.6963 H   0  0  0  0  0  0  0  0  0  0  0  0
   -0.3681   -0.3262   -2.0403 H   0  0  0  0  0  0  0  0  0  0  0  0
    0.1597    1.2357   -2.6525 H   0  0  0  0  0  0  0  0  0  0  0  0
   -2.2755    1.5507   -2.3638 H   0  0  0  0  0  0  0  0  0  0  0  0
   -3.4183    0.7451   -0.3248 H   0  0  0  0  0  0  0  0  0  0  0  0
   -2.3647   -0.6000   -0.7414 H   0  0  0  0  0  0  0  0  0  0  0  0
   -2.2004    1.1440    1.6314 H   0  0  0  0  0  0  0  0  0  0  0  0
   -1.1164   -0.1911    1.2637 H   0  0  0  0  0  0  0  0  0  0  0  0
   -0.0442    2.2817    1.2202 H   0  0  0  0  0  0  0  0  0  0  0  0
   -0.6611    3.2779   -1.1601 H   0  0  0  0  0  0  0  0  0  0  0  0
   -2.1426    3.0747   -0.1963 H   0  0  0  0  0  0  0  0  0  0  0  0
  1  2  2  3
  1  6  1  0
  1  7  1  0
  2  3  1  0
  2  8  1  0
  3  4  1  0
  3 10  1  0
  4  5  2  3
  4 11  1  0
  5 12  1  0
  5 13  1  0
  9 14  1  0
 14 15  1  0
 14 19  1  0
 14 21  1  0
 15 16  1  0
 15 22  1  0
 15 23  1  0
 16 17  1  0
 16 20  1  0
 16 24  1  0
 17 18  1  0
 17 25  1  0
 17 26  1  0
 18 19  1  0
 18 27  1  0
 18 28  1  0
 19 20  1  0
 19 29  1  0
 20 30  1  0
 20 31  1  0
M  RAD  1   3   2
M  END
>  <reaction>  (6) 
rxn_743

>  <mol_properties>  (6) 
{"1": {"label": "*0", "atom_type": "Cd"}, "2": {"label": "*1", "atom_type": "Cs"}, "8": {"label": "*2", "atom_type": "H0"}, "13": {"label": "*3", "atom_type": "Cs"}, "14": {"label": "*4", "atom_type": "Cs"}}

>  <type>  (6) 
unop_2

>  <geom_source>  (6) 
Heuristics

$$$$

     RDKit          3D

 31 31  0  0  0  0  0  0  0  0999 V2000
   -0.6109   -2.7609   -1.7895 C   0  0  0  0  0  3  0  0  0  0  0  0
   -0.6109   -2.7609   -0.4662 C   0  0  0  0  0  0  0  0  0  0  0  0
   -0.6109   -1.5351    0.3918 C   0  0  0  0  0  0  0  0  0  0  0  0
    0.5988   -1.3807    1.2730 C   0  0  0  0  0  0  0  0  0  0  0  0
    1.7100   -2.0964    1.2006 C   0  0  0  0  0  3  0  0  0  0  0  0
   -0.6191   -3.6836   -2.3560 H   0  0  0  0  0  0  0  0  0  0  0  0
   -0.6046   -1.8354   -2.3554 H   0  0  0  0  0  0  0  0  0  0  0  0
   -0.6083   -3.7096    0.0643 H   0  0  0  0  0  0  0  0  0  0  0  0
   -0.7310   -0.4631   -0.3588 H   0  0  0  0  0  0  0  0  0  0  0  0
   -1.4989   -1.5486    1.0346 H   0  0  0  0  0  0  0  0  0  0  0  0
    0.5261   -0.5957    2.0207 H   0  0  0  0  0  0  0  0  0  0  0  0
    1.8354   -2.8833    0.4657 H   0  0  0  0  0  0  0  0  0  0  0  0
    2.5382   -1.9121    1.8729 H   0  0  0  0  0  0  0  0  0  0  0  0
   -0.8506    0.6049   -1.1065 C   0  0  0  0  0  0  0  0  0  0  0  0
   -1.5779    1.7695   -0.3778 C   0  0  0  0  0  0  0  0  0  0  0  0
   -0.4233    2.5483    0.2720 C   0  0  0  0  0  0  0  0  0  0  0  0
    0.1393    1.7101    1.4309 C   0  0  0  0  0  0  0  0  0  0  0  0
    0.8666    0.5455    0.7022 C   0  0  0  0  0  3  0  0  0  0  0  0
    0.6295    0.8623   -0.7829 C   0  0  0  0  0  0  0  0  0  0  0  0
    0.6817    2.3960   -0.7820 C   0  0  0  0  0  0  0  0  0  0  0  0
   -1.0241    0.6469   -2.1831 H   0  0  0  0  0  0  0  0  0  0  0  0
   -2.2988    1.4187    0.3621 H   0  0  0  0  0  0  0  0  0  0  0  0
   -2.1182    2.3990   -1.0868 H   0  0  0  0  0  0  0  0  0  0  0  0
   -0.6833    3.5681    0.5524 H   0  0  0  0  0  0  0  0  0  0  0  0
    0.8392    2.2967    2.0283 H   0  0  0  0  0  0  0  0  0  0  0  0
   -0.6485    1.3616    2.1004 H   0  0  0  0  0  0  0  0  0  0  0  0
    1.9334    0.5445    0.9319 H   0  0  0  0  0  0  0  0  0  0  0  0
    0.4730   -0.4344    0.9767 H   0  0  0  0  0  0  0  0  0  0  0  0
    1.3213    0.3579   -1.4562 H   0  0  0  0  0  0  0  0  0  0  0  0
    0.4205    2.8364   -1.7464 H   0  0  0  0  0  0  0  0  0  0  0  0
    1.6450    2.7940   -0.4566 H   0  0  0  0  0  0  0  0  0  0  0  0
  1  2  1  0
  1  6  1  0
  1  7  1  0
  2  3  2  3
  2  8  1  0
  3  4  1  0
  3 10  1  0
  4  5  1  0
  4 11  1  0
  4 28  1  0
  5 12  1  0
  5 13  1  0
  9 14  1  0
 14 15  1  0
 14 19  1  0
 14 21  1  0
 15 16  1  0
 15 22  1  0
 15 23  1  0
 16 17  1  0
 16 20  1  0
 16 24  1  0
 17 18  1  0
 17 25  1  0
 17 26  1  0
 18 19  1  0
 18 27  1  0
 19 20  1  0
 19 29  1  0
 20 30  1  0
 20 31  1  0
M  CHG  2   1   1   5  -1
M  RAD  1  18   2
M  END
>  <reaction>  (7) 
rxn_743

>  <mol_properties>  (7) 
{"1": {"label": "*0", "atom_type": "Cd"}, "2": {"label": "*1", "atom_type": "Cs"}, "8": {"label": "*2", "atom_type": "H0"}, "13": {"label": "*3", "atom_type": "Cs"}, "14": {"label": "*4", "atom_type": "Cs"}}

>  <type>  (7) 
unop_3

>  <geom_source>  (7) 
Heuristics

$$$$

     RDKit          3D

 31 31  0  0  0  0  0  0  0  0999 V2000
    0.0174   -2.5381   -0.3437 C   0  0  0  0  0  0  0  0  0  0  0  0
    0.0174   -2.5381    0.9795 C   0  0  0  0  0  0  0  0  0  0  0  0
    0.0174   -1.3123    1.8375 C   0  0  0  0  0  3  0  0  0  0  0  0
    1.2271   -1.1580    2.7187 C   0  0  0  0  0  0  0  0  0  0  0  0
    2.3382   -1.8737    2.6463 C   0  0  0  0  0  0  0  0  0  0  0  0
    0.0092   -3.4609   -0.9103 H   0  0  0  0  0  0  0  0  0  0  0  0
    0.0237   -1.6127   -0.9097 H   0  0  0  0  0  0  0  0  0  0  0  0
    0.0199   -3.4869    1.5100 H   0  0  0  0  0  0  0  0  0  0  0  0
   -0.1027   -0.2404    1.0870 H   0  0  0  0  0  0  0  0  0  0  0  0
   -0.8706   -1.3258    2.4803 H   0  0  0  0  0  0  0  0  0  0  0  0
    1.1544   -0.3729    3.4664 H   0  0  0  0  0  0  0  0  0  0  0  0
    2.4637   -2.6605    1.9114 H   0  0  0  0  0  0  0  0  0  0  0  0
    3.1664   -1.6894    3.3186 H   0  0  0  0  0  0  0  0  0  0  0  0
   -0.2223    0.8277    0.3392 C   0  0  0  0  0  0  0  0  0  0  0  0
    0.9349    0.9738   -0.6882 C   0  0  0  0  0  0  0  0  0  0  0  0
    0.2849    1.7652   -1.8342 C   0  0  0  0  0  0  0  0  0  0  0  0
   -0.7101    0.8455   -2.5594 C   0  0  0  0  0  0  0  0  0  0  0  0
   -1.8674    0.6993   -1.5320 C   0  0  0  0  0  0  0  0  0  0  0  0
   -1.3904    1.5536   -0.3468 C   0  0  0  0  0  0  0  0  0  0  0  0
   -0.6618    2.6969   -1.0658 C   0  0  0  0  0  0  0  0  0  0  0  0
    0.0302    1.3092    1.2853 H   0  0  0  0  0  0  0  0  0  0  0  0
    1.3216    0.0115   -1.0269 H   0  0  0  0  0  0  0  0  0  0  0  0
    1.7713    1.5291   -0.2604 H   0  0  0  0  0  0  0  0  0  0  0  0
    1.0015    2.2479   -2.4973 H   0  0  0  0  0  0  0  0  0  0  0  0
   -1.0619    1.3080   -3.4830 H   0  0  0  0  0  0  0  0  0  0  0  0
   -0.2594   -0.1119   -2.8253 H   0  0  0  0  0  0  0  0  0  0  0  0
   -2.8030    1.0882   -1.9373 H   0  0  0  0  0  0  0  0  0  0  0  0
   -2.0440   -0.3373   -1.2409 H   0  0  0  0  0  0  0  0  0  0  0  0
   -2.1884    1.8451    0.3348 H   0  0  0  0  0  0  0  0  0  0  0  0
   -0.1415    3.3724   -0.3836 H   0  0  0  0  0  0  0  0  0  0  0  0
   -1.3146    3.2808   -1.7179 H   0  0  0  0  0  0  0  0  0  0  0  0
  1  2  2  3
  1  6  1  0
  1  7  1  0
  2  3  1  0
  2  8  1  0
  3  4  1  0
  3 10  1  0
  4  5  2  3
  4 11  1  0
  5 12  1  0
  5 13  1  0
  9 14  1  0
 14 15  1  0
 14 19  1  0
 14 21  1  0
 15 16  1  0
 15 22  1  0
 15 23  1  0
 16 17  1  0
 16 20  1  0
 16 24  1  0
 17 18  1  0
 17 25  1  0
 17 26  1  0
 18 19  1  0
 18 27  1  0
 18 28  1  0
 19 20  1  0
 19 29  1  0
 20 30  1  0
 20 31  1  0
M  RAD  1   3   2
M  END
>  <reaction>  (8) 
rxn_743

>  <mol_properties>  (8) 
{"1": {"label": "*0", "atom_type": "Cd"}, "2": {"label": "*1", "atom_type": "Cs"}, "8": {"label": "*2", "atom_type": "H0"}, "13": {"label": "*3", "atom_type": "Cs"}, "14": {"label": "*4", "atom_type": "Cs"}}

>  <type>  (8) 
unop_4

>  <geom_source>  (8) 
Heuristics

$$$$

     RDKit          3D

 31 31  0  0  0  0  0  0  0  0999 V2000
   -0.8720   -2.8064   -1.1564 C   0  0  0  0  0  0  0  0  0  0  0  0
   -0.8720   -2.8064    0.1669 C   0  0  0  0  0  0  0  0  0  0  0  0
   -0.8720   -1.5806    1.0249 C   0  0  0  0  0  3  0  0  0  0  0  0
    0.3377   -1.4262    1.9061 C   0  0  0  0  0  0  0  0  0  0  0  0
    1.4488   -2.1419    1.8337 C   0  0  0  0  0  0  0  0  0  0  0  0
   -0.8802   -3.7291   -1.7229 H   0  0  0  0  0  0  0  0  0  0  0  0
   -0.8657   -1.8809   -1.7223 H   0  0  0  0  0  0  0  0  0  0  0  0
   -0.8695   -3.7551    0.6974 H   0  0  0  0  0  0  0  0  0  0  0  0
   -0.9921   -0.5086    0.2744 H   0  0  0  0  0  0  0  0  0  0  0  0
   -1.7600   -1.5940    1.6677 H   0  0  0  0  0  0  0  0  0  0  0  0
    0.2650   -0.6412    2.6538 H   0  0  0  0  0  0  0  0  0  0  0  0
    1.5743   -2.9287    1.0988 H   0  0  0  0  0  0  0  0  0  0  0  0
    2.2770   -1.9576    2.5060 H   0  0  0  0  0  0  0  0  0  0  0  0
   -1.1118    0.5595   -0.4734 C   0  0  0  0  0  0  0  0  0  0  0  0
   -1.1191    1.8746    0.3551 C   0  0  0  0  0  0  0  0  0  0  0  0
    0.0846    2.6470   -0.2074 C   0  0  0  0  0  0  0  0  0  0  0  0
    1.3726    1.9497    0.2580 C   0  0  0  0  0  0  0  0  0  0  0  0
    1.3799    0.6346   -0.5705 C   0  0  0  0  0  0  0  0  0  0  0  0
    0.0952    0.7431   -1.4069 C   0  0  0  0  0  0  0  0  0  0  0  0
    0.0388    2.2504   -1.6892 C   0  0  0  0  0  0  0  0  0  0  0  0
   -2.0330    0.4533   -1.0487 H   0  0  0  0  0  0  0  0  0  0  0  0
   -1.0234    1.6975    1.4274 H   0  0  0  0  0  0  0  0  0  0  0  0
   -2.0441    2.4319    0.1979 H   0  0  0  0  0  0  0  0  0  0  0  0
    0.0607    3.7148    0.0057 H   0  0  0  0  0  0  0  0  0  0  0  0
    2.2473    2.5613    0.0307 H   0  0  0  0  0  0  0  0  0  0  0  0
    1.3713    1.7697    1.3342 H   0  0  0  0  0  0  0  0  0  0  0  0
    2.2584    0.5826   -1.2159 H   0  0  0  0  0  0  0  0  0  0  0  0
    1.3827   -0.2584    0.0564 H   0  0  0  0  0  0  0  0  0  0  0  0
    0.0810    0.0897   -2.2782 H   0  0  0  0  0  0  0  0  0  0  0  0
   -0.8807    2.5607   -2.1899 H   0  0  0  0  0  0  0  0  0  0  0  0
    0.8962    2.6142   -2.2591 H   0  0  0  0  0  0  0  0  0  0  0  0
  1  2  2  3
  1  6  1  0
  1  7  1  0
  2  3  1  0
  2  8  1  0
  3  4  1  0
  3 10  1  0
  4  5  2  3
  4 11  1  0
  5 12  1  0
  5 13  1  0
  9 14  1  0
 14 15  1  0
 14 19  1  0
 14 21  1  0
 15 16  1  0
 15 22  1  0
 15 23  1  0
 16 17  1  0
 16 20  1  0
 16 24  1  0
 17 18  1  0
 17 25  1  0
 17 26  1  0
 18 19  1  0
 18 27  1  0
 18 28  1  0
 19 20  1  0
 19 29  1  0
 20 30  1  0
 20 31  1  0
M  RAD  1   3   2
M  END
>  <reaction>  (9) 
rxn_743

>  <mol_properties>  (9) 
{"1": {"label": "*0", "atom_type": "Cd"}, "2": {"label": "*1", "atom_type": "Cs"}, "8": {"label": "*2", "atom_type": "H0"}, "13": {"label": "*3", "atom_type": "Cs"}, "14": {"label": "*4", "atom_type": "Cs"}}

>  <type>  (9) 
unop_5

>  <geom_source>  (9) 
Heuristics

$$$$

     RDKit          3D

 31 31  0  0  0  0  0  0  0  0999 V2000
   -0.2298   -2.6660   -0.3856 C   0  0  0  0  0  0  0  0  0  0  0  0
   -0.2298   -2.6660    0.9376 C   0  0  0  0  0  0  0  0  0  0  0  0
   -0.2298   -1.4401    1.7956 C   0  0  0  0  0  3  0  0  0  0  0  0
    0.9799   -1.2858    2.6768 C   0  0  0  0  0  0  0  0  0  0  0  0
    2.0910   -2.0015    2.6044 C   0  0  0  0  0  0  0  0  0  0  0  0
   -0.2380   -3.5887   -0.9522 H   0  0  0  0  0  0  0  0  0  0  0  0
   -0.2235   -1.7405   -0.9516 H   0  0  0  0  0  0  0  0  0  0  0  0
   -0.2273   -3.6147    1.4681 H   0  0  0  0  0  0  0  0  0  0  0  0
   -0.3499   -0.3682    1.0451 H   0  0  0  0  0  0  0  0  0  0  0  0
   -1.1178   -1.4536    2.4384 H   0  0  0  0  0  0  0  0  0  0  0  0
    0.9072   -0.5008    3.4245 H   0  0  0  0  0  0  0  0  0  0  0  0
    2.2165   -2.7883    1.8695 H   0  0  0  0  0  0  0  0  0  0  0  0
    2.9192   -1.8172    3.2767 H   0  0  0  0  0  0  0  0  0  0  0  0
   -0.4696    0.6999    0.2973 C   0  0  0  0  0  0  0  0  0  0  0  0
    0.9026    1.2694   -0.1597 C   0  0  0  0  0  0  0  0  0  0  0  0
    0.5322    2.1391   -1.3715 C   0  0  0  0  0  0  0  0  0  0  0  0
    0.1352    1.2142   -2.5328 C   0  0  0  0  0  0  0  0  0  0  0  0
   -1.2370    0.6446   -2.0758 C   0  0  0  0  0  0  0  0  0  0  0  0
   -1.4543    1.3146   -0.7099 C   0  0  0  0  0  0  0  0  0  0  0  0
   -0.8316    2.6975   -0.9435 C   0  0  0  0  0  0  0  0  0  0  0  0
   -0.7072    1.0178    1.3138 H   0  0  0  0  0  0  0  0  0  0  0  0
    1.6166    0.4877   -0.4234 H   0  0  0  0  0  0  0  0  0  0  0  0
    1.3573    1.8747    0.6262 H   0  0  0  0  0  0  0  0  0  0  0  0
    1.2919    2.8740   -1.6343 H   0  0  0  0  0  0  0  0  0  0  0  0
    0.0356    1.7796   -3.4609 H   0  0  0  0  0  0  0  0  0  0  0  0
    0.8790    0.4346   -2.7042 H   0  0  0  0  0  0  0  0  0  0  0  0
   -2.0289    0.9226   -2.7733 H   0  0  0  0  0  0  0  0  0  0  0  0
   -1.2371   -0.4438   -1.9994 H   0  0  0  0  0  0  0  0  0  0  0  0
   -2.4905    1.3040   -0.3745 H   0  0  0  0  0  0  0  0  0  0  0  0
   -0.7829    3.3063   -0.0383 H   0  0  0  0  0  0  0  0  0  0  0  0
   -1.3301    3.2669   -1.7306 H   0  0  0  0  0  0  0  0  0  0  0  0
  1  2  2  3
  1  6  1  0
  1  7  1  0
  2  3  1  0
  2  8  1  0
  3  4  1  0
  3 10  1  0
  4  5  2  3
  4 11  1  0
  5 12  1  0
  5 13  1  0
  9 14  1  0
 14 15  1  0
 14 19  1  0
 14 21  1  0
 15 16  1  0
 15 22  1  0
 15 23  1  0
 16 17  1  0
 16 20  1  0
 16 24  1  0
 17 18  1  0
 17 25  1  0
 17 26  1  0
 18 19  1  0
 18 27  1  0
 18 28  1  0
 19 20  1  0
 19 29  1  0
 20 30  1  0
 20 31  1  0
M  RAD  1   3   2
M  END
>  <reaction>  (10) 
rxn_743

>  <mol_properties>  (10) 
{"1": {"label": "*0", "atom_type": "Cd"}, "2": {"label": "*1", "atom_type": "Cs"}, "8": {"label": "*2", "atom_type": "H0"}, "13": {"label": "*3", "atom_type": "Cs"}, "14": {"label": "*4", "atom_type": "Cs"}}

>  <type>  (10) 
unop_6

>  <geom_source>  (10) 
Heuristics

$$$$

     RDKit          3D

 31 31  0  0  0  0  0  0  0  0999 V2000
   -0.4087   -2.7629   -0.4858 C   0  0  0  0  0  0  0  0  0  0  0  0
   -0.4087   -2.7629    0.8375 C   0  0  0  0  0  0  0  0  0  0  0  0
   -0.4087   -1.5371    1.6955 C   0  0  0  0  0  3  0  0  0  0  0  0
    0.8011   -1.3827    2.5767 C   0  0  0  0  0  0  0  0  0  0  0  0
    1.9122   -2.0984    2.5042 C   0  0  0  0  0  0  0  0  0  0  0  0
   -0.4168   -3.6857   -1.0523 H   0  0  0  0  0  0  0  0  0  0  0  0
   -0.4023   -1.8375   -1.0518 H   0  0  0  0  0  0  0  0  0  0  0  0
   -0.4061   -3.7117    1.3680 H   0  0  0  0  0  0  0  0  0  0  0  0
   -0.5287   -0.4651    0.9449 H   0  0  0  0  0  0  0  0  0  0  0  0
   -1.2966   -1.5506    2.3382 H   0  0  0  0  0  0  0  0  0  0  0  0
    0.7284   -0.5977    3.3244 H   0  0  0  0  0  0  0  0  0  0  0  0
    2.0377   -2.8853    1.7694 H   0  0  0  0  0  0  0  0  0  0  0  0
    2.7404   -1.9141    3.1766 H   0  0  0  0  0  0  0  0  0  0  0  0
   -0.6484    0.6029    0.1971 C   0  0  0  0  0  0  0  0  0  0  0  0
    0.5563    1.5745    0.3411 C   0  0  0  0  0  0  0  0  0  0  0  0
    0.4508    2.4486   -0.9185 C   0  0  0  0  0  0  0  0  0  0  0  0
    0.8354    1.5959   -2.1379 C   0  0  0  0  0  0  0  0  0  0  0  0
   -0.3694    0.6243   -2.2819 C   0  0  0  0  0  0  0  0  0  0  0  0
   -1.2933    1.0421   -1.1269 C   0  0  0  0  0  0  0  0  0  0  0  0
   -1.0702    2.5599   -1.0887 C   0  0  0  0  0  0  0  0  0  0  0  0
   -1.3484    0.7207    1.0260 H   0  0  0  0  0  0  0  0  0  0  0  0
    1.5135    1.0537    0.3955 H   0  0  0  0  0  0  0  0  0  0  0  0
    0.4642    2.1825    1.2426 H   0  0  0  0  0  0  0  0  0  0  0  0
    0.9971    3.3884   -0.8489 H   0  0  0  0  0  0  0  0  0  0  0  0
    0.9447    2.2193   -3.0268 H   0  0  0  0  0  0  0  0  0  0  0  0
    1.7817    1.0742   -1.9870 H   0  0  0  0  0  0  0  0  0  0  0  0
   -0.8678    0.7575   -3.2435 H   0  0  0  0  0  0  0  0  0  0  0  0
   -0.0762   -0.4241   -2.2091 H   0  0  0  0  0  0  0  0  0  0  0  0
   -2.3238    0.7101   -1.2458 H   0  0  0  0  0  0  0  0  0  0  0  0
   -1.5636    3.0466   -0.2449 H   0  0  0  0  0  0  0  0  0  0  0  0
   -1.3646    3.0618   -2.0127 H   0  0  0  0  0  0  0  0  0  0  0  0
  1  2  2  3
  1  6  1  0
  1  7  1  0
  2  3  1  0
  2  8  1  0
  3  4  1  0
  3 10  1  0
  4  5  2  3
  4 11  1  0
  5 12  1  0
  5 13  1  0
  9 14  1  0
 14 15  1  0
 14 19  1  0
 14 21  1  0
 15 16  1  0
 15 22  1  0
 15 23  1  0
 16 17  1  0
 16 20  1  0
 16 24  1  0
 17 18  1  0
 17 25  1  0
 17 26  1  0
 18 19  1  0
 18 27  1  0
 18 28  1  0
 19 20  1  0
 19 29  1  0
 20 30  1  0
 20 31  1  0
M  RAD  1   3   2
M  END
>  <reaction>  (11) 
rxn_743

>  <mol_properties>  (11) 
{"1": {"label": "*0", "atom_type": "Cd"}, "2": {"label": "*1", "atom_type": "Cs"}, "8": {"label": "*2", "atom_type": "H0"}, "13": {"label": "*3", "atom_type": "Cs"}, "14": {"label": "*4", "atom_type": "Cs"}}

>  <type>  (11) 
unop_7

>  <geom_source>  (11) 
Heuristics

$$$$

     RDKit          3D

 31 30  0  0  0  0  0  0  0  0999 V2000
    0.3413   -2.5728   -1.8847 C   0  0  0  0  0  3  0  0  0  0  0  0
    0.3413   -2.5728   -0.5615 C   0  0  0  0  0  0  0  0  0  0  0  0
    0.3413   -1.3470    0.2965 C   0  0  0  0  0  3  0  0  0  0  0  0
    1.5511   -1.1926    1.1777 C   0  0  0  0  0  3  0  0  0  0  0  0
    2.6622   -1.9083    1.1053 C   0  0  0  0  0  0  0  0  0  0  0  0
    0.3332   -3.4955   -2.4513 H   0  0  0  0  0  0  0  0  0  0  0  0
    0.3477   -1.6473   -2.4507 H   0  0  0  0  0  0  0  0  0  0  0  0
    0.3439   -3.5215   -0.0310 H   0  0  0  0  0  0  0  0  0  0  0  0
    0.2213   -0.2750   -0.4540 H   0  0  0  0  0  0  0  0  0  0  0  0
   -0.5466   -1.3605    0.9393 H   0  0  0  0  0  0  0  0  0  0  0  0
    1.4784   -0.4076    1.9254 H   0  0  0  0  0  0  0  0  0  0  0  0
    2.7877   -2.6952    0.3704 H   0  0  0  0  0  0  0  0  0  0  0  0
    3.4904   -1.7240    1.7776 H   0  0  0  0  0  0  0  0  0  0  0  0
    0.1016    0.7930   -1.2018 C   0  0  0  0  0  0  0  0  0  0  0  0
   -1.3802    1.2028   -1.4305 C   0  0  0  0  0  0  0  0  0  0  0  0
   -1.7319    1.9683   -0.1451 C   0  0  0  0  0  0  0  0  0  0  0  0
   -1.8239    0.9618    1.0126 C   0  0  0  0  0  0  0  0  0  0  0  0
   -0.3420    0.5521    1.2413 C   0  0  0  0  0  0  0  0  0  0  0  0
    0.4134    1.3751    0.1859 C   0  0  0  0  0  0  0  0  0  0  0  0
   -0.4047    2.6733    0.1654 C   0  0  0  0  0  0  0  0  0  0  0  0
    0.7515    1.2324   -1.9604 H   0  0  0  0  0  0  0  0  0  0  0  0
   -2.0358    0.3443   -1.5846 H   0  0  0  0  0  0  0  0  0  0  0  0
   -1.4780    1.8489   -2.3045 H   0  0  0  0  0  0  0  0  0  0  0  0
   -2.6066    2.6102   -0.2406 H   0  0  0  0  0  0  0  0  0  0  0  0
   -2.2421    1.4339    1.9032 H   0  0  0  0  0  0  0  0  0  0  0  0
   -2.4622    0.1128    0.7634 H   0  0  0  0  0  0  0  0  0  0  0  0
   -0.0126    0.8174    2.2473 H   0  0  0  0  0  0  0  0  0  0  0  0
   -0.1769   -0.5191    1.1161 H   0  0  0  0  0  0  0  0  0  0  0  0
    1.4781    1.4807    0.3897 H   0  0  0  0  0  0  0  0  0  0  0  0
   -0.0920    3.3671   -0.6177 H   0  0  0  0  0  0  0  0  0  0  0  0
   -0.4083    3.1953    1.1245 H   0  0  0  0  0  0  0  0  0  0  0  0
  1  2  1  0
  1  6  1  0
  1  7  1  0
  2  3  2  3
  2  8  1  0
  3 10  1  0
  4  5  2  3
  4 11  1  0
  5 12  1  0
  5 13  1  0
  9 14  1  0
 14 15  1  0
 14 19  1  0
 14 21  1  0
 15 16  1  0
 15 22  1  0
 15 23  1  0
 16 17  1  0
 16 20  1  0
 16 24  1  0
 17 18  1  0
 17 25  1  0
 17 26  1  0
 18 19  1  0
 18 27  1  0
 18 28  1  0
 19 20  1  0
 19 29  1  0
 20 30  1  0
 20 31  1  0
M  CHG  2   1   1   3  -1
M  RAD  1   4   2
M  END
>  <reaction>  (12) 
rxn_743

>  <mol_properties>  (12) 
{"1": {"label": "*0", "atom_type": "Cd"}, "2": {"label": "*1", "atom_type": "Cs"}, "8": {"label": "*2", "atom_type": "H0"}, "13": {"label": "*3", "atom_type": "Cs"}, "14": {"label": "*4", "atom_type": "Cs"}}

>  <type>  (12) 
unop_8

>  <geom_source>  (12) 
Heuristics

$$$$

     RDKit          3D

 31 31  0  0  0  0  0  0  0  0999 V2000
    0.3431   -2.4181   -0.4443 C   0  0  0  0  0  0  0  0  0  0  0  0
    0.3431   -2.4181    0.8789 C   0  0  0  0  0  0  0  0  0  0  0  0
    0.3431   -1.1923    1.7369 C   0  0  0  0  0  3  0  0  0  0  0  0
    1.5529   -1.0379    2.6181 C   0  0  0  0  0  0  0  0  0  0  0  0
    2.6640   -1.7536    2.5457 C   0  0  0  0  0  0  0  0  0  0  0  0
    0.3350   -3.3408   -1.0109 H   0  0  0  0  0  0  0  0  0  0  0  0
    0.3495   -1.4926   -1.0103 H   0  0  0  0  0  0  0  0  0  0  0  0
    0.3457   -3.3668    1.4094 H   0  0  0  0  0  0  0  0  0  0  0  0
    0.2231   -0.1203    0.9864 H   0  0  0  0  0  0  0  0  0  0  0  0
   -0.5448   -1.2058    2.3797 H   0  0  0  0  0  0  0  0  0  0  0  0
    1.4802   -0.2529    3.3658 H   0  0  0  0  0  0  0  0  0  0  0  0
    2.7895   -2.5405    1.8108 H   0  0  0  0  0  0  0  0  0  0  0  0
    3.4922   -1.5693    3.2180 H   0  0  0  0  0  0  0  0  0  0  0  0
    0.1034    0.9477    0.2386 C   0  0  0  0  0  0  0  0  0  0  0  0
    0.7210    0.7625   -1.1758 C   0  0  0  0  0  0  0  0  0  0  0  0
   -0.3064    1.4410   -2.0956 C   0  0  0  0  0  0  0  0  0  0  0  0
   -1.5675    0.5643   -2.1490 C   0  0  0  0  0  0  0  0  0  0  0  0
   -2.1851    0.7496   -0.7347 C   0  0  0  0  0  0  0  0  0  0  0  0
   -1.2004    1.7092   -0.0480 C   0  0  0  0  0  0  0  0  0  0  0  0
   -0.7803    2.6079   -1.2188 C   0  0  0  0  0  0  0  0  0  0  0  0
    0.7619    1.5359    0.8800 H   0  0  0  0  0  0  0  0  0  0  0  0
    0.8697   -0.2865   -1.4365 H   0  0  0  0  0  0  0  0  0  0  0  0
    1.6910    1.2572   -1.2480 H   0  0  0  0  0  0  0  0  0  0  0  0
    0.0877    1.7051   -3.0760 H   0  0  0  0  0  0  0  0  0  0  0  0
   -2.2505    0.9159   -2.9242 H   0  0  0  0  0  0  0  0  0  0  0  0
   -1.3297   -0.4769   -2.3719 H   0  0  0  0  0  0  0  0  0  0  0  0
   -3.1796    1.1947   -0.7962 H   0  0  0  0  0  0  0  0  0  0  0  0
   -2.2820   -0.1912   -0.1907 H   0  0  0  0  0  0  0  0  0  0  0  0
   -1.6145    2.2158    0.8227 H   0  0  0  0  0  0  0  0  0  0  0  0
    0.0194    3.3053   -0.9611 H   0  0  0  0  0  0  0  0  0  0  0  0
   -1.6126    3.1640   -1.6551 H   0  0  0  0  0  0  0  0  0  0  0  0
  1  2  2  3
  1  6  1  0
  1  7  1  0
  2  3  1  0
  2  8  1  0
  3  4  1  0
  3 10  1  0
  4  5  2  3
  4 11  1  0
  5 12  1  0
  5 13  1  0
  9 14  1  0
 14 15  1  0
 14 19  1  0
 14 21  1  0
 15 16  1  0
 15 22  1  0
 15 23  1  0
 16 17  1  0
 16 20  1  0
 16 24  1  0
 17 18  1  0
 17 25  1  0
 17 26  1  0
 18 19  1  0
 18 27  1  0
 18 28  1  0
 19 20  1  0
 19 29  1  0
 20 30  1  0
 20 31  1  0
M  RAD  1   3   2
M  END
>  <reaction>  (13) 
rxn_743

>  <mol_properties>  (13) 
{"1": {"label": "*0", "atom_type": "Cd"}, "2": {"label": "*1", "atom_type": "Cs"}, "8": {"label": "*2", "atom_type": "H0"}, "13": {"label": "*3", "atom_type": "Cs"}, "14": {"label": "*4", "atom_type": "Cs"}}

>  <type>  (13) 
unop_9

>  <geom_source>  (13) 
Heuristics

$$$$

     RDKit          3D

 31 31  0  0  0  0  0  0  0  0999 V2000
    0.6404   -2.4528   -1.5920 C   0  0  0  0  0  0  0  0  0  0  0  0
    0.6404   -2.4528   -0.2687 C   0  0  0  0  0  0  0  0  0  0  0  0
    0.6404   -1.2270    0.5893 C   0  0  0  0  0  3  0  0  0  0  0  0
    1.8501   -1.0726    1.4705 C   0  0  0  0  0  0  0  0  0  0  0  0
    2.9612   -1.7883    1.3981 C   0  0  0  0  0  0  0  0  0  0  0  0
    0.6322   -3.3755   -2.1585 H   0  0  0  0  0  0  0  0  0  0  0  0
    0.6467   -1.5274   -2.1579 H   0  0  0  0  0  0  0  0  0  0  0  0
    0.6429   -3.4016    0.2618 H   0  0  0  0  0  0  0  0  0  0  0  0
    0.5203   -0.1550   -0.1613 H   0  0  0  0  0  0  0  0  0  0  0  0
   -0.2476   -1.2405    1.2321 H   0  0  0  0  0  0  0  0  0  0  0  0
    1.7774   -0.2876    2.2182 H   0  0  0  0  0  0  0  0  0  0  0  0
    3.0867   -2.5752    0.6632 H   0  0  0  0  0  0  0  0  0  0  0  0
    3.7895   -1.6040    2.0704 H   0  0  0  0  0  0  0  0  0  0  0  0
    0.4007    0.9130   -0.9090 C   0  0  0  0  0  0  0  0  0  0  0  0
   -0.9138    0.9207   -1.7387 C   0  0  0  0  0  0  0  0  0  0  0  0
   -1.9161    1.6056   -0.7962 C   0  0  0  0  0  0  0  0  0  0  0  0
   -2.2382    0.6423    0.3570 C   0  0  0  0  0  0  0  0  0  0  0  0
   -0.9238    0.6345    1.1867 C   0  0  0  0  0  0  0  0  0  0  0  0
   -0.0132    1.5945    0.4048 C   0  0  0  0  0  0  0  0  0  0  0  0
   -1.0224    2.6371   -0.0944 C   0  0  0  0  0  0  0  0  0  0  0  0
    1.1842    1.4835   -1.4105 H   0  0  0  0  0  0  0  0  0  0  0  0
   -1.2401   -0.0815   -2.0203 H   0  0  0  0  0  0  0  0  0  0  0  0
   -0.7934    1.4951   -2.6588 H   0  0  0  0  0  0  0  0  0  0  0  0
   -2.7978    1.9976   -1.3014 H   0  0  0  0  0  0  0  0  0  0  0  0
   -3.0744    1.0155    0.9506 H   0  0  0  0  0  0  0  0  0  0  0  0
   -2.5130   -0.3492   -0.0062 H   0  0  0  0  0  0  0  0  0  0  0  0
   -1.0968    1.0038    2.1989 H   0  0  0  0  0  0  0  0  0  0  0  0
   -0.4860   -0.3611    1.2732 H   0  0  0  0  0  0  0  0  0  0  0  0
    0.8254    1.9763    0.9856 H   0  0  0  0  0  0  0  0  0  0  0  0
   -0.5853    3.3657   -0.7802 H   0  0  0  0  0  0  0  0  0  0  0  0
   -1.5298    3.1671    0.7142 H   0  0  0  0  0  0  0  0  0  0  0  0
  1  2  2  3
  1  6  1  0
  1  7  1  0
  2  3  1  0
  2  8  1  0
  3  4  1  0
  3 10  1  0
  4  5  2  3
  4 11  1  0
  5 12  1  0
  5 13  1  0
  9 14  1  0
 14 15  1  0
 14 19  1  0
 14 21  1  0
 15 16  1  0
 15 22  1  0
 15 23  1  0
 16 17  1  0
 16 20  1  0
 16 24  1  0
 17 18  1  0
 17 25  1  0
 17 26  1  0
 18 19  1  0
 18 27  1  0
 18 28  1  0
 19 20  1  0
 19 29  1  0
 20 30  1  0
 20 31  1  0
M  RAD  1   3   2
M  END
>  <reaction>  (14) 
rxn_743

>  <mol_properties>  (14) 
{"1": {"label": "*0", "atom_type": "Cd"}, "2": {"label": "*1", "atom_type": "Cs"}, "8": {"label": "*2", "atom_type": "H0"}, "13": {"label": "*3", "atom_type": "Cs"}, "14": {"label": "*4", "atom_type": "Cs"}}

>  <type>  (14) 
unop_10

>  <geom_source>  (14) 
Heuristics

$$$$

     RDKit          3D

 31 31  0  0  0  0  0  0  0  0999 V2000
   -0.6285   -2.8095   -0.6557 C   0  0  0  0  0  0  0  0  0  0  0  0
   -0.6285   -2.8095    0.6675 C   0  0  0  0  0  0  0  0  0  0  0  0
   -0.6285   -1.5837    1.5255 C   0  0  0  0  0  3  0  0  0  0  0  0
    0.5812   -1.4294    2.4067 C   0  0  0  0  0  0  0  0  0  0  0  0
    1.6923   -2.1451    2.3343 C   0  0  0  0  0  0  0  0  0  0  0  0
   -0.6367   -3.7323   -1.2222 H   0  0  0  0  0  0  0  0  0  0  0  0
   -0.6222   -1.8841   -1.2217 H   0  0  0  0  0  0  0  0  0  0  0  0
   -0.6260   -3.7583    1.1981 H   0  0  0  0  0  0  0  0  0  0  0  0
   -0.7486   -0.5117    0.7750 H   0  0  0  0  0  0  0  0  0  0  0  0
   -1.5165   -1.5972    2.1683 H   0  0  0  0  0  0  0  0  0  0  0  0
    0.5085   -0.6443    3.1545 H   0  0  0  0  0  0  0  0  0  0  0  0
    1.8178   -2.9319    1.5994 H   0  0  0  0  0  0  0  0  0  0  0  0
    2.5205   -1.9608    3.0066 H   0  0  0  0  0  0  0  0  0  0  0  0
   -0.8683    0.5563    0.0272 C   0  0  0  0  0  0  0  0  0  0  0  0
   -0.1685    1.8008    0.6417 C   0  0  0  0  0  0  0  0  0  0  0  0
    0.2345    2.6194   -0.5949 C   0  0  0  0  0  0  0  0  0  0  0  0
    1.3841    1.8909   -1.3089 C   0  0  0  0  0  0  0  0  0  0  0  0
    0.6843    0.6465   -1.9234 C   0  0  0  0  0  0  0  0  0  0  0  0
   -0.7785    0.8177   -1.4846 C   0  0  0  0  0  0  0  0  0  0  0  0
   -0.9402    2.3427   -1.5428 C   0  0  0  0  0  0  0  0  0  0  0  0
   -1.9095    0.4937    0.3478 H   0  0  0  0  0  0  0  0  0  0  0  0
    0.6951    1.5387    1.2549 H   0  0  0  0  0  0  0  0  0  0  0  0
   -0.8567    2.3661    1.2723 H   0  0  0  0  0  0  0  0  0  0  0  0
    0.4432    3.6667   -0.3805 H   0  0  0  0  0  0  0  0  0  0  0  0
    1.8173    2.5214   -2.0872 H   0  0  0  0  0  0  0  0  0  0  0  0
    2.1873    1.6253   -0.6198 H   0  0  0  0  0  0  0  0  0  0  0  0
    0.7645    0.6490   -3.0118 H   0  0  0  0  0  0  0  0  0  0  0  0
    1.1081   -0.2938   -1.5675 H   0  0  0  0  0  0  0  0  0  0  0  0
   -1.4858    0.2362   -2.0744 H   0  0  0  0  0  0  0  0  0  0  0  0
   -1.8993    2.6893   -1.1525 H   0  0  0  0  0  0  0  0  0  0  0  0
   -0.7921    2.7536   -2.5435 H   0  0  0  0  0  0  0  0  0  0  0  0
  1  2  2  3
  1  6  1  0
  1  7  1  0
  2  3  1  0
  2  8  1  0
  3  4  1  0
  3 10  1  0
  4  5  2  3
  4 11  1  0
  5 12  1  0
  5 13  1  0
  9 14  1  0
 14 15  1  0
 14 19  1  0
 14 21  1  0
 15 16  1  0
 15 22  1  0
 15 23  1  0
 16 17  1  0
 16 20  1  0
 16 24  1  0
 17 18  1  0
 17 25  1  0
 17 26  1  0
 18 19  1  0
 18 27  1  0
 18 28  1  0
 19 20  1  0
 19 29  1  0
 20 30  1  0
 20 31  1  0
M  RAD  1   3   2
M  END
>  <reaction>  (15) 
rxn_743

>  <mol_properties>  (15) 
{"1": {"label": "*0", "atom_type": "Cd"}, "2": {"label": "*1", "atom_type": "Cs"}, "8": {"label": "*2", "atom_type": "H0"}, "13": {"label": "*3", "atom_type": "Cs"}, "14": {"label": "*4", "atom_type": "Cs"}}

>  <type>  (15) 
unop_11

>  <geom_source>  (15) 
Heuristics

$$$$

     RDKit          3D

 31 31  0  0  0  0  0  0  0  0999 V2000
    0.6381   -2.3508   -0.7474 C   0  0  0  0  0  0  0  0  0  0  0  0
    0.6381   -2.3508    0.5759 C   0  0  0  0  0  0  0  0  0  0  0  0
    0.6381   -1.1250    1.4339 C   0  0  0  0  0  3  0  0  0  0  0  0
    1.8479   -0.9707    2.3151 C   0  0  0  0  0  0  0  0  0  0  0  0
    2.9590   -1.6864    2.2427 C   0  0  0  0  0  0  0  0  0  0  0  0
    0.6300   -3.2736   -1.3139 H   0  0  0  0  0  0  0  0  0  0  0  0
    0.6445   -1.4254   -1.3133 H   0  0  0  0  0  0  0  0  0  0  0  0
    0.6407   -3.2996    1.1064 H   0  0  0  0  0  0  0  0  0  0  0  0
    0.5181   -0.0531    0.6833 H   0  0  0  0  0  0  0  0  0  0  0  0
   -0.2498   -1.1385    2.0767 H   0  0  0  0  0  0  0  0  0  0  0  0
    1.7752   -0.1856    3.0628 H   0  0  0  0  0  0  0  0  0  0  0  0
    3.0845   -2.4732    1.5078 H   0  0  0  0  0  0  0  0  0  0  0  0
    3.7872   -1.5021    2.9150 H   0  0  0  0  0  0  0  0  0  0  0  0
    0.3984    1.0150   -0.0644 C   0  0  0  0  0  0  0  0  0  0  0  0
    0.2961    0.6792   -1.5787 C   0  0  0  0  0  0  0  0  0  0  0  0
   -1.0614    1.2795   -1.9772 C   0  0  0  0  0  0  0  0  0  0  0  0
   -2.1753    0.4230   -1.3548 C   0  0  0  0  0  0  0  0  0  0  0  0
   -2.0730    0.7588    0.1594 C   0  0  0  0  0  0  0  0  0  0  0  0
   -0.9132    1.7656    0.2149 C   0  0  0  0  0  0  0  0  0  0  0  0
   -1.1119    2.5358   -1.0974 C   0  0  0  0  0  0  0  0  0  0  0  0
    1.2601    1.6532    0.1383 H   0  0  0  0  0  0  0  0  0  0  0  0
    0.3403   -0.3929   -1.7764 H   0  0  0  0  0  0  0  0  0  0  0  0
    1.1061    1.1480   -2.1399 H   0  0  0  0  0  0  0  0  0  0  0  0
   -1.1748    1.4378   -3.0488 H   0  0  0  0  0  0  0  0  0  0  0  0
   -3.1504    0.7068   -1.7544 H   0  0  0  0  0  0  0  0  0  0  0  0
   -2.0350   -0.6391   -1.5613 H   0  0  0  0  0  0  0  0  0  0  0  0
   -2.9964    1.2120    0.5238 H   0  0  0  0  0  0  0  0  0  0  0  0
   -1.8771   -0.1212    0.7739 H   0  0  0  0  0  0  0  0  0  0  0  0
   -0.8927    2.3634    1.1251 H   0  0  0  0  0  0  0  0  0  0  0  0
   -0.3063    3.2421   -1.3085 H   0  0  0  0  0  0  0  0  0  0  0  0
   -2.0687    3.0594   -1.1489 H   0  0  0  0  0  0  0  0  0  0  0  0
  1  2  2  3
  1  6  1  0
  1  7  1  0
  2  3  1  0
  2  8  1  0
  3  4  1  0
  3 10  1  0
  4  5  2  3
  4 11  1  0
  5 12  1  0
  5 13  1  0
  9 14  1  0
 14 15  1  0
 14 19  1  0
 14 21  1  0
 15 16  1  0
 15 22  1  0
 15 23  1  0
 16 17  1  0
 16 20  1  0
 16 24  1  0
 17 18  1  0
 17 25  1  0
 17 26  1  0
 18 19  1  0
 18 27  1  0
 18 28  1  0
 19 20  1  0
 19 29  1  0
 20 30  1  0
 20 31  1  0
M  RAD  1   3   2
M  END
>  <reaction>  (16) 
rxn_743

>  <mol_properties>  (16) 
{"1": {"label": "*0", "atom_type": "Cd"}, "2": {"label": "*1", "atom_type": "Cs"}, "8": {"label": "*2", "atom_type": "H0"}, "13": {"label": "*3", "atom_type": "Cs"}, "14": {"label": "*4", "atom_type": "Cs"}}

>  <type>  (16) 
unop_12

>  <geom_source>  (16) 
Heuristics

$$$$

     RDKit          3D

 31 31  0  0  0  0  0  0  0  0999 V2000
    2.2112   -1.1454    0.1432 C   0  0  0  0  0  0  0  0  0  0  0  0
    1.3160    0.6346    1.1128 C   0  0  0  0  0  0  0  0  0  0  0  0
    2.0069   -0.6356    1.5495 C   0  0  0  0  0  0  0  0  0  0  0  0
    2.9801    0.0197   -0.5064 C   0  0  0  0  0  0  0  0  0  0  0  0
    2.3503    1.2548    0.1608 C   0  0  0  0  0  0  0  0  0  0  0  0
    0.7715   -1.1470   -0.3993 C   0  0  0  0  0  0  0  0  0  0  0  0
   -1.9178    0.2847   -1.3422 C   0  0  0  0  0  0  0  0  0  0  0  0
    0.1586    0.1001    0.2564 C   0  0  0  0  0  3  0  0  0  0  0  0
   -2.7631    1.4592   -0.9402 C   0  0  0  0  0  0  0  0  0  0  0  0
   -2.5868   -1.0068   -0.9679 C   0  0  0  0  0  0  0  0  0  0  0  0
   -2.7421    1.9462    0.3033 C   0  0  0  0  0  0  0  0  0  0  0  0
   -2.4958   -1.5129    0.2649 C   0  0  0  0  0  0  0  0  0  0  0  0
    2.7261   -2.1273    0.0737 H   0  0  0  0  0  0  0  0  0  0  0  0
    0.9993    1.3038    1.9410 H   0  0  0  0  0  0  0  0  0  0  0  0
    4.0626   -0.0481   -0.2595 H   0  0  0  0  0  0  0  0  0  0  0  0
    2.8567    0.0385   -1.6113 H   0  0  0  0  0  0  0  0  0  0  0  0
    3.1151    1.8215    0.7363 H   0  0  0  0  0  0  0  0  0  0  0  0
    1.8734    1.9283   -0.5852 H   0  0  0  0  0  0  0  0  0  0  0  0
    1.3528   -1.2977    2.1632 H   0  0  0  0  0  0  0  0  0  0  0  0
    2.9644   -0.4471    2.0885 H   0  0  0  0  0  0  0  0  0  0  0  0
    0.2356   -2.0662   -0.0745 H   0  0  0  0  0  0  0  0  0  0  0  0
    0.7394   -1.0719   -1.5074 H   0  0  0  0  0  0  0  0  0  0  0  0
   -0.7702    0.3610   -0.8284 H   0  0  0  0  0  0  0  0  0  0  0  0
   -1.7930    0.3060   -2.4457 H   0  0  0  0  0  0  0  0  0  0  0  0
   -0.6999   -0.1847    0.9036 H   0  0  0  0  0  0  0  0  0  0  0  0
   -3.4061    1.9250   -1.6814 H   0  0  0  0  0  0  0  0  0  0  0  0
   -3.1571   -1.5433   -1.7206 H   0  0  0  0  0  0  0  0  0  0  0  0
   -2.1053    1.5089    1.0659 H   0  0  0  0  0  0  0  0  0  0  0  0
   -3.3647    2.7960    0.5636 H   0  0  0  0  0  0  0  0  0  0  0  0
   -1.9274   -1.0059    1.0383 H   0  0  0  0  0  0  0  0  0  0  0  0
   -2.9906   -2.4482    0.5051 H   0  0  0  0  0  0  0  0  0  0  0  0
  1  6  1  0
  1  4  1  0
  1  3  1  0
  1 13  1  0
  2  8  1  0
  2  5  1  0
  2  3  1  0
  2 14  1  0
  3 19  1  0
  3 20  1  0
  4  5  1  0
  4 15  1  0
  4 16  1  0
  5 17  1  0
  5 18  1  0
  6  8  1  0
  6 21  1  0
  6 22  1  0
  7  9  1  0
  7 10  1  0
  7 23  1  0
  7 24  1  0
  8 25  1  0
  9 11  2  3
  9 26  1  0
 10 12  2  3
 10 27  1  0
 11 28  1  0
 11 29  1  0
 12 30  1  0
 12 31  1  0
M  RAD  1   8   2
M  END
>  <reaction>  (17) 
rxn_743

>  <mol_properties>  (17) 
{"1": {"label": "*0", "atom_type": "Cd"}, "2": {"label": "*1", "atom_type": "Cs"}, "8": {"label": "*2", "atom_type": "H0"}, "13": {"label": "*3", "atom_type": "Cs"}, "14": {"label": "*4", "atom_type": "Cs"}}

>  <type>  (17) 
unop_13

>  <geom_source>  (17) 
AutoTST

$$$$

     RDKit          3D

 31 31  0  0  0  0  0  0  0  0999 V2000
    0.7521   -2.3656   -1.1799 C   0  0  0  0  0  0  0  0  0  0  0  0
    0.7521   -2.3656    0.1433 C   0  0  0  0  0  0  0  0  0  0  0  0
    0.7521   -1.1398    1.0013 C   0  0  0  0  0  3  0  0  0  0  0  0
    1.9618   -0.9854    1.8825 C   0  0  0  0  0  0  0  0  0  0  0  0
    3.0729   -1.7011    1.8101 C   0  0  0  0  0  0  0  0  0  0  0  0
    0.7439   -3.2883   -1.7464 H   0  0  0  0  0  0  0  0  0  0  0  0
    0.7584   -1.4402   -1.7459 H   0  0  0  0  0  0  0  0  0  0  0  0
    0.7546   -3.3144    0.6739 H   0  0  0  0  0  0  0  0  0  0  0  0
    0.6320   -0.0678    0.2508 H   0  0  0  0  0  0  0  0  0  0  0  0
   -0.1359   -1.1533    1.6441 H   0  0  0  0  0  0  0  0  0  0  0  0
    1.8891   -0.2004    2.6303 H   0  0  0  0  0  0  0  0  0  0  0  0
    3.1984   -2.4880    1.0752 H   0  0  0  0  0  0  0  0  0  0  0  0
    3.9011   -1.5168    2.4825 H   0  0  0  0  0  0  0  0  0  0  0  0
    0.5123    1.0002   -0.4970 C   0  0  0  0  0  0  0  0  0  0  0  0
   -0.2971    0.7350   -1.7972 C   0  0  0  0  0  0  0  0  0  0  0  0
   -1.6726    1.3432   -1.4808 C   0  0  0  0  0  0  0  0  0  0  0  0
   -2.3746    0.4501   -0.4457 C   0  0  0  0  0  0  0  0  0  0  0  0
   -1.5651    0.7153    0.8545 C   0  0  0  0  0  0  0  0  0  0  0  0
   -0.5007    1.7271    0.4015 C   0  0  0  0  0  0  0  0  0  0  0  0
   -1.2828    2.5565   -0.6259 C   0  0  0  0  0  0  0  0  0  0  0  0
    1.3776    1.6347   -0.6963 H   0  0  0  0  0  0  0  0  0  0  0  0
   -0.3680   -0.3262   -2.0403 H   0  0  0  0  0  0  0  0  0  0  0  0
    0.1597    1.2357   -2.6525 H   0  0  0  0  0  0  0  0  0  0  0  0
   -2.2755    1.5507   -2.3638 H   0  0  0  0  0  0  0  0  0  0  0  0
   -3.4183    0.7450   -0.3248 H   0  0  0  0  0  0  0  0  0  0  0  0
   -2.3647   -0.6000   -0.7414 H   0  0  0  0  0  0  0  0  0  0  0  0
   -2.2004    1.1440    1.6314 H   0  0  0  0  0  0  0  0  0  0  0  0
   -1.1163   -0.1911    1.2637 H   0  0  0  0  0  0  0  0  0  0  0  0
   -0.0442    2.2817    1.2202 H   0  0  0  0  0  0  0  0  0  0  0  0
   -0.6611    3.2779   -1.1601 H   0  0  0  0  0  0  0  0  0  0  0  0
   -2.1426    3.0747   -0.1963 H   0  0  0  0  0  0  0  0  0  0  0  0
  1  2  2  3
  1  6  1  0
  1  7  1  0
  2  3  1  0
  2  8  1  0
  3  4  1  0
  3 10  1  0
  4  5  2  3
  4 11  1  0
  5 12  1  0
  5 13  1  0
  9 14  1  0
 14 15  1  0
 14 19  1  0
 14 21  1  0
 15 16  1  0
 15 22  1  0
 15 23  1  0
 16 17  1  0
 16 20  1  0
 16 24  1  0
 17 18  1  0
 17 25  1  0
 17 26  1  0
 18 19  1  0
 18 27  1  0
 18 28  1  0
 19 20  1  0
 19 29  1  0
 20 30  1  0
 20 31  1  0
M  RAD  1   3   2
M  END
>  <reaction>  (18) 
rxn_743

>  <mol_properties>  (18) 
{"1": {"label": "*0", "atom_type": "Cd"}, "2": {"label": "*1", "atom_type": "Cs"}, "8": {"label": "*2", "atom_type": "H0"}, "13": {"label": "*3", "atom_type": "Cs"}, "14": {"label": "*4", "atom_type": "Cs"}}

>  <type>  (18) 
unop_14

>  <geom_source>  (18) 
gaussian_log

$$$$
