
     RDKit          3D

  9  8  0  0  0  0  0  0  0  0999 V2000
    1.1303   -0.2933   -0.7510 C   0  0  0  0  0  0  0  0  0  0  0  0
    0.2866    0.4560   -0.0588 C   0  0  0  0  0  0  0  0  0  0  0  0
   -0.9719   -0.0331    0.5823 C   0  0  0  0  0  0  0  0  0  0  0  0
    2.0274    0.1230   -1.1916 H   0  0  0  0  0  0  0  0  0  0  0  0
    0.9532   -1.3530   -0.9023 H   0  0  0  0  0  0  0  0  0  0  0  0
    0.5065    1.5132    0.0659 H   0  0  0  0  0  0  0  0  0  0  0  0
   -0.9526    0.1426    1.6610 H   0  0  0  0  0  0  0  0  0  0  0  0
   -1.1182   -1.1002    0.4106 H   0  0  0  0  0  0  0  0  0  0  0  0
   -1.8412    0.5010    0.1901 H   0  0  0  0  0  0  0  0  0  0  0  0
  1  2  2  3
  1  4  1  0
  1  5  1  0
  2  3  1  0
  2  6  1  0
  3  7  1  0
  3  8  1  0
  3  9  1  0
M  END
>  <reaction>  (1) 
rxn_1644

>  <mol_properties>  (1) 
{"1": {"label": "donator", "atom_type": "Cd"}, "5": {"label": "d_hydrogen", "atom_type": "H0"}}

>  <type>  (1) 
r1h

$$$$

     RDKit          3D

  7  6  0  0  0  0  0  0  0  0999 V2000
   -0.6904   -0.9066   -0.0346 C   0  0  0  0  0  0  0  0  0  0  0  0
    0.1413    0.0254   -0.6161 C   0  0  0  0  0  0  0  0  0  0  0  0
    0.4603    0.1105   -1.9267 C   0  0  0  0  0  3  0  0  0  0  0  0
    0.8318    0.2180   -3.4201 S   0  0  0  0  0  0  0  0  0  0  0  0
   -0.8731   -0.8770    1.0287 H   0  0  0  0  0  0  0  0  0  0  0  0
   -1.1718   -1.6767   -0.6199 H   0  0  0  0  0  0  0  0  0  0  0  0
    0.6090    0.7866    0.0044 H   0  0  0  0  0  0  0  0  0  0  0  0
  1  2  2  3
  1  5  1  0
  1  6  1  0
  2  3  1  0
  2  7  1  0
  3  4  2  0
M  RAD  1   3   2
M  END
>  <reaction>  (2) 
rxn_1644

>  <mol_properties>  (2) 
{"2": {"label": "acceptor", "atom_type": "CS"}}

>  <type>  (2) 
r2

$$$$

     RDKit          3D

  8  7  0  0  0  0  0  0  0  0999 V2000
   -1.1617    0.0338    0.5053 C   0  0  0  0  0  0  0  0  0  0  0  0
   -0.1023    0.4503   -0.1863 C   0  0  0  0  0  0  0  0  0  0  0  0
    1.0978   -0.3557   -0.3104 C   0  0  0  0  0  0  0  0  0  0  0  0
    2.4251    0.0667   -1.1256 S   0  0  0  0  0  0  0  0  0  0  0  0
   -1.1653   -0.9292    1.0039 H   0  0  0  0  0  0  0  0  0  0  0  0
   -2.0546    0.6389    0.5948 H   0  0  0  0  0  0  0  0  0  0  0  0
   -0.0991    1.4132   -0.6847 H   0  0  0  0  0  0  0  0  0  0  0  0
    1.0601   -1.3180    0.2032 H   0  0  0  0  0  0  0  0  0  0  0  0
  1  2  2  3
  1  5  1  0
  1  6  1  0
  2  3  1  0
  2  7  1  0
  3  4  2  0
  3  8  1  0
M  END
>  <reaction>  (3) 
rxn_1644

>  <mol_properties>  (3) 
{"2": {"label": "acceptor", "atom_type": "CS"}, "7": {"label": "a_hydrogen", "atom_type": "H0"}}

>  <type>  (3) 
r2h

$$$$

     RDKit          3D

 16 14  0  0  0  0  0  0  0  0999 V2000
    0.4885   -1.0858    1.2841 C   0  0  0  0  0  0  0  0  0  0  0  0
   -0.8172   -0.9675    1.5228 C   0  0  0  0  0  0  0  0  0  0  0  0
   -1.6164    0.0778    0.9186 C   0  0  0  0  0  0  0  0  0  0  0  0
   -3.1922    0.3162    1.0281 S   0  0  0  0  0  0  0  0  0  0  0  0
    1.0713   -1.8790    1.7346 H   0  0  0  0  0  0  0  0  0  0  0  0
    1.0038   -0.3957    0.6263 H   0  0  0  0  0  0  0  0  0  0  0  0
   -1.3304   -1.6670    2.1764 H   0  0  0  0  0  0  0  0  0  0  0  0
    0.8042    2.4244   -0.0680 C   0  0  0  0  0  0  0  0  0  0  0  0
   -0.2524    1.8525   -0.5986 C   0  0  0  0  0  3  0  0  0  0  0  0
   -0.9569    2.0452   -1.8842 C   0  0  0  0  0  0  0  0  0  0  0  0
    1.1642    2.1594    0.9206 H   0  0  0  0  0  0  0  0  0  0  0  0
    1.3558    3.2011   -0.5962 H   0  0  0  0  0  0  0  0  0  0  0  0
   -0.9309    0.8926    0.2108 H   0  0  0  0  0  0  0  0  0  0  0  0
   -0.9440    1.1274   -2.4766 H   0  0  0  0  0  0  0  0  0  0  0  0
   -0.4955    2.8446   -2.4725 H   0  0  0  0  0  0  0  0  0  0  0  0
   -2.0044    2.3012   -1.7095 H   0  0  0  0  0  0  0  0  0  0  0  0
  1  2  2  3
  1  5  1  0
  1  6  1  0
  2  3  1  0
  2  7  1  0
  3  4  2  0
  3 13  1  0
  8  9  2  3
  8 11  1  0
  8 12  1  0
  9 10  1  0
 10 14  1  0
 10 15  1  0
 10 16  1  0
M  RAD  1   9   2
M  END
>  <reaction>  (4) 
rxn_1644

>  <mol_properties>  (4) 
{"2": {"label": "*1", "atom_type": "CS"}, "3": {"label": "*0", "atom_type": "S2d"}, "7": {"label": "*4", "atom_type": "Cd"}, "8": {"label": "*3", "atom_type": "Cd"}, "12": {"label": "*2", "atom_type": "H0"}}

>  <type>  (4) 
ts

$$$$

     RDKit          3D

 16 14  0  0  0  0  0  0  0  0999 V2000
    2.3754   -0.7726    0.7583 C   0  0  0  0  0  0  0  0  0  0  0  0
    1.1389   -1.1125    1.1184 C   0  0  0  0  0  0  0  0  0  0  0  0
   -0.0009   -0.8942    0.2475 C   0  0  0  0  0  3  0  0  0  0  0  0
   -1.5298   -1.2731    0.5991 S   0  0  0  0  0  0  0  0  0  0  0  0
    3.2222   -0.9376    1.4118 H   0  0  0  0  0  0  0  0  0  0  0  0
    2.5760   -0.3173   -0.2052 H   0  0  0  0  0  0  0  0  0  0  0  0
    0.9387   -1.5677    2.0819 H   0  0  0  0  0  0  0  0  0  0  0  0
   -0.0009    1.3969   -2.3353 C   0  0  0  0  0  0  0  0  0  0  0  0
   -0.0009    1.3969   -1.0116 C   0  0  0  0  0  0  0  0  0  0  0  0
   -0.0009    2.6191   -0.1510 C   0  0  0  0  0  0  0  0  0  0  0  0
   -0.0009    0.4742   -2.9018 H   0  0  0  0  0  0  0  0  0  0  0  0
   -0.0009    2.3225   -2.9013 H   0  0  0  0  0  0  0  0  0  0  0  0
   -0.0009    0.2537   -0.3833 H   0  0  0  0  0  0  0  0  0  0  0  0
   -0.8786    2.6362    0.5002 H   0  0  0  0  0  0  0  0  0  0  0  0
   -0.0009    3.5295   -0.7516 H   0  0  0  0  0  0  0  0  0  0  0  0
    0.8768    2.6362    0.5002 H   0  0  0  0  0  0  0  0  0  0  0  0
  1  2  2  3
  1  5  1  0
  1  6  1  0
  2  3  1  0
  2  7  1  0
  3  4  2  0
  8  9  2  3
  8 11  1  0
  8 12  1  0
  9 10  1  0
  9 13  1  0
 10 14  1  0
 10 15  1  0
 10 16  1  0
M  RAD  1   3   2
M  END
>  <reaction>  (5) 
rxn_1644

>  <mol_properties>  (5) 
{"2": {"label": "*1", "atom_type": "CS"}, "3": {"label": "*0", "atom_type": "S2d"}, "7": {"label": "*4", "atom_type": "Cd"}, "8": {"label": "*3", "atom_type": "Cd"}, "12": {"label": "*2", "atom_type": "H0"}}

>  <type>  (5) 
unop_1

>  <geom_source>  (5) 
Heuristics

$$$$

     RDKit          3D

 16 14  0  0  0  0  0  0  0  0999 V2000
    0.8070   -1.7858   -1.6074 C   0  0  0  0  0  0  0  0  0  0  0  0
    0.5613   -1.8428   -0.2995 C   0  0  0  0  0  0  0  0  0  0  0  0
   -0.0967   -0.7586    0.4052 C   0  0  0  0  0  3  0  0  0  0  0  0
   -0.4341   -0.7406    1.9834 S   0  0  0  0  0  0  0  0  0  0  0  0
    1.2983   -2.5974   -2.1283 H   0  0  0  0  0  0  0  0  0  0  0  0
    0.5221   -0.9211   -2.1964 H   0  0  0  0  0  0  0  0  0  0  0  0
    0.8464   -2.7076    0.2892 H   0  0  0  0  0  0  0  0  0  0  0  0
   -0.0967    1.5325   -2.1776 C   0  0  0  0  0  0  0  0  0  0  0  0
   -0.0967    1.5325   -0.8538 C   0  0  0  0  0  0  0  0  0  0  0  0
   -0.0967    2.7546    0.0067 C   0  0  0  0  0  0  0  0  0  0  0  0
   -0.0967    0.6097   -2.7440 H   0  0  0  0  0  0  0  0  0  0  0  0
   -0.0967    2.4581   -2.7436 H   0  0  0  0  0  0  0  0  0  0  0  0
   -0.0967    0.3893   -0.2256 H   0  0  0  0  0  0  0  0  0  0  0  0
   -0.9744    2.7718    0.6579 H   0  0  0  0  0  0  0  0  0  0  0  0
   -0.0967    3.6651   -0.5939 H   0  0  0  0  0  0  0  0  0  0  0  0
    0.7810    2.7718    0.6579 H   0  0  0  0  0  0  0  0  0  0  0  0
  1  2  2  3
  1  5  1  0
  1  6  1  0
  2  3  1  0
  2  7  1  0
  3  4  2  0
  8  9  2  3
  8 11  1  0
  8 12  1  0
  9 10  1  0
  9 13  1  0
 10 14  1  0
 10 15  1  0
 10 16  1  0
M  RAD  1   3   2
M  END
>  <reaction>  (6) 
rxn_1644

>  <mol_properties>  (6) 
{"2": {"label": "*1", "atom_type": "CS"}, "3": {"label": "*0", "atom_type": "S2d"}, "7": {"label": "*4", "atom_type": "Cd"}, "8": {"label": "*3", "atom_type": "Cd"}, "12": {"label": "*2", "atom_type": "H0"}}

>  <type>  (6) 
unop_2

>  <geom_source>  (6) 
Heuristics

$$$$

     RDKit          3D

 16 14  0  0  0  0  0  0  0  0999 V2000
    1.7536   -0.0338    1.8298 C   0  0  0  0  0  0  0  0  0  0  0  0
    0.7227   -0.8372    1.5729 C   0  0  0  0  0  0  0  0  0  0  0  0
    0.0646   -0.8508    0.2798 C   0  0  0  0  0  3  0  0  0  0  0  0
   -1.1873   -1.7876   -0.1200 S   0  0  0  0  0  0  0  0  0  0  0  0
    2.2410   -0.0275    2.7961 H   0  0  0  0  0  0  0  0  0  0  0  0
    2.1407    0.6434    1.0766 H   0  0  0  0  0  0  0  0  0  0  0  0
    0.3358   -1.5143    2.3262 H   0  0  0  0  0  0  0  0  0  0  0  0
    0.0646    1.4402   -2.3030 C   0  0  0  0  0  0  0  0  0  0  0  0
    0.0646    1.4402   -0.9792 C   0  0  0  0  0  0  0  0  0  0  0  0
    0.0646    2.6624   -0.1187 C   0  0  0  0  0  0  0  0  0  0  0  0
    0.0646    0.5175   -2.8695 H   0  0  0  0  0  0  0  0  0  0  0  0
    0.0646    2.3658   -2.8690 H   0  0  0  0  0  0  0  0  0  0  0  0
    0.0646    0.2970   -0.3510 H   0  0  0  0  0  0  0  0  0  0  0  0
   -0.8131    2.6795    0.5325 H   0  0  0  0  0  0  0  0  0  0  0  0
    0.0646    3.5728   -0.7193 H   0  0  0  0  0  0  0  0  0  0  0  0
    0.9423    2.6795    0.5325 H   0  0  0  0  0  0  0  0  0  0  0  0
  1  2  2  3
  1  5  1  0
  1  6  1  0
  2  3  1  0
  2  7  1  0
  3  4  2  0
  8  9  2  3
  8 11  1  0
  8 12  1  0
  9 10  1  0
  9 13  1  0
 10 14  1  0
 10 15  1  0
 10 16  1  0
M  RAD  1   3   2
M  END
>  <reaction>  (7) 
rxn_1644

>  <mol_properties>  (7) 
{"2": {"label": "*1", "atom_type": "CS"}, "3": {"label": "*0", "atom_type": "S2d"}, "7": {"label": "*4", "atom_type": "Cd"}, "8": {"label": "*3", "atom_type": "Cd"}, "12": {"label": "*2", "atom_type": "H0"}}

>  <type>  (7) 
unop_3

>  <geom_source>  (7) 
Heuristics

$$$$

     RDKit          3D

 16 14  0  0  0  0  0  0  0  0999 V2000
   -1.6152   -1.6685   -1.1329 C   0  0  0  0  0  0  0  0  0  0  0  0
   -1.0093   -1.6734    0.0532 C   0  0  0  0  0  0  0  0  0  0  0  0
    0.1305   -0.8212    0.3358 C   0  0  0  0  0  3  0  0  0  0  0  0
    0.9249   -0.7606    1.7393 S   0  0  0  0  0  0  0  0  0  0  0  0
   -2.4652   -2.3062   -1.3386 H   0  0  0  0  0  0  0  0  0  0  0  0
   -1.2761   -1.0230   -1.9355 H   0  0  0  0  0  0  0  0  0  0  0  0
   -1.3487   -2.3190    0.8555 H   0  0  0  0  0  0  0  0  0  0  0  0
    0.1305    1.4699   -2.2470 C   0  0  0  0  0  0  0  0  0  0  0  0
    0.1305    1.4699   -0.9233 C   0  0  0  0  0  0  0  0  0  0  0  0
    0.1305    2.6920   -0.0627 C   0  0  0  0  0  0  0  0  0  0  0  0
    0.1305    0.5471   -2.8135 H   0  0  0  0  0  0  0  0  0  0  0  0
    0.1305    2.3955   -2.8130 H   0  0  0  0  0  0  0  0  0  0  0  0
    0.1305    0.3267   -0.2950 H   0  0  0  0  0  0  0  0  0  0  0  0
   -0.7472    2.7092    0.5885 H   0  0  0  0  0  0  0  0  0  0  0  0
    0.1305    3.6025   -0.6633 H   0  0  0  0  0  0  0  0  0  0  0  0
    1.0082    2.7092    0.5885 H   0  0  0  0  0  0  0  0  0  0  0  0
  1  2  2  3
  1  5  1  0
  1  6  1  0
  2  3  1  0
  2  7  1  0
  3  4  2  0
  8  9  2  3
  8 11  1  0
  8 12  1  0
  9 10  1  0
  9 13  1  0
 10 14  1  0
 10 15  1  0
 10 16  1  0
M  RAD  1   3   2
M  END
>  <reaction>  (8) 
rxn_1644

>  <mol_properties>  (8) 
{"2": {"label": "*1", "atom_type": "CS"}, "3": {"label": "*0", "atom_type": "S2d"}, "7": {"label": "*4", "atom_type": "Cd"}, "8": {"label": "*3", "atom_type": "Cd"}, "12": {"label": "*2", "atom_type": "H0"}}

>  <type>  (8) 
unop_4

>  <geom_source>  (8) 
Heuristics

$$$$

     RDKit          3D

 16 14  0  0  0  0  0  0  0  0999 V2000
   -0.0000    0.4812    2.3942 C   0  0  0  0  0  0  0  0  0  0  0  0
   -0.0000   -0.6947    1.7686 C   0  0  0  0  0  0  0  0  0  0  0  0
   -0.0000   -0.7933    0.3210 C   0  0  0  0  0  3  0  0  0  0  0  0
    0.0000   -2.1706   -0.5203 S   0  0  0  0  0  0  0  0  0  0  0  0
   -0.0000    0.5492    3.4744 H   0  0  0  0  0  0  0  0  0  0  0  0
   -0.0000    1.4134    1.8403 H   0  0  0  0  0  0  0  0  0  0  0  0
   -0.0000   -1.6266    2.3228 H   0  0  0  0  0  0  0  0  0  0  0  0
    0.0000    1.4978   -2.2618 C   0  0  0  0  0  0  0  0  0  0  0  0
    0.0000    1.4978   -0.9380 C   0  0  0  0  0  0  0  0  0  0  0  0
    0.0000    2.7199   -0.0775 C   0  0  0  0  0  0  0  0  0  0  0  0
    0.0000    0.5750   -2.8283 H   0  0  0  0  0  0  0  0  0  0  0  0
    0.0000    2.4234   -2.8278 H   0  0  0  0  0  0  0  0  0  0  0  0
    0.0000    0.3546   -0.3098 H   0  0  0  0  0  0  0  0  0  0  0  0
   -0.8777    2.7371    0.5737 H   0  0  0  0  0  0  0  0  0  0  0  0
    0.0000    3.6304   -0.6781 H   0  0  0  0  0  0  0  0  0  0  0  0
    0.8777    2.7371    0.5737 H   0  0  0  0  0  0  0  0  0  0  0  0
  1  2  2  3
  1  5  1  0
  1  6  1  0
  2  3  1  0
  2  7  1  0
  3  4  2  0
  8  9  2  3
  8 11  1  0
  8 12  1  0
  9 10  1  0
  9 13  1  0
 10 14  1  0
 10 15  1  0
 10 16  1  0
M  RAD  1   3   2
M  END
>  <reaction>  (9) 
rxn_1644

>  <mol_properties>  (9) 
{"2": {"label": "*1", "atom_type": "CS"}, "3": {"label": "*0", "atom_type": "S2d"}, "7": {"label": "*4", "atom_type": "Cd"}, "8": {"label": "*3", "atom_type": "Cd"}, "12": {"label": "*2", "atom_type": "H0"}}

>  <type>  (9) 
unop_5

>  <geom_source>  (9) 
Heuristics

$$$$

     RDKit          3D

 16 14  0  0  0  0  0  0  0  0999 V2000
   -2.2305   -1.3352   -0.3080 C   0  0  0  0  0  0  0  0  0  0  0  0
   -1.2278   -1.4125    0.5652 C   0  0  0  0  0  0  0  0  0  0  0  0
    0.0884   -0.8772    0.2711 C   0  0  0  0  0  3  0  0  0  0  0  0
    1.3588   -0.9256    1.2653 S   0  0  0  0  0  0  0  0  0  0  0  0
   -3.2105   -1.7362   -0.0836 H   0  0  0  0  0  0  0  0  0  0  0  0
   -2.0984   -0.8663   -1.2768 H   0  0  0  0  0  0  0  0  0  0  0  0
   -1.3602   -1.8815    1.5338 H   0  0  0  0  0  0  0  0  0  0  0  0
    0.0884    1.4138   -2.3117 C   0  0  0  0  0  0  0  0  0  0  0  0
    0.0884    1.4138   -0.9880 C   0  0  0  0  0  0  0  0  0  0  0  0
    0.0884    2.6360   -0.1275 C   0  0  0  0  0  0  0  0  0  0  0  0
    0.0884    0.4911   -2.8782 H   0  0  0  0  0  0  0  0  0  0  0  0
    0.0884    2.3394   -2.8777 H   0  0  0  0  0  0  0  0  0  0  0  0
    0.0884    0.2707   -0.3598 H   0  0  0  0  0  0  0  0  0  0  0  0
   -0.7893    2.6531    0.5237 H   0  0  0  0  0  0  0  0  0  0  0  0
    0.0884    3.5464   -0.7281 H   0  0  0  0  0  0  0  0  0  0  0  0
    0.9661    2.6531    0.5238 H   0  0  0  0  0  0  0  0  0  0  0  0
  1  2  2  3
  1  5  1  0
  1  6  1  0
  2  3  1  0
  2  7  1  0
  3  4  2  0
  8  9  2  3
  8 11  1  0
  8 12  1  0
  9 10  1  0
  9 13  1  0
 10 14  1  0
 10 15  1  0
 10 16  1  0
M  RAD  1   3   2
M  END
>  <reaction>  (10) 
rxn_1644

>  <mol_properties>  (10) 
{"2": {"label": "*1", "atom_type": "CS"}, "3": {"label": "*0", "atom_type": "S2d"}, "7": {"label": "*4", "atom_type": "Cd"}, "8": {"label": "*3", "atom_type": "Cd"}, "12": {"label": "*2", "atom_type": "H0"}}

>  <type>  (10) 
unop_6

>  <geom_source>  (10) 
Heuristics

$$$$

     RDKit          3D

 16 14  0  0  0  0  0  0  0  0999 V2000
   -2.3754   -0.7726    0.7583 C   0  0  0  0  0  0  0  0  0  0  0  0
   -1.1389   -1.1125    1.1184 C   0  0  0  0  0  0  0  0  0  0  0  0
    0.0009   -0.8942    0.2475 C   0  0  0  0  0  3  0  0  0  0  0  0
    1.5298   -1.2731    0.5991 S   0  0  0  0  0  0  0  0  0  0  0  0
   -3.2222   -0.9376    1.4117 H   0  0  0  0  0  0  0  0  0  0  0  0
   -2.5760   -0.3173   -0.2052 H   0  0  0  0  0  0  0  0  0  0  0  0
   -0.9387   -1.5677    2.0819 H   0  0  0  0  0  0  0  0  0  0  0  0
    0.0009    1.3969   -2.3353 C   0  0  0  0  0  0  0  0  0  0  0  0
    0.0009    1.3969   -1.0116 C   0  0  0  0  0  0  0  0  0  0  0  0
    0.0009    2.6191   -0.1510 C   0  0  0  0  0  0  0  0  0  0  0  0
    0.0009    0.4742   -2.9018 H   0  0  0  0  0  0  0  0  0  0  0  0
    0.0009    2.3225   -2.9013 H   0  0  0  0  0  0  0  0  0  0  0  0
    0.0009    0.2537   -0.3833 H   0  0  0  0  0  0  0  0  0  0  0  0
   -0.8768    2.6362    0.5002 H   0  0  0  0  0  0  0  0  0  0  0  0
    0.0009    3.5295   -0.7516 H   0  0  0  0  0  0  0  0  0  0  0  0
    0.8786    2.6362    0.5002 H   0  0  0  0  0  0  0  0  0  0  0  0
  1  2  2  3
  1  5  1  0
  1  6  1  0
  2  3  1  0
  2  7  1  0
  3  4  2  0
  8  9  2  3
  8 11  1  0
  8 12  1  0
  9 10  1  0
  9 13  1  0
 10 14  1  0
 10 15  1  0
 10 16  1  0
M  RAD  1   3   2
M  END
>  <reaction>  (11) 
rxn_1644

>  <mol_properties>  (11) 
{"2": {"label": "*1", "atom_type": "CS"}, "3": {"label": "*0", "atom_type": "S2d"}, "7": {"label": "*4", "atom_type": "Cd"}, "8": {"label": "*3", "atom_type": "Cd"}, "12": {"label": "*2", "atom_type": "H0"}}

>  <type>  (11) 
unop_7

>  <geom_source>  (11) 
Heuristics

$$$$

     RDKit          3D

 16 14  0  0  0  0  0  0  0  0999 V2000
    2.2305   -1.3352   -0.3080 C   0  0  0  0  0  0  0  0  0  0  0  0
    1.2278   -1.4125    0.5652 C   0  0  0  0  0  0  0  0  0  0  0  0
   -0.0884   -0.8772    0.2711 C   0  0  0  0  0  3  0  0  0  0  0  0
   -1.3588   -0.9256    1.2653 S   0  0  0  0  0  0  0  0  0  0  0  0
    3.2105   -1.7362   -0.0836 H   0  0  0  0  0  0  0  0  0  0  0  0
    2.0984   -0.8663   -1.2768 H   0  0  0  0  0  0  0  0  0  0  0  0
    1.3602   -1.8815    1.5338 H   0  0  0  0  0  0  0  0  0  0  0  0
   -0.0884    1.4138   -2.3117 C   0  0  0  0  0  0  0  0  0  0  0  0
   -0.0884    1.4138   -0.9880 C   0  0  0  0  0  0  0  0  0  0  0  0
   -0.0884    2.6360   -0.1275 C   0  0  0  0  0  0  0  0  0  0  0  0
   -0.0884    0.4911   -2.8782 H   0  0  0  0  0  0  0  0  0  0  0  0
   -0.0884    2.3394   -2.8777 H   0  0  0  0  0  0  0  0  0  0  0  0
   -0.0884    0.2707   -0.3598 H   0  0  0  0  0  0  0  0  0  0  0  0
   -0.9661    2.6531    0.5237 H   0  0  0  0  0  0  0  0  0  0  0  0
   -0.0884    3.5464   -0.7281 H   0  0  0  0  0  0  0  0  0  0  0  0
    0.7893    2.6531    0.5238 H   0  0  0  0  0  0  0  0  0  0  0  0
  1  2  2  3
  1  5  1  0
  1  6  1  0
  2  3  1  0
  2  7  1  0
  3  4  2  0
  8  9  2  3
  8 11  1  0
  8 12  1  0
  9 10  1  0
  9 13  1  0
 10 14  1  0
 10 15  1  0
 10 16  1  0
M  RAD  1   3   2
M  END
>  <reaction>  (12) 
rxn_1644

>  <mol_properties>  (12) 
{"2": {"label": "*1", "atom_type": "CS"}, "3": {"label": "*0", "atom_type": "S2d"}, "7": {"label": "*4", "atom_type": "Cd"}, "8": {"label": "*3", "atom_type": "Cd"}, "12": {"label": "*2", "atom_type": "H0"}}

>  <type>  (12) 
unop_8

>  <geom_source>  (12) 
Heuristics

$$$$

     RDKit          3D

 16 14  0  0  0  0  0  0  0  0999 V2000
   -0.8070   -1.7858   -1.6074 C   0  0  0  0  0  0  0  0  0  0  0  0
   -0.5613   -1.8428   -0.2995 C   0  0  0  0  0  0  0  0  0  0  0  0
    0.0967   -0.7586    0.4052 C   0  0  0  0  0  3  0  0  0  0  0  0
    0.4341   -0.7406    1.9834 S   0  0  0  0  0  0  0  0  0  0  0  0
   -1.2983   -2.5974   -2.1283 H   0  0  0  0  0  0  0  0  0  0  0  0
   -0.5221   -0.9211   -2.1964 H   0  0  0  0  0  0  0  0  0  0  0  0
   -0.8464   -2.7076    0.2892 H   0  0  0  0  0  0  0  0  0  0  0  0
    0.0967    1.5325   -2.1776 C   0  0  0  0  0  0  0  0  0  0  0  0
    0.0967    1.5325   -0.8538 C   0  0  0  0  0  0  0  0  0  0  0  0
    0.0967    2.7546    0.0067 C   0  0  0  0  0  0  0  0  0  0  0  0
    0.0967    0.6097   -2.7440 H   0  0  0  0  0  0  0  0  0  0  0  0
    0.0967    2.4581   -2.7436 H   0  0  0  0  0  0  0  0  0  0  0  0
    0.0967    0.3893   -0.2256 H   0  0  0  0  0  0  0  0  0  0  0  0
   -0.7810    2.7718    0.6579 H   0  0  0  0  0  0  0  0  0  0  0  0
    0.0967    3.6651   -0.5939 H   0  0  0  0  0  0  0  0  0  0  0  0
    0.9744    2.7718    0.6579 H   0  0  0  0  0  0  0  0  0  0  0  0
  1  2  2  3
  1  5  1  0
  1  6  1  0
  2  3  1  0
  2  7  1  0
  3  4  2  0
  8  9  2  3
  8 11  1  0
  8 12  1  0
  9 10  1  0
  9 13  1  0
 10 14  1  0
 10 15  1  0
 10 16  1  0
M  RAD  1   3   2
M  END
>  <reaction>  (13) 
rxn_1644

>  <mol_properties>  (13) 
{"2": {"label": "*1", "atom_type": "CS"}, "3": {"label": "*0", "atom_type": "S2d"}, "7": {"label": "*4", "atom_type": "Cd"}, "8": {"label": "*3", "atom_type": "Cd"}, "12": {"label": "*2", "atom_type": "H0"}}

>  <type>  (13) 
unop_9

>  <geom_source>  (13) 
Heuristics

$$$$

     RDKit          3D

 16 14  0  0  0  0  0  0  0  0999 V2000
    1.6152   -1.6685   -1.1329 C   0  0  0  0  0  0  0  0  0  0  0  0
    1.0093   -1.6734    0.0532 C   0  0  0  0  0  0  0  0  0  0  0  0
   -0.1305   -0.8212    0.3358 C   0  0  0  0  0  3  0  0  0  0  0  0
   -0.9249   -0.7606    1.7393 S   0  0  0  0  0  0  0  0  0  0  0  0
    2.4652   -2.3062   -1.3386 H   0  0  0  0  0  0  0  0  0  0  0  0
    1.2761   -1.0230   -1.9355 H   0  0  0  0  0  0  0  0  0  0  0  0
    1.3487   -2.3190    0.8555 H   0  0  0  0  0  0  0  0  0  0  0  0
   -0.1305    1.4699   -2.2470 C   0  0  0  0  0  0  0  0  0  0  0  0
   -0.1305    1.4699   -0.9233 C   0  0  0  0  0  0  0  0  0  0  0  0
   -0.1305    2.6920   -0.0627 C   0  0  0  0  0  0  0  0  0  0  0  0
   -0.1305    0.5471   -2.8135 H   0  0  0  0  0  0  0  0  0  0  0  0
   -0.1305    2.3955   -2.8130 H   0  0  0  0  0  0  0  0  0  0  0  0
   -0.1305    0.3267   -0.2950 H   0  0  0  0  0  0  0  0  0  0  0  0
   -1.0082    2.7092    0.5885 H   0  0  0  0  0  0  0  0  0  0  0  0
   -0.1305    3.6025   -0.6633 H   0  0  0  0  0  0  0  0  0  0  0  0
    0.7472    2.7092    0.5885 H   0  0  0  0  0  0  0  0  0  0  0  0
  1  2  2  3
  1  5  1  0
  1  6  1  0
  2  3  1  0
  2  7  1  0
  3  4  2  0
  8  9  2  3
  8 11  1  0
  8 12  1  0
  9 10  1  0
  9 13  1  0
 10 14  1  0
 10 15  1  0
 10 16  1  0
M  RAD  1   3   2
M  END
>  <reaction>  (14) 
rxn_1644

>  <mol_properties>  (14) 
{"2": {"label": "*1", "atom_type": "CS"}, "3": {"label": "*0", "atom_type": "S2d"}, "7": {"label": "*4", "atom_type": "Cd"}, "8": {"label": "*3", "atom_type": "Cd"}, "12": {"label": "*2", "atom_type": "H0"}}

>  <type>  (14) 
unop_10

>  <geom_source>  (14) 
Heuristics

$$$$

     RDKit          3D

 16 14  0  0  0  0  0  0  0  0999 V2000
   -1.7536   -0.0338    1.8298 C   0  0  0  0  0  0  0  0  0  0  0  0
   -0.7227   -0.8372    1.5729 C   0  0  0  0  0  0  0  0  0  0  0  0
   -0.0646   -0.8508    0.2798 C   0  0  0  0  0  3  0  0  0  0  0  0
    1.1873   -1.7876   -0.1200 S   0  0  0  0  0  0  0  0  0  0  0  0
   -2.2410   -0.0275    2.7961 H   0  0  0  0  0  0  0  0  0  0  0  0
   -2.1407    0.6434    1.0766 H   0  0  0  0  0  0  0  0  0  0  0  0
   -0.3358   -1.5143    2.3262 H   0  0  0  0  0  0  0  0  0  0  0  0
   -0.0646    1.4402   -2.3030 C   0  0  0  0  0  0  0  0  0  0  0  0
   -0.0646    1.4402   -0.9792 C   0  0  0  0  0  0  0  0  0  0  0  0
   -0.0646    2.6624   -0.1187 C   0  0  0  0  0  0  0  0  0  0  0  0
   -0.0646    0.5175   -2.8695 H   0  0  0  0  0  0  0  0  0  0  0  0
   -0.0646    2.3658   -2.8690 H   0  0  0  0  0  0  0  0  0  0  0  0
   -0.0646    0.2970   -0.3510 H   0  0  0  0  0  0  0  0  0  0  0  0
   -0.9423    2.6795    0.5325 H   0  0  0  0  0  0  0  0  0  0  0  0
   -0.0646    3.5728   -0.7193 H   0  0  0  0  0  0  0  0  0  0  0  0
    0.8131    2.6795    0.5325 H   0  0  0  0  0  0  0  0  0  0  0  0
  1  2  2  3
  1  5  1  0
  1  6  1  0
  2  3  1  0
  2  7  1  0
  3  4  2  0
  8  9  2  3
  8 11  1  0
  8 12  1  0
  9 10  1  0
  9 13  1  0
 10 14  1  0
 10 15  1  0
 10 16  1  0
M  RAD  1   3   2
M  END
>  <reaction>  (15) 
rxn_1644

>  <mol_properties>  (15) 
{"2": {"label": "*1", "atom_type": "CS"}, "3": {"label": "*0", "atom_type": "S2d"}, "7": {"label": "*4", "atom_type": "Cd"}, "8": {"label": "*3", "atom_type": "Cd"}, "12": {"label": "*2", "atom_type": "H0"}}

>  <type>  (15) 
unop_11

>  <geom_source>  (15) 
Heuristics

$$$$

     RDKit          3D

 16 14  0  0  0  0  0  0  0  0999 V2000
    0.0000   -1.7972   -1.7516 C   0  0  0  0  0  0  0  0  0  0  0  0
   -0.0000   -1.8994   -0.4236 C   0  0  0  0  0  0  0  0  0  0  0  0
   -0.0000   -0.7303    0.4357 C   0  0  0  0  0  3  0  0  0  0  0  0
   -0.0000   -0.7584    2.0493 S   0  0  0  0  0  0  0  0  0  0  0  0
    0.0000   -2.6725   -2.3881 H   0  0  0  0  0  0  0  0  0  0  0  0
    0.0000   -0.8298   -2.2417 H   0  0  0  0  0  0  0  0  0  0  0  0
   -0.0000   -2.8668    0.0660 H   0  0  0  0  0  0  0  0  0  0  0  0
    0.0000    1.5608   -2.1471 C   0  0  0  0  0  0  0  0  0  0  0  0
    0.0000    1.5608   -0.8234 C   0  0  0  0  0  0  0  0  0  0  0  0
    0.0000    2.7829    0.0371 C   0  0  0  0  0  0  0  0  0  0  0  0
    0.0000    0.6380   -2.7136 H   0  0  0  0  0  0  0  0  0  0  0  0
    0.0000    2.4864   -2.7131 H   0  0  0  0  0  0  0  0  0  0  0  0
    0.0000    0.4176   -0.1952 H   0  0  0  0  0  0  0  0  0  0  0  0
   -0.8777    2.8001    0.6883 H   0  0  0  0  0  0  0  0  0  0  0  0
    0.0000    3.6934   -0.5635 H   0  0  0  0  0  0  0  0  0  0  0  0
    0.8777    2.8001    0.6883 H   0  0  0  0  0  0  0  0  0  0  0  0
  1  2  2  3
  1  5  1  0
  1  6  1  0
  2  3  1  0
  2  7  1  0
  3  4  2  0
  8  9  2  3
  8 11  1  0
  8 12  1  0
  9 10  1  0
  9 13  1  0
 10 14  1  0
 10 15  1  0
 10 16  1  0
M  RAD  1   3   2
M  END
>  <reaction>  (16) 
rxn_1644

>  <mol_properties>  (16) 
{"2": {"label": "*1", "atom_type": "CS"}, "3": {"label": "*0", "atom_type": "S2d"}, "7": {"label": "*4", "atom_type": "Cd"}, "8": {"label": "*3", "atom_type": "Cd"}, "12": {"label": "*2", "atom_type": "H0"}}

>  <type>  (16) 
unop_12

>  <geom_source>  (16) 
Heuristics

$$$$

     RDKit          3D

 16 14  0  0  0  0  0  0  0  0999 V2000
    1.2988   -1.8907   -2.0654 S   0  0  0  0  0  0  0  0  0  0  0  0
   -1.8895   -1.0253    0.6025 C   0  0  0  0  0  0  0  0  0  0  0  0
    2.2520   -0.1543   -0.2442 C   0  0  0  0  0  0  0  0  0  0  0  0
    2.1125    0.8576    0.6056 C   0  0  0  0  0  0  0  0  0  0  0  0
    1.1123   -0.6453   -1.0241 C   0  0  0  0  0  3  0  0  0  0  0  0
   -1.5111    1.2571   -0.2661 C   0  0  0  0  0  0  0  0  0  0  0  0
   -1.3355   -0.0585   -0.3945 C   0  0  0  0  0  0  0  0  0  0  0  0
   -1.6230   -2.0576    0.2960 H   0  0  0  0  0  0  0  0  0  0  0  0
   -2.9955   -0.9350    0.6458 H   0  0  0  0  0  0  0  0  0  0  0  0
   -1.4604   -0.8238    1.6067 H   0  0  0  0  0  0  0  0  0  0  0  0
    3.2234   -0.6200   -0.3590 H   0  0  0  0  0  0  0  0  0  0  0  0
    2.9645    1.2077    1.1738 H   0  0  0  0  0  0  0  0  0  0  0  0
    1.1557    1.3458    0.7448 H   0  0  0  0  0  0  0  0  0  0  0  0
   -0.1435   -0.0546   -0.8857 H   0  0  0  0  0  0  0  0  0  0  0  0
   -2.0656    1.6681    0.5723 H   0  0  0  0  0  0  0  0  0  0  0  0
   -1.0950    1.9288   -1.0086 H   0  0  0  0  0  0  0  0  0  0  0  0
  1  5  2  0
  2  7  1  0
  2  8  1  0
  2  9  1  0
  2 10  1  0
  3  4  2  3
  3  5  1  0
  3 11  1  0
  4 12  1  0
  4 13  1  0
  6  7  2  3
  6 15  1  0
  6 16  1  0
  7 14  1  0
M  RAD  1   5   2
M  END
>  <reaction>  (17) 
rxn_1644

>  <mol_properties>  (17) 
{"2": {"label": "*1", "atom_type": "CS"}, "3": {"label": "*0", "atom_type": "S2d"}, "7": {"label": "*4", "atom_type": "Cd"}, "8": {"label": "*3", "atom_type": "Cd"}, "12": {"label": "*2", "atom_type": "H0"}}

>  <type>  (17) 
unop_13

>  <geom_source>  (17) 
AutoTST

$$$$
