
     RDKit          3D

 12 11  0  0  0  0  0  0  0  0999 V2000
    2.1696    0.6854    1.1310 C   0  0  0  0  0  0  0  0  0  0  0  0
    1.2518    0.4145    0.4134 C   0  0  0  0  0  0  0  0  0  0  0  0
    0.1391    0.0443   -0.4683 C   0  0  0  0  0  0  0  0  0  0  0  0
   -0.2054   -1.4492   -0.3339 C   0  0  0  0  0  0  0  0  0  0  0  0
   -1.0375    0.8853   -0.2222 C   0  0  0  0  0  0  0  0  0  0  0  0
   -2.0160    1.5463   -0.0311 C   0  0  0  0  0  0  0  0  0  0  0  0
    2.9819    0.9356    1.7702 H   0  0  0  0  0  0  0  0  0  0  0  0
    0.4629    0.2285   -1.4981 H   0  0  0  0  0  0  0  0  0  0  0  0
   -0.5327   -1.6703    0.6812 H   0  0  0  0  0  0  0  0  0  0  0  0
    0.6727   -2.0535   -0.5593 H   0  0  0  0  0  0  0  0  0  0  0  0
   -1.0064   -1.7081   -1.0256 H   0  0  0  0  0  0  0  0  0  0  0  0
   -2.8802    2.1413    0.1426 H   0  0  0  0  0  0  0  0  0  0  0  0
  1  2  3  0
  1  7  1  0
  2  3  1  0
  3  4  1  0
  3  5  1  0
  3  8  1  0
  4  9  1  0
  4 10  1  0
  4 11  1  0
  5  6  3  0
  6 12  1  0
M  END
>  <reaction>  (1) 
rxn_1412

>  <mol_properties>  (1) 
{"2": {"label": "donator", "atom_type": "Cs"}, "7": {"label": "d_hydrogen", "atom_type": "H0"}}

>  <type>  (1) 
r1h

$$$$

     RDKit          3D

  8  7  0  0  0  0  0  0  0  0999 V2000
   -1.0607    0.1793   -0.1423 C   0  0  0  0  0  0  0  0  0  0  0  0
    0.2796    0.0327    0.4820 C   0  0  0  0  0  3  0  0  0  0  0  0
    0.8817   -1.4663    1.0791 S   0  0  0  0  0  0  0  0  0  0  0  0
   -1.3043    1.2328   -0.2850 H   0  0  0  0  0  0  0  0  0  0  0  0
   -1.8444   -0.2641    0.4799 H   0  0  0  0  0  0  0  0  0  0  0  0
   -1.1164   -0.3100   -1.1237 H   0  0  0  0  0  0  0  0  0  0  0  0
    1.0449    0.7826    0.3391 H   0  0  0  0  0  0  0  0  0  0  0  0
   -0.2993   -2.0726    1.2718 H   0  0  0  0  0  0  0  0  0  0  0  0
  1  2  1  0
  1  4  1  0
  1  5  1  0
  1  6  1  0
  2  3  1  0
  2  7  1  0
  3  8  1  0
M  RAD  1   2   2
M  END
>  <reaction>  (2) 
rxn_1412

>  <mol_properties>  (2) 
{"1": {"label": "acceptor", "atom_type": "Cs"}}

>  <type>  (2) 
r2

$$$$

     RDKit          3D

  9  8  0  0  0  0  0  0  0  0999 V2000
   -0.8818   -0.3578    0.1297 C   0  0  0  0  0  0  0  0  0  0  0  0
    0.6153   -0.3021   -0.1188 C   0  0  0  0  0  0  0  0  0  0  0  0
    1.5354   -1.7170    0.5545 S   0  0  0  0  0  0  0  0  0  0  0  0
   -1.1018   -0.3317    1.1984 H   0  0  0  0  0  0  0  0  0  0  0  0
   -1.3114   -1.2723   -0.2799 H   0  0  0  0  0  0  0  0  0  0  0  0
   -1.3767    0.4976   -0.3363 H   0  0  0  0  0  0  0  0  0  0  0  0
    1.0467    0.6194    0.2718 H   0  0  0  0  0  0  0  0  0  0  0  0
    0.8295   -0.3275   -1.1882 H   0  0  0  0  0  0  0  0  0  0  0  0
    1.2306   -1.5077    1.8423 H   0  0  0  0  0  0  0  0  0  0  0  0
  1  2  1  0
  1  4  1  0
  1  5  1  0
  1  6  1  0
  2  3  1  0
  2  7  1  0
  2  8  1  0
  3  9  1  0
M  END
>  <reaction>  (3) 
rxn_1412

>  <mol_properties>  (3) 
{"0": {"label": "a_hydrogen", "atom_type": "H0"}, "2": {"label": "acceptor", "atom_type": "Cs"}}

>  <type>  (3) 
r2h

$$$$

     RDKit          3D

 20 18  0  0  0  0  0  0  0  0999 V2000
   -0.9974    1.1593   -3.0338 C   0  0  0  0  0  0  0  0  0  0  0  0
   -1.0441    0.8944   -1.8644 C   0  0  0  0  0  0  0  0  0  0  0  0
   -1.0401    0.6224   -0.4493 C   0  0  0  0  0  0  0  0  0  0  0  0
   -1.7223    1.6769    0.4146 C   0  0  0  0  0  0  0  0  0  0  0  0
   -1.3550   -0.7394   -0.0990 C   0  0  0  0  0  0  0  0  0  0  0  0
   -1.5645   -1.8715    0.2413 C   0  0  0  0  0  0  0  0  0  0  0  0
   -0.9760    1.3837   -4.0729 H   0  0  0  0  0  0  0  0  0  0  0  0
    0.2020    0.7234   -0.1027 H   0  0  0  0  0  0  0  0  0  0  0  0
   -2.8027    1.6661    0.2620 H   0  0  0  0  0  0  0  0  0  0  0  0
   -1.3452    2.6666    0.1574 H   0  0  0  0  0  0  0  0  0  0  0  0
   -1.5142    1.4807    1.4666 H   0  0  0  0  0  0  0  0  0  0  0  0
   -1.7796   -2.8737    0.5246 H   0  0  0  0  0  0  0  0  0  0  0  0
    2.1390   -0.3113   -0.6554 C   0  0  0  0  0  0  0  0  0  0  0  0
    1.5570    0.6910    0.2999 C   0  0  0  0  0  3  0  0  0  0  0  0
    1.5473    0.3259    2.0221 S   0  0  0  0  0  0  0  0  0  0  0  0
    1.9950    0.0246   -1.6837 H   0  0  0  0  0  0  0  0  0  0  0  0
    1.6456   -1.2796   -0.5465 H   0  0  0  0  0  0  0  0  0  0  0  0
    3.2094   -0.4532   -0.4819 H   0  0  0  0  0  0  0  0  0  0  0  0
    1.8735    1.7216    0.1525 H   0  0  0  0  0  0  0  0  0  0  0  0
    1.0978   -0.9333    1.9119 H   0  0  0  0  0  0  0  0  0  0  0  0
  1  2  3  0
  1  7  1  0
  2  3  1  0
  3  4  1  0
  3  5  1  0
  3  8  1  0
  4  9  1  0
  4 10  1  0
  4 11  1  0
  5  6  3  0
  6 12  1  0
 13 14  1  0
 13 16  1  0
 13 17  1  0
 13 18  1  0
 14 15  1  0
 14 19  1  0
 15 20  1  0
M  RAD  1  14   2
M  END
>  <reaction>  (4) 
rxn_1412

>  <mol_properties>  (4) 
{"1": {"label": "*0", "atom_type": "Ct"}, "2": {"label": "*1", "atom_type": "Cs"}, "7": {"label": "*2", "atom_type": "H0"}, "13": {"label": "*3", "atom_type": "Cs"}, "14": {"label": "*4", "atom_type": "S2s"}}

>  <type>  (4) 
ts

$$$$

     RDKit          3D

 20 18  0  0  0  0  0  0  0  0999 V2000
   -1.2415    0.2289   -2.7831 C   0  0  0  0  0  0  0  0  0  0  0  0
   -1.2415    0.2289   -1.5869 C   0  0  0  0  0  0  0  0  0  0  0  0
   -1.2415    0.2689   -0.1204 C   0  0  0  0  0  3  0  0  0  0  0  0
   -1.8795    1.5681    0.4016 C   0  0  0  0  0  0  0  0  0  0  0  0
   -1.9033   -0.9123    0.4444 C   0  0  0  0  0  0  0  0  0  0  0  0
   -2.4516   -1.8576    0.9309 C   0  0  0  0  0  0  0  0  0  0  0  0
   -1.2415    0.2289   -3.8465 H   0  0  0  0  0  0  0  0  0  0  0  0
    0.0121    0.2417    0.2728 H   0  0  0  0  0  0  0  0  0  0  0  0
   -2.9228    1.6254    0.0939 H   0  0  0  0  0  0  0  0  0  0  0  0
   -1.3469    2.4296   -0.0000 H   0  0  0  0  0  0  0  0  0  0  0  0
   -1.8323    1.5926    1.4899 H   0  0  0  0  0  0  0  0  0  0  0  0
   -2.9390   -2.6980    1.3634 H   0  0  0  0  0  0  0  0  0  0  0  0
    1.6109    1.4527    1.4703 C   0  0  0  0  0  0  0  0  0  0  0  0
    1.2597    0.2146    0.6640 C   0  0  0  0  0  0  0  0  0  0  0  0
    2.6998   -0.7149    0.0607 S   0  0  0  0  0  0  0  0  0  0  0  0
    0.7032    1.9381    1.8366 H   0  0  0  0  0  0  0  0  0  0  0  0
    2.1550    2.1754    0.8595 H   0  0  0  0  0  0  0  0  0  0  0  0
    2.2366    1.1967    2.3257 H   0  0  0  0  0  0  0  0  0  0  0  0
    0.7154   -0.5038    1.2788 H   0  0  0  0  0  0  0  0  0  0  0  0
    3.2082    0.2584   -0.7069 H   0  0  0  0  0  0  0  0  0  0  0  0
  1  2  3  0
  1  7  1  0
  2  3  1  0
  3  4  1  0
  3  5  1  0
  4  9  1  0
  4 10  1  0
  4 11  1  0
  5  6  3  0
  6 12  1  0
  8 14  1  0
 13 14  1  0
 13 16  1  0
 13 17  1  0
 13 18  1  0
 14 15  1  0
 14 19  1  0
 15 20  1  0
M  RAD  1   3   2
M  END
>  <reaction>  (5) 
rxn_1412

>  <mol_properties>  (5) 
{"1": {"label": "*0", "atom_type": "Ct"}, "2": {"label": "*1", "atom_type": "Cs"}, "7": {"label": "*2", "atom_type": "H0"}, "13": {"label": "*3", "atom_type": "Cs"}, "14": {"label": "*4", "atom_type": "S2s"}}

>  <type>  (5) 
unop_1

>  <geom_source>  (5) 
Heuristics

$$$$

     RDKit          3D

 20 18  0  0  0  0  0  0  0  0999 V2000
   -1.1315    0.4257   -2.9071 C   0  0  0  0  0  0  0  0  0  0  0  0
   -1.1315    0.4257   -1.7110 C   0  0  0  0  0  0  0  0  0  0  0  0
   -1.1315    0.4658   -0.2444 C   0  0  0  0  0  3  0  0  0  0  0  0
   -1.7695    1.7650    0.2776 C   0  0  0  0  0  0  0  0  0  0  0  0
   -1.7933   -0.7155    0.3204 C   0  0  0  0  0  0  0  0  0  0  0  0
   -2.3415   -1.6608    0.8068 C   0  0  0  0  0  0  0  0  0  0  0  0
   -1.1315    0.4257   -3.9706 H   0  0  0  0  0  0  0  0  0  0  0  0
    0.1221    0.4385    0.1487 H   0  0  0  0  0  0  0  0  0  0  0  0
   -2.8127    1.8222   -0.0302 H   0  0  0  0  0  0  0  0  0  0  0  0
   -1.2369    2.6264   -0.1241 H   0  0  0  0  0  0  0  0  0  0  0  0
   -1.7223    1.7894    1.3658 H   0  0  0  0  0  0  0  0  0  0  0  0
   -2.8290   -2.5012    1.2394 H   0  0  0  0  0  0  0  0  0  0  0  0
    2.2821    1.0641   -0.4837 C   0  0  0  0  0  0  0  0  0  0  0  0
    1.3697    0.4114    0.5400 C   0  0  0  0  0  0  0  0  0  0  0  0
    2.0786   -1.0579    1.3402 S   0  0  0  0  0  0  0  0  0  0  0  0
    1.8133    1.9620   -0.8932 H   0  0  0  0  0  0  0  0  0  0  0  0
    2.4879    0.3849   -1.3130 H   0  0  0  0  0  0  0  0  0  0  0  0
    3.2350    1.3446   -0.0343 H   0  0  0  0  0  0  0  0  0  0  0  0
    1.1665    1.0947    1.3658 H   0  0  0  0  0  0  0  0  0  0  0  0
    2.2030   -1.7996    0.2313 H   0  0  0  0  0  0  0  0  0  0  0  0
  1  2  3  0
  1  7  1  0
  2  3  1  0
  3  4  1  0
  3  5  1  0
  4  9  1  0
  4 10  1  0
  4 11  1  0
  5  6  3  0
  6 12  1  0
  8 14  1  0
 13 14  1  0
 13 16  1  0
 13 17  1  0
 13 18  1  0
 14 15  1  0
 14 19  1  0
 15 20  1  0
M  RAD  1   3   2
M  END
>  <reaction>  (6) 
rxn_1412

>  <mol_properties>  (6) 
{"1": {"label": "*0", "atom_type": "Ct"}, "2": {"label": "*1", "atom_type": "Cs"}, "7": {"label": "*2", "atom_type": "H0"}, "13": {"label": "*3", "atom_type": "Cs"}, "14": {"label": "*4", "atom_type": "S2s"}}

>  <type>  (6) 
unop_2

>  <geom_source>  (6) 
Heuristics

$$$$

     RDKit          3D

 20 18  0  0  0  0  0  0  0  0999 V2000
   -1.2320    0.0726   -2.7367 C   0  0  0  0  0  0  0  0  0  0  0  0
   -1.2320    0.0726   -1.5405 C   0  0  0  0  0  0  0  0  0  0  0  0
   -1.2320    0.1126   -0.0740 C   0  0  0  0  0  3  0  0  0  0  0  0
   -1.8701    1.4119    0.4480 C   0  0  0  0  0  0  0  0  0  0  0  0
   -1.8939   -1.0686    0.4908 C   0  0  0  0  0  0  0  0  0  0  0  0
   -2.4421   -2.0139    0.9773 C   0  0  0  0  0  0  0  0  0  0  0  0
   -1.2320    0.0726   -3.8001 H   0  0  0  0  0  0  0  0  0  0  0  0
    0.0216    0.0854    0.3192 H   0  0  0  0  0  0  0  0  0  0  0  0
   -2.9133    1.4691    0.1403 H   0  0  0  0  0  0  0  0  0  0  0  0
   -1.3374    2.2733    0.0464 H   0  0  0  0  0  0  0  0  0  0  0  0
   -1.8229    1.4363    1.5363 H   0  0  0  0  0  0  0  0  0  0  0  0
   -2.9295   -2.8543    1.4098 H   0  0  0  0  0  0  0  0  0  0  0  0
    1.4501    0.7970    2.0249 C   0  0  0  0  0  0  0  0  0  0  0  0
    1.2691    0.0583    0.7104 C   0  0  0  0  0  0  0  0  0  0  0  0
    2.7538    0.0264   -0.3367 S   0  0  0  0  0  0  0  0  0  0  0  0
    0.5364    0.7412    2.6214 H   0  0  0  0  0  0  0  0  0  0  0  0
    1.6750    1.8511    1.8531 H   0  0  0  0  0  0  0  0  0  0  0  0
    2.2687    0.3685    2.6037 H   0  0  0  0  0  0  0  0  0  0  0  0
    1.0437   -0.9943    0.8880 H   0  0  0  0  0  0  0  0  0  0  0  0
    2.8536    1.3508   -0.5130 H   0  0  0  0  0  0  0  0  0  0  0  0
  1  2  3  0
  1  7  1  0
  2  3  1  0
  3  4  1  0
  3  5  1  0
  4  9  1  0
  4 10  1  0
  4 11  1  0
  5  6  3  0
  6 12  1  0
  8 14  1  0
 13 14  1  0
 13 16  1  0
 13 17  1  0
 13 18  1  0
 14 15  1  0
 14 19  1  0
 15 20  1  0
M  RAD  1   3   2
M  END
>  <reaction>  (7) 
rxn_1412

>  <mol_properties>  (7) 
{"1": {"label": "*0", "atom_type": "Ct"}, "2": {"label": "*1", "atom_type": "Cs"}, "7": {"label": "*2", "atom_type": "H0"}, "13": {"label": "*3", "atom_type": "Cs"}, "14": {"label": "*4", "atom_type": "S2s"}}

>  <type>  (7) 
unop_3

>  <geom_source>  (7) 
Heuristics

$$$$

     RDKit          3D

 20 18  0  0  0  0  0  0  0  0999 V2000
   -0.7622    0.3284   -3.1718 C   0  0  0  0  0  0  0  0  0  0  0  0
   -0.7622    0.3284   -1.9757 C   0  0  0  0  0  0  0  0  0  0  0  0
   -0.7622    0.3685   -0.5091 C   0  0  0  0  0  3  0  0  0  0  0  0
   -1.4002    1.6677    0.0129 C   0  0  0  0  0  0  0  0  0  0  0  0
   -1.4240   -0.8127    0.0557 C   0  0  0  0  0  0  0  0  0  0  0  0
   -1.9722   -1.7580    0.5422 C   0  0  0  0  0  0  0  0  0  0  0  0
   -0.7622    0.3284   -4.2353 H   0  0  0  0  0  0  0  0  0  0  0  0
    0.4914    0.3413   -0.1160 H   0  0  0  0  0  0  0  0  0  0  0  0
   -2.4434    1.7250   -0.2949 H   0  0  0  0  0  0  0  0  0  0  0  0
   -0.8676    2.5292   -0.3888 H   0  0  0  0  0  0  0  0  0  0  0  0
   -1.3530    1.6922    1.1011 H   0  0  0  0  0  0  0  0  0  0  0  0
   -2.4597   -2.5984    0.9747 H   0  0  0  0  0  0  0  0  0  0  0  0
    2.4383   -0.9468   -0.2015 C   0  0  0  0  0  0  0  0  0  0  0  0
    1.7390    0.3141    0.2753 C   0  0  0  0  0  0  0  0  0  0  0  0
    0.9951    0.1742    1.9272 S   0  0  0  0  0  0  0  0  0  0  0  0
    2.8977   -0.7805   -1.1788 H   0  0  0  0  0  0  0  0  0  0  0  0
    1.7313   -1.7726   -0.2991 H   0  0  0  0  0  0  0  0  0  0  0  0
    3.2157   -1.2507    0.4999 H   0  0  0  0  0  0  0  0  0  0  0  0
    2.4498    1.1363    0.3701 H   0  0  0  0  0  0  0  0  0  0  0  0
    0.1264   -0.8013    1.6293 H   0  0  0  0  0  0  0  0  0  0  0  0
  1  2  3  0
  1  7  1  0
  2  3  1  0
  3  4  1  0
  3  5  1  0
  4  9  1  0
  4 10  1  0
  4 11  1  0
  5  6  3  0
  6 12  1  0
  8 14  1  0
 13 14  1  0
 13 16  1  0
 13 17  1  0
 13 18  1  0
 14 15  1  0
 14 19  1  0
 15 20  1  0
M  RAD  1   3   2
M  END
>  <reaction>  (8) 
rxn_1412

>  <mol_properties>  (8) 
{"1": {"label": "*0", "atom_type": "Ct"}, "2": {"label": "*1", "atom_type": "Cs"}, "7": {"label": "*2", "atom_type": "H0"}, "13": {"label": "*3", "atom_type": "Cs"}, "14": {"label": "*4", "atom_type": "S2s"}}

>  <type>  (8) 
unop_4

>  <geom_source>  (8) 
Heuristics

$$$$

     RDKit          3D

 20 18  0  0  0  0  0  0  0  0999 V2000
   -1.0866   -0.1688   -2.8089 C   0  0  0  0  0  0  0  0  0  0  0  0
   -1.0866   -0.1688   -1.6128 C   0  0  0  0  0  0  0  0  0  0  0  0
   -1.0866   -0.1287   -0.1462 C   0  0  0  0  0  3  0  0  0  0  0  0
   -1.7246    1.1705    0.3758 C   0  0  0  0  0  0  0  0  0  0  0  0
   -1.7484   -1.3099    0.4186 C   0  0  0  0  0  0  0  0  0  0  0  0
   -2.2966   -2.2552    0.9051 C   0  0  0  0  0  0  0  0  0  0  0  0
   -1.0866   -0.1688   -3.8724 H   0  0  0  0  0  0  0  0  0  0  0  0
    0.1670   -0.1560    0.2469 H   0  0  0  0  0  0  0  0  0  0  0  0
   -2.7678    1.2278    0.0680 H   0  0  0  0  0  0  0  0  0  0  0  0
   -1.1920    2.0319   -0.0259 H   0  0  0  0  0  0  0  0  0  0  0  0
   -1.6774    1.1949    1.4640 H   0  0  0  0  0  0  0  0  0  0  0  0
   -2.7841   -3.0956    1.3376 H   0  0  0  0  0  0  0  0  0  0  0  0
    1.5176   -0.1448    2.1529 C   0  0  0  0  0  0  0  0  0  0  0  0
    1.4146   -0.1831    0.6382 C   0  0  0  0  0  0  0  0  0  0  0  0
    2.3270    1.1434   -0.2043 S   0  0  0  0  0  0  0  0  0  0  0  0
    0.9837   -0.9910    2.5918 H   0  0  0  0  0  0  0  0  0  0  0  0
    1.0791    0.7719    2.5513 H   0  0  0  0  0  0  0  0  0  0  0  0
    2.5585   -0.1870    2.4743 H   0  0  0  0  0  0  0  0  0  0  0  0
    1.8533   -1.1015    0.2454 H   0  0  0  0  0  0  0  0  0  0  0  0
    1.6417    2.1677    0.3213 H   0  0  0  0  0  0  0  0  0  0  0  0
  1  2  3  0
  1  7  1  0
  2  3  1  0
  3  4  1  0
  3  5  1  0
  4  9  1  0
  4 10  1  0
  4 11  1  0
  5  6  3  0
  6 12  1  0
  8 14  1  0
 13 14  1  0
 13 16  1  0
 13 17  1  0
 13 18  1  0
 14 15  1  0
 14 19  1  0
 15 20  1  0
M  RAD  1   3   2
M  END
>  <reaction>  (9) 
rxn_1412

>  <mol_properties>  (9) 
{"1": {"label": "*0", "atom_type": "Ct"}, "2": {"label": "*1", "atom_type": "Cs"}, "7": {"label": "*2", "atom_type": "H0"}, "13": {"label": "*3", "atom_type": "Cs"}, "14": {"label": "*4", "atom_type": "S2s"}}

>  <type>  (9) 
unop_5

>  <geom_source>  (9) 
Heuristics

$$$$

     RDKit          3D

 20 18  0  0  0  0  0  0  0  0999 V2000
   -0.7071    0.1477   -3.1971 C   0  0  0  0  0  0  0  0  0  0  0  0
   -0.7071    0.1477   -2.0010 C   0  0  0  0  0  0  0  0  0  0  0  0
   -0.7071    0.1877   -0.5344 C   0  0  0  0  0  3  0  0  0  0  0  0
   -1.3452    1.4869   -0.0124 C   0  0  0  0  0  0  0  0  0  0  0  0
   -1.3690   -0.9935    0.0303 C   0  0  0  0  0  0  0  0  0  0  0  0
   -1.9172   -1.9388    0.5168 C   0  0  0  0  0  0  0  0  0  0  0  0
   -0.7071    0.1477   -4.2606 H   0  0  0  0  0  0  0  0  0  0  0  0
    0.5465    0.1605   -0.1413 H   0  0  0  0  0  0  0  0  0  0  0  0
   -2.3884    1.5442   -0.3202 H   0  0  0  0  0  0  0  0  0  0  0  0
   -0.8126    2.3484   -0.4141 H   0  0  0  0  0  0  0  0  0  0  0  0
   -1.2980    1.5114    1.0758 H   0  0  0  0  0  0  0  0  0  0  0  0
   -2.4046   -2.7792    0.9493 H   0  0  0  0  0  0  0  0  0  0  0  0
    2.2764   -1.2922    0.4533 C   0  0  0  0  0  0  0  0  0  0  0  0
    1.7940    0.1334    0.2500 C   0  0  0  0  0  0  0  0  0  0  0  0
    0.9224    0.8362    1.6811 S   0  0  0  0  0  0  0  0  0  0  0  0
    2.8267   -1.6365   -0.4256 H   0  0  0  0  0  0  0  0  0  0  0  0
    1.4358   -1.9706    0.6101 H   0  0  0  0  0  0  0  0  0  0  0  0
    2.9316   -1.3622    1.3220 H   0  0  0  0  0  0  0  0  0  0  0  0
    2.6379    0.8068    0.0928 H   0  0  0  0  0  0  0  0  0  0  0  0
   -0.0905   -0.0406    1.6978 H   0  0  0  0  0  0  0  0  0  0  0  0
  1  2  3  0
  1  7  1  0
  2  3  1  0
  3  4  1  0
  3  5  1  0
  4  9  1  0
  4 10  1  0
  4 11  1  0
  5  6  3  0
  6 12  1  0
  8 14  1  0
 13 14  1  0
 13 16  1  0
 13 17  1  0
 13 18  1  0
 14 15  1  0
 14 19  1  0
 15 20  1  0
M  RAD  1   3   2
M  END
>  <reaction>  (10) 
rxn_1412

>  <mol_properties>  (10) 
{"1": {"label": "*0", "atom_type": "Ct"}, "2": {"label": "*1", "atom_type": "Cs"}, "7": {"label": "*2", "atom_type": "H0"}, "13": {"label": "*3", "atom_type": "Cs"}, "14": {"label": "*4", "atom_type": "S2s"}}

>  <type>  (10) 
unop_6

>  <geom_source>  (10) 
Heuristics

$$$$

     RDKit          3D

 20 18  0  0  0  0  0  0  0  0999 V2000
   -0.7240   -0.0462   -3.1466 C   0  0  0  0  0  0  0  0  0  0  0  0
   -0.7240   -0.0462   -1.9505 C   0  0  0  0  0  0  0  0  0  0  0  0
   -0.7240   -0.0061   -0.4839 C   0  0  0  0  0  3  0  0  0  0  0  0
   -1.3620    1.2931    0.0381 C   0  0  0  0  0  0  0  0  0  0  0  0
   -1.3858   -1.1874    0.0809 C   0  0  0  0  0  0  0  0  0  0  0  0
   -1.9341   -2.1327    0.5674 C   0  0  0  0  0  0  0  0  0  0  0  0
   -0.7240   -0.0462   -4.2101 H   0  0  0  0  0  0  0  0  0  0  0  0
    0.5296   -0.0334   -0.0908 H   0  0  0  0  0  0  0  0  0  0  0  0
   -2.4053    1.3503   -0.2697 H   0  0  0  0  0  0  0  0  0  0  0  0
   -0.8294    2.1545   -0.3636 H   0  0  0  0  0  0  0  0  0  0  0  0
   -1.3148    1.3175    1.1263 H   0  0  0  0  0  0  0  0  0  0  0  0
   -2.4215   -2.9731    0.9999 H   0  0  0  0  0  0  0  0  0  0  0  0
    2.0542   -1.2718    1.1736 C   0  0  0  0  0  0  0  0  0  0  0  0
    1.7772   -0.0605    0.3005 C   0  0  0  0  0  0  0  0  0  0  0  0
    1.0760    1.3576    1.1944 S   0  0  0  0  0  0  0  0  0  0  0  0
    2.5124   -2.0691    0.5837 H   0  0  0  0  0  0  0  0  0  0  0  0
    1.1306   -1.6618    1.6052 H   0  0  0  0  0  0  0  0  0  0  0  0
    2.7266   -1.0165    1.9930 H   0  0  0  0  0  0  0  0  0  0  0  0
    2.7032    0.3246   -0.1289 H   0  0  0  0  0  0  0  0  0  0  0  0
   -0.0526    0.7543    1.5913 H   0  0  0  0  0  0  0  0  0  0  0  0
  1  2  3  0
  1  7  1  0
  2  3  1  0
  3  4  1  0
  3  5  1  0
  4  9  1  0
  4 10  1  0
  4 11  1  0
  5  6  3  0
  6 12  1  0
  8 14  1  0
 13 14  1  0
 13 16  1  0
 13 17  1  0
 13 18  1  0
 14 15  1  0
 14 19  1  0
 15 20  1  0
M  RAD  1   3   2
M  END
>  <reaction>  (11) 
rxn_1412

>  <mol_properties>  (11) 
{"1": {"label": "*0", "atom_type": "Ct"}, "2": {"label": "*1", "atom_type": "Cs"}, "7": {"label": "*2", "atom_type": "H0"}, "13": {"label": "*3", "atom_type": "Cs"}, "14": {"label": "*4", "atom_type": "S2s"}}

>  <type>  (11) 
unop_7

>  <geom_source>  (11) 
Heuristics

$$$$

     RDKit          3D

 20 18  0  0  0  0  0  0  0  0999 V2000
   -1.2230    0.3013   -2.8340 C   0  0  0  0  0  0  0  0  0  0  0  0
   -1.2230    0.3013   -1.6379 C   0  0  0  0  0  0  0  0  0  0  0  0
   -1.2230    0.3413   -0.1713 C   0  0  0  0  0  3  0  0  0  0  0  0
   -1.8610    1.6406    0.3507 C   0  0  0  0  0  0  0  0  0  0  0  0
   -1.8848   -0.8399    0.3935 C   0  0  0  0  0  0  0  0  0  0  0  0
   -2.4331   -1.7852    0.8799 C   0  0  0  0  0  0  0  0  0  0  0  0
   -1.2230    0.3013   -3.8975 H   0  0  0  0  0  0  0  0  0  0  0  0
    0.0306    0.3141    0.2218 H   0  0  0  0  0  0  0  0  0  0  0  0
   -2.9043    1.6978    0.0429 H   0  0  0  0  0  0  0  0  0  0  0  0
   -1.3284    2.5020   -0.0510 H   0  0  0  0  0  0  0  0  0  0  0  0
   -1.8138    1.6650    1.4389 H   0  0  0  0  0  0  0  0  0  0  0  0
   -2.9205   -2.6256    1.3125 H   0  0  0  0  0  0  0  0  0  0  0  0
    1.8463    1.6897    0.7391 C   0  0  0  0  0  0  0  0  0  0  0  0
    1.2782    0.2870    0.6131 C   0  0  0  0  0  0  0  0  0  0  0  0
    2.5356   -1.0235    0.5537 S   0  0  0  0  0  0  0  0  0  0  0  0
    1.0387    2.4220    0.8121 H   0  0  0  0  0  0  0  0  0  0  0  0
    2.4533    1.9452   -0.1312 H   0  0  0  0  0  0  0  0  0  0  0  0
    2.4753    1.7777    1.6254 H   0  0  0  0  0  0  0  0  0  0  0  0
    0.6717    0.0373    1.4849 H   0  0  0  0  0  0  0  0  0  0  0  0
    3.1345   -0.6194   -0.5747 H   0  0  0  0  0  0  0  0  0  0  0  0
  1  2  3  0
  1  7  1  0
  2  3  1  0
  3  4  1  0
  3  5  1  0
  4  9  1  0
  4 10  1  0
  4 11  1  0
  5  6  3  0
  6 12  1  0
  8 14  1  0
 13 14  1  0
 13 16  1  0
 13 17  1  0
 13 18  1  0
 14 15  1  0
 14 19  1  0
 15 20  1  0
M  RAD  1   3   2
M  END
>  <reaction>  (12) 
rxn_1412

>  <mol_properties>  (12) 
{"1": {"label": "*0", "atom_type": "Ct"}, "2": {"label": "*1", "atom_type": "Cs"}, "7": {"label": "*2", "atom_type": "H0"}, "13": {"label": "*3", "atom_type": "Cs"}, "14": {"label": "*4", "atom_type": "S2s"}}

>  <type>  (12) 
unop_8

>  <geom_source>  (12) 
Heuristics

$$$$

     RDKit          3D

 20 18  0  0  0  0  0  0  0  0999 V2000
   -0.8762    0.4518   -3.0874 C   0  0  0  0  0  0  0  0  0  0  0  0
   -0.8762    0.4518   -1.8913 C   0  0  0  0  0  0  0  0  0  0  0  0
   -0.8762    0.4918   -0.4247 C   0  0  0  0  0  3  0  0  0  0  0  0
   -1.5142    1.7911    0.0973 C   0  0  0  0  0  0  0  0  0  0  0  0
   -1.5380   -0.6894    0.1401 C   0  0  0  0  0  0  0  0  0  0  0  0
   -2.0863   -1.6347    0.6266 C   0  0  0  0  0  0  0  0  0  0  0  0
   -0.8762    0.4518   -4.1509 H   0  0  0  0  0  0  0  0  0  0  0  0
    0.3774    0.4646   -0.0316 H   0  0  0  0  0  0  0  0  0  0  0  0
   -2.5575    1.8483   -0.2105 H   0  0  0  0  0  0  0  0  0  0  0  0
   -0.9816    2.6525   -0.3044 H   0  0  0  0  0  0  0  0  0  0  0  0
   -1.4670    1.8155    1.1855 H   0  0  0  0  0  0  0  0  0  0  0  0
   -2.5737   -2.4751    1.0591 H   0  0  0  0  0  0  0  0  0  0  0  0
    2.4945   -0.3241   -0.6254 C   0  0  0  0  0  0  0  0  0  0  0  0
    1.6250    0.4375    0.3597 C   0  0  0  0  0  0  0  0  0  0  0  0
    1.2803   -0.4628    1.9000 S   0  0  0  0  0  0  0  0  0  0  0  0
    2.6969    0.2889   -1.5069 H   0  0  0  0  0  0  0  0  0  0  0  0
    1.9993   -1.2379   -0.9585 H   0  0  0  0  0  0  0  0  0  0  0  0
    3.4456   -0.6033   -0.1714 H   0  0  0  0  0  0  0  0  0  0  0  0
    2.1242    1.3501    0.6885 H   0  0  0  0  0  0  0  0  0  0  0  0
    0.6271   -1.4907    1.3417 H   0  0  0  0  0  0  0  0  0  0  0  0
  1  2  3  0
  1  7  1  0
  2  3  1  0
  3  4  1  0
  3  5  1  0
  4  9  1  0
  4 10  1  0
  4 11  1  0
  5  6  3  0
  6 12  1  0
  8 14  1  0
 13 14  1  0
 13 16  1  0
 13 17  1  0
 13 18  1  0
 14 15  1  0
 14 19  1  0
 15 20  1  0
M  RAD  1   3   2
M  END
>  <reaction>  (13) 
rxn_1412

>  <mol_properties>  (13) 
{"1": {"label": "*0", "atom_type": "Ct"}, "2": {"label": "*1", "atom_type": "Cs"}, "7": {"label": "*2", "atom_type": "H0"}, "13": {"label": "*3", "atom_type": "Cs"}, "14": {"label": "*4", "atom_type": "S2s"}}

>  <type>  (13) 
unop_9

>  <geom_source>  (13) 
Heuristics

$$$$

     RDKit          3D

 20 18  0  0  0  0  0  0  0  0999 V2000
   -1.1929    0.3569   -2.8680 C   0  0  0  0  0  0  0  0  0  0  0  0
   -1.1929    0.3569   -1.6718 C   0  0  0  0  0  0  0  0  0  0  0  0
   -1.1929    0.3970   -0.2053 C   0  0  0  0  0  3  0  0  0  0  0  0
   -1.8310    1.6962    0.3167 C   0  0  0  0  0  0  0  0  0  0  0  0
   -1.8548   -0.7842    0.3595 C   0  0  0  0  0  0  0  0  0  0  0  0
   -2.4030   -1.7295    0.8460 C   0  0  0  0  0  0  0  0  0  0  0  0
   -1.1929    0.3569   -3.9314 H   0  0  0  0  0  0  0  0  0  0  0  0
    0.0606    0.3698    0.1879 H   0  0  0  0  0  0  0  0  0  0  0  0
   -2.8742    1.7535    0.0090 H   0  0  0  0  0  0  0  0  0  0  0  0
   -1.2984    2.5576   -0.0849 H   0  0  0  0  0  0  0  0  0  0  0  0
   -1.7838    1.7206    1.4050 H   0  0  0  0  0  0  0  0  0  0  0  0
   -2.8905   -2.5699    1.2785 H   0  0  0  0  0  0  0  0  0  0  0  0
    2.0817    1.5311    0.0354 C   0  0  0  0  0  0  0  0  0  0  0  0
    1.3082    0.3426    0.5791 C   0  0  0  0  0  0  0  0  0  0  0  0
    2.3413   -1.0961    0.9848 S   0  0  0  0  0  0  0  0  0  0  0  0
    1.4084    2.3721   -0.1465 H   0  0  0  0  0  0  0  0  0  0  0  0
    2.5693    1.2812   -0.9086 H   0  0  0  0  0  0  0  0  0  0  0  0
    2.8523    1.8495    0.7379 H   0  0  0  0  0  0  0  0  0  0  0  0
    0.8223    0.5981    1.5219 H   0  0  0  0  0  0  0  0  0  0  0  0
    2.8000   -1.3181   -0.2543 H   0  0  0  0  0  0  0  0  0  0  0  0
  1  2  3  0
  1  7  1  0
  2  3  1  0
  3  4  1  0
  3  5  1  0
  4  9  1  0
  4 10  1  0
  4 11  1  0
  5  6  3  0
  6 12  1  0
  8 14  1  0
 13 14  1  0
 13 16  1  0
 13 17  1  0
 13 18  1  0
 14 15  1  0
 14 19  1  0
 15 20  1  0
M  RAD  1   3   2
M  END
>  <reaction>  (14) 
rxn_1412

>  <mol_properties>  (14) 
{"1": {"label": "*0", "atom_type": "Ct"}, "2": {"label": "*1", "atom_type": "Cs"}, "7": {"label": "*2", "atom_type": "H0"}, "13": {"label": "*3", "atom_type": "Cs"}, "14": {"label": "*4", "atom_type": "S2s"}}

>  <type>  (14) 
unop_10

>  <geom_source>  (14) 
Heuristics

$$$$

     RDKit          3D

 20 18  0  0  0  0  0  0  0  0999 V2000
   -0.8434   -0.2008   -3.0093 C   0  0  0  0  0  0  0  0  0  0  0  0
   -0.8434   -0.2008   -1.8131 C   0  0  0  0  0  0  0  0  0  0  0  0
   -0.8434   -0.1607   -0.3466 C   0  0  0  0  0  3  0  0  0  0  0  0
   -1.4815    1.1385    0.1754 C   0  0  0  0  0  0  0  0  0  0  0  0
   -1.5053   -1.3420    0.2182 C   0  0  0  0  0  0  0  0  0  0  0  0
   -2.0535   -2.2872    0.7047 C   0  0  0  0  0  0  0  0  0  0  0  0
   -0.8434   -0.2008   -4.0727 H   0  0  0  0  0  0  0  0  0  0  0  0
    0.4102   -0.1880    0.0466 H   0  0  0  0  0  0  0  0  0  0  0  0
   -2.5247    1.1958   -0.1323 H   0  0  0  0  0  0  0  0  0  0  0  0
   -0.9489    1.9999   -0.2262 H   0  0  0  0  0  0  0  0  0  0  0  0
   -1.4343    1.1629    1.2637 H   0  0  0  0  0  0  0  0  0  0  0  0
   -2.5409   -3.1277    1.1372 H   0  0  0  0  0  0  0  0  0  0  0  0
    1.7959   -0.8905    1.7910 C   0  0  0  0  0  0  0  0  0  0  0  0
    1.6577   -0.2151    0.4378 C   0  0  0  0  0  0  0  0  0  0  0  0
    1.5283    1.5956    0.5188 S   0  0  0  0  0  0  0  0  0  0  0  0
    1.9114   -1.9699    1.6672 H   0  0  0  0  0  0  0  0  0  0  0  0
    0.9118   -0.7160    2.4069 H   0  0  0  0  0  0  0  0  0  0  0  0
    2.6626   -0.5087    2.3309 H   0  0  0  0  0  0  0  0  0  0  0  0
    2.5433   -0.3935   -0.1738 H   0  0  0  0  0  0  0  0  0  0  0  0
    0.3900    1.6432    1.2239 H   0  0  0  0  0  0  0  0  0  0  0  0
  1  2  3  0
  1  7  1  0
  2  3  1  0
  3  4  1  0
  3  5  1  0
  4  9  1  0
  4 10  1  0
  4 11  1  0
  5  6  3  0
  6 12  1  0
  8 14  1  0
 13 14  1  0
 13 16  1  0
 13 17  1  0
 13 18  1  0
 14 15  1  0
 14 19  1  0
 15 20  1  0
M  RAD  1   3   2
M  END
>  <reaction>  (15) 
rxn_1412

>  <mol_properties>  (15) 
{"1": {"label": "*0", "atom_type": "Ct"}, "2": {"label": "*1", "atom_type": "Cs"}, "7": {"label": "*2", "atom_type": "H0"}, "13": {"label": "*3", "atom_type": "Cs"}, "14": {"label": "*4", "atom_type": "S2s"}}

>  <type>  (15) 
unop_11

>  <geom_source>  (15) 
Heuristics

$$$$

     RDKit          3D

 20 18  0  0  0  0  0  0  0  0999 V2000
   -1.0179    0.4790   -2.9829 C   0  0  0  0  0  0  0  0  0  0  0  0
   -1.0179    0.4790   -1.7867 C   0  0  0  0  0  0  0  0  0  0  0  0
   -1.0179    0.5191   -0.3202 C   0  0  0  0  0  3  0  0  0  0  0  0
   -1.6560    1.8183    0.2018 C   0  0  0  0  0  0  0  0  0  0  0  0
   -1.6798   -0.6622    0.2446 C   0  0  0  0  0  0  0  0  0  0  0  0
   -2.2280   -1.6075    0.7311 C   0  0  0  0  0  0  0  0  0  0  0  0
   -1.0179    0.4790   -4.0463 H   0  0  0  0  0  0  0  0  0  0  0  0
    0.2357    0.4918    0.0730 H   0  0  0  0  0  0  0  0  0  0  0  0
   -2.6992    1.8755   -0.1059 H   0  0  0  0  0  0  0  0  0  0  0  0
   -1.1233    2.6797   -0.1998 H   0  0  0  0  0  0  0  0  0  0  0  0
   -1.6088    1.8427    1.2900 H   0  0  0  0  0  0  0  0  0  0  0  0
   -2.7154   -2.4479    1.1636 H   0  0  0  0  0  0  0  0  0  0  0  0
    2.4308    0.4036   -0.7210 C   0  0  0  0  0  0  0  0  0  0  0  0
    1.4833    0.4647    0.4642 C   0  0  0  0  0  0  0  0  0  0  0  0
    1.6982   -0.8863    1.6602 S   0  0  0  0  0  0  0  0  0  0  0  0
    2.2770    1.2647   -1.3756 H   0  0  0  0  0  0  0  0  0  0  0  0
    2.2623   -0.4999   -1.3098 H   0  0  0  0  0  0  0  0  0  0  0  0
    3.4696    0.4006   -0.3902 H   0  0  0  0  0  0  0  0  0  0  0  0
    1.6552    1.3698    1.0485 H   0  0  0  0  0  0  0  0  0  0  0  0
    1.3956   -1.8891    0.8248 H   0  0  0  0  0  0  0  0  0  0  0  0
  1  2  3  0
  1  7  1  0
  2  3  1  0
  3  4  1  0
  3  5  1  0
  4  9  1  0
  4 10  1  0
  4 11  1  0
  5  6  3  0
  6 12  1  0
  8 14  1  0
 13 14  1  0
 13 16  1  0
 13 17  1  0
 13 18  1  0
 14 15  1  0
 14 19  1  0
 15 20  1  0
M  RAD  1   3   2
M  END
>  <reaction>  (16) 
rxn_1412

>  <mol_properties>  (16) 
{"1": {"label": "*0", "atom_type": "Ct"}, "2": {"label": "*1", "atom_type": "Cs"}, "7": {"label": "*2", "atom_type": "H0"}, "13": {"label": "*3", "atom_type": "Cs"}, "14": {"label": "*4", "atom_type": "S2s"}}

>  <type>  (16) 
unop_12

>  <geom_source>  (16) 
Heuristics

$$$$

     RDKit          3D

 20 18  0  0  0  0  0  0  0  0999 V2000
   -1.6686    1.2743    1.3046 S   0  0  0  0  0  0  0  0  0  0  0  0
   -1.3138   -0.4029    0.6958 C   0  0  0  0  0  3  0  0  0  0  0  0
   -2.5202   -0.9718   -0.0355 C   0  0  0  0  0  0  0  0  0  0  0  0
    2.3081   -0.9138   -0.7953 C   0  0  0  0  0  0  0  0  0  0  0  0
    1.0522   -0.1507   -0.3843 C   0  0  0  0  0  0  0  0  0  0  0  0
    0.9132    1.0820   -1.1690 C   0  0  0  0  0  0  0  0  0  0  0  0
    1.0876    0.1755    1.0465 C   0  0  0  0  0  0  0  0  0  0  0  0
    0.7983    2.0939   -1.8149 C   0  0  0  0  0  0  0  0  0  0  0  0
    1.1160    0.4420    2.2223 C   0  0  0  0  0  0  0  0  0  0  0  0
   -1.0624   -1.0542    1.5592 H   0  0  0  0  0  0  0  0  0  0  0  0
   -0.2490   -0.3598   -0.1480 H   0  0  0  0  0  0  0  0  0  0  0  0
   -2.7660   -0.3409   -0.9154 H   0  0  0  0  0  0  0  0  0  0  0  0
   -3.3968   -1.0136    0.6453 H   0  0  0  0  0  0  0  0  0  0  0  0
   -2.2887   -1.9989   -0.3872 H   0  0  0  0  0  0  0  0  0  0  0  0
    3.2201   -0.3027   -0.6170 H   0  0  0  0  0  0  0  0  0  0  0  0
    2.2540   -1.1775   -1.8731 H   0  0  0  0  0  0  0  0  0  0  0  0
    2.3847   -1.8567   -0.2131 H   0  0  0  0  0  0  0  0  0  0  0  0
   -1.7073    1.8180    0.0064 H   0  0  0  0  0  0  0  0  0  0  0  0
    0.6976    2.9819   -2.3816 H   0  0  0  0  0  0  0  0  0  0  0  0
    1.1411    0.6759    3.2540 H   0  0  0  0  0  0  0  0  0  0  0  0
  1  2  1  0
  1 18  1  0
  2  3  1  0
  2 10  1  0
  3 12  1  0
  3 13  1  0
  3 14  1  0
  4  5  1  0
  4 15  1  0
  4 16  1  0
  4 17  1  0
  5  6  1  0
  5  7  1  0
  5 11  1  0
  6  8  3  0
  7  9  3  0
  8 19  1  0
  9 20  1  0
M  RAD  1   2   2
M  END
>  <reaction>  (17) 
rxn_1412

>  <mol_properties>  (17) 
{"1": {"label": "*0", "atom_type": "Ct"}, "2": {"label": "*1", "atom_type": "Cs"}, "7": {"label": "*2", "atom_type": "H0"}, "13": {"label": "*3", "atom_type": "Cs"}, "14": {"label": "*4", "atom_type": "S2s"}}

>  <type>  (17) 
unop_13

>  <geom_source>  (17) 
AutoTST

$$$$
