
     RDKit          3D

  9  8  0  0  0  0  0  0  0  0999 V2000
    1.1303   -0.2933   -0.7510 C   0  0  0  0  0  0  0  0  0  0  0  0
    0.2866    0.4560   -0.0588 C   0  0  0  0  0  0  0  0  0  0  0  0
   -0.9719   -0.0331    0.5823 C   0  0  0  0  0  0  0  0  0  0  0  0
    2.0274    0.1230   -1.1916 H   0  0  0  0  0  0  0  0  0  0  0  0
    0.9532   -1.3530   -0.9023 H   0  0  0  0  0  0  0  0  0  0  0  0
    0.5065    1.5132    0.0659 H   0  0  0  0  0  0  0  0  0  0  0  0
   -0.9526    0.1426    1.6610 H   0  0  0  0  0  0  0  0  0  0  0  0
   -1.1182   -1.1002    0.4106 H   0  0  0  0  0  0  0  0  0  0  0  0
   -1.8412    0.5010    0.1901 H   0  0  0  0  0  0  0  0  0  0  0  0
  1  2  2  3
  1  4  1  0
  1  5  1  0
  2  3  1  0
  2  6  1  0
  3  7  1  0
  3  8  1  0
  3  9  1  0
M  END
>  <reaction>  (1) 
rxn_1018

>  <mol_properties>  (1) 
{"2": {"label": "donator", "atom_type": "Cs"}, "6": {"label": "d_hydrogen", "atom_type": "H0"}}

>  <type>  (1) 
r1h

$$$$

     RDKit          3D

  8  7  0  0  0  0  0  0  0  0999 V2000
   -1.0607    0.1793   -0.1423 C   0  0  0  0  0  0  0  0  0  0  0  0
    0.2796    0.0327    0.4820 C   0  0  0  0  0  3  0  0  0  0  0  0
    0.8817   -1.4663    1.0791 S   0  0  0  0  0  0  0  0  0  0  0  0
   -1.3043    1.2328   -0.2850 H   0  0  0  0  0  0  0  0  0  0  0  0
   -1.8444   -0.2641    0.4799 H   0  0  0  0  0  0  0  0  0  0  0  0
   -1.1164   -0.3100   -1.1237 H   0  0  0  0  0  0  0  0  0  0  0  0
    1.0449    0.7826    0.3391 H   0  0  0  0  0  0  0  0  0  0  0  0
   -0.2993   -2.0726    1.2718 H   0  0  0  0  0  0  0  0  0  0  0  0
  1  2  1  0
  1  4  1  0
  1  5  1  0
  1  6  1  0
  2  3  1  0
  2  7  1  0
  3  8  1  0
M  RAD  1   2   2
M  END
>  <reaction>  (2) 
rxn_1018

>  <mol_properties>  (2) 
{"1": {"label": "acceptor", "atom_type": "Cs"}}

>  <type>  (2) 
r2

$$$$

     RDKit          3D

  9  8  0  0  0  0  0  0  0  0999 V2000
   -0.8818   -0.3578    0.1297 C   0  0  0  0  0  0  0  0  0  0  0  0
    0.6153   -0.3021   -0.1188 C   0  0  0  0  0  0  0  0  0  0  0  0
    1.5354   -1.7170    0.5545 S   0  0  0  0  0  0  0  0  0  0  0  0
   -1.1018   -0.3317    1.1984 H   0  0  0  0  0  0  0  0  0  0  0  0
   -1.3114   -1.2723   -0.2799 H   0  0  0  0  0  0  0  0  0  0  0  0
   -1.3767    0.4976   -0.3363 H   0  0  0  0  0  0  0  0  0  0  0  0
    1.0467    0.6194    0.2718 H   0  0  0  0  0  0  0  0  0  0  0  0
    0.8295   -0.3275   -1.1882 H   0  0  0  0  0  0  0  0  0  0  0  0
    1.2306   -1.5077    1.8423 H   0  0  0  0  0  0  0  0  0  0  0  0
  1  2  1  0
  1  4  1  0
  1  5  1  0
  1  6  1  0
  2  3  1  0
  2  7  1  0
  2  8  1  0
  3  9  1  0
M  END
>  <reaction>  (3) 
rxn_1018

>  <mol_properties>  (3) 
{"1": {"label": "acceptor", "atom_type": "Cs"}, "8": {"label": "a_hydrogen", "atom_type": "H0"}}

>  <type>  (3) 
r2h

$$$$

     RDKit          3D

 17 15  0  0  0  0  0  0  0  0999 V2000
   -1.0657   -1.2507    1.1009 C   0  0  0  0  0  0  0  0  0  0  0  0
   -0.5275    0.1479    0.9771 C   0  0  0  0  0  3  0  0  0  0  0  0
   -1.3444    1.2512   -0.1403 S   0  0  0  0  0  0  0  0  0  0  0  0
   -0.4572   -1.8307    1.7980 H   0  0  0  0  0  0  0  0  0  0  0  0
   -1.0440   -1.7565    0.1322 H   0  0  0  0  0  0  0  0  0  0  0  0
   -2.0986   -1.2557    1.4584 H   0  0  0  0  0  0  0  0  0  0  0  0
   -0.3642    0.6654    1.9205 H   0  0  0  0  0  0  0  0  0  0  0  0
   -1.3589    0.4184   -1.1921 H   0  0  0  0  0  0  0  0  0  0  0  0
    1.1713   -0.6926   -2.5017 C   0  0  0  0  0  0  0  0  0  0  0  0
    1.5337   -1.1293   -1.2905 C   0  0  0  0  0  0  0  0  0  0  0  0
    1.8738   -0.2761   -0.1623 C   0  0  0  0  0  0  0  0  0  0  0  0
    0.8907   -1.3795   -3.2895 H   0  0  0  0  0  0  0  0  0  0  0  0
    1.1660    0.3657   -2.7391 H   0  0  0  0  0  0  0  0  0  0  0  0
    1.5254   -2.2004   -1.1055 H   0  0  0  0  0  0  0  0  0  0  0  0
    0.7432   -0.0416    0.4749 H   0  0  0  0  0  0  0  0  0  0  0  0
    2.1702    0.7391   -0.4190 H   0  0  0  0  0  0  0  0  0  0  0  0
    2.5103   -0.7254    0.5958 H   0  0  0  0  0  0  0  0  0  0  0  0
  1  2  1  0
  1  4  1  0
  1  5  1  0
  1  6  1  0
  2  3  1  0
  2  7  1  0
  3  8  1  0
  9 10  2  3
  9 12  1  0
  9 13  1  0
 10 11  1  0
 10 14  1  0
 11 15  1  0
 11 16  1  0
 11 17  1  0
M  RAD  1   2   2
M  END
>  <reaction>  (4) 
rxn_1018

>  <mol_properties>  (4) 
{"1": {"label": "*3", "atom_type": "Cs"}, "2": {"label": "*4", "atom_type": "S2s"}, "9": {"label": "*0", "atom_type": "Cd"}, "10": {"label": "*1", "atom_type": "Cs"}, "14": {"label": "*2", "atom_type": "H0"}}

>  <type>  (4) 
ts

$$$$

     RDKit          3D

 17 15  0  0  0  0  0  0  0  0999 V2000
    0.0370    0.4992    2.3729 C   0  0  0  0  0  0  0  0  0  0  0  0
   -0.3643    0.4820    0.9083 C   0  0  0  0  0  0  0  0  0  0  0  0
   -2.0996    0.0289    0.6167 S   0  0  0  0  0  0  0  0  0  0  0  0
    1.0762    0.8196    2.4787 H   0  0  0  0  0  0  0  0  0  0  0  0
   -0.0545   -0.4946    2.8149 H   0  0  0  0  0  0  0  0  0  0  0  0
   -0.5955    1.1803    2.9427 H   0  0  0  0  0  0  0  0  0  0  0  0
   -0.2700    1.4772    0.4714 H   0  0  0  0  0  0  0  0  0  0  0  0
   -2.0321   -1.2048    1.1348 H   0  0  0  0  0  0  0  0  0  0  0  0
    1.7391   -0.7812   -2.8366 C   0  0  0  0  0  0  0  0  0  0  0  0
    1.7391   -0.7812   -1.5128 C   0  0  0  0  0  0  0  0  0  0  0  0
    1.7391    0.4409   -0.6523 C   0  0  0  0  0  3  0  0  0  0  0  0
    1.7391   -1.7040   -3.4030 H   0  0  0  0  0  0  0  0  0  0  0  0
    1.7391    0.1444   -3.4026 H   0  0  0  0  0  0  0  0  0  0  0  0
    1.7391   -1.7339   -0.9893 H   0  0  0  0  0  0  0  0  0  0  0  0
    0.6859    0.4615    0.1292 H   0  0  0  0  0  0  0  0  0  0  0  0
    1.7391    1.3514   -1.2529 H   0  0  0  0  0  0  0  0  0  0  0  0
    2.6168    0.4581   -0.0011 H   0  0  0  0  0  0  0  0  0  0  0  0
  1  2  1  0
  1  4  1  0
  1  5  1  0
  1  6  1  0
  2  3  1  0
  2  7  1  0
  2 15  1  0
  3  8  1  0
  9 10  2  3
  9 12  1  0
  9 13  1  0
 10 11  1  0
 10 14  1  0
 11 16  1  0
 11 17  1  0
M  RAD  1  11   2
M  END
>  <reaction>  (5) 
rxn_1018

>  <mol_properties>  (5) 
{"1": {"label": "*3", "atom_type": "Cs"}, "2": {"label": "*4", "atom_type": "S2s"}, "9": {"label": "*0", "atom_type": "Cd"}, "10": {"label": "*1", "atom_type": "Cs"}, "14": {"label": "*2", "atom_type": "H0"}}

>  <type>  (5) 
unop_1

>  <geom_source>  (5) 
Heuristics

$$$$

     RDKit          3D

 17 15  0  0  0  0  0  0  0  0999 V2000
   -0.8072   -1.2281    1.4248 C   0  0  0  0  0  0  0  0  0  0  0  0
   -0.3524    0.1784    1.0766 C   0  0  0  0  0  0  0  0  0  0  0  0
   -1.7106    1.3543    0.8032 S   0  0  0  0  0  0  0  0  0  0  0  0
    0.0557   -1.8701    1.6172 H   0  0  0  0  0  0  0  0  0  0  0  0
   -1.3772   -1.6687    0.6049 H   0  0  0  0  0  0  0  0  0  0  0  0
   -1.4415   -1.2247    2.3116 H   0  0  0  0  0  0  0  0  0  0  0  0
    0.2175    0.6135    1.8989 H   0  0  0  0  0  0  0  0  0  0  0  0
   -2.2562    0.7269   -0.2474 H   0  0  0  0  0  0  0  0  0  0  0  0
    1.7509   -1.0848   -2.6682 C   0  0  0  0  0  0  0  0  0  0  0  0
    1.7509   -1.0848   -1.3445 C   0  0  0  0  0  0  0  0  0  0  0  0
    1.7509    0.1374   -0.4840 C   0  0  0  0  0  3  0  0  0  0  0  0
    1.7509   -2.0075   -3.2347 H   0  0  0  0  0  0  0  0  0  0  0  0
    1.7509   -0.1592   -3.2342 H   0  0  0  0  0  0  0  0  0  0  0  0
    1.7510   -2.0374   -0.8210 H   0  0  0  0  0  0  0  0  0  0  0  0
    0.6977    0.1579    0.2975 H   0  0  0  0  0  0  0  0  0  0  0  0
    1.7509    1.0478   -1.0846 H   0  0  0  0  0  0  0  0  0  0  0  0
    2.6287    0.1545    0.1672 H   0  0  0  0  0  0  0  0  0  0  0  0
  1  2  1  0
  1  4  1  0
  1  5  1  0
  1  6  1  0
  2  3  1  0
  2  7  1  0
  2 15  1  0
  3  8  1  0
  9 10  2  3
  9 12  1  0
  9 13  1  0
 10 11  1  0
 10 14  1  0
 11 16  1  0
 11 17  1  0
M  RAD  1  11   2
M  END
>  <reaction>  (6) 
rxn_1018

>  <mol_properties>  (6) 
{"1": {"label": "*3", "atom_type": "Cs"}, "2": {"label": "*4", "atom_type": "S2s"}, "9": {"label": "*0", "atom_type": "Cd"}, "10": {"label": "*1", "atom_type": "Cs"}, "14": {"label": "*2", "atom_type": "H0"}}

>  <type>  (6) 
unop_2

>  <geom_source>  (6) 
Heuristics

$$$$

     RDKit          3D

 17 15  0  0  0  0  0  0  0  0999 V2000
   -0.1916    1.3532    2.1015 C   0  0  0  0  0  0  0  0  0  0  0  0
   -0.4862    0.6295    0.7992 C   0  0  0  0  0  0  0  0  0  0  0  0
   -1.7922   -0.6276    0.9245 S   0  0  0  0  0  0  0  0  0  0  0  0
    0.5698    2.1212    1.9459 H   0  0  0  0  0  0  0  0  0  0  0  0
    0.1804    0.6601    2.8582 H   0  0  0  0  0  0  0  0  0  0  0  0
   -1.0898    1.8300    2.4947 H   0  0  0  0  0  0  0  0  0  0  0  0
   -0.8567    1.3269    0.0464 H   0  0  0  0  0  0  0  0  0  0  0  0
   -1.1696   -1.4174    1.8098 H   0  0  0  0  0  0  0  0  0  0  0  0
    1.6172   -0.6337   -2.9456 C   0  0  0  0  0  0  0  0  0  0  0  0
    1.6172   -0.6337   -1.6219 C   0  0  0  0  0  0  0  0  0  0  0  0
    1.6172    0.5885   -0.7614 C   0  0  0  0  0  3  0  0  0  0  0  0
    1.6172   -1.5564   -3.5121 H   0  0  0  0  0  0  0  0  0  0  0  0
    1.6172    0.2919   -3.5116 H   0  0  0  0  0  0  0  0  0  0  0  0
    1.6172   -1.5863   -1.0984 H   0  0  0  0  0  0  0  0  0  0  0  0
    0.5639    0.6091    0.0201 H   0  0  0  0  0  0  0  0  0  0  0  0
    1.6172    1.4990   -1.3620 H   0  0  0  0  0  0  0  0  0  0  0  0
    2.4949    0.6056   -0.1101 H   0  0  0  0  0  0  0  0  0  0  0  0
  1  2  1  0
  1  4  1  0
  1  5  1  0
  1  6  1  0
  2  3  1  0
  2  7  1  0
  2 15  1  0
  3  8  1  0
  9 10  2  3
  9 12  1  0
  9 13  1  0
 10 11  1  0
 10 14  1  0
 11 16  1  0
 11 17  1  0
M  RAD  1  11   2
M  END
>  <reaction>  (7) 
rxn_1018

>  <mol_properties>  (7) 
{"1": {"label": "*3", "atom_type": "Cs"}, "2": {"label": "*4", "atom_type": "S2s"}, "9": {"label": "*0", "atom_type": "Cd"}, "10": {"label": "*1", "atom_type": "Cs"}, "14": {"label": "*2", "atom_type": "H0"}}

>  <type>  (7) 
unop_3

>  <geom_source>  (7) 
Heuristics

$$$$

     RDKit          3D

 17 15  0  0  0  0  0  0  0  0999 V2000
   -2.1415   -0.1924    0.2224 C   0  0  0  0  0  0  0  0  0  0  0  0
   -0.8559   -0.1924    1.0309 C   0  0  0  0  0  0  0  0  0  0  0  0
   -0.2434    1.4646    1.4562 S   0  0  0  0  0  0  0  0  0  0  0  0
   -2.4752   -1.2164    0.0386 H   0  0  0  0  0  0  0  0  0  0  0  0
   -1.9947    0.2915   -0.7449 H   0  0  0  0  0  0  0  0  0  0  0  0
   -2.9333    0.3412    0.7487 H   0  0  0  0  0  0  0  0  0  0  0  0
   -1.0079   -0.6779    1.9960 H   0  0  0  0  0  0  0  0  0  0  0  0
   -0.0487    1.8903    0.2009 H   0  0  0  0  0  0  0  0  0  0  0  0
    1.2475   -1.4556   -2.7140 C   0  0  0  0  0  0  0  0  0  0  0  0
    1.2475   -1.4556   -1.3902 C   0  0  0  0  0  0  0  0  0  0  0  0
    1.2475   -0.2334   -0.5297 C   0  0  0  0  0  3  0  0  0  0  0  0
    1.2475   -2.3783   -3.2805 H   0  0  0  0  0  0  0  0  0  0  0  0
    1.2475   -0.5300   -3.2800 H   0  0  0  0  0  0  0  0  0  0  0  0
    1.2475   -2.4082   -0.8667 H   0  0  0  0  0  0  0  0  0  0  0  0
    0.1942   -0.2129    0.2517 H   0  0  0  0  0  0  0  0  0  0  0  0
    1.2475    0.6770   -1.1303 H   0  0  0  0  0  0  0  0  0  0  0  0
    2.1252   -0.2163    0.1215 H   0  0  0  0  0  0  0  0  0  0  0  0
  1  2  1  0
  1  4  1  0
  1  5  1  0
  1  6  1  0
  2  3  1  0
  2  7  1  0
  2 15  1  0
  3  8  1  0
  9 10  2  3
  9 12  1  0
  9 13  1  0
 10 11  1  0
 10 14  1  0
 11 16  1  0
 11 17  1  0
M  RAD  1  11   2
M  END
>  <reaction>  (8) 
rxn_1018

>  <mol_properties>  (8) 
{"1": {"label": "*3", "atom_type": "Cs"}, "2": {"label": "*4", "atom_type": "S2s"}, "9": {"label": "*0", "atom_type": "Cd"}, "10": {"label": "*1", "atom_type": "Cs"}, "14": {"label": "*2", "atom_type": "H0"}}

>  <type>  (8) 
unop_4

>  <geom_source>  (8) 
Heuristics

$$$$

     RDKit          3D

 17 15  0  0  0  0  0  0  0  0999 V2000
   -0.8399    1.8857    1.4903 C   0  0  0  0  0  0  0  0  0  0  0  0
   -0.8305    0.6472    0.6115 C   0  0  0  0  0  0  0  0  0  0  0  0
   -0.9156   -0.9185    1.5296 S   0  0  0  0  0  0  0  0  0  0  0  0
   -0.8299    2.7886    0.8752 H   0  0  0  0  0  0  0  0  0  0  0  0
    0.0377    1.9114    2.1387 H   0  0  0  0  0  0  0  0  0  0  0  0
   -1.7269    1.9076    2.1240 H   0  0  0  0  0  0  0  0  0  0  0  0
   -1.7091    0.6270   -0.0350 H   0  0  0  0  0  0  0  0  0  0  0  0
    0.2326   -0.7710    2.2042 H   0  0  0  0  0  0  0  0  0  0  0  0
    1.2729   -0.6160   -3.1334 C   0  0  0  0  0  0  0  0  0  0  0  0
    1.2729   -0.6160   -1.8097 C   0  0  0  0  0  0  0  0  0  0  0  0
    1.2729    0.6062   -0.9491 C   0  0  0  0  0  3  0  0  0  0  0  0
    1.2729   -1.5387   -3.6999 H   0  0  0  0  0  0  0  0  0  0  0  0
    1.2729    0.3096   -3.6994 H   0  0  0  0  0  0  0  0  0  0  0  0
    1.2729   -1.5686   -1.2861 H   0  0  0  0  0  0  0  0  0  0  0  0
    0.2197    0.6267   -0.1677 H   0  0  0  0  0  0  0  0  0  0  0  0
    1.2729    1.5166   -1.5497 H   0  0  0  0  0  0  0  0  0  0  0  0
    2.1506    0.6233   -0.2979 H   0  0  0  0  0  0  0  0  0  0  0  0
  1  2  1  0
  1  4  1  0
  1  5  1  0
  1  6  1  0
  2  3  1  0
  2  7  1  0
  2 15  1  0
  3  8  1  0
  9 10  2  3
  9 12  1  0
  9 13  1  0
 10 11  1  0
 10 14  1  0
 11 16  1  0
 11 17  1  0
M  RAD  1  11   2
M  END
>  <reaction>  (9) 
rxn_1018

>  <mol_properties>  (9) 
{"1": {"label": "*3", "atom_type": "Cs"}, "2": {"label": "*4", "atom_type": "S2s"}, "9": {"label": "*0", "atom_type": "Cd"}, "10": {"label": "*1", "atom_type": "Cs"}, "14": {"label": "*2", "atom_type": "H0"}}

>  <type>  (9) 
unop_5

>  <geom_source>  (9) 
Heuristics

$$$$

     RDKit          3D

 17 15  0  0  0  0  0  0  0  0999 V2000
   -2.2173    0.5813    0.2100 C   0  0  0  0  0  0  0  0  0  0  0  0
   -1.0511   -0.1274    0.8764 C   0  0  0  0  0  0  0  0  0  0  0  0
    0.1147    0.9846    1.7168 S   0  0  0  0  0  0  0  0  0  0  0  0
   -2.8987   -0.1460   -0.2376 H   0  0  0  0  0  0  0  0  0  0  0  0
   -1.8692    1.2469   -0.5819 H   0  0  0  0  0  0  0  0  0  0  0  0
   -2.7740    1.1797    0.9317 H   0  0  0  0  0  0  0  0  0  0  0  0
   -1.4046   -0.7918    1.6662 H   0  0  0  0  0  0  0  0  0  0  0  0
    0.4957    1.6683    0.6294 H   0  0  0  0  0  0  0  0  0  0  0  0
    1.0523   -1.3906   -2.8685 C   0  0  0  0  0  0  0  0  0  0  0  0
    1.0523   -1.3906   -1.5448 C   0  0  0  0  0  0  0  0  0  0  0  0
    1.0523   -0.1684   -0.6842 C   0  0  0  0  0  3  0  0  0  0  0  0
    1.0523   -2.3133   -3.4350 H   0  0  0  0  0  0  0  0  0  0  0  0
    1.0523   -0.4650   -3.4345 H   0  0  0  0  0  0  0  0  0  0  0  0
    1.0523   -2.3432   -1.0212 H   0  0  0  0  0  0  0  0  0  0  0  0
   -0.0009   -0.1479    0.0972 H   0  0  0  0  0  0  0  0  0  0  0  0
    1.0523    0.7420   -1.2848 H   0  0  0  0  0  0  0  0  0  0  0  0
    1.9300   -0.1513   -0.0330 H   0  0  0  0  0  0  0  0  0  0  0  0
  1  2  1  0
  1  4  1  0
  1  5  1  0
  1  6  1  0
  2  3  1  0
  2  7  1  0
  2 15  1  0
  3  8  1  0
  9 10  2  3
  9 12  1  0
  9 13  1  0
 10 11  1  0
 10 14  1  0
 11 16  1  0
 11 17  1  0
M  RAD  1  11   2
M  END
>  <reaction>  (10) 
rxn_1018

>  <mol_properties>  (10) 
{"1": {"label": "*3", "atom_type": "Cs"}, "2": {"label": "*4", "atom_type": "S2s"}, "9": {"label": "*0", "atom_type": "Cd"}, "10": {"label": "*1", "atom_type": "Cs"}, "14": {"label": "*2", "atom_type": "H0"}}

>  <type>  (10) 
unop_6

>  <geom_source>  (10) 
Heuristics

$$$$

     RDKit          3D

 17 15  0  0  0  0  0  0  0  0999 V2000
   -2.0231    1.2875    0.4601 C   0  0  0  0  0  0  0  0  0  0  0  0
   -1.1702    0.0576    0.7178 C   0  0  0  0  0  0  0  0  0  0  0  0
    0.2172    0.3385    1.8571 S   0  0  0  0  0  0  0  0  0  0  0  0
   -2.8603    1.0390   -0.1965 H   0  0  0  0  0  0  0  0  0  0  0  0
   -1.4396    2.0735   -0.0227 H   0  0  0  0  0  0  0  0  0  0  0  0
   -2.4210    1.6886    1.3926 H   0  0  0  0  0  0  0  0  0  0  0  0
   -1.7584   -0.7249    1.1994 H   0  0  0  0  0  0  0  0  0  0  0  0
    0.8570    1.2473    1.1089 H   0  0  0  0  0  0  0  0  0  0  0  0
    0.9331   -1.2056   -3.0271 C   0  0  0  0  0  0  0  0  0  0  0  0
    0.9331   -1.2056   -1.7033 C   0  0  0  0  0  0  0  0  0  0  0  0
    0.9331    0.0166   -0.8428 C   0  0  0  0  0  3  0  0  0  0  0  0
    0.9331   -2.1283   -3.5935 H   0  0  0  0  0  0  0  0  0  0  0  0
    0.9331   -0.2800   -3.5931 H   0  0  0  0  0  0  0  0  0  0  0  0
    0.9331   -2.1582   -1.1798 H   0  0  0  0  0  0  0  0  0  0  0  0
   -0.1201    0.0372   -0.0613 H   0  0  0  0  0  0  0  0  0  0  0  0
    0.9331    0.9271   -1.4434 H   0  0  0  0  0  0  0  0  0  0  0  0
    1.8109    0.0337   -0.1916 H   0  0  0  0  0  0  0  0  0  0  0  0
  1  2  1  0
  1  4  1  0
  1  5  1  0
  1  6  1  0
  2  3  1  0
  2  7  1  0
  2 15  1  0
  3  8  1  0
  9 10  2  3
  9 12  1  0
  9 13  1  0
 10 11  1  0
 10 14  1  0
 11 16  1  0
 11 17  1  0
M  RAD  1  11   2
M  END
>  <reaction>  (11) 
rxn_1018

>  <mol_properties>  (11) 
{"1": {"label": "*3", "atom_type": "Cs"}, "2": {"label": "*4", "atom_type": "S2s"}, "9": {"label": "*0", "atom_type": "Cd"}, "10": {"label": "*1", "atom_type": "Cs"}, "14": {"label": "*2", "atom_type": "H0"}}

>  <type>  (11) 
unop_7

>  <geom_source>  (11) 
Heuristics

$$$$

     RDKit          3D

 17 15  0  0  0  0  0  0  0  0999 V2000
   -0.0533   -0.3196    2.2747 C   0  0  0  0  0  0  0  0  0  0  0  0
   -0.3352    0.3719    0.9524 C   0  0  0  0  0  0  0  0  0  0  0  0
   -2.1016    0.6037    0.5946 S   0  0  0  0  0  0  0  0  0  0  0  0
    1.0236   -0.3882    2.4460 H   0  0  0  0  0  0  0  0  0  0  0  0
   -0.4592   -1.3327    2.2803 H   0  0  0  0  0  0  0  0  0  0  0  0
   -0.5022    0.2271    3.1044 H   0  0  0  0  0  0  0  0  0  0  0  0
    0.0734    1.3835    0.9519 H   0  0  0  0  0  0  0  0  0  0  0  0
   -2.4303   -0.6948    0.5640 H   0  0  0  0  0  0  0  0  0  0  0  0
    1.7681   -0.8913   -2.7925 C   0  0  0  0  0  0  0  0  0  0  0  0
    1.7681   -0.8913   -1.4688 C   0  0  0  0  0  0  0  0  0  0  0  0
    1.7681    0.3309   -0.6082 C   0  0  0  0  0  3  0  0  0  0  0  0
    1.7681   -1.8140   -3.3590 H   0  0  0  0  0  0  0  0  0  0  0  0
    1.7681    0.0343   -3.3585 H   0  0  0  0  0  0  0  0  0  0  0  0
    1.7681   -1.8439   -0.9452 H   0  0  0  0  0  0  0  0  0  0  0  0
    0.7149    0.3514    0.1732 H   0  0  0  0  0  0  0  0  0  0  0  0
    1.7681    1.2413   -1.2088 H   0  0  0  0  0  0  0  0  0  0  0  0
    2.6459    0.3480    0.0430 H   0  0  0  0  0  0  0  0  0  0  0  0
  1  2  1  0
  1  4  1  0
  1  5  1  0
  1  6  1  0
  2  3  1  0
  2  7  1  0
  2 15  1  0
  3  8  1  0
  9 10  2  3
  9 12  1  0
  9 13  1  0
 10 11  1  0
 10 14  1  0
 11 16  1  0
 11 17  1  0
M  RAD  1  11   2
M  END
>  <reaction>  (12) 
rxn_1018

>  <mol_properties>  (12) 
{"1": {"label": "*3", "atom_type": "Cs"}, "2": {"label": "*4", "atom_type": "S2s"}, "9": {"label": "*0", "atom_type": "Cd"}, "10": {"label": "*1", "atom_type": "Cs"}, "14": {"label": "*2", "atom_type": "H0"}}

>  <type>  (12) 
unop_8

>  <geom_source>  (12) 
Heuristics

$$$$

     RDKit          3D

 17 15  0  0  0  0  0  0  0  0999 V2000
   -1.8114   -0.8397    0.4893 C   0  0  0  0  0  0  0  0  0  0  0  0
   -0.6325   -0.1333    1.1354 C   0  0  0  0  0  0  0  0  0  0  0  0
   -0.7697    1.6785    1.1559 S   0  0  0  0  0  0  0  0  0  0  0  0
   -1.6846   -1.9233    0.5488 H   0  0  0  0  0  0  0  0  0  0  0  0
   -1.8991   -0.5694   -0.5646 H   0  0  0  0  0  0  0  0  0  0  0  0
   -2.7454   -0.5722    0.9840 H   0  0  0  0  0  0  0  0  0  0  0  0
   -0.5489   -0.4077    2.1880 H   0  0  0  0  0  0  0  0  0  0  0  0
   -0.7943    1.8520   -0.1724 H   0  0  0  0  0  0  0  0  0  0  0  0
    1.4709   -1.3965   -2.6094 C   0  0  0  0  0  0  0  0  0  0  0  0
    1.4709   -1.3965   -1.2857 C   0  0  0  0  0  0  0  0  0  0  0  0
    1.4709   -0.1743   -0.4252 C   0  0  0  0  0  3  0  0  0  0  0  0
    1.4709   -2.3192   -3.1759 H   0  0  0  0  0  0  0  0  0  0  0  0
    1.4709   -0.4709   -3.1754 H   0  0  0  0  0  0  0  0  0  0  0  0
    1.4709   -2.3491   -0.7622 H   0  0  0  0  0  0  0  0  0  0  0  0
    0.4176   -0.1537    0.3563 H   0  0  0  0  0  0  0  0  0  0  0  0
    1.4709    0.7362   -1.0258 H   0  0  0  0  0  0  0  0  0  0  0  0
    2.3486   -0.1572    0.2261 H   0  0  0  0  0  0  0  0  0  0  0  0
  1  2  1  0
  1  4  1  0
  1  5  1  0
  1  6  1  0
  2  3  1  0
  2  7  1  0
  2 15  1  0
  3  8  1  0
  9 10  2  3
  9 12  1  0
  9 13  1  0
 10 11  1  0
 10 14  1  0
 11 16  1  0
 11 17  1  0
M  RAD  1  11   2
M  END
>  <reaction>  (13) 
rxn_1018

>  <mol_properties>  (13) 
{"1": {"label": "*3", "atom_type": "Cs"}, "2": {"label": "*4", "atom_type": "S2s"}, "9": {"label": "*0", "atom_type": "Cd"}, "10": {"label": "*1", "atom_type": "Cs"}, "14": {"label": "*2", "atom_type": "H0"}}

>  <type>  (13) 
unop_9

>  <geom_source>  (13) 
Heuristics

$$$$

     RDKit          3D

 17 15  0  0  0  0  0  0  0  0999 V2000
   -0.3620   -0.9249    1.9138 C   0  0  0  0  0  0  0  0  0  0  0  0
   -0.3306    0.2878    1.0001 C   0  0  0  0  0  0  0  0  0  0  0  0
   -1.9599    1.0311    0.6925 S   0  0  0  0  0  0  0  0  0  0  0  0
    0.6510   -1.2946    2.0900 H   0  0  0  0  0  0  0  0  0  0  0  0
   -0.9422   -1.7349    1.4684 H   0  0  0  0  0  0  0  0  0  0  0  0
   -0.8129   -0.6774    2.8751 H   0  0  0  0  0  0  0  0  0  0  0  0
    0.2513    1.0937    1.4496 H   0  0  0  0  0  0  0  0  0  0  0  0
   -2.5119   -0.0343    0.0965 H   0  0  0  0  0  0  0  0  0  0  0  0
    1.7728   -0.9754   -2.7448 C   0  0  0  0  0  0  0  0  0  0  0  0
    1.7728   -0.9754   -1.4210 C   0  0  0  0  0  0  0  0  0  0  0  0
    1.7728    0.2467   -0.5605 C   0  0  0  0  0  3  0  0  0  0  0  0
    1.7728   -1.8982   -3.3113 H   0  0  0  0  0  0  0  0  0  0  0  0
    1.7728   -0.0498   -3.3108 H   0  0  0  0  0  0  0  0  0  0  0  0
    1.7728   -1.9281   -0.8975 H   0  0  0  0  0  0  0  0  0  0  0  0
    0.7195    0.2673    0.2209 H   0  0  0  0  0  0  0  0  0  0  0  0
    1.7728    1.1572   -1.1611 H   0  0  0  0  0  0  0  0  0  0  0  0
    2.6505    0.2639    0.0907 H   0  0  0  0  0  0  0  0  0  0  0  0
  1  2  1  0
  1  4  1  0
  1  5  1  0
  1  6  1  0
  2  3  1  0
  2  7  1  0
  2 15  1  0
  3  8  1  0
  9 10  2  3
  9 12  1  0
  9 13  1  0
 10 11  1  0
 10 14  1  0
 11 16  1  0
 11 17  1  0
M  RAD  1  11   2
M  END
>  <reaction>  (14) 
rxn_1018

>  <mol_properties>  (14) 
{"1": {"label": "*3", "atom_type": "Cs"}, "2": {"label": "*4", "atom_type": "S2s"}, "9": {"label": "*0", "atom_type": "Cd"}, "10": {"label": "*1", "atom_type": "Cs"}, "14": {"label": "*2", "atom_type": "H0"}}

>  <type>  (14) 
unop_10

>  <geom_source>  (14) 
Heuristics

$$$$

     RDKit          3D

 17 15  0  0  0  0  0  0  0  0999 V2000
   -1.5694    1.7770    0.9010 C   0  0  0  0  0  0  0  0  0  0  0  0
   -1.1400    0.3532    0.5931 C   0  0  0  0  0  0  0  0  0  0  0  0
   -0.0528   -0.3849    1.8481 S   0  0  0  0  0  0  0  0  0  0  0  0
   -2.2526    2.1431    0.1309 H   0  0  0  0  0  0  0  0  0  0  0  0
   -0.7083    2.4469    0.9317 H   0  0  0  0  0  0  0  0  0  0  0  0
   -2.0732    1.8324    1.8663 H   0  0  0  0  0  0  0  0  0  0  0  0
   -2.0044   -0.3117    0.5626 H   0  0  0  0  0  0  0  0  0  0  0  0
    0.9573    0.4853    1.7165 H   0  0  0  0  0  0  0  0  0  0  0  0
    0.9634   -0.9100   -3.1518 C   0  0  0  0  0  0  0  0  0  0  0  0
    0.9634   -0.9100   -1.8281 C   0  0  0  0  0  0  0  0  0  0  0  0
    0.9634    0.3122   -0.9675 C   0  0  0  0  0  3  0  0  0  0  0  0
    0.9634   -1.8327   -3.7183 H   0  0  0  0  0  0  0  0  0  0  0  0
    0.9634    0.0156   -3.7178 H   0  0  0  0  0  0  0  0  0  0  0  0
    0.9634   -1.8626   -1.3045 H   0  0  0  0  0  0  0  0  0  0  0  0
   -0.0898    0.3327   -0.1861 H   0  0  0  0  0  0  0  0  0  0  0  0
    0.9634    1.2226   -1.5681 H   0  0  0  0  0  0  0  0  0  0  0  0
    1.8411    0.3293   -0.3163 H   0  0  0  0  0  0  0  0  0  0  0  0
  1  2  1  0
  1  4  1  0
  1  5  1  0
  1  6  1  0
  2  3  1  0
  2  7  1  0
  2 15  1  0
  3  8  1  0
  9 10  2  3
  9 12  1  0
  9 13  1  0
 10 11  1  0
 10 14  1  0
 11 16  1  0
 11 17  1  0
M  RAD  1  11   2
M  END
>  <reaction>  (15) 
rxn_1018

>  <mol_properties>  (15) 
{"1": {"label": "*3", "atom_type": "Cs"}, "2": {"label": "*4", "atom_type": "S2s"}, "9": {"label": "*0", "atom_type": "Cd"}, "10": {"label": "*1", "atom_type": "Cs"}, "14": {"label": "*2", "atom_type": "H0"}}

>  <type>  (15) 
unop_11

>  <geom_source>  (15) 
Heuristics

$$$$

     RDKit          3D

 17 15  0  0  0  0  0  0  0  0999 V2000
   -1.3213   -1.2025    0.9227 C   0  0  0  0  0  0  0  0  0  0  0  0
   -0.4465    0.0188    1.1455 C   0  0  0  0  0  0  0  0  0  0  0  0
   -1.3103    1.6030    0.9314 S   0  0  0  0  0  0  0  0  0  0  0  0
   -0.7525   -2.1167    1.1084 H   0  0  0  0  0  0  0  0  0  0  0  0
   -1.6881   -1.2382   -0.1047 H   0  0  0  0  0  0  0  0  0  0  0  0
   -2.1850   -1.1903    1.5880 H   0  0  0  0  0  0  0  0  0  0  0  0
   -0.0819    0.0490    2.1733 H   0  0  0  0  0  0  0  0  0  0  0  0
   -1.6269    1.4392   -0.3602 H   0  0  0  0  0  0  0  0  0  0  0  0
    1.6569   -1.2444   -2.5994 C   0  0  0  0  0  0  0  0  0  0  0  0
    1.6569   -1.2444   -1.2756 C   0  0  0  0  0  0  0  0  0  0  0  0
    1.6569   -0.0223   -0.4151 C   0  0  0  0  0  3  0  0  0  0  0  0
    1.6569   -2.1672   -3.1658 H   0  0  0  0  0  0  0  0  0  0  0  0
    1.6569   -0.3188   -3.1654 H   0  0  0  0  0  0  0  0  0  0  0  0
    1.6569   -2.1971   -0.7521 H   0  0  0  0  0  0  0  0  0  0  0  0
    0.6036   -0.0017    0.3664 H   0  0  0  0  0  0  0  0  0  0  0  0
    1.6569    0.8882   -1.0157 H   0  0  0  0  0  0  0  0  0  0  0  0
    2.5346   -0.0051    0.2361 H   0  0  0  0  0  0  0  0  0  0  0  0
  1  2  1  0
  1  4  1  0
  1  5  1  0
  1  6  1  0
  2  3  1  0
  2  7  1  0
  2 15  1  0
  3  8  1  0
  9 10  2  3
  9 12  1  0
  9 13  1  0
 10 11  1  0
 10 14  1  0
 11 16  1  0
 11 17  1  0
M  RAD  1  11   2
M  END
>  <reaction>  (16) 
rxn_1018

>  <mol_properties>  (16) 
{"1": {"label": "*3", "atom_type": "Cs"}, "2": {"label": "*4", "atom_type": "S2s"}, "9": {"label": "*0", "atom_type": "Cd"}, "10": {"label": "*1", "atom_type": "Cs"}, "14": {"label": "*2", "atom_type": "H0"}}

>  <type>  (16) 
unop_12

>  <geom_source>  (16) 
Heuristics

$$$$

     RDKit          3D

 17 15  0  0  0  0  0  0  0  0999 V2000
   -1.9632    0.9834    1.8091 S   0  0  0  0  0  0  0  0  0  0  0  0
   -1.3346   -0.0535    0.4523 C   0  0  0  0  0  0  0  0  0  0  0  0
   -2.4146   -0.2737   -0.5961 C   0  0  0  0  0  0  0  0  0  0  0  0
    1.9884   -0.3219    0.1058 C   0  0  0  0  0  0  0  0  0  0  0  0
    1.0089    0.5913   -0.5593 C   0  0  0  0  0  0  0  0  0  0  0  0
    3.3011   -0.1998   -0.1028 C   0  0  0  0  0  3  0  0  0  0  0  0
   -0.9991   -1.0308    0.8596 H   0  0  0  0  0  0  0  0  0  0  0  0
   -0.2765    0.5680   -0.1220 H   0  0  0  0  0  0  0  0  0  0  0  0
   -2.7479    0.7017   -1.0088 H   0  0  0  0  0  0  0  0  0  0  0  0
   -2.0060   -0.8908   -1.4233 H   0  0  0  0  0  0  0  0  0  0  0  0
   -3.2834   -0.8021   -0.1496 H   0  0  0  0  0  0  0  0  0  0  0  0
    1.6187   -1.0966    0.7697 H   0  0  0  0  0  0  0  0  0  0  0  0
    3.9944   -0.8735    0.3903 H   0  0  0  0  0  0  0  0  0  0  0  0
    3.6919    0.5686   -0.7633 H   0  0  0  0  0  0  0  0  0  0  0  0
    1.1972    1.6434   -0.2578 H   0  0  0  0  0  0  0  0  0  0  0  0
    1.0806    0.4946   -1.6633 H   0  0  0  0  0  0  0  0  0  0  0  0
   -2.8558   -0.0084    2.2596 H   0  0  0  0  0  0  0  0  0  0  0  0
  1  2  1  0
  1 17  1  0
  2  3  1  0
  2  7  1  0
  2  8  1  0
  3  9  1  0
  3 10  1  0
  3 11  1  0
  4  5  2  3
  4  6  1  0
  4 12  1  0
  5 15  1  0
  5 16  1  0
  6 13  1  0
  6 14  1  0
M  RAD  1   6   2
M  END
>  <reaction>  (17) 
rxn_1018

>  <mol_properties>  (17) 
{"1": {"label": "*3", "atom_type": "Cs"}, "2": {"label": "*4", "atom_type": "S2s"}, "9": {"label": "*0", "atom_type": "Cd"}, "10": {"label": "*1", "atom_type": "Cs"}, "14": {"label": "*2", "atom_type": "H0"}}

>  <type>  (17) 
unop_13

>  <geom_source>  (17) 
AutoTST

$$$$
