
     RDKit          3D

 10  9  0  0  0  0  0  0  0  0999 V2000
   -1.3430   -0.0068    0.1802 C   0  0  0  0  0  0  0  0  0  0  0  0
    0.0800   -0.1753   -0.3125 C   0  0  0  0  0  0  0  0  0  0  0  0
    0.4144    0.6817   -1.3880 O   0  0  0  0  0  0  0  0  0  0  0  0
    0.4868    2.0101   -0.8782 O   0  0  0  0  0  0  0  0  0  0  0  0
   -2.0531   -0.1437   -0.6372 H   0  0  0  0  0  0  0  0  0  0  0  0
   -1.5603   -0.7484    0.9509 H   0  0  0  0  0  0  0  0  0  0  0  0
   -1.4899    0.9815    0.6164 H   0  0  0  0  0  0  0  0  0  0  0  0
    0.2328   -1.1698   -0.7380 H   0  0  0  0  0  0  0  0  0  0  0  0
    0.8000   -0.0345    0.4993 H   0  0  0  0  0  0  0  0  0  0  0  0
   -0.2791    2.4184   -1.2952 H   0  0  0  0  0  0  0  0  0  0  0  0
  1  2  1  0
  1  5  1  0
  1  6  1  0
  1  7  1  0
  2  3  1  0
  2  8  1  0
  2  9  1  0
  3  4  1  0
  4 10  1  0
M  END
>  <reaction>  (1) 
rxn_452

>  <mol_properties>  (1) 
{"3": {"label": "donator", "atom_type": "O2s"}, "9": {"label": "d_hydrogen", "atom_type": "H0"}}

>  <type>  (1) 
r1h

$$$$

     RDKit          3D

  7  6  0  0  0  0  0  0  0  0999 V2000
   -0.6201    0.0189   -0.0017 C   0  0  0  0  0  0  0  0  0  0  0  0
    0.8589   -0.0553    0.0500 C   0  0  0  0  0  3  0  0  0  0  0  0
   -1.0738   -0.9730   -0.0559 H   0  0  0  0  0  0  0  0  0  0  0  0
   -0.9680    0.5706   -0.8872 H   0  0  0  0  0  0  0  0  0  0  0  0
   -1.0303    0.5369    0.8678 H   0  0  0  0  0  0  0  0  0  0  0  0
    1.3939   -0.8386   -0.4695 H   0  0  0  0  0  0  0  0  0  0  0  0
    1.4394    0.7404    0.4965 H   0  0  0  0  0  0  0  0  0  0  0  0
  1  2  1  0
  1  3  1  0
  1  4  1  0
  1  5  1  0
  2  6  1  0
  2  7  1  0
M  RAD  1   2   2
M  END
>  <reaction>  (2) 
rxn_452

>  <mol_properties>  (2) 
{"1": {"label": "acceptor", "atom_type": "Cs"}}

>  <type>  (2) 
r2

$$$$

     RDKit          3D

  8  7  0  0  0  0  0  0  0  0999 V2000
    0.7610    0.0250    0.0051 C   0  0  0  0  0  0  0  0  0  0  0  0
   -0.7610   -0.0250   -0.0051 C   0  0  0  0  0  0  0  0  0  0  0  0
    1.1904   -0.9237   -0.3217 H   0  0  0  0  0  0  0  0  0  0  0  0
    1.1359    0.8041   -0.6609 H   0  0  0  0  0  0  0  0  0  0  0  0
    1.1435    0.2336    1.0058 H   0  0  0  0  0  0  0  0  0  0  0  0
   -1.1435   -0.2336   -1.0058 H   0  0  0  0  0  0  0  0  0  0  0  0
   -1.1904    0.9237    0.3216 H   0  0  0  0  0  0  0  0  0  0  0  0
   -1.1359   -0.8041    0.6609 H   0  0  0  0  0  0  0  0  0  0  0  0
  1  2  1  0
  1  3  1  0
  1  4  1  0
  1  5  1  0
  2  6  1  0
  2  7  1  0
  2  8  1  0
M  END
>  <reaction>  (3) 
rxn_452

>  <mol_properties>  (3) 
{"0": {"label": "a_hydrogen", "atom_type": "H0"}, "2": {"label": "acceptor", "atom_type": "Cs"}}

>  <type>  (3) 
r2h

$$$$

     RDKit          3D

 17 15  0  0  0  0  0  0  0  0999 V2000
    0.0056   -1.7268   -0.9868 C   0  0  0  0  0  0  0  0  0  0  0  0
    0.2316   -1.7730    0.5102 C   0  0  0  0  0  0  0  0  0  0  0  0
    0.4372   -0.4947    1.0949 O   0  0  0  0  0  0  0  0  0  0  0  0
   -0.7471    0.2209    1.0630 O   0  0  0  0  0  0  0  0  0  0  0  0
    0.8297   -1.2182   -1.4897 H   0  0  0  0  0  0  0  0  0  0  0  0
   -0.0614   -2.7427   -1.3800 H   0  0  0  0  0  0  0  0  0  0  0  0
   -0.9252   -1.2119   -1.2232 H   0  0  0  0  0  0  0  0  0  0  0  0
    1.1520   -2.3086    0.7518 H   0  0  0  0  0  0  0  0  0  0  0  0
   -0.6019   -2.2651    1.0190 H   0  0  0  0  0  0  0  0  0  0  0  0
   -0.6533    0.9290    0.1530 H   0  0  0  0  0  0  0  0  0  0  0  0
    1.0366    2.0541   -0.8666 C   0  0  0  0  0  0  0  0  0  0  0  0
   -0.4367    1.7918   -0.8897 C   0  0  0  0  0  3  0  0  0  0  0  0
    1.3222    2.7254   -1.6848 H   0  0  0  0  0  0  0  0  0  0  0  0
    1.6073    1.1318   -0.9842 H   0  0  0  0  0  0  0  0  0  0  0  0
    1.3423    2.5221    0.0694 H   0  0  0  0  0  0  0  0  0  0  0  0
   -0.8130    1.2373   -1.7464 H   0  0  0  0  0  0  0  0  0  0  0  0
   -1.0783    2.6231   -0.6057 H   0  0  0  0  0  0  0  0  0  0  0  0
  1  2  1  0
  1  5  1  0
  1  6  1  0
  1  7  1  0
  2  3  1  0
  2  8  1  0
  2  9  1  0
  3  4  1  0
  4 10  1  0
 11 12  1  0
 11 13  1  0
 11 14  1  0
 11 15  1  0
 12 16  1  0
 12 17  1  0
M  RAD  1  12   2
M  END
>  <reaction>  (4) 
rxn_452

>  <mol_properties>  (4) 
{"2": {"label": "*0", "atom_type": "O2s"}, "3": {"label": "*1", "atom_type": "O2s"}, "9": {"label": "*2", "atom_type": "H0"}, "10": {"label": "*4", "atom_type": "Cs"}, "11": {"label": "*3", "atom_type": "Cs"}}

>  <type>  (4) 
ts

$$$$

     RDKit          3D

 17 15  0  0  0  0  0  0  0  0999 V2000
    0.5853   -1.7198   -0.7804 C   0  0  0  0  0  0  0  0  0  0  0  0
    0.5853   -1.7198    0.7349 C   0  0  0  0  0  0  0  0  0  0  0  0
    0.5853   -0.4237    1.3034 O   0  0  0  0  0  0  0  0  0  0  0  0
   -0.6919    0.1579    1.0579 O   0  0  0  0  0  0  0  0  0  0  0  0
    1.4297   -1.1460   -1.1662 H   0  0  0  0  0  0  0  0  0  0  0  0
    0.6671   -2.7426   -1.1525 H   0  0  0  0  0  0  0  0  0  0  0  0
   -0.3402   -1.2954   -1.1700 H   0  0  0  0  0  0  0  0  0  0  0  0
    1.5064   -2.1570    1.1273 H   0  0  0  0  0  0  0  0  0  0  0  0
   -0.2612   -2.2885    1.1315 H   0  0  0  0  0  0  0  0  0  0  0  0
   -0.4252    0.9911    0.3030 H   0  0  0  0  0  0  0  0  0  0  0  0
   -0.8567    1.7404   -1.8726 C   0  0  0  0  0  0  0  0  0  0  0  0
   -0.1228    1.9355   -0.5527 C   0  0  0  0  0  3  0  0  0  0  0  0
   -1.2025    2.6930   -2.2778 H   0  0  0  0  0  0  0  0  0  0  0  0
   -1.7299    1.0975   -1.7488 H   0  0  0  0  0  0  0  0  0  0  0  0
   -0.2099    1.2786   -2.6207 H   0  0  0  0  0  0  0  0  0  0  0  0
   -0.7697    2.3973    0.1954 H   0  0  0  0  0  0  0  0  0  0  0  0
    0.7504    2.5784   -0.6765 H   0  0  0  0  0  0  0  0  0  0  0  0
  1  2  1  0
  1  5  1  0
  1  6  1  0
  1  7  1  0
  2  3  1  0
  2  8  1  0
  2  9  1  0
  3  4  1  0
  4 10  1  0
 11 12  1  0
 11 13  1  0
 11 14  1  0
 11 15  1  0
 12 16  1  0
 12 17  1  0
M  RAD  1  12   2
M  END
>  <reaction>  (5) 
rxn_452

>  <mol_properties>  (5) 
{"2": {"label": "*0", "atom_type": "O2s"}, "3": {"label": "*1", "atom_type": "O2s"}, "9": {"label": "*2", "atom_type": "H0"}, "10": {"label": "*4", "atom_type": "Cs"}, "11": {"label": "*3", "atom_type": "Cs"}}

>  <type>  (5) 
unop_1

>  <geom_source>  (5) 
Heuristics

$$$$

     RDKit          3D

 17 15  0  0  0  0  0  0  0  0999 V2000
    0.2607   -1.6846   -0.8532 C   0  0  0  0  0  0  0  0  0  0  0  0
    0.2607   -1.6846    0.6621 C   0  0  0  0  0  0  0  0  0  0  0  0
    0.2607   -0.3885    1.2305 O   0  0  0  0  0  0  0  0  0  0  0  0
   -1.0165    0.1931    0.9850 O   0  0  0  0  0  0  0  0  0  0  0  0
    1.1051   -1.1108   -1.2391 H   0  0  0  0  0  0  0  0  0  0  0  0
    0.3424   -2.7073   -1.2254 H   0  0  0  0  0  0  0  0  0  0  0  0
   -0.6648   -1.2601   -1.2429 H   0  0  0  0  0  0  0  0  0  0  0  0
    1.1817   -2.1218    1.0545 H   0  0  0  0  0  0  0  0  0  0  0  0
   -0.5858   -2.2532    1.0587 H   0  0  0  0  0  0  0  0  0  0  0  0
   -0.7498    1.0264    0.2301 H   0  0  0  0  0  0  0  0  0  0  0  0
    0.7592    1.5849   -1.4705 C   0  0  0  0  0  0  0  0  0  0  0  0
   -0.4475    1.9707   -0.6255 C   0  0  0  0  0  3  0  0  0  0  0  0
    0.8229    2.1965   -2.3722 H   0  0  0  0  0  0  0  0  0  0  0  0
    0.7061    0.5404   -1.7828 H   0  0  0  0  0  0  0  0  0  0  0  0
    1.6896    1.7168   -0.9154 H   0  0  0  0  0  0  0  0  0  0  0  0
   -1.3779    1.8388   -1.1806 H   0  0  0  0  0  0  0  0  0  0  0  0
   -0.3944    3.0152   -0.3132 H   0  0  0  0  0  0  0  0  0  0  0  0
  1  2  1  0
  1  5  1  0
  1  6  1  0
  1  7  1  0
  2  3  1  0
  2  8  1  0
  2  9  1  0
  3  4  1  0
  4 10  1  0
 11 12  1  0
 11 13  1  0
 11 14  1  0
 11 15  1  0
 12 16  1  0
 12 17  1  0
M  RAD  1  12   2
M  END
>  <reaction>  (6) 
rxn_452

>  <mol_properties>  (6) 
{"2": {"label": "*0", "atom_type": "O2s"}, "3": {"label": "*1", "atom_type": "O2s"}, "9": {"label": "*2", "atom_type": "H0"}, "10": {"label": "*4", "atom_type": "Cs"}, "11": {"label": "*3", "atom_type": "Cs"}}

>  <type>  (6) 
unop_2

>  <geom_source>  (6) 
Heuristics

$$$$

     RDKit          3D

 17 15  0  0  0  0  0  0  0  0999 V2000
    0.6514   -1.7985   -0.8422 C   0  0  0  0  0  0  0  0  0  0  0  0
    0.6514   -1.7985    0.6731 C   0  0  0  0  0  0  0  0  0  0  0  0
    0.6514   -0.5024    1.2416 O   0  0  0  0  0  0  0  0  0  0  0  0
   -0.6258    0.0792    0.9961 O   0  0  0  0  0  0  0  0  0  0  0  0
    1.4957   -1.2247   -1.2280 H   0  0  0  0  0  0  0  0  0  0  0  0
    0.7331   -2.8213   -1.2143 H   0  0  0  0  0  0  0  0  0  0  0  0
   -0.2741   -1.3741   -1.2318 H   0  0  0  0  0  0  0  0  0  0  0  0
    1.5724   -2.2357    1.0655 H   0  0  0  0  0  0  0  0  0  0  0  0
   -0.1951   -2.3672    1.0697 H   0  0  0  0  0  0  0  0  0  0  0  0
   -0.3591    0.9124    0.2412 H   0  0  0  0  0  0  0  0  0  0  0  0
   -1.2148    2.1333   -1.5639 C   0  0  0  0  0  0  0  0  0  0  0  0
   -0.0568    1.8568   -0.6145 C   0  0  0  0  0  3  0  0  0  0  0  0
   -1.2061    3.1691   -1.9078 H   0  0  0  0  0  0  0  0  0  0  0  0
   -2.1759    1.9543   -1.0786 H   0  0  0  0  0  0  0  0  0  0  0  0
   -1.1655    1.4920   -2.4457 H   0  0  0  0  0  0  0  0  0  0  0  0
   -0.1061    2.4980    0.2673 H   0  0  0  0  0  0  0  0  0  0  0  0
    0.9043    2.0357   -1.0998 H   0  0  0  0  0  0  0  0  0  0  0  0
  1  2  1  0
  1  5  1  0
  1  6  1  0
  1  7  1  0
  2  3  1  0
  2  8  1  0
  2  9  1  0
  3  4  1  0
  4 10  1  0
 11 12  1  0
 11 13  1  0
 11 14  1  0
 11 15  1  0
 12 16  1  0
 12 17  1  0
M  RAD  1  12   2
M  END
>  <reaction>  (7) 
rxn_452

>  <mol_properties>  (7) 
{"2": {"label": "*0", "atom_type": "O2s"}, "3": {"label": "*1", "atom_type": "O2s"}, "9": {"label": "*2", "atom_type": "H0"}, "10": {"label": "*4", "atom_type": "Cs"}, "11": {"label": "*3", "atom_type": "Cs"}}

>  <type>  (7) 
unop_3

>  <geom_source>  (7) 
Heuristics

$$$$

     RDKit          3D

 17 15  0  0  0  0  0  0  0  0999 V2000
    0.2990   -1.9161   -1.0968 C   0  0  0  0  0  0  0  0  0  0  0  0
    0.2990   -1.9161    0.4184 C   0  0  0  0  0  0  0  0  0  0  0  0
    0.2990   -0.6200    0.9869 O   0  0  0  0  0  0  0  0  0  0  0  0
   -0.9782   -0.0384    0.7414 O   0  0  0  0  0  0  0  0  0  0  0  0
    1.1434   -1.3423   -1.4827 H   0  0  0  0  0  0  0  0  0  0  0  0
    0.3808   -2.9389   -1.4690 H   0  0  0  0  0  0  0  0  0  0  0  0
   -0.6264   -1.4917   -1.4865 H   0  0  0  0  0  0  0  0  0  0  0  0
    1.2201   -2.3533    0.8108 H   0  0  0  0  0  0  0  0  0  0  0  0
   -0.5474   -2.4848    0.8150 H   0  0  0  0  0  0  0  0  0  0  0  0
   -0.7114    0.7948   -0.0135 H   0  0  0  0  0  0  0  0  0  0  0  0
    0.5797    2.7307   -0.2708 C   0  0  0  0  0  0  0  0  0  0  0  0
   -0.4091    1.7392   -0.8692 C   0  0  0  0  0  3  0  0  0  0  0  0
    0.4259    3.7341   -0.6719 H   0  0  0  0  0  0  0  0  0  0  0  0
    1.6097    2.4425   -0.4880 H   0  0  0  0  0  0  0  0  0  0  0  0
    0.4746    2.7888    0.8140 H   0  0  0  0  0  0  0  0  0  0  0  0
   -0.3040    1.6811   -1.9540 H   0  0  0  0  0  0  0  0  0  0  0  0
   -1.4392    2.0274   -0.6520 H   0  0  0  0  0  0  0  0  0  0  0  0
  1  2  1  0
  1  5  1  0
  1  6  1  0
  1  7  1  0
  2  3  1  0
  2  8  1  0
  2  9  1  0
  3  4  1  0
  4 10  1  0
 11 12  1  0
 11 13  1  0
 11 14  1  0
 11 15  1  0
 12 16  1  0
 12 17  1  0
M  RAD  1  12   2
M  END
>  <reaction>  (8) 
rxn_452

>  <mol_properties>  (8) 
{"2": {"label": "*0", "atom_type": "O2s"}, "3": {"label": "*1", "atom_type": "O2s"}, "9": {"label": "*2", "atom_type": "H0"}, "10": {"label": "*4", "atom_type": "Cs"}, "11": {"label": "*3", "atom_type": "Cs"}}

>  <type>  (8) 
unop_4

>  <geom_source>  (8) 
Heuristics

$$$$

     RDKit          3D

 17 15  0  0  0  0  0  0  0  0999 V2000
    0.6618   -1.8790   -0.9252 C   0  0  0  0  0  0  0  0  0  0  0  0
    0.6618   -1.8790    0.5901 C   0  0  0  0  0  0  0  0  0  0  0  0
    0.6618   -0.5828    1.1585 O   0  0  0  0  0  0  0  0  0  0  0  0
   -0.6154   -0.0012    0.9130 O   0  0  0  0  0  0  0  0  0  0  0  0
    1.5062   -1.3051   -1.3111 H   0  0  0  0  0  0  0  0  0  0  0  0
    0.7436   -2.9017   -1.2974 H   0  0  0  0  0  0  0  0  0  0  0  0
   -0.2636   -1.4545   -1.3149 H   0  0  0  0  0  0  0  0  0  0  0  0
    1.5829   -2.3161    0.9825 H   0  0  0  0  0  0  0  0  0  0  0  0
   -0.1846   -2.4476    0.9867 H   0  0  0  0  0  0  0  0  0  0  0  0
   -0.3486    0.8320    0.1581 H   0  0  0  0  0  0  0  0  0  0  0  0
   -1.2841    2.5570   -1.1187 C   0  0  0  0  0  0  0  0  0  0  0  0
   -0.0463    1.7764   -0.6975 C   0  0  0  0  0  3  0  0  0  0  0  0
   -1.0322    3.3440   -1.8317 H   0  0  0  0  0  0  0  0  0  0  0  0
   -1.7647    3.0302   -0.2605 H   0  0  0  0  0  0  0  0  0  0  0  0
   -2.0208    1.9056   -1.5922 H   0  0  0  0  0  0  0  0  0  0  0  0
    0.6904    2.4277   -0.2240 H   0  0  0  0  0  0  0  0  0  0  0  0
    0.4342    1.3032   -1.5557 H   0  0  0  0  0  0  0  0  0  0  0  0
  1  2  1  0
  1  5  1  0
  1  6  1  0
  1  7  1  0
  2  3  1  0
  2  8  1  0
  2  9  1  0
  3  4  1  0
  4 10  1  0
 11 12  1  0
 11 13  1  0
 11 14  1  0
 11 15  1  0
 12 16  1  0
 12 17  1  0
M  RAD  1  12   2
M  END
>  <reaction>  (9) 
rxn_452

>  <mol_properties>  (9) 
{"2": {"label": "*0", "atom_type": "O2s"}, "3": {"label": "*1", "atom_type": "O2s"}, "9": {"label": "*2", "atom_type": "H0"}, "10": {"label": "*4", "atom_type": "Cs"}, "11": {"label": "*3", "atom_type": "Cs"}}

>  <type>  (9) 
unop_5

>  <geom_source>  (9) 
Heuristics

$$$$

     RDKit          3D

 17 15  0  0  0  0  0  0  0  0999 V2000
    0.4099   -1.9661   -1.1141 C   0  0  0  0  0  0  0  0  0  0  0  0
    0.4099   -1.9661    0.4012 C   0  0  0  0  0  0  0  0  0  0  0  0
    0.4099   -0.6700    0.9697 O   0  0  0  0  0  0  0  0  0  0  0  0
   -0.8673   -0.0884    0.7242 O   0  0  0  0  0  0  0  0  0  0  0  0
    1.2542   -1.3923   -1.4999 H   0  0  0  0  0  0  0  0  0  0  0  0
    0.4916   -2.9888   -1.4862 H   0  0  0  0  0  0  0  0  0  0  0  0
   -0.5156   -1.5416   -1.5037 H   0  0  0  0  0  0  0  0  0  0  0  0
    1.3309   -2.4033    0.7936 H   0  0  0  0  0  0  0  0  0  0  0  0
   -0.4366   -2.5347    0.7978 H   0  0  0  0  0  0  0  0  0  0  0  0
   -0.6006    0.7448   -0.0308 H   0  0  0  0  0  0  0  0  0  0  0  0
    0.0355    2.9933   -0.1745 C   0  0  0  0  0  0  0  0  0  0  0  0
   -0.2983    1.6892   -0.8864 C   0  0  0  0  0  3  0  0  0  0  0  0
   -0.3701    3.8525   -0.7115 H   0  0  0  0  0  0  0  0  0  0  0  0
    1.1147    3.1345   -0.0924 H   0  0  0  0  0  0  0  0  0  0  0  0
   -0.3777    3.0099    0.8356 H   0  0  0  0  0  0  0  0  0  0  0  0
    0.1149    1.6726   -1.8964 H   0  0  0  0  0  0  0  0  0  0  0  0
   -1.3774    1.5481   -0.9685 H   0  0  0  0  0  0  0  0  0  0  0  0
  1  2  1  0
  1  5  1  0
  1  6  1  0
  1  7  1  0
  2  3  1  0
  2  8  1  0
  2  9  1  0
  3  4  1  0
  4 10  1  0
 11 12  1  0
 11 13  1  0
 11 14  1  0
 11 15  1  0
 12 16  1  0
 12 17  1  0
M  RAD  1  12   2
M  END
>  <reaction>  (10) 
rxn_452

>  <mol_properties>  (10) 
{"2": {"label": "*0", "atom_type": "O2s"}, "3": {"label": "*1", "atom_type": "O2s"}, "9": {"label": "*2", "atom_type": "H0"}, "10": {"label": "*4", "atom_type": "Cs"}, "11": {"label": "*3", "atom_type": "Cs"}}

>  <type>  (10) 
unop_6

>  <geom_source>  (10) 
Heuristics

$$$$

     RDKit          3D

 17 15  0  0  0  0  0  0  0  0999 V2000
    0.5272   -1.9751   -1.0826 C   0  0  0  0  0  0  0  0  0  0  0  0
    0.5272   -1.9751    0.4326 C   0  0  0  0  0  0  0  0  0  0  0  0
    0.5272   -0.6790    1.0011 O   0  0  0  0  0  0  0  0  0  0  0  0
   -0.7500   -0.0974    0.7556 O   0  0  0  0  0  0  0  0  0  0  0  0
    1.3715   -1.4013   -1.4685 H   0  0  0  0  0  0  0  0  0  0  0  0
    0.6089   -2.9978   -1.4548 H   0  0  0  0  0  0  0  0  0  0  0  0
   -0.3983   -1.5506   -1.4723 H   0  0  0  0  0  0  0  0  0  0  0  0
    1.4482   -2.4123    0.8251 H   0  0  0  0  0  0  0  0  0  0  0  0
   -0.3193   -2.5437    0.8292 H   0  0  0  0  0  0  0  0  0  0  0  0
   -0.4833    0.7358    0.0007 H   0  0  0  0  0  0  0  0  0  0  0  0
   -0.5574    3.0541   -0.3169 C   0  0  0  0  0  0  0  0  0  0  0  0
   -0.1810    1.6802   -0.8550 C   0  0  0  0  0  3  0  0  0  0  0  0
   -0.9765    3.6856   -1.1023 H   0  0  0  0  0  0  0  0  0  0  0  0
    0.3122    3.5705    0.0933 H   0  0  0  0  0  0  0  0  0  0  0  0
   -1.3016    2.9778    0.4778 H   0  0  0  0  0  0  0  0  0  0  0  0
    0.5632    1.7566   -1.6497 H   0  0  0  0  0  0  0  0  0  0  0  0
   -1.0506    1.1639   -1.2652 H   0  0  0  0  0  0  0  0  0  0  0  0
  1  2  1  0
  1  5  1  0
  1  6  1  0
  1  7  1  0
  2  3  1  0
  2  8  1  0
  2  9  1  0
  3  4  1  0
  4 10  1  0
 11 12  1  0
 11 13  1  0
 11 14  1  0
 11 15  1  0
 12 16  1  0
 12 17  1  0
M  RAD  1  12   2
M  END
>  <reaction>  (11) 
rxn_452

>  <mol_properties>  (11) 
{"2": {"label": "*0", "atom_type": "O2s"}, "3": {"label": "*1", "atom_type": "O2s"}, "9": {"label": "*2", "atom_type": "H0"}, "10": {"label": "*4", "atom_type": "Cs"}, "11": {"label": "*3", "atom_type": "Cs"}}

>  <type>  (11) 
unop_7

>  <geom_source>  (11) 
Heuristics

$$$$

     RDKit          3D

 17 15  0  0  0  0  0  0  0  0999 V2000
    0.4782   -1.6661   -0.7588 C   0  0  0  0  0  0  0  0  0  0  0  0
    0.4782   -1.6661    0.7565 C   0  0  0  0  0  0  0  0  0  0  0  0
    0.4782   -0.3700    1.3249 O   0  0  0  0  0  0  0  0  0  0  0  0
   -0.7990    0.2117    1.0795 O   0  0  0  0  0  0  0  0  0  0  0  0
    1.3226   -1.0922   -1.1446 H   0  0  0  0  0  0  0  0  0  0  0  0
    0.5600   -2.6888   -1.1309 H   0  0  0  0  0  0  0  0  0  0  0  0
   -0.4473   -1.2416   -1.1484 H   0  0  0  0  0  0  0  0  0  0  0  0
    1.3993   -2.1032    1.1489 H   0  0  0  0  0  0  0  0  0  0  0  0
   -0.3683   -2.2347    1.1531 H   0  0  0  0  0  0  0  0  0  0  0  0
   -0.5323    1.0449    0.3245 H   0  0  0  0  0  0  0  0  0  0  0  0
   -0.3088    1.4816   -1.9646 C   0  0  0  0  0  0  0  0  0  0  0  0
   -0.2300    1.9892   -0.5311 C   0  0  0  0  0  3  0  0  0  0  0  0
   -0.7387    2.2342   -2.6280 H   0  0  0  0  0  0  0  0  0  0  0  0
   -0.9296    0.5867   -2.0340 H   0  0  0  0  0  0  0  0  0  0  0  0
    0.6805    1.2282   -2.3498 H   0  0  0  0  0  0  0  0  0  0  0  0
   -1.2192    2.2427   -0.1459 H   0  0  0  0  0  0  0  0  0  0  0  0
    0.3909    2.8842   -0.4617 H   0  0  0  0  0  0  0  0  0  0  0  0
  1  2  1  0
  1  5  1  0
  1  6  1  0
  1  7  1  0
  2  3  1  0
  2  8  1  0
  2  9  1  0
  3  4  1  0
  4 10  1  0
 11 12  1  0
 11 13  1  0
 11 14  1  0
 11 15  1  0
 12 16  1  0
 12 17  1  0
M  RAD  1  12   2
M  END
>  <reaction>  (12) 
rxn_452

>  <mol_properties>  (12) 
{"2": {"label": "*0", "atom_type": "O2s"}, "3": {"label": "*1", "atom_type": "O2s"}, "9": {"label": "*2", "atom_type": "H0"}, "10": {"label": "*4", "atom_type": "Cs"}, "11": {"label": "*3", "atom_type": "Cs"}}

>  <type>  (12) 
unop_8

>  <geom_source>  (12) 
Heuristics

$$$$

     RDKit          3D

 17 15  0  0  0  0  0  0  0  0999 V2000
    0.2258   -1.8380   -1.0349 C   0  0  0  0  0  0  0  0  0  0  0  0
    0.2258   -1.8380    0.4804 C   0  0  0  0  0  0  0  0  0  0  0  0
    0.2258   -0.5419    1.0488 O   0  0  0  0  0  0  0  0  0  0  0  0
   -1.0515    0.0397    0.8033 O   0  0  0  0  0  0  0  0  0  0  0  0
    1.0701   -1.2642   -1.4208 H   0  0  0  0  0  0  0  0  0  0  0  0
    0.3075   -2.8607   -1.4071 H   0  0  0  0  0  0  0  0  0  0  0  0
   -0.6997   -1.4135   -1.4245 H   0  0  0  0  0  0  0  0  0  0  0  0
    1.1468   -2.2752    0.8728 H   0  0  0  0  0  0  0  0  0  0  0  0
   -0.6207   -2.4066    0.8770 H   0  0  0  0  0  0  0  0  0  0  0  0
   -0.7847    0.8729    0.0484 H   0  0  0  0  0  0  0  0  0  0  0  0
    0.9306    2.3373   -0.5794 C   0  0  0  0  0  0  0  0  0  0  0  0
   -0.4824    1.8173   -0.8072 C   0  0  0  0  0  3  0  0  0  0  0  0
    1.0763    3.3089   -1.0549 H   0  0  0  0  0  0  0  0  0  0  0  0
    1.6752    1.6533   -0.9905 H   0  0  0  0  0  0  0  0  0  0  0  0
    1.1423    2.4552    0.4848 H   0  0  0  0  0  0  0  0  0  0  0  0
   -0.6941    1.6994   -1.8714 H   0  0  0  0  0  0  0  0  0  0  0  0
   -1.2270    2.5013   -0.3961 H   0  0  0  0  0  0  0  0  0  0  0  0
  1  2  1  0
  1  5  1  0
  1  6  1  0
  1  7  1  0
  2  3  1  0
  2  8  1  0
  2  9  1  0
  3  4  1  0
  4 10  1  0
 11 12  1  0
 11 13  1  0
 11 14  1  0
 11 15  1  0
 12 16  1  0
 12 17  1  0
M  RAD  1  12   2
M  END
>  <reaction>  (13) 
rxn_452

>  <mol_properties>  (13) 
{"2": {"label": "*0", "atom_type": "O2s"}, "3": {"label": "*1", "atom_type": "O2s"}, "9": {"label": "*2", "atom_type": "H0"}, "10": {"label": "*4", "atom_type": "Cs"}, "11": {"label": "*3", "atom_type": "Cs"}}

>  <type>  (13) 
unop_9

>  <geom_source>  (13) 
Heuristics

$$$$

     RDKit          3D

 17 15  0  0  0  0  0  0  0  0999 V2000
    0.3590   -1.6529   -0.7851 C   0  0  0  0  0  0  0  0  0  0  0  0
    0.3590   -1.6529    0.7302 C   0  0  0  0  0  0  0  0  0  0  0  0
    0.3590   -0.3568    1.2986 O   0  0  0  0  0  0  0  0  0  0  0  0
   -0.9182    0.2249    1.0531 O   0  0  0  0  0  0  0  0  0  0  0  0
    1.2034   -1.0790   -1.1710 H   0  0  0  0  0  0  0  0  0  0  0  0
    0.4407   -2.6756   -1.1573 H   0  0  0  0  0  0  0  0  0  0  0  0
   -0.5665   -1.2284   -1.1747 H   0  0  0  0  0  0  0  0  0  0  0  0
    1.2800   -2.0900    1.1226 H   0  0  0  0  0  0  0  0  0  0  0  0
   -0.4875   -2.2215    1.1268 H   0  0  0  0  0  0  0  0  0  0  0  0
   -0.6515    1.0581    0.2982 H   0  0  0  0  0  0  0  0  0  0  0  0
    0.2823    1.4250   -1.8171 C   0  0  0  0  0  0  0  0  0  0  0  0
   -0.3492    2.0024   -0.5574 C   0  0  0  0  0  3  0  0  0  0  0  0
    0.0369    2.0262   -2.6942 H   0  0  0  0  0  0  0  0  0  0  0  0
   -0.0676    0.4084   -2.0049 H   0  0  0  0  0  0  0  0  0  0  0  0
    1.3700    1.3900   -1.7343 H   0  0  0  0  0  0  0  0  0  0  0  0
   -1.4369    2.0374   -0.6402 H   0  0  0  0  0  0  0  0  0  0  0  0
    0.0007    3.0190   -0.3695 H   0  0  0  0  0  0  0  0  0  0  0  0
  1  2  1  0
  1  5  1  0
  1  6  1  0
  1  7  1  0
  2  3  1  0
  2  8  1  0
  2  9  1  0
  3  4  1  0
  4 10  1  0
 11 12  1  0
 11 13  1  0
 11 14  1  0
 11 15  1  0
 12 16  1  0
 12 17  1  0
M  RAD  1  12   2
M  END
>  <reaction>  (14) 
rxn_452

>  <mol_properties>  (14) 
{"2": {"label": "*0", "atom_type": "O2s"}, "3": {"label": "*1", "atom_type": "O2s"}, "9": {"label": "*2", "atom_type": "H0"}, "10": {"label": "*4", "atom_type": "Cs"}, "11": {"label": "*3", "atom_type": "Cs"}}

>  <type>  (14) 
unop_10

>  <geom_source>  (14) 
Heuristics

$$$$

     RDKit          3D

 17 15  0  0  0  0  0  0  0  0999 V2000
    0.6186   -1.9423   -1.0124 C   0  0  0  0  0  0  0  0  0  0  0  0
    0.6186   -1.9423    0.5029 C   0  0  0  0  0  0  0  0  0  0  0  0
    0.6186   -0.6462    1.0713 O   0  0  0  0  0  0  0  0  0  0  0  0
   -0.6586   -0.0645    0.8258 O   0  0  0  0  0  0  0  0  0  0  0  0
    1.4630   -1.3684   -1.3983 H   0  0  0  0  0  0  0  0  0  0  0  0
    0.7004   -2.9650   -1.3846 H   0  0  0  0  0  0  0  0  0  0  0  0
   -0.3069   -1.5178   -1.4020 H   0  0  0  0  0  0  0  0  0  0  0  0
    1.5397   -2.3795    0.8953 H   0  0  0  0  0  0  0  0  0  0  0  0
   -0.2279   -2.5109    0.8995 H   0  0  0  0  0  0  0  0  0  0  0  0
   -0.3918    0.7687    0.0709 H   0  0  0  0  0  0  0  0  0  0  0  0
   -1.0412    2.8954   -0.6614 C   0  0  0  0  0  0  0  0  0  0  0  0
   -0.0895    1.7130   -0.7847 C   0  0  0  0  0  3  0  0  0  0  0  0
   -1.1496    3.4173   -1.6138 H   0  0  0  0  0  0  0  0  0  0  0  0
   -0.6812    3.6185    0.0725 H   0  0  0  0  0  0  0  0  0  0  0  0
   -2.0352    2.5723   -0.3468 H   0  0  0  0  0  0  0  0  0  0  0  0
    0.9044    2.0361   -1.0993 H   0  0  0  0  0  0  0  0  0  0  0  0
   -0.4496    0.9899   -1.5186 H   0  0  0  0  0  0  0  0  0  0  0  0
  1  2  1  0
  1  5  1  0
  1  6  1  0
  1  7  1  0
  2  3  1  0
  2  8  1  0
  2  9  1  0
  3  4  1  0
  4 10  1  0
 11 12  1  0
 11 13  1  0
 11 14  1  0
 11 15  1  0
 12 16  1  0
 12 17  1  0
M  RAD  1  12   2
M  END
>  <reaction>  (15) 
rxn_452

>  <mol_properties>  (15) 
{"2": {"label": "*0", "atom_type": "O2s"}, "3": {"label": "*1", "atom_type": "O2s"}, "9": {"label": "*2", "atom_type": "H0"}, "10": {"label": "*4", "atom_type": "Cs"}, "11": {"label": "*3", "atom_type": "Cs"}}

>  <type>  (15) 
unop_11

>  <geom_source>  (15) 
Heuristics

$$$$

     RDKit          3D

 17 15  0  0  0  0  0  0  0  0999 V2000
    0.2114   -1.7528   -0.9451 C   0  0  0  0  0  0  0  0  0  0  0  0
    0.2114   -1.7528    0.5702 C   0  0  0  0  0  0  0  0  0  0  0  0
    0.2114   -0.4567    1.1386 O   0  0  0  0  0  0  0  0  0  0  0  0
   -1.0658    0.1249    0.8931 O   0  0  0  0  0  0  0  0  0  0  0  0
    1.0558   -1.1790   -1.3310 H   0  0  0  0  0  0  0  0  0  0  0  0
    0.2932   -2.7755   -1.3173 H   0  0  0  0  0  0  0  0  0  0  0  0
   -0.7141   -1.3283   -1.3348 H   0  0  0  0  0  0  0  0  0  0  0  0
    1.1325   -2.1900    0.9626 H   0  0  0  0  0  0  0  0  0  0  0  0
   -0.6351   -2.3214    0.9668 H   0  0  0  0  0  0  0  0  0  0  0  0
   -0.7991    0.9581    0.1382 H   0  0  0  0  0  0  0  0  0  0  0  0
    0.9960    1.9184   -1.0179 C   0  0  0  0  0  0  0  0  0  0  0  0
   -0.4967    1.9025   -0.7174 C   0  0  0  0  0  3  0  0  0  0  0  0
    1.2479    2.7053   -1.7310 H   0  0  0  0  0  0  0  0  0  0  0  0
    1.3240    0.9688   -1.4444 H   0  0  0  0  0  0  0  0  0  0  0  0
    1.5802    2.0933   -0.1128 H   0  0  0  0  0  0  0  0  0  0  0  0
   -1.0809    1.7276   -1.6226 H   0  0  0  0  0  0  0  0  0  0  0  0
   -0.8248    2.8521   -0.2909 H   0  0  0  0  0  0  0  0  0  0  0  0
  1  2  1  0
  1  5  1  0
  1  6  1  0
  1  7  1  0
  2  3  1  0
  2  8  1  0
  2  9  1  0
  3  4  1  0
  4 10  1  0
 11 12  1  0
 11 13  1  0
 11 14  1  0
 11 15  1  0
 12 16  1  0
 12 17  1  0
M  RAD  1  12   2
M  END
>  <reaction>  (16) 
rxn_452

>  <mol_properties>  (16) 
{"2": {"label": "*0", "atom_type": "O2s"}, "3": {"label": "*1", "atom_type": "O2s"}, "9": {"label": "*2", "atom_type": "H0"}, "10": {"label": "*4", "atom_type": "Cs"}, "11": {"label": "*3", "atom_type": "Cs"}}

>  <type>  (16) 
unop_12

>  <geom_source>  (16) 
Heuristics

$$$$

     RDKit          3D

 17 15  0  0  0  0  0  0  0  0999 V2000
   -1.3272   -1.2826    0.6276 O   0  0  0  0  0  0  0  0  0  0  0  0
   -0.1860   -0.7814    0.1928 O   0  0  0  0  0  1  0  0  0  0  0  0
   -2.3028   -0.9302   -0.3211 C   0  0  0  0  0  0  0  0  0  0  0  0
   -2.7823    0.4998   -0.0936 C   0  0  0  0  0  0  0  0  0  0  0  0
    2.0615    0.0312    0.6586 C   0  0  0  0  0  0  0  0  0  0  0  0
    3.0486    0.6207   -0.3341 C   0  0  0  0  0  0  0  0  0  0  0  0
   -3.1686   -1.6154   -0.2022 H   0  0  0  0  0  0  0  0  0  0  0  0
   -1.9282   -1.0515   -1.3642 H   0  0  0  0  0  0  0  0  0  0  0  0
    2.5166   -0.8448    1.1671 H   0  0  0  0  0  0  0  0  0  0  0  0
    1.7916    0.7938    1.4192 H   0  0  0  0  0  0  0  0  0  0  0  0
    1.1114   -0.3046    0.1085 H   0  0  0  0  0  0  0  0  0  0  0  0
    2.5929    1.4962   -0.8425 H   0  0  0  0  0  0  0  0  0  0  0  0
    3.9680    0.9458    0.1969 H   0  0  0  0  0  0  0  0  0  0  0  0
    3.3178   -0.1422   -1.0946 H   0  0  0  0  0  0  0  0  0  0  0  0
   -3.5936    0.7407   -0.8125 H   0  0  0  0  0  0  0  0  0  0  0  0
   -3.1733    0.6098    0.9401 H   0  0  0  0  0  0  0  0  0  0  0  0
   -1.9464    1.2147   -0.2460 H   0  0  0  0  0  0  0  0  0  0  0  0
  1  3  1  0
  1  2  1  0
  3  4  1  0
  3  7  1  0
  3  8  1  0
  4 15  1  0
  4 16  1  0
  4 17  1  0
  5  6  1  0
  5  9  1  0
  5 10  1  0
  5 11  1  0
  6 12  1  0
  6 13  1  0
  6 14  1  0
M  RAD  1   2   2
M  END
>  <reaction>  (17) 
rxn_452

>  <mol_properties>  (17) 
{"2": {"label": "*0", "atom_type": "O2s"}, "3": {"label": "*1", "atom_type": "O2s"}, "9": {"label": "*2", "atom_type": "H0"}, "10": {"label": "*4", "atom_type": "Cs"}, "11": {"label": "*3", "atom_type": "Cs"}}

>  <type>  (17) 
unop_13

>  <geom_source>  (17) 
AutoTST

$$$$
