
     RDKit          3D

 16 15  0  0  0  0  0  0  0  0999 V2000
    1.7961   -0.3807    1.6176 C   0  0  0  0  0  0  0  0  0  0  0  0
    0.8562   -0.8708    0.8256 C   0  0  0  0  0  0  0  0  0  0  0  0
    0.0895   -0.0826   -0.2048 C   0  0  0  0  0  0  0  0  0  0  0  0
   -1.4061   -0.1111    0.0982 C   0  0  0  0  0  0  0  0  0  0  0  0
    0.4476   -0.5902   -1.5797 C   0  0  0  0  0  0  0  0  0  0  0  0
   -0.3793   -1.1113   -2.4728 C   0  0  0  0  0  0  0  0  0  0  0  0
    2.3110   -1.0032    2.3386 H   0  0  0  0  0  0  0  0  0  0  0  0
    2.0846    0.6643    1.5737 H   0  0  0  0  0  0  0  0  0  0  0  0
    0.5921   -1.9241    0.8925 H   0  0  0  0  0  0  0  0  0  0  0  0
    0.4358    0.9557   -0.1462 H   0  0  0  0  0  0  0  0  0  0  0  0
   -1.5968    0.3080    1.0865 H   0  0  0  0  0  0  0  0  0  0  0  0
   -1.9674    0.4693   -0.6359 H   0  0  0  0  0  0  0  0  0  0  0  0
   -1.7902   -1.1338    0.0883 H   0  0  0  0  0  0  0  0  0  0  0  0
    1.5049   -0.5197   -1.8214 H   0  0  0  0  0  0  0  0  0  0  0  0
   -1.4421   -1.2131   -2.2889 H   0  0  0  0  0  0  0  0  0  0  0  0
   -0.0162   -1.4558   -3.4328 H   0  0  0  0  0  0  0  0  0  0  0  0
  1  2  2  3
  1  7  1  0
  1  8  1  0
  2  3  1  0
  2  9  1  0
  3  4  1  0
  3  5  1  0
  3 10  1  0
  4 11  1  0
  4 12  1  0
  4 13  1  0
  5  6  2  3
  5 14  1  0
  6 15  1  0
  6 16  1  0
M  END
>  <reaction>  (1) 
rxn_1176

>  <mol_properties>  (1) 
{"2": {"label": "donator", "atom_type": "Cs"}, "9": {"label": "d_hydrogen", "atom_type": "H0"}}

>  <type>  (1) 
r1h

$$$$

     RDKit          3D

 14 13  0  0  0  0  0  0  0  0999 V2000
    1.0767   -1.6838    1.2931 C   0  0  0  0  0  0  0  0  0  0  0  0
    1.0020   -0.3665    0.9163 C   0  0  0  0  0  0  0  0  0  0  0  0
    1.3965    0.7260    1.6806 C   0  0  0  0  0  3  0  0  0  0  0  0
    1.2666    2.1197    1.1619 C   0  0  0  0  0  0  0  0  0  0  0  0
    1.9670    0.5479    3.0536 C   0  0  0  0  0  0  0  0  0  0  0  0
    0.7448   -2.4705    0.6300 H   0  0  0  0  0  0  0  0  0  0  0  0
    1.4663   -1.9826    2.2578 H   0  0  0  0  0  0  0  0  0  0  0  0
    0.5980   -0.1511   -0.0695 H   0  0  0  0  0  0  0  0  0  0  0  0
    0.6296    2.7241    1.8172 H   0  0  0  0  0  0  0  0  0  0  0  0
    2.2410    2.6200    1.1341 H   0  0  0  0  0  0  0  0  0  0  0  0
    0.8426    2.1448    0.1579 H   0  0  0  0  0  0  0  0  0  0  0  0
    2.8745   -0.0634    3.0328 H   0  0  0  0  0  0  0  0  0  0  0  0
    1.2599    0.0408    3.7173 H   0  0  0  0  0  0  0  0  0  0  0  0
    2.2205    1.5071    3.5054 H   0  0  0  0  0  0  0  0  0  0  0  0
  1  2  2  3
  1  6  1  0
  1  7  1  0
  2  3  1  0
  2  8  1  0
  3  4  1  0
  3  5  1  0
  4  9  1  0
  4 10  1  0
  4 11  1  0
  5 12  1  0
  5 13  1  0
  5 14  1  0
M  RAD  1   3   2
M  END
>  <reaction>  (2) 
rxn_1176

>  <mol_properties>  (2) 
{"2": {"label": "acceptor", "atom_type": "Cs"}}

>  <type>  (2) 
r2

$$$$

     RDKit          3D

 15 14  0  0  0  0  0  0  0  0999 V2000
    2.1256    0.4849   -0.6284 C   0  0  0  0  0  0  0  0  0  0  0  0
    1.1128    0.2141    0.1794 C   0  0  0  0  0  0  0  0  0  0  0  0
   -0.3017   -0.0425   -0.2513 C   0  0  0  0  0  0  0  0  0  0  0  0
   -1.2427    1.0075    0.3423 C   0  0  0  0  0  0  0  0  0  0  0  0
   -0.7381   -1.4526    0.1504 C   0  0  0  0  0  0  0  0  0  0  0  0
    3.1243    0.6602   -0.2486 H   0  0  0  0  0  0  0  0  0  0  0  0
    1.9908    0.5411   -1.7036 H   0  0  0  0  0  0  0  0  0  0  0  0
    1.2888    0.1665    1.2533 H   0  0  0  0  0  0  0  0  0  0  0  0
   -0.3426    0.0343   -1.3424 H   0  0  0  0  0  0  0  0  0  0  0  0
   -0.9570    2.0133    0.0315 H   0  0  0  0  0  0  0  0  0  0  0  0
   -1.2189    0.9728    1.4350 H   0  0  0  0  0  0  0  0  0  0  0  0
   -2.2723    0.8287    0.0254 H   0  0  0  0  0  0  0  0  0  0  0  0
   -0.6964   -1.5744    1.2363 H   0  0  0  0  0  0  0  0  0  0  0  0
   -0.0911   -2.2079   -0.2978 H   0  0  0  0  0  0  0  0  0  0  0  0
   -1.7646   -1.6461   -0.1677 H   0  0  0  0  0  0  0  0  0  0  0  0
  1  2  2  3
  1  6  1  0
  1  7  1  0
  2  3  1  0
  2  8  1  0
  3  4  1  0
  3  5  1  0
  3  9  1  0
  4 10  1  0
  4 11  1  0
  4 12  1  0
  5 13  1  0
  5 14  1  0
  5 15  1  0
M  END
>  <reaction>  (3) 
rxn_1176

>  <mol_properties>  (3) 
{"0": {"label": "a_hydrogen", "atom_type": "H0"}, "3": {"label": "acceptor", "atom_type": "Cs"}}

>  <type>  (3) 
r2h

$$$$

     RDKit          3D

 30 28  0  0  0  0  0  0  0  0999 V2000
    0.1745   -2.8133   -1.3806 C   0  0  0  0  0  0  0  0  0  0  0  0
   -0.5864   -2.0630   -0.5844 C   0  0  0  0  0  0  0  0  0  0  0  0
   -0.1333   -1.1240    0.4548 C   0  0  0  0  0  0  0  0  0  0  0  0
    1.3273   -1.1582    0.8379 C   0  0  0  0  0  0  0  0  0  0  0  0
   -1.1040   -0.9165    1.5426 C   0  0  0  0  0  0  0  0  0  0  0  0
   -0.8394   -0.4793    2.7728 C   0  0  0  0  0  0  0  0  0  0  0  0
   -0.2727   -3.4524   -2.1306 H   0  0  0  0  0  0  0  0  0  0  0  0
    1.2546   -2.8293   -1.3075 H   0  0  0  0  0  0  0  0  0  0  0  0
   -1.6650   -2.1150   -0.7146 H   0  0  0  0  0  0  0  0  0  0  0  0
   -0.1956    0.0419   -0.1424 H   0  0  0  0  0  0  0  0  0  0  0  0
    1.9636   -1.1857   -0.0465 H   0  0  0  0  0  0  0  0  0  0  0  0
    1.5990   -0.2661    1.4030 H   0  0  0  0  0  0  0  0  0  0  0  0
    1.5521   -2.0365    1.4487 H   0  0  0  0  0  0  0  0  0  0  0  0
   -2.1419   -1.1029    1.2772 H   0  0  0  0  0  0  0  0  0  0  0  0
    0.1683   -0.2744    3.1115 H   0  0  0  0  0  0  0  0  0  0  0  0
   -1.6363   -0.3252    3.4885 H   0  0  0  0  0  0  0  0  0  0  0  0
    1.3861    2.7163    0.5008 C   0  0  0  0  0  0  0  0  0  0  0  0
    0.1749    2.1838    0.2889 C   0  0  0  0  0  0  0  0  0  0  0  0
   -0.2043    1.2810   -0.7833 C   0  0  0  0  0  3  0  0  0  0  0  0
    0.7673    1.0469   -1.9099 C   0  0  0  0  0  0  0  0  0  0  0  0
   -1.6574    1.3099   -1.1897 C   0  0  0  0  0  0  0  0  0  0  0  0
    1.5690    3.3550    1.3549 H   0  0  0  0  0  0  0  0  0  0  0  0
    2.2201    2.5436   -0.1680 H   0  0  0  0  0  0  0  0  0  0  0  0
   -0.6135    2.4112    1.0019 H   0  0  0  0  0  0  0  0  0  0  0  0
    0.4498    0.1963   -2.5152 H   0  0  0  0  0  0  0  0  0  0  0  0
    0.8255    1.9246   -2.5628 H   0  0  0  0  0  0  0  0  0  0  0  0
    1.7732    0.8385   -1.5436 H   0  0  0  0  0  0  0  0  0  0  0  0
   -1.8707    2.1780   -1.8221 H   0  0  0  0  0  0  0  0  0  0  0  0
   -2.3100    1.3645   -0.3160 H   0  0  0  0  0  0  0  0  0  0  0  0
   -1.9195    0.4151   -1.7593 H   0  0  0  0  0  0  0  0  0  0  0  0
  1  2  2  3
  1  7  1  0
  1  8  1  0
  2  3  1  0
  2  9  1  0
  3  4  1  0
  3  5  1  0
  3 10  1  0
  4 11  1  0
  4 12  1  0
  4 13  1  0
  5  6  2  3
  5 14  1  0
  6 15  1  0
  6 16  1  0
 17 18  2  3
 17 22  1  0
 17 23  1  0
 18 19  1  0
 18 24  1  0
 19 20  1  0
 19 21  1  0
 20 25  1  0
 20 26  1  0
 20 27  1  0
 21 28  1  0
 21 29  1  0
 21 30  1  0
M  RAD  1  19   2
M  END
>  <reaction>  (4) 
rxn_1176

>  <mol_properties>  (4) 
{"1": {"label": "*0", "atom_type": "Cd"}, "2": {"label": "*1", "atom_type": "Cs"}, "9": {"label": "*2", "atom_type": "H0"}, "17": {"label": "*4", "atom_type": "Cd"}, "18": {"label": "*3", "atom_type": "Cs"}}

>  <type>  (4) 
ts

$$$$

     RDKit          3D

 30 28  0  0  0  0  0  0  0  0999 V2000
    0.1784   -2.1864   -1.6139 C   0  0  0  0  0  0  0  0  0  0  0  0
    0.1784   -2.1864   -0.2907 C   0  0  0  0  0  0  0  0  0  0  0  0
    0.1784   -0.9556    0.5787 C   0  0  0  0  0  3  0  0  0  0  0  0
    1.4168   -0.9258    1.4703 C   0  0  0  0  0  0  0  0  0  0  0  0
   -1.1251   -0.8870    1.3353 C   0  0  0  0  0  0  0  0  0  0  0  0
   -1.2797   -0.8868    2.6502 C   0  0  0  0  0  0  0  0  0  0  0  0
    0.1777   -3.1090   -2.1806 H   0  0  0  0  0  0  0  0  0  0  0  0
    0.1802   -1.2606   -2.1796 H   0  0  0  0  0  0  0  0  0  0  0  0
    0.1737   -3.1322    0.2470 H   0  0  0  0  0  0  0  0  0  0  0  0
    0.2150    0.0888   -0.2201 H   0  0  0  0  0  0  0  0  0  0  0  0
    2.3196   -0.9342    0.8591 H   0  0  0  0  0  0  0  0  0  0  0  0
    1.4315   -0.0300    2.0935 H   0  0  0  0  0  0  0  0  0  0  0  0
    1.4494   -1.7976    2.1280 H   0  0  0  0  0  0  0  0  0  0  0  0
   -2.0082   -0.8513    0.7027 H   0  0  0  0  0  0  0  0  0  0  0  0
   -0.4393   -0.9261    3.3327 H   0  0  0  0  0  0  0  0  0  0  0  0
   -2.2661   -0.8437    3.0944 H   0  0  0  0  0  0  0  0  0  0  0  0
   -1.4212    2.1358    0.5652 C   0  0  0  0  0  0  0  0  0  0  0  0
   -0.4595    2.2633   -0.3352 C   0  0  0  0  0  0  0  0  0  0  0  0
    0.2516    1.1316   -1.0177 C   0  0  0  0  0  0  0  0  0  0  0  0
    1.7461    1.1623   -0.6925 C   0  0  0  0  0  0  0  0  0  0  0  0
    0.0231    1.1874   -2.5293 C   0  0  0  0  0  0  0  0  0  0  0  0
   -1.8925    2.9985    1.0192 H   0  0  0  0  0  0  0  0  0  0  0  0
   -1.7726    1.1592    0.8815 H   0  0  0  0  0  0  0  0  0  0  0  0
   -0.1344    3.2612   -0.6265 H   0  0  0  0  0  0  0  0  0  0  0  0
    2.2663    0.3360   -1.1815 H   0  0  0  0  0  0  0  0  0  0  0  0
    2.1977    2.0947   -1.0423 H   0  0  0  0  0  0  0  0  0  0  0  0
    1.9170    1.0883    0.3823 H   0  0  0  0  0  0  0  0  0  0  0  0
    0.4136    2.1208   -2.9441 H   0  0  0  0  0  0  0  0  0  0  0  0
   -1.0396    1.1314   -2.7695 H   0  0  0  0  0  0  0  0  0  0  0  0
    0.5329    0.3613   -3.0293 H   0  0  0  0  0  0  0  0  0  0  0  0
  1  2  2  3
  1  7  1  0
  1  8  1  0
  2  3  1  0
  2  9  1  0
  3  4  1  0
  3  5  1  0
  4 11  1  0
  4 12  1  0
  4 13  1  0
  5  6  2  3
  5 14  1  0
  6 15  1  0
  6 16  1  0
 10 19  1  0
 17 18  2  3
 17 22  1  0
 17 23  1  0
 18 19  1  0
 18 24  1  0
 19 20  1  0
 19 21  1  0
 20 25  1  0
 20 26  1  0
 20 27  1  0
 21 28  1  0
 21 29  1  0
 21 30  1  0
M  RAD  1   3   2
M  END
>  <reaction>  (5) 
rxn_1176

>  <mol_properties>  (5) 
{"1": {"label": "*0", "atom_type": "Cd"}, "2": {"label": "*1", "atom_type": "Cs"}, "9": {"label": "*2", "atom_type": "H0"}, "17": {"label": "*4", "atom_type": "Cd"}, "18": {"label": "*3", "atom_type": "Cs"}}

>  <type>  (5) 
unop_1

>  <geom_source>  (5) 
Heuristics

$$$$

     RDKit          3D

 30 28  0  0  0  0  0  0  0  0999 V2000
    0.2823   -2.0172   -1.3907 C   0  0  0  0  0  0  0  0  0  0  0  0
    0.2823   -2.0172   -0.0674 C   0  0  0  0  0  0  0  0  0  0  0  0
    0.2823   -0.7864    0.8020 C   0  0  0  0  0  3  0  0  0  0  0  0
    1.5206   -0.7566    1.6936 C   0  0  0  0  0  0  0  0  0  0  0  0
   -1.0212   -0.7178    1.5585 C   0  0  0  0  0  0  0  0  0  0  0  0
   -1.1759   -0.7176    2.8734 C   0  0  0  0  0  0  0  0  0  0  0  0
    0.2815   -2.9398   -1.9574 H   0  0  0  0  0  0  0  0  0  0  0  0
    0.2840   -1.0914   -1.9564 H   0  0  0  0  0  0  0  0  0  0  0  0
    0.2775   -2.9630    0.4702 H   0  0  0  0  0  0  0  0  0  0  0  0
    0.3189    0.2579    0.0031 H   0  0  0  0  0  0  0  0  0  0  0  0
    2.4234   -0.7650    1.0823 H   0  0  0  0  0  0  0  0  0  0  0  0
    1.5353    0.1391    2.3167 H   0  0  0  0  0  0  0  0  0  0  0  0
    1.5532   -1.6284    2.3512 H   0  0  0  0  0  0  0  0  0  0  0  0
   -1.9044   -0.6821    0.9259 H   0  0  0  0  0  0  0  0  0  0  0  0
   -0.3355   -0.7569    3.5560 H   0  0  0  0  0  0  0  0  0  0  0  0
   -2.1623   -0.6745    3.3176 H   0  0  0  0  0  0  0  0  0  0  0  0
   -1.4657    0.1572   -2.0937 C   0  0  0  0  0  0  0  0  0  0  0  0
   -0.8609    1.2565   -1.6725 C   0  0  0  0  0  0  0  0  0  0  0  0
    0.3554    1.3007   -0.7945 C   0  0  0  0  0  0  0  0  0  0  0  0
    0.0416    2.0136    0.5222 C   0  0  0  0  0  0  0  0  0  0  0  0
    1.5164    1.9843   -1.5193 C   0  0  0  0  0  0  0  0  0  0  0  0
   -2.3425    0.1983   -2.7277 H   0  0  0  0  0  0  0  0  0  0  0  0
   -1.1033   -0.8276   -1.8178 H   0  0  0  0  0  0  0  0  0  0  0  0
   -1.2554    2.2268   -1.9714 H   0  0  0  0  0  0  0  0  0  0  0  0
    0.9223    2.0416    1.1673 H   0  0  0  0  0  0  0  0  0  0  0  0
   -0.2698    3.0453    0.3374 H   0  0  0  0  0  0  0  0  0  0  0  0
   -0.7630    1.5106    1.0604 H   0  0  0  0  0  0  0  0  0  0  0  0
    1.2571    3.0150   -1.7763 H   0  0  0  0  0  0  0  0  0  0  0  0
    1.7676    1.4604   -2.4426 H   0  0  0  0  0  0  0  0  0  0  0  0
    2.4059    2.0121   -0.8864 H   0  0  0  0  0  0  0  0  0  0  0  0
  1  2  2  3
  1  7  1  0
  1  8  1  0
  2  3  1  0
  2  9  1  0
  3  4  1  0
  3  5  1  0
  4 11  1  0
  4 12  1  0
  4 13  1  0
  5  6  2  3
  5 14  1  0
  6 15  1  0
  6 16  1  0
 10 19  1  0
 17 18  2  3
 17 22  1  0
 17 23  1  0
 18 19  1  0
 18 24  1  0
 19 20  1  0
 19 21  1  0
 20 25  1  0
 20 26  1  0
 20 27  1  0
 21 28  1  0
 21 29  1  0
 21 30  1  0
M  RAD  1   3   2
M  END
>  <reaction>  (6) 
rxn_1176

>  <mol_properties>  (6) 
{"1": {"label": "*0", "atom_type": "Cd"}, "2": {"label": "*1", "atom_type": "Cs"}, "9": {"label": "*2", "atom_type": "H0"}, "17": {"label": "*4", "atom_type": "Cd"}, "18": {"label": "*3", "atom_type": "Cs"}}

>  <type>  (6) 
unop_2

>  <geom_source>  (6) 
Heuristics

$$$$

     RDKit          3D

 30 28  0  0  0  0  0  0  0  0999 V2000
    0.0898   -2.1988   -1.6268 C   0  0  0  0  0  0  0  0  0  0  0  0
    0.0898   -2.1988   -0.3036 C   0  0  0  0  0  0  0  0  0  0  0  0
    0.0898   -0.9680    0.5658 C   0  0  0  0  0  3  0  0  0  0  0  0
    1.3282   -0.9382    1.4574 C   0  0  0  0  0  0  0  0  0  0  0  0
   -1.2137   -0.8994    1.3224 C   0  0  0  0  0  0  0  0  0  0  0  0
   -1.3683   -0.8992    2.6373 C   0  0  0  0  0  0  0  0  0  0  0  0
    0.0891   -3.1214   -2.1935 H   0  0  0  0  0  0  0  0  0  0  0  0
    0.0916   -1.2730   -2.1925 H   0  0  0  0  0  0  0  0  0  0  0  0
    0.0851   -3.1446    0.2341 H   0  0  0  0  0  0  0  0  0  0  0  0
    0.1264    0.0763   -0.2330 H   0  0  0  0  0  0  0  0  0  0  0  0
    2.2310   -0.9466    0.8462 H   0  0  0  0  0  0  0  0  0  0  0  0
    1.3429   -0.0425    2.0806 H   0  0  0  0  0  0  0  0  0  0  0  0
    1.3608   -1.8100    2.1151 H   0  0  0  0  0  0  0  0  0  0  0  0
   -2.0968   -0.8637    0.6898 H   0  0  0  0  0  0  0  0  0  0  0  0
   -0.5279   -0.9385    3.3198 H   0  0  0  0  0  0  0  0  0  0  0  0
   -2.3547   -0.8561    3.0815 H   0  0  0  0  0  0  0  0  0  0  0  0
    0.1324    2.3776    1.1437 C   0  0  0  0  0  0  0  0  0  0  0  0
    0.1635    2.3550   -0.1793 C   0  0  0  0  0  0  0  0  0  0  0  0
    0.1630    1.1191   -1.0306 C   0  0  0  0  0  0  0  0  0  0  0  0
    1.4415    1.0428   -1.8673 C   0  0  0  0  0  0  0  0  0  0  0  0
   -1.0761    1.0851   -1.9272 C   0  0  0  0  0  0  0  0  0  0  0  0
    0.1349    3.3087    1.6964 H   0  0  0  0  0  0  0  0  0  0  0  0
    0.1031    1.4609    1.7234 H   0  0  0  0  0  0  0  0  0  0  0  0
    0.1924    3.2970   -0.7254 H   0  0  0  0  0  0  0  0  0  0  0  0
    1.4485    0.1410   -2.4830 H   0  0  0  0  0  0  0  0  0  0  0  0
    1.5165    1.9045   -2.5362 H   0  0  0  0  0  0  0  0  0  0  0  0
    2.3281    1.0322   -1.2318 H   0  0  0  0  0  0  0  0  0  0  0  0
   -1.0902    1.9483   -2.5983 H   0  0  0  0  0  0  0  0  0  0  0  0
   -1.9918    1.1049   -1.3347 H   0  0  0  0  0  0  0  0  0  0  0  0
   -1.0841    0.1836   -2.5433 H   0  0  0  0  0  0  0  0  0  0  0  0
  1  2  2  3
  1  7  1  0
  1  8  1  0
  2  3  1  0
  2  9  1  0
  3  4  1  0
  3  5  1  0
  4 11  1  0
  4 12  1  0
  4 13  1  0
  5  6  2  3
  5 14  1  0
  6 15  1  0
  6 16  1  0
 10 19  1  0
 17 18  2  3
 17 22  1  0
 17 23  1  0
 18 19  1  0
 18 24  1  0
 19 20  1  0
 19 21  1  0
 20 25  1  0
 20 26  1  0
 20 27  1  0
 21 28  1  0
 21 29  1  0
 21 30  1  0
M  RAD  1   3   2
M  END
>  <reaction>  (7) 
rxn_1176

>  <mol_properties>  (7) 
{"1": {"label": "*0", "atom_type": "Cd"}, "2": {"label": "*1", "atom_type": "Cs"}, "9": {"label": "*2", "atom_type": "H0"}, "17": {"label": "*4", "atom_type": "Cd"}, "18": {"label": "*3", "atom_type": "Cs"}}

>  <type>  (7) 
unop_3

>  <geom_source>  (7) 
Heuristics

$$$$

     RDKit          3D

 30 27  0  0  0  0  0  0  0  0999 V2000
   -0.0305   -1.9609   -1.3247 C   0  0  0  0  0  2  0  0  0  0  0  0
   -0.0305   -1.9609   -0.0014 C   0  0  0  0  0  3  0  0  0  0  0  0
   -0.0305   -0.7301    0.8680 C   0  0  0  0  0  0  0  0  0  0  0  0
    1.2079   -0.7003    1.7596 C   0  0  0  0  0  0  0  0  0  0  0  0
   -1.3340   -0.6615    1.6245 C   0  0  0  0  0  0  0  0  0  0  0  0
   -1.4886   -0.6613    2.9394 C   0  0  0  0  0  0  0  0  0  0  0  0
   -0.0312   -2.8835   -1.8914 H   0  0  0  0  0  0  0  0  0  0  0  0
   -0.0287   -1.0351   -1.8904 H   0  0  0  0  0  0  0  0  0  0  0  0
   -0.0352   -2.9067    0.5362 H   0  0  0  0  0  0  0  0  0  0  0  0
    0.0061    0.3143    0.0691 H   0  0  0  0  0  0  0  0  0  0  0  0
    2.1107   -0.7087    1.1483 H   0  0  0  0  0  0  0  0  0  0  0  0
    1.2226    0.1955    2.3827 H   0  0  0  0  0  0  0  0  0  0  0  0
    1.2405   -1.5721    2.4172 H   0  0  0  0  0  0  0  0  0  0  0  0
   -2.2171   -0.6258    0.9919 H   0  0  0  0  0  0  0  0  0  0  0  0
   -0.6482   -0.7006    3.6220 H   0  0  0  0  0  0  0  0  0  0  0  0
   -2.4750   -0.6182    3.3836 H   0  0  0  0  0  0  0  0  0  0  0  0
    1.0003   -0.2788   -2.3775 C   0  0  0  0  0  0  0  0  0  0  0  0
    0.7796    0.9626   -1.9749 C   0  0  0  0  0  0  0  0  0  0  0  0
    0.0427    1.3571   -0.7285 C   0  0  0  0  0  0  0  0  0  0  0  0
   -1.2031    2.1737   -1.0769 C   0  0  0  0  0  0  0  0  0  0  0  0
    0.9600    2.1400    0.2127 C   0  0  0  0  0  0  0  0  0  0  0  0
    1.5414   -0.4923   -3.2908 H   0  0  0  0  0  0  0  0  0  0  0  0
    0.6456   -1.1295   -1.8049 H   0  0  0  0  0  0  0  0  0  0  0  0
    1.1519    1.7899   -2.5777 H   0  0  0  0  0  0  0  0  0  0  0  0
   -1.7464    2.4567   -0.1729 H   0  0  0  0  0  0  0  0  0  0  0  0
   -0.9275    3.0923   -1.6022 H   0  0  0  0  0  0  0  0  0  0  0  0
   -1.8779    1.6077   -1.7206 H   0  0  0  0  0  0  0  0  0  0  0  0
    1.3122    3.0574   -0.2669 H   0  0  0  0  0  0  0  0  0  0  0  0
    1.8339    1.5498    0.4922 H   0  0  0  0  0  0  0  0  0  0  0  0
    0.4297    2.4228    1.1244 H   0  0  0  0  0  0  0  0  0  0  0  0
  1  7  1  0
  1  8  1  0
  2  3  2  3
  2  9  1  0
  3  4  1  0
  3  5  1  0
  4 11  1  0
  4 12  1  0
  4 13  1  0
  5  6  2  3
  5 14  1  0
  6 15  1  0
  6 16  1  0
 10 19  1  0
 17 18  2  3
 17 22  1  0
 17 23  1  0
 18 19  1  0
 18 24  1  0
 19 20  1  0
 19 21  1  0
 20 25  1  0
 20 26  1  0
 20 27  1  0
 21 28  1  0
 21 29  1  0
 21 30  1  0
M  RAD  2   1   3   2   2
M  END
>  <reaction>  (8) 
rxn_1176

>  <mol_properties>  (8) 
{"1": {"label": "*0", "atom_type": "Cd"}, "2": {"label": "*1", "atom_type": "Cs"}, "9": {"label": "*2", "atom_type": "H0"}, "17": {"label": "*4", "atom_type": "Cd"}, "18": {"label": "*3", "atom_type": "Cs"}}

>  <type>  (8) 
unop_4

>  <geom_source>  (8) 
Heuristics

$$$$

     RDKit          3D

 30 28  0  0  0  0  0  0  0  0999 V2000
    0.0012   -2.1834   -1.6181 C   0  0  0  0  0  0  0  0  0  0  0  0
    0.0012   -2.1834   -0.2949 C   0  0  0  0  0  0  0  0  0  0  0  0
    0.0012   -0.9526    0.5745 C   0  0  0  0  0  3  0  0  0  0  0  0
    1.2396   -0.9228    1.4661 C   0  0  0  0  0  0  0  0  0  0  0  0
   -1.3023   -0.8840    1.3310 C   0  0  0  0  0  0  0  0  0  0  0  0
   -1.4569   -0.8838    2.6460 C   0  0  0  0  0  0  0  0  0  0  0  0
    0.0005   -3.1060   -2.1848 H   0  0  0  0  0  0  0  0  0  0  0  0
    0.0030   -1.2576   -2.1838 H   0  0  0  0  0  0  0  0  0  0  0  0
   -0.0035   -3.1292    0.2427 H   0  0  0  0  0  0  0  0  0  0  0  0
    0.0378    0.0917   -0.2243 H   0  0  0  0  0  0  0  0  0  0  0  0
    2.1423   -0.9312    0.8549 H   0  0  0  0  0  0  0  0  0  0  0  0
    1.2543   -0.0271    2.0892 H   0  0  0  0  0  0  0  0  0  0  0  0
    1.2722   -1.7946    2.1237 H   0  0  0  0  0  0  0  0  0  0  0  0
   -2.1855   -0.8483    0.6985 H   0  0  0  0  0  0  0  0  0  0  0  0
   -0.6166   -0.9231    3.3285 H   0  0  0  0  0  0  0  0  0  0  0  0
   -2.4433   -0.8407    3.0902 H   0  0  0  0  0  0  0  0  0  0  0  0
    1.7027    2.0833    0.6396 C   0  0  0  0  0  0  0  0  0  0  0  0
    0.7898    2.2422   -0.3054 C   0  0  0  0  0  0  0  0  0  0  0  0
    0.0743    1.1346   -1.0219 C   0  0  0  0  0  0  0  0  0  0  0  0
    0.3763    1.1815   -2.5209 C   0  0  0  0  0  0  0  0  0  0  0  0
   -1.4321    1.2158   -0.7682 C   0  0  0  0  0  0  0  0  0  0  0  0
    2.1806    2.9299    1.1162 H   0  0  0  0  0  0  0  0  0  0  0  0
    2.0056    1.0957    0.9715 H   0  0  0  0  0  0  0  0  0  0  0  0
    0.5126    3.2503   -0.6111 H   0  0  0  0  0  0  0  0  0  0  0  0
   -0.1367    0.3725   -3.0452 H   0  0  0  0  0  0  0  0  0  0  0  0
    0.0375    2.1271   -2.9530 H   0  0  0  0  0  0  0  0  0  0  0  0
    1.4467    1.0896   -2.7102 H   0  0  0  0  0  0  0  0  0  0  0  0
   -1.8349    2.1626   -1.1383 H   0  0  0  0  0  0  0  0  0  0  0  0
   -1.6564    1.1484    0.2972 H   0  0  0  0  0  0  0  0  0  0  0  0
   -1.9559    0.4070   -1.2820 H   0  0  0  0  0  0  0  0  0  0  0  0
  1  2  2  3
  1  7  1  0
  1  8  1  0
  2  3  1  0
  2  9  1  0
  3  4  1  0
  3  5  1  0
  4 11  1  0
  4 12  1  0
  4 13  1  0
  5  6  2  3
  5 14  1  0
  6 15  1  0
  6 16  1  0
 10 19  1  0
 17 18  2  3
 17 22  1  0
 17 23  1  0
 18 19  1  0
 18 24  1  0
 19 20  1  0
 19 21  1  0
 20 25  1  0
 20 26  1  0
 20 27  1  0
 21 28  1  0
 21 29  1  0
 21 30  1  0
M  RAD  1   3   2
M  END
>  <reaction>  (9) 
rxn_1176

>  <mol_properties>  (9) 
{"1": {"label": "*0", "atom_type": "Cd"}, "2": {"label": "*1", "atom_type": "Cs"}, "9": {"label": "*2", "atom_type": "H0"}, "17": {"label": "*4", "atom_type": "Cd"}, "18": {"label": "*3", "atom_type": "Cs"}}

>  <type>  (9) 
unop_5

>  <geom_source>  (9) 
Heuristics

$$$$

     RDKit          3D

 30 28  0  0  0  0  0  0  0  0999 V2000
   -0.1074   -2.0106   -1.3999 C   0  0  0  0  0  0  0  0  0  0  0  0
   -0.1074   -2.0106   -0.0767 C   0  0  0  0  0  0  0  0  0  0  0  0
   -0.1074   -0.7798    0.7927 C   0  0  0  0  0  3  0  0  0  0  0  0
    1.1310   -0.7501    1.6843 C   0  0  0  0  0  0  0  0  0  0  0  0
   -1.4109   -0.7113    1.5492 C   0  0  0  0  0  0  0  0  0  0  0  0
   -1.5655   -0.7110    2.8641 C   0  0  0  0  0  0  0  0  0  0  0  0
   -0.1081   -2.9332   -1.9667 H   0  0  0  0  0  0  0  0  0  0  0  0
   -0.1056   -1.0848   -1.9657 H   0  0  0  0  0  0  0  0  0  0  0  0
   -0.1121   -2.9564    0.4609 H   0  0  0  0  0  0  0  0  0  0  0  0
   -0.0708    0.2645   -0.0061 H   0  0  0  0  0  0  0  0  0  0  0  0
    2.0337   -0.7584    1.0730 H   0  0  0  0  0  0  0  0  0  0  0  0
    1.1457    0.1457    2.3074 H   0  0  0  0  0  0  0  0  0  0  0  0
    1.1636   -1.6218    2.3419 H   0  0  0  0  0  0  0  0  0  0  0  0
   -2.2941   -0.6755    0.9167 H   0  0  0  0  0  0  0  0  0  0  0  0
   -0.7252   -0.7504    3.5467 H   0  0  0  0  0  0  0  0  0  0  0  0
   -2.5519   -0.6679    3.3084 H   0  0  0  0  0  0  0  0  0  0  0  0
    1.8072    0.1021   -2.0157 C   0  0  0  0  0  0  0  0  0  0  0  0
    1.2203    1.2215   -1.6229 C   0  0  0  0  0  0  0  0  0  0  0  0
   -0.0343    1.3073   -0.8038 C   0  0  0  0  0  0  0  0  0  0  0  0
   -1.1358    2.0289   -1.5824 C   0  0  0  0  0  0  0  0  0  0  0  0
    0.2403    2.0102    0.5270 C   0  0  0  0  0  0  0  0  0  0  0  0
    2.7141    0.1133   -2.6072 H   0  0  0  0  0  0  0  0  0  0  0  0
    1.3992   -0.8697   -1.7582 H   0  0  0  0  0  0  0  0  0  0  0  0
    1.6609    2.1777   -1.9019 H   0  0  0  0  0  0  0  0  0  0  0  0
   -2.0529    2.0871   -0.9926 H   0  0  0  0  0  0  0  0  0  0  0  0
   -0.8301    3.0501   -1.8260 H   0  0  0  0  0  0  0  0  0  0  0  0
   -1.3602    1.5130   -2.5171 H   0  0  0  0  0  0  0  0  0  0  0  0
    0.5947    3.0307    0.3580 H   0  0  0  0  0  0  0  0  0  0  0  0
    1.0010    1.4809    1.1025 H   0  0  0  0  0  0  0  0  0  0  0  0
   -0.6686    2.0683    1.1294 H   0  0  0  0  0  0  0  0  0  0  0  0
  1  2  2  3
  1  7  1  0
  1  8  1  0
  2  3  1  0
  2  9  1  0
  3  4  1  0
  3  5  1  0
  4 11  1  0
  4 12  1  0
  4 13  1  0
  5  6  2  3
  5 14  1  0
  6 15  1  0
  6 16  1  0
 10 19  1  0
 17 18  2  3
 17 22  1  0
 17 23  1  0
 18 19  1  0
 18 24  1  0
 19 20  1  0
 19 21  1  0
 20 25  1  0
 20 26  1  0
 20 27  1  0
 21 28  1  0
 21 29  1  0
 21 30  1  0
M  RAD  1   3   2
M  END
>  <reaction>  (10) 
rxn_1176

>  <mol_properties>  (10) 
{"1": {"label": "*0", "atom_type": "Cd"}, "2": {"label": "*1", "atom_type": "Cs"}, "9": {"label": "*2", "atom_type": "H0"}, "17": {"label": "*4", "atom_type": "Cd"}, "18": {"label": "*3", "atom_type": "Cs"}}

>  <type>  (10) 
unop_6

>  <geom_source>  (10) 
Heuristics

$$$$

     RDKit          3D

 30 28  0  0  0  0  0  0  0  0999 V2000
   -0.1243   -2.0769   -1.4921 C   0  0  0  0  0  0  0  0  0  0  0  0
   -0.1243   -2.0769   -0.1689 C   0  0  0  0  0  0  0  0  0  0  0  0
   -0.1243   -0.8461    0.7005 C   0  0  0  0  0  3  0  0  0  0  0  0
    1.1141   -0.8163    1.5921 C   0  0  0  0  0  0  0  0  0  0  0  0
   -1.4278   -0.7775    1.4570 C   0  0  0  0  0  0  0  0  0  0  0  0
   -1.5824   -0.7773    2.7719 C   0  0  0  0  0  0  0  0  0  0  0  0
   -0.1250   -2.9995   -2.0589 H   0  0  0  0  0  0  0  0  0  0  0  0
   -0.1225   -1.1511   -2.0579 H   0  0  0  0  0  0  0  0  0  0  0  0
   -0.1290   -3.0227    0.3687 H   0  0  0  0  0  0  0  0  0  0  0  0
   -0.0877    0.1982   -0.0983 H   0  0  0  0  0  0  0  0  0  0  0  0
    2.0169   -0.8247    0.9808 H   0  0  0  0  0  0  0  0  0  0  0  0
    1.1288    0.0794    2.2152 H   0  0  0  0  0  0  0  0  0  0  0  0
    1.1467   -1.6881    2.2497 H   0  0  0  0  0  0  0  0  0  0  0  0
   -2.3110   -0.7418    0.8245 H   0  0  0  0  0  0  0  0  0  0  0  0
   -0.7421   -0.8166    3.4545 H   0  0  0  0  0  0  0  0  0  0  0  0
   -2.5688   -0.7342    3.2162 H   0  0  0  0  0  0  0  0  0  0  0  0
    2.3695    0.7138   -1.3138 C   0  0  0  0  0  0  0  0  0  0  0  0
    1.3883    1.5856   -1.1439 C   0  0  0  0  0  0  0  0  0  0  0  0
   -0.0511    1.2410   -0.8960 C   0  0  0  0  0  0  0  0  0  0  0  0
   -0.9347    1.7831   -2.0211 C   0  0  0  0  0  0  0  0  0  0  0  0
   -0.5067    1.7812    0.4609 C   0  0  0  0  0  0  0  0  0  0  0  0
    3.3892    1.0330   -1.4894 H   0  0  0  0  0  0  0  0  0  0  0  0
    2.1866   -0.3552   -1.2831 H   0  0  0  0  0  0  0  0  0  0  0  0
    1.6126    2.6508   -1.1818 H   0  0  0  0  0  0  0  0  0  0  0  0
   -1.9823    1.5282   -1.8483 H   0  0  0  0  0  0  0  0  0  0  0  0
   -0.8611    2.8726   -2.0782 H   0  0  0  0  0  0  0  0  0  0  0  0
   -0.6363    1.3748   -2.9877 H   0  0  0  0  0  0  0  0  0  0  0  0
   -0.4180    2.8706    0.4916 H   0  0  0  0  0  0  0  0  0  0  0  0
    0.0981    1.3715    1.2711 H   0  0  0  0  0  0  0  0  0  0  0  0
   -1.5518    1.5263    0.6485 H   0  0  0  0  0  0  0  0  0  0  0  0
  1  2  2  3
  1  7  1  0
  1  8  1  0
  2  3  1  0
  2  9  1  0
  3  4  1  0
  3  5  1  0
  4 11  1  0
  4 12  1  0
  4 13  1  0
  5  6  2  3
  5 14  1  0
  6 15  1  0
  6 16  1  0
 10 19  1  0
 17 18  2  3
 17 22  1  0
 17 23  1  0
 18 19  1  0
 18 24  1  0
 19 20  1  0
 19 21  1  0
 20 25  1  0
 20 26  1  0
 20 27  1  0
 21 28  1  0
 21 29  1  0
 21 30  1  0
M  RAD  1   3   2
M  END
>  <reaction>  (11) 
rxn_1176

>  <mol_properties>  (11) 
{"1": {"label": "*0", "atom_type": "Cd"}, "2": {"label": "*1", "atom_type": "Cs"}, "9": {"label": "*2", "atom_type": "H0"}, "17": {"label": "*4", "atom_type": "Cd"}, "18": {"label": "*3", "atom_type": "Cs"}}

>  <type>  (11) 
unop_7

>  <geom_source>  (11) 
Heuristics

$$$$

     RDKit          3D

 30 28  0  0  0  0  0  0  0  0999 V2000
    0.2602   -2.1458   -1.5644 C   0  0  0  0  0  0  0  0  0  0  0  0
    0.2602   -2.1458   -0.2412 C   0  0  0  0  0  0  0  0  0  0  0  0
    0.2602   -0.9150    0.6282 C   0  0  0  0  0  3  0  0  0  0  0  0
    1.4986   -0.8853    1.5198 C   0  0  0  0  0  0  0  0  0  0  0  0
   -1.0433   -0.8465    1.3847 C   0  0  0  0  0  0  0  0  0  0  0  0
   -1.1980   -0.8462    2.6997 C   0  0  0  0  0  0  0  0  0  0  0  0
    0.2594   -3.0685   -2.1311 H   0  0  0  0  0  0  0  0  0  0  0  0
    0.2620   -1.2200   -2.1301 H   0  0  0  0  0  0  0  0  0  0  0  0
    0.2554   -3.0917    0.2964 H   0  0  0  0  0  0  0  0  0  0  0  0
    0.2968    0.1293   -0.1706 H   0  0  0  0  0  0  0  0  0  0  0  0
    2.4013   -0.8936    0.9086 H   0  0  0  0  0  0  0  0  0  0  0  0
    1.5132    0.0105    2.1429 H   0  0  0  0  0  0  0  0  0  0  0  0
    1.5311   -1.7570    2.1774 H   0  0  0  0  0  0  0  0  0  0  0  0
   -1.9265   -0.8107    0.7522 H   0  0  0  0  0  0  0  0  0  0  0  0
   -0.3576   -0.8856    3.3822 H   0  0  0  0  0  0  0  0  0  0  0  0
   -2.1844   -0.8031    3.1439 H   0  0  0  0  0  0  0  0  0  0  0  0
   -2.1037    1.5161   -0.4636 C   0  0  0  0  0  0  0  0  0  0  0  0
   -0.8954    1.9951   -0.7130 C   0  0  0  0  0  0  0  0  0  0  0  0
    0.3333    1.1721   -0.9682 C   0  0  0  0  0  0  0  0  0  0  0  0
    1.3949    1.4468    0.0985 C   0  0  0  0  0  0  0  0  0  0  0  0
    0.8847    1.4501   -2.3679 C   0  0  0  0  0  0  0  0  0  0  0  0
   -2.9489    2.1697   -0.2879 H   0  0  0  0  0  0  0  0  0  0  0  0
   -2.2910    0.4481   -0.4263 H   0  0  0  0  0  0  0  0  0  0  0  0
   -0.7479    3.0739   -0.7420 H   0  0  0  0  0  0  0  0  0  0  0  0
    2.2882    0.8443   -0.0794 H   0  0  0  0  0  0  0  0  0  0  0  0
    1.6932    2.4986    0.0837 H   0  0  0  0  0  0  0  0  0  0  0  0
    1.0189    1.2178    1.0966 H   0  0  0  0  0  0  0  0  0  0  0  0
    1.1649    2.5021   -2.4700 H   0  0  0  0  0  0  0  0  0  0  0  0
    0.1434    1.2235   -3.1355 H   0  0  0  0  0  0  0  0  0  0  0  0
    1.7749    0.8476   -2.5606 H   0  0  0  0  0  0  0  0  0  0  0  0
  1  2  2  3
  1  7  1  0
  1  8  1  0
  2  3  1  0
  2  9  1  0
  3  4  1  0
  3  5  1  0
  4 11  1  0
  4 12  1  0
  4 13  1  0
  5  6  2  3
  5 14  1  0
  6 15  1  0
  6 16  1  0
 10 19  1  0
 17 18  2  3
 17 22  1  0
 17 23  1  0
 18 19  1  0
 18 24  1  0
 19 20  1  0
 19 21  1  0
 20 25  1  0
 20 26  1  0
 20 27  1  0
 21 28  1  0
 21 29  1  0
 21 30  1  0
M  RAD  1   3   2
M  END
>  <reaction>  (12) 
rxn_1176

>  <mol_properties>  (12) 
{"1": {"label": "*0", "atom_type": "Cd"}, "2": {"label": "*1", "atom_type": "Cs"}, "9": {"label": "*2", "atom_type": "H0"}, "17": {"label": "*4", "atom_type": "Cd"}, "18": {"label": "*3", "atom_type": "Cs"}}

>  <type>  (12) 
unop_8

>  <geom_source>  (12) 
Heuristics

$$$$

     RDKit          3D

 30 28  0  0  0  0  0  0  0  0999 V2000
    0.3013   -2.0841   -1.4820 C   0  0  0  0  0  0  0  0  0  0  0  0
    0.3013   -2.0841   -0.1588 C   0  0  0  0  0  0  0  0  0  0  0  0
    0.3013   -0.8533    0.7106 C   0  0  0  0  0  3  0  0  0  0  0  0
    1.5397   -0.8235    1.6022 C   0  0  0  0  0  0  0  0  0  0  0  0
   -1.0022   -0.7847    1.4671 C   0  0  0  0  0  0  0  0  0  0  0  0
   -1.1568   -0.7845    2.7821 C   0  0  0  0  0  0  0  0  0  0  0  0
    0.3006   -3.0067   -2.0487 H   0  0  0  0  0  0  0  0  0  0  0  0
    0.3031   -1.1583   -2.0477 H   0  0  0  0  0  0  0  0  0  0  0  0
    0.2966   -3.0299    0.3788 H   0  0  0  0  0  0  0  0  0  0  0  0
    0.3379    0.1911   -0.0882 H   0  0  0  0  0  0  0  0  0  0  0  0
    2.4424   -0.8319    0.9910 H   0  0  0  0  0  0  0  0  0  0  0  0
    1.5543    0.0723    2.2253 H   0  0  0  0  0  0  0  0  0  0  0  0
    1.5723   -1.6953    2.2598 H   0  0  0  0  0  0  0  0  0  0  0  0
   -1.8854   -0.7490    0.8346 H   0  0  0  0  0  0  0  0  0  0  0  0
   -0.3165   -0.8238    3.4646 H   0  0  0  0  0  0  0  0  0  0  0  0
   -2.1432   -0.7414    3.2263 H   0  0  0  0  0  0  0  0  0  0  0  0
   -2.0399    0.7880   -1.4188 C   0  0  0  0  0  0  0  0  0  0  0  0
   -1.0392    1.6265   -1.2018 C   0  0  0  0  0  0  0  0  0  0  0  0
    0.3744    1.2339   -0.8858 C   0  0  0  0  0  0  0  0  0  0  0  0
    0.7828    1.7595    0.4916 C   0  0  0  0  0  0  0  0  0  0  0  0
    1.3282    1.7450   -1.9672 C   0  0  0  0  0  0  0  0  0  0  0  0
   -3.0388    1.1412   -1.6425 H   0  0  0  0  0  0  0  0  0  0  0  0
   -1.8947   -0.2865   -1.3803 H   0  0  0  0  0  0  0  0  0  0  0  0
   -1.2255    2.6986   -1.2494 H   0  0  0  0  0  0  0  0  0  0  0  0
    1.8086    1.4697    0.7286 H   0  0  0  0  0  0  0  0  0  0  0  0
    0.7294    2.8513    0.5190 H   0  0  0  0  0  0  0  0  0  0  0  0
    0.1267    1.3710    1.2718 H   0  0  0  0  0  0  0  0  0  0  0  0
    1.2942    2.8363   -2.0269 H   0  0  0  0  0  0  0  0  0  0  0  0
    1.0627    1.3462   -2.9472 H   0  0  0  0  0  0  0  0  0  0  0  0
    2.3573    1.4552   -1.7449 H   0  0  0  0  0  0  0  0  0  0  0  0
  1  2  2  3
  1  7  1  0
  1  8  1  0
  2  3  1  0
  2  9  1  0
  3  4  1  0
  3  5  1  0
  4 11  1  0
  4 12  1  0
  4 13  1  0
  5  6  2  3
  5 14  1  0
  6 15  1  0
  6 16  1  0
 10 19  1  0
 17 18  2  3
 17 22  1  0
 17 23  1  0
 18 19  1  0
 18 24  1  0
 19 20  1  0
 19 21  1  0
 20 25  1  0
 20 26  1  0
 20 27  1  0
 21 28  1  0
 21 29  1  0
 21 30  1  0
M  RAD  1   3   2
M  END
>  <reaction>  (13) 
rxn_1176

>  <mol_properties>  (13) 
{"1": {"label": "*0", "atom_type": "Cd"}, "2": {"label": "*1", "atom_type": "Cs"}, "9": {"label": "*2", "atom_type": "H0"}, "17": {"label": "*4", "atom_type": "Cd"}, "18": {"label": "*3", "atom_type": "Cs"}}

>  <type>  (13) 
unop_9

>  <geom_source>  (13) 
Heuristics

$$$$

     RDKit          3D

 30 28  0  0  0  0  0  0  0  0999 V2000
   -0.0814   -2.1401   -1.5725 C   0  0  0  0  0  0  0  0  0  0  0  0
   -0.0814   -2.1401   -0.2493 C   0  0  0  0  0  0  0  0  0  0  0  0
   -0.0814   -0.9093    0.6201 C   0  0  0  0  0  3  0  0  0  0  0  0
    1.1570   -0.8795    1.5117 C   0  0  0  0  0  0  0  0  0  0  0  0
   -1.3849   -0.8407    1.3766 C   0  0  0  0  0  0  0  0  0  0  0  0
   -1.5395   -0.8405    2.6915 C   0  0  0  0  0  0  0  0  0  0  0  0
   -0.0821   -3.0627   -2.1393 H   0  0  0  0  0  0  0  0  0  0  0  0
   -0.0796   -1.2143   -2.1383 H   0  0  0  0  0  0  0  0  0  0  0  0
   -0.0861   -3.0859    0.2883 H   0  0  0  0  0  0  0  0  0  0  0  0
   -0.0448    0.1350   -0.1787 H   0  0  0  0  0  0  0  0  0  0  0  0
    2.0597   -0.8879    0.9004 H   0  0  0  0  0  0  0  0  0  0  0  0
    1.1717    0.0162    2.1348 H   0  0  0  0  0  0  0  0  0  0  0  0
    1.1896   -1.7513    2.1693 H   0  0  0  0  0  0  0  0  0  0  0  0
   -2.2681   -0.8050    0.7441 H   0  0  0  0  0  0  0  0  0  0  0  0
   -0.6992   -0.8798    3.3741 H   0  0  0  0  0  0  0  0  0  0  0  0
   -2.5259   -0.7974    3.1358 H   0  0  0  0  0  0  0  0  0  0  0  0
    2.4122    1.4402   -0.3561 C   0  0  0  0  0  0  0  0  0  0  0  0
    1.2339    1.9593   -0.6622 C   0  0  0  0  0  0  0  0  0  0  0  0
   -0.0083    1.1778   -0.9764 C   0  0  0  0  0  0  0  0  0  0  0  0
   -0.4827    1.4731   -2.4005 C   0  0  0  0  0  0  0  0  0  0  0  0
   -1.1096    1.4889    0.0388 C   0  0  0  0  0  0  0  0  0  0  0  0
    3.2696    2.0651   -0.1398 H   0  0  0  0  0  0  0  0  0  0  0  0
    2.5615    0.3664   -0.3107 H   0  0  0  0  0  0  0  0  0  0  0  0
    1.1243    3.0424   -0.6974 H   0  0  0  0  0  0  0  0  0  0  0  0
   -1.3825    0.9008   -2.6358 H   0  0  0  0  0  0  0  0  0  0  0  0
   -0.7223    2.5338   -2.5149 H   0  0  0  0  0  0  0  0  0  0  0  0
    0.2862    1.2211   -3.1321 H   0  0  0  0  0  0  0  0  0  0  0  0
   -1.3713    2.5502    0.0107 H   0  0  0  0  0  0  0  0  0  0  0  0
   -0.7894    1.2482    1.0535 H   0  0  0  0  0  0  0  0  0  0  0  0
   -2.0131    0.9167   -0.1819 H   0  0  0  0  0  0  0  0  0  0  0  0
  1  2  2  3
  1  7  1  0
  1  8  1  0
  2  3  1  0
  2  9  1  0
  3  4  1  0
  3  5  1  0
  4 11  1  0
  4 12  1  0
  4 13  1  0
  5  6  2  3
  5 14  1  0
  6 15  1  0
  6 16  1  0
 10 19  1  0
 17 18  2  3
 17 22  1  0
 17 23  1  0
 18 19  1  0
 18 24  1  0
 19 20  1  0
 19 21  1  0
 20 25  1  0
 20 26  1  0
 20 27  1  0
 21 28  1  0
 21 29  1  0
 21 30  1  0
M  RAD  1   3   2
M  END
>  <reaction>  (14) 
rxn_1176

>  <mol_properties>  (14) 
{"1": {"label": "*0", "atom_type": "Cd"}, "2": {"label": "*1", "atom_type": "Cs"}, "9": {"label": "*2", "atom_type": "H0"}, "17": {"label": "*4", "atom_type": "Cd"}, "18": {"label": "*3", "atom_type": "Cs"}}

>  <type>  (14) 
unop_10

>  <geom_source>  (14) 
Heuristics

$$$$

     RDKit          3D

 30 27  0  0  0  0  0  0  0  0999 V2000
    0.2036   -1.9648   -1.3191 C   0  0  0  0  0  2  0  0  0  0  0  0
    0.2036   -1.9648    0.0041 C   0  0  0  0  0  3  0  0  0  0  0  0
    0.2036   -0.7340    0.8735 C   0  0  0  0  0  0  0  0  0  0  0  0
    1.4419   -0.7042    1.7651 C   0  0  0  0  0  0  0  0  0  0  0  0
   -1.1000   -0.6654    1.6301 C   0  0  0  0  0  0  0  0  0  0  0  0
   -1.2546   -0.6652    2.9450 C   0  0  0  0  0  0  0  0  0  0  0  0
    0.2028   -2.8874   -1.8858 H   0  0  0  0  0  0  0  0  0  0  0  0
    0.2053   -1.0390   -1.8848 H   0  0  0  0  0  0  0  0  0  0  0  0
    0.1988   -2.9106    0.5418 H   0  0  0  0  0  0  0  0  0  0  0  0
    0.2402    0.3103    0.0747 H   0  0  0  0  0  0  0  0  0  0  0  0
    2.3447   -0.7126    1.1539 H   0  0  0  0  0  0  0  0  0  0  0  0
    1.4566    0.1915    2.3882 H   0  0  0  0  0  0  0  0  0  0  0  0
    1.4745   -1.5760    2.4228 H   0  0  0  0  0  0  0  0  0  0  0  0
   -1.9831   -0.6297    0.9975 H   0  0  0  0  0  0  0  0  0  0  0  0
   -0.4142   -0.7045    3.6275 H   0  0  0  0  0  0  0  0  0  0  0  0
   -2.2410   -0.6221    3.3892 H   0  0  0  0  0  0  0  0  0  0  0  0
   -0.6558   -0.2509   -2.4169 C   0  0  0  0  0  0  0  0  0  0  0  0
   -0.4129    0.9826   -2.0033 C   0  0  0  0  0  0  0  0  0  0  0  0
    0.2767    1.3531   -0.7229 C   0  0  0  0  0  0  0  0  0  0  0  0
   -0.6575    2.1672    0.1742 C   0  0  0  0  0  0  0  0  0  0  0  0
    1.5644    2.1272   -1.0110 C   0  0  0  0  0  0  0  0  0  0  0  0
   -1.1597   -0.4468   -3.3551 H   0  0  0  0  0  0  0  0  0  0  0  0
   -0.3576   -1.1126   -1.8288 H   0  0  0  0  0  0  0  0  0  0  0  0
   -0.7280    1.8215   -2.6225 H   0  0  0  0  0  0  0  0  0  0  0  0
   -0.1620    2.4327    1.1103 H   0  0  0  0  0  0  0  0  0  0  0  0
   -0.9554    3.0955   -0.3209 H   0  0  0  0  0  0  0  0  0  0  0  0
   -1.5631    1.6070    0.4113 H   0  0  0  0  0  0  0  0  0  0  0  0
    1.3452    3.0540   -1.5481 H   0  0  0  0  0  0  0  0  0  0  0  0
    2.2497    1.5383   -1.6223 H   0  0  0  0  0  0  0  0  0  0  0  0
    2.0733    2.3925   -0.0819 H   0  0  0  0  0  0  0  0  0  0  0  0
  1  7  1  0
  1  8  1  0
  2  3  2  3
  2  9  1  0
  3  4  1  0
  3  5  1  0
  4 11  1  0
  4 12  1  0
  4 13  1  0
  5  6  2  3
  5 14  1  0
  6 15  1  0
  6 16  1  0
 10 19  1  0
 17 18  2  3
 17 22  1  0
 17 23  1  0
 18 19  1  0
 18 24  1  0
 19 20  1  0
 19 21  1  0
 20 25  1  0
 20 26  1  0
 20 27  1  0
 21 28  1  0
 21 29  1  0
 21 30  1  0
M  RAD  2   1   3   2   2
M  END
>  <reaction>  (15) 
rxn_1176

>  <mol_properties>  (15) 
{"1": {"label": "*0", "atom_type": "Cd"}, "2": {"label": "*1", "atom_type": "Cs"}, "9": {"label": "*2", "atom_type": "H0"}, "17": {"label": "*4", "atom_type": "Cd"}, "18": {"label": "*3", "atom_type": "Cs"}}

>  <type>  (15) 
unop_11

>  <geom_source>  (15) 
Heuristics

$$$$

     RDKit          3D

 30 27  0  0  0  0  0  0  0  0999 V2000
    1.3983    0.2582   -0.0136 C   0  0  0  0  0  3  0  0  0  0  0  0
    1.7613   -0.4592    1.2907 C   0  0  0  0  0  0  0  0  0  0  0  0
    1.6141    1.7676    0.1282 C   0  0  0  0  0  0  0  0  0  0  0  0
   -0.7005   -0.3758   -1.1973 C   0  0  0  0  0  0  0  0  0  0  0  0
   -1.1622    0.0581    0.1933 C   0  0  0  0  0  3  0  0  0  0  0  0
    2.2090   -0.2864   -1.1650 C   0  0  0  0  0  0  0  0  0  0  0  0
   -2.2382    1.1026    0.1224 C   0  0  0  0  0  0  0  0  0  0  0  0
   -1.5702   -1.1055    1.0589 C   0  0  0  0  0  0  0  0  0  0  0  0
    1.9652   -1.4964   -1.6763 C   0  0  0  0  0  0  0  0  0  0  0  0
   -2.0700    2.2887    0.7075 C   0  0  0  0  0  3  0  0  0  0  0  0
   -2.6004   -1.9041    0.7575 C   0  0  0  0  0  0  0  0  0  0  0  0
    0.1089    0.0555   -0.2644 H   0  0  0  0  0  0  0  0  0  0  0  0
    2.8387   -0.3220    1.5271 H   0  0  0  0  0  0  0  0  0  0  0  0
    1.5470   -1.5454    1.2049 H   0  0  0  0  0  0  0  0  0  0  0  0
    1.1540   -0.0563    2.1288 H   0  0  0  0  0  0  0  0  0  0  0  0
    0.9781    2.1679    0.9460 H   0  0  0  0  0  0  0  0  0  0  0  0
    2.6784    1.9948    0.3551 H   0  0  0  0  0  0  0  0  0  0  0  0
    1.3281    2.2816   -0.8142 H   0  0  0  0  0  0  0  0  0  0  0  0
   -0.3080    0.5026   -1.7518 H   0  0  0  0  0  0  0  0  0  0  0  0
   -1.5397   -0.8197   -1.7743 H   0  0  0  0  0  0  0  0  0  0  0  0
    0.1154   -1.1238   -1.1075 H   0  0  0  0  0  0  0  0  0  0  0  0
    2.9906    0.3210   -1.6142 H   0  0  0  0  0  0  0  0  0  0  0  0
   -3.1668    0.8882   -0.3990 H   0  0  0  0  0  0  0  0  0  0  0  0
   -1.0061   -1.2913    1.9671 H   0  0  0  0  0  0  0  0  0  0  0  0
    1.1809   -2.1279   -1.2701 H   0  0  0  0  0  0  0  0  0  0  0  0
    2.5527   -1.8609   -2.5127 H   0  0  0  0  0  0  0  0  0  0  0  0
   -2.8553    3.0358    0.6564 H   0  0  0  0  0  0  0  0  0  0  0  0
   -1.1525    2.5229    1.2392 H   0  0  0  0  0  0  0  0  0  0  0  0
   -3.1924   -1.7431   -0.1379 H   0  0  0  0  0  0  0  0  0  0  0  0
   -2.8584   -2.7276    1.4153 H   0  0  0  0  0  0  0  0  0  0  0  0
  1  2  1  0
  1  3  1  0
  1  6  1  0
  2 13  1  0
  2 14  1  0
  2 15  1  0
  3 16  1  0
  3 17  1  0
  3 18  1  0
  4 12  1  0
  4 19  1  0
  4 20  1  0
  4 21  1  0
  5  7  2  3
  5  8  1  0
  6  9  2  3
  6 22  1  0
  7 10  1  0
  7 23  1  0
  8 11  2  3
  8 24  1  0
  9 25  1  0
  9 26  1  0
 10 27  1  0
 10 28  1  0
 11 29  1  0
 11 30  1  0
M  CHG  2   5  -1  10   1
M  RAD  1   1   2
M  END
>  <reaction>  (16) 
rxn_1176

>  <mol_properties>  (16) 
{"1": {"label": "*0", "atom_type": "Cd"}, "2": {"label": "*1", "atom_type": "Cs"}, "9": {"label": "*2", "atom_type": "H0"}, "17": {"label": "*4", "atom_type": "Cd"}, "18": {"label": "*3", "atom_type": "Cs"}}

>  <type>  (16) 
unop_12

>  <geom_source>  (16) 
AutoTST

$$$$
