
     RDKit          3D

  8  7  0  0  0  0  0  0  0  0999 V2000
    1.9029    0.9046   -0.2050 C   0  0  0  0  0  0  0  0  0  0  0  0
    0.8517    0.4283    0.1217 C   0  0  0  0  0  0  0  0  0  0  0  0
   -0.3908   -0.1311    0.5404 C   0  0  0  0  0  0  0  0  0  0  0  0
   -1.2847   -0.6576   -0.2899 C   0  0  0  0  0  0  0  0  0  0  0  0
    2.8335    1.3255   -0.5014 H   0  0  0  0  0  0  0  0  0  0  0  0
   -0.5867   -0.1096    1.6074 H   0  0  0  0  0  0  0  0  0  0  0  0
   -2.2126   -1.0686    0.0850 H   0  0  0  0  0  0  0  0  0  0  0  0
   -1.1134   -0.6914   -1.3582 H   0  0  0  0  0  0  0  0  0  0  0  0
  1  2  3  0
  1  5  1  0
  2  3  1  0
  3  4  2  3
  3  6  1  0
  4  7  1  0
  4  8  1  0
M  END
>  <reaction>  (1) 
rxn_1786

>  <mol_properties>  (1) 
{"2": {"label": "donator", "atom_type": "Cd"}, "5": {"label": "d_hydrogen", "atom_type": "H0"}}

>  <type>  (1) 
r1h

$$$$

     RDKit          3D

 18 18  0  0  0  0  0  0  0  0999 V2000
    2.7512    0.0489   -0.5734 C   0  0  0  0  0  0  0  0  0  0  0  0
    1.4277   -0.4568   -0.0957 C   0  0  0  0  0  3  0  0  0  0  0  0
    0.5787   -1.2468   -0.9255 C   0  0  0  0  0  0  0  0  0  0  0  0
    0.9949   -1.6342   -2.2194 C   0  0  0  0  0  0  0  0  0  0  0  0
    0.1850   -2.4001   -3.0330 C   0  0  0  0  0  0  0  0  0  0  0  0
   -1.0677   -2.8151   -2.5986 C   0  0  0  0  0  0  0  0  0  0  0  0
   -1.4988   -2.4481   -1.3288 C   0  0  0  0  0  0  0  0  0  0  0  0
   -0.6986   -1.6827   -0.5072 C   0  0  0  0  0  0  0  0  0  0  0  0
    0.9655   -0.2084    1.5666 S   0  0  0  0  0  0  0  0  0  0  0  0
    3.1739    0.7873    0.1063 H   0  0  0  0  0  0  0  0  0  0  0  0
    3.4796   -0.7649   -0.6651 H   0  0  0  0  0  0  0  0  0  0  0  0
    2.6603    0.5178   -1.5558 H   0  0  0  0  0  0  0  0  0  0  0  0
    1.9693   -1.3375   -2.5829 H   0  0  0  0  0  0  0  0  0  0  0  0
    0.5357   -2.6808   -4.0185 H   0  0  0  0  0  0  0  0  0  0  0  0
   -1.6995   -3.4158   -3.2398 H   0  0  0  0  0  0  0  0  0  0  0  0
   -2.4742   -2.7614   -0.9778 H   0  0  0  0  0  0  0  0  0  0  0  0
   -1.0689   -1.4003    0.4702 H   0  0  0  0  0  0  0  0  0  0  0  0
    1.8478    0.7580    1.8433 H   0  0  0  0  0  0  0  0  0  0  0  0
  1  2  1  0
  1 10  1  0
  1 11  1  0
  1 12  1  0
  2  3  1  0
  2  9  1  0
  3  4  2  0
  3  8  1  0
  4  5  1  0
  4 13  1  0
  5  6  2  0
  5 14  1  0
  6  7  1  0
  6 15  1  0
  7  8  2  0
  7 16  1  0
  8 17  1  0
  9 18  1  0
M  RAD  1   2   2
M  END
>  <reaction>  (2) 
rxn_1786

>  <mol_properties>  (2) 
{"1": {"label": "acceptor", "atom_type": "Cs"}}

>  <type>  (2) 
r2

$$$$

     RDKit          3D

 19 19  0  0  0  0  0  0  0  0999 V2000
    2.2396    0.0552    0.8759 C   0  0  0  0  0  0  0  0  0  0  0  0
    1.4030   -0.9182    0.0491 C   0  0  0  0  0  0  0  0  0  0  0  0
    1.9465   -1.1096   -1.3460 C   0  0  0  0  0  0  0  0  0  0  0  0
    3.2062   -1.6607   -1.5671 C   0  0  0  0  0  0  0  0  0  0  0  0
    3.7015   -1.7950   -2.8519 C   0  0  0  0  0  0  0  0  0  0  0  0
    2.9436   -1.3845   -3.9410 C   0  0  0  0  0  0  0  0  0  0  0  0
    1.6880   -0.8403   -3.7327 C   0  0  0  0  0  0  0  0  0  0  0  0
    1.1950   -0.7046   -2.4420 C   0  0  0  0  0  0  0  0  0  0  0  0
    1.2970   -2.4864    0.9925 S   0  0  0  0  0  0  0  0  0  0  0  0
    2.2863    1.0196    0.3684 H   0  0  0  0  0  0  0  0  0  0  0  0
    1.8023    0.2034    1.8644 H   0  0  0  0  0  0  0  0  0  0  0  0
    3.2592   -0.3118    1.0018 H   0  0  0  0  0  0  0  0  0  0  0  0
    0.3897   -0.5237   -0.0274 H   0  0  0  0  0  0  0  0  0  0  0  0
    3.7943   -2.0027   -0.7240 H   0  0  0  0  0  0  0  0  0  0  0  0
    4.6828   -2.2258   -3.0068 H   0  0  0  0  0  0  0  0  0  0  0  0
    3.3313   -1.4930   -4.9459 H   0  0  0  0  0  0  0  0  0  0  0  0
    1.0868   -0.5204   -4.5746 H   0  0  0  0  0  0  0  0  0  0  0  0
    0.2111   -0.2764   -2.2859 H   0  0  0  0  0  0  0  0  0  0  0  0
    0.6371   -3.1863    0.0608 H   0  0  0  0  0  0  0  0  0  0  0  0
  1  2  1  0
  1 10  1  0
  1 11  1  0
  1 12  1  0
  2  3  1  0
  2  9  1  0
  2 13  1  0
  3  4  2  0
  3  8  1  0
  4  5  1  0
  4 14  1  0
  5  6  2  0
  5 15  1  0
  6  7  1  0
  6 16  1  0
  7  8  2  0
  7 17  1  0
  8 18  1  0
  9 19  1  0
M  END
>  <reaction>  (3) 
rxn_1786

>  <mol_properties>  (3) 
{"0": {"label": "a_hydrogen", "atom_type": "H0"}, "2": {"label": "acceptor", "atom_type": "Cs"}}

>  <type>  (3) 
r2h

$$$$

     RDKit          3D

 26 25  0  0  0  0  0  0  0  0999 V2000
    0.7650   -1.9846   -3.1771 C   0  0  0  0  0  0  0  0  0  0  0  0
    0.1063   -2.1142   -2.1748 C   0  0  0  0  0  0  0  0  0  0  0  0
   -0.6411   -2.1269   -1.0031 C   0  0  0  0  0  3  0  0  0  0  0  0
   -1.3082   -3.0609   -0.3560 C   0  0  0  0  0  0  0  0  0  0  0  0
    1.3425   -1.9063   -4.0667 H   0  0  0  0  0  0  0  0  0  0  0  0
   -0.7599   -0.8411   -0.3665 H   0  0  0  0  0  0  0  0  0  0  0  0
   -1.8552   -2.8253    0.5503 H   0  0  0  0  0  0  0  0  0  0  0  0
   -1.3422   -4.0879   -0.7093 H   0  0  0  0  0  0  0  0  0  0  0  0
   -1.6748    1.0213   -1.0273 C   0  0  0  0  0  0  0  0  0  0  0  0
   -0.9887    0.3017    0.1212 C   0  0  1  0  0  0  0  0  0  0  0  0
    0.3498    0.8669    0.4951 C   0  0  0  0  0  0  0  0  0  0  0  0
    0.5914    1.5311    1.6940 C   0  0  0  0  0  0  0  0  0  0  0  0
    1.8459    2.0519    1.9756 C   0  0  0  0  0  0  0  0  0  0  0  0
    2.8822    1.9124    1.0678 C   0  0  0  0  0  0  0  0  0  0  0  0
    2.6535    1.2509   -0.1303 C   0  0  0  0  0  0  0  0  0  0  0  0
    1.4011    0.7365   -0.4144 C   0  0  0  0  0  0  0  0  0  0  0  0
   -2.1663    0.0289    1.4467 S   0  0  0  0  0  0  0  0  0  0  0  0
   -2.5872    0.5013   -1.3231 H   0  0  0  0  0  0  0  0  0  0  0  0
   -1.9256    2.0478   -0.7495 H   0  0  0  0  0  0  0  0  0  0  0  0
   -1.0081    1.0565   -1.8894 H   0  0  0  0  0  0  0  0  0  0  0  0
   -0.2125    1.6572    2.4073 H   0  0  0  0  0  0  0  0  0  0  0  0
    2.0100    2.5709    2.9117 H   0  0  0  0  0  0  0  0  0  0  0  0
    3.8621    2.3147    1.2911 H   0  0  0  0  0  0  0  0  0  0  0  0
    3.4565    1.1304   -0.8466 H   0  0  0  0  0  0  0  0  0  0  0  0
    1.2394    0.2141   -1.3495 H   0  0  0  0  0  0  0  0  0  0  0  0
   -1.3256   -0.5792    2.2951 H   0  0  0  0  0  0  0  0  0  0  0  0
  1  2  3  0
  1  5  1  0
  2  3  1  0
  3  4  2  3
  4  7  1  0
  4  8  1  0
 10  6  1  6
  9 10  1  0
  9 18  1  0
  9 19  1  0
  9 20  1  0
 10 11  1  0
 10 17  1  0
 11 12  2  0
 11 16  1  0
 12 13  1  0
 12 21  1  0
 13 14  2  0
 13 22  1  0
 14 15  1  0
 14 23  1  0
 15 16  2  0
 15 24  1  0
 16 25  1  0
 17 26  1  0
M  RAD  1   3   2
M  END
>  <reaction>  (4) 
rxn_1786

>  <mol_properties>  (4) 
{"1": {"label": "*4", "atom_type": "Ct"}, "2": {"label": "*3", "atom_type": "Cd"}, "5": {"label": "*2", "atom_type": "H0"}, "9": {"label": "*1", "atom_type": "Cs"}, "10": {"label": "*0", "atom_type": "Cd"}}

>  <type>  (4) 
ts

$$$$

     RDKit          3D

 26 25  0  0  0  0  0  0  0  0999 V2000
   -0.5532   -2.5625   -3.1081 C   0  0  0  0  0  0  0  0  0  0  0  0
   -0.5532   -2.5625   -1.9087 C   0  0  0  0  0  0  0  0  0  0  0  0
   -0.5532   -2.5307   -0.4835 C   0  0  0  0  0  0  0  0  0  0  0  0
   -0.5532   -3.6163    0.2828 C   0  0  0  0  0  0  0  0  0  0  0  0
   -0.5532   -2.5625   -4.1715 H   0  0  0  0  0  0  0  0  0  0  0  0
   -0.5532   -1.3480    0.0611 H   0  0  0  0  0  0  0  0  0  0  0  0
   -0.5532   -3.5316    1.3614 H   0  0  0  0  0  0  0  0  0  0  0  0
   -0.5532   -4.6107   -0.1449 H   0  0  0  0  0  0  0  0  0  0  0  0
   -1.8075   -0.0237    1.4682 C   0  0  0  0  0  0  0  0  0  0  0  0
   -0.5533   -0.1598    0.6083 C   0  0  0  0  0  3  0  0  0  0  0  0
    0.0246    1.1765    0.2103 C   0  0  0  0  0  0  0  0  0  0  0  0
    0.5067    2.0732    1.1606 C   0  0  0  0  0  0  0  0  0  0  0  0
    0.9997    3.3081    0.7787 C   0  0  0  0  0  0  0  0  0  0  0  0
    1.0241    3.6681   -0.5625 C   0  0  0  0  0  0  0  0  0  0  0  0
    0.5523    2.7822   -1.5158 C   0  0  0  0  0  0  0  0  0  0  0  0
    0.0558    1.5447   -1.1289 C   0  0  0  0  0  0  0  0  0  0  0  0
    0.6361   -1.2010    1.5366 S   0  0  0  0  0  0  0  0  0  0  0  0
   -2.2244   -1.0030    1.7080 H   0  0  0  0  0  0  0  0  0  0  0  0
   -1.5889    0.4957    2.4023 H   0  0  0  0  0  0  0  0  0  0  0  0
   -2.5605    0.5517    0.9280 H   0  0  0  0  0  0  0  0  0  0  0  0
    0.5105    1.7909    2.2066 H   0  0  0  0  0  0  0  0  0  0  0  0
    1.3713    3.9937    1.5301 H   0  0  0  0  0  0  0  0  0  0  0  0
    1.4131    4.6335   -0.8600 H   0  0  0  0  0  0  0  0  0  0  0  0
    0.5700    3.0507   -2.5646 H   0  0  0  0  0  0  0  0  0  0  0  0
   -0.3133    0.8561   -1.8807 H   0  0  0  0  0  0  0  0  0  0  0  0
    1.6502   -1.0936    0.6686 H   0  0  0  0  0  0  0  0  0  0  0  0
  1  2  3  0
  1  5  1  0
  2  3  1  0
  3  4  2  3
  3  6  1  0
  4  7  1  0
  4  8  1  0
  9 10  1  0
  9 18  1  0
  9 19  1  0
  9 20  1  0
 10 11  1  0
 10 17  1  0
 11 12  2  0
 11 16  1  0
 12 13  1  0
 12 21  1  0
 13 14  2  0
 13 22  1  0
 14 15  1  0
 14 23  1  0
 15 16  2  0
 15 24  1  0
 16 25  1  0
 17 26  1  0
M  RAD  1  10   2
M  END
>  <reaction>  (5) 
rxn_1786

>  <mol_properties>  (5) 
{"1": {"label": "*4", "atom_type": "Ct"}, "2": {"label": "*3", "atom_type": "Cd"}, "5": {"label": "*2", "atom_type": "H0"}, "9": {"label": "*1", "atom_type": "Cs"}, "10": {"label": "*0", "atom_type": "Cd"}}

>  <type>  (5) 
unop_1

>  <geom_source>  (5) 
Heuristics

$$$$

     RDKit          3D

 26 25  0  0  0  0  0  0  0  0999 V2000
   -0.7266   -2.1302   -3.8142 C   0  0  0  0  0  0  0  0  0  0  0  0
   -0.7266   -2.1302   -2.6148 C   0  0  0  0  0  0  0  0  0  0  0  0
   -0.7266   -2.0984   -1.1896 C   0  0  0  0  0  0  0  0  0  0  0  0
   -0.7266   -3.1840   -0.4233 C   0  0  0  0  0  0  0  0  0  0  0  0
   -0.7266   -2.1302   -4.8776 H   0  0  0  0  0  0  0  0  0  0  0  0
   -0.7267   -0.9158   -0.6450 H   0  0  0  0  0  0  0  0  0  0  0  0
   -0.7266   -3.0993    0.6553 H   0  0  0  0  0  0  0  0  0  0  0  0
   -0.7266   -4.1784   -0.8510 H   0  0  0  0  0  0  0  0  0  0  0  0
   -1.4508    1.2361   -1.0349 C   0  0  0  0  0  0  0  0  0  0  0  0
   -0.7267    0.2724   -0.0978 C   0  0  0  0  0  3  0  0  0  0  0  0
    0.5169    0.8770    0.5074 C   0  0  0  0  0  0  0  0  0  0  0  0
    0.4529    1.9890    1.3434 C   0  0  0  0  0  0  0  0  0  0  0  0
    1.6071    2.5504    1.8597 C   0  0  0  0  0  0  0  0  0  0  0  0
    2.8479    2.0069    1.5530 C   0  0  0  0  0  0  0  0  0  0  0  0
    2.9225    0.8984    0.7274 C   0  0  0  0  0  0  0  0  0  0  0  0
    1.7624    0.3390    0.2089 C   0  0  0  0  0  0  0  0  0  0  0  0
   -1.9374   -0.2766    1.1644 S   0  0  0  0  0  0  0  0  0  0  0  0
   -2.3224    0.7601   -1.4866 H   0  0  0  0  0  0  0  0  0  0  0  0
   -1.7831    2.1277   -0.5013 H   0  0  0  0  0  0  0  0  0  0  0  0
   -0.7744    1.5494   -1.8311 H   0  0  0  0  0  0  0  0  0  0  0  0
   -0.5127    2.4055    1.6040 H   0  0  0  0  0  0  0  0  0  0  0  0
    1.5401    3.4147    2.5085 H   0  0  0  0  0  0  0  0  0  0  0  0
    3.7500    2.4454    1.9603 H   0  0  0  0  0  0  0  0  0  0  0  0
    3.8842    0.4640    0.4847 H   0  0  0  0  0  0  0  0  0  0  0  0
    1.8281   -0.5286   -0.4382 H   0  0  0  0  0  0  0  0  0  0  0  0
   -1.0814   -0.9965    1.9009 H   0  0  0  0  0  0  0  0  0  0  0  0
  1  2  3  0
  1  5  1  0
  2  3  1  0
  3  4  2  3
  3  6  1  0
  4  7  1  0
  4  8  1  0
  9 10  1  0
  9 18  1  0
  9 19  1  0
  9 20  1  0
 10 11  1  0
 10 17  1  0
 11 12  2  0
 11 16  1  0
 12 13  1  0
 12 21  1  0
 13 14  2  0
 13 22  1  0
 14 15  1  0
 14 23  1  0
 15 16  2  0
 15 24  1  0
 16 25  1  0
 17 26  1  0
M  RAD  1  10   2
M  END
>  <reaction>  (6) 
rxn_1786

>  <mol_properties>  (6) 
{"1": {"label": "*4", "atom_type": "Ct"}, "2": {"label": "*3", "atom_type": "Cd"}, "5": {"label": "*2", "atom_type": "H0"}, "9": {"label": "*1", "atom_type": "Cs"}, "10": {"label": "*0", "atom_type": "Cd"}}

>  <type>  (6) 
unop_2

>  <geom_source>  (6) 
Heuristics

$$$$

     RDKit          3D

 26 25  0  0  0  0  0  0  0  0999 V2000
   -0.0815   -2.6497   -2.8222 C   0  0  0  0  0  0  0  0  0  0  0  0
   -0.0815   -2.6497   -1.6228 C   0  0  0  0  0  0  0  0  0  0  0  0
   -0.0815   -2.6179   -0.1977 C   0  0  0  0  0  0  0  0  0  0  0  0
   -0.0815   -3.7035    0.5686 C   0  0  0  0  0  0  0  0  0  0  0  0
   -0.0815   -2.6497   -3.8857 H   0  0  0  0  0  0  0  0  0  0  0  0
   -0.0815   -1.4353    0.3470 H   0  0  0  0  0  0  0  0  0  0  0  0
   -0.0815   -3.6188    1.6472 H   0  0  0  0  0  0  0  0  0  0  0  0
   -0.0814   -4.6979    0.1409 H   0  0  0  0  0  0  0  0  0  0  0  0
   -0.8057   -0.3327    2.2356 C   0  0  0  0  0  0  0  0  0  0  0  0
   -0.0815   -0.2471    0.8941 C   0  0  0  0  0  3  0  0  0  0  0  0
   -0.2729    1.0878    0.2162 C   0  0  0  0  0  0  0  0  0  0  0  0
    0.1899    2.2690    0.7908 C   0  0  0  0  0  0  0  0  0  0  0  0
   -0.0268    3.4868    0.1710 C   0  0  0  0  0  0  0  0  0  0  0  0
   -0.7070    3.5458   -1.0384 C   0  0  0  0  0  0  0  0  0  0  0  0
   -1.1666    2.3772   -1.6210 C   0  0  0  0  0  0  0  0  0  0  0  0
   -0.9497    1.1570   -0.9951 C   0  0  0  0  0  0  0  0  0  0  0  0
    1.6821   -0.6440    1.1983 S   0  0  0  0  0  0  0  0  0  0  0  0
   -0.6819   -1.3197    2.6835 H   0  0  0  0  0  0  0  0  0  0  0  0
   -0.4260    0.4133    2.9353 H   0  0  0  0  0  0  0  0  0  0  0  0
   -1.8708   -0.1490    2.0885 H   0  0  0  0  0  0  0  0  0  0  0  0
    0.7397    2.2288    1.7234 H   0  0  0  0  0  0  0  0  0  0  0  0
    0.3398    4.3961    0.6308 H   0  0  0  0  0  0  0  0  0  0  0  0
   -0.8731    4.4991   -1.5237 H   0  0  0  0  0  0  0  0  0  0  0  0
   -1.6948    2.4108   -2.5656 H   0  0  0  0  0  0  0  0  0  0  0  0
   -1.3134    0.2456   -1.4563 H   0  0  0  0  0  0  0  0  0  0  0  0
    2.1133   -0.4096   -0.0477 H   0  0  0  0  0  0  0  0  0  0  0  0
  1  2  3  0
  1  5  1  0
  2  3  1  0
  3  4  2  3
  3  6  1  0
  4  7  1  0
  4  8  1  0
  9 10  1  0
  9 18  1  0
  9 19  1  0
  9 20  1  0
 10 11  1  0
 10 17  1  0
 11 12  2  0
 11 16  1  0
 12 13  1  0
 12 21  1  0
 13 14  2  0
 13 22  1  0
 14 15  1  0
 14 23  1  0
 15 16  2  0
 15 24  1  0
 16 25  1  0
 17 26  1  0
M  RAD  1  10   2
M  END
>  <reaction>  (7) 
rxn_1786

>  <mol_properties>  (7) 
{"1": {"label": "*4", "atom_type": "Ct"}, "2": {"label": "*3", "atom_type": "Cd"}, "5": {"label": "*2", "atom_type": "H0"}, "9": {"label": "*1", "atom_type": "Cs"}, "10": {"label": "*0", "atom_type": "Cd"}}

>  <type>  (7) 
unop_3

>  <geom_source>  (7) 
Heuristics

$$$$

     RDKit          3D

 26 24  0  0  0  0  0  0  0  0999 V2000
   -0.0640   -1.2814   -4.1843 C   0  0  0  0  0  0  0  0  0  0  0  0
   -0.0640   -1.2814   -2.9849 C   0  0  0  0  0  3  0  0  0  0  0  0
   -0.0640   -1.2496   -1.5597 C   0  0  0  0  0  2  0  0  0  0  0  0
   -0.0640   -2.3352   -0.7934 C   0  0  0  0  0  0  0  0  0  0  0  0
   -0.0640   -1.2814   -5.2477 H   0  0  0  0  0  0  0  0  0  0  0  0
   -0.0640   -0.0669   -1.0151 H   0  0  0  0  0  0  0  0  0  0  0  0
   -0.0640   -2.2505    0.2852 H   0  0  0  0  0  0  0  0  0  0  0  0
   -0.0639   -3.3296   -1.2211 H   0  0  0  0  0  0  0  0  0  0  0  0
    1.1902    1.8632   -0.9235 C   0  0  0  0  0  0  0  0  0  0  0  0
   -0.0640    1.1213   -0.4679 C   0  0  0  0  0  3  0  0  0  0  0  0
    0.1682    0.3002    0.7770 C   0  0  0  0  0  0  0  0  0  0  0  0
    0.5222    0.8948    1.9856 C   0  0  0  0  0  0  0  0  0  0  0  0
    0.7658    0.1221    3.1071 C   0  0  0  0  0  0  0  0  0  0  0  0
    0.6553   -1.2608    3.0420 C   0  0  0  0  0  0  0  0  0  0  0  0
    0.2988   -1.8618    1.8470 C   0  0  0  0  0  0  0  0  0  0  0  0
    0.0576   -1.0836    0.7229 C   0  0  0  0  0  3  0  0  0  0  0  0
   -1.3919    2.3679   -0.2604 S   0  0  0  0  0  0  0  0  0  0  0  0
    1.0033    2.4162   -1.8451 H   0  0  0  0  0  0  0  0  0  0  0  0
    1.5287    2.5672   -0.1619 H   0  0  0  0  0  0  0  0  0  0  0  0
    1.9930    1.1473   -1.1046 H   0  0  0  0  0  0  0  0  0  0  0  0
    0.5895    1.9742    2.0494 H   0  0  0  0  0  0  0  0  0  0  0  0
    1.0397    0.6000    4.0394 H   0  0  0  0  0  0  0  0  0  0  0  0
    0.8432   -1.8640    3.9211 H   0  0  0  0  0  0  0  0  0  0  0  0
    0.2060   -2.9389    1.7856 H   0  0  0  0  0  0  0  0  0  0  0  0
   -0.2200   -1.5609   -0.2103 H   0  0  0  0  0  0  0  0  0  0  0  0
   -2.3186    1.5315    0.2243 H   0  0  0  0  0  0  0  0  0  0  0  0
  1  2  3  0
  1  5  1  0
  3  4  1  0
  3  6  1  0
  4  7  1  0
  4  8  1  0
  4 25  1  0
  9 10  1  0
  9 18  1  0
  9 19  1  0
  9 20  1  0
 10 11  1  0
 10 17  1  0
 11 12  2  0
 11 16  1  0
 12 13  1  0
 12 21  1  0
 13 14  2  0
 13 22  1  0
 14 15  1  0
 14 23  1  0
 15 16  2  0
 15 24  1  0
 17 26  1  0
M  CHG  2  10   1  16  -1
M  RAD  2   2   2   3   3
M  END
>  <reaction>  (8) 
rxn_1786

>  <mol_properties>  (8) 
{"1": {"label": "*4", "atom_type": "Ct"}, "2": {"label": "*3", "atom_type": "Cd"}, "5": {"label": "*2", "atom_type": "H0"}, "9": {"label": "*1", "atom_type": "Cs"}, "10": {"label": "*0", "atom_type": "Cd"}}

>  <type>  (8) 
unop_4

>  <geom_source>  (8) 
Heuristics

$$$$

     RDKit          3D

 26 25  0  0  0  0  0  0  0  0999 V2000
    0.6941   -2.3821   -2.8506 C   0  0  0  0  0  0  0  0  0  0  0  0
    0.6941   -2.3821   -1.6512 C   0  0  0  0  0  0  0  0  0  0  0  0
    0.6941   -2.3503   -0.2260 C   0  0  0  0  0  0  0  0  0  0  0  0
    0.6941   -3.4359    0.5402 C   0  0  0  0  0  0  0  0  0  0  0  0
    0.6941   -2.3821   -3.9141 H   0  0  0  0  0  0  0  0  0  0  0  0
    0.6941   -1.1677    0.3186 H   0  0  0  0  0  0  0  0  0  0  0  0
    0.6941   -3.3512    1.6189 H   0  0  0  0  0  0  0  0  0  0  0  0
    0.6942   -4.4303    0.1125 H   0  0  0  0  0  0  0  0  0  0  0  0
    0.6941   -0.1462    2.3834 C   0  0  0  0  0  0  0  0  0  0  0  0
    0.6941    0.0205    0.8657 C   0  0  0  0  0  3  0  0  0  0  0  0
   -0.5134    0.7755    0.3655 C   0  0  0  0  0  0  0  0  0  0  0  0
   -0.7474    2.0987    0.7313 C   0  0  0  0  0  0  0  0  0  0  0  0
   -1.8787    2.7625    0.2912 C   0  0  0  0  0  0  0  0  0  0  0  0
   -2.7956    2.1162   -0.5277 C   0  0  0  0  0  0  0  0  0  0  0  0
   -2.5700    0.8027   -0.9017 C   0  0  0  0  0  0  0  0  0  0  0  0
   -1.4350    0.1387   -0.4561 C   0  0  0  0  0  0  0  0  0  0  0  0
    2.2763    0.8227    0.4036 S   0  0  0  0  0  0  0  0  0  0  0  0
    1.5566   -0.7277    2.7121 H   0  0  0  0  0  0  0  0  0  0  0  0
    0.7201    0.8222    2.8851 H   0  0  0  0  0  0  0  0  0  0  0  0
   -0.2137   -0.6651    2.6942 H   0  0  0  0  0  0  0  0  0  0  0  0
   -0.0260    2.6160    1.3523 H   0  0  0  0  0  0  0  0  0  0  0  0
   -2.0458    3.7914    0.5843 H   0  0  0  0  0  0  0  0  0  0  0  0
   -3.6788    2.6379   -0.8738 H   0  0  0  0  0  0  0  0  0  0  0  0
   -3.2762    0.2901   -1.5428 H   0  0  0  0  0  0  0  0  0  0  0  0
   -1.2650   -0.8905   -0.7518 H   0  0  0  0  0  0  0  0  0  0  0  0
    2.0099    0.9555   -0.9021 H   0  0  0  0  0  0  0  0  0  0  0  0
  1  2  3  0
  1  5  1  0
  2  3  1  0
  3  4  2  3
  3  6  1  0
  4  7  1  0
  4  8  1  0
  9 10  1  0
  9 18  1  0
  9 19  1  0
  9 20  1  0
 10 11  1  0
 10 17  1  0
 11 12  2  0
 11 16  1  0
 12 13  1  0
 12 21  1  0
 13 14  2  0
 13 22  1  0
 14 15  1  0
 14 23  1  0
 15 16  2  0
 15 24  1  0
 16 25  1  0
 17 26  1  0
M  RAD  1  10   2
M  END
>  <reaction>  (9) 
rxn_1786

>  <mol_properties>  (9) 
{"1": {"label": "*4", "atom_type": "Ct"}, "2": {"label": "*3", "atom_type": "Cd"}, "5": {"label": "*2", "atom_type": "H0"}, "9": {"label": "*1", "atom_type": "Cs"}, "10": {"label": "*0", "atom_type": "Cd"}}

>  <type>  (9) 
unop_5

>  <geom_source>  (9) 
Heuristics

$$$$

     RDKit          3D

 26 25  0  0  0  0  0  0  0  0999 V2000
    0.4337   -1.2173   -4.0548 C   0  0  0  0  0  0  0  0  0  0  0  0
    0.4337   -1.2173   -2.8554 C   0  0  0  0  0  0  0  0  0  0  0  0
    0.4337   -1.1855   -1.4303 C   0  0  0  0  0  0  0  0  0  0  0  0
    0.4337   -2.2711   -0.6640 C   0  0  0  0  0  0  0  0  0  0  0  0
    0.4337   -1.2173   -5.1183 H   0  0  0  0  0  0  0  0  0  0  0  0
    0.4337   -0.0029   -0.8856 H   0  0  0  0  0  0  0  0  0  0  0  0
    0.4337   -2.1864    0.4147 H   0  0  0  0  0  0  0  0  0  0  0  0
    0.4337   -3.2655   -1.0917 H   0  0  0  0  0  0  0  0  0  0  0  0
    1.8819    1.6244   -0.1363 C   0  0  0  0  0  0  0  0  0  0  0  0
    0.4336    1.1853   -0.3385 C   0  0  0  0  0  3  0  0  0  0  0  0
   -0.0479    0.2568    0.7497 C   0  0  0  0  0  0  0  0  0  0  0  0
   -0.1277    0.6705    2.0771 C   0  0  0  0  0  0  0  0  0  0  0  0
   -0.5375   -0.2063    3.0656 C   0  0  0  0  0  0  0  0  0  0  0  0
   -0.8801   -1.5133    2.7442 C   0  0  0  0  0  0  0  0  0  0  0  0
   -0.8095   -1.9334    1.4271 C   0  0  0  0  0  0  0  0  0  0  0  0
   -0.3953   -1.0517    0.4379 C   0  0  0  0  0  0  0  0  0  0  0  0
   -0.5836    2.7038   -0.4796 S   0  0  0  0  0  0  0  0  0  0  0  0
    2.2144    2.2624   -0.9564 H   0  0  0  0  0  0  0  0  0  0  0  0
    1.9986    2.1755    0.7980 H   0  0  0  0  0  0  0  0  0  0  0  0
    2.5278    0.7463   -0.0954 H   0  0  0  0  0  0  0  0  0  0  0  0
    0.1175    1.6945    2.3322 H   0  0  0  0  0  0  0  0  0  0  0  0
   -0.5945    0.1312    4.0929 H   0  0  0  0  0  0  0  0  0  0  0  0
   -1.2036   -2.1974    3.5183 H   0  0  0  0  0  0  0  0  0  0  0  0
   -1.0778   -2.9490    1.1644 H   0  0  0  0  0  0  0  0  0  0  0  0
   -0.3412   -1.3876   -0.5916 H   0  0  0  0  0  0  0  0  0  0  0  0
   -1.7729    2.0913   -0.5406 H   0  0  0  0  0  0  0  0  0  0  0  0
  1  2  3  0
  1  5  1  0
  2  3  1  0
  3  4  2  3
  3  6  1  0
  4  7  1  0
  4  8  1  0
  9 10  1  0
  9 18  1  0
  9 19  1  0
  9 20  1  0
 10 11  1  0
 10 17  1  0
 11 12  2  0
 11 16  1  0
 12 13  1  0
 12 21  1  0
 13 14  2  0
 13 22  1  0
 14 15  1  0
 14 23  1  0
 15 16  2  0
 15 24  1  0
 16 25  1  0
 17 26  1  0
M  RAD  1  10   2
M  END
>  <reaction>  (10) 
rxn_1786

>  <mol_properties>  (10) 
{"1": {"label": "*4", "atom_type": "Ct"}, "2": {"label": "*3", "atom_type": "Cd"}, "5": {"label": "*2", "atom_type": "H0"}, "9": {"label": "*1", "atom_type": "Cs"}, "10": {"label": "*0", "atom_type": "Cd"}}

>  <type>  (10) 
unop_6

>  <geom_source>  (10) 
Heuristics

$$$$

     RDKit          3D

 26 25  0  0  0  0  0  0  0  0999 V2000
    0.8576   -1.3653   -3.7414 C   0  0  0  0  0  0  0  0  0  0  0  0
    0.8576   -1.3653   -2.5420 C   0  0  0  0  0  0  0  0  0  0  0  0
    0.8576   -1.3335   -1.1168 C   0  0  0  0  0  0  0  0  0  0  0  0
    0.8576   -2.4191   -0.3505 C   0  0  0  0  0  0  0  0  0  0  0  0
    0.8576   -1.3653   -4.8048 H   0  0  0  0  0  0  0  0  0  0  0  0
    0.8575   -0.1508   -0.5722 H   0  0  0  0  0  0  0  0  0  0  0  0
    0.8576   -2.3344    0.7281 H   0  0  0  0  0  0  0  0  0  0  0  0
    0.8576   -3.4135   -0.7782 H   0  0  0  0  0  0  0  0  0  0  0  0
    2.1118    1.1735    0.8349 C   0  0  0  0  0  0  0  0  0  0  0  0
    0.8575    1.0374   -0.0250 C   0  0  0  0  0  3  0  0  0  0  0  0
   -0.2496    0.2910    0.6787 C   0  0  0  0  0  0  0  0  0  0  0  0
   -0.8344    0.7839    1.8426 C   0  0  0  0  0  0  0  0  0  0  0  0
   -1.8234    0.0676    2.4929 C   0  0  0  0  0  0  0  0  0  0  0  0
   -2.2497   -1.1541    1.9884 C   0  0  0  0  0  0  0  0  0  0  0  0
   -1.6790   -1.6508    0.8292 C   0  0  0  0  0  0  0  0  0  0  0  0
   -0.6849   -0.9306    0.1805 C   0  0  0  0  0  0  0  0  0  0  0  0
    0.3618    2.7253   -0.5404 S   0  0  0  0  0  0  0  0  0  0  0  0
    2.9068    1.6821    0.2877 H   0  0  0  0  0  0  0  0  0  0  0  0
    1.9046    1.7380    1.7452 H   0  0  0  0  0  0  0  0  0  0  0  0
    2.4668    0.1832    1.1230 H   0  0  0  0  0  0  0  0  0  0  0  0
   -0.5220    1.7461    2.2303 H   0  0  0  0  0  0  0  0  0  0  0  0
   -2.2682    0.4650    3.3967 H   0  0  0  0  0  0  0  0  0  0  0  0
   -3.0258   -1.7121    2.4966 H   0  0  0  0  0  0  0  0  0  0  0  0
   -2.0062   -2.6004    0.4247 H   0  0  0  0  0  0  0  0  0  0  0  0
   -0.2412   -1.3259   -0.7264 H   0  0  0  0  0  0  0  0  0  0  0  0
   -0.7691    2.3733   -1.1653 H   0  0  0  0  0  0  0  0  0  0  0  0
  1  2  3  0
  1  5  1  0
  2  3  1  0
  3  4  2  3
  3  6  1  0
  4  7  1  0
  4  8  1  0
  9 10  1  0
  9 18  1  0
  9 19  1  0
  9 20  1  0
 10 11  1  0
 10 17  1  0
 11 12  2  0
 11 16  1  0
 12 13  1  0
 12 21  1  0
 13 14  2  0
 13 22  1  0
 14 15  1  0
 14 23  1  0
 15 16  2  0
 15 24  1  0
 16 25  1  0
 17 26  1  0
M  RAD  1  10   2
M  END
>  <reaction>  (11) 
rxn_1786

>  <mol_properties>  (11) 
{"1": {"label": "*4", "atom_type": "Ct"}, "2": {"label": "*3", "atom_type": "Cd"}, "5": {"label": "*2", "atom_type": "H0"}, "9": {"label": "*1", "atom_type": "Cs"}, "10": {"label": "*0", "atom_type": "Cd"}}

>  <type>  (11) 
unop_7

>  <geom_source>  (11) 
Heuristics

$$$$

     RDKit          3D

 26 25  0  0  0  0  0  0  0  0999 V2000
   -0.7093   -2.4199   -3.4187 C   0  0  0  0  0  0  0  0  0  0  0  0
   -0.7093   -2.4199   -2.2193 C   0  0  0  0  0  0  0  0  0  0  0  0
   -0.7093   -2.3881   -0.7941 C   0  0  0  0  0  0  0  0  0  0  0  0
   -0.7093   -3.4737   -0.0278 C   0  0  0  0  0  0  0  0  0  0  0  0
   -0.7093   -2.4199   -4.4821 H   0  0  0  0  0  0  0  0  0  0  0  0
   -0.7094   -1.2055   -0.2495 H   0  0  0  0  0  0  0  0  0  0  0  0
   -0.7093   -3.3890    1.0508 H   0  0  0  0  0  0  0  0  0  0  0  0
   -0.7093   -4.4681   -0.4555 H   0  0  0  0  0  0  0  0  0  0  0  0
   -2.1577    0.4217    0.4998 C   0  0  0  0  0  0  0  0  0  0  0  0
   -0.7094   -0.0173    0.2977 C   0  0  0  0  0  3  0  0  0  0  0  0
    0.2518    1.1463    0.2791 C   0  0  0  0  0  0  0  0  0  0  0  0
    0.4245    1.9655    1.3920 C   0  0  0  0  0  0  0  0  0  0  0  0
    1.2838    3.0488    1.3437 C   0  0  0  0  0  0  0  0  0  0  0  0
    1.9906    3.3306    0.1819 C   0  0  0  0  0  0  0  0  0  0  0  0
    1.8305    2.5195   -0.9284 C   0  0  0  0  0  0  0  0  0  0  0  0
    0.9654    1.4348   -0.8774 C   0  0  0  0  0  0  0  0  0  0  0  0
   -0.3207   -1.2402    1.6068 S   0  0  0  0  0  0  0  0  0  0  0  0
   -2.8328   -0.4347    0.4703 H   0  0  0  0  0  0  0  0  0  0  0  0
   -2.2847    0.9276    1.4580 H   0  0  0  0  0  0  0  0  0  0  0  0
   -2.4430    1.1165   -0.2912 H   0  0  0  0  0  0  0  0  0  0  0  0
   -0.1073    1.7395    2.3084 H   0  0  0  0  0  0  0  0  0  0  0  0
    1.4071    3.6758    2.2179 H   0  0  0  0  0  0  0  0  0  0  0  0
    2.6650    4.1767    0.1466 H   0  0  0  0  0  0  0  0  0  0  0  0
    2.3793    2.7275   -1.8383 H   0  0  0  0  0  0  0  0  0  0  0  0
    0.8438    0.8043   -1.7511 H   0  0  0  0  0  0  0  0  0  0  0  0
    0.9745   -1.3911    1.3016 H   0  0  0  0  0  0  0  0  0  0  0  0
  1  2  3  0
  1  5  1  0
  2  3  1  0
  3  4  2  3
  3  6  1  0
  4  7  1  0
  4  8  1  0
  9 10  1  0
  9 18  1  0
  9 19  1  0
  9 20  1  0
 10 11  1  0
 10 17  1  0
 11 12  2  0
 11 16  1  0
 12 13  1  0
 12 21  1  0
 13 14  2  0
 13 22  1  0
 14 15  1  0
 14 23  1  0
 15 16  2  0
 15 24  1  0
 16 25  1  0
 17 26  1  0
M  RAD  1  10   2
M  END
>  <reaction>  (12) 
rxn_1786

>  <mol_properties>  (12) 
{"1": {"label": "*4", "atom_type": "Ct"}, "2": {"label": "*3", "atom_type": "Cd"}, "5": {"label": "*2", "atom_type": "H0"}, "9": {"label": "*1", "atom_type": "Cs"}, "10": {"label": "*0", "atom_type": "Cd"}}

>  <type>  (12) 
unop_8

>  <geom_source>  (12) 
Heuristics

$$$$

     RDKit          3D

 26 25  0  0  0  0  0  0  0  0999 V2000
   -0.4837   -1.5296   -4.1319 C   0  0  0  0  0  0  0  0  0  0  0  0
   -0.4837   -1.5296   -2.9325 C   0  0  0  0  0  0  0  0  0  0  0  0
   -0.4837   -1.4978   -1.5073 C   0  0  0  0  0  0  0  0  0  0  0  0
   -0.4837   -2.5834   -0.7410 C   0  0  0  0  0  0  0  0  0  0  0  0
   -0.4837   -1.5296   -5.1954 H   0  0  0  0  0  0  0  0  0  0  0  0
   -0.4838   -0.3151   -0.9627 H   0  0  0  0  0  0  0  0  0  0  0  0
   -0.4837   -2.4987    0.3376 H   0  0  0  0  0  0  0  0  0  0  0  0
   -0.4837   -3.5778   -1.1688 H   0  0  0  0  0  0  0  0  0  0  0  0
    0.2403    1.8367   -1.3527 C   0  0  0  0  0  0  0  0  0  0  0  0
   -0.4838    0.8731   -0.4156 C   0  0  0  0  0  3  0  0  0  0  0  0
    0.3784    0.4327    0.7424 C   0  0  0  0  0  0  0  0  0  0  0  0
    0.8505    1.3422    1.6855 C   0  0  0  0  0  0  0  0  0  0  0  0
    1.6692    0.9247    2.7197 C   0  0  0  0  0  0  0  0  0  0  0  0
    2.0276   -0.4124    2.8328 C   0  0  0  0  0  0  0  0  0  0  0  0
    1.5595   -1.3257    1.9039 C   0  0  0  0  0  0  0  0  0  0  0  0
    0.7403   -0.9029    0.8658 C   0  0  0  0  0  0  0  0  0  0  0  0
   -2.0325    1.6933    0.1223 S   0  0  0  0  0  0  0  0  0  0  0  0
   -0.3924    2.1072   -2.1992 H   0  0  0  0  0  0  0  0  0  0  0  0
    0.5272    2.7510   -0.8310 H   0  0  0  0  0  0  0  0  0  0  0  0
    1.1470    1.3646   -1.7333 H   0  0  0  0  0  0  0  0  0  0  0  0
    0.5579    2.3830    1.6159 H   0  0  0  0  0  0  0  0  0  0  0  0
    2.0275    1.6444    3.4450 H   0  0  0  0  0  0  0  0  0  0  0  0
    2.6657   -0.7382    3.6444 H   0  0  0  0  0  0  0  0  0  0  0  0
    1.8294   -2.3712    1.9844 H   0  0  0  0  0  0  0  0  0  0  0  0
    0.3781   -1.6233    0.1409 H   0  0  0  0  0  0  0  0  0  0  0  0
   -2.4239    0.7429    0.9808 H   0  0  0  0  0  0  0  0  0  0  0  0
  1  2  3  0
  1  5  1  0
  2  3  1  0
  3  4  2  3
  3  6  1  0
  4  7  1  0
  4  8  1  0
  9 10  1  0
  9 18  1  0
  9 19  1  0
  9 20  1  0
 10 11  1  0
 10 17  1  0
 11 12  2  0
 11 16  1  0
 12 13  1  0
 12 21  1  0
 13 14  2  0
 13 22  1  0
 14 15  1  0
 14 23  1  0
 15 16  2  0
 15 24  1  0
 16 25  1  0
 17 26  1  0
M  RAD  1  10   2
M  END
>  <reaction>  (13) 
rxn_1786

>  <mol_properties>  (13) 
{"1": {"label": "*4", "atom_type": "Ct"}, "2": {"label": "*3", "atom_type": "Cd"}, "5": {"label": "*2", "atom_type": "H0"}, "9": {"label": "*1", "atom_type": "Cs"}, "10": {"label": "*0", "atom_type": "Cd"}}

>  <type>  (13) 
unop_9

>  <geom_source>  (13) 
Heuristics

$$$$

     RDKit          3D

 26 25  0  0  0  0  0  0  0  0999 V2000
   -0.7264   -2.2901   -3.6507 C   0  0  0  0  0  0  0  0  0  0  0  0
   -0.7264   -2.2901   -2.4513 C   0  0  0  0  0  0  0  0  0  0  0  0
   -0.7264   -2.2583   -1.0261 C   0  0  0  0  0  0  0  0  0  0  0  0
   -0.7264   -3.3439   -0.2599 C   0  0  0  0  0  0  0  0  0  0  0  0
   -0.7264   -2.2901   -4.7142 H   0  0  0  0  0  0  0  0  0  0  0  0
   -0.7264   -1.0756   -0.4815 H   0  0  0  0  0  0  0  0  0  0  0  0
   -0.7264   -3.2592    0.8188 H   0  0  0  0  0  0  0  0  0  0  0  0
   -0.7264   -4.3382   -0.6876 H   0  0  0  0  0  0  0  0  0  0  0  0
   -1.9807    0.8545   -0.3900 C   0  0  0  0  0  0  0  0  0  0  0  0
   -0.7264    0.1126    0.0656 C   0  0  0  0  0  3  0  0  0  0  0  0
    0.4164    1.0462    0.3824 C   0  0  0  0  0  0  0  0  0  0  0  0
    0.3290    1.9810    1.4111 C   0  0  0  0  0  0  0  0  0  0  0  0
    1.3737    2.8523    1.6629 C   0  0  0  0  0  0  0  0  0  0  0  0
    2.5285    2.8020    0.8928 C   0  0  0  0  0  0  0  0  0  0  0  0
    2.6280    1.8731   -0.1287 C   0  0  0  0  0  0  0  0  0  0  0  0
    1.5767    1.0019   -0.3803 C   0  0  0  0  0  0  0  0  0  0  0  0
   -1.2005   -0.9401    1.4895 S   0  0  0  0  0  0  0  0  0  0  0  0
   -2.7761    0.1540   -0.6485 H   0  0  0  0  0  0  0  0  0  0  0  0
   -2.3489    1.5206    0.3917 H   0  0  0  0  0  0  0  0  0  0  0  0
   -1.7497    1.4577   -1.2689 H   0  0  0  0  0  0  0  0  0  0  0  0
   -0.5600    2.0119    2.0295 H   0  0  0  0  0  0  0  0  0  0  0  0
    1.2900    3.5730    2.4667 H   0  0  0  0  0  0  0  0  0  0  0  0
    3.3464    3.4823    1.0930 H   0  0  0  0  0  0  0  0  0  0  0  0
    3.5251    1.8223   -0.7329 H   0  0  0  0  0  0  0  0  0  0  0  0
    1.6607    0.2776   -1.1828 H   0  0  0  0  0  0  0  0  0  0  0  0
    0.0296   -1.3894    1.7695 H   0  0  0  0  0  0  0  0  0  0  0  0
  1  2  3  0
  1  5  1  0
  2  3  1  0
  3  4  2  3
  3  6  1  0
  4  7  1  0
  4  8  1  0
  9 10  1  0
  9 18  1  0
  9 19  1  0
  9 20  1  0
 10 11  1  0
 10 17  1  0
 11 12  2  0
 11 16  1  0
 12 13  1  0
 12 21  1  0
 13 14  2  0
 13 22  1  0
 14 15  1  0
 14 23  1  0
 15 16  2  0
 15 24  1  0
 16 25  1  0
 17 26  1  0
M  RAD  1  10   2
M  END
>  <reaction>  (14) 
rxn_1786

>  <mol_properties>  (14) 
{"1": {"label": "*4", "atom_type": "Ct"}, "2": {"label": "*3", "atom_type": "Cd"}, "5": {"label": "*2", "atom_type": "H0"}, "9": {"label": "*1", "atom_type": "Cs"}, "10": {"label": "*0", "atom_type": "Cd"}}

>  <type>  (14) 
unop_10

>  <geom_source>  (14) 
Heuristics

$$$$

     RDKit          3D

 26 25  0  0  0  0  0  0  0  0999 V2000
    1.0484   -1.7692   -3.2880 C   0  0  0  0  0  0  0  0  0  0  0  0
    1.0484   -1.7692   -2.0886 C   0  0  0  0  0  0  0  0  0  0  0  0
    1.0484   -1.7375   -0.6634 C   0  0  0  0  0  0  0  0  0  0  0  0
    1.0484   -2.8230    0.1029 C   0  0  0  0  0  0  0  0  0  0  0  0
    1.0484   -1.7692   -4.3514 H   0  0  0  0  0  0  0  0  0  0  0  0
    1.0484   -0.5548   -0.1188 H   0  0  0  0  0  0  0  0  0  0  0  0
    1.0484   -2.7384    1.1815 H   0  0  0  0  0  0  0  0  0  0  0  0
    1.0485   -3.8174   -0.3248 H   0  0  0  0  0  0  0  0  0  0  0  0
    1.7725    0.5478    1.7698 C   0  0  0  0  0  0  0  0  0  0  0  0
    1.0484    0.6334    0.4284 C   0  0  0  0  0  3  0  0  0  0  0  0
   -0.4422    0.4366    0.5607 C   0  0  0  0  0  0  0  0  0  0  0  0
   -1.2311    1.3209    1.2923 C   0  0  0  0  0  0  0  0  0  0  0  0
   -2.5903    1.1036    1.4317 C   0  0  0  0  0  0  0  0  0  0  0  0
   -3.1874   -0.0006    0.8375 C   0  0  0  0  0  0  0  0  0  0  0  0
   -2.4135   -0.8829    0.1036 C   0  0  0  0  0  0  0  0  0  0  0  0
   -1.0494   -0.6634   -0.0321 C   0  0  0  0  0  0  0  0  0  0  0  0
    1.4888    2.2435   -0.3292 S   0  0  0  0  0  0  0  0  0  0  0  0
    2.8503    0.6550    1.6390 H   0  0  0  0  0  0  0  0  0  0  0  0
    1.4291    1.3269    2.4520 H   0  0  0  0  0  0  0  0  0  0  0  0
    1.5731   -0.4199    2.2318 H   0  0  0  0  0  0  0  0  0  0  0  0
   -0.7760    2.1958    1.7408 H   0  0  0  0  0  0  0  0  0  0  0  0
   -3.1897    1.8010    2.0035 H   0  0  0  0  0  0  0  0  0  0  0  0
   -4.2516   -0.1676    0.9449 H   0  0  0  0  0  0  0  0  0  0  0  0
   -2.8690   -1.7451   -0.3672 H   0  0  0  0  0  0  0  0  0  0  0  0
   -0.4488   -1.3591   -0.6074 H   0  0  0  0  0  0  0  0  0  0  0  0
    0.6865    2.1400   -1.3964 H   0  0  0  0  0  0  0  0  0  0  0  0
  1  2  3  0
  1  5  1  0
  2  3  1  0
  3  4  2  3
  3  6  1  0
  4  7  1  0
  4  8  1  0
  9 10  1  0
  9 18  1  0
  9 19  1  0
  9 20  1  0
 10 11  1  0
 10 17  1  0
 11 12  2  0
 11 16  1  0
 12 13  1  0
 12 21  1  0
 13 14  2  0
 13 22  1  0
 14 15  1  0
 14 23  1  0
 15 16  2  0
 15 24  1  0
 16 25  1  0
 17 26  1  0
M  RAD  1  10   2
M  END
>  <reaction>  (15) 
rxn_1786

>  <mol_properties>  (15) 
{"1": {"label": "*4", "atom_type": "Ct"}, "2": {"label": "*3", "atom_type": "Cd"}, "5": {"label": "*2", "atom_type": "H0"}, "9": {"label": "*1", "atom_type": "Cs"}, "10": {"label": "*0", "atom_type": "Cd"}}

>  <type>  (15) 
unop_11

>  <geom_source>  (15) 
Heuristics

$$$$

     RDKit          3D

 26 25  0  0  0  0  0  0  0  0999 V2000
   -0.6940   -1.8646   -3.9745 C   0  0  0  0  0  0  0  0  0  0  0  0
   -0.6940   -1.8646   -2.7751 C   0  0  0  0  0  0  0  0  0  0  0  0
   -0.6940   -1.8328   -1.3499 C   0  0  0  0  0  0  0  0  0  0  0  0
   -0.6940   -2.9184   -0.5836 C   0  0  0  0  0  0  0  0  0  0  0  0
   -0.6940   -1.8646   -5.0379 H   0  0  0  0  0  0  0  0  0  0  0  0
   -0.6941   -0.6502   -0.8053 H   0  0  0  0  0  0  0  0  0  0  0  0
   -0.6940   -2.8337    0.4950 H   0  0  0  0  0  0  0  0  0  0  0  0
   -0.6940   -3.9128   -1.0113 H   0  0  0  0  0  0  0  0  0  0  0  0
   -0.6941    1.5828   -1.3715 C   0  0  0  0  0  0  0  0  0  0  0  0
   -0.6941    0.5380   -0.2581 C   0  0  0  0  0  3  0  0  0  0  0  0
    0.5134    0.6488    0.6407 C   0  0  0  0  0  0  0  0  0  0  0  0
    0.7474    1.7870    1.4084 C   0  0  0  0  0  0  0  0  0  0  0  0
    1.8786    1.8841    2.1989 C   0  0  0  0  0  0  0  0  0  0  0  0
    2.7956    0.8418    2.2401 C   0  0  0  0  0  0  0  0  0  0  0  0
    2.5700   -0.2964    1.4852 C   0  0  0  0  0  0  0  0  0  0  0  0
    1.4351   -0.3895    0.6910 C   0  0  0  0  0  0  0  0  0  0  0  0
   -2.2763    0.7083    0.6518 S   0  0  0  0  0  0  0  0  0  0  0  0
   -1.5566    1.4545   -2.0270 H   0  0  0  0  0  0  0  0  0  0  0  0
   -0.7202    2.5936   -0.9617 H   0  0  0  0  0  0  0  0  0  0  0  0
    0.2136    1.4817   -1.9678 H   0  0  0  0  0  0  0  0  0  0  0  0
    0.0259    2.5951    1.3977 H   0  0  0  0  0  0  0  0  0  0  0  0
    2.0457    2.7757    2.7902 H   0  0  0  0  0  0  0  0  0  0  0  0
    3.6787    0.9179    2.8616 H   0  0  0  0  0  0  0  0  0  0  0  0
    3.2762   -1.1167    1.5125 H   0  0  0  0  0  0  0  0  0  0  0  0
    1.2650   -1.2833    0.1012 H   0  0  0  0  0  0  0  0  0  0  0  0
   -2.0099   -0.1974    1.6015 H   0  0  0  0  0  0  0  0  0  0  0  0
  1  2  3  0
  1  5  1  0
  2  3  1  0
  3  4  2  3
  3  6  1  0
  4  7  1  0
  4  8  1  0
  9 10  1  0
  9 18  1  0
  9 19  1  0
  9 20  1  0
 10 11  1  0
 10 17  1  0
 11 12  2  0
 11 16  1  0
 12 13  1  0
 12 21  1  0
 13 14  2  0
 13 22  1  0
 14 15  1  0
 14 23  1  0
 15 16  2  0
 15 24  1  0
 16 25  1  0
 17 26  1  0
M  RAD  1  10   2
M  END
>  <reaction>  (16) 
rxn_1786

>  <mol_properties>  (16) 
{"1": {"label": "*4", "atom_type": "Ct"}, "2": {"label": "*3", "atom_type": "Cd"}, "5": {"label": "*2", "atom_type": "H0"}, "9": {"label": "*1", "atom_type": "Cs"}, "10": {"label": "*0", "atom_type": "Cd"}}

>  <type>  (16) 
unop_12

>  <geom_source>  (16) 
Heuristics

$$$$

     RDKit          3D

 26 25  0  0  0  0  0  0  0  0999 V2000
   -0.6058   -2.7723    0.3504 S   0  0  0  0  0  0  0  0  0  0  0  0
   -0.0195   -1.1742   -0.3061 C   0  0  0  0  0  3  0  0  0  0  0  0
    0.2792   -1.2968   -1.7988 C   0  0  0  0  0  0  0  0  0  0  0  0
   -1.0303   -0.0826   -0.0396 C   0  0  0  0  0  0  0  0  0  0  0  0
   -0.6440    1.0761    0.6557 C   0  0  0  0  0  0  0  0  0  0  0  0
   -2.3578   -0.1960   -0.4954 C   0  0  0  0  0  0  0  0  0  0  0  0
   -1.5691    2.0965    0.8979 C   0  0  0  0  0  0  0  0  0  0  0  0
   -3.2788    0.8269   -0.2505 C   0  0  0  0  0  0  0  0  0  0  0  0
   -2.8851    1.9719    0.4461 C   0  0  0  0  0  0  0  0  0  0  0  0
    2.6235   -1.0971    1.4016 C   0  0  0  0  0  0  0  0  0  0  0  0
    2.1808   -0.1305    0.6074 C   0  0  0  0  0  0  0  0  0  0  0  0
    3.0930    0.7457   -0.0767 C   0  0  0  0  0  0  0  0  0  0  0  0
    3.8570    1.4808   -0.6507 C   0  0  0  0  0  0  0  0  0  0  0  0
    1.1933   -0.8797    0.3441 H   0  0  0  0  0  0  0  0  0  0  0  0
   -0.6275   -1.6027   -2.3627 H   0  0  0  0  0  0  0  0  0  0  0  0
    1.0727   -2.0566   -1.9593 H   0  0  0  0  0  0  0  0  0  0  0  0
    0.6423   -0.3242   -2.1934 H   0  0  0  0  0  0  0  0  0  0  0  0
    0.3717    1.1943    1.0112 H   0  0  0  0  0  0  0  0  0  0  0  0
   -2.6798   -1.0759   -1.0380 H   0  0  0  0  0  0  0  0  0  0  0  0
   -1.2648    2.9853    1.4355 H   0  0  0  0  0  0  0  0  0  0  0  0
   -4.2982    0.7321   -0.6019 H   0  0  0  0  0  0  0  0  0  0  0  0
   -3.5992    2.7631    0.6345 H   0  0  0  0  0  0  0  0  0  0  0  0
    1.9152   -1.7416    1.9039 H   0  0  0  0  0  0  0  0  0  0  0  0
    3.6841   -1.2541    1.5576 H   0  0  0  0  0  0  0  0  0  0  0  0
   -0.5806   -2.3143    1.6816 H   0  0  0  0  0  0  0  0  0  0  0  0
    4.5278    2.1260   -1.1545 H   0  0  0  0  0  0  0  0  0  0  0  0
  1  2  1  0
  1 25  1  0
  2  3  1  0
  2  4  1  0
  3 15  1  0
  3 16  1  0
  3 17  1  0
  4  5  2  0
  4  6  1  0
  5  7  1  0
  5 18  1  0
  6  8  2  0
  6 19  1  0
  7  9  2  0
  7 20  1  0
  8  9  1  0
  8 21  1  0
  9 22  1  0
 10 11  2  3
 10 23  1  0
 10 24  1  0
 11 12  1  0
 11 14  1  0
 12 13  3  0
 13 26  1  0
M  RAD  1   2   2
M  END
>  <reaction>  (17) 
rxn_1786

>  <mol_properties>  (17) 
{"1": {"label": "*4", "atom_type": "Ct"}, "2": {"label": "*3", "atom_type": "Cd"}, "5": {"label": "*2", "atom_type": "H0"}, "9": {"label": "*1", "atom_type": "Cs"}, "10": {"label": "*0", "atom_type": "Cd"}}

>  <type>  (17) 
unop_13

>  <geom_source>  (17) 
AutoTST

$$$$
