
     RDKit          3D

  7  6  0  0  0  0  0  0  0  0999 V2000
   -0.6782    0.0507    0.0301 C   0  0  0  0  0  0  0  0  0  0  0  0
    0.8092    0.0996    0.0213 C   0  0  0  0  0  0  0  0  0  0  0  0
    1.7473    0.7521    1.1507 S   0  0  0  0  0  0  0  0  0  0  0  0
   -1.0667    0.5456   -0.8653 H   0  0  0  0  0  0  0  0  0  0  0  0
   -1.0112   -0.9904   -0.0239 H   0  0  0  0  0  0  0  0  0  0  0  0
   -1.0920    0.5225    0.9188 H   0  0  0  0  0  0  0  0  0  0  0  0
    1.2740   -0.3620   -0.8520 H   0  0  0  0  0  0  0  0  0  0  0  0
  1  2  1  0
  1  4  1  0
  1  5  1  0
  1  6  1  0
  2  3  2  0
  2  7  1  0
M  END
>  <reaction>  (1) 
rxn_1985

>  <mol_properties>  (1) 
{"0": {"label": "donator", "atom_type": "Cs"}, "3": {"label": "d_hydrogen", "atom_type": "H0"}}

>  <type>  (1) 
r1h

$$$$

     RDKit          3D

  7  6  0  0  0  0  0  0  0  0999 V2000
   -2.0652    0.3855   -0.2963 S   0  0  0  0  0  0  0  0  0  0  0  0
   -0.7169   -0.5853    0.1792 C   0  0  0  0  0  3  0  0  0  0  0  0
    0.5987   -0.2168    0.0254 C   0  0  0  0  0  0  0  0  0  0  0  0
    1.7547    0.1211   -0.1163 C   0  0  0  0  0  0  0  0  0  0  0  0
   -1.3643    1.4227   -0.7731 H   0  0  0  0  0  0  0  0  0  0  0  0
   -0.9781   -1.5363    0.6220 H   0  0  0  0  0  0  0  0  0  0  0  0
    2.7711    0.4089   -0.2366 H   0  0  0  0  0  0  0  0  0  0  0  0
  1  2  1  0
  1  5  1  0
  2  3  1  0
  2  6  1  0
  3  4  3  0
  4  7  1  0
M  RAD  1   2   2
M  END
>  <reaction>  (2) 
rxn_1985

>  <mol_properties>  (2) 
{"1": {"label": "acceptor", "atom_type": "Cs"}}

>  <type>  (2) 
r2

$$$$

     RDKit          3D

  8  7  0  0  0  0  0  0  0  0999 V2000
   -0.7014    1.0753    1.5530 S   0  0  0  0  0  0  0  0  0  0  0  0
   -0.3105   -0.4583    0.6462 C   0  0  0  0  0  0  0  0  0  0  0  0
    0.0935   -0.2424   -0.7319 C   0  0  0  0  0  0  0  0  0  0  0  0
    0.4431   -0.0604   -1.8621 C   0  0  0  0  0  0  0  0  0  0  0  0
    0.4994    1.6466    1.3970 H   0  0  0  0  0  0  0  0  0  0  0  0
   -1.2277   -1.0477    0.6819 H   0  0  0  0  0  0  0  0  0  0  0  0
    0.4563   -1.0151    1.1841 H   0  0  0  0  0  0  0  0  0  0  0  0
    0.7474    0.1020   -2.8681 H   0  0  0  0  0  0  0  0  0  0  0  0
  1  2  1  0
  1  5  1  0
  2  3  1  0
  2  6  1  0
  2  7  1  0
  3  4  3  0
  4  8  1  0
M  END
>  <reaction>  (3) 
rxn_1985

>  <mol_properties>  (3) 
{"1": {"label": "acceptor", "atom_type": "Cs"}, "7": {"label": "a_hydrogen", "atom_type": "H0"}}

>  <type>  (3) 
r2h

$$$$

     RDKit          3D

 14 12  0  0  0  0  0  0  0  0999 V2000
   -0.6896   -1.1371    1.9809 S   0  0  0  0  0  0  0  0  0  0  0  0
   -0.3880    0.5924    1.7981 C   0  0  0  0  0  3  0  0  0  0  0  0
   -1.4283    1.4246    1.3101 C   0  0  0  0  0  0  0  0  0  0  0  0
   -2.2755    2.1249    0.8260 C   0  0  0  0  0  0  0  0  0  0  0  0
   -1.4246   -1.2822    0.8697 H   0  0  0  0  0  0  0  0  0  0  0  0
    0.1453    0.9750    2.6650 H   0  0  0  0  0  0  0  0  0  0  0  0
   -3.0345    2.7436    0.4105 H   0  0  0  0  0  0  0  0  0  0  0  0
    1.4197    0.7295   -0.2009 C   0  0  0  0  0  0  0  0  0  0  0  0
    1.2932   -0.5561   -0.8068 C   0  0  0  0  0  0  0  0  0  0  0  0
    0.1718   -0.9555   -1.9347 S   0  0  0  0  0  0  0  0  0  0  0  0
    0.5880    0.6671    0.8210 H   0  0  0  0  0  0  0  0  0  0  0  0
    2.3637    0.9500    0.2924 H   0  0  0  0  0  0  0  0  0  0  0  0
    0.9689    1.5621   -0.7346 H   0  0  0  0  0  0  0  0  0  0  0  0
    1.9658   -1.3299   -0.4392 H   0  0  0  0  0  0  0  0  0  0  0  0
  1  2  1  0
  1  5  1  0
  2  3  1  0
  2  6  1  0
  3  4  3  0
  4  7  1  0
  8  9  1  0
  8 11  1  0
  8 12  1  0
  8 13  1  0
  9 10  2  0
  9 14  1  0
M  RAD  1   2   2
M  END
>  <reaction>  (4) 
rxn_1985

>  <mol_properties>  (4) 
{"0": {"label": "*4", "atom_type": "S2s"}, "1": {"label": "*3", "atom_type": "Cs"}, "7": {"label": "*1", "atom_type": "Cs"}, "8": {"label": "*0", "atom_type": "CS"}, "10": {"label": "*2", "atom_type": "H0"}}

>  <type>  (4) 
ts

$$$$

     RDKit          3D

 14 12  0  0  0  0  0  0  0  0999 V2000
   -0.0685    0.4989    2.6965 S   0  0  0  0  0  0  0  0  0  0  0  0
   -0.7477    0.5184    1.0038 C   0  0  0  0  0  0  0  0  0  0  0  0
   -2.1004   -0.0007    0.9045 C   0  0  0  0  0  0  0  0  0  0  0  0
   -3.2152   -0.4285    0.8227 C   0  0  0  0  0  0  0  0  0  0  0  0
   -1.0199    1.2658    3.2437 H   0  0  0  0  0  0  0  0  0  0  0  0
   -0.7055    1.5316    0.6051 H   0  0  0  0  0  0  0  0  0  0  0  0
   -4.2058   -0.8086    0.7499 H   0  0  0  0  0  0  0  0  0  0  0  0
    1.3517    0.5828   -0.5663 C   0  0  0  0  0  0  0  0  0  0  0  0
    1.3517   -0.6156   -1.4485 C   0  0  0  0  0  0  0  0  0  0  0  0
    1.3517   -0.6156   -3.0551 S   0  0  0  0  0  1  0  0  0  0  0  0
    0.3003    0.5505    0.2200 H   0  0  0  0  0  0  0  0  0  0  0  0
    2.2278    0.5559    0.0889 H   0  0  0  0  0  0  0  0  0  0  0  0
    1.3517    1.5066   -1.1410 H   0  0  0  0  0  0  0  0  0  0  0  0
    1.3517   -1.5701   -0.9185 H   0  0  0  0  0  0  0  0  0  0  0  0
  1  2  1  0
  1  5  1  0
  2  3  1  0
  2  6  1  0
  2 11  1  0
  3  4  3  0
  4  7  1  0
  8  9  2  3
  8 12  1  0
  8 13  1  0
  9 10  1  0
  9 14  1  0
M  RAD  1  10   2
M  END
>  <reaction>  (5) 
rxn_1985

>  <mol_properties>  (5) 
{"0": {"label": "*4", "atom_type": "S2s"}, "1": {"label": "*3", "atom_type": "Cs"}, "7": {"label": "*1", "atom_type": "Cs"}, "8": {"label": "*0", "atom_type": "CS"}, "10": {"label": "*2", "atom_type": "H0"}}

>  <type>  (5) 
unop_1

>  <geom_source>  (5) 
Heuristics

$$$$

     RDKit          3D

 14 12  0  0  0  0  0  0  0  0999 V2000
   -0.8872   -1.1746    1.6277 S   0  0  0  0  0  0  0  0  0  0  0  0
   -0.5407    0.5988    1.3784 C   0  0  0  0  0  0  0  0  0  0  0  0
   -1.7293    1.4116    1.1897 C   0  0  0  0  0  0  0  0  0  0  0  0
   -2.7089    2.0816    1.0342 C   0  0  0  0  0  0  0  0  0  0  0  0
   -1.6567   -1.0212    2.7126 H   0  0  0  0  0  0  0  0  0  0  0  0
    0.0428    0.9782    2.2168 H   0  0  0  0  0  0  0  0  0  0  0  0
   -3.5793    2.6768    0.8960 H   0  0  0  0  0  0  0  0  0  0  0  0
    1.5587    0.6632   -0.1916 C   0  0  0  0  0  0  0  0  0  0  0  0
    1.5587   -0.5353   -1.0738 C   0  0  0  0  0  0  0  0  0  0  0  0
    1.5587   -0.5353   -2.6805 S   0  0  0  0  0  1  0  0  0  0  0  0
    0.5073    0.6309    0.5946 H   0  0  0  0  0  0  0  0  0  0  0  0
    2.4348    0.6363    0.4636 H   0  0  0  0  0  0  0  0  0  0  0  0
    1.5586    1.5870   -0.7663 H   0  0  0  0  0  0  0  0  0  0  0  0
    1.5587   -1.4897   -0.5439 H   0  0  0  0  0  0  0  0  0  0  0  0
  1  2  1  0
  1  5  1  0
  2  3  1  0
  2  6  1  0
  2 11  1  0
  3  4  3  0
  4  7  1  0
  8  9  2  3
  8 12  1  0
  8 13  1  0
  9 10  1  0
  9 14  1  0
M  RAD  1  10   2
M  END
>  <reaction>  (6) 
rxn_1985

>  <mol_properties>  (6) 
{"0": {"label": "*4", "atom_type": "S2s"}, "1": {"label": "*3", "atom_type": "Cs"}, "7": {"label": "*1", "atom_type": "Cs"}, "8": {"label": "*0", "atom_type": "CS"}, "10": {"label": "*2", "atom_type": "H0"}}

>  <type>  (6) 
unop_2

>  <geom_source>  (6) 
Heuristics

$$$$

     RDKit          3D

 14 12  0  0  0  0  0  0  0  0999 V2000
   -0.2956    1.3219    2.4791 S   0  0  0  0  0  0  0  0  0  0  0  0
   -0.8184    0.4594    0.9593 C   0  0  0  0  0  0  0  0  0  0  0  0
   -1.7551   -0.6263    1.1892 C   0  0  0  0  0  0  0  0  0  0  0  0
   -2.5272   -1.5211    1.3786 C   0  0  0  0  0  0  0  0  0  0  0  0
   -1.5227    1.6936    2.8646 H   0  0  0  0  0  0  0  0  0  0  0  0
   -1.2433    1.1782    0.2592 H   0  0  0  0  0  0  0  0  0  0  0  0
   -3.2132   -2.3161    1.5470 H   0  0  0  0  0  0  0  0  0  0  0  0
    1.2810    0.5238   -0.6108 C   0  0  0  0  0  0  0  0  0  0  0  0
    1.2810   -0.6747   -1.4930 C   0  0  0  0  0  0  0  0  0  0  0  0
    1.2810   -0.6747   -3.0997 S   0  0  0  0  0  1  0  0  0  0  0  0
    0.2296    0.4915    0.1755 H   0  0  0  0  0  0  0  0  0  0  0  0
    2.1571    0.4969    0.0444 H   0  0  0  0  0  0  0  0  0  0  0  0
    1.2810    1.4476   -1.1855 H   0  0  0  0  0  0  0  0  0  0  0  0
    1.2810   -1.6291   -0.9631 H   0  0  0  0  0  0  0  0  0  0  0  0
  1  2  1  0
  1  5  1  0
  2  3  1  0
  2  6  1  0
  2 11  1  0
  3  4  3  0
  4  7  1  0
  8  9  2  3
  8 12  1  0
  8 13  1  0
  9 10  1  0
  9 14  1  0
M  RAD  1  10   2
M  END
>  <reaction>  (7) 
rxn_1985

>  <mol_properties>  (7) 
{"0": {"label": "*4", "atom_type": "S2s"}, "1": {"label": "*3", "atom_type": "Cs"}, "7": {"label": "*1", "atom_type": "Cs"}, "8": {"label": "*0", "atom_type": "CS"}, "10": {"label": "*2", "atom_type": "H0"}}

>  <type>  (7) 
unop_3

>  <geom_source>  (7) 
Heuristics

$$$$

     RDKit          3D

 14 12  0  0  0  0  0  0  0  0999 V2000
   -2.1512    0.0094    0.4428 S   0  0  0  0  0  0  0  0  0  0  0  0
   -0.7191    0.0130    1.5724 C   0  0  0  0  0  0  0  0  0  0  0  0
   -0.2609    1.3411    1.9402 C   0  0  0  0  0  0  0  0  0  0  0  0
    0.1168    2.4357    2.2434 C   0  0  0  0  0  0  0  0  0  0  0  0
   -2.9716    0.6983    1.2459 H   0  0  0  0  0  0  0  0  0  0  0  0
   -0.9582   -0.5614    2.4669 H   0  0  0  0  0  0  0  0  0  0  0  0
    0.4524    3.4082    2.5128 H   0  0  0  0  0  0  0  0  0  0  0  0
    1.3803    0.0775    0.0023 C   0  0  0  0  0  0  0  0  0  0  0  0
    1.3803   -1.1210   -0.8799 C   0  0  0  0  0  0  0  0  0  0  0  0
    1.3803   -1.1210   -2.4866 S   0  0  0  0  0  1  0  0  0  0  0  0
    0.3289    0.0452    0.7886 H   0  0  0  0  0  0  0  0  0  0  0  0
    2.2564    0.0506    0.6575 H   0  0  0  0  0  0  0  0  0  0  0  0
    1.3802    1.0013   -0.5724 H   0  0  0  0  0  0  0  0  0  0  0  0
    1.3803   -2.0754   -0.3500 H   0  0  0  0  0  0  0  0  0  0  0  0
  1  2  1  0
  1  5  1  0
  2  3  1  0
  2  6  1  0
  2 11  1  0
  3  4  3  0
  4  7  1  0
  8  9  2  3
  8 12  1  0
  8 13  1  0
  9 10  1  0
  9 14  1  0
M  RAD  1  10   2
M  END
>  <reaction>  (8) 
rxn_1985

>  <mol_properties>  (8) 
{"0": {"label": "*4", "atom_type": "S2s"}, "1": {"label": "*3", "atom_type": "Cs"}, "7": {"label": "*1", "atom_type": "Cs"}, "8": {"label": "*0", "atom_type": "CS"}, "10": {"label": "*2", "atom_type": "H0"}}

>  <type>  (8) 
unop_4

>  <geom_source>  (8) 
Heuristics

$$$$

     RDKit          3D

 14 12  0  0  0  0  0  0  0  0999 V2000
   -0.8479    1.8565    1.9476 S   0  0  0  0  0  0  0  0  0  0  0  0
   -0.9733    0.3462    0.9325 C   0  0  0  0  0  0  0  0  0  0  0  0
   -0.9848   -0.8842    1.7038 C   0  0  0  0  0  0  0  0  0  0  0  0
   -0.9943   -1.8983    2.3396 C   0  0  0  0  0  0  0  0  0  0  0  0
   -1.9557    1.6400    2.6676 H   0  0  0  0  0  0  0  0  0  0  0  0
   -1.8612    0.4018    0.3034 H   0  0  0  0  0  0  0  0  0  0  0  0
   -1.0027   -2.7993    2.9045 H   0  0  0  0  0  0  0  0  0  0  0  0
    1.1261    0.4107   -0.6376 C   0  0  0  0  0  0  0  0  0  0  0  0
    1.1261   -0.7878   -1.5198 C   0  0  0  0  0  0  0  0  0  0  0  0
    1.1261   -0.7878   -3.1265 S   0  0  0  0  0  1  0  0  0  0  0  0
    0.0748    0.3784    0.1487 H   0  0  0  0  0  0  0  0  0  0  0  0
    2.0023    0.3838    0.0176 H   0  0  0  0  0  0  0  0  0  0  0  0
    1.1261    1.3345   -1.2123 H   0  0  0  0  0  0  0  0  0  0  0  0
    1.1261   -1.7422   -0.9899 H   0  0  0  0  0  0  0  0  0  0  0  0
  1  2  1  0
  1  5  1  0
  2  3  1  0
  2  6  1  0
  2 11  1  0
  3  4  3  0
  4  7  1  0
  8  9  2  3
  8 12  1  0
  8 13  1  0
  9 10  1  0
  9 14  1  0
M  RAD  1  10   2
M  END
>  <reaction>  (9) 
rxn_1985

>  <mol_properties>  (9) 
{"0": {"label": "*4", "atom_type": "S2s"}, "1": {"label": "*3", "atom_type": "Cs"}, "7": {"label": "*1", "atom_type": "Cs"}, "8": {"label": "*0", "atom_type": "CS"}, "10": {"label": "*2", "atom_type": "H0"}}

>  <type>  (9) 
unop_5

>  <geom_source>  (9) 
Heuristics

$$$$

     RDKit          3D

 14 12  0  0  0  0  0  0  0  0999 V2000
   -2.1830    0.7941    0.5000 S   0  0  0  0  0  0  0  0  0  0  0  0
   -0.8774   -0.0821    1.4244 C   0  0  0  0  0  0  0  0  0  0  0  0
    0.0327    0.7971    2.1369 C   0  0  0  0  0  0  0  0  0  0  0  0
    0.7829    1.5218    2.7242 C   0  0  0  0  0  0  0  0  0  0  0  0
   -2.7067    1.4299    1.5555 H   0  0  0  0  0  0  0  0  0  0  0  0
   -1.3324   -0.7900    2.1166 H   0  0  0  0  0  0  0  0  0  0  0  0
    1.4494    2.1656    3.2460 H   0  0  0  0  0  0  0  0  0  0  0  0
    1.2220   -0.0177   -0.1457 C   0  0  0  0  0  0  0  0  0  0  0  0
    1.2220   -1.2161   -1.0279 C   0  0  0  0  0  0  0  0  0  0  0  0
    1.2220   -1.2161   -2.6345 S   0  0  0  0  0  1  0  0  0  0  0  0
    0.1706   -0.0499    0.6406 H   0  0  0  0  0  0  0  0  0  0  0  0
    2.0982   -0.0445    0.5095 H   0  0  0  0  0  0  0  0  0  0  0  0
    1.2220    0.9061   -0.7204 H   0  0  0  0  0  0  0  0  0  0  0  0
    1.2220   -2.1705   -0.4979 H   0  0  0  0  0  0  0  0  0  0  0  0
  1  2  1  0
  1  5  1  0
  2  3  1  0
  2  6  1  0
  2 11  1  0
  3  4  3  0
  4  7  1  0
  8  9  2  3
  8 12  1  0
  8 13  1  0
  9 10  1  0
  9 14  1  0
M  RAD  1  10   2
M  END
>  <reaction>  (10) 
rxn_1985

>  <mol_properties>  (10) 
{"0": {"label": "*4", "atom_type": "S2s"}, "1": {"label": "*3", "atom_type": "Cs"}, "7": {"label": "*1", "atom_type": "Cs"}, "8": {"label": "*0", "atom_type": "CS"}, "10": {"label": "*2", "atom_type": "H0"}}

>  <type>  (10) 
unop_6

>  <geom_source>  (10) 
Heuristics

$$$$

     RDKit          3D

 14 12  0  0  0  0  0  0  0  0999 V2000
   -1.9488    1.4666    0.8302 S   0  0  0  0  0  0  0  0  0  0  0  0
   -1.0186   -0.0515    1.2263 C   0  0  0  0  0  0  0  0  0  0  0  0
    0.0617    0.1490    2.1760 C   0  0  0  0  0  0  0  0  0  0  0  0
    0.9521    0.3142    2.9586 C   0  0  0  0  0  0  0  0  0  0  0  0
   -2.3295    1.7354    2.0854 H   0  0  0  0  0  0  0  0  0  0  0  0
   -1.7041   -0.8141    1.5950 H   0  0  0  0  0  0  0  0  0  0  0  0
    1.7432    0.4611    3.6540 H   0  0  0  0  0  0  0  0  0  0  0  0
    1.0808    0.0129   -0.3437 C   0  0  0  0  0  0  0  0  0  0  0  0
    1.0808   -1.1856   -1.2259 C   0  0  0  0  0  0  0  0  0  0  0  0
    1.0808   -1.1856   -2.8326 S   0  0  0  0  0  1  0  0  0  0  0  0
    0.0294   -0.0194    0.4425 H   0  0  0  0  0  0  0  0  0  0  0  0
    1.9569   -0.0140    0.3115 H   0  0  0  0  0  0  0  0  0  0  0  0
    1.0808    0.9367   -0.9184 H   0  0  0  0  0  0  0  0  0  0  0  0
    1.0808   -2.1400   -0.6960 H   0  0  0  0  0  0  0  0  0  0  0  0
  1  2  1  0
  1  5  1  0
  2  3  1  0
  2  6  1  0
  2 11  1  0
  3  4  3  0
  4  7  1  0
  8  9  2  3
  8 12  1  0
  8 13  1  0
  9 10  1  0
  9 14  1  0
M  RAD  1  10   2
M  END
>  <reaction>  (11) 
rxn_1985

>  <mol_properties>  (11) 
{"0": {"label": "*4", "atom_type": "S2s"}, "1": {"label": "*3", "atom_type": "Cs"}, "7": {"label": "*1", "atom_type": "Cs"}, "8": {"label": "*0", "atom_type": "CS"}, "10": {"label": "*2", "atom_type": "H0"}}

>  <type>  (11) 
unop_7

>  <geom_source>  (11) 
Heuristics

$$$$

     RDKit          3D

 14 12  0  0  0  0  0  0  0  0999 V2000
   -0.1433   -0.3069    2.5601 S   0  0  0  0  0  0  0  0  0  0  0  0
   -0.6960    0.5923    1.0725 C   0  0  0  0  0  0  0  0  0  0  0  0
   -2.1368    0.6038    0.8910 C   0  0  0  0  0  0  0  0  0  0  0  0
   -3.3243    0.6132    0.7414 C   0  0  0  0  0  0  0  0  0  0  0  0
   -0.8276    0.4341    3.4405 H   0  0  0  0  0  0  0  0  0  0  0  0
   -0.3142    1.6125    1.0997 H   0  0  0  0  0  0  0  0  0  0  0  0
   -4.3794    0.6216    0.6084 H   0  0  0  0  0  0  0  0  0  0  0  0
    1.4034    0.6568   -0.4976 C   0  0  0  0  0  0  0  0  0  0  0  0
    1.4034   -0.5417   -1.3798 C   0  0  0  0  0  0  0  0  0  0  0  0
    1.4034   -0.5417   -2.9864 S   0  0  0  0  0  1  0  0  0  0  0  0
    0.3520    0.6245    0.2887 H   0  0  0  0  0  0  0  0  0  0  0  0
    2.2795    0.6299    0.1576 H   0  0  0  0  0  0  0  0  0  0  0  0
    1.4034    1.5806   -1.0722 H   0  0  0  0  0  0  0  0  0  0  0  0
    1.4034   -1.4961   -0.8498 H   0  0  0  0  0  0  0  0  0  0  0  0
  1  2  1  0
  1  5  1  0
  2  3  1  0
  2  6  1  0
  2 11  1  0
  3  4  3  0
  4  7  1  0
  8  9  2  3
  8 12  1  0
  8 13  1  0
  9 10  1  0
  9 14  1  0
M  RAD  1  10   2
M  END
>  <reaction>  (12) 
rxn_1985

>  <mol_properties>  (12) 
{"0": {"label": "*4", "atom_type": "S2s"}, "1": {"label": "*3", "atom_type": "Cs"}, "7": {"label": "*1", "atom_type": "Cs"}, "8": {"label": "*0", "atom_type": "CS"}, "10": {"label": "*2", "atom_type": "H0"}}

>  <type>  (12) 
unop_8

>  <geom_source>  (12) 
Heuristics

$$$$

     RDKit          3D

 14 12  0  0  0  0  0  0  0  0999 V2000
   -1.8588   -0.6817    0.6684 S   0  0  0  0  0  0  0  0  0  0  0  0
   -0.5831    0.2039    1.6250 C   0  0  0  0  0  0  0  0  0  0  0  0
   -0.7561    1.6456    1.6466 C   0  0  0  0  0  0  0  0  0  0  0  0
   -0.8988    2.8339    1.6643 C   0  0  0  0  0  0  0  0  0  0  0  0
   -2.9051   -0.2391    1.3767 H   0  0  0  0  0  0  0  0  0  0  0  0
   -0.5543   -0.1847    2.6426 H   0  0  0  0  0  0  0  0  0  0  0  0
   -1.0255    3.8897    1.6800 H   0  0  0  0  0  0  0  0  0  0  0  0
    1.5163    0.2683    0.0550 C   0  0  0  0  0  0  0  0  0  0  0  0
    1.5163   -0.9301   -0.8272 C   0  0  0  0  0  0  0  0  0  0  0  0
    1.5163   -0.9301   -2.4339 S   0  0  0  0  0  1  0  0  0  0  0  0
    0.4649    0.2360    0.8413 H   0  0  0  0  0  0  0  0  0  0  0  0
    2.3924    0.2414    0.7102 H   0  0  0  0  0  0  0  0  0  0  0  0
    1.5163    1.1921   -0.5197 H   0  0  0  0  0  0  0  0  0  0  0  0
    1.5163   -1.8846   -0.2973 H   0  0  0  0  0  0  0  0  0  0  0  0
  1  2  1  0
  1  5  1  0
  2  3  1  0
  2  6  1  0
  2 11  1  0
  3  4  3  0
  4  7  1  0
  8  9  2  3
  8 12  1  0
  8 13  1  0
  9 10  1  0
  9 14  1  0
M  RAD  1  10   2
M  END
>  <reaction>  (13) 
rxn_1985

>  <mol_properties>  (13) 
{"0": {"label": "*4", "atom_type": "S2s"}, "1": {"label": "*3", "atom_type": "Cs"}, "7": {"label": "*1", "atom_type": "Cs"}, "8": {"label": "*0", "atom_type": "CS"}, "10": {"label": "*2", "atom_type": "H0"}}

>  <type>  (13) 
unop_9

>  <geom_source>  (13) 
Heuristics

$$$$

     RDKit          3D

 14 12  0  0  0  0  0  0  0  0999 V2000
   -0.4444   -0.8999    2.1582 S   0  0  0  0  0  0  0  0  0  0  0  0
   -0.6217    0.6414    1.1990 C   0  0  0  0  0  0  0  0  0  0  0  0
   -1.9974    1.0717    1.0224 C   0  0  0  0  0  0  0  0  0  0  0  0
   -3.1313    1.4264    0.8767 C   0  0  0  0  0  0  0  0  0  0  0  0
   -1.0535   -0.4538    3.2640 H   0  0  0  0  0  0  0  0  0  0  0  0
   -0.0395    1.4332    1.6694 H   0  0  0  0  0  0  0  0  0  0  0  0
   -4.1388    1.7416    0.7474 H   0  0  0  0  0  0  0  0  0  0  0  0
    1.4777    0.7058   -0.3711 C   0  0  0  0  0  0  0  0  0  0  0  0
    1.4777   -0.4926   -1.2532 C   0  0  0  0  0  0  0  0  0  0  0  0
    1.4777   -0.4926   -2.8599 S   0  0  0  0  0  1  0  0  0  0  0  0
    0.4263    0.6735    0.4152 H   0  0  0  0  0  0  0  0  0  0  0  0
    2.3538    0.6789    0.2842 H   0  0  0  0  0  0  0  0  0  0  0  0
    1.4776    1.6296   -0.9457 H   0  0  0  0  0  0  0  0  0  0  0  0
    1.4777   -1.4471   -0.7233 H   0  0  0  0  0  0  0  0  0  0  0  0
  1  2  1  0
  1  5  1  0
  2  3  1  0
  2  6  1  0
  2 11  1  0
  3  4  3  0
  4  7  1  0
  8  9  2  3
  8 12  1  0
  8 13  1  0
  9 10  1  0
  9 14  1  0
M  RAD  1  10   2
M  END
>  <reaction>  (14) 
rxn_1985

>  <mol_properties>  (14) 
{"0": {"label": "*4", "atom_type": "S2s"}, "1": {"label": "*3", "atom_type": "Cs"}, "7": {"label": "*1", "atom_type": "Cs"}, "8": {"label": "*0", "atom_type": "CS"}, "10": {"label": "*2", "atom_type": "H0"}}

>  <type>  (14) 
unop_10

>  <geom_source>  (14) 
Heuristics

$$$$

     RDKit          3D

 14 12  0  0  0  0  0  0  0  0999 V2000
   -1.4850    1.8666    1.3452 S   0  0  0  0  0  0  0  0  0  0  0  0
   -1.0785    0.1164    1.0314 C   0  0  0  0  0  0  0  0  0  0  0  0
   -0.2442   -0.4885    2.0547 C   0  0  0  0  0  0  0  0  0  0  0  0
    0.4434   -0.9871    2.8981 C   0  0  0  0  0  0  0  0  0  0  0  0
   -2.0797    1.6678    2.5282 H   0  0  0  0  0  0  0  0  0  0  0  0
   -1.9979   -0.4562    0.9115 H   0  0  0  0  0  0  0  0  0  0  0  0
    1.0544   -1.4300    3.6474 H   0  0  0  0  0  0  0  0  0  0  0  0
    1.0208    0.1808   -0.5387 C   0  0  0  0  0  0  0  0  0  0  0  0
    1.0208   -1.0177   -1.4209 C   0  0  0  0  0  0  0  0  0  0  0  0
    1.0208   -1.0177   -3.0275 S   0  0  0  0  0  1  0  0  0  0  0  0
   -0.0305    0.1485    0.2476 H   0  0  0  0  0  0  0  0  0  0  0  0
    1.8970    0.1539    0.1166 H   0  0  0  0  0  0  0  0  0  0  0  0
    1.0208    1.1046   -1.1133 H   0  0  0  0  0  0  0  0  0  0  0  0
    1.0208   -1.9721   -0.8909 H   0  0  0  0  0  0  0  0  0  0  0  0
  1  2  1  0
  1  5  1  0
  2  3  1  0
  2  6  1  0
  2 11  1  0
  3  4  3  0
  4  7  1  0
  8  9  2  3
  8 12  1  0
  8 13  1  0
  9 10  1  0
  9 14  1  0
M  RAD  1  10   2
M  END
>  <reaction>  (15) 
rxn_1985

>  <mol_properties>  (15) 
{"0": {"label": "*4", "atom_type": "S2s"}, "1": {"label": "*3", "atom_type": "Cs"}, "7": {"label": "*1", "atom_type": "Cs"}, "8": {"label": "*0", "atom_type": "CS"}, "10": {"label": "*2", "atom_type": "H0"}}

>  <type>  (15) 
unop_11

>  <geom_source>  (15) 
Heuristics

$$$$

     RDKit          3D

 14 12  0  0  0  0  0  0  0  0999 V2000
   -1.3922   -1.1009    1.0983 S   0  0  0  0  0  0  0  0  0  0  0  0
   -0.5138    0.4324    1.5503 C   0  0  0  0  0  0  0  0  0  0  0  0
   -1.3050    1.6382    1.3792 C   0  0  0  0  0  0  0  0  0  0  0  0
   -1.9570    2.6320    1.2383 C   0  0  0  0  0  0  0  0  0  0  0  0
   -2.4032   -0.9495    1.9629 H   0  0  0  0  0  0  0  0  0  0  0  0
   -0.1589    0.3605    2.5780 H   0  0  0  0  0  0  0  0  0  0  0  0
   -2.5364    3.5150    1.1130 H   0  0  0  0  0  0  0  0  0  0  0  0
    1.5855    0.4969   -0.0198 C   0  0  0  0  0  0  0  0  0  0  0  0
    1.5855   -0.7016   -0.9020 C   0  0  0  0  0  0  0  0  0  0  0  0
    1.5855   -0.7016   -2.5086 S   0  0  0  0  0  1  0  0  0  0  0  0
    0.5342    0.4646    0.7665 H   0  0  0  0  0  0  0  0  0  0  0  0
    2.4617    0.4700    0.6354 H   0  0  0  0  0  0  0  0  0  0  0  0
    1.5855    1.4207   -0.5944 H   0  0  0  0  0  0  0  0  0  0  0  0
    1.5855   -1.6560   -0.3720 H   0  0  0  0  0  0  0  0  0  0  0  0
  1  2  1  0
  1  5  1  0
  2  3  1  0
  2  6  1  0
  2 11  1  0
  3  4  3  0
  4  7  1  0
  8  9  2  3
  8 12  1  0
  8 13  1  0
  9 10  1  0
  9 14  1  0
M  RAD  1  10   2
M  END
>  <reaction>  (16) 
rxn_1985

>  <mol_properties>  (16) 
{"0": {"label": "*4", "atom_type": "S2s"}, "1": {"label": "*3", "atom_type": "Cs"}, "7": {"label": "*1", "atom_type": "Cs"}, "8": {"label": "*0", "atom_type": "CS"}, "10": {"label": "*2", "atom_type": "H0"}}

>  <type>  (16) 
unop_12

>  <geom_source>  (16) 
Heuristics

$$$$

     RDKit          3D

 14 12  0  0  0  0  0  0  0  0999 V2000
   -2.0063   -1.7006    0.2326 S   0  0  0  0  0  0  0  0  0  0  0  0
    1.7123    1.5802    0.9013 S   0  0  0  0  0  0  0  0  0  0  0  0
   -0.9779   -0.4558   -0.5988 C   0  0  0  0  0  3  0  0  0  0  0  0
    1.4439   -0.8723    0.3056 C   0  0  0  0  0  0  0  0  0  0  0  0
    2.1822    0.4212    0.1990 C   0  0  0  0  0  0  0  0  0  0  0  0
   -1.6260    0.8549   -0.5218 C   0  0  0  0  0  0  0  0  0  0  0  0
   -2.1583    1.9346   -0.4585 C   0  0  0  0  0  0  0  0  0  0  0  0
   -0.8487   -0.7389   -1.6637 H   0  0  0  0  0  0  0  0  0  0  0  0
    0.2696   -0.3950    0.0160 H   0  0  0  0  0  0  0  0  0  0  0  0
    3.0395    0.5053   -0.4611 H   0  0  0  0  0  0  0  0  0  0  0  0
    1.8807   -1.6156   -0.3936 H   0  0  0  0  0  0  0  0  0  0  0  0
    1.5092   -1.2671    1.3420 H   0  0  0  0  0  0  0  0  0  0  0  0
   -1.7944   -1.1332    1.5040 H   0  0  0  0  0  0  0  0  0  0  0  0
   -2.6258    2.8824   -0.4029 H   0  0  0  0  0  0  0  0  0  0  0  0
  1  3  1  0
  1 13  1  0
  2  5  2  0
  3  6  1  0
  3  8  1  0
  4  5  1  0
  4  9  1  0
  4 11  1  0
  4 12  1  0
  5 10  1  0
  6  7  3  0
  7 14  1  0
M  RAD  1   3   2
M  END
>  <reaction>  (17) 
rxn_1985

>  <mol_properties>  (17) 
{"0": {"label": "*4", "atom_type": "S2s"}, "1": {"label": "*3", "atom_type": "Cs"}, "7": {"label": "*1", "atom_type": "Cs"}, "8": {"label": "*0", "atom_type": "CS"}, "10": {"label": "*2", "atom_type": "H0"}}

>  <type>  (17) 
unop_13

>  <geom_source>  (17) 
AutoTST

$$$$
