
     RDKit          3D

  8  7  0  0  0  0  0  0  0  0999 V2000
   -1.0119   -0.1138    0.0343 C   0  0  0  0  0  0  0  0  0  0  0  0
    0.1635    0.6127    0.4537 N   0  0  0  0  0  0  0  0  0  0  0  0
    1.2806    0.2308    0.0237 C   0  0  0  0  0  0  0  0  0  0  0  0
   -1.5282   -0.4917    0.9187 H   0  0  0  0  0  0  0  0  0  0  0  0
   -1.6952    0.5767   -0.4637 H   0  0  0  0  0  0  0  0  0  0  0  0
   -0.7939   -0.9530   -0.6406 H   0  0  0  0  0  0  0  0  0  0  0  0
    2.1799    0.7636    0.3269 H   0  0  0  0  0  0  0  0  0  0  0  0
    1.4052   -0.6254   -0.6530 H   0  0  0  0  0  0  0  0  0  0  0  0
  1  2  1  0
  1  4  1  0
  1  5  1  0
  1  6  1  0
  2  3  2  3
  3  7  1  0
  3  8  1  0
M  END
>  <reaction>  (1) 
rxn_701

>  <mol_properties>  (1) 
{"0": {"label": "donator", "atom_type": "Cs"}, "3": {"label": "d_hydrogen", "atom_type": "H0"}}

>  <type>  (1) 
r1h

$$$$

     RDKit          3D

  1  0  0  0  0  0  0  0  0  0999 V2000
    0.0000    0.0000    0.0000 H   0  0  0  0  0 15  0  0  0  0  0  0
M  END
>  <reaction>  (2) 
rxn_701

>  <mol_properties>  (2) 
{"0": {"label": "acceptor", "atom_type": "H0"}}

>  <type>  (2) 
r2

$$$$

     RDKit          3D

  2  1  0  0  0  0  0  0  0  0999 V2000
    0.0000    0.0000    0.3721 H   0  0  0  0  0  0  0  0  0  0  0  0
    0.0000    0.0000   -0.3721 H   0  0  0  0  0  0  0  0  0  0  0  0
  1  2  1  0
M  END
>  <reaction>  (3) 
rxn_701

>  <mol_properties>  (3) 
{"0": {"label": "acceptor", "atom_type": "H0"}, "1": {"label": "a_hydrogen", "atom_type": "H0"}}

>  <type>  (3) 
r2h

$$$$

     RDKit          3D

  9  7  0  0  0  0  0  0  0  0999 V2000
   -1.8286    0.8727    1.9363 H   0  0  0  0  0 15  0  0  0  0  0  0
    0.1616    0.7788    0.8167 C   0  0  0  0  0  0  0  0  0  0  0  0
    0.2156   -0.4633    0.1453 N   0  0  0  0  0  0  0  0  0  0  0  0
   -0.0058   -0.4797   -1.0983 C   0  0  0  0  0  0  0  0  0  0  0  0
   -0.9136    0.8097    1.4422 H   0  0  0  0  0  0  0  0  0  0  0  0
    0.8995    0.8532    1.6126 H   0  0  0  0  0  0  0  0  0  0  0  0
    0.1257    1.6742    0.1842 H   0  0  0  0  0  0  0  0  0  0  0  0
    0.0041   -1.4297   -1.6271 H   0  0  0  0  0  0  0  0  0  0  0  0
   -0.2043    0.4264   -1.6847 H   0  0  0  0  0  0  0  0  0  0  0  0
  2  3  1  0
  2  5  1  0
  2  6  1  0
  2  7  1  0
  3  4  2  3
  4  8  1  0
  4  9  1  0
M  END
>  <reaction>  (4) 
rxn_701

>  <mol_properties>  (4) 
{"0": {"label": "*1", "atom_type": "H0"}, "1": {"label": "*3", "atom_type": "Cs"}, "2": {"label": "*4", "atom_type": "N3d"}, "4": {"label": "*2", "atom_type": "H0"}}

>  <type>  (4) 
ts

$$$$

     RDKit          3D

  9  7  0  0  0  0  0  0  0  0999 V2000
   -1.7264    0.8967    2.1174 H   0  0  0  0  0 15  0  0  0  0  0  0
    0.0445    0.7857    0.8119 C   0  0  0  0  0  0  0  0  0  0  0  0
    0.0445   -0.4879    0.1312 N   0  0  0  0  0  0  0  0  0  0  0  0
    0.0445   -0.4879   -1.1253 C   0  0  0  0  0  0  0  0  0  0  0  0
   -1.0085    0.8517    1.5882 H   0  0  0  0  0  0  0  0  0  0  0  0
    0.9221    0.8407    1.4588 H   0  0  0  0  0  0  0  0  0  0  0  0
    0.0445    1.6488    0.1321 H   0  0  0  0  0  0  0  0  0  0  0  0
    0.0445   -1.4363   -1.6591 H   0  0  0  0  0  0  0  0  0  0  0  0
    0.0445    0.4306   -1.7279 H   0  0  0  0  0  0  0  0  0  0  0  0
  2  3  1  0
  2  5  1  0
  2  6  1  0
  2  7  1  0
  3  4  2  3
  4  8  1  0
  4  9  1  0
M  END
>  <reaction>  (5) 
rxn_701

>  <mol_properties>  (5) 
{"0": {"label": "*1", "atom_type": "H0"}, "1": {"label": "*3", "atom_type": "Cs"}, "2": {"label": "*4", "atom_type": "N3d"}, "4": {"label": "*2", "atom_type": "H0"}}

>  <type>  (5) 
unop_1

>  <geom_source>  (5) 
Heuristics

$$$$

     RDKit          3D

  9  7  0  0  0  0  0  0  0  0999 V2000
   -0.2400   -0.6630    0.0401 N   0  0  0  0  0  0  0  0  0  0  0  0
    0.6825    0.4410    0.1452 C   0  0  0  0  0  0  0  0  0  0  0  0
   -1.5096   -0.4800   -0.0394 C   0  0  0  0  0  0  0  0  0  0  0  0
   -2.1716   -1.3353   -0.1172 H   0  0  0  0  0  0  0  0  0  0  0  0
   -1.9352    0.5201   -0.0302 H   0  0  0  0  0  0  0  0  0  0  0  0
    0.6056    1.0954   -0.7496 H   0  0  0  0  0  0  0  0  0  0  0  0
    0.4818    1.0259    1.0684 H   0  0  0  0  0  0  0  0  0  0  0  0
    2.4731   -0.7714   -0.2776 H   0  0  0  0  0 15  0  0  0  0  0  0
    1.6135    0.1673   -0.0396 H   0  0  0  0  0  0  0  0  0  0  0  0
  1  3  2  3
  1  2  1  0
  2  6  1  0
  2  7  1  0
  2  9  1  0
  3  4  1  0
  3  5  1  0
M  END
>  <reaction>  (6) 
rxn_701

>  <mol_properties>  (6) 
{"0": {"label": "*1", "atom_type": "H0"}, "1": {"label": "*3", "atom_type": "Cs"}, "2": {"label": "*4", "atom_type": "N3d"}, "4": {"label": "*2", "atom_type": "H0"}}

>  <type>  (6) 
unop_2

>  <geom_source>  (6) 
AutoTST

$$$$

     RDKit          3D

  9  7  0  0  0  0  0  0  0  0999 V2000
   -0.0019   -0.3325   -0.6785 N   0  0  0  0  0  0  0  0  0  0  0  0
    0.4078    0.1309    0.6248 C   0  0  0  0  0  0  0  0  0  0  0  0
   -1.0321    0.1497   -1.2768 C   0  0  0  0  0  0  0  0  0  0  0  0
    1.4705   -0.5189    0.9942 H   0  0  0  0  0  0  0  0  0  0  0  0
    0.6453    1.2157    0.5875 H   0  0  0  0  0  0  0  0  0  0  0  0
   -0.3997   -0.0507    1.3662 H   0  0  0  0  0  0  0  0  0  0  0  0
   -1.3084   -0.2245   -2.2563 H   0  0  0  0  0  0  0  0  0  0  0  0
   -1.6350    0.9292   -0.8181 H   0  0  0  0  0  0  0  0  0  0  0  0
    1.8534   -1.2990    1.4569 H   0  0  0  0  0 15  0  0  0  0  0  0
  1  3  2  3
  1  2  1  0
  2  4  1  0
  2  5  1  0
  2  6  1  0
  3  7  1  0
  3  8  1  0
M  END
>  <reaction>  (7) 
rxn_701

>  <mol_properties>  (7) 
{"0": {"label": "*1", "atom_type": "H0"}, "1": {"label": "*3", "atom_type": "Cs"}, "2": {"label": "*4", "atom_type": "N3d"}, "4": {"label": "*2", "atom_type": "H0"}}

>  <type>  (7) 
unop_3

>  <geom_source>  (7) 
gaussian_log

$$$$
