
     RDKit          3D

 10  9  0  0  0  0  0  0  0  0999 V2000
    2.2738    0.0217   -0.0992 C   0  0  0  0  0  0  0  0  0  0  0  0
    1.1083    0.2960   -0.0695 C   0  0  0  0  0  0  0  0  0  0  0  0
   -0.3173    0.6046   -0.0227 C   0  0  0  0  0  0  0  0  0  0  0  0
   -1.1561   -0.5495    0.5292 C   0  0  0  0  0  0  0  0  0  0  0  0
    3.3097   -0.2166   -0.1277 H   0  0  0  0  0  0  0  0  0  0  0  0
   -0.6542    0.8617   -1.0302 H   0  0  0  0  0  0  0  0  0  0  0  0
   -0.4633    1.4978    0.5900 H   0  0  0  0  0  0  0  0  0  0  0  0
   -0.8485   -0.7997    1.5447 H   0  0  0  0  0  0  0  0  0  0  0  0
   -2.2115   -0.2752    0.5459 H   0  0  0  0  0  0  0  0  0  0  0  0
   -1.0409   -1.4407   -0.0879 H   0  0  0  0  0  0  0  0  0  0  0  0
  1  2  3  0
  1  5  1  0
  2  3  1  0
  3  4  1  0
  3  6  1  0
  3  7  1  0
  4  8  1  0
  4  9  1  0
  4 10  1  0
M  END
>  <reaction>  (1) 
rxn_1288

>  <mol_properties>  (1) 
{"2": {"label": "donator", "atom_type": "Cs"}, "5": {"label": "d_hydrogen", "atom_type": "H0"}}

>  <type>  (1) 
r1h

$$$$

     RDKit          3D

 12 11  0  0  0  0  0  0  0  0999 V2000
   -0.9951    0.1196   -0.8321 C   0  0  0  0  0  0  0  0  0  0  0  0
   -0.3760    0.2571    0.5231 C   0  0  0  0  0  3  0  0  0  0  0  0
    0.9330   -0.1537    0.7810 C   0  0  0  0  0  0  0  0  0  0  0  0
    1.5987   -0.1880    1.9734 C   0  0  0  0  0  0  0  0  0  0  0  0
   -1.4483    0.9449    1.7152 S   0  0  0  0  0  0  0  0  0  0  0  0
   -1.9164   -0.4696   -0.7936 H   0  0  0  0  0  0  0  0  0  0  0  0
   -1.2565    1.0958   -1.2506 H   0  0  0  0  0  0  0  0  0  0  0  0
   -0.3088   -0.3780   -1.5170 H   0  0  0  0  0  0  0  0  0  0  0  0
    1.4783   -0.4898   -0.0971 H   0  0  0  0  0  0  0  0  0  0  0  0
    2.6278   -0.5153    2.0142 H   0  0  0  0  0  0  0  0  0  0  0  0
    1.1316    0.0690    2.9151 H   0  0  0  0  0  0  0  0  0  0  0  0
   -0.5306    1.3052    2.6211 H   0  0  0  0  0  0  0  0  0  0  0  0
  1  2  1  0
  1  6  1  0
  1  7  1  0
  1  8  1  0
  2  3  1  0
  2  5  1  0
  3  4  2  3
  3  9  1  0
  4 10  1  0
  4 11  1  0
  5 12  1  0
M  RAD  1   2   2
M  END
>  <reaction>  (2) 
rxn_1288

>  <mol_properties>  (2) 
{"1": {"label": "acceptor", "atom_type": "Cs"}}

>  <type>  (2) 
r2

$$$$

     RDKit          3D

 13 12  0  0  0  0  0  0  0  0999 V2000
   -1.1828    0.8269   -0.1645 C   0  0  0  0  0  0  0  0  0  0  0  0
   -0.4827   -0.4584   -0.5736 C   0  0  1  0  0  0  0  0  0  0  0  0
   -0.9759   -1.7030    0.1030 C   0  0  0  0  0  0  0  0  0  0  0  0
   -2.0084   -1.7831    0.9287 C   0  0  0  0  0  0  0  0  0  0  0  0
   -0.4908   -0.7025   -2.3913 S   0  0  0  0  0  0  0  0  0  0  0  0
   -1.0941    0.9860    0.9125 H   0  0  0  0  0  0  0  0  0  0  0  0
   -0.7405    1.6784   -0.6793 H   0  0  0  0  0  0  0  0  0  0  0  0
   -2.2437    0.7943   -0.4195 H   0  0  0  0  0  0  0  0  0  0  0  0
    0.5870   -0.3637   -0.3637 H   0  0  0  0  0  0  0  0  0  0  0  0
   -0.4209   -2.6026   -0.1443 H   0  0  0  0  0  0  0  0  0  0  0  0
   -2.2982   -2.7315    1.3623 H   0  0  0  0  0  0  0  0  0  0  0  0
   -2.5999   -0.9190    1.2055 H   0  0  0  0  0  0  0  0  0  0  0  0
   -1.8040   -0.9489   -2.4971 H   0  0  0  0  0  0  0  0  0  0  0  0
  1  2  1  0
  1  6  1  0
  1  7  1  0
  1  8  1  0
  2  3  1  0
  2  5  1  0
  2  9  1  1
  3  4  2  3
  3 10  1  0
  4 11  1  0
  4 12  1  0
  5 13  1  0
M  END
>  <reaction>  (3) 
rxn_1288

>  <mol_properties>  (3) 
{"0": {"label": "a_hydrogen", "atom_type": "H0"}, "2": {"label": "acceptor", "atom_type": "Cs"}}

>  <type>  (3) 
r2h

$$$$

     RDKit          3D

 22 20  0  0  0  0  0  0  0  0999 V2000
   -1.5847   -0.4856   -2.7038 C   0  0  0  0  0  0  0  0  0  0  0  0
   -1.5866    0.0764   -1.6391 C   0  0  0  0  0  0  0  0  0  0  0  0
   -1.5142    0.7192   -0.3744 C   0  0  0  0  0  3  0  0  0  0  0  0
   -1.2199    2.2016   -0.3578 C   0  0  0  0  0  0  0  0  0  0  0  0
   -1.6056   -0.9803   -3.6446 H   0  0  0  0  0  0  0  0  0  0  0  0
   -0.4346    0.1352    0.2233 H   0  0  0  0  0  0  0  0  0  0  0  0
   -2.2936    0.4039    0.3182 H   0  0  0  0  0  0  0  0  0  0  0  0
   -2.0743    2.7731   -0.7292 H   0  0  0  0  0  0  0  0  0  0  0  0
   -1.0023    2.5372    0.6569 H   0  0  0  0  0  0  0  0  0  0  0  0
   -0.3630    2.4334   -0.9909 H   0  0  0  0  0  0  0  0  0  0  0  0
    1.7200    0.1126   -0.2904 C   0  0  0  0  0  0  0  0  0  0  0  0
    0.6995   -0.3851    0.7025 C   0  0  1  0  0  0  0  0  0  0  0  0
    0.4208   -1.8233    0.7426 C   0  0  0  0  0  0  0  0  0  0  0  0
    0.8823   -2.7267   -0.1219 C   0  0  0  0  0  0  0  0  0  0  0  0
    0.7403    0.4046    2.3220 S   0  0  0  0  0  0  0  0  0  0  0  0
    2.7086   -0.3057   -0.0795 H   0  0  0  0  0  0  0  0  0  0  0  0
    1.4358   -0.1743   -1.3058 H   0  0  0  0  0  0  0  0  0  0  0  0
    1.7968    1.1979   -0.2478 H   0  0  0  0  0  0  0  0  0  0  0  0
   -0.2445   -2.1448    1.5377 H   0  0  0  0  0  0  0  0  0  0  0  0
    0.6000   -3.7678   -0.0365 H   0  0  0  0  0  0  0  0  0  0  0  0
    1.5499   -2.4643   -0.9329 H   0  0  0  0  0  0  0  0  0  0  0  0
    1.7568   -0.3033    2.8398 H   0  0  0  0  0  0  0  0  0  0  0  0
  1  2  3  0
  1  5  1  0
  2  3  1  0
  3  4  1  0
  3  7  1  0
  4  8  1  0
  4  9  1  0
  4 10  1  0
 12  6  1  6
 11 12  1  0
 11 16  1  0
 11 17  1  0
 11 18  1  0
 12 13  1  0
 12 15  1  0
 13 14  2  3
 13 19  1  0
 14 20  1  0
 14 21  1  0
 15 22  1  0
M  RAD  1   3   2
M  END
>  <reaction>  (4) 
rxn_1288

>  <mol_properties>  (4) 
{"1": {"label": "*4", "atom_type": "Ct"}, "2": {"label": "*3", "atom_type": "Cs"}, "5": {"label": "*2", "atom_type": "H0"}, "11": {"label": "*1", "atom_type": "Cs"}, "14": {"label": "*0", "atom_type": "S2s"}}

>  <type>  (4) 
ts

$$$$

     RDKit          3D

 22 20  0  0  0  0  0  0  0  0999 V2000
   -1.3016    0.9259   -3.1170 C   0  0  0  0  0  0  0  0  0  0  0  0
   -1.3016    0.9259   -1.9193 C   0  0  0  0  0  0  0  0  0  0  0  0
   -1.3016    0.9541   -0.4601 C   0  0  0  0  0  0  0  0  0  0  0  0
   -1.3016    2.3755    0.1055 C   0  0  0  0  0  0  0  0  0  0  0  0
   -1.3016    0.9259   -4.1803 H   0  0  0  0  0  0  0  0  0  0  0  0
   -0.2510    0.3000   -0.0260 H   0  0  0  0  0  0  0  0  0  0  0  0
   -2.1772    0.4090   -0.0984 H   0  0  0  0  0  0  0  0  0  0  0  0
   -2.1839    2.9234   -0.2260 H   0  0  0  0  0  0  0  0  0  0  0  0
   -1.3016    2.3482    1.1958 H   0  0  0  0  0  0  0  0  0  0  0  0
   -0.4194    2.9233   -0.2260 H   0  0  0  0  0  0  0  0  0  0  0  0
    1.6657    0.5869    1.2298 C   0  0  0  0  0  0  0  0  0  0  0  0
    0.8008   -0.3549    0.4085 C   0  0  0  0  0  3  0  0  0  0  0  0
    1.4950   -1.5803   -0.1077 C   0  0  0  0  0  0  0  0  0  0  0  0
    2.7372   -1.9465    0.1702 C   0  0  0  0  0  0  0  0  0  0  0  0
   -0.7277   -0.8428    1.2971 S   0  0  0  0  0  0  0  0  0  0  0  0
    2.0333    0.0955    2.1325 H   0  0  0  0  0  0  0  0  0  0  0  0
    2.5268    0.9227    0.6476 H   0  0  0  0  0  0  0  0  0  0  0  0
    1.0901    1.4597    1.5341 H   0  0  0  0  0  0  0  0  0  0  0  0
    0.8864   -2.2078   -0.7513 H   0  0  0  0  0  0  0  0  0  0  0  0
    3.1511   -2.8577   -0.2419 H   0  0  0  0  0  0  0  0  0  0  0  0
    3.3864   -1.3614    0.8100 H   0  0  0  0  0  0  0  0  0  0  0  0
   -0.1215   -1.6070    2.2164 H   0  0  0  0  0  0  0  0  0  0  0  0
  1  2  3  0
  1  5  1  0
  2  3  1  0
  3  4  1  0
  3  6  1  0
  3  7  1  0
  4  8  1  0
  4  9  1  0
  4 10  1  0
 11 12  1  0
 11 16  1  0
 11 17  1  0
 11 18  1  0
 12 13  1  0
 12 15  1  0
 13 14  2  3
 13 19  1  0
 14 20  1  0
 14 21  1  0
 15 22  1  0
M  RAD  1  12   2
M  END
>  <reaction>  (5) 
rxn_1288

>  <mol_properties>  (5) 
{"1": {"label": "*4", "atom_type": "Ct"}, "2": {"label": "*3", "atom_type": "Cs"}, "5": {"label": "*2", "atom_type": "H0"}, "11": {"label": "*1", "atom_type": "Cs"}, "14": {"label": "*0", "atom_type": "S2s"}}

>  <type>  (5) 
unop_1

>  <geom_source>  (5) 
Heuristics

$$$$

     RDKit          3D

 22 20  0  0  0  0  0  0  0  0999 V2000
   -1.5084    0.6929   -3.1874 C   0  0  0  0  0  0  0  0  0  0  0  0
   -1.5084    0.6929   -1.9897 C   0  0  0  0  0  0  0  0  0  0  0  0
   -1.5084    0.7211   -0.5306 C   0  0  0  0  0  0  0  0  0  0  0  0
   -1.5084    2.1425    0.0350 C   0  0  0  0  0  0  0  0  0  0  0  0
   -1.5084    0.6929   -4.2507 H   0  0  0  0  0  0  0  0  0  0  0  0
   -0.4578    0.0670   -0.0965 H   0  0  0  0  0  0  0  0  0  0  0  0
   -2.3839    0.1760   -0.1688 H   0  0  0  0  0  0  0  0  0  0  0  0
   -2.3906    2.6903   -0.2964 H   0  0  0  0  0  0  0  0  0  0  0  0
   -1.5084    2.1152    1.1253 H   0  0  0  0  0  0  0  0  0  0  0  0
   -0.6261    2.6903   -0.2964 H   0  0  0  0  0  0  0  0  0  0  0  0
    1.7118   -0.4631   -0.6839 C   0  0  0  0  0  0  0  0  0  0  0  0
    0.5941   -0.5879    0.3381 C   0  0  0  0  0  3  0  0  0  0  0  0
    0.4486   -1.9403    0.9704 C   0  0  0  0  0  0  0  0  0  0  0  0
    1.2550   -2.9753    0.7889 C   0  0  0  0  0  0  0  0  0  0  0  0
    0.7059    0.6932    1.6458 S   0  0  0  0  0  0  0  0  0  0  0  0
    2.6856   -0.6423   -0.2245 H   0  0  0  0  0  0  0  0  0  0  0  0
    1.5757   -1.1860   -1.4914 H   0  0  0  0  0  0  0  0  0  0  0  0
    1.7224    0.5382   -1.1118 H   0  0  0  0  0  0  0  0  0  0  0  0
   -0.3968   -2.0360    1.6446 H   0  0  0  0  0  0  0  0  0  0  0  0
    1.0757   -3.9129    1.2989 H   0  0  0  0  0  0  0  0  0  0  0  0
    2.1154   -2.9337    0.1323 H   0  0  0  0  0  0  0  0  0  0  0  0
    1.8025    0.1991    2.2373 H   0  0  0  0  0  0  0  0  0  0  0  0
  1  2  3  0
  1  5  1  0
  2  3  1  0
  3  4  1  0
  3  6  1  0
  3  7  1  0
  4  8  1  0
  4  9  1  0
  4 10  1  0
 11 12  1  0
 11 16  1  0
 11 17  1  0
 11 18  1  0
 12 13  1  0
 12 15  1  0
 13 14  2  3
 13 19  1  0
 14 20  1  0
 14 21  1  0
 15 22  1  0
M  RAD  1  12   2
M  END
>  <reaction>  (6) 
rxn_1288

>  <mol_properties>  (6) 
{"1": {"label": "*4", "atom_type": "Ct"}, "2": {"label": "*3", "atom_type": "Cs"}, "5": {"label": "*2", "atom_type": "H0"}, "11": {"label": "*1", "atom_type": "Cs"}, "14": {"label": "*0", "atom_type": "S2s"}}

>  <type>  (6) 
unop_2

>  <geom_source>  (6) 
Heuristics

$$$$

     RDKit          3D

 22 20  0  0  0  0  0  0  0  0999 V2000
   -1.3837    0.9900   -2.9553 C   0  0  0  0  0  0  0  0  0  0  0  0
   -1.3837    0.9900   -1.7576 C   0  0  0  0  0  0  0  0  0  0  0  0
   -1.3837    1.0182   -0.2984 C   0  0  0  0  0  0  0  0  0  0  0  0
   -1.3837    2.4396    0.2672 C   0  0  0  0  0  0  0  0  0  0  0  0
   -1.3837    0.9900   -4.0186 H   0  0  0  0  0  0  0  0  0  0  0  0
   -0.3331    0.3641    0.1356 H   0  0  0  0  0  0  0  0  0  0  0  0
   -2.2592    0.4732    0.0633 H   0  0  0  0  0  0  0  0  0  0  0  0
   -2.2659    2.9875   -0.0643 H   0  0  0  0  0  0  0  0  0  0  0  0
   -1.3837    2.4123    1.3574 H   0  0  0  0  0  0  0  0  0  0  0  0
   -0.5014    2.9875   -0.0643 H   0  0  0  0  0  0  0  0  0  0  0  0
    1.1602    0.3060    1.8963 C   0  0  0  0  0  0  0  0  0  0  0  0
    0.7188   -0.2908    0.5702 C   0  0  0  0  0  3  0  0  0  0  0  0
    1.8168   -0.8688   -0.2725 C   0  0  0  0  0  0  0  0  0  0  0  0
    3.0881   -0.9873    0.0798 C   0  0  0  0  0  0  0  0  0  0  0  0
   -0.6139   -1.5333    0.7799 S   0  0  0  0  0  0  0  0  0  0  0  0
    1.6094   -0.4538    2.5385 H   0  0  0  0  0  0  0  0  0  0  0  0
    1.8961    1.0969    1.7349 H   0  0  0  0  0  0  0  0  0  0  0  0
    0.3061    0.7281    2.4236 H   0  0  0  0  0  0  0  0  0  0  0  0
    1.4987   -1.2269   -1.2466 H   0  0  0  0  0  0  0  0  0  0  0  0
    3.8104   -1.4297   -0.5940 H   0  0  0  0  0  0  0  0  0  0  0  0
    3.4588   -0.6519    1.0406 H   0  0  0  0  0  0  0  0  0  0  0  0
    0.1499   -2.4652    1.3669 H   0  0  0  0  0  0  0  0  0  0  0  0
  1  2  3  0
  1  5  1  0
  2  3  1  0
  3  4  1  0
  3  6  1  0
  3  7  1  0
  4  8  1  0
  4  9  1  0
  4 10  1  0
 11 12  1  0
 11 16  1  0
 11 17  1  0
 11 18  1  0
 12 13  1  0
 12 15  1  0
 13 14  2  3
 13 19  1  0
 14 20  1  0
 14 21  1  0
 15 22  1  0
M  RAD  1  12   2
M  END
>  <reaction>  (7) 
rxn_1288

>  <mol_properties>  (7) 
{"1": {"label": "*4", "atom_type": "Ct"}, "2": {"label": "*3", "atom_type": "Cs"}, "5": {"label": "*2", "atom_type": "H0"}, "11": {"label": "*1", "atom_type": "Cs"}, "14": {"label": "*0", "atom_type": "S2s"}}

>  <type>  (7) 
unop_3

>  <geom_source>  (7) 
Heuristics

$$$$

     RDKit          3D

 22 20  0  0  0  0  0  0  0  0999 V2000
   -1.5141    0.6906   -3.1838 C   0  0  0  0  0  0  0  0  0  0  0  0
   -1.5141    0.6906   -1.9861 C   0  0  0  0  0  0  0  0  0  0  0  0
   -1.5141    0.7188   -0.5269 C   0  0  0  0  0  0  0  0  0  0  0  0
   -1.5141    2.1402    0.0387 C   0  0  0  0  0  0  0  0  0  0  0  0
   -1.5141    0.6906   -4.2471 H   0  0  0  0  0  0  0  0  0  0  0  0
   -0.4636    0.0647   -0.0928 H   0  0  0  0  0  0  0  0  0  0  0  0
   -2.3897    0.1738   -0.1652 H   0  0  0  0  0  0  0  0  0  0  0  0
   -2.3964    2.6881   -0.2928 H   0  0  0  0  0  0  0  0  0  0  0  0
   -1.5141    2.1129    1.1290 H   0  0  0  0  0  0  0  0  0  0  0  0
   -0.6319    2.6881   -0.2928 H   0  0  0  0  0  0  0  0  0  0  0  0
    0.5163   -2.0256   -0.1520 C   0  0  0  0  0  0  0  0  0  0  0  0
    0.5883   -0.5902    0.3417 C   0  0  0  0  0  3  0  0  0  0  0  0
   -0.0646   -0.3322    1.6673 C   0  0  0  0  0  0  0  0  0  0  0  0
   -0.5952   -1.2470    2.4648 C   0  0  0  0  0  0  0  0  0  0  0  0
    2.3081    0.0467    0.3694 S   0  0  0  0  0  0  0  0  0  0  0  0
    1.0349   -2.7018    0.5302 H   0  0  0  0  0  0  0  0  0  0  0  0
   -0.5231   -2.3516   -0.2332 H   0  0  0  0  0  0  0  0  0  0  0  0
    0.9854   -2.1125   -1.1308 H   0  0  0  0  0  0  0  0  0  0  0  0
   -0.0686    0.7089    1.9747 H   0  0  0  0  0  0  0  0  0  0  0  0
   -1.0366   -0.9665    3.4124 H   0  0  0  0  0  0  0  0  0  0  0  0
   -0.6137   -2.2997    2.2105 H   0  0  0  0  0  0  0  0  0  0  0  0
    2.7267   -0.7150    1.3897 H   0  0  0  0  0  0  0  0  0  0  0  0
  1  2  3  0
  1  5  1  0
  2  3  1  0
  3  4  1  0
  3  6  1  0
  3  7  1  0
  4  8  1  0
  4  9  1  0
  4 10  1  0
 11 12  1  0
 11 16  1  0
 11 17  1  0
 11 18  1  0
 12 13  1  0
 12 15  1  0
 13 14  2  3
 13 19  1  0
 14 20  1  0
 14 21  1  0
 15 22  1  0
M  RAD  1  12   2
M  END
>  <reaction>  (8) 
rxn_1288

>  <mol_properties>  (8) 
{"1": {"label": "*4", "atom_type": "Ct"}, "2": {"label": "*3", "atom_type": "Cs"}, "5": {"label": "*2", "atom_type": "H0"}, "11": {"label": "*1", "atom_type": "Cs"}, "14": {"label": "*0", "atom_type": "S2s"}}

>  <type>  (8) 
unop_4

>  <geom_source>  (8) 
Heuristics

$$$$

     RDKit          3D

 22 20  0  0  0  0  0  0  0  0999 V2000
   -1.5831    0.8691   -2.8341 C   0  0  0  0  0  0  0  0  0  0  0  0
   -1.5831    0.8691   -1.6364 C   0  0  0  0  0  0  0  0  0  0  0  0
   -1.5831    0.8974   -0.1773 C   0  0  0  0  0  0  0  0  0  0  0  0
   -1.5831    2.3187    0.3883 C   0  0  0  0  0  0  0  0  0  0  0  0
   -1.5831    0.8691   -3.8975 H   0  0  0  0  0  0  0  0  0  0  0  0
   -0.5325    0.2432    0.2568 H   0  0  0  0  0  0  0  0  0  0  0  0
   -2.4586    0.3523    0.1844 H   0  0  0  0  0  0  0  0  0  0  0  0
   -2.4653    2.8666    0.0569 H   0  0  0  0  0  0  0  0  0  0  0  0
   -1.5831    2.2914    1.4786 H   0  0  0  0  0  0  0  0  0  0  0  0
   -0.7009    2.8666    0.0569 H   0  0  0  0  0  0  0  0  0  0  0  0
    0.5253   -0.3860    2.2108 C   0  0  0  0  0  0  0  0  0  0  0  0
    0.5194   -0.4117    0.6914 C   0  0  0  0  0  3  0  0  0  0  0  0
    1.7319    0.1769    0.0332 C   0  0  0  0  0  0  0  0  0  0  0  0
    2.8189    0.6130    0.6518 C   0  0  0  0  0  0  0  0  0  0  0  0
    0.2165   -2.0949    0.0288 S   0  0  0  0  0  0  0  0  0  0  0  0
    1.3516   -0.9771    2.6101 H   0  0  0  0  0  0  0  0  0  0  0  0
    0.6284    0.6380    2.5767 H   0  0  0  0  0  0  0  0  0  0  0  0
   -0.4029   -0.8022    2.5993 H   0  0  0  0  0  0  0  0  0  0  0  0
    1.6838    0.2173   -1.0505 H   0  0  0  0  0  0  0  0  0  0  0  0
    3.6527    1.0134    0.0898 H   0  0  0  0  0  0  0  0  0  0  0  0
    2.9224    0.5914    1.7298 H   0  0  0  0  0  0  0  0  0  0  0  0
    1.3965   -2.6101    0.4011 H   0  0  0  0  0  0  0  0  0  0  0  0
  1  2  3  0
  1  5  1  0
  2  3  1  0
  3  4  1  0
  3  6  1  0
  3  7  1  0
  4  8  1  0
  4  9  1  0
  4 10  1  0
 11 12  1  0
 11 16  1  0
 11 17  1  0
 11 18  1  0
 12 13  1  0
 12 15  1  0
 13 14  2  3
 13 19  1  0
 14 20  1  0
 14 21  1  0
 15 22  1  0
M  RAD  1  12   2
M  END
>  <reaction>  (9) 
rxn_1288

>  <mol_properties>  (9) 
{"1": {"label": "*4", "atom_type": "Ct"}, "2": {"label": "*3", "atom_type": "Cs"}, "5": {"label": "*2", "atom_type": "H0"}, "11": {"label": "*1", "atom_type": "Cs"}, "14": {"label": "*0", "atom_type": "S2s"}}

>  <type>  (9) 
unop_5

>  <geom_source>  (9) 
Heuristics

$$$$

     RDKit          3D

 22 20  0  0  0  0  0  0  0  0999 V2000
   -1.5512    0.6071   -3.1578 C   0  0  0  0  0  0  0  0  0  0  0  0
   -1.5512    0.6071   -1.9601 C   0  0  0  0  0  0  0  0  0  0  0  0
   -1.5512    0.6353   -0.5009 C   0  0  0  0  0  0  0  0  0  0  0  0
   -1.5512    2.0567    0.0647 C   0  0  0  0  0  0  0  0  0  0  0  0
   -1.5512    0.6071   -4.2211 H   0  0  0  0  0  0  0  0  0  0  0  0
   -0.5006   -0.0188   -0.0668 H   0  0  0  0  0  0  0  0  0  0  0  0
   -2.4267    0.0903   -0.1392 H   0  0  0  0  0  0  0  0  0  0  0  0
   -2.4334    2.6046   -0.2668 H   0  0  0  0  0  0  0  0  0  0  0  0
   -1.5512    2.0294    1.1550 H   0  0  0  0  0  0  0  0  0  0  0  0
   -0.6689    2.6046   -0.2668 H   0  0  0  0  0  0  0  0  0  0  0  0
    0.1814   -2.1357    0.5550 C   0  0  0  0  0  0  0  0  0  0  0  0
    0.5513   -0.6737    0.3677 C   0  0  0  0  0  3  0  0  0  0  0  0
    0.1814    0.2341    1.5031 C   0  0  0  0  0  0  0  0  0  0  0  0
   -0.3357   -0.1415    2.6632 C   0  0  0  0  0  0  0  0  0  0  0  0
    2.3261   -0.4557   -0.0404 S   0  0  0  0  0  0  0  0  0  0  0  0
    0.7019   -2.5655    1.4128 H   0  0  0  0  0  0  0  0  0  0  0  0
   -0.8935   -2.2415    0.7183 H   0  0  0  0  0  0  0  0  0  0  0  0
    0.4573   -2.7112   -0.3272 H   0  0  0  0  0  0  0  0  0  0  0  0
    0.3863    1.2855    1.3270 H   0  0  0  0  0  0  0  0  0  0  0  0
   -0.5610    0.5876    3.4309 H   0  0  0  0  0  0  0  0  0  0  0  0
   -0.5551   -1.1767    2.8940 H   0  0  0  0  0  0  0  0  0  0  0  0
    2.7945   -0.8022    1.1667 H   0  0  0  0  0  0  0  0  0  0  0  0
  1  2  3  0
  1  5  1  0
  2  3  1  0
  3  4  1  0
  3  6  1  0
  3  7  1  0
  4  8  1  0
  4  9  1  0
  4 10  1  0
 11 12  1  0
 11 16  1  0
 11 17  1  0
 11 18  1  0
 12 13  1  0
 12 15  1  0
 13 14  2  3
 13 19  1  0
 14 20  1  0
 14 21  1  0
 15 22  1  0
M  RAD  1  12   2
M  END
>  <reaction>  (10) 
rxn_1288

>  <mol_properties>  (10) 
{"1": {"label": "*4", "atom_type": "Ct"}, "2": {"label": "*3", "atom_type": "Cs"}, "5": {"label": "*2", "atom_type": "H0"}, "11": {"label": "*1", "atom_type": "Cs"}, "14": {"label": "*0", "atom_type": "S2s"}}

>  <type>  (10) 
unop_6

>  <geom_source>  (10) 
Heuristics

$$$$

     RDKit          3D

 22 20  0  0  0  0  0  0  0  0999 V2000
   -1.6200    0.5624   -3.0595 C   0  0  0  0  0  0  0  0  0  0  0  0
   -1.6200    0.5624   -1.8618 C   0  0  0  0  0  0  0  0  0  0  0  0
   -1.6200    0.5906   -0.4026 C   0  0  0  0  0  0  0  0  0  0  0  0
   -1.6200    2.0120    0.1630 C   0  0  0  0  0  0  0  0  0  0  0  0
   -1.6200    0.5624   -4.1228 H   0  0  0  0  0  0  0  0  0  0  0  0
   -0.5694   -0.0635    0.0314 H   0  0  0  0  0  0  0  0  0  0  0  0
   -2.4955    0.0455   -0.0409 H   0  0  0  0  0  0  0  0  0  0  0  0
   -2.5022    2.5598   -0.1685 H   0  0  0  0  0  0  0  0  0  0  0  0
   -1.6200    1.9847    1.2533 H   0  0  0  0  0  0  0  0  0  0  0  0
   -0.7378    2.5598   -0.1685 H   0  0  0  0  0  0  0  0  0  0  0  0
    0.0200   -1.8814    1.3280 C   0  0  0  0  0  0  0  0  0  0  0  0
    0.4825   -0.7184    0.4660 C   0  0  0  0  0  3  0  0  0  0  0  0
    0.5575    0.6082    1.1620 C   0  0  0  0  0  0  0  0  0  0  0  0
    0.3555    0.8223    2.4533 C   0  0  0  0  0  0  0  0  0  0  0  0
    2.0789   -1.0666   -0.3672 S   0  0  0  0  0  0  0  0  0  0  0  0
    0.7126   -2.0584    2.1529 H   0  0  0  0  0  0  0  0  0  0  0  0
   -0.9679   -1.6787    1.7477 H   0  0  0  0  0  0  0  0  0  0  0  0
   -0.0346   -2.7930    0.7349 H   0  0  0  0  0  0  0  0  0  0  0  0
    0.8200    1.4423    0.5187 H   0  0  0  0  0  0  0  0  0  0  0  0
    0.4427    1.8175    2.8698 H   0  0  0  0  0  0  0  0  0  0  0  0
    0.0965    0.0265    3.1410 H   0  0  0  0  0  0  0  0  0  0  0  0
    2.8312   -1.0252    0.7413 H   0  0  0  0  0  0  0  0  0  0  0  0
  1  2  3  0
  1  5  1  0
  2  3  1  0
  3  4  1  0
  3  6  1  0
  3  7  1  0
  4  8  1  0
  4  9  1  0
  4 10  1  0
 11 12  1  0
 11 16  1  0
 11 17  1  0
 11 18  1  0
 12 13  1  0
 12 15  1  0
 13 14  2  3
 13 19  1  0
 14 20  1  0
 14 21  1  0
 15 22  1  0
M  RAD  1  12   2
M  END
>  <reaction>  (11) 
rxn_1288

>  <mol_properties>  (11) 
{"1": {"label": "*4", "atom_type": "Ct"}, "2": {"label": "*3", "atom_type": "Cs"}, "5": {"label": "*2", "atom_type": "H0"}, "11": {"label": "*1", "atom_type": "Cs"}, "14": {"label": "*0", "atom_type": "S2s"}}

>  <type>  (11) 
unop_7

>  <geom_source>  (11) 
Heuristics

$$$$

     RDKit          3D

 22 20  0  0  0  0  0  0  0  0999 V2000
   -1.3345    0.8091   -3.2122 C   0  0  0  0  0  0  0  0  0  0  0  0
   -1.3345    0.8091   -2.0145 C   0  0  0  0  0  0  0  0  0  0  0  0
   -1.3345    0.8373   -0.5554 C   0  0  0  0  0  0  0  0  0  0  0  0
   -1.3345    2.2587    0.0102 C   0  0  0  0  0  0  0  0  0  0  0  0
   -1.3345    0.8091   -4.2755 H   0  0  0  0  0  0  0  0  0  0  0  0
   -0.2839    0.1832   -0.1213 H   0  0  0  0  0  0  0  0  0  0  0  0
   -2.2100    0.2922   -0.1937 H   0  0  0  0  0  0  0  0  0  0  0  0
   -2.2167    2.8065   -0.3212 H   0  0  0  0  0  0  0  0  0  0  0  0
   -1.3345    2.2314    1.1005 H   0  0  0  0  0  0  0  0  0  0  0  0
   -0.4523    2.8065   -0.3212 H   0  0  0  0  0  0  0  0  0  0  0  0
    1.9307    0.4967    0.4535 C   0  0  0  0  0  0  0  0  0  0  0  0
    0.7680   -0.4717    0.3133 C   0  0  0  0  0  3  0  0  0  0  0  0
    1.1445   -1.9213    0.2302 C   0  0  0  0  0  0  0  0  0  0  0  0
    2.3650   -2.4176    0.3659 C   0  0  0  0  0  0  0  0  0  0  0  0
   -0.4900   -0.2377    1.6274 S   0  0  0  0  0  0  0  0  0  0  0  0
    2.4818    0.3169    1.3784 H   0  0  0  0  0  0  0  0  0  0  0  0
    2.6231    0.3886   -0.3844 H   0  0  0  0  0  0  0  0  0  0  0  0
    1.5673    1.5229    0.4741 H   0  0  0  0  0  0  0  0  0  0  0  0
    0.3115   -2.5960    0.0588 H   0  0  0  0  0  0  0  0  0  0  0  0
    2.5395   -3.4838    0.3011 H   0  0  0  0  0  0  0  0  0  0  0  0
    3.2307   -1.7913    0.5434 H   0  0  0  0  0  0  0  0  0  0  0  0
    0.2624   -0.7088    2.6316 H   0  0  0  0  0  0  0  0  0  0  0  0
  1  2  3  0
  1  5  1  0
  2  3  1  0
  3  4  1  0
  3  6  1  0
  3  7  1  0
  4  8  1  0
  4  9  1  0
  4 10  1  0
 11 12  1  0
 11 16  1  0
 11 17  1  0
 11 18  1  0
 12 13  1  0
 12 15  1  0
 13 14  2  3
 13 19  1  0
 14 20  1  0
 14 21  1  0
 15 22  1  0
M  RAD  1  12   2
M  END
>  <reaction>  (12) 
rxn_1288

>  <mol_properties>  (12) 
{"1": {"label": "*4", "atom_type": "Ct"}, "2": {"label": "*3", "atom_type": "Cs"}, "5": {"label": "*2", "atom_type": "H0"}, "11": {"label": "*1", "atom_type": "Cs"}, "14": {"label": "*0", "atom_type": "S2s"}}

>  <type>  (12) 
unop_8

>  <geom_source>  (12) 
Heuristics

$$$$

     RDKit          3D

 22 20  0  0  0  0  0  0  0  0999 V2000
   -1.5220    0.7417   -3.1632 C   0  0  0  0  0  0  0  0  0  0  0  0
   -1.5220    0.7417   -1.9655 C   0  0  0  0  0  0  0  0  0  0  0  0
   -1.5220    0.7700   -0.5064 C   0  0  0  0  0  0  0  0  0  0  0  0
   -1.5219    2.1913    0.0592 C   0  0  0  0  0  0  0  0  0  0  0  0
   -1.5220    0.7417   -4.2265 H   0  0  0  0  0  0  0  0  0  0  0  0
   -0.4714    0.1159   -0.0723 H   0  0  0  0  0  0  0  0  0  0  0  0
   -2.3975    0.2249   -0.1447 H   0  0  0  0  0  0  0  0  0  0  0  0
   -2.4042    2.7392   -0.2722 H   0  0  0  0  0  0  0  0  0  0  0  0
   -1.5219    2.1641    1.1495 H   0  0  0  0  0  0  0  0  0  0  0  0
   -0.6397    2.7392   -0.2722 H   0  0  0  0  0  0  0  0  0  0  0  0
    0.9319   -1.6294   -0.6362 C   0  0  0  0  0  0  0  0  0  0  0  0
    0.5805   -0.5391    0.3623 C   0  0  0  0  0  3  0  0  0  0  0  0
   -0.1164   -1.0058    1.6058 C   0  0  0  0  0  0  0  0  0  0  0  0
   -0.3534   -2.2656    1.9391 C   0  0  0  0  0  0  0  0  0  0  0  0
    2.0377    0.4769    0.8189 S   0  0  0  0  0  0  0  0  0  0  0  0
    1.6276   -2.3499   -0.2021 H   0  0  0  0  0  0  0  0  0  0  0  0
    0.0338   -2.1665   -0.9496 H   0  0  0  0  0  0  0  0  0  0  0  0
    1.4037   -1.1971   -1.5173 H   0  0  0  0  0  0  0  0  0  0  0  0
   -0.4251   -0.2104    2.2770 H   0  0  0  0  0  0  0  0  0  0  0  0
   -0.8556   -2.5078    2.8667 H   0  0  0  0  0  0  0  0  0  0  0  0
   -0.0627   -3.0979    1.3099 H   0  0  0  0  0  0  0  0  0  0  0  0
    2.6637   -0.4777    1.5213 H   0  0  0  0  0  0  0  0  0  0  0  0
  1  2  3  0
  1  5  1  0
  2  3  1  0
  3  4  1  0
  3  6  1  0
  3  7  1  0
  4  8  1  0
  4  9  1  0
  4 10  1  0
 11 12  1  0
 11 16  1  0
 11 17  1  0
 11 18  1  0
 12 13  1  0
 12 15  1  0
 13 14  2  3
 13 19  1  0
 14 20  1  0
 14 21  1  0
 15 22  1  0
M  RAD  1  12   2
M  END
>  <reaction>  (13) 
rxn_1288

>  <mol_properties>  (13) 
{"1": {"label": "*4", "atom_type": "Ct"}, "2": {"label": "*3", "atom_type": "Cs"}, "5": {"label": "*2", "atom_type": "H0"}, "11": {"label": "*1", "atom_type": "Cs"}, "14": {"label": "*0", "atom_type": "S2s"}}

>  <type>  (13) 
unop_9

>  <geom_source>  (13) 
Heuristics

$$$$

     RDKit          3D

 22 20  0  0  0  0  0  0  0  0999 V2000
   -1.4229    0.7168   -3.2266 C   0  0  0  0  0  0  0  0  0  0  0  0
   -1.4229    0.7168   -2.0289 C   0  0  0  0  0  0  0  0  0  0  0  0
   -1.4229    0.7450   -0.5697 C   0  0  0  0  0  0  0  0  0  0  0  0
   -1.4229    2.1664   -0.0041 C   0  0  0  0  0  0  0  0  0  0  0  0
   -1.4229    0.7168   -4.2899 H   0  0  0  0  0  0  0  0  0  0  0  0
   -0.3723    0.0909   -0.1357 H   0  0  0  0  0  0  0  0  0  0  0  0
   -2.2984    0.2000   -0.2080 H   0  0  0  0  0  0  0  0  0  0  0  0
   -2.3051    2.7143   -0.3356 H   0  0  0  0  0  0  0  0  0  0  0  0
   -1.4229    2.1391    1.0862 H   0  0  0  0  0  0  0  0  0  0  0  0
   -0.5406    2.7142   -0.3356 H   0  0  0  0  0  0  0  0  0  0  0  0
    1.9349    0.1054   -0.2355 C   0  0  0  0  0  0  0  0  0  0  0  0
    0.6796   -0.5640    0.2989 C   0  0  0  0  0  3  0  0  0  0  0  0
    0.8094   -2.0277    0.6001 C   0  0  0  0  0  0  0  0  0  0  0  0
    1.9242   -2.7400    0.5345 C   0  0  0  0  0  0  0  0  0  0  0  0
    0.0008    0.3070    1.7634 S   0  0  0  0  0  0  0  0  0  0  0  0
    2.7450    0.0602    0.4947 H   0  0  0  0  0  0  0  0  0  0  0  0
    2.2713   -0.3859   -1.1513 H   0  0  0  0  0  0  0  0  0  0  0  0
    1.7397    1.1539   -0.4549 H   0  0  0  0  0  0  0  0  0  0  0  0
   -0.1121   -2.5087    0.9129 H   0  0  0  0  0  0  0  0  0  0  0  0
    1.9233   -3.7936    0.7822 H   0  0  0  0  0  0  0  0  0  0  0  0
    2.8718   -2.3102    0.2337 H   0  0  0  0  0  0  0  0  0  0  0  0
    0.9871   -0.0357    2.6039 H   0  0  0  0  0  0  0  0  0  0  0  0
  1  2  3  0
  1  5  1  0
  2  3  1  0
  3  4  1  0
  3  6  1  0
  3  7  1  0
  4  8  1  0
  4  9  1  0
  4 10  1  0
 11 12  1  0
 11 16  1  0
 11 17  1  0
 11 18  1  0
 12 13  1  0
 12 15  1  0
 13 14  2  3
 13 19  1  0
 14 20  1  0
 14 21  1  0
 15 22  1  0
M  RAD  1  12   2
M  END
>  <reaction>  (14) 
rxn_1288

>  <mol_properties>  (14) 
{"1": {"label": "*4", "atom_type": "Ct"}, "2": {"label": "*3", "atom_type": "Cs"}, "5": {"label": "*2", "atom_type": "H0"}, "11": {"label": "*1", "atom_type": "Cs"}, "14": {"label": "*0", "atom_type": "S2s"}}

>  <type>  (14) 
unop_10

>  <geom_source>  (14) 
Heuristics

$$$$

     RDKit          3D

 22 20  0  0  0  0  0  0  0  0999 V2000
   -1.6702    0.6400   -2.9113 C   0  0  0  0  0  0  0  0  0  0  0  0
   -1.6702    0.6400   -1.7136 C   0  0  0  0  0  0  0  0  0  0  0  0
   -1.6702    0.6682   -0.2544 C   0  0  0  0  0  0  0  0  0  0  0  0
   -1.6702    2.0896    0.3112 C   0  0  0  0  0  0  0  0  0  0  0  0
   -1.6702    0.6400   -3.9746 H   0  0  0  0  0  0  0  0  0  0  0  0
   -0.6196    0.0141    0.1796 H   0  0  0  0  0  0  0  0  0  0  0  0
   -2.5457    0.1231    0.1073 H   0  0  0  0  0  0  0  0  0  0  0  0
   -2.5524    2.6375   -0.0203 H   0  0  0  0  0  0  0  0  0  0  0  0
   -1.6702    2.0623    1.4015 H   0  0  0  0  0  0  0  0  0  0  0  0
   -0.7880    2.6374   -0.0203 H   0  0  0  0  0  0  0  0  0  0  0  0
    0.1074   -1.2593    1.9638 C   0  0  0  0  0  0  0  0  0  0  0  0
    0.4323   -0.6408    0.6142 C   0  0  0  0  0  3  0  0  0  0  0  0
    1.0971    0.7028    0.6656 C   0  0  0  0  0  0  0  0  0  0  0  0
    1.5022    1.3295    1.7598 C   0  0  0  0  0  0  0  0  0  0  0  0
    1.4119   -1.7712   -0.4472 S   0  0  0  0  0  0  0  0  0  0  0  0
    1.0156   -1.4396    2.5418 H   0  0  0  0  0  0  0  0  0  0  0  0
   -0.5414   -0.5979    2.5426 H   0  0  0  0  0  0  0  0  0  0  0  0
   -0.3996   -2.2136    1.8298 H   0  0  0  0  0  0  0  0  0  0  0  0
    1.2589    1.1648   -0.3033 H   0  0  0  0  0  0  0  0  0  0  0  0
    1.9846    2.2964    1.6976 H   0  0  0  0  0  0  0  0  0  0  0  0
    1.3709    0.9126    2.7508 H   0  0  0  0  0  0  0  0  0  0  0  0
    2.5409   -1.7004    0.2716 H   0  0  0  0  0  0  0  0  0  0  0  0
  1  2  3  0
  1  5  1  0
  2  3  1  0
  3  4  1  0
  3  6  1  0
  3  7  1  0
  4  8  1  0
  4  9  1  0
  4 10  1  0
 11 12  1  0
 11 16  1  0
 11 17  1  0
 11 18  1  0
 12 13  1  0
 12 15  1  0
 13 14  2  3
 13 19  1  0
 14 20  1  0
 14 21  1  0
 15 22  1  0
M  RAD  1  12   2
M  END
>  <reaction>  (15) 
rxn_1288

>  <mol_properties>  (15) 
{"1": {"label": "*4", "atom_type": "Ct"}, "2": {"label": "*3", "atom_type": "Cs"}, "5": {"label": "*2", "atom_type": "H0"}, "11": {"label": "*1", "atom_type": "Cs"}, "14": {"label": "*0", "atom_type": "S2s"}}

>  <type>  (15) 
unop_11

>  <geom_source>  (15) 
Heuristics

$$$$

     RDKit          3D

 22 20  0  0  0  0  0  0  0  0999 V2000
   -1.5400    0.7265   -3.1534 C   0  0  0  0  0  0  0  0  0  0  0  0
   -1.5400    0.7265   -1.9557 C   0  0  0  0  0  0  0  0  0  0  0  0
   -1.5400    0.7547   -0.4966 C   0  0  0  0  0  0  0  0  0  0  0  0
   -1.5400    2.1761    0.0690 C   0  0  0  0  0  0  0  0  0  0  0  0
   -1.5400    0.7265   -4.2167 H   0  0  0  0  0  0  0  0  0  0  0  0
   -0.4894    0.1006   -0.0625 H   0  0  0  0  0  0  0  0  0  0  0  0
   -2.4155    0.2097   -0.1349 H   0  0  0  0  0  0  0  0  0  0  0  0
   -2.4222    2.7240   -0.2624 H   0  0  0  0  0  0  0  0  0  0  0  0
   -1.5400    2.1488    1.1593 H   0  0  0  0  0  0  0  0  0  0  0  0
   -0.6578    2.7239   -0.2624 H   0  0  0  0  0  0  0  0  0  0  0  0
    1.3493   -1.0736   -0.8198 C   0  0  0  0  0  0  0  0  0  0  0  0
    0.5625   -0.5543    0.3721 C   0  0  0  0  0  3  0  0  0  0  0  0
    0.0868   -1.6017    1.3347 C   0  0  0  0  0  0  0  0  0  0  0  0
    0.3745   -2.8936    1.2840 C   0  0  0  0  0  0  0  0  0  0  0  0
    1.4703    0.7523    1.2846 S   0  0  0  0  0  0  0  0  0  0  0  0
    2.2675   -1.5686   -0.4984 H   0  0  0  0  0  0  0  0  0  0  0  0
    0.7543   -1.7913   -1.3890 H   0  0  0  0  0  0  0  0  0  0  0  0
    1.6249   -0.2510   -1.4780 H   0  0  0  0  0  0  0  0  0  0  0  0
   -0.5337   -1.2258    2.1422 H   0  0  0  0  0  0  0  0  0  0  0  0
   -0.0072   -3.5756    2.0328 H   0  0  0  0  0  0  0  0  0  0  0  0
    0.9926   -3.3214    0.5042 H   0  0  0  0  0  0  0  0  0  0  0  0
    2.4138   -0.0547    1.7896 H   0  0  0  0  0  0  0  0  0  0  0  0
  1  2  3  0
  1  5  1  0
  2  3  1  0
  3  4  1  0
  3  6  1  0
  3  7  1  0
  4  8  1  0
  4  9  1  0
  4 10  1  0
 11 12  1  0
 11 16  1  0
 11 17  1  0
 11 18  1  0
 12 13  1  0
 12 15  1  0
 13 14  2  3
 13 19  1  0
 14 20  1  0
 14 21  1  0
 15 22  1  0
M  RAD  1  12   2
M  END
>  <reaction>  (16) 
rxn_1288

>  <mol_properties>  (16) 
{"1": {"label": "*4", "atom_type": "Ct"}, "2": {"label": "*3", "atom_type": "Cs"}, "5": {"label": "*2", "atom_type": "H0"}, "11": {"label": "*1", "atom_type": "Cs"}, "14": {"label": "*0", "atom_type": "S2s"}}

>  <type>  (16) 
unop_12

>  <geom_source>  (16) 
Heuristics

$$$$

     RDKit          3D

 22 20  0  0  0  0  0  0  0  0999 V2000
   -0.9579    1.0620    1.6679 S   0  0  0  0  0  0  0  0  0  0  0  0
   -1.0972   -0.1625    0.3210 C   0  0  0  0  0  0  0  0  0  0  0  0
   -1.8847   -1.3795    0.8029 C   0  0  0  0  0  0  0  0  0  0  0  0
    1.8808   -0.2468   -1.2425 C   0  0  0  0  0  0  0  0  0  0  0  0
   -1.7470    0.4610   -0.8870 C   0  0  0  0  0  0  0  0  0  0  0  0
    1.4714   -0.5698    0.1871 C   0  0  0  0  0  3  0  0  0  0  0  0
   -1.1202    1.3978   -1.6036 C   0  0  0  0  0  0  0  0  0  0  0  0
    2.3041    0.1654    1.1453 C   0  0  0  0  0  0  0  0  0  0  0  0
    2.9879    0.7693    1.9334 C   0  0  0  0  0  0  0  0  0  0  0  0
    0.1136   -0.5631   -0.0048 H   0  0  0  0  0  0  0  0  0  0  0  0
   -1.9340   -2.1424   -0.0029 H   0  0  0  0  0  0  0  0  0  0  0  0
   -2.9182   -1.0914    1.0926 H   0  0  0  0  0  0  0  0  0  0  0  0
   -1.3773   -1.8321    1.6808 H   0  0  0  0  0  0  0  0  0  0  0  0
    2.9372   -0.5425   -1.4202 H   0  0  0  0  0  0  0  0  0  0  0  0
    1.2291   -0.8065   -1.9453 H   0  0  0  0  0  0  0  0  0  0  0  0
    1.7618    0.8401   -1.4388 H   0  0  0  0  0  0  0  0  0  0  0  0
   -2.7324    0.1314   -1.2059 H   0  0  0  0  0  0  0  0  0  0  0  0
    1.5692   -1.6602    0.3729 H   0  0  0  0  0  0  0  0  0  0  0  0
   -1.6007    1.8253   -2.4776 H   0  0  0  0  0  0  0  0  0  0  0  0
   -0.1288    1.7432   -1.3262 H   0  0  0  0  0  0  0  0  0  0  0  0
   -2.3450    1.3014    1.7259 H   0  0  0  0  0  0  0  0  0  0  0  0
    3.5883    1.2995    2.6251 H   0  0  0  0  0  0  0  0  0  0  0  0
  1  2  1  0
  1 21  1  0
  2  3  1  0
  2  5  1  0
  2 10  1  0
  3 11  1  0
  3 12  1  0
  3 13  1  0
  4  6  1  0
  4 14  1  0
  4 15  1  0
  4 16  1  0
  5  7  2  3
  5 17  1  0
  6  8  1  0
  6 18  1  0
  7 19  1  0
  7 20  1  0
  8  9  3  0
  9 22  1  0
M  RAD  1   6   2
M  END
>  <reaction>  (17) 
rxn_1288

>  <mol_properties>  (17) 
{"1": {"label": "*4", "atom_type": "Ct"}, "2": {"label": "*3", "atom_type": "Cs"}, "5": {"label": "*2", "atom_type": "H0"}, "11": {"label": "*1", "atom_type": "Cs"}, "14": {"label": "*0", "atom_type": "S2s"}}

>  <type>  (17) 
unop_13

>  <geom_source>  (17) 
AutoTST

$$$$
