
     RDKit          3D

 17 17  0  0  0  0  0  0  0  0999 V2000
    1.0450   -0.4800    3.4191 C   0  0  0  0  0  0  0  0  0  0  0  0
    1.0725    0.1276    2.3881 C   0  0  0  0  0  0  0  0  0  0  0  0
    1.1124    0.8735    1.1371 C   0  0  0  0  0  0  0  0  0  0  0  0
    0.2476    0.3251    0.0169 C   0  0  0  0  0  0  0  0  0  0  0  0
    0.2430    0.9942   -1.2040 C   0  0  0  0  0  0  0  0  0  0  0  0
   -0.5273    0.5375   -2.2590 C   0  0  0  0  0  0  0  0  0  0  0  0
   -1.3079   -0.6004   -2.1081 C   0  0  0  0  0  0  0  0  0  0  0  0
   -1.3083   -1.2709   -0.8968 C   0  0  0  0  0  0  0  0  0  0  0  0
   -0.5346   -0.8109    0.1606 C   0  0  0  0  0  0  0  0  0  0  0  0
    1.0235   -1.0168    4.3369 H   0  0  0  0  0  0  0  0  0  0  0  0
    0.8163    1.9068    1.3404 H   0  0  0  0  0  0  0  0  0  0  0  0
    2.1502    0.9192    0.7940 H   0  0  0  0  0  0  0  0  0  0  0  0
    0.8509    1.8839   -1.3281 H   0  0  0  0  0  0  0  0  0  0  0  0
   -0.5190    1.0701   -3.2017 H   0  0  0  0  0  0  0  0  0  0  0  0
   -1.9115   -0.9600   -2.9316 H   0  0  0  0  0  0  0  0  0  0  0  0
   -1.9137   -2.1594   -0.7689 H   0  0  0  0  0  0  0  0  0  0  0  0
   -0.5390   -1.3395    1.1053 H   0  0  0  0  0  0  0  0  0  0  0  0
  1  2  3  0
  1 10  1  0
  2  3  1  0
  3  4  1  0
  3 11  1  0
  3 12  1  0
  4  5  2  0
  4  9  1  0
  5  6  1  0
  5 13  1  0
  6  7  2  0
  6 14  1  0
  7  8  1  0
  7 15  1  0
  8  9  2  0
  8 16  1  0
  9 17  1  0
M  END
>  <reaction>  (1) 
rxn_184

>  <mol_properties>  (1) 
{"4": {"label": "donator", "atom_type": "Cd"}, "12": {"label": "d_hydrogen", "atom_type": "H0"}}

>  <type>  (1) 
r1h

$$$$

     RDKit          3D

  1  0  0  0  0  0  0  0  0  0999 V2000
    0.0000    0.0000    0.0000 H   0  0  0  0  0 15  0  0  0  0  0  0
M  END
>  <reaction>  (2) 
rxn_184

>  <mol_properties>  (2) 
{"0": {"label": "acceptor", "atom_type": "H0"}}

>  <type>  (2) 
r2

$$$$

     RDKit          3D

  2  1  0  0  0  0  0  0  0  0999 V2000
    0.0000    0.0000    0.3721 H   0  0  0  0  0  0  0  0  0  0  0  0
    0.0000    0.0000   -0.3721 H   0  0  0  0  0  0  0  0  0  0  0  0
  1  2  1  0
M  END
>  <reaction>  (3) 
rxn_184

>  <mol_properties>  (3) 
{"0": {"label": "a_hydrogen", "atom_type": "H0"}, "1": {"label": "acceptor", "atom_type": "H0"}}

>  <type>  (3) 
r2h

$$$$

     RDKit          3D

 18 17  0  0  0  0  0  0  0  0999 V2000
   -1.7008   -0.1578   -3.1228 C   0  0  0  0  0  0  0  0  0  0  0  0
   -1.7011   -0.1498   -1.9258 C   0  0  0  0  0  0  0  0  0  0  0  0
   -1.7101   -0.1408   -0.4692 C   0  0  0  0  0  0  0  0  0  0  0  0
   -0.3459   -0.0292    0.1846 C   0  0  0  0  0  0  0  0  0  0  0  0
   -0.2386   -0.0116    1.5597 C   0  0  0  0  0  0  0  0  0  0  0  0
    0.9399    0.0857    2.2527 C   0  0  0  0  0  0  0  0  0  0  0  0
    2.1184    0.1734    1.5163 C   0  0  0  0  0  0  0  0  0  0  0  0
    2.0616    0.1597    0.1321 C   0  0  0  0  0  0  0  0  0  0  0  0
    0.8443    0.0596   -0.5300 C   0  0  0  0  0  0  0  0  0  0  0  0
   -1.7071   -0.1653   -4.1862 H   0  0  0  0  0  0  0  0  0  0  0  0
   -2.3356    0.6880   -0.1265 H   0  0  0  0  0  0  0  0  0  0  0  0
   -2.1988   -1.0524   -0.1149 H   0  0  0  0  0  0  0  0  0  0  0  0
   -1.4581   -0.1023    2.3326 H   0  0  0  0  0  0  0  0  0  0  0  0
    0.9549    0.0941    3.3356 H   0  0  0  0  0  0  0  0  0  0  0  0
    3.0712    0.2517    2.0248 H   0  0  0  0  0  0  0  0  0  0  0  0
    2.9752    0.2276   -0.4448 H   0  0  0  0  0  0  0  0  0  0  0  0
    0.8125    0.0499   -1.6127 H   0  0  0  0  0  0  0  0  0  0  0  0
   -2.1871   -0.1564    2.8008 H   0  0  0  0  0 15  0  0  0  0  0  0
  1  2  3  0
  1 10  1  0
  2  3  1  0
  3  4  1  0
  3 11  1  0
  3 12  1  0
  4  5  2  0
  4  9  1  0
  5  6  1  0
  5 13  1  0
  6  7  2  0
  6 14  1  0
  7  8  1  0
  7 15  1  0
  8  9  2  0
  8 16  1  0
  9 17  1  0
M  END
>  <reaction>  (4) 
rxn_184

>  <mol_properties>  (4) 
{"3": {"label": "*4", "atom_type": "Cd"}, "4": {"label": "*3", "atom_type": "Cd"}, "12": {"label": "*2", "atom_type": "H0"}, "17": {"label": "*1", "atom_type": "H0"}}

>  <type>  (4) 
ts

$$$$

     RDKit          3D

 18 17  0  0  0  0  0  0  0  0999 V2000
   -1.7086   -0.1665   -3.1099 C   0  0  0  0  0  0  0  0  0  0  0  0
   -1.7086   -0.1665   -1.9128 C   0  0  0  0  0  0  0  0  0  0  0  0
   -1.7086   -0.1665   -0.4558 C   0  0  0  0  0  0  0  0  0  0  0  0
   -0.3470   -0.0338    0.2015 C   0  0  0  0  0  0  0  0  0  0  0  0
   -0.2812   -0.0274    1.5922 C   0  0  0  0  0  0  0  0  0  0  0  0
    0.9343    0.0910    2.2431 C   0  0  0  0  0  0  0  0  0  0  0  0
    2.1072    0.2053    1.5096 C   0  0  0  0  0  0  0  0  0  0  0  0
    2.0493    0.1997    0.1264 C   0  0  0  0  0  0  0  0  0  0  0  0
    0.8286    0.0807   -0.5248 C   0  0  0  0  0  0  0  0  0  0  0  0
   -1.7086   -0.1665   -4.1734 H   0  0  0  0  0  0  0  0  0  0  0  0
   -2.3506    0.6488   -0.1095 H   0  0  0  0  0  0  0  0  0  0  0  0
   -2.1811   -1.0903   -0.1095 H   0  0  0  0  0  0  0  0  0  0  0  0
   -1.3769   -0.1342    2.2866 H   0  0  0  0  0  0  0  0  0  0  0  0
    0.9673    0.0942    3.3254 H   0  0  0  0  0  0  0  0  0  0  0  0
    3.0595    0.2981    2.0160 H   0  0  0  0  0  0  0  0  0  0  0  0
    2.9585    0.2883   -0.4550 H   0  0  0  0  0  0  0  0  0  0  0  0
    0.7898    0.0770   -1.6067 H   0  0  0  0  0  0  0  0  0  0  0  0
   -2.1286   -0.2074    2.7630 H   0  0  0  0  0 15  0  0  0  0  0  0
  1  2  3  0
  1 10  1  0
  2  3  1  0
  3  4  1  0
  3 11  1  0
  3 12  1  0
  4  5  2  0
  4  9  1  0
  5  6  1  0
  5 13  1  0
  6  7  2  0
  6 14  1  0
  7  8  1  0
  7 15  1  0
  8  9  2  0
  8 16  1  0
  9 17  1  0
M  END
>  <reaction>  (5) 
rxn_184

>  <mol_properties>  (5) 
{"3": {"label": "*4", "atom_type": "Cd"}, "4": {"label": "*3", "atom_type": "Cd"}, "12": {"label": "*2", "atom_type": "H0"}, "17": {"label": "*1", "atom_type": "H0"}}

>  <type>  (5) 
unop_1

>  <geom_source>  (5) 
Heuristics

$$$$

     RDKit          3D

 18 17  0  0  0  0  0  0  0  0999 V2000
    1.5768   -0.7405   -0.8170 C   0  0  0  0  0  0  0  0  0  0  0  0
    0.1652   -0.4729   -0.3842 C   0  0  0  0  0  0  0  0  0  0  0  0
   -0.4167   -1.2111    0.6602 C   0  0  0  0  0  0  0  0  0  0  0  0
   -1.7238   -0.9328    1.0738 C   0  0  0  0  0  0  0  0  0  0  0  0
   -2.4527    0.0871    0.4542 C   0  0  0  0  0  0  0  0  0  0  0  0
   -1.8741    0.8318   -0.5779 C   0  0  0  0  0  0  0  0  0  0  0  0
   -0.5686    0.5552   -0.9926 C   0  0  0  0  0  0  0  0  0  0  0  0
    2.5116    0.0146    0.0233 C   0  0  0  0  0  0  0  0  0  0  0  0
    3.2803    0.6352    0.7143 C   0  0  0  0  0  0  0  0  0  0  0  0
    1.8067   -1.8242   -0.7340 H   0  0  0  0  0  0  0  0  0  0  0  0
    1.7204   -0.4412   -1.8774 H   0  0  0  0  0  0  0  0  0  0  0  0
   -3.4635    0.3022    0.7758 H   0  0  0  0  0  0  0  0  0  0  0  0
   -2.1705   -1.5054    1.8763 H   0  0  0  0  0  0  0  0  0  0  0  0
    0.1413   -1.9981    1.1524 H   0  0  0  0  0  0  0  0  0  0  0  0
   -2.4335    1.6248   -1.0559 H   0  0  0  0  0  0  0  0  0  0  0  0
    3.9548    1.1800    1.3210 H   0  0  0  0  0  0  0  0  0  0  0  0
    0.1692    2.5299   -0.4898 H   0  0  0  0  0 15  0  0  0  0  0  0
   -0.2231    1.3654   -1.1226 H   0  0  0  0  0  0  0  0  0  0  0  0
  1  8  1  0
  1  2  1  0
  1 10  1  0
  1 11  1  0
  2  3  2  0
  2  7  1  0
  3  4  1  0
  3 14  1  0
  4  5  2  0
  4 13  1  0
  5  6  1  0
  5 12  1  0
  6  7  2  0
  6 15  1  0
  7 18  1  0
  8  9  3  0
  9 16  1  0
M  END
>  <reaction>  (6) 
rxn_184

>  <mol_properties>  (6) 
{"3": {"label": "*4", "atom_type": "Cd"}, "4": {"label": "*3", "atom_type": "Cd"}, "12": {"label": "*2", "atom_type": "H0"}, "17": {"label": "*1", "atom_type": "H0"}}

>  <type>  (6) 
unop_2

>  <geom_source>  (6) 
AutoTST

$$$$
