
     RDKit          3D

 11 10  0  0  0  0  0  0  0  0999 V2000
   -1.2710    0.1907   -0.2084 C   0  0  0  0  0  0  0  0  0  0  0  0
    0.0202   -0.6130   -0.2928 C   0  0  0  0  0  0  0  0  0  0  0  0
    0.1086   -1.6953    0.7756 C   0  0  0  0  0  0  0  0  0  0  0  0
   -1.3607    0.6851    0.7620 H   0  0  0  0  0  0  0  0  0  0  0  0
   -2.1429   -0.4567   -0.3299 H   0  0  0  0  0  0  0  0  0  0  0  0
   -1.3158    0.9602   -0.9809 H   0  0  0  0  0  0  0  0  0  0  0  0
    0.8757    0.0616   -0.1992 H   0  0  0  0  0  0  0  0  0  0  0  0
    0.0997   -1.0712   -1.2825 H   0  0  0  0  0  0  0  0  0  0  0  0
   -0.7198   -2.4022    0.6850 H   0  0  0  0  0  0  0  0  0  0  0  0
    1.0395   -2.2596    0.6989 H   0  0  0  0  0  0  0  0  0  0  0  0
    0.0624   -1.2603    1.7770 H   0  0  0  0  0  0  0  0  0  0  0  0
  1  2  1  0
  1  4  1  0
  1  5  1  0
  1  6  1  0
  2  3  1  0
  2  7  1  0
  2  8  1  0
  3  9  1  0
  3 10  1  0
  3 11  1  0
M  END
>  <reaction>  (1) 
rxn_335

>  <mol_properties>  (1) 
{"1": {"label": "donator", "atom_type": "Cs"}, "6": {"label": "d_hydrogen", "atom_type": "H0"}}

>  <type>  (1) 
r1h

$$$$

     RDKit          3D

  6  5  0  0  0  0  0  0  0  0999 V2000
   -0.4435    0.0183   -0.1398 C   0  0  0  0  0  0  0  0  0  0  0  0
    1.0626    0.0038   -0.1408 C   0  0  0  0  0  3  0  0  0  0  0  0
    1.7963   -0.0944    0.7712 O   0  0  0  0  0  0  0  0  0  0  0  0
   -0.8385   -0.0792    0.8738 H   0  0  0  0  0  0  0  0  0  0  0  0
   -0.7800    0.9500   -0.5948 H   0  0  0  0  0  0  0  0  0  0  0  0
   -0.7969   -0.7985   -0.7695 H   0  0  0  0  0  0  0  0  0  0  0  0
  1  2  1  0
  1  4  1  0
  1  5  1  0
  1  6  1  0
  2  3  2  0
M  RAD  1   2   2
M  END
>  <reaction>  (2) 
rxn_335

>  <mol_properties>  (2) 
{"1": {"label": "acceptor", "atom_type": "CO"}}

>  <type>  (2) 
r2

$$$$

     RDKit          3D

  7  6  0  0  0  0  0  0  0  0999 V2000
   -0.6468   -0.0443   -0.0231 C   0  0  0  0  0  0  0  0  0  0  0  0
    0.8470    0.0371    0.0688 C   0  0  0  0  0  0  0  0  0  0  0  0
    1.4866   -0.2280    1.0479 O   0  0  0  0  0  0  0  0  0  0  0  0
   -1.0466    0.9363   -0.2943 H   0  0  0  0  0  0  0  0  0  0  0  0
   -0.9229   -0.7318   -0.8269 H   0  0  0  0  0  0  0  0  0  0  0  0
   -1.0759   -0.3772    0.9198 H   0  0  0  0  0  0  0  0  0  0  0  0
    1.3584    0.3712   -0.8589 H   0  0  0  0  0  0  0  0  0  0  0  0
  1  2  1  0
  1  4  1  0
  1  5  1  0
  1  6  1  0
  2  3  2  0
  2  7  1  0
M  END
>  <reaction>  (3) 
rxn_335

>  <mol_properties>  (3) 
{"1": {"label": "acceptor", "atom_type": "CO"}, "6": {"label": "a_hydrogen", "atom_type": "H0"}}

>  <type>  (3) 
r2h

$$$$

     RDKit          3D

 17 15  0  0  0  0  0  0  0  0999 V2000
    1.8395   -1.0770    0.8925 C   0  0  0  0  0  0  0  0  0  0  0  0
    1.1951    0.2744    0.7662 C   0  0  0  0  0  0  0  0  0  0  0  0
    1.5788    1.2847    1.2643 O   0  0  0  0  0  0  0  0  0  0  0  0
    2.7322   -1.0357    1.5167 H   0  0  0  0  0  0  0  0  0  0  0  0
    1.1127   -1.7752    1.3132 H   0  0  0  0  0  0  0  0  0  0  0  0
    2.0902   -1.4410   -0.1063 H   0  0  0  0  0  0  0  0  0  0  0  0
   -0.6060    1.5219   -1.7828 C   0  0  0  0  0  0  0  0  0  0  0  0
   -1.0698    0.5575   -0.7264 C   0  0  0  0  0  3  0  0  0  0  0  0
   -2.0270    1.1010    0.2980 C   0  0  0  0  0  0  0  0  0  0  0  0
   -0.1500    2.4051   -1.3276 H   0  0  0  0  0  0  0  0  0  0  0  0
   -1.4419    1.8690   -2.4016 H   0  0  0  0  0  0  0  0  0  0  0  0
    0.1296    1.0684   -2.4499 H   0  0  0  0  0  0  0  0  0  0  0  0
    0.1007    0.3004    0.0219 H   0  0  0  0  0  0  0  0  0  0  0  0
   -1.3423   -0.4256   -1.1114 H   0  0  0  0  0  0  0  0  0  0  0  0
   -2.9698    1.4169   -0.1642 H   0  0  0  0  0  0  0  0  0  0  0  0
   -2.2682    0.3581    1.0606 H   0  0  0  0  0  0  0  0  0  0  0  0
   -1.6022    1.9743    0.7999 H   0  0  0  0  0  0  0  0  0  0  0  0
  1  2  1  0
  1  4  1  0
  1  5  1  0
  1  6  1  0
  2  3  2  0
  2 13  1  0
  7  8  1  0
  7 10  1  0
  7 11  1  0
  7 12  1  0
  8  9  1  0
  8 14  1  0
  9 15  1  0
  9 16  1  0
  9 17  1  0
M  RAD  1   8   2
M  END
>  <reaction>  (4) 
rxn_335

>  <mol_properties>  (4) 
{"1": {"label": "*1", "atom_type": "CO"}, "2": {"label": "*0", "atom_type": "O2d"}, "6": {"label": "*4", "atom_type": "Cs"}, "7": {"label": "*3", "atom_type": "Cs"}, "12": {"label": "*2", "atom_type": "H0"}}

>  <type>  (4) 
ts

$$$$

     RDKit          3D

 17 15  0  0  0  0  0  0  0  0999 V2000
    1.8964   -0.0477    1.2645 C   0  0  0  0  0  0  0  0  0  0  0  0
    0.9569   -0.8470    0.4130 C   0  0  0  0  0  3  0  0  0  0  0  0
    0.6376   -1.9825    0.6289 O   0  0  0  0  0  0  0  0  0  0  0  0
    2.2517   -0.6363    2.1078 H   0  0  0  0  0  0  0  0  0  0  0  0
    2.7404    0.2873    0.6559 H   0  0  0  0  0  0  0  0  0  0  0  0
    1.3863    0.8514    1.6202 H   0  0  0  0  0  0  0  0  0  0  0  0
   -1.1584    0.4746   -1.9908 C   0  0  0  0  0  0  0  0  0  0  0  0
   -1.1584    0.4746   -0.4675 C   0  0  0  0  0  0  0  0  0  0  0  0
   -1.1584    1.8804    0.1192 C   0  0  0  0  0  0  0  0  0  0  0  0
   -0.2770    0.9889   -2.3814 H   0  0  0  0  0  0  0  0  0  0  0  0
   -2.0399    0.9889   -2.3814 H   0  0  0  0  0  0  0  0  0  0  0  0
   -1.1584   -0.5403   -2.3920 H   0  0  0  0  0  0  0  0  0  0  0  0
   -0.1090   -0.1810   -0.0307 H   0  0  0  0  0  0  0  0  0  0  0  0
   -2.0330   -0.0718   -0.1035 H   0  0  0  0  0  0  0  0  0  0  0  0
   -2.0399    2.4390   -0.2049 H   0  0  0  0  0  0  0  0  0  0  0  0
   -1.1584    1.8597    1.2104 H   0  0  0  0  0  0  0  0  0  0  0  0
   -0.2770    2.4390   -0.2049 H   0  0  0  0  0  0  0  0  0  0  0  0
  1  2  1  0
  1  4  1  0
  1  5  1  0
  1  6  1  0
  2  3  2  0
  7  8  1  0
  7 10  1  0
  7 11  1  0
  7 12  1  0
  8  9  1  0
  8 13  1  0
  8 14  1  0
  9 15  1  0
  9 16  1  0
  9 17  1  0
M  RAD  1   2   2
M  END
>  <reaction>  (5) 
rxn_335

>  <mol_properties>  (5) 
{"1": {"label": "*1", "atom_type": "CO"}, "2": {"label": "*0", "atom_type": "O2d"}, "6": {"label": "*4", "atom_type": "Cs"}, "7": {"label": "*3", "atom_type": "Cs"}, "12": {"label": "*2", "atom_type": "H0"}}

>  <type>  (5) 
unop_1

>  <geom_source>  (5) 
Heuristics

$$$$

     RDKit          3D

 17 15  0  0  0  0  0  0  0  0999 V2000
    2.0465   -0.8117   -0.3403 C   0  0  0  0  0  0  0  0  0  0  0  0
    0.8468   -0.8625    0.5568 C   0  0  0  0  0  3  0  0  0  0  0  0
    0.8724   -1.1734    1.7147 O   0  0  0  0  0  0  0  0  0  0  0  0
    2.9473   -1.0952    0.2002 H   0  0  0  0  0  0  0  0  0  0  0  0
    1.8907   -1.4802   -1.1911 H   0  0  0  0  0  0  0  0  0  0  0  0
    2.1521    0.1977   -0.7464 H   0  0  0  0  0  0  0  0  0  0  0  0
   -1.2685    0.4590   -1.8470 C   0  0  0  0  0  0  0  0  0  0  0  0
   -1.2685    0.4590   -0.3237 C   0  0  0  0  0  0  0  0  0  0  0  0
   -1.2685    1.8649    0.2630 C   0  0  0  0  0  0  0  0  0  0  0  0
   -0.3871    0.9733   -2.2377 H   0  0  0  0  0  0  0  0  0  0  0  0
   -2.1500    0.9733   -2.2377 H   0  0  0  0  0  0  0  0  0  0  0  0
   -1.2685   -0.5559   -2.2482 H   0  0  0  0  0  0  0  0  0  0  0  0
   -0.2191   -0.1966    0.1131 H   0  0  0  0  0  0  0  0  0  0  0  0
   -2.1431   -0.0873    0.0403 H   0  0  0  0  0  0  0  0  0  0  0  0
   -2.1500    2.4234   -0.0611 H   0  0  0  0  0  0  0  0  0  0  0  0
   -1.2686    1.8442    1.3541 H   0  0  0  0  0  0  0  0  0  0  0  0
   -0.3871    2.4234   -0.0611 H   0  0  0  0  0  0  0  0  0  0  0  0
  1  2  1  0
  1  4  1  0
  1  5  1  0
  1  6  1  0
  2  3  2  0
  7  8  1  0
  7 10  1  0
  7 11  1  0
  7 12  1  0
  8  9  1  0
  8 13  1  0
  8 14  1  0
  9 15  1  0
  9 16  1  0
  9 17  1  0
M  RAD  1   2   2
M  END
>  <reaction>  (6) 
rxn_335

>  <mol_properties>  (6) 
{"1": {"label": "*1", "atom_type": "CO"}, "2": {"label": "*0", "atom_type": "O2d"}, "6": {"label": "*4", "atom_type": "Cs"}, "7": {"label": "*3", "atom_type": "Cs"}, "12": {"label": "*2", "atom_type": "H0"}}

>  <type>  (6) 
unop_2

>  <geom_source>  (6) 
Heuristics

$$$$

     RDKit          3D

 17 15  0  0  0  0  0  0  0  0999 V2000
    1.4965   -0.3225    1.7613 C   0  0  0  0  0  0  0  0  0  0  0  0
    0.9606   -0.7880    0.4413 C   0  0  0  0  0  3  0  0  0  0  0  0
    1.0200   -1.9162    0.0395 O   0  0  0  0  0  0  0  0  0  0  0  0
    1.9484   -1.1469    2.3091 H   0  0  0  0  0  0  0  0  0  0  0  0
    2.2328    0.4682    1.5945 H   0  0  0  0  0  0  0  0  0  0  0  0
    0.6851    0.1192    2.3459 H   0  0  0  0  0  0  0  0  0  0  0  0
   -1.1548    0.5336   -1.9625 C   0  0  0  0  0  0  0  0  0  0  0  0
   -1.1548    0.5336   -0.4392 C   0  0  0  0  0  0  0  0  0  0  0  0
   -1.1548    1.9394    0.1475 C   0  0  0  0  0  0  0  0  0  0  0  0
   -0.2733    1.0479   -2.3532 H   0  0  0  0  0  0  0  0  0  0  0  0
   -2.0362    1.0479   -2.3532 H   0  0  0  0  0  0  0  0  0  0  0  0
   -1.1548   -0.4813   -2.3637 H   0  0  0  0  0  0  0  0  0  0  0  0
   -0.1053   -0.1220   -0.0024 H   0  0  0  0  0  0  0  0  0  0  0  0
   -2.0293   -0.0128   -0.0752 H   0  0  0  0  0  0  0  0  0  0  0  0
   -2.0362    2.4980   -0.1766 H   0  0  0  0  0  0  0  0  0  0  0  0
   -1.1548    1.9187    1.2386 H   0  0  0  0  0  0  0  0  0  0  0  0
   -0.2733    2.4980   -0.1766 H   0  0  0  0  0  0  0  0  0  0  0  0
  1  2  1  0
  1  4  1  0
  1  5  1  0
  1  6  1  0
  2  3  2  0
  7  8  1  0
  7 10  1  0
  7 11  1  0
  7 12  1  0
  8  9  1  0
  8 13  1  0
  8 14  1  0
  9 15  1  0
  9 16  1  0
  9 17  1  0
M  RAD  1   2   2
M  END
>  <reaction>  (7) 
rxn_335

>  <mol_properties>  (7) 
{"1": {"label": "*1", "atom_type": "CO"}, "2": {"label": "*0", "atom_type": "O2d"}, "6": {"label": "*4", "atom_type": "Cs"}, "7": {"label": "*3", "atom_type": "Cs"}, "12": {"label": "*2", "atom_type": "H0"}}

>  <type>  (7) 
unop_3

>  <geom_source>  (7) 
Heuristics

$$$$

     RDKit          3D

 17 15  0  0  0  0  0  0  0  0999 V2000
    1.0534   -2.1632    0.0658 C   0  0  0  0  0  0  0  0  0  0  0  0
    0.9765   -0.7290    0.4943 C   0  0  0  0  0  3  0  0  0  0  0  0
    1.4026   -0.3020    1.5307 O   0  0  0  0  0  0  0  0  0  0  0  0
    1.5490   -2.7681    0.8224 H   0  0  0  0  0  0  0  0  0  0  0  0
    0.0440   -2.5407   -0.1175 H   0  0  0  0  0  0  0  0  0  0  0  0
    1.5928   -2.2291   -0.8828 H   0  0  0  0  0  0  0  0  0  0  0  0
   -1.1389    0.5925   -1.9095 C   0  0  0  0  0  0  0  0  0  0  0  0
   -1.1389    0.5925   -0.3862 C   0  0  0  0  0  0  0  0  0  0  0  0
   -1.1389    1.9983    0.2005 C   0  0  0  0  0  0  0  0  0  0  0  0
   -0.2574    1.1068   -2.3001 H   0  0  0  0  0  0  0  0  0  0  0  0
   -2.0203    1.1068   -2.3001 H   0  0  0  0  0  0  0  0  0  0  0  0
   -1.1389   -0.4224   -2.3107 H   0  0  0  0  0  0  0  0  0  0  0  0
   -0.0894   -0.0631    0.0506 H   0  0  0  0  0  0  0  0  0  0  0  0
   -2.0134    0.0462   -0.0222 H   0  0  0  0  0  0  0  0  0  0  0  0
   -2.0203    2.5569   -0.1236 H   0  0  0  0  0  0  0  0  0  0  0  0
   -1.1389    1.9776    1.2917 H   0  0  0  0  0  0  0  0  0  0  0  0
   -0.2574    2.5569   -0.1236 H   0  0  0  0  0  0  0  0  0  0  0  0
  1  2  1  0
  1  4  1  0
  1  5  1  0
  1  6  1  0
  2  3  2  0
  7  8  1  0
  7 10  1  0
  7 11  1  0
  7 12  1  0
  8  9  1  0
  8 13  1  0
  8 14  1  0
  9 15  1  0
  9 16  1  0
  9 17  1  0
M  RAD  1   2   2
M  END
>  <reaction>  (8) 
rxn_335

>  <mol_properties>  (8) 
{"1": {"label": "*1", "atom_type": "CO"}, "2": {"label": "*0", "atom_type": "O2d"}, "6": {"label": "*4", "atom_type": "Cs"}, "7": {"label": "*3", "atom_type": "Cs"}, "12": {"label": "*2", "atom_type": "H0"}}

>  <type>  (8) 
unop_4

>  <geom_source>  (8) 
Heuristics

$$$$

     RDKit          3D

 17 15  0  0  0  0  0  0  0  0999 V2000
    1.0290   -0.8856    1.9704 C   0  0  0  0  0  0  0  0  0  0  0  0
    0.9040   -0.8075    0.4788 C   0  0  0  0  0  3  0  0  0  0  0  0
    1.6790   -1.2916   -0.2978 O   0  0  0  0  0  0  0  0  0  0  0  0
    1.9193   -1.4418    2.2565 H   0  0  0  0  0  0  0  0  0  0  0  0
    1.0668    0.1257    2.3838 H   0  0  0  0  0  0  0  0  0  0  0  0
    0.1367   -1.3630    2.3838 H   0  0  0  0  0  0  0  0  0  0  0  0
   -1.2113    0.5140   -1.9250 C   0  0  0  0  0  0  0  0  0  0  0  0
   -1.2113    0.5140   -0.4016 C   0  0  0  0  0  0  0  0  0  0  0  0
   -1.2113    1.9198    0.1851 C   0  0  0  0  0  0  0  0  0  0  0  0
   -0.3299    1.0283   -2.3156 H   0  0  0  0  0  0  0  0  0  0  0  0
   -2.0928    1.0283   -2.3156 H   0  0  0  0  0  0  0  0  0  0  0  0
   -1.2113   -0.5009   -2.3261 H   0  0  0  0  0  0  0  0  0  0  0  0
   -0.1619   -0.1416    0.0352 H   0  0  0  0  0  0  0  0  0  0  0  0
   -2.0859   -0.0323   -0.0376 H   0  0  0  0  0  0  0  0  0  0  0  0
   -2.0928    2.4784   -0.1391 H   0  0  0  0  0  0  0  0  0  0  0  0
   -1.2113    1.8992    1.2762 H   0  0  0  0  0  0  0  0  0  0  0  0
   -0.3299    2.4784   -0.1391 H   0  0  0  0  0  0  0  0  0  0  0  0
  1  2  1  0
  1  4  1  0
  1  5  1  0
  1  6  1  0
  2  3  2  0
  7  8  1  0
  7 10  1  0
  7 11  1  0
  7 12  1  0
  8  9  1  0
  8 13  1  0
  8 14  1  0
  9 15  1  0
  9 16  1  0
  9 17  1  0
M  RAD  1   2   2
M  END
>  <reaction>  (9) 
rxn_335

>  <mol_properties>  (9) 
{"1": {"label": "*1", "atom_type": "CO"}, "2": {"label": "*0", "atom_type": "O2d"}, "6": {"label": "*4", "atom_type": "Cs"}, "7": {"label": "*3", "atom_type": "Cs"}, "12": {"label": "*2", "atom_type": "H0"}}

>  <type>  (9) 
unop_5

>  <geom_source>  (9) 
Heuristics

$$$$

     RDKit          3D

 17 15  0  0  0  0  0  0  0  0999 V2000
    0.7786   -2.2432    0.6470 C   0  0  0  0  0  0  0  0  0  0  0  0
    0.9896   -0.7745    0.4355 C   0  0  0  0  0  3  0  0  0  0  0  0
    1.6286   -0.0648    1.1609 O   0  0  0  0  0  0  0  0  0  0  0  0
    1.2837   -2.5818    1.5493 H   0  0  0  0  0  0  0  0  0  0  0  0
   -0.2930   -2.4487    0.7148 H   0  0  0  0  0  0  0  0  0  0  0  0
    1.1513   -2.7912   -0.2223 H   0  0  0  0  0  0  0  0  0  0  0  0
   -1.1257    0.5471   -1.9683 C   0  0  0  0  0  0  0  0  0  0  0  0
   -1.1257    0.5471   -0.4450 C   0  0  0  0  0  0  0  0  0  0  0  0
   -1.1257    1.9529    0.1417 C   0  0  0  0  0  0  0  0  0  0  0  0
   -0.2443    1.0613   -2.3589 H   0  0  0  0  0  0  0  0  0  0  0  0
   -2.0072    1.0613   -2.3589 H   0  0  0  0  0  0  0  0  0  0  0  0
   -1.1257   -0.4678   -2.3695 H   0  0  0  0  0  0  0  0  0  0  0  0
   -0.0763   -0.1086   -0.0082 H   0  0  0  0  0  0  0  0  0  0  0  0
   -2.0003    0.0007   -0.0810 H   0  0  0  0  0  0  0  0  0  0  0  0
   -2.0072    2.5114   -0.1824 H   0  0  0  0  0  0  0  0  0  0  0  0
   -1.1257    1.9322    1.2329 H   0  0  0  0  0  0  0  0  0  0  0  0
   -0.2443    2.5114   -0.1824 H   0  0  0  0  0  0  0  0  0  0  0  0
  1  2  1  0
  1  4  1  0
  1  5  1  0
  1  6  1  0
  2  3  2  0
  7  8  1  0
  7 10  1  0
  7 11  1  0
  7 12  1  0
  8  9  1  0
  8 13  1  0
  8 14  1  0
  9 15  1  0
  9 16  1  0
  9 17  1  0
M  RAD  1   2   2
M  END
>  <reaction>  (10) 
rxn_335

>  <mol_properties>  (10) 
{"1": {"label": "*1", "atom_type": "CO"}, "2": {"label": "*0", "atom_type": "O2d"}, "6": {"label": "*4", "atom_type": "Cs"}, "7": {"label": "*3", "atom_type": "Cs"}, "12": {"label": "*2", "atom_type": "H0"}}

>  <type>  (10) 
unop_6

>  <geom_source>  (10) 
Heuristics

$$$$

     RDKit          3D

 17 15  0  0  0  0  0  0  0  0999 V2000
    0.6564   -2.0326    1.2645 C   0  0  0  0  0  0  0  0  0  0  0  0
    0.9627   -0.8378    0.4130 C   0  0  0  0  0  3  0  0  0  0  0  0
    1.8432   -0.0528    0.6289 O   0  0  0  0  0  0  0  0  0  0  0  0
    1.3412   -2.0938    2.1078 H   0  0  0  0  0  0  0  0  0  0  0  0
   -0.3753   -1.9685    1.6202 H   0  0  0  0  0  0  0  0  0  0  0  0
    0.7254   -2.9380    0.6559 H   0  0  0  0  0  0  0  0  0  0  0  0
   -1.1527    0.4838   -1.9908 C   0  0  0  0  0  0  0  0  0  0  0  0
   -1.1527    0.4838   -0.4675 C   0  0  0  0  0  0  0  0  0  0  0  0
   -1.1527    1.8896    0.1192 C   0  0  0  0  0  0  0  0  0  0  0  0
   -0.2712    0.9980   -2.3814 H   0  0  0  0  0  0  0  0  0  0  0  0
   -2.0341    0.9980   -2.3814 H   0  0  0  0  0  0  0  0  0  0  0  0
   -1.1527   -0.5311   -2.3920 H   0  0  0  0  0  0  0  0  0  0  0  0
   -0.1033   -0.1718   -0.0307 H   0  0  0  0  0  0  0  0  0  0  0  0
   -2.0272   -0.0626   -0.1035 H   0  0  0  0  0  0  0  0  0  0  0  0
   -2.0341    2.4482   -0.2049 H   0  0  0  0  0  0  0  0  0  0  0  0
   -1.1527    1.8689    1.2104 H   0  0  0  0  0  0  0  0  0  0  0  0
   -0.2712    2.4482   -0.2049 H   0  0  0  0  0  0  0  0  0  0  0  0
  1  2  1  0
  1  4  1  0
  1  5  1  0
  1  6  1  0
  2  3  2  0
  7  8  1  0
  7 10  1  0
  7 11  1  0
  7 12  1  0
  8  9  1  0
  8 13  1  0
  8 14  1  0
  9 15  1  0
  9 16  1  0
  9 17  1  0
M  RAD  1   2   2
M  END
>  <reaction>  (11) 
rxn_335

>  <mol_properties>  (11) 
{"1": {"label": "*1", "atom_type": "CO"}, "2": {"label": "*0", "atom_type": "O2d"}, "6": {"label": "*4", "atom_type": "Cs"}, "7": {"label": "*3", "atom_type": "Cs"}, "12": {"label": "*2", "atom_type": "H0"}}

>  <type>  (11) 
unop_7

>  <geom_source>  (11) 
Heuristics

$$$$

     RDKit          3D

 17 15  0  0  0  0  0  0  0  0999 V2000
    2.1393   -0.0651    0.6470 C   0  0  0  0  0  0  0  0  0  0  0  0
    0.9119   -0.8989    0.4355 C   0  0  0  0  0  3  0  0  0  0  0  0
    0.5543   -1.7844    1.1609 O   0  0  0  0  0  0  0  0  0  0  0  0
    2.6651   -0.3706    1.5493 H   0  0  0  0  0  0  0  0  0  0  0  0
    2.7953   -0.1598   -0.2223 H   0  0  0  0  0  0  0  0  0  0  0  0
    1.8541    0.9880    0.7148 H   0  0  0  0  0  0  0  0  0  0  0  0
   -1.2035    0.4226   -1.9683 C   0  0  0  0  0  0  0  0  0  0  0  0
   -1.2035    0.4226   -0.4450 C   0  0  0  0  0  0  0  0  0  0  0  0
   -1.2035    1.8284    0.1417 C   0  0  0  0  0  0  0  0  0  0  0  0
   -0.3220    0.9369   -2.3589 H   0  0  0  0  0  0  0  0  0  0  0  0
   -2.0849    0.9369   -2.3589 H   0  0  0  0  0  0  0  0  0  0  0  0
   -1.2035   -0.5923   -2.3695 H   0  0  0  0  0  0  0  0  0  0  0  0
   -0.1540   -0.2330   -0.0082 H   0  0  0  0  0  0  0  0  0  0  0  0
   -2.0780   -0.1237   -0.0810 H   0  0  0  0  0  0  0  0  0  0  0  0
   -2.0849    2.3870   -0.1824 H   0  0  0  0  0  0  0  0  0  0  0  0
   -1.2035    1.8077    1.2329 H   0  0  0  0  0  0  0  0  0  0  0  0
   -0.3220    2.3870   -0.1824 H   0  0  0  0  0  0  0  0  0  0  0  0
  1  2  1  0
  1  4  1  0
  1  5  1  0
  1  6  1  0
  2  3  2  0
  7  8  1  0
  7 10  1  0
  7 11  1  0
  7 12  1  0
  8  9  1  0
  8 13  1  0
  8 14  1  0
  9 15  1  0
  9 16  1  0
  9 17  1  0
M  RAD  1   2   2
M  END
>  <reaction>  (12) 
rxn_335

>  <mol_properties>  (12) 
{"1": {"label": "*1", "atom_type": "CO"}, "2": {"label": "*0", "atom_type": "O2d"}, "6": {"label": "*4", "atom_type": "Cs"}, "7": {"label": "*3", "atom_type": "Cs"}, "12": {"label": "*2", "atom_type": "H0"}}

>  <type>  (12) 
unop_8

>  <geom_source>  (12) 
Heuristics

$$$$

     RDKit          3D

 17 15  0  0  0  0  0  0  0  0999 V2000
    1.4088   -1.8324   -0.3403 C   0  0  0  0  0  0  0  0  0  0  0  0
    0.9284   -0.7320    0.5568 C   0  0  0  0  0  3  0  0  0  0  0  0
    1.2190   -0.6187    1.7147 O   0  0  0  0  0  0  0  0  0  0  0  0
    2.0587   -2.5176    0.2001 H   0  0  0  0  0  0  0  0  0  0  0  0
    0.5479   -2.3700   -0.7464 H   0  0  0  0  0  0  0  0  0  0  0  0
    1.9412   -1.3993   -1.1911 H   0  0  0  0  0  0  0  0  0  0  0  0
   -1.1870    0.5896   -1.8470 C   0  0  0  0  0  0  0  0  0  0  0  0
   -1.1870    0.5896   -0.3237 C   0  0  0  0  0  0  0  0  0  0  0  0
   -1.1870    1.9954    0.2630 C   0  0  0  0  0  0  0  0  0  0  0  0
   -0.3056    1.1038   -2.2377 H   0  0  0  0  0  0  0  0  0  0  0  0
   -2.0685    1.1038   -2.2377 H   0  0  0  0  0  0  0  0  0  0  0  0
   -1.1870   -0.4253   -2.2482 H   0  0  0  0  0  0  0  0  0  0  0  0
   -0.1376   -0.0661    0.1131 H   0  0  0  0  0  0  0  0  0  0  0  0
   -2.0615    0.0432    0.0403 H   0  0  0  0  0  0  0  0  0  0  0  0
   -2.0685    2.5539   -0.0611 H   0  0  0  0  0  0  0  0  0  0  0  0
   -1.1870    1.9747    1.3541 H   0  0  0  0  0  0  0  0  0  0  0  0
   -0.3056    2.5539   -0.0611 H   0  0  0  0  0  0  0  0  0  0  0  0
  1  2  1  0
  1  4  1  0
  1  5  1  0
  1  6  1  0
  2  3  2  0
  7  8  1  0
  7 10  1  0
  7 11  1  0
  7 12  1  0
  8  9  1  0
  8 13  1  0
  8 14  1  0
  9 15  1  0
  9 16  1  0
  9 17  1  0
M  RAD  1   2   2
M  END
>  <reaction>  (13) 
rxn_335

>  <mol_properties>  (13) 
{"1": {"label": "*1", "atom_type": "CO"}, "2": {"label": "*0", "atom_type": "O2d"}, "6": {"label": "*4", "atom_type": "Cs"}, "7": {"label": "*3", "atom_type": "Cs"}, "12": {"label": "*2", "atom_type": "H0"}}

>  <type>  (13) 
unop_9

>  <geom_source>  (13) 
Heuristics

$$$$

     RDKit          3D

 17 15  0  0  0  0  0  0  0  0999 V2000
    2.1879   -0.3472    0.0658 C   0  0  0  0  0  0  0  0  0  0  0  0
    0.8653   -0.9071    0.4943 C   0  0  0  0  0  3  0  0  0  0  0  0
    0.6684   -1.4773    1.5307 O   0  0  0  0  0  0  0  0  0  0  0  0
    2.9489   -0.5273    0.8224 H   0  0  0  0  0  0  0  0  0  0  0  0
    2.4836   -0.8031   -0.8828 H   0  0  0  0  0  0  0  0  0  0  0  0
    2.0845    0.7255   -0.1176 H   0  0  0  0  0  0  0  0  0  0  0  0
   -1.2501    0.4145   -1.9095 C   0  0  0  0  0  0  0  0  0  0  0  0
   -1.2501    0.4145   -0.3862 C   0  0  0  0  0  0  0  0  0  0  0  0
   -1.2501    1.8203    0.2005 C   0  0  0  0  0  0  0  0  0  0  0  0
   -0.3686    0.9287   -2.3001 H   0  0  0  0  0  0  0  0  0  0  0  0
   -2.1315    0.9287   -2.3001 H   0  0  0  0  0  0  0  0  0  0  0  0
   -1.2501   -0.6004   -2.3107 H   0  0  0  0  0  0  0  0  0  0  0  0
   -0.2006   -0.2411    0.0506 H   0  0  0  0  0  0  0  0  0  0  0  0
   -2.1246   -0.1319   -0.0222 H   0  0  0  0  0  0  0  0  0  0  0  0
   -2.1315    2.3789   -0.1236 H   0  0  0  0  0  0  0  0  0  0  0  0
   -1.2501    1.7996    1.2917 H   0  0  0  0  0  0  0  0  0  0  0  0
   -0.3686    2.3789   -0.1236 H   0  0  0  0  0  0  0  0  0  0  0  0
  1  2  1  0
  1  4  1  0
  1  5  1  0
  1  6  1  0
  2  3  2  0
  7  8  1  0
  7 10  1  0
  7 11  1  0
  7 12  1  0
  8  9  1  0
  8 13  1  0
  8 14  1  0
  9 15  1  0
  9 16  1  0
  9 17  1  0
M  RAD  1   2   2
M  END
>  <reaction>  (14) 
rxn_335

>  <mol_properties>  (14) 
{"1": {"label": "*1", "atom_type": "CO"}, "2": {"label": "*0", "atom_type": "O2d"}, "6": {"label": "*4", "atom_type": "Cs"}, "7": {"label": "*3", "atom_type": "Cs"}, "12": {"label": "*2", "atom_type": "H0"}}

>  <type>  (14) 
unop_10

>  <geom_source>  (14) 
Heuristics

$$$$

     RDKit          3D

 17 15  0  0  0  0  0  0  0  0999 V2000
    0.7279   -1.5527    1.7613 C   0  0  0  0  0  0  0  0  0  0  0  0
    0.9113   -0.8669    0.4413 C   0  0  0  0  0  3  0  0  0  0  0  0
    1.9513   -0.4255    0.0395 O   0  0  0  0  0  0  0  0  0  0  0  0
    1.6670   -1.5973    2.3091 H   0  0  0  0  0  0  0  0  0  0  0  0
   -0.0248   -1.0172    2.3459 H   0  0  0  0  0  0  0  0  0  0  0  0
    0.3402   -2.5611    1.5945 H   0  0  0  0  0  0  0  0  0  0  0  0
   -1.2041    0.4546   -1.9625 C   0  0  0  0  0  0  0  0  0  0  0  0
   -1.2041    0.4546   -0.4392 C   0  0  0  0  0  0  0  0  0  0  0  0
   -1.2041    1.8604    0.1475 C   0  0  0  0  0  0  0  0  0  0  0  0
   -0.3227    0.9689   -2.3532 H   0  0  0  0  0  0  0  0  0  0  0  0
   -2.0856    0.9689   -2.3532 H   0  0  0  0  0  0  0  0  0  0  0  0
   -1.2041   -0.5603   -2.3637 H   0  0  0  0  0  0  0  0  0  0  0  0
   -0.1547   -0.2010   -0.0024 H   0  0  0  0  0  0  0  0  0  0  0  0
   -2.0786   -0.0918   -0.0752 H   0  0  0  0  0  0  0  0  0  0  0  0
   -2.0856    2.4190   -0.1766 H   0  0  0  0  0  0  0  0  0  0  0  0
   -1.2041    1.8397    1.2386 H   0  0  0  0  0  0  0  0  0  0  0  0
   -0.3227    2.4190   -0.1766 H   0  0  0  0  0  0  0  0  0  0  0  0
  1  2  1  0
  1  4  1  0
  1  5  1  0
  1  6  1  0
  2  3  2  0
  7  8  1  0
  7 10  1  0
  7 11  1  0
  7 12  1  0
  8  9  1  0
  8 13  1  0
  8 14  1  0
  9 15  1  0
  9 16  1  0
  9 17  1  0
M  RAD  1   2   2
M  END
>  <reaction>  (15) 
rxn_335

>  <mol_properties>  (15) 
{"1": {"label": "*1", "atom_type": "CO"}, "2": {"label": "*0", "atom_type": "O2d"}, "6": {"label": "*4", "atom_type": "Cs"}, "7": {"label": "*3", "atom_type": "Cs"}, "12": {"label": "*2", "atom_type": "H0"}}

>  <type>  (15) 
unop_11

>  <geom_source>  (15) 
Heuristics

$$$$

     RDKit          3D

 17 15  0  0  0  0  0  0  0  0999 V2000
    1.7639   -1.3447   -0.4845 C   0  0  0  0  0  0  0  0  0  0  0  0
    0.8725   -0.7878    0.5841 C   0  0  0  0  0  3  0  0  0  0  0  0
    1.0623   -0.9064    1.7622 O   0  0  0  0  0  0  0  0  0  0  0  0
    2.6093   -1.8728   -0.0482 H   0  0  0  0  0  0  0  0  0  0  0  0
    1.1864   -2.0188   -1.1225 H   0  0  0  0  0  0  0  0  0  0  0  0
    2.1165   -0.5301   -1.1225 H   0  0  0  0  0  0  0  0  0  0  0  0
   -1.2428    0.5337   -1.8197 C   0  0  0  0  0  0  0  0  0  0  0  0
   -1.2428    0.5337   -0.2964 C   0  0  0  0  0  0  0  0  0  0  0  0
   -1.2428    1.9395    0.2903 C   0  0  0  0  0  0  0  0  0  0  0  0
   -0.3614    1.0480   -2.2104 H   0  0  0  0  0  0  0  0  0  0  0  0
   -2.1243    1.0480   -2.2104 H   0  0  0  0  0  0  0  0  0  0  0  0
   -1.2428   -0.4812   -2.2209 H   0  0  0  0  0  0  0  0  0  0  0  0
   -0.1934   -0.1219    0.1404 H   0  0  0  0  0  0  0  0  0  0  0  0
   -2.1174   -0.0126    0.0676 H   0  0  0  0  0  0  0  0  0  0  0  0
   -2.1243    2.4981   -0.0338 H   0  0  0  0  0  0  0  0  0  0  0  0
   -1.2428    1.9188    1.3814 H   0  0  0  0  0  0  0  0  0  0  0  0
   -0.3614    2.4981   -0.0338 H   0  0  0  0  0  0  0  0  0  0  0  0
  1  2  1  0
  1  4  1  0
  1  5  1  0
  1  6  1  0
  2  3  2  0
  7  8  1  0
  7 10  1  0
  7 11  1  0
  7 12  1  0
  8  9  1  0
  8 13  1  0
  8 14  1  0
  9 15  1  0
  9 16  1  0
  9 17  1  0
M  RAD  1   2   2
M  END
>  <reaction>  (16) 
rxn_335

>  <mol_properties>  (16) 
{"1": {"label": "*1", "atom_type": "CO"}, "2": {"label": "*0", "atom_type": "O2d"}, "6": {"label": "*4", "atom_type": "Cs"}, "7": {"label": "*3", "atom_type": "Cs"}, "12": {"label": "*2", "atom_type": "H0"}}

>  <type>  (16) 
unop_12

>  <geom_source>  (16) 
Heuristics

$$$$

     RDKit          3D

 17 15  0  0  0  0  0  0  0  0999 V2000
    2.2355   -0.0853   -1.5507 O   0  0  0  0  0  0  0  0  0  0  0  0
   -1.4030    0.4541    0.9974 C   0  0  0  0  0  0  0  0  0  0  0  0
   -1.7580   -0.7405   -1.1943 C   0  0  0  0  0  0  0  0  0  0  0  0
    2.5574    0.1585    0.7701 C   0  0  0  0  0  0  0  0  0  0  0  0
   -0.8394    0.1708   -0.3896 C   0  0  0  0  0  3  0  0  0  0  0  0
    1.7252   -0.0946   -0.4423 C   0  0  0  0  0  0  0  0  0  0  0  0
    3.3553   -0.6097    0.8453 H   0  0  0  0  0  0  0  0  0  0  0  0
    3.0190    1.1661    0.7054 H   0  0  0  0  0  0  0  0  0  0  0  0
    1.9182    0.1088    1.6758 H   0  0  0  0  0  0  0  0  0  0  0  0
   -1.5286   -0.4948    1.5603 H   0  0  0  0  0  0  0  0  0  0  0  0
   -2.3832    0.9709    0.9185 H   0  0  0  0  0  0  0  0  0  0  0  0
   -0.6974    1.1055    1.5538 H   0  0  0  0  0  0  0  0  0  0  0  0
   -2.7489   -0.2599   -1.3397 H   0  0  0  0  0  0  0  0  0  0  0  0
   -1.8898   -1.7103   -0.6697 H   0  0  0  0  0  0  0  0  0  0  0  0
   -1.3035   -0.9341   -2.1881 H   0  0  0  0  0  0  0  0  0  0  0  0
   -0.6821    1.1258   -0.9356 H   0  0  0  0  0  0  0  0  0  0  0  0
    0.4234   -0.3312   -0.3167 H   0  0  0  0  0  0  0  0  0  0  0  0
  1  6  2  0
  2  5  1  0
  2 10  1  0
  2 11  1  0
  2 12  1  0
  3  5  1  0
  3 13  1  0
  3 14  1  0
  3 15  1  0
  4  6  1  0
  4  7  1  0
  4  8  1  0
  4  9  1  0
  5 16  1  0
  6 17  1  0
M  RAD  1   5   2
M  END
>  <reaction>  (17) 
rxn_335

>  <mol_properties>  (17) 
{"1": {"label": "*1", "atom_type": "CO"}, "2": {"label": "*0", "atom_type": "O2d"}, "6": {"label": "*4", "atom_type": "Cs"}, "7": {"label": "*3", "atom_type": "Cs"}, "12": {"label": "*2", "atom_type": "H0"}}

>  <type>  (17) 
unop_13

>  <geom_source>  (17) 
AutoTST

$$$$
