
     RDKit          3D

  9  8  0  0  0  0  0  0  0  0999 V2000
   -0.8818   -0.3578    0.1297 C   0  0  0  0  0  0  0  0  0  0  0  0
    0.6153   -0.3021   -0.1188 C   0  0  0  0  0  0  0  0  0  0  0  0
    1.5354   -1.7170    0.5545 S   0  0  0  0  0  0  0  0  0  0  0  0
   -1.1018   -0.3317    1.1984 H   0  0  0  0  0  0  0  0  0  0  0  0
   -1.3114   -1.2723   -0.2799 H   0  0  0  0  0  0  0  0  0  0  0  0
   -1.3767    0.4976   -0.3363 H   0  0  0  0  0  0  0  0  0  0  0  0
    1.0467    0.6194    0.2718 H   0  0  0  0  0  0  0  0  0  0  0  0
    0.8295   -0.3275   -1.1882 H   0  0  0  0  0  0  0  0  0  0  0  0
    1.2306   -1.5077    1.8423 H   0  0  0  0  0  0  0  0  0  0  0  0
  1  2  1  0
  1  4  1  0
  1  5  1  0
  1  6  1  0
  2  3  1  0
  2  7  1  0
  2  8  1  0
  3  9  1  0
M  END
>  <reaction>  (1) 
rxn_1867

>  <mol_properties>  (1) 
{"1": {"label": "donator", "atom_type": "Cs"}, "6": {"label": "d_hydrogen", "atom_type": "H0"}}

>  <type>  (1) 
r1h

$$$$

     RDKit          3D

 13 12  0  0  0  0  0  0  0  0999 V2000
   -1.3649   -0.5968   -0.3477 C   0  0  0  0  0  0  0  0  0  0  0  0
   -0.1601   -0.2776    0.4669 C   0  0  0  0  0  3  0  0  0  0  0  0
    1.1242   -0.9571    0.1415 C   0  0  0  0  0  0  0  0  0  0  0  0
   -0.1188    1.0131    1.2080 C   0  0  0  0  0  0  0  0  0  0  0  0
   -1.4265   -1.6633   -0.5768 H   0  0  0  0  0  0  0  0  0  0  0  0
   -2.2858   -0.3004    0.1601 H   0  0  0  0  0  0  0  0  0  0  0  0
   -1.3532   -0.0670   -1.3139 H   0  0  0  0  0  0  0  0  0  0  0  0
    1.6174   -0.4964   -0.7296 H   0  0  0  0  0  0  0  0  0  0  0  0
    0.9723   -2.0105   -0.1062 H   0  0  0  0  0  0  0  0  0  0  0  0
    1.8338   -0.8976    0.9702 H   0  0  0  0  0  0  0  0  0  0  0  0
   -1.0852    1.2509    1.6591 H   0  0  0  0  0  0  0  0  0  0  0  0
    0.6358    1.0011    1.9982 H   0  0  0  0  0  0  0  0  0  0  0  0
    0.1343    1.8546    0.5431 H   0  0  0  0  0  0  0  0  0  0  0  0
  1  2  1  0
  1  5  1  0
  1  6  1  0
  1  7  1  0
  2  3  1  0
  2  4  1  0
  3  8  1  0
  3  9  1  0
  3 10  1  0
  4 11  1  0
  4 12  1  0
  4 13  1  0
M  RAD  1   2   2
M  END
>  <reaction>  (2) 
rxn_1867

>  <mol_properties>  (2) 
{"1": {"label": "acceptor", "atom_type": "Cs"}}

>  <type>  (2) 
r2

$$$$

     RDKit          3D

 14 13  0  0  0  0  0  0  0  0999 V2000
   -0.7647   -1.2352   -0.0349 C   0  0  0  0  0  0  0  0  0  0  0  0
    0.0570   -0.0126    0.3624 C   0  0  0  0  0  0  0  0  0  0  0  0
    1.4161   -0.0194   -0.3308 C   0  0  0  0  0  0  0  0  0  0  0  0
   -0.7022    1.2765    0.0630 C   0  0  0  0  0  0  0  0  0  0  0  0
   -0.2388   -2.1618    0.2041 H   0  0  0  0  0  0  0  0  0  0  0  0
   -0.9624   -1.2316   -1.1108 H   0  0  0  0  0  0  0  0  0  0  0  0
   -1.7274   -1.2511    0.4805 H   0  0  0  0  0  0  0  0  0  0  0  0
    0.2295   -0.0590    1.4432 H   0  0  0  0  0  0  0  0  0  0  0  0
    1.2932    0.0259   -1.4168 H   0  0  0  0  0  0  0  0  0  0  0  0
    2.0206    0.8382   -0.0280 H   0  0  0  0  0  0  0  0  0  0  0  0
    1.9767   -0.9268   -0.0966 H   0  0  0  0  0  0  0  0  0  0  0  0
   -1.6638    1.3001    0.5799 H   0  0  0  0  0  0  0  0  0  0  0  0
   -0.8977    1.3664   -1.0096 H   0  0  0  0  0  0  0  0  0  0  0  0
   -0.1313    2.1545    0.3722 H   0  0  0  0  0  0  0  0  0  0  0  0
  1  2  1  0
  1  5  1  0
  1  6  1  0
  1  7  1  0
  2  3  1  0
  2  4  1  0
  2  8  1  0
  3  9  1  0
  3 10  1  0
  3 11  1  0
  4 12  1  0
  4 13  1  0
  4 14  1  0
M  END
>  <reaction>  (3) 
rxn_1867

>  <mol_properties>  (3) 
{"0": {"label": "a_hydrogen", "atom_type": "H0"}, "2": {"label": "acceptor", "atom_type": "Cs"}}

>  <type>  (3) 
r2h

$$$$

     RDKit          3D

 22 20  0  0  0  0  0  0  0  0999 V2000
   -1.3929   -0.2583   -1.8225 C   0  0  0  0  0  0  0  0  0  0  0  0
   -1.0647    0.4428   -0.5300 C   0  0  0  0  0  3  0  0  0  0  0  0
   -0.5896    2.1562   -0.6311 S   0  0  0  0  0  0  0  0  0  0  0  0
   -0.5331   -0.2520   -2.4970 H   0  0  0  0  0  0  0  0  0  0  0  0
   -2.2276    0.2182   -2.3437 H   0  0  0  0  0  0  0  0  0  0  0  0
   -1.6590   -1.2999   -1.6297 H   0  0  0  0  0  0  0  0  0  0  0  0
   -0.0369   -0.2414    0.0168 H   0  0  0  0  0  0  0  0  0  0  0  0
   -1.8444    0.3655    0.2267 H   0  0  0  0  0  0  0  0  0  0  0  0
    0.3788    2.0019   -1.5457 H   0  0  0  0  0  0  0  0  0  0  0  0
    2.1549   -0.5262   -0.3742 C   0  0  0  0  0  0  0  0  0  0  0  0
    1.0041   -0.9177    0.5192 C   0  0  0  0  0  0  0  0  0  0  0  0
    0.6109   -2.3712    0.4223 C   0  0  0  0  0  0  0  0  0  0  0  0
    1.1126   -0.3932    1.9293 C   0  0  0  0  0  0  0  0  0  0  0  0
    1.9704   -0.8150   -1.4120 H   0  0  0  0  0  0  0  0  0  0  0  0
    2.3293    0.5515   -0.3428 H   0  0  0  0  0  0  0  0  0  0  0  0
    3.0832   -1.0186   -0.0582 H   0  0  0  0  0  0  0  0  0  0  0  0
    1.3922   -3.0176    0.8413 H   0  0  0  0  0  0  0  0  0  0  0  0
    0.4578   -2.6747   -0.6158 H   0  0  0  0  0  0  0  0  0  0  0  0
   -0.3097   -2.5719    0.9754 H   0  0  0  0  0  0  0  0  0  0  0  0
    1.2478    0.6905    1.9355 H   0  0  0  0  0  0  0  0  0  0  0  0
    0.2174   -0.6271    2.5098 H   0  0  0  0  0  0  0  0  0  0  0  0
    1.9690   -0.8398    2.4498 H   0  0  0  0  0  0  0  0  0  0  0  0
  1  2  1  0
  1  4  1  0
  1  5  1  0
  1  6  1  0
  2  3  1  0
  2  8  1  0
  3  9  1  0
  7 11  1  0
 10 11  1  0
 10 14  1  0
 10 15  1  0
 10 16  1  0
 11 12  1  0
 11 13  1  0
 12 17  1  0
 12 18  1  0
 12 19  1  0
 13 20  1  0
 13 21  1  0
 13 22  1  0
M  RAD  1   2   2
M  END
>  <reaction>  (4) 
rxn_1867

>  <mol_properties>  (4) 
{"1": {"label": "*3", "atom_type": "Cs"}, "2": {"label": "*4", "atom_type": "S2s"}, "6": {"label": "*2", "atom_type": "H0"}, "9": {"label": "*0", "atom_type": "Cs"}, "10": {"label": "*1", "atom_type": "Cs"}}

>  <type>  (4) 
ts

$$$$

     RDKit          3D

 22 20  0  0  0  0  0  0  0  0999 V2000
   -1.0443    0.2954   -2.1315 C   0  0  0  0  0  0  0  0  0  0  0  0
   -1.0443    0.2954   -0.6128 C   0  0  0  0  0  0  0  0  0  0  0  0
   -1.0443    1.9527    0.1321 S   0  0  0  0  0  0  0  0  0  0  0  0
   -0.1377    0.7608   -2.5223 H   0  0  0  0  0  0  0  0  0  0  0  0
   -1.9003    0.8466   -2.5216 H   0  0  0  0  0  0  0  0  0  0  0  0
   -1.0874   -0.7280   -2.5118 H   0  0  0  0  0  0  0  0  0  0  0  0
   -0.0324   -0.3840   -0.1387 H   0  0  0  0  0  0  0  0  0  0  0  0
   -1.9519   -0.1717   -0.2277 H   0  0  0  0  0  0  0  0  0  0  0  0
    0.1305    2.3544   -0.3714 H   0  0  0  0  0  0  0  0  0  0  0  0
    1.8304   -0.1203    1.1846 C   0  0  0  0  0  0  0  0  0  0  0  0
    0.9847   -1.0668    0.3379 C   0  0  0  0  0  3  0  0  0  0  0  0
    1.8176   -2.2428   -0.1633 C   0  0  0  0  0  0  0  0  0  0  0  0
   -0.2345   -1.5533    1.1154 C   0  0  0  0  0  0  0  0  0  0  0  0
    2.6890    0.2545    0.6235 H   0  0  0  0  0  0  0  0  0  0  0  0
    1.2470    0.7388    1.5223 H   0  0  0  0  0  0  0  0  0  0  0  0
    2.2105   -0.6351    2.0719 H   0  0  0  0  0  0  0  0  0  0  0  0
    2.1973   -2.8303    0.6778 H   0  0  0  0  0  0  0  0  0  0  0  0
    2.6761   -1.9018   -0.7457 H   0  0  0  0  0  0  0  0  0  0  0  0
    1.2251   -2.9088   -0.7941 H   0  0  0  0  0  0  0  0  0  0  0  0
   -0.8505   -0.7167    1.4520 H   0  0  0  0  0  0  0  0  0  0  0  0
   -0.8596   -2.2081    0.5047 H   0  0  0  0  0  0  0  0  0  0  0  0
    0.0746   -2.1172    2.0004 H   0  0  0  0  0  0  0  0  0  0  0  0
  1  2  1  0
  1  4  1  0
  1  5  1  0
  1  6  1  0
  2  3  1  0
  2  7  1  0
  2  8  1  0
  3  9  1  0
 10 11  1  0
 10 14  1  0
 10 15  1  0
 10 16  1  0
 11 12  1  0
 11 13  1  0
 12 17  1  0
 12 18  1  0
 12 19  1  0
 13 20  1  0
 13 21  1  0
 13 22  1  0
M  RAD  1  11   2
M  END
>  <reaction>  (5) 
rxn_1867

>  <mol_properties>  (5) 
{"1": {"label": "*3", "atom_type": "Cs"}, "2": {"label": "*4", "atom_type": "S2s"}, "6": {"label": "*2", "atom_type": "H0"}, "9": {"label": "*0", "atom_type": "Cs"}, "10": {"label": "*1", "atom_type": "Cs"}}

>  <type>  (5) 
unop_1

>  <geom_source>  (5) 
Heuristics

$$$$

     RDKit          3D

 22 20  0  0  0  0  0  0  0  0999 V2000
   -1.1416    0.2467   -2.0708 C   0  0  0  0  0  0  0  0  0  0  0  0
   -1.1416    0.2467   -0.5521 C   0  0  0  0  0  0  0  0  0  0  0  0
   -1.1416    1.9040    0.1929 S   0  0  0  0  0  0  0  0  0  0  0  0
   -0.2350    0.7121   -2.4615 H   0  0  0  0  0  0  0  0  0  0  0  0
   -1.9976    0.7979   -2.4609 H   0  0  0  0  0  0  0  0  0  0  0  0
   -1.1847   -0.7767   -2.4511 H   0  0  0  0  0  0  0  0  0  0  0  0
   -0.1297   -0.4327   -0.0780 H   0  0  0  0  0  0  0  0  0  0  0  0
   -2.0492   -0.2204   -0.1670 H   0  0  0  0  0  0  0  0  0  0  0  0
    0.0332    2.3057   -0.3107 H   0  0  0  0  0  0  0  0  0  0  0  0
    2.0338   -1.0109   -0.6028 C   0  0  0  0  0  0  0  0  0  0  0  0
    0.8874   -1.1155    0.3986 C   0  0  0  0  0  3  0  0  0  0  0  0
    0.7375   -2.5453    0.9095 C   0  0  0  0  0  0  0  0  0  0  0  0
    1.0821   -0.1399    1.5554 C   0  0  0  0  0  0  0  0  0  0  0  0
    1.8853   -1.6860   -1.4482 H   0  0  0  0  0  0  0  0  0  0  0  0
    2.1277    0.0042   -0.9941 H   0  0  0  0  0  0  0  0  0  0  0  0
    2.9834   -1.2746   -0.1280 H   0  0  0  0  0  0  0  0  0  0  0  0
    1.6427   -2.8616    1.4362 H   0  0  0  0  0  0  0  0  0  0  0  0
    0.5685   -3.2448    0.0882 H   0  0  0  0  0  0  0  0  0  0  0  0
   -0.1001   -2.6327    1.6048 H   0  0  0  0  0  0  0  0  0  0  0  0
    1.1610    0.8889    1.1980 H   0  0  0  0  0  0  0  0  0  0  0  0
    0.2499   -0.1892    2.2607 H   0  0  0  0  0  0  0  0  0  0  0  0
    1.9990   -0.3736    2.1044 H   0  0  0  0  0  0  0  0  0  0  0  0
  1  2  1  0
  1  4  1  0
  1  5  1  0
  1  6  1  0
  2  3  1  0
  2  7  1  0
  2  8  1  0
  3  9  1  0
 10 11  1  0
 10 14  1  0
 10 15  1  0
 10 16  1  0
 11 12  1  0
 11 13  1  0
 12 17  1  0
 12 18  1  0
 12 19  1  0
 13 20  1  0
 13 21  1  0
 13 22  1  0
M  RAD  1  11   2
M  END
>  <reaction>  (6) 
rxn_1867

>  <mol_properties>  (6) 
{"1": {"label": "*3", "atom_type": "Cs"}, "2": {"label": "*4", "atom_type": "S2s"}, "6": {"label": "*2", "atom_type": "H0"}, "9": {"label": "*0", "atom_type": "Cs"}, "10": {"label": "*1", "atom_type": "Cs"}}

>  <type>  (6) 
unop_2

>  <geom_source>  (6) 
Heuristics

$$$$

     RDKit          3D

 22 20  0  0  0  0  0  0  0  0999 V2000
   -1.0630    0.3343   -2.0858 C   0  0  0  0  0  0  0  0  0  0  0  0
   -1.0630    0.3343   -0.5672 C   0  0  0  0  0  0  0  0  0  0  0  0
   -1.0630    1.9917    0.1778 S   0  0  0  0  0  0  0  0  0  0  0  0
   -0.1563    0.7997   -2.4766 H   0  0  0  0  0  0  0  0  0  0  0  0
   -1.9189    0.8855   -2.4759 H   0  0  0  0  0  0  0  0  0  0  0  0
   -1.1060   -0.6891   -2.4661 H   0  0  0  0  0  0  0  0  0  0  0  0
   -0.0510   -0.3450   -0.0930 H   0  0  0  0  0  0  0  0  0  0  0  0
   -1.9706   -0.1328   -0.1820 H   0  0  0  0  0  0  0  0  0  0  0  0
    0.1118    2.3933   -0.3257 H   0  0  0  0  0  0  0  0  0  0  0  0
    1.3556   -0.4152    1.7254 C   0  0  0  0  0  0  0  0  0  0  0  0
    0.9661   -1.0279    0.3835 C   0  0  0  0  0  3  0  0  0  0  0  0
    2.1968   -1.5309   -0.3649 C   0  0  0  0  0  0  0  0  0  0  0  0
   -0.0547   -2.1464    0.5697 C   0  0  0  0  0  0  0  0  0  0  0  0
    2.0641    0.4058    1.5964 H   0  0  0  0  0  0  0  0  0  0  0  0
    0.4820   -0.0270    2.2532 H   0  0  0  0  0  0  0  0  0  0  0  0
    1.8272   -1.1651    2.3673 H   0  0  0  0  0  0  0  0  0  0  0  0
    2.6972   -2.3190    0.2053 H   0  0  0  0  0  0  0  0  0  0  0  0
    2.9187   -0.7277   -0.5271 H   0  0  0  0  0  0  0  0  0  0  0  0
    1.9276   -1.9444   -1.3391 H   0  0  0  0  0  0  0  0  0  0  0  0
   -0.9506   -1.7855    1.0793 H   0  0  0  0  0  0  0  0  0  0  0  0
   -0.3596   -2.5694   -0.3897 H   0  0  0  0  0  0  0  0  0  0  0  0
    0.3684   -2.9558    1.1719 H   0  0  0  0  0  0  0  0  0  0  0  0
  1  2  1  0
  1  4  1  0
  1  5  1  0
  1  6  1  0
  2  3  1  0
  2  7  1  0
  2  8  1  0
  3  9  1  0
 10 11  1  0
 10 14  1  0
 10 15  1  0
 10 16  1  0
 11 12  1  0
 11 13  1  0
 12 17  1  0
 12 18  1  0
 12 19  1  0
 13 20  1  0
 13 21  1  0
 13 22  1  0
M  RAD  1  11   2
M  END
>  <reaction>  (7) 
rxn_1867

>  <mol_properties>  (7) 
{"1": {"label": "*3", "atom_type": "Cs"}, "2": {"label": "*4", "atom_type": "S2s"}, "6": {"label": "*2", "atom_type": "H0"}, "9": {"label": "*0", "atom_type": "Cs"}, "10": {"label": "*1", "atom_type": "Cs"}}

>  <type>  (7) 
unop_3

>  <geom_source>  (7) 
Heuristics

$$$$

     RDKit          3D

 22 20  0  0  0  0  0  0  0  0999 V2000
   -1.0555    0.3135   -2.1126 C   0  0  0  0  0  0  0  0  0  0  0  0
   -1.0555    0.3135   -0.5940 C   0  0  0  0  0  0  0  0  0  0  0  0
   -1.0555    1.9709    0.1510 S   0  0  0  0  0  0  0  0  0  0  0  0
   -0.1489    0.7789   -2.5034 H   0  0  0  0  0  0  0  0  0  0  0  0
   -1.9115    0.8647   -2.5027 H   0  0  0  0  0  0  0  0  0  0  0  0
   -1.0986   -0.7098   -2.4929 H   0  0  0  0  0  0  0  0  0  0  0  0
   -0.0436   -0.3658   -0.1198 H   0  0  0  0  0  0  0  0  0  0  0  0
   -1.9631   -0.1535   -0.2088 H   0  0  0  0  0  0  0  0  0  0  0  0
    0.1193    2.3726   -0.3525 H   0  0  0  0  0  0  0  0  0  0  0  0
    0.8547   -2.4830   -0.1494 C   0  0  0  0  0  0  0  0  0  0  0  0
    0.9735   -1.0487    0.3568 C   0  0  0  0  0  3  0  0  0  0  0  0
    0.1743   -0.8551    1.6419 C   0  0  0  0  0  0  0  0  0  0  0  0
    2.4351   -0.6603    0.5589 C   0  0  0  0  0  0  0  0  0  0  0  0
   -0.1878   -2.7573   -0.3242 H   0  0  0  0  0  0  0  0  0  0  0  0
    1.4010   -2.6205   -1.0849 H   0  0  0  0  0  0  0  0  0  0  0  0
    1.2658   -3.1839    0.5831 H   0  0  0  0  0  0  0  0  0  0  0  0
    0.5622   -1.5001    2.4358 H   0  0  0  0  0  0  0  0  0  0  0  0
   -0.8790   -1.1036    1.4957 H   0  0  0  0  0  0  0  0  0  0  0  0
    0.2318    0.1771    1.9935 H   0  0  0  0  0  0  0  0  0  0  0  0
    3.0063   -0.7690   -0.3654 H   0  0  0  0  0  0  0  0  0  0  0  0
    2.5282    0.3751    0.8933 H   0  0  0  0  0  0  0  0  0  0  0  0
    2.9006   -1.2985    1.3158 H   0  0  0  0  0  0  0  0  0  0  0  0
  1  2  1  0
  1  4  1  0
  1  5  1  0
  1  6  1  0
  2  3  1  0
  2  7  1  0
  2  8  1  0
  3  9  1  0
 10 11  1  0
 10 14  1  0
 10 15  1  0
 10 16  1  0
 11 12  1  0
 11 13  1  0
 12 17  1  0
 12 18  1  0
 12 19  1  0
 13 20  1  0
 13 21  1  0
 13 22  1  0
M  RAD  1  11   2
M  END
>  <reaction>  (8) 
rxn_1867

>  <mol_properties>  (8) 
{"1": {"label": "*3", "atom_type": "Cs"}, "2": {"label": "*4", "atom_type": "S2s"}, "6": {"label": "*2", "atom_type": "H0"}, "9": {"label": "*0", "atom_type": "Cs"}, "10": {"label": "*1", "atom_type": "Cs"}}

>  <type>  (8) 
unop_4

>  <geom_source>  (8) 
Heuristics

$$$$

     RDKit          3D

 22 20  0  0  0  0  0  0  0  0999 V2000
   -1.1282    0.2975   -2.0501 C   0  0  0  0  0  0  0  0  0  0  0  0
   -1.1282    0.2975   -0.5314 C   0  0  0  0  0  0  0  0  0  0  0  0
   -1.1282    1.9548    0.2136 S   0  0  0  0  0  0  0  0  0  0  0  0
   -0.2215    0.7629   -2.4408 H   0  0  0  0  0  0  0  0  0  0  0  0
   -1.9842    0.8487   -2.4402 H   0  0  0  0  0  0  0  0  0  0  0  0
   -1.1713   -0.7259   -2.4304 H   0  0  0  0  0  0  0  0  0  0  0  0
   -0.1163   -0.3819   -0.0573 H   0  0  0  0  0  0  0  0  0  0  0  0
   -2.0358   -0.1696   -0.1463 H   0  0  0  0  0  0  0  0  0  0  0  0
    0.0466    2.3565   -0.2900 H   0  0  0  0  0  0  0  0  0  0  0  0
    0.8273   -1.0153    1.9424 C   0  0  0  0  0  0  0  0  0  0  0  0
    0.9009   -1.0647    0.4193 C   0  0  0  0  0  3  0  0  0  0  0  0
    2.1834   -0.4116   -0.0869 C   0  0  0  0  0  0  0  0  0  0  0  0
    0.7820   -2.4991   -0.0869 C   0  0  0  0  0  0  0  0  0  0  0  0
    0.8823    0.0117    2.3095 H   0  0  0  0  0  0  0  0  0  0  0  0
   -0.1023   -1.4554    2.3095 H   0  0  0  0  0  0  0  0  0  0  0  0
    1.6579   -1.5728    2.3851 H   0  0  0  0  0  0  0  0  0  0  0  0
    3.0606   -0.9484    0.2862 H   0  0  0  0  0  0  0  0  0  0  0  0
    2.2601    0.6250    0.2480 H   0  0  0  0  0  0  0  0  0  0  0  0
    2.2283   -0.4178   -1.1780 H   0  0  0  0  0  0  0  0  0  0  0  0
   -0.1483   -2.9625    0.2482 H   0  0  0  0  0  0  0  0  0  0  0  0
    0.8045   -2.5382   -1.1780 H   0  0  0  0  0  0  0  0  0  0  0  0
    1.6111   -3.1076    0.2860 H   0  0  0  0  0  0  0  0  0  0  0  0
  1  2  1  0
  1  4  1  0
  1  5  1  0
  1  6  1  0
  2  3  1  0
  2  7  1  0
  2  8  1  0
  3  9  1  0
 10 11  1  0
 10 14  1  0
 10 15  1  0
 10 16  1  0
 11 12  1  0
 11 13  1  0
 12 17  1  0
 12 18  1  0
 12 19  1  0
 13 20  1  0
 13 21  1  0
 13 22  1  0
M  RAD  1  11   2
M  END
>  <reaction>  (9) 
rxn_1867

>  <mol_properties>  (9) 
{"1": {"label": "*3", "atom_type": "Cs"}, "2": {"label": "*4", "atom_type": "S2s"}, "6": {"label": "*2", "atom_type": "H0"}, "9": {"label": "*0", "atom_type": "Cs"}, "10": {"label": "*1", "atom_type": "Cs"}}

>  <type>  (9) 
unop_5

>  <geom_source>  (9) 
Heuristics

$$$$

     RDKit          3D

 22 20  0  0  0  0  0  0  0  0999 V2000
   -1.0593    0.2657   -2.1403 C   0  0  0  0  0  0  0  0  0  0  0  0
   -1.0593    0.2657   -0.6217 C   0  0  0  0  0  0  0  0  0  0  0  0
   -1.0593    1.9230    0.1233 S   0  0  0  0  0  0  0  0  0  0  0  0
   -0.1526    0.7311   -2.5311 H   0  0  0  0  0  0  0  0  0  0  0  0
   -1.9152    0.8169   -2.5304 H   0  0  0  0  0  0  0  0  0  0  0  0
   -1.1023   -0.7577   -2.5206 H   0  0  0  0  0  0  0  0  0  0  0  0
   -0.0474   -0.4137   -0.1476 H   0  0  0  0  0  0  0  0  0  0  0  0
   -1.9669   -0.2014   -0.2365 H   0  0  0  0  0  0  0  0  0  0  0  0
    0.1155    2.3247   -0.3802 H   0  0  0  0  0  0  0  0  0  0  0  0
    0.5240   -2.5457    0.4993 C   0  0  0  0  0  0  0  0  0  0  0  0
    0.9698   -1.0965    0.3290 C   0  0  0  0  0  3  0  0  0  0  0  0
    0.4703   -0.2324    1.4830 C   0  0  0  0  0  0  0  0  0  0  0  0
    2.4867   -1.0041    0.1944 C   0  0  0  0  0  0  0  0  0  0  0  0
   -0.5633   -2.6213    0.5667 H   0  0  0  0  0  0  0  0  0  0  0  0
    0.8539   -3.1636   -0.3385 H   0  0  0  0  0  0  0  0  0  0  0  0
    0.9455   -2.9719    1.4144 H   0  0  0  0  0  0  0  0  0  0  0  0
    0.8900   -0.5793    2.4318 H   0  0  0  0  0  0  0  0  0  0  0  0
   -0.6178   -0.2714    1.5662 H   0  0  0  0  0  0  0  0  0  0  0  0
    0.7615    0.8119    1.3520 H   0  0  0  0  0  0  0  0  0  0  0  0
    2.8475   -1.5976   -0.6482 H   0  0  0  0  0  0  0  0  0  0  0  0
    2.8097    0.0280    0.0429 H   0  0  0  0  0  0  0  0  0  0  0  0
    2.9758   -1.3773    1.0990 H   0  0  0  0  0  0  0  0  0  0  0  0
  1  2  1  0
  1  4  1  0
  1  5  1  0
  1  6  1  0
  2  3  1  0
  2  7  1  0
  2  8  1  0
  3  9  1  0
 10 11  1  0
 10 14  1  0
 10 15  1  0
 10 16  1  0
 11 12  1  0
 11 13  1  0
 12 17  1  0
 12 18  1  0
 12 19  1  0
 13 20  1  0
 13 21  1  0
 13 22  1  0
M  RAD  1  11   2
M  END
>  <reaction>  (10) 
rxn_1867

>  <mol_properties>  (10) 
{"1": {"label": "*3", "atom_type": "Cs"}, "2": {"label": "*4", "atom_type": "S2s"}, "6": {"label": "*2", "atom_type": "H0"}, "9": {"label": "*0", "atom_type": "Cs"}, "10": {"label": "*1", "atom_type": "Cs"}}

>  <type>  (10) 
unop_6

>  <geom_source>  (10) 
Heuristics

$$$$

     RDKit          3D

 22 20  0  0  0  0  0  0  0  0999 V2000
   -1.0945    0.2206   -2.1315 C   0  0  0  0  0  0  0  0  0  0  0  0
   -1.0945    0.2206   -0.6128 C   0  0  0  0  0  0  0  0  0  0  0  0
   -1.0945    1.8780    0.1322 S   0  0  0  0  0  0  0  0  0  0  0  0
   -0.1878    0.6861   -2.5223 H   0  0  0  0  0  0  0  0  0  0  0  0
   -1.9504    0.7719   -2.5216 H   0  0  0  0  0  0  0  0  0  0  0  0
   -1.1376   -0.8027   -2.5118 H   0  0  0  0  0  0  0  0  0  0  0  0
   -0.0826   -0.4587   -0.1387 H   0  0  0  0  0  0  0  0  0  0  0  0
   -2.0021   -0.2464   -0.2277 H   0  0  0  0  0  0  0  0  0  0  0  0
    0.0803    2.2797   -0.3714 H   0  0  0  0  0  0  0  0  0  0  0  0
    0.3787   -2.2826    1.1846 C   0  0  0  0  0  0  0  0  0  0  0  0
    0.9346   -1.1416    0.3379 C   0  0  0  0  0  3  0  0  0  0  0  0
    0.9232    0.1711    1.1154 C   0  0  0  0  0  0  0  0  0  0  0  0
    2.3384   -1.4671   -0.1633 C   0  0  0  0  0  0  0  0  0  0  0  0
   -0.6375   -2.0681    1.5220 H   0  0  0  0  0  0  0  0  0  0  0  0
    0.3573   -3.2193    0.6236 H   0  0  0  0  0  0  0  0  0  0  0  0
    0.9989   -2.4393    2.0720 H   0  0  0  0  0  0  0  0  0  0  0  0
    1.5620    0.0985    2.0005 H   0  0  0  0  0  0  0  0  0  0  0  0
   -0.0844    0.4246    1.4518 H   0  0  0  0  0  0  0  0  0  0  0  0
    1.2928    0.9975    0.5048 H   0  0  0  0  0  0  0  0  0  0  0  0
    2.3477   -2.3909   -0.7455 H   0  0  0  0  0  0  0  0  0  0  0  0
    2.7303   -0.6667   -0.7943 H   0  0  0  0  0  0  0  0  0  0  0  0
    3.0259   -1.5959    0.6778 H   0  0  0  0  0  0  0  0  0  0  0  0
  1  2  1  0
  1  4  1  0
  1  5  1  0
  1  6  1  0
  2  3  1  0
  2  7  1  0
  2  8  1  0
  3  9  1  0
 10 11  1  0
 10 14  1  0
 10 15  1  0
 10 16  1  0
 11 12  1  0
 11 13  1  0
 12 17  1  0
 12 18  1  0
 12 19  1  0
 13 20  1  0
 13 21  1  0
 13 22  1  0
M  RAD  1  11   2
M  END
>  <reaction>  (11) 
rxn_1867

>  <mol_properties>  (11) 
{"1": {"label": "*3", "atom_type": "Cs"}, "2": {"label": "*4", "atom_type": "S2s"}, "6": {"label": "*2", "atom_type": "H0"}, "9": {"label": "*0", "atom_type": "Cs"}, "10": {"label": "*1", "atom_type": "Cs"}}

>  <type>  (11) 
unop_7

>  <geom_source>  (11) 
Heuristics

$$$$

     RDKit          3D

 22 20  0  0  0  0  0  0  0  0999 V2000
   -1.0727    0.2457   -2.1403 C   0  0  0  0  0  0  0  0  0  0  0  0
   -1.0727    0.2457   -0.6217 C   0  0  0  0  0  0  0  0  0  0  0  0
   -1.0727    1.9031    0.1233 S   0  0  0  0  0  0  0  0  0  0  0  0
   -0.1660    0.7112   -2.5311 H   0  0  0  0  0  0  0  0  0  0  0  0
   -1.9286    0.7969   -2.5305 H   0  0  0  0  0  0  0  0  0  0  0  0
   -1.1157   -0.7776   -2.5206 H   0  0  0  0  0  0  0  0  0  0  0  0
   -0.0607   -0.4336   -0.1476 H   0  0  0  0  0  0  0  0  0  0  0  0
   -1.9803   -0.2213   -0.2366 H   0  0  0  0  0  0  0  0  0  0  0  0
    0.1021    2.3048   -0.3802 H   0  0  0  0  0  0  0  0  0  0  0  0
    2.1289   -0.1552    0.4993 C   0  0  0  0  0  0  0  0  0  0  0  0
    0.9564   -1.1165    0.3290 C   0  0  0  0  0  3  0  0  0  0  0  0
    1.4452   -2.5555    0.1945 C   0  0  0  0  0  0  0  0  0  0  0  0
   -0.0325   -0.9814    1.4830 C   0  0  0  0  0  0  0  0  0  0  0  0
    2.8255   -0.2262   -0.3387 H   0  0  0  0  0  0  0  0  0  0  0  0
    1.7872    0.8798    0.5671 H   0  0  0  0  0  0  0  0  0  0  0  0
    2.6831   -0.3841    1.4142 H   0  0  0  0  0  0  0  0  0  0  0  0
    1.9760   -2.8667    1.0990 H   0  0  0  0  0  0  0  0  0  0  0  0
    2.1310   -2.6647   -0.6483 H   0  0  0  0  0  0  0  0  0  0  0  0
    0.6122   -3.2452    0.0431 H   0  0  0  0  0  0  0  0  0  0  0  0
   -0.4083    0.0406    1.5662 H   0  0  0  0  0  0  0  0  0  0  0  0
   -0.8889   -1.6461    1.3519 H   0  0  0  0  0  0  0  0  0  0  0  0
    0.4474   -1.2387    2.4318 H   0  0  0  0  0  0  0  0  0  0  0  0
  1  2  1  0
  1  4  1  0
  1  5  1  0
  1  6  1  0
  2  3  1  0
  2  7  1  0
  2  8  1  0
  3  9  1  0
 10 11  1  0
 10 14  1  0
 10 15  1  0
 10 16  1  0
 11 12  1  0
 11 13  1  0
 12 17  1  0
 12 18  1  0
 12 19  1  0
 13 20  1  0
 13 21  1  0
 13 22  1  0
M  RAD  1  11   2
M  END
>  <reaction>  (12) 
rxn_1867

>  <mol_properties>  (12) 
{"1": {"label": "*3", "atom_type": "Cs"}, "2": {"label": "*4", "atom_type": "S2s"}, "6": {"label": "*2", "atom_type": "H0"}, "9": {"label": "*0", "atom_type": "Cs"}, "10": {"label": "*1", "atom_type": "Cs"}}

>  <type>  (12) 
unop_8

>  <geom_source>  (12) 
Heuristics

$$$$

     RDKit          3D

 22 20  0  0  0  0  0  0  0  0999 V2000
   -1.0862    0.3291   -2.0708 C   0  0  0  0  0  0  0  0  0  0  0  0
   -1.0862    0.3291   -0.5521 C   0  0  0  0  0  0  0  0  0  0  0  0
   -1.0862    1.9865    0.1929 S   0  0  0  0  0  0  0  0  0  0  0  0
   -0.1796    0.7946   -2.4615 H   0  0  0  0  0  0  0  0  0  0  0  0
   -1.9422    0.8804   -2.4609 H   0  0  0  0  0  0  0  0  0  0  0  0
   -1.1293   -0.6942   -2.4511 H   0  0  0  0  0  0  0  0  0  0  0  0
   -0.0743   -0.3502   -0.0780 H   0  0  0  0  0  0  0  0  0  0  0  0
   -1.9938   -0.1379   -0.1670 H   0  0  0  0  0  0  0  0  0  0  0  0
    0.0886    2.3882   -0.3107 H   0  0  0  0  0  0  0  0  0  0  0  0
    1.2800   -2.1337   -0.6028 C   0  0  0  0  0  0  0  0  0  0  0  0
    0.9428   -1.0331    0.3986 C   0  0  0  0  0  3  0  0  0  0  0  0
    0.1136   -1.5826    1.5554 C   0  0  0  0  0  0  0  0  0  0  0  0
    2.2094   -0.3529    0.9095 C   0  0  0  0  0  0  0  0  0  0  0  0
    0.3760   -2.6047   -0.9944 H   0  0  0  0  0  0  0  0  0  0  0  0
    1.8490   -1.7407   -1.4480 H   0  0  0  0  0  0  0  0  0  0  0  0
    1.8834   -2.9129   -0.1279 H   0  0  0  0  0  0  0  0  0  0  0  0
    0.6770   -2.3429    2.1042 H   0  0  0  0  0  0  0  0  0  0  0  0
   -0.8090   -2.0450    1.1980 H   0  0  0  0  0  0  0  0  0  0  0  0
   -0.1557   -0.7938    2.2608 H   0  0  0  0  0  0  0  0  0  0  0  0
    2.7929    0.0682    0.0881 H   0  0  0  0  0  0  0  0  0  0  0  0
    1.9731    0.4556    1.6046 H   0  0  0  0  0  0  0  0  0  0  0  0
    2.8447   -1.0709    1.4364 H   0  0  0  0  0  0  0  0  0  0  0  0
  1  2  1  0
  1  4  1  0
  1  5  1  0
  1  6  1  0
  2  3  1  0
  2  7  1  0
  2  8  1  0
  3  9  1  0
 10 11  1  0
 10 14  1  0
 10 15  1  0
 10 16  1  0
 11 12  1  0
 11 13  1  0
 12 17  1  0
 12 18  1  0
 12 19  1  0
 13 20  1  0
 13 21  1  0
 13 22  1  0
M  RAD  1  11   2
M  END
>  <reaction>  (13) 
rxn_1867

>  <mol_properties>  (13) 
{"1": {"label": "*3", "atom_type": "Cs"}, "2": {"label": "*4", "atom_type": "S2s"}, "6": {"label": "*2", "atom_type": "H0"}, "9": {"label": "*0", "atom_type": "Cs"}, "10": {"label": "*1", "atom_type": "Cs"}}

>  <type>  (13) 
unop_9

>  <geom_source>  (13) 
Heuristics

$$$$

     RDKit          3D

 22 20  0  0  0  0  0  0  0  0999 V2000
   -1.1155    0.2241   -2.1126 C   0  0  0  0  0  0  0  0  0  0  0  0
   -1.1155    0.2241   -0.5940 C   0  0  0  0  0  0  0  0  0  0  0  0
   -1.1155    1.8815    0.1510 S   0  0  0  0  0  0  0  0  0  0  0  0
   -0.2089    0.6896   -2.5034 H   0  0  0  0  0  0  0  0  0  0  0  0
   -1.9715    0.7753   -2.5027 H   0  0  0  0  0  0  0  0  0  0  0  0
   -1.1586   -0.7992   -2.4929 H   0  0  0  0  0  0  0  0  0  0  0  0
   -0.1036   -0.4552   -0.1198 H   0  0  0  0  0  0  0  0  0  0  0  0
   -2.0231   -0.2429   -0.2088 H   0  0  0  0  0  0  0  0  0  0  0  0
    0.0593    2.2832   -0.3525 H   0  0  0  0  0  0  0  0  0  0  0  0
    2.1961   -0.4849   -0.1494 C   0  0  0  0  0  0  0  0  0  0  0  0
    0.9135   -1.1381    0.3567 C   0  0  0  0  0  3  0  0  0  0  0  0
    1.1075   -2.6378    0.5590 C   0  0  0  0  0  0  0  0  0  0  0  0
    0.4318   -0.4716    1.6419 C   0  0  0  0  0  0  0  0  0  0  0  0
    2.5300   -0.9383   -1.0851 H   0  0  0  0  0  0  0  0  0  0  0  0
    2.0553    0.5838   -0.3238 H   0  0  0  0  0  0  0  0  0  0  0  0
    3.0005   -0.6003    0.5830 H   0  0  0  0  0  0  0  0  0  0  0  0
    1.8745   -2.8270    1.3157 H   0  0  0  0  0  0  0  0  0  0  0  0
    1.4242   -3.1254   -0.3654 H   0  0  0  0  0  0  0  0  0  0  0  0
    0.1845   -3.1160    0.8935 H   0  0  0  0  0  0  0  0  0  0  0  0
    0.2631    0.5973    1.4957 H   0  0  0  0  0  0  0  0  0  0  0  0
   -0.5020   -0.9155    1.9934 H   0  0  0  0  0  0  0  0  0  0  0  0
    1.1755   -0.5865    2.4359 H   0  0  0  0  0  0  0  0  0  0  0  0
  1  2  1  0
  1  4  1  0
  1  5  1  0
  1  6  1  0
  2  3  1  0
  2  7  1  0
  2  8  1  0
  3  9  1  0
 10 11  1  0
 10 14  1  0
 10 15  1  0
 10 16  1  0
 11 12  1  0
 11 13  1  0
 12 17  1  0
 12 18  1  0
 12 19  1  0
 13 20  1  0
 13 21  1  0
 13 22  1  0
M  RAD  1  11   2
M  END
>  <reaction>  (14) 
rxn_1867

>  <mol_properties>  (14) 
{"1": {"label": "*3", "atom_type": "Cs"}, "2": {"label": "*4", "atom_type": "S2s"}, "6": {"label": "*2", "atom_type": "H0"}, "9": {"label": "*0", "atom_type": "Cs"}, "10": {"label": "*1", "atom_type": "Cs"}}

>  <type>  (14) 
unop_10

>  <geom_source>  (14) 
Heuristics

$$$$

     RDKit          3D

 22 20  0  0  0  0  0  0  0  0999 V2000
   -1.1376    0.2232   -2.0858 C   0  0  0  0  0  0  0  0  0  0  0  0
   -1.1376    0.2232   -0.5672 C   0  0  0  0  0  0  0  0  0  0  0  0
   -1.1376    1.8805    0.1778 S   0  0  0  0  0  0  0  0  0  0  0  0
   -0.2309    0.6886   -2.4766 H   0  0  0  0  0  0  0  0  0  0  0  0
   -1.9935    0.7744   -2.4759 H   0  0  0  0  0  0  0  0  0  0  0  0
   -1.1806   -0.8002   -2.4661 H   0  0  0  0  0  0  0  0  0  0  0  0
   -0.1257   -0.4562   -0.0930 H   0  0  0  0  0  0  0  0  0  0  0  0
   -2.0452   -0.2439   -0.1820 H   0  0  0  0  0  0  0  0  0  0  0  0
    0.0372    2.2822   -0.3257 H   0  0  0  0  0  0  0  0  0  0  0  0
    0.4719   -1.7316    1.7254 C   0  0  0  0  0  0  0  0  0  0  0  0
    0.8915   -1.1390    0.3835 C   0  0  0  0  0  3  0  0  0  0  0  0
    1.5402    0.2293    0.5697 C   0  0  0  0  0  0  0  0  0  0  0  0
    1.8230   -2.0877   -0.3649 C   0  0  0  0  0  0  0  0  0  0  0  0
   -0.2184   -1.0701    2.2531 H   0  0  0  0  0  0  0  0  0  0  0  0
   -0.0194   -2.6982    1.5964 H   0  0  0  0  0  0  0  0  0  0  0  0
    1.3445   -1.8838    2.3674 H   0  0  0  0  0  0  0  0  0  0  0  0
    2.4494    0.1442    1.1721 H   0  0  0  0  0  0  0  0  0  0  0  0
    0.8669    0.9219    1.0791 H   0  0  0  0  0  0  0  0  0  0  0  0
    1.8165    0.6716   -0.3897 H   0  0  0  0  0  0  0  0  0  0  0  0
    1.3530   -3.0600   -0.5269 H   0  0  0  0  0  0  0  0  0  0  0  0
    2.1036   -1.6821   -1.3392 H   0  0  0  0  0  0  0  0  0  0  0  0
    2.7420   -2.2523    0.2052 H   0  0  0  0  0  0  0  0  0  0  0  0
  1  2  1  0
  1  4  1  0
  1  5  1  0
  1  6  1  0
  2  3  1  0
  2  7  1  0
  2  8  1  0
  3  9  1  0
 10 11  1  0
 10 14  1  0
 10 15  1  0
 10 16  1  0
 11 12  1  0
 11 13  1  0
 12 17  1  0
 12 18  1  0
 12 19  1  0
 13 20  1  0
 13 21  1  0
 13 22  1  0
M  RAD  1  11   2
M  END
>  <reaction>  (15) 
rxn_1867

>  <mol_properties>  (15) 
{"1": {"label": "*3", "atom_type": "Cs"}, "2": {"label": "*4", "atom_type": "S2s"}, "6": {"label": "*2", "atom_type": "H0"}, "9": {"label": "*0", "atom_type": "Cs"}, "10": {"label": "*1", "atom_type": "Cs"}}

>  <type>  (15) 
unop_11

>  <geom_source>  (15) 
Heuristics

$$$$

     RDKit          3D

 22 20  0  0  0  0  0  0  0  0999 V2000
   -1.1282    0.2975   -2.0501 C   0  0  0  0  0  0  0  0  0  0  0  0
   -1.1282    0.2975   -0.5314 C   0  0  0  0  0  0  0  0  0  0  0  0
   -1.1282    1.9548    0.2136 S   0  0  0  0  0  0  0  0  0  0  0  0
   -0.2216    0.7629   -2.4408 H   0  0  0  0  0  0  0  0  0  0  0  0
   -1.9842    0.8487   -2.4402 H   0  0  0  0  0  0  0  0  0  0  0  0
   -1.1713   -0.7259   -2.4304 H   0  0  0  0  0  0  0  0  0  0  0  0
   -0.1163   -0.3819   -0.0573 H   0  0  0  0  0  0  0  0  0  0  0  0
   -2.0358   -0.1696   -0.1463 H   0  0  0  0  0  0  0  0  0  0  0  0
    0.0466    2.3565   -0.2900 H   0  0  0  0  0  0  0  0  0  0  0  0
    1.7012   -1.6020   -0.7633 C   0  0  0  0  0  0  0  0  0  0  0  0
    0.9009   -1.0647    0.4193 C   0  0  0  0  0  3  0  0  0  0  0  0
    0.3450   -2.2057    1.2660 C   0  0  0  0  0  0  0  0  0  0  0  0
    1.7465   -0.1182    1.2660 C   0  0  0  0  0  0  0  0  0  0  0  0
    1.0924   -2.2573   -1.3899 H   0  0  0  0  0  0  0  0  0  0  0  0
    2.0774   -0.7904   -1.3897 H   0  0  0  0  0  0  0  0  0  0  0  0
    2.5617   -2.1799   -0.4136 H   0  0  0  0  0  0  0  0  0  0  0  0
    1.1591   -2.8043    1.6853 H   0  0  0  0  0  0  0  0  0  0  0  0
   -0.2853   -2.8706    0.6717 H   0  0  0  0  0  0  0  0  0  0  0  0
   -0.2532   -1.8280    2.0978 H   0  0  0  0  0  0  0  0  0  0  0  0
    2.1233    0.7168    0.6716 H   0  0  0  0  0  0  0  0  0  0  0  0
    1.1702    0.2927    2.0976 H   0  0  0  0  0  0  0  0  0  0  0  0
    2.6086   -0.6450    1.6855 H   0  0  0  0  0  0  0  0  0  0  0  0
  1  2  1  0
  1  4  1  0
  1  5  1  0
  1  6  1  0
  2  3  1  0
  2  7  1  0
  2  8  1  0
  3  9  1  0
 10 11  1  0
 10 14  1  0
 10 15  1  0
 10 16  1  0
 11 12  1  0
 11 13  1  0
 12 17  1  0
 12 18  1  0
 12 19  1  0
 13 20  1  0
 13 21  1  0
 13 22  1  0
M  RAD  1  11   2
M  END
>  <reaction>  (16) 
rxn_1867

>  <mol_properties>  (16) 
{"1": {"label": "*3", "atom_type": "Cs"}, "2": {"label": "*4", "atom_type": "S2s"}, "6": {"label": "*2", "atom_type": "H0"}, "9": {"label": "*0", "atom_type": "Cs"}, "10": {"label": "*1", "atom_type": "Cs"}}

>  <type>  (16) 
unop_12

>  <geom_source>  (16) 
Heuristics

$$$$

     RDKit          3D

 22 20  0  0  0  0  0  0  0  0999 V2000
    2.4208    1.6235   -0.5414 S   0  0  0  0  0  0  0  0  0  0  0  0
   -0.8734    0.0082    0.0420 C   0  0  0  0  0  0  0  0  0  0  0  0
   -0.8234    1.4502    0.5556 C   0  0  0  0  0  0  0  0  0  0  0  0
   -1.1474   -0.9663    1.1913 C   0  0  0  0  0  0  0  0  0  0  0  0
   -1.9312   -0.1388   -1.0557 C   0  0  0  0  0  0  0  0  0  0  0  0
    2.3433   -1.0088    0.2342 C   0  0  0  0  0  0  0  0  0  0  0  0
    1.6362   -0.0113   -0.6677 C   0  0  0  0  0  3  0  0  0  0  0  0
    0.3021   -0.2858   -0.4763 H   0  0  0  0  0  0  0  0  0  0  0  0
   -0.5875    2.1436   -0.2794 H   0  0  0  0  0  0  0  0  0  0  0  0
   -0.0282    1.5531    1.3240 H   0  0  0  0  0  0  0  0  0  0  0  0
   -1.7978    1.7426    1.0032 H   0  0  0  0  0  0  0  0  0  0  0  0
   -1.1444   -2.0107    0.8136 H   0  0  0  0  0  0  0  0  0  0  0  0
   -2.1326   -0.7549    1.6602 H   0  0  0  0  0  0  0  0  0  0  0  0
   -0.3539   -0.8769    1.9633 H   0  0  0  0  0  0  0  0  0  0  0  0
   -1.9327   -1.1786   -1.4460 H   0  0  0  0  0  0  0  0  0  0  0  0
   -2.9427    0.1003   -0.6622 H   0  0  0  0  0  0  0  0  0  0  0  0
   -1.7015    0.5457   -1.8997 H   0  0  0  0  0  0  0  0  0  0  0  0
    3.4070   -1.1134   -0.0679 H   0  0  0  0  0  0  0  0  0  0  0  0
    1.8453   -1.9972    0.1516 H   0  0  0  0  0  0  0  0  0  0  0  0
    2.2893   -0.6690    1.2897 H   0  0  0  0  0  0  0  0  0  0  0  0
    1.6734   -0.3606   -1.7213 H   0  0  0  0  0  0  0  0  0  0  0  0
    1.4793    2.2052   -1.4109 H   0  0  0  0  0  0  0  0  0  0  0  0
  1  7  1  0
  1 22  1  0
  2  3  1  0
  2  4  1  0
  2  5  1  0
  2  8  1  0
  3  9  1  0
  3 10  1  0
  3 11  1  0
  4 12  1  0
  4 13  1  0
  4 14  1  0
  5 15  1  0
  5 16  1  0
  5 17  1  0
  6  7  1  0
  6 18  1  0
  6 19  1  0
  6 20  1  0
  7 21  1  0
M  RAD  1   7   2
M  END
>  <reaction>  (17) 
rxn_1867

>  <mol_properties>  (17) 
{"1": {"label": "*3", "atom_type": "Cs"}, "2": {"label": "*4", "atom_type": "S2s"}, "6": {"label": "*2", "atom_type": "H0"}, "9": {"label": "*0", "atom_type": "Cs"}, "10": {"label": "*1", "atom_type": "Cs"}}

>  <type>  (17) 
unop_13

>  <geom_source>  (17) 
AutoTST

$$$$
