
     RDKit          3D

  9  8  0  0  0  0  0  0  0  0999 V2000
    1.1303   -0.2933   -0.7510 C   0  0  0  0  0  0  0  0  0  0  0  0
    0.2866    0.4560   -0.0588 C   0  0  0  0  0  0  0  0  0  0  0  0
   -0.9719   -0.0331    0.5823 C   0  0  0  0  0  0  0  0  0  0  0  0
    2.0274    0.1230   -1.1916 H   0  0  0  0  0  0  0  0  0  0  0  0
    0.9532   -1.3530   -0.9023 H   0  0  0  0  0  0  0  0  0  0  0  0
    0.5065    1.5132    0.0659 H   0  0  0  0  0  0  0  0  0  0  0  0
   -0.9526    0.1426    1.6610 H   0  0  0  0  0  0  0  0  0  0  0  0
   -1.1182   -1.1002    0.4106 H   0  0  0  0  0  0  0  0  0  0  0  0
   -1.8412    0.5010    0.1901 H   0  0  0  0  0  0  0  0  0  0  0  0
  1  2  2  3
  1  4  1  0
  1  5  1  0
  2  3  1  0
  2  6  1  0
  3  7  1  0
  3  8  1  0
  3  9  1  0
M  END
>  <reaction>  (1) 
rxn_1620

>  <mol_properties>  (1) 
{"1": {"label": "donator", "atom_type": "Cd"}, "5": {"label": "d_hydrogen", "atom_type": "H0"}}

>  <type>  (1) 
r1h

$$$$

     RDKit          3D

 20 20  0  0  0  0  0  0  0  0999 V2000
   -2.4774    0.8083    0.1488 C   0  0  0  0  0  0  0  0  0  0  0  0
   -1.4172   -0.1696   -0.2476 C   0  0  0  0  0  3  0  0  0  0  0  0
   -0.2904    0.2932   -1.1156 C   0  0  0  0  0  0  0  0  0  0  0  0
   -1.4797   -1.5204    0.1947 C   0  0  0  0  0  0  0  0  0  0  0  0
   -0.4907   -2.4664   -0.1650 C   0  0  0  0  0  0  0  0  0  0  0  0
   -0.5559   -3.7750    0.2665 C   0  0  0  0  0  0  0  0  0  0  0  0
   -1.6038   -4.2041    1.0733 C   0  0  0  0  0  0  0  0  0  0  0  0
   -2.5899   -3.2959    1.4424 C   0  0  0  0  0  0  0  0  0  0  0  0
   -2.5339   -1.9852    1.0162 C   0  0  0  0  0  0  0  0  0  0  0  0
   -3.4697    0.4933   -0.1924 H   0  0  0  0  0  0  0  0  0  0  0  0
   -2.5434    0.9184    1.2368 H   0  0  0  0  0  0  0  0  0  0  0  0
   -2.2829    1.7944   -0.2706 H   0  0  0  0  0  0  0  0  0  0  0  0
   -0.2452   -0.2661   -2.0565 H   0  0  0  0  0  0  0  0  0  0  0  0
   -0.3905    1.3487   -1.3647 H   0  0  0  0  0  0  0  0  0  0  0  0
    0.6811    0.1589   -0.6274 H   0  0  0  0  0  0  0  0  0  0  0  0
    0.3373   -2.1635   -0.7918 H   0  0  0  0  0  0  0  0  0  0  0  0
    0.2187   -4.4725   -0.0281 H   0  0  0  0  0  0  0  0  0  0  0  0
   -1.6513   -5.2316    1.4097 H   0  0  0  0  0  0  0  0  0  0  0  0
   -3.4116   -3.6175    2.0706 H   0  0  0  0  0  0  0  0  0  0  0  0
   -3.3164   -1.3029    1.3205 H   0  0  0  0  0  0  0  0  0  0  0  0
  1  2  1  0
  1 10  1  0
  1 11  1  0
  1 12  1  0
  2  3  1  0
  2  4  1  0
  3 13  1  0
  3 14  1  0
  3 15  1  0
  4  5  2  0
  4  9  1  0
  5  6  1  0
  5 16  1  0
  6  7  2  0
  6 17  1  0
  7  8  1  0
  7 18  1  0
  8  9  2  0
  8 19  1  0
  9 20  1  0
M  RAD  1   2   2
M  END
>  <reaction>  (2) 
rxn_1620

>  <mol_properties>  (2) 
{"1": {"label": "acceptor", "atom_type": "Cs"}}

>  <type>  (2) 
r2

$$$$

     RDKit          3D

 21 21  0  0  0  0  0  0  0  0999 V2000
   -1.3695    1.3367   -1.0719 C   0  0  0  0  0  0  0  0  0  0  0  0
   -1.4091   -0.0981   -0.5428 C   0  0  0  0  0  0  0  0  0  0  0  0
   -0.1819   -0.3999    0.3191 C   0  0  0  0  0  0  0  0  0  0  0  0
   -1.5636   -1.1028   -1.6652 C   0  0  0  0  0  0  0  0  0  0  0  0
   -0.5920   -1.2314   -2.6553 C   0  0  0  0  0  0  0  0  0  0  0  0
   -0.7353   -2.1509   -3.6809 C   0  0  0  0  0  0  0  0  0  0  0  0
   -1.8582   -2.9642   -3.7377 C   0  0  0  0  0  0  0  0  0  0  0  0
   -2.8325   -2.8475   -2.7602 C   0  0  0  0  0  0  0  0  0  0  0  0
   -2.6828   -1.9241   -1.7351 C   0  0  0  0  0  0  0  0  0  0  0  0
   -0.4920    1.4974   -1.7025 H   0  0  0  0  0  0  0  0  0  0  0  0
   -2.2553    1.5607   -1.6679 H   0  0  0  0  0  0  0  0  0  0  0  0
   -1.3211    2.0496   -0.2461 H   0  0  0  0  0  0  0  0  0  0  0  0
   -2.2930   -0.1918    0.0948 H   0  0  0  0  0  0  0  0  0  0  0  0
   -0.1215    0.2955    1.1588 H   0  0  0  0  0  0  0  0  0  0  0  0
   -0.2200   -1.4155    0.7159 H   0  0  0  0  0  0  0  0  0  0  0  0
    0.7383   -0.3016   -0.2615 H   0  0  0  0  0  0  0  0  0  0  0  0
    0.2915   -0.6040   -2.6263 H   0  0  0  0  0  0  0  0  0  0  0  0
    0.0326   -2.2338   -4.4401 H   0  0  0  0  0  0  0  0  0  0  0  0
   -1.9712   -3.6833   -4.5391 H   0  0  0  0  0  0  0  0  0  0  0  0
   -3.7135   -3.4765   -2.7932 H   0  0  0  0  0  0  0  0  0  0  0  0
   -3.4509   -1.8400   -0.9743 H   0  0  0  0  0  0  0  0  0  0  0  0
  1  2  1  0
  1 10  1  0
  1 11  1  0
  1 12  1  0
  2  3  1  0
  2  4  1  0
  2 13  1  0
  3 14  1  0
  3 15  1  0
  3 16  1  0
  4  5  2  0
  4  9  1  0
  5  6  1  0
  5 17  1  0
  6  7  2  0
  6 18  1  0
  7  8  1  0
  7 19  1  0
  8  9  2  0
  8 20  1  0
  9 21  1  0
M  END
>  <reaction>  (3) 
rxn_1620

>  <mol_properties>  (3) 
{"0": {"label": "a_hydrogen", "atom_type": "H0"}, "2": {"label": "acceptor", "atom_type": "Cs"}}

>  <type>  (3) 
r2h

$$$$

     RDKit          3D

 29 28  0  0  0  0  0  0  0  0999 V2000
   -0.5055    2.0586   -1.9248 C   0  0  0  0  0  0  0  0  0  0  0  0
   -1.1100    2.2160   -0.7707 C   0  0  0  0  0  3  0  0  0  0  0  0
   -1.9330    3.3089   -0.2093 C   0  0  0  0  0  0  0  0  0  0  0  0
    0.0625    1.1620   -2.1505 H   0  0  0  0  0  0  0  0  0  0  0  0
   -0.5497    2.8233   -2.7004 H   0  0  0  0  0  0  0  0  0  0  0  0
   -0.9475    1.0701    0.1338 H   0  0  0  0  0  0  0  0  0  0  0  0
   -2.9311    2.9494    0.0522 H   0  0  0  0  0  0  0  0  0  0  0  0
   -2.0418    4.1316   -0.9242 H   0  0  0  0  0  0  0  0  0  0  0  0
   -1.4831    3.7059    0.7037 H   0  0  0  0  0  0  0  0  0  0  0  0
   -0.5104    0.7141    2.2466 C   0  0  0  0  0  0  0  0  0  0  0  0
   -0.8455    0.0956    0.8992 C   0  0  0  0  0  0  0  0  0  0  0  0
   -2.2223   -0.5343    0.8840 C   0  0  0  0  0  0  0  0  0  0  0  0
    0.2601   -0.7235    0.3095 C   0  0  0  0  0  0  0  0  0  0  0  0
    0.0828   -2.0463   -0.0918 C   0  0  0  0  0  0  0  0  0  0  0  0
    1.1250   -2.7720   -0.6516 C   0  0  0  0  0  0  0  0  0  0  0  0
    2.3675   -2.1886   -0.8316 C   0  0  0  0  0  0  0  0  0  0  0  0
    2.5592   -0.8687   -0.4460 C   0  0  0  0  0  0  0  0  0  0  0  0
    1.5204   -0.1500    0.1168 C   0  0  0  0  0  0  0  0  0  0  0  0
    0.4337    1.2585    2.2244 H   0  0  0  0  0  0  0  0  0  0  0  0
   -1.2938    1.4109    2.5532 H   0  0  0  0  0  0  0  0  0  0  0  0
   -0.4296   -0.0602    3.0158 H   0  0  0  0  0  0  0  0  0  0  0  0
   -2.2795   -1.3958    1.5573 H   0  0  0  0  0  0  0  0  0  0  0  0
   -2.9670    0.1902    1.2188 H   0  0  0  0  0  0  0  0  0  0  0  0
   -2.5039   -0.8643   -0.1171 H   0  0  0  0  0  0  0  0  0  0  0  0
   -0.8781   -2.5265    0.0375 H   0  0  0  0  0  0  0  0  0  0  0  0
    0.9604   -3.8004   -0.9488 H   0  0  0  0  0  0  0  0  0  0  0  0
    3.1795   -2.7537   -1.2712 H   0  0  0  0  0  0  0  0  0  0  0  0
    3.5230   -0.3959   -0.5894 H   0  0  0  0  0  0  0  0  0  0  0  0
    1.6801    0.8859    0.3908 H   0  0  0  0  0  0  0  0  0  0  0  0
  1  2  2  3
  1  4  1  0
  1  5  1  0
  2  3  1  0
  3  7  1  0
  3  8  1  0
  3  9  1  0
  6 11  1  0
 10 11  1  0
 10 19  1  0
 10 20  1  0
 10 21  1  0
 11 12  1  0
 11 13  1  0
 12 22  1  0
 12 23  1  0
 12 24  1  0
 13 14  2  0
 13 18  1  0
 14 15  1  0
 14 25  1  0
 15 16  2  0
 15 26  1  0
 16 17  1  0
 16 27  1  0
 17 18  2  0
 17 28  1  0
 18 29  1  0
M  RAD  1   2   2
M  END
>  <reaction>  (4) 
rxn_1620

>  <mol_properties>  (4) 
{"0": {"label": "*4", "atom_type": "Cd"}, "1": {"label": "*3", "atom_type": "Cd"}, "5": {"label": "*2", "atom_type": "H0"}, "10": {"label": "*1", "atom_type": "Cs"}, "12": {"label": "*0", "atom_type": "Cd"}}

>  <type>  (4) 
ts

$$$$

     RDKit          3D

 29 28  0  0  0  0  0  0  0  0999 V2000
    0.4514    2.7974   -2.0509 C   0  0  0  0  0  0  0  0  0  0  0  0
    0.4514    2.7974   -0.7271 C   0  0  0  0  0  0  0  0  0  0  0  0
    0.4514    4.0196    0.1334 C   0  0  0  0  0  0  0  0  0  0  0  0
    0.4514    1.8747   -2.6174 H   0  0  0  0  0  0  0  0  0  0  0  0
    0.4514    3.7230   -2.6169 H   0  0  0  0  0  0  0  0  0  0  0  0
    0.4514    1.6543   -0.0989 H   0  0  0  0  0  0  0  0  0  0  0  0
   -0.4263    4.0367    0.7846 H   0  0  0  0  0  0  0  0  0  0  0  0
    0.4514    4.9300   -0.4672 H   0  0  0  0  0  0  0  0  0  0  0  0
    1.3291    4.0367    0.7846 H   0  0  0  0  0  0  0  0  0  0  0  0
    1.7139    0.4488    1.3953 C   0  0  0  0  0  0  0  0  0  0  0  0
    0.4514    0.5038    0.5333 C   0  0  0  0  0  3  0  0  0  0  0  0
   -0.6344    1.3483    1.2025 C   0  0  0  0  0  0  0  0  0  0  0  0
   -0.0517   -0.8829    0.1912 C   0  0  0  0  0  0  0  0  0  0  0  0
   -0.4705   -1.7628    1.1867 C   0  0  0  0  0  0  0  0  0  0  0  0
   -0.9303   -3.0306    0.8717 C   0  0  0  0  0  0  0  0  0  0  0  0
   -0.9809   -3.4462   -0.4513 C   0  0  0  0  0  0  0  0  0  0  0  0
   -0.5677   -2.5822   -1.4518 C   0  0  0  0  0  0  0  0  0  0  0  0
   -0.1081   -1.3131   -1.1293 C   0  0  0  0  0  0  0  0  0  0  0  0
    2.4973   -0.1343    0.9088 H   0  0  0  0  0  0  0  0  0  0  0  0
    2.0977    1.4544    1.5794 H   0  0  0  0  0  0  0  0  0  0  0  0
    1.5069   -0.0113    2.3642 H   0  0  0  0  0  0  0  0  0  0  0  0
   -0.9259    0.9206    2.1645 H   0  0  0  0  0  0  0  0  0  0  0  0
   -0.2743    2.3630    1.3847 H   0  0  0  0  0  0  0  0  0  0  0  0
   -1.5273    1.4074    0.5784 H   0  0  0  0  0  0  0  0  0  0  0  0
   -0.4377   -1.4545    2.2255 H   0  0  0  0  0  0  0  0  0  0  0  0
   -1.2509   -3.6982    1.6620 H   0  0  0  0  0  0  0  0  0  0  0  0
   -1.3401   -4.4371   -0.6986 H   0  0  0  0  0  0  0  0  0  0  0  0
   -0.6023   -2.8946   -2.4882 H   0  0  0  0  0  0  0  0  0  0  0  0
    0.2133   -0.6436   -1.9195 H   0  0  0  0  0  0  0  0  0  0  0  0
  1  2  2  3
  1  4  1  0
  1  5  1  0
  2  3  1  0
  2  6  1  0
  3  7  1  0
  3  8  1  0
  3  9  1  0
 10 11  1  0
 10 19  1  0
 10 20  1  0
 10 21  1  0
 11 12  1  0
 11 13  1  0
 12 22  1  0
 12 23  1  0
 12 24  1  0
 13 14  2  0
 13 18  1  0
 14 15  1  0
 14 25  1  0
 15 16  2  0
 15 26  1  0
 16 17  1  0
 16 27  1  0
 17 18  2  0
 17 28  1  0
 18 29  1  0
M  RAD  1  11   2
M  END
>  <reaction>  (5) 
rxn_1620

>  <mol_properties>  (5) 
{"0": {"label": "*4", "atom_type": "Cd"}, "1": {"label": "*3", "atom_type": "Cd"}, "5": {"label": "*2", "atom_type": "H0"}, "10": {"label": "*1", "atom_type": "Cs"}, "12": {"label": "*0", "atom_type": "Cd"}}

>  <type>  (5) 
unop_1

>  <geom_source>  (5) 
Heuristics

$$$$

     RDKit          3D

 29 28  0  0  0  0  0  0  0  0999 V2000
    1.0261    2.1671   -2.7823 C   0  0  0  0  0  0  0  0  0  0  0  0
    1.0261    2.1671   -1.4586 C   0  0  0  0  0  0  0  0  0  0  0  0
    1.0261    3.3893   -0.5981 C   0  0  0  0  0  0  0  0  0  0  0  0
    1.0261    1.2444   -3.3488 H   0  0  0  0  0  0  0  0  0  0  0  0
    1.0261    3.0927   -3.3483 H   0  0  0  0  0  0  0  0  0  0  0  0
    1.0261    1.0239   -0.8304 H   0  0  0  0  0  0  0  0  0  0  0  0
    0.1484    3.4064    0.0531 H   0  0  0  0  0  0  0  0  0  0  0  0
    1.0261    4.2997   -1.1987 H   0  0  0  0  0  0  0  0  0  0  0  0
    1.9038    3.4064    0.0531 H   0  0  0  0  0  0  0  0  0  0  0  0
    1.7550   -1.1406   -1.0814 C   0  0  0  0  0  0  0  0  0  0  0  0
    1.0261   -0.1265   -0.1982 C   0  0  0  0  0  3  0  0  0  0  0  0
    1.9495    0.4137    0.8953 C   0  0  0  0  0  0  0  0  0  0  0  0
   -0.2472   -0.7053    0.3822 C   0  0  0  0  0  0  0  0  0  0  0  0
   -0.2136   -1.8017    1.2410 C   0  0  0  0  0  0  0  0  0  0  0  0
   -1.3793   -2.3295    1.7707 C   0  0  0  0  0  0  0  0  0  0  0  0
   -2.6079   -1.7692    1.4510 C   0  0  0  0  0  0  0  0  0  0  0  0
   -2.6567   -0.6787    0.5984 C   0  0  0  0  0  0  0  0  0  0  0  0
   -1.4849   -0.1547    0.0710 C   0  0  0  0  0  0  0  0  0  0  0  0
    1.1046   -1.5097   -1.8757 H   0  0  0  0  0  0  0  0  0  0  0  0
    2.6358   -0.6871   -1.5409 H   0  0  0  0  0  0  0  0  0  0  0  0
    2.0899   -2.0002   -0.4963 H   0  0  0  0  0  0  0  0  0  0  0  0
    2.2914   -0.3901    1.5515 H   0  0  0  0  0  0  0  0  0  0  0  0
    2.8322    0.8828    0.4558 H   0  0  0  0  0  0  0  0  0  0  0  0
    1.4378    1.1540    1.5120 H   0  0  0  0  0  0  0  0  0  0  0  0
    0.7375   -2.2519    1.5014 H   0  0  0  0  0  0  0  0  0  0  0  0
   -1.3296   -3.1824    2.4364 H   0  0  0  0  0  0  0  0  0  0  0  0
   -3.5197   -2.1810    1.8645 H   0  0  0  0  0  0  0  0  0  0  0  0
   -3.6093   -0.2323    0.3411 H   0  0  0  0  0  0  0  0  0  0  0  0
   -1.5331    0.6992   -0.5956 H   0  0  0  0  0  0  0  0  0  0  0  0
  1  2  2  3
  1  4  1  0
  1  5  1  0
  2  3  1  0
  2  6  1  0
  3  7  1  0
  3  8  1  0
  3  9  1  0
 10 11  1  0
 10 19  1  0
 10 20  1  0
 10 21  1  0
 11 12  1  0
 11 13  1  0
 12 22  1  0
 12 23  1  0
 12 24  1  0
 13 14  2  0
 13 18  1  0
 14 15  1  0
 14 25  1  0
 15 16  2  0
 15 26  1  0
 16 17  1  0
 16 27  1  0
 17 18  2  0
 17 28  1  0
 18 29  1  0
M  RAD  1  11   2
M  END
>  <reaction>  (6) 
rxn_1620

>  <mol_properties>  (6) 
{"0": {"label": "*4", "atom_type": "Cd"}, "1": {"label": "*3", "atom_type": "Cd"}, "5": {"label": "*2", "atom_type": "H0"}, "10": {"label": "*1", "atom_type": "Cs"}, "12": {"label": "*0", "atom_type": "Cd"}}

>  <type>  (6) 
unop_2

>  <geom_source>  (6) 
Heuristics

$$$$

     RDKit          3D

 29 28  0  0  0  0  0  0  0  0999 V2000
   -0.1848    2.8121   -1.8181 C   0  0  0  0  0  0  0  0  0  0  0  0
   -0.1848    2.8121   -0.4943 C   0  0  0  0  0  0  0  0  0  0  0  0
   -0.1848    4.0343    0.3662 C   0  0  0  0  0  0  0  0  0  0  0  0
   -0.1848    1.8894   -2.3845 H   0  0  0  0  0  0  0  0  0  0  0  0
   -0.1848    3.7377   -2.3841 H   0  0  0  0  0  0  0  0  0  0  0  0
   -0.1848    1.6690    0.1339 H   0  0  0  0  0  0  0  0  0  0  0  0
   -1.0625    4.0514    1.0174 H   0  0  0  0  0  0  0  0  0  0  0  0
   -0.1848    4.9447   -0.2344 H   0  0  0  0  0  0  0  0  0  0  0  0
    0.6929    4.0514    1.0174 H   0  0  0  0  0  0  0  0  0  0  0  0
    0.5441    0.7205    2.0957 C   0  0  0  0  0  0  0  0  0  0  0  0
   -0.1848    0.5185    0.7661 C   0  0  0  0  0  3  0  0  0  0  0  0
   -1.6857    0.7718    0.9183 C   0  0  0  0  0  0  0  0  0  0  0  0
    0.0937   -0.8493    0.1791 C   0  0  0  0  0  0  0  0  0  0  0  0
   -0.2862   -2.0109    0.8479 C   0  0  0  0  0  0  0  0  0  0  0  0
   -0.0305   -3.2608    0.3093 C   0  0  0  0  0  0  0  0  0  0  0  0
    0.6132   -3.3753   -0.9147 C   0  0  0  0  0  0  0  0  0  0  0  0
    0.9967   -2.2292   -1.5911 C   0  0  0  0  0  0  0  0  0  0  0  0
    0.7375   -0.9797   -1.0459 C   0  0  0  0  0  0  0  0  0  0  0  0
    1.6178    0.5625    1.9837 H   0  0  0  0  0  0  0  0  0  0  0  0
    0.3828    1.7326    2.4726 H   0  0  0  0  0  0  0  0  0  0  0  0
    0.1799    0.0214    2.8521 H   0  0  0  0  0  0  0  0  0  0  0  0
   -2.1301    0.0746    1.6323 H   0  0  0  0  0  0  0  0  0  0  0  0
   -1.8695    1.7844    1.2833 H   0  0  0  0  0  0  0  0  0  0  0  0
   -2.2037    0.6504   -0.0342 H   0  0  0  0  0  0  0  0  0  0  0  0
   -0.7900   -1.9398    1.8051 H   0  0  0  0  0  0  0  0  0  0  0  0
   -0.3348   -4.1505    0.8468 H   0  0  0  0  0  0  0  0  0  0  0  0
    0.8135   -4.3520   -1.3366 H   0  0  0  0  0  0  0  0  0  0  0  0
    1.4998   -2.3051   -2.5472 H   0  0  0  0  0  0  0  0  0  0  0  0
    1.0416   -0.0880   -1.5828 H   0  0  0  0  0  0  0  0  0  0  0  0
  1  2  2  3
  1  4  1  0
  1  5  1  0
  2  3  1  0
  2  6  1  0
  3  7  1  0
  3  8  1  0
  3  9  1  0
 10 11  1  0
 10 19  1  0
 10 20  1  0
 10 21  1  0
 11 12  1  0
 11 13  1  0
 12 22  1  0
 12 23  1  0
 12 24  1  0
 13 14  2  0
 13 18  1  0
 14 15  1  0
 14 25  1  0
 15 16  2  0
 15 26  1  0
 16 17  1  0
 16 27  1  0
 17 18  2  0
 17 28  1  0
 18 29  1  0
M  RAD  1  11   2
M  END
>  <reaction>  (7) 
rxn_1620

>  <mol_properties>  (7) 
{"0": {"label": "*4", "atom_type": "Cd"}, "1": {"label": "*3", "atom_type": "Cd"}, "5": {"label": "*2", "atom_type": "H0"}, "10": {"label": "*1", "atom_type": "Cs"}, "12": {"label": "*0", "atom_type": "Cd"}}

>  <type>  (7) 
unop_3

>  <geom_source>  (7) 
Heuristics

$$$$

     RDKit          3D

 29 27  0  0  0  0  0  0  0  0999 V2000
    0.2635    0.8675   -3.2841 C   0  0  0  0  0  0  0  0  0  0  0  0
    0.2635    0.8675   -1.9604 C   0  0  0  0  0  3  0  0  0  0  0  0
    0.2635    2.0897   -1.0998 C   0  0  0  0  0  0  0  0  0  0  0  0
    0.2635   -0.0552   -3.8506 H   0  0  0  0  0  0  0  0  0  0  0  0
    0.2635    1.7931   -3.8501 H   0  0  0  0  0  0  0  0  0  0  0  0
    0.2635   -0.2756   -1.3321 H   0  0  0  0  0  0  0  0  0  0  0  0
   -0.6142    2.1068   -0.4486 H   0  0  0  0  0  0  0  0  0  0  0  0
    0.2635    3.0002   -1.7004 H   0  0  0  0  0  0  0  0  0  0  0  0
    1.1412    2.1068   -0.4486 H   0  0  0  0  0  0  0  0  0  0  0  0
   -0.9990   -2.1832   -1.1156 C   0  0  0  0  0  0  0  0  0  0  0  0
    0.2635   -1.4260   -0.6999 C   0  0  0  0  0  3  0  0  0  0  0  0
    1.4036   -2.3937   -0.3781 C   0  0  0  0  0  0  0  0  0  0  0  0
   -0.0068   -0.4795    0.4508 C   0  0  0  0  0  0  0  0  0  0  0  0
   -0.4289   -0.9551    1.6904 C   0  0  0  0  0  0  0  0  0  0  0  0
   -0.6755   -0.0878    2.7415 C   0  0  0  0  0  0  0  0  0  0  0  0
   -0.5043    1.2791    2.5738 C   0  0  0  0  0  0  0  0  0  0  0  0
   -0.0850    1.7664    1.3470 C   0  0  0  0  0  0  0  0  0  0  0  0
    0.1604    0.8918    0.2978 C   0  0  0  0  0  3  0  0  0  0  0  0
   -1.8062   -1.4938   -1.3674 H   0  0  0  0  0  0  0  0  0  0  0  0
   -0.8006   -2.8130   -1.9852 H   0  0  0  0  0  0  0  0  0  0  0  0
   -1.3509   -2.8304   -0.3089 H   0  0  0  0  0  0  0  0  0  0  0  0
    1.1382   -3.0485    0.4551 H   0  0  0  0  0  0  0  0  0  0  0  0
    1.6263   -3.0257   -1.2404 H   0  0  0  0  0  0  0  0  0  0  0  0
    2.3115   -1.8546   -0.1036 H   0  0  0  0  0  0  0  0  0  0  0  0
   -0.5678   -2.0199    1.8389 H   0  0  0  0  0  0  0  0  0  0  0  0
   -1.0030   -0.4796    3.6966 H   0  0  0  0  0  0  0  0  0  0  0  0
   -0.6968    1.9579    3.3948 H   0  0  0  0  0  0  0  0  0  0  0  0
    0.0523    2.8310    1.2033 H   0  0  0  0  0  0  0  0  0  0  0  0
    0.4883    1.2827   -0.6591 H   0  0  0  0  0  0  0  0  0  0  0  0
  1  2  2  3
  1  4  1  0
  1  5  1  0
  2  6  1  0
  3  7  1  0
  3  8  1  0
  3  9  1  0
  3 29  1  0
 10 11  1  0
 10 19  1  0
 10 20  1  0
 10 21  1  0
 11 12  1  0
 11 13  1  0
 12 22  1  0
 12 23  1  0
 12 24  1  0
 13 14  2  0
 13 18  1  0
 14 15  1  0
 14 25  1  0
 15 16  2  0
 15 26  1  0
 16 17  1  0
 16 27  1  0
 17 18  2  0
 17 28  1  0
M  CHG  2  11   1  18  -1
M  RAD  1   2   2
M  END
>  <reaction>  (8) 
rxn_1620

>  <mol_properties>  (8) 
{"0": {"label": "*4", "atom_type": "Cd"}, "1": {"label": "*3", "atom_type": "Cd"}, "5": {"label": "*2", "atom_type": "H0"}, "10": {"label": "*1", "atom_type": "Cs"}, "12": {"label": "*0", "atom_type": "Cd"}}

>  <type>  (8) 
unop_4

>  <geom_source>  (8) 
Heuristics

$$$$

     RDKit          3D

 29 28  0  0  0  0  0  0  0  0999 V2000
   -1.0442    2.3142   -1.9327 C   0  0  0  0  0  0  0  0  0  0  0  0
   -1.0442    2.3142   -0.6090 C   0  0  0  0  0  0  0  0  0  0  0  0
   -1.0442    3.5363    0.2516 C   0  0  0  0  0  0  0  0  0  0  0  0
   -1.0442    1.3914   -2.4992 H   0  0  0  0  0  0  0  0  0  0  0  0
   -1.0442    3.2398   -2.4987 H   0  0  0  0  0  0  0  0  0  0  0  0
   -1.0442    1.1710    0.0193 H   0  0  0  0  0  0  0  0  0  0  0  0
   -1.9219    3.5534    0.9028 H   0  0  0  0  0  0  0  0  0  0  0  0
   -1.0442    4.4468   -0.3490 H   0  0  0  0  0  0  0  0  0  0  0  0
   -0.1665    3.5534    0.9028 H   0  0  0  0  0  0  0  0  0  0  0  0
   -1.0442    0.3166    2.1523 C   0  0  0  0  0  0  0  0  0  0  0  0
   -1.0442    0.0206    0.6515 C   0  0  0  0  0  3  0  0  0  0  0  0
   -2.3096   -0.7342    0.2403 C   0  0  0  0  0  0  0  0  0  0  0  0
    0.2084   -0.7177    0.2282 C   0  0  0  0  0  0  0  0  0  0  0  0
    0.5020   -1.9839    0.7297 C   0  0  0  0  0  0  0  0  0  0  0  0
    1.6481   -2.6574    0.3413 C   0  0  0  0  0  0  0  0  0  0  0  0
    2.5279   -2.0759   -0.5605 C   0  0  0  0  0  0  0  0  0  0  0  0
    2.2491   -0.8175   -1.0675 C   0  0  0  0  0  0  0  0  0  0  0  0
    1.0989   -0.1480   -0.6742 C   0  0  0  0  0  0  0  0  0  0  0  0
   -0.1531    0.8748    2.4431 H   0  0  0  0  0  0  0  0  0  0  0  0
   -1.9229    0.9031    2.4283 H   0  0  0  0  0  0  0  0  0  0  0  0
   -1.0647   -0.6080    2.7338 H   0  0  0  0  0  0  0  0  0  0  0  0
   -2.3757   -1.6965    0.7530 H   0  0  0  0  0  0  0  0  0  0  0  0
   -3.2011   -0.1582    0.4970 H   0  0  0  0  0  0  0  0  0  0  0  0
   -2.3218   -0.9259   -0.8336 H   0  0  0  0  0  0  0  0  0  0  0  0
   -0.1743   -2.4530    1.4351 H   0  0  0  0  0  0  0  0  0  0  0  0
    1.8564   -3.6410    0.7440 H   0  0  0  0  0  0  0  0  0  0  0  0
    3.4241   -2.6016   -0.8648 H   0  0  0  0  0  0  0  0  0  0  0  0
    2.9277   -0.3528   -1.7720 H   0  0  0  0  0  0  0  0  0  0  0  0
    0.8890    0.8369   -1.0765 H   0  0  0  0  0  0  0  0  0  0  0  0
  1  2  2  3
  1  4  1  0
  1  5  1  0
  2  3  1  0
  2  6  1  0
  3  7  1  0
  3  8  1  0
  3  9  1  0
 10 11  1  0
 10 19  1  0
 10 20  1  0
 10 21  1  0
 11 12  1  0
 11 13  1  0
 12 22  1  0
 12 23  1  0
 12 24  1  0
 13 14  2  0
 13 18  1  0
 14 15  1  0
 14 25  1  0
 15 16  2  0
 15 26  1  0
 16 17  1  0
 16 27  1  0
 17 18  2  0
 17 28  1  0
 18 29  1  0
M  RAD  1  11   2
M  END
>  <reaction>  (9) 
rxn_1620

>  <mol_properties>  (9) 
{"0": {"label": "*4", "atom_type": "Cd"}, "1": {"label": "*3", "atom_type": "Cd"}, "5": {"label": "*2", "atom_type": "H0"}, "10": {"label": "*1", "atom_type": "Cs"}, "12": {"label": "*0", "atom_type": "Cd"}}

>  <type>  (9) 
unop_5

>  <geom_source>  (9) 
Heuristics

$$$$

     RDKit          3D

 29 27  0  0  0  0  0  0  0  0999 V2000
   -0.3642    0.7650   -3.1748 C   0  0  0  0  0  0  0  0  0  0  0  0
   -0.3642    0.7650   -1.8510 C   0  0  0  0  0  3  0  0  0  0  0  0
   -0.3642    1.9872   -0.9905 C   0  0  0  0  0  3  0  0  0  0  0  0
   -0.3642   -0.1577   -3.7413 H   0  0  0  0  0  0  0  0  0  0  0  0
   -0.3642    1.6906   -3.7408 H   0  0  0  0  0  0  0  0  0  0  0  0
   -0.3642   -0.3782   -1.2228 H   0  0  0  0  0  0  0  0  0  0  0  0
   -1.2420    2.0043   -0.3393 H   0  0  0  0  0  0  0  0  0  0  0  0
   -0.3642    2.8976   -1.5911 H   0  0  0  0  0  0  0  0  0  0  0  0
    0.5135    2.0043   -0.3393 H   0  0  0  0  0  0  0  0  0  0  0  0
   -1.8221   -1.9347   -0.3674 C   0  0  0  0  0  0  0  0  0  0  0  0
   -0.3642   -1.5286   -0.5906 C   0  0  0  0  0  3  0  0  0  0  0  0
    0.5551   -2.7511   -0.5758 C   0  0  0  0  0  0  0  0  0  0  0  0
    0.0828   -0.4819    0.4083 C   0  0  0  0  0  0  0  0  0  0  0  0
    0.1087   -0.7549    1.7742 C   0  0  0  0  0  0  0  0  0  0  0  0
    0.5179    0.2037    2.6861 C   0  0  0  0  0  0  0  0  0  0  0  0
    0.9112    1.4606    2.2488 C   0  0  0  0  0  0  0  0  0  0  0  0
    0.8905    1.7463    0.8937 C   0  0  0  0  0  0  0  0  0  0  0  0
    0.4795    0.7812   -0.0148 C   0  0  0  0  0  0  0  0  0  0  0  0
   -2.4818   -1.0664   -0.4005 H   0  0  0  0  0  0  0  0  0  0  0  0
   -2.1456   -2.6420   -1.1339 H   0  0  0  0  0  0  0  0  0  0  0  0
   -1.9501   -2.4157    0.6050 H   0  0  0  0  0  0  0  0  0  0  0  0
    0.5126   -3.2614    0.3892 H   0  0  0  0  0  0  0  0  0  0  0  0
    0.2556   -3.4666   -1.3444 H   0  0  0  0  0  0  0  0  0  0  0  0
    1.5923   -2.4655   -0.7576 H   0  0  0  0  0  0  0  0  0  0  0  0
   -0.1952   -1.7315    2.1333 H   0  0  0  0  0  0  0  0  0  0  0  0
    0.5301   -0.0304    3.7435 H   0  0  0  0  0  0  0  0  0  0  0  0
    1.2312    2.2106    2.9609 H   0  0  0  0  0  0  0  0  0  0  0  0
    1.1951    2.7234    0.5397 H   0  0  0  0  0  0  0  0  0  0  0  0
    0.4667    1.0142   -1.0738 H   0  0  0  0  0  0  0  0  0  0  0  0
  1  2  2  3
  1  4  1  0
  1  5  1  0
  2  6  1  0
  3  7  1  0
  3  8  1  0
  3  9  1  0
 10 11  1  0
 10 19  1  0
 10 20  1  0
 10 21  1  0
 11 12  1  0
 11 13  1  0
 12 22  1  0
 12 23  1  0
 12 24  1  0
 13 14  2  0
 13 18  1  0
 14 15  1  0
 14 25  1  0
 15 16  2  0
 15 26  1  0
 16 17  1  0
 16 27  1  0
 17 18  2  0
 17 28  1  0
 18 29  1  0
M  RAD  3   2   2   3   2  11   2
M  END
>  <reaction>  (10) 
rxn_1620

>  <mol_properties>  (10) 
{"0": {"label": "*4", "atom_type": "Cd"}, "1": {"label": "*3", "atom_type": "Cd"}, "5": {"label": "*2", "atom_type": "H0"}, "10": {"label": "*1", "atom_type": "Cs"}, "12": {"label": "*0", "atom_type": "Cd"}}

>  <type>  (10) 
unop_6

>  <geom_source>  (10) 
Heuristics

$$$$

     RDKit          3D

 29 28  0  0  0  0  0  0  0  0999 V2000
   -0.9327    0.9397   -2.8745 C   0  0  0  0  0  0  0  0  0  0  0  0
   -0.9327    0.9397   -1.5507 C   0  0  0  0  0  0  0  0  0  0  0  0
   -0.9327    2.1618   -0.6902 C   0  0  0  0  0  0  0  0  0  0  0  0
   -0.9327    0.0169   -3.4410 H   0  0  0  0  0  0  0  0  0  0  0  0
   -0.9327    1.8653   -3.4405 H   0  0  0  0  0  0  0  0  0  0  0  0
   -0.9327   -0.2035   -0.9225 H   0  0  0  0  0  0  0  0  0  0  0  0
   -1.8104    2.1789   -0.0390 H   0  0  0  0  0  0  0  0  0  0  0  0
   -0.9327    3.0723   -1.2908 H   0  0  0  0  0  0  0  0  0  0  0  0
   -0.0550    2.1789   -0.0390 H   0  0  0  0  0  0  0  0  0  0  0  0
   -2.1952   -1.4090    0.5717 C   0  0  0  0  0  0  0  0  0  0  0  0
   -0.9327   -1.3539   -0.2903 C   0  0  0  0  0  3  0  0  0  0  0  0
   -0.4302   -2.7608   -0.6192 C   0  0  0  0  0  0  0  0  0  0  0  0
    0.1477   -0.5121    0.3555 C   0  0  0  0  0  0  0  0  0  0  0  0
    0.7019   -0.8697    1.5827 C   0  0  0  0  0  0  0  0  0  0  0  0
    1.6900   -0.0984    2.1716 C   0  0  0  0  0  0  0  0  0  0  0  0
    2.1461    1.0513    1.5426 C   0  0  0  0  0  0  0  0  0  0  0  0
    1.6044    1.4192    0.3222 C   0  0  0  0  0  0  0  0  0  0  0  0
    0.6146    0.6420   -0.2626 C   0  0  0  0  0  0  0  0  0  0  0  0
   -2.5678   -0.4067    0.7880 H   0  0  0  0  0  0  0  0  0  0  0  0
   -2.9840   -1.9668    0.0627 H   0  0  0  0  0  0  0  0  0  0  0  0
   -1.9976   -1.9056    1.5244 H   0  0  0  0  0  0  0  0  0  0  0  0
   -0.1691   -3.3061    0.2907 H   0  0  0  0  0  0  0  0  0  0  0  0
   -1.2012   -3.3322   -1.1402 H   0  0  0  0  0  0  0  0  0  0  0  0
    0.4571   -2.7234   -1.2529 H   0  0  0  0  0  0  0  0  0  0  0  0
    0.3573   -1.7647    2.0880 H   0  0  0  0  0  0  0  0  0  0  0  0
    2.1066   -0.3953    3.1262 H   0  0  0  0  0  0  0  0  0  0  0  0
    2.9185    1.6549    2.0022 H   0  0  0  0  0  0  0  0  0  0  0  0
    1.9518    2.3143   -0.1789 H   0  0  0  0  0  0  0  0  0  0  0  0
    0.1965    0.9381   -1.2183 H   0  0  0  0  0  0  0  0  0  0  0  0
  1  2  2  3
  1  4  1  0
  1  5  1  0
  2  3  1  0
  2  6  1  0
  3  7  1  0
  3  8  1  0
  3  9  1  0
 10 11  1  0
 10 19  1  0
 10 20  1  0
 10 21  1  0
 11 12  1  0
 11 13  1  0
 12 22  1  0
 12 23  1  0
 12 24  1  0
 13 14  2  0
 13 18  1  0
 14 15  1  0
 14 25  1  0
 15 16  2  0
 15 26  1  0
 16 17  1  0
 16 27  1  0
 17 18  2  0
 17 28  1  0
 18 29  1  0
M  RAD  1  11   2
M  END
>  <reaction>  (11) 
rxn_1620

>  <mol_properties>  (11) 
{"0": {"label": "*4", "atom_type": "Cd"}, "1": {"label": "*3", "atom_type": "Cd"}, "5": {"label": "*2", "atom_type": "H0"}, "10": {"label": "*1", "atom_type": "Cs"}, "12": {"label": "*0", "atom_type": "Cd"}}

>  <type>  (11) 
unop_7

>  <geom_source>  (11) 
Heuristics

$$$$

     RDKit          3D

 29 28  0  0  0  0  0  0  0  0999 V2000
    0.7592    2.6397   -2.3437 C   0  0  0  0  0  0  0  0  0  0  0  0
    0.7592    2.6397   -1.0199 C   0  0  0  0  0  0  0  0  0  0  0  0
    0.7592    3.8619   -0.1594 C   0  0  0  0  0  0  0  0  0  0  0  0
    0.7592    1.7170   -2.9102 H   0  0  0  0  0  0  0  0  0  0  0  0
    0.7592    3.5653   -2.9097 H   0  0  0  0  0  0  0  0  0  0  0  0
    0.7592    1.4965   -0.3917 H   0  0  0  0  0  0  0  0  0  0  0  0
   -0.1185    3.8790    0.4918 H   0  0  0  0  0  0  0  0  0  0  0  0
    0.7592    4.7723   -0.7600 H   0  0  0  0  0  0  0  0  0  0  0  0
    1.6369    3.8790    0.4918 H   0  0  0  0  0  0  0  0  0  0  0  0
    2.2171   -0.0600    0.4637 C   0  0  0  0  0  0  0  0  0  0  0  0
    0.7592    0.3461    0.2405 C   0  0  0  0  0  3  0  0  0  0  0  0
    0.3185    1.3955    1.2625 C   0  0  0  0  0  0  0  0  0  0  0  0
   -0.1616   -0.8561    0.2425 C   0  0  0  0  0  0  0  0  0  0  0  0
   -0.2986   -1.6562    1.3747 C   0  0  0  0  0  0  0  0  0  0  0  0
   -1.1413   -2.7552    1.3744 C   0  0  0  0  0  0  0  0  0  0  0  0
   -1.8675   -3.0780    0.2367 C   0  0  0  0  0  0  0  0  0  0  0  0
   -1.7413   -2.2916   -0.8964 C   0  0  0  0  0  0  0  0  0  0  0  0
   -0.8952   -1.1917   -0.8895 C   0  0  0  0  0  0  0  0  0  0  0  0
    2.5397   -0.7915   -0.2786 H   0  0  0  0  0  0  0  0  0  0  0  0
    2.8730    0.8104    0.3966 H   0  0  0  0  0  0  0  0  0  0  0  0
    2.3529   -0.5041    1.4525 H   0  0  0  0  0  0  0  0  0  0  0  0
    0.3861    1.0038    2.2801 H   0  0  0  0  0  0  0  0  0  0  0  0
    0.9554    2.2806    1.2035 H   0  0  0  0  0  0  0  0  0  0  0  0
   -0.7140    1.7029    1.0904 H   0  0  0  0  0  0  0  0  0  0  0  0
    0.2612   -1.4186    2.2720 H   0  0  0  0  0  0  0  0  0  0  0  0
   -1.2324   -3.3633    2.2659 H   0  0  0  0  0  0  0  0  0  0  0  0
   -2.5265   -3.9369    0.2355 H   0  0  0  0  0  0  0  0  0  0  0  0
   -2.3026   -2.5329   -1.7906 H   0  0  0  0  0  0  0  0  0  0  0  0
   -0.8030   -0.5819   -1.7814 H   0  0  0  0  0  0  0  0  0  0  0  0
  1  2  2  3
  1  4  1  0
  1  5  1  0
  2  3  1  0
  2  6  1  0
  3  7  1  0
  3  8  1  0
  3  9  1  0
 10 11  1  0
 10 19  1  0
 10 20  1  0
 10 21  1  0
 11 12  1  0
 11 13  1  0
 12 22  1  0
 12 23  1  0
 12 24  1  0
 13 14  2  0
 13 18  1  0
 14 15  1  0
 14 25  1  0
 15 16  2  0
 15 26  1  0
 16 17  1  0
 16 27  1  0
 17 18  2  0
 17 28  1  0
 18 29  1  0
M  RAD  1  11   2
M  END
>  <reaction>  (12) 
rxn_1620

>  <mol_properties>  (12) 
{"0": {"label": "*4", "atom_type": "Cd"}, "1": {"label": "*3", "atom_type": "Cd"}, "5": {"label": "*2", "atom_type": "H0"}, "10": {"label": "*1", "atom_type": "Cs"}, "12": {"label": "*0", "atom_type": "Cd"}}

>  <type>  (12) 
unop_8

>  <geom_source>  (12) 
Heuristics

$$$$

     RDKit          3D

 29 27  0  0  0  0  0  0  0  0999 V2000
    0.7904    1.2252   -3.1999 C   0  0  0  0  0  0  0  0  0  0  0  0
    0.7904    1.2252   -1.8762 C   0  0  0  0  0  3  0  0  0  0  0  0
    0.7904    2.4474   -1.0156 C   0  0  0  0  0  3  0  0  0  0  0  0
    0.7904    0.3025   -3.7664 H   0  0  0  0  0  0  0  0  0  0  0  0
    0.7904    2.1508   -3.7659 H   0  0  0  0  0  0  0  0  0  0  0  0
    0.7904    0.0820   -1.2479 H   0  0  0  0  0  0  0  0  0  0  0  0
   -0.0873    2.4645   -0.3644 H   0  0  0  0  0  0  0  0  0  0  0  0
    0.7904    3.3578   -1.6162 H   0  0  0  0  0  0  0  0  0  0  0  0
    1.6681    2.4645   -0.3644 H   0  0  0  0  0  0  0  0  0  0  0  0
    0.0615   -2.0825   -1.4990 C   0  0  0  0  0  0  0  0  0  0  0  0
    0.7904   -1.0684   -0.6157 C   0  0  0  0  0  3  0  0  0  0  0  0
    2.0684   -1.6697   -0.0283 C   0  0  0  0  0  0  0  0  0  0  0  0
   -0.1153   -0.5173    0.4655 C   0  0  0  0  0  0  0  0  0  0  0  0
   -0.6597   -1.3489    1.4418 C   0  0  0  0  0  0  0  0  0  0  0  0
   -1.4878   -0.8429    2.4298 C   0  0  0  0  0  0  0  0  0  0  0  0
   -1.7898    0.5112    2.4619 C   0  0  0  0  0  0  0  0  0  0  0  0
   -1.2559    1.3500    1.4978 C   0  0  0  0  0  0  0  0  0  0  0  0
   -0.4267    0.8366    0.5105 C   0  0  0  0  0  0  0  0  0  0  0  0
   -0.8382   -1.6478   -1.9369 H   0  0  0  0  0  0  0  0  0  0  0  0
    0.7094   -2.4217   -2.3098 H   0  0  0  0  0  0  0  0  0  0  0  0
   -0.2377   -2.9607   -0.9221 H   0  0  0  0  0  0  0  0  0  0  0  0
    1.8415   -2.5330    0.6015 H   0  0  0  0  0  0  0  0  0  0  0  0
    2.7366   -2.0048   -0.8243 H   0  0  0  0  0  0  0  0  0  0  0  0
    2.6012   -0.9403    0.5835 H   0  0  0  0  0  0  0  0  0  0  0  0
   -0.4342   -2.4091    1.4317 H   0  0  0  0  0  0  0  0  0  0  0  0
   -1.8999   -1.5078    3.1788 H   0  0  0  0  0  0  0  0  0  0  0  0
   -2.4371    0.9077    3.2338 H   0  0  0  0  0  0  0  0  0  0  0  0
   -1.4839    2.4086    1.5119 H   0  0  0  0  0  0  0  0  0  0  0  0
   -0.0134    1.5011   -0.2401 H   0  0  0  0  0  0  0  0  0  0  0  0
  1  2  2  3
  1  4  1  0
  1  5  1  0
  2  6  1  0
  3  7  1  0
  3  8  1  0
  3  9  1  0
 10 11  1  0
 10 19  1  0
 10 20  1  0
 10 21  1  0
 11 12  1  0
 11 13  1  0
 12 22  1  0
 12 23  1  0
 12 24  1  0
 13 14  2  0
 13 18  1  0
 14 15  1  0
 14 25  1  0
 15 16  2  0
 15 26  1  0
 16 17  1  0
 16 27  1  0
 17 18  2  0
 17 28  1  0
 18 29  1  0
M  RAD  3   2   2   3   2  11   2
M  END
>  <reaction>  (13) 
rxn_1620

>  <mol_properties>  (13) 
{"0": {"label": "*4", "atom_type": "Cd"}, "1": {"label": "*3", "atom_type": "Cd"}, "5": {"label": "*2", "atom_type": "H0"}, "10": {"label": "*1", "atom_type": "Cs"}, "12": {"label": "*0", "atom_type": "Cd"}}

>  <type>  (13) 
unop_9

>  <geom_source>  (13) 
Heuristics

$$$$

     RDKit          3D

 29 28  0  0  0  0  0  0  0  0999 V2000
    0.9128    2.4450   -2.5848 C   0  0  0  0  0  0  0  0  0  0  0  0
    0.9128    2.4450   -1.2610 C   0  0  0  0  0  0  0  0  0  0  0  0
    0.9128    3.6672   -0.4005 C   0  0  0  0  0  0  0  0  0  0  0  0
    0.9128    1.5223   -3.1513 H   0  0  0  0  0  0  0  0  0  0  0  0
    0.9128    3.3706   -3.1508 H   0  0  0  0  0  0  0  0  0  0  0  0
    0.9128    1.3019   -0.6328 H   0  0  0  0  0  0  0  0  0  0  0  0
    0.0351    3.6843    0.2507 H   0  0  0  0  0  0  0  0  0  0  0  0
    0.9128    4.5776   -1.0011 H   0  0  0  0  0  0  0  0  0  0  0  0
    1.7905    3.6843    0.2507 H   0  0  0  0  0  0  0  0  0  0  0  0
    2.1753   -0.6057   -0.4162 C   0  0  0  0  0  0  0  0  0  0  0  0
    0.9128    0.1514   -0.0006 C   0  0  0  0  0  3  0  0  0  0  0  0
    1.1982    1.0955    1.1688 C   0  0  0  0  0  0  0  0  0  0  0  0
   -0.2280   -0.7943    0.3112 C   0  0  0  0  0  0  0  0  0  0  0  0
   -0.1366   -1.7135    1.3542 C   0  0  0  0  0  0  0  0  0  0  0  0
   -1.1811   -2.5776    1.6377 C   0  0  0  0  0  0  0  0  0  0  0  0
   -2.3435   -2.5400    0.8807 C   0  0  0  0  0  0  0  0  0  0  0  0
   -2.4486   -1.6314   -0.1594 C   0  0  0  0  0  0  0  0  0  0  0  0
   -1.3983   -0.7683   -0.4382 C   0  0  0  0  0  0  0  0  0  0  0  0
    1.9787   -1.2625   -1.2648 H   0  0  0  0  0  0  0  0  0  0  0  0
    2.9669    0.0920   -0.6974 H   0  0  0  0  0  0  0  0  0  0  0  0
    2.5504   -1.2219    0.4042 H   0  0  0  0  0  0  0  0  0  0  0  0
    1.5381    0.5405    2.0462 H   0  0  0  0  0  0  0  0  0  0  0  0
    1.9798    1.8104    0.9036 H   0  0  0  0  0  0  0  0  0  0  0  0
    0.3040    1.6530    1.4515 H   0  0  0  0  0  0  0  0  0  0  0  0
    0.7642   -1.7565    1.9556 H   0  0  0  0  0  0  0  0  0  0  0  0
   -1.0883   -3.2842    2.4532 H   0  0  0  0  0  0  0  0  0  0  0  0
   -3.1605   -3.2151    1.1015 H   0  0  0  0  0  0  0  0  0  0  0  0
   -3.3505   -1.5921   -0.7576 H   0  0  0  0  0  0  0  0  0  0  0  0
   -1.4898   -0.0604   -1.2545 H   0  0  0  0  0  0  0  0  0  0  0  0
  1  2  2  3
  1  4  1  0
  1  5  1  0
  2  3  1  0
  2  6  1  0
  3  7  1  0
  3  8  1  0
  3  9  1  0
 10 11  1  0
 10 19  1  0
 10 20  1  0
 10 21  1  0
 11 12  1  0
 11 13  1  0
 12 22  1  0
 12 23  1  0
 12 24  1  0
 13 14  2  0
 13 18  1  0
 14 15  1  0
 14 25  1  0
 15 16  2  0
 15 26  1  0
 16 17  1  0
 16 27  1  0
 17 18  2  0
 17 28  1  0
 18 29  1  0
M  RAD  1  11   2
M  END
>  <reaction>  (14) 
rxn_1620

>  <mol_properties>  (14) 
{"0": {"label": "*4", "atom_type": "Cd"}, "1": {"label": "*3", "atom_type": "Cd"}, "5": {"label": "*2", "atom_type": "H0"}, "10": {"label": "*1", "atom_type": "Cs"}, "12": {"label": "*0", "atom_type": "Cd"}}

>  <type>  (14) 
unop_10

>  <geom_source>  (14) 
Heuristics

$$$$

     RDKit          3D

 29 28  0  0  0  0  0  0  0  0999 V2000
   -1.2864    1.4571   -2.4188 C   0  0  0  0  0  0  0  0  0  0  0  0
   -1.2864    1.4571   -1.0950 C   0  0  0  0  0  0  0  0  0  0  0  0
   -1.2864    2.6793   -0.2345 C   0  0  0  0  0  0  0  0  0  0  0  0
   -1.2864    0.5344   -2.9853 H   0  0  0  0  0  0  0  0  0  0  0  0
   -1.2864    2.3827   -2.9848 H   0  0  0  0  0  0  0  0  0  0  0  0
   -1.2864    0.3139   -0.4668 H   0  0  0  0  0  0  0  0  0  0  0  0
   -2.1641    2.6964    0.4167 H   0  0  0  0  0  0  0  0  0  0  0  0
   -1.2864    3.5897   -0.8351 H   0  0  0  0  0  0  0  0  0  0  0  0
   -0.4087    2.6964    0.4167 H   0  0  0  0  0  0  0  0  0  0  0  0
   -2.0153   -0.6345    1.4950 C   0  0  0  0  0  0  0  0  0  0  0  0
   -1.2864   -0.8365    0.1654 C   0  0  0  0  0  3  0  0  0  0  0  0
   -1.5683   -2.2253   -0.4104 C   0  0  0  0  0  0  0  0  0  0  0  0
    0.1999   -0.5789    0.2990 C   0  0  0  0  0  0  0  0  0  0  0  0
    0.9935   -1.3594    1.1368 C   0  0  0  0  0  0  0  0  0  0  0  0
    2.3526   -1.1221    1.2575 C   0  0  0  0  0  0  0  0  0  0  0  0
    2.9485   -0.0949    0.5396 C   0  0  0  0  0  0  0  0  0  0  0  0
    2.1720    0.6893   -0.2973 C   0  0  0  0  0  0  0  0  0  0  0  0
    0.8107    0.4463   -0.4137 C   0  0  0  0  0  0  0  0  0  0  0  0
   -1.8335    0.3638    1.8956 H   0  0  0  0  0  0  0  0  0  0  0  0
   -3.0920   -0.7628    1.3663 H   0  0  0  0  0  0  0  0  0  0  0  0
   -1.6801   -1.3603    2.2396 H   0  0  0  0  0  0  0  0  0  0  0  0
   -1.2170   -3.0083    0.2656 H   0  0  0  0  0  0  0  0  0  0  0  0
   -2.6406   -2.3696   -0.5583 H   0  0  0  0  0  0  0  0  0  0  0  0
   -1.0675   -2.3625   -1.3699 H   0  0  0  0  0  0  0  0  0  0  0  0
    0.5444   -2.1660    1.7048 H   0  0  0  0  0  0  0  0  0  0  0  0
    2.9504   -1.7415    1.9147 H   0  0  0  0  0  0  0  0  0  0  0  0
    4.0108    0.0914    0.6333 H   0  0  0  0  0  0  0  0  0  0  0  0
    2.6251    1.4941   -0.8629 H   0  0  0  0  0  0  0  0  0  0  0  0
    0.2109    1.0656   -1.0714 H   0  0  0  0  0  0  0  0  0  0  0  0
  1  2  2  3
  1  4  1  0
  1  5  1  0
  2  3  1  0
  2  6  1  0
  3  7  1  0
  3  8  1  0
  3  9  1  0
 10 11  1  0
 10 19  1  0
 10 20  1  0
 10 21  1  0
 11 12  1  0
 11 13  1  0
 12 22  1  0
 12 23  1  0
 12 24  1  0
 13 14  2  0
 13 18  1  0
 14 15  1  0
 14 25  1  0
 15 16  2  0
 15 26  1  0
 16 17  1  0
 16 27  1  0
 17 18  2  0
 17 28  1  0
 18 29  1  0
M  RAD  1  11   2
M  END
>  <reaction>  (15) 
rxn_1620

>  <mol_properties>  (15) 
{"0": {"label": "*4", "atom_type": "Cd"}, "1": {"label": "*3", "atom_type": "Cd"}, "5": {"label": "*2", "atom_type": "H0"}, "10": {"label": "*1", "atom_type": "Cs"}, "12": {"label": "*0", "atom_type": "Cd"}}

>  <type>  (15) 
unop_11

>  <geom_source>  (15) 
Heuristics

$$$$

     RDKit          3D

 29 28  0  0  0  0  0  0  0  0999 V2000
    1.0442    1.7308   -2.9943 C   0  0  0  0  0  0  0  0  0  0  0  0
    1.0442    1.7308   -1.6705 C   0  0  0  0  0  0  0  0  0  0  0  0
    1.0442    2.9530   -0.8100 C   0  0  0  0  0  0  0  0  0  0  0  0
    1.0442    0.8081   -3.5607 H   0  0  0  0  0  0  0  0  0  0  0  0
    1.0442    2.6564   -3.5603 H   0  0  0  0  0  0  0  0  0  0  0  0
    1.0442    0.5876   -1.0423 H   0  0  0  0  0  0  0  0  0  0  0  0
    0.1665    2.9701   -0.1588 H   0  0  0  0  0  0  0  0  0  0  0  0
    1.0442    3.8634   -1.4106 H   0  0  0  0  0  0  0  0  0  0  0  0
    1.9219    2.9701   -0.1588 H   0  0  0  0  0  0  0  0  0  0  0  0
    1.0442   -1.6710   -1.4645 C   0  0  0  0  0  0  0  0  0  0  0  0
    1.0442   -0.5628   -0.4101 C   0  0  0  0  0  3  0  0  0  0  0  0
    2.3096   -0.6203    0.4475 C   0  0  0  0  0  0  0  0  0  0  0  0
   -0.2084   -0.6013    0.4401 C   0  0  0  0  0  0  0  0  0  0  0  0
   -0.5020   -1.7034    1.2401 C   0  0  0  0  0  0  0  0  0  0  0  0
   -1.6481   -1.7366    2.0168 C   0  0  0  0  0  0  0  0  0  0  0  0
   -2.5279   -0.6635    2.0094 C   0  0  0  0  0  0  0  0  0  0  0  0
   -2.2491    0.4390    1.2190 C   0  0  0  0  0  0  0  0  0  0  0  0
   -1.0989    0.4660    0.4429 C   0  0  0  0  0  0  0  0  0  0  0  0
    0.1531   -1.6173   -2.0916 H   0  0  0  0  0  0  0  0  0  0  0  0
    1.9229   -1.5896   -2.1076 H   0  0  0  0  0  0  0  0  0  0  0  0
    1.0647   -2.6576   -0.9958 H   0  0  0  0  0  0  0  0  0  0  0  0
    2.3757   -1.5690    0.9850 H   0  0  0  0  0  0  0  0  0  0  0  0
    3.2011   -0.5282   -0.1763 H   0  0  0  0  0  0  0  0  0  0  0  0
    2.3218    0.1835    1.1851 H   0  0  0  0  0  0  0  0  0  0  0  0
    0.1743   -2.5504    1.2579 H   0  0  0  0  0  0  0  0  0  0  0  0
   -1.8564   -2.6038    2.6313 H   0  0  0  0  0  0  0  0  0  0  0  0
   -3.4241   -0.6886    2.6163 H   0  0  0  0  0  0  0  0  0  0  0  0
   -2.9277    1.2829    1.2044 H   0  0  0  0  0  0  0  0  0  0  0  0
   -0.8890    1.3335   -0.1728 H   0  0  0  0  0  0  0  0  0  0  0  0
  1  2  2  3
  1  4  1  0
  1  5  1  0
  2  3  1  0
  2  6  1  0
  3  7  1  0
  3  8  1  0
  3  9  1  0
 10 11  1  0
 10 19  1  0
 10 20  1  0
 10 21  1  0
 11 12  1  0
 11 13  1  0
 12 22  1  0
 12 23  1  0
 12 24  1  0
 13 14  2  0
 13 18  1  0
 14 15  1  0
 14 25  1  0
 15 16  2  0
 15 26  1  0
 16 17  1  0
 16 27  1  0
 17 18  2  0
 17 28  1  0
 18 29  1  0
M  RAD  1  11   2
M  END
>  <reaction>  (16) 
rxn_1620

>  <mol_properties>  (16) 
{"0": {"label": "*4", "atom_type": "Cd"}, "1": {"label": "*3", "atom_type": "Cd"}, "5": {"label": "*2", "atom_type": "H0"}, "10": {"label": "*1", "atom_type": "Cs"}, "12": {"label": "*0", "atom_type": "Cd"}}

>  <type>  (16) 
unop_12

>  <geom_source>  (16) 
Heuristics

$$$$

     RDKit          3D

 29 28  0  0  0  0  0  0  0  0999 V2000
    0.2571   -0.6227   -0.3510 C   0  0  0  0  0  3  0  0  0  0  0  0
    0.7754   -0.0484   -1.6731 C   0  0  0  0  0  0  0  0  0  0  0  0
    0.2529   -2.1543   -0.3764 C   0  0  0  0  0  0  0  0  0  0  0  0
    2.4283    1.5757    0.7874 C   0  0  0  0  0  0  0  0  0  0  0  0
   -1.1162   -0.0765   -0.0173 C   0  0  0  0  0  0  0  0  0  0  0  0
   -1.3014    0.6872    1.1484 C   0  0  0  0  0  0  0  0  0  0  0  0
   -2.2212   -0.3193   -0.8569 C   0  0  0  0  0  0  0  0  0  0  0  0
   -2.5640    1.1968    1.4673 C   0  0  0  0  0  0  0  0  0  0  0  0
   -3.6527    0.9500    0.6278 C   0  0  0  0  0  0  0  0  0  0  0  0
   -3.4813    0.1927   -0.5331 C   0  0  0  0  0  0  0  0  0  0  0  0
    3.2493   -0.7315    0.4562 C   0  0  0  0  0  0  0  0  0  0  0  0
    2.3511    0.0965    0.9909 C   0  0  0  0  0  0  0  0  0  0  0  0
    1.1800   -0.2326    0.6544 H   0  0  0  0  0  0  0  0  0  0  0  0
    0.7713    1.0615   -1.6305 H   0  0  0  0  0  0  0  0  0  0  0  0
    1.8199   -0.3841   -1.8452 H   0  0  0  0  0  0  0  0  0  0  0  0
    0.1498   -0.3802   -2.5288 H   0  0  0  0  0  0  0  0  0  0  0  0
    1.2872   -2.5308   -0.5234 H   0  0  0  0  0  0  0  0  0  0  0  0
   -0.1241   -2.5474    0.5916 H   0  0  0  0  0  0  0  0  0  0  0  0
   -0.3864   -2.5414   -1.1980 H   0  0  0  0  0  0  0  0  0  0  0  0
    1.5845    2.0612    1.3194 H   0  0  0  0  0  0  0  0  0  0  0  0
    3.3850    1.9662    1.1941 H   0  0  0  0  0  0  0  0  0  0  0  0
    2.3592    1.8148   -0.2948 H   0  0  0  0  0  0  0  0  0  0  0  0
   -0.4724    0.8912    1.8137 H   0  0  0  0  0  0  0  0  0  0  0  0
   -2.6983    1.7839    2.3667 H   0  0  0  0  0  0  0  0  0  0  0  0
   -2.1100   -0.9036   -1.7610 H   0  0  0  0  0  0  0  0  0  0  0  0
   -4.6289    1.3455    0.8768 H   0  0  0  0  0  0  0  0  0  0  0  0
   -4.3255    0.0019   -1.1831 H   0  0  0  0  0  0  0  0  0  0  0  0
    3.1620   -1.7990    0.6249 H   0  0  0  0  0  0  0  0  0  0  0  0
    4.0692   -0.3532   -0.1471 H   0  0  0  0  0  0  0  0  0  0  0  0
  1  2  1  0
  1  3  1  0
  1  5  1  0
  2 14  1  0
  2 15  1  0
  2 16  1  0
  3 17  1  0
  3 18  1  0
  3 19  1  0
  4 12  1  0
  4 20  1  0
  4 21  1  0
  4 22  1  0
  5  6  2  0
  5  7  1  0
  6  8  1  0
  6 23  1  0
  7 10  2  0
  7 25  1  0
  8  9  2  0
  8 24  1  0
  9 10  1  0
  9 26  1  0
 10 27  1  0
 11 12  2  3
 11 28  1  0
 11 29  1  0
 12 13  1  0
M  RAD  1   1   2
M  END
>  <reaction>  (17) 
rxn_1620

>  <mol_properties>  (17) 
{"0": {"label": "*4", "atom_type": "Cd"}, "1": {"label": "*3", "atom_type": "Cd"}, "5": {"label": "*2", "atom_type": "H0"}, "10": {"label": "*1", "atom_type": "Cs"}, "12": {"label": "*0", "atom_type": "Cd"}}

>  <type>  (17) 
unop_13

>  <geom_source>  (17) 
AutoTST

$$$$

     RDKit          3D

 29 28  0  0  0  0  0  0  0  0999 V2000
    1.0261    2.1671   -2.7823 C   0  0  0  0  0  0  0  0  0  0  0  0
    1.0261    2.1671   -1.4586 C   0  0  0  0  0  0  0  0  0  0  0  0
    1.0261    3.3893   -0.5981 C   0  0  0  0  0  0  0  0  0  0  0  0
    1.0261    1.2444   -3.3488 H   0  0  0  0  0  0  0  0  0  0  0  0
    1.0261    3.0927   -3.3483 H   0  0  0  0  0  0  0  0  0  0  0  0
    1.0261    1.0239   -0.8304 H   0  0  0  0  0  0  0  0  0  0  0  0
    0.1484    3.4064    0.0531 H   0  0  0  0  0  0  0  0  0  0  0  0
    1.0261    4.2997   -1.1987 H   0  0  0  0  0  0  0  0  0  0  0  0
    1.9038    3.4064    0.0531 H   0  0  0  0  0  0  0  0  0  0  0  0
    1.7550   -1.1406   -1.0814 C   0  0  0  0  0  0  0  0  0  0  0  0
    1.0261   -0.1265   -0.1981 C   0  0  0  0  0  3  0  0  0  0  0  0
    1.9495    0.4137    0.8953 C   0  0  0  0  0  0  0  0  0  0  0  0
   -0.2472   -0.7053    0.3822 C   0  0  0  0  0  0  0  0  0  0  0  0
   -0.2136   -1.8017    1.2410 C   0  0  0  0  0  0  0  0  0  0  0  0
   -1.3793   -2.3295    1.7707 C   0  0  0  0  0  0  0  0  0  0  0  0
   -2.6079   -1.7692    1.4510 C   0  0  0  0  0  0  0  0  0  0  0  0
   -2.6567   -0.6787    0.5984 C   0  0  0  0  0  0  0  0  0  0  0  0
   -1.4849   -0.1547    0.0710 C   0  0  0  0  0  0  0  0  0  0  0  0
    1.1046   -1.5097   -1.8757 H   0  0  0  0  0  0  0  0  0  0  0  0
    2.6358   -0.6871   -1.5409 H   0  0  0  0  0  0  0  0  0  0  0  0
    2.0899   -2.0002   -0.4963 H   0  0  0  0  0  0  0  0  0  0  0  0
    2.2914   -0.3901    1.5515 H   0  0  0  0  0  0  0  0  0  0  0  0
    2.8322    0.8828    0.4558 H   0  0  0  0  0  0  0  0  0  0  0  0
    1.4378    1.1540    1.5120 H   0  0  0  0  0  0  0  0  0  0  0  0
    0.7375   -2.2519    1.5014 H   0  0  0  0  0  0  0  0  0  0  0  0
   -1.3296   -3.1824    2.4364 H   0  0  0  0  0  0  0  0  0  0  0  0
   -3.5197   -2.1810    1.8645 H   0  0  0  0  0  0  0  0  0  0  0  0
   -3.6092   -0.2323    0.3411 H   0  0  0  0  0  0  0  0  0  0  0  0
   -1.5331    0.6992   -0.5956 H   0  0  0  0  0  0  0  0  0  0  0  0
  1  2  2  3
  1  4  1  0
  1  5  1  0
  2  3  1  0
  2  6  1  0
  3  7  1  0
  3  8  1  0
  3  9  1  0
 10 11  1  0
 10 19  1  0
 10 20  1  0
 10 21  1  0
 11 12  1  0
 11 13  1  0
 12 22  1  0
 12 23  1  0
 12 24  1  0
 13 14  2  0
 13 18  1  0
 14 15  1  0
 14 25  1  0
 15 16  2  0
 15 26  1  0
 16 17  1  0
 16 27  1  0
 17 18  2  0
 17 28  1  0
 18 29  1  0
M  RAD  1  11   2
M  END
>  <reaction>  (18) 
rxn_1620

>  <mol_properties>  (18) 
{"0": {"label": "*4", "atom_type": "Cd"}, "1": {"label": "*3", "atom_type": "Cd"}, "5": {"label": "*2", "atom_type": "H0"}, "10": {"label": "*1", "atom_type": "Cs"}, "12": {"label": "*0", "atom_type": "Cd"}}

>  <type>  (18) 
unop_14

>  <geom_source>  (18) 
gaussian_log

$$$$
