
     RDKit          3D

 15 15  0  0  0  0  0  0  0  0999 V2000
    2.2031   -0.2111   -0.1693 C   0  0  0  0  0  0  0  0  0  0  0  0
    0.7140   -0.0314   -0.0623 C   0  0  0  0  0  0  0  0  0  0  0  0
   -0.0114    0.5491   -1.0982 C   0  0  0  0  0  0  0  0  0  0  0  0
   -1.3882    0.6886   -1.0150 C   0  0  0  0  0  0  0  0  0  0  0  0
   -2.0661    0.2493    0.1118 C   0  0  0  0  0  0  0  0  0  0  0  0
   -1.3551   -0.3278    1.1528 C   0  0  0  0  0  0  0  0  0  0  0  0
    0.0216   -0.4648    1.0642 C   0  0  0  0  0  0  0  0  0  0  0  0
    2.6776   -0.1836    0.8122 H   0  0  0  0  0  0  0  0  0  0  0  0
    2.4446   -1.1749   -0.6249 H   0  0  0  0  0  0  0  0  0  0  0  0
    2.6532    0.5664   -0.7875 H   0  0  0  0  0  0  0  0  0  0  0  0
    0.5104    0.8989   -1.9819 H   0  0  0  0  0  0  0  0  0  0  0  0
   -1.9328    1.1452   -1.8322 H   0  0  0  0  0  0  0  0  0  0  0  0
   -3.1409    0.3597    0.1800 H   0  0  0  0  0  0  0  0  0  0  0  0
   -1.8736   -0.6702    2.0398 H   0  0  0  0  0  0  0  0  0  0  0  0
    0.5695   -0.9141    1.8849 H   0  0  0  0  0  0  0  0  0  0  0  0
  1  2  1  0
  1  8  1  0
  1  9  1  0
  1 10  1  0
  2  3  2  0
  2  7  1  0
  3  4  1  0
  3 11  1  0
  4  5  2  0
  4 12  1  0
  5  6  1  0
  5 13  1  0
  6  7  2  0
  6 14  1  0
  7 15  1  0
M  END
>  <reaction>  (1) 
rxn_1438

>  <mol_properties>  (1) 
{"0": {"label": "donator", "atom_type": "Cs"}, "7": {"label": "d_hydrogen", "atom_type": "H0"}}

>  <type>  (1) 
r1h

$$$$

     RDKit          3D

  8  7  0  0  0  0  0  0  0  0999 V2000
   -1.2262   -0.1032    0.0429 C   0  0  0  0  0  0  0  0  0  0  0  0
    0.0344    0.4295    0.2005 C   0  0  0  0  0  0  0  0  0  0  0  0
    1.2024   -0.1933   -0.1813 C   0  0  0  0  0  3  0  0  0  0  0  0
   -2.1090    0.4329    0.3624 H   0  0  0  0  0  0  0  0  0  0  0  0
   -1.3659   -1.0784   -0.4078 H   0  0  0  0  0  0  0  0  0  0  0  0
    0.1132    1.4113    0.6589 H   0  0  0  0  0  0  0  0  0  0  0  0
    2.1658    0.2743   -0.0323 H   0  0  0  0  0  0  0  0  0  0  0  0
    1.1853   -1.1731   -0.6434 H   0  0  0  0  0  0  0  0  0  0  0  0
  1  2  2  3
  1  4  1  0
  1  5  1  0
  2  3  1  0
  2  6  1  0
  3  7  1  0
  3  8  1  0
M  RAD  1   3   2
M  END
>  <reaction>  (2) 
rxn_1438

>  <mol_properties>  (2) 
{"2": {"label": "acceptor", "atom_type": "Cs"}}

>  <type>  (2) 
r2

$$$$

     RDKit          3D

  9  8  0  0  0  0  0  0  0  0999 V2000
    1.1303   -0.2933   -0.7510 C   0  0  0  0  0  0  0  0  0  0  0  0
    0.2866    0.4560   -0.0588 C   0  0  0  0  0  0  0  0  0  0  0  0
   -0.9719   -0.0331    0.5823 C   0  0  0  0  0  0  0  0  0  0  0  0
    2.0274    0.1230   -1.1916 H   0  0  0  0  0  0  0  0  0  0  0  0
    0.9532   -1.3530   -0.9023 H   0  0  0  0  0  0  0  0  0  0  0  0
    0.5065    1.5132    0.0659 H   0  0  0  0  0  0  0  0  0  0  0  0
   -0.9526    0.1426    1.6610 H   0  0  0  0  0  0  0  0  0  0  0  0
   -1.1182   -1.1002    0.4106 H   0  0  0  0  0  0  0  0  0  0  0  0
   -1.8412    0.5010    0.1901 H   0  0  0  0  0  0  0  0  0  0  0  0
  1  2  2  3
  1  4  1  0
  1  5  1  0
  2  3  1  0
  2  6  1  0
  3  7  1  0
  3  8  1  0
  3  9  1  0
M  END
>  <reaction>  (3) 
rxn_1438

>  <mol_properties>  (3) 
{"2": {"label": "acceptor", "atom_type": "Cs"}, "8": {"label": "a_hydrogen", "atom_type": "H0"}}

>  <type>  (3) 
r2h

$$$$

     RDKit          3D

 23 22  0  0  0  0  0  0  0  0999 V2000
   -2.0977   -1.4984    0.5144 C   0  0  0  0  0  0  0  0  0  0  0  0
   -1.1687   -1.8452    1.4116 C   0  0  0  0  0  0  0  0  0  0  0  0
   -0.8283   -1.0734    2.5922 C   0  0  0  0  0  0  0  0  0  0  0  0
   -2.2686   -2.0848   -0.3784 H   0  0  0  0  0  0  0  0  0  0  0  0
   -2.7062   -0.6110    0.6481 H   0  0  0  0  0  0  0  0  0  0  0  0
   -0.5745   -2.7347    1.2216 H   0  0  0  0  0  0  0  0  0  0  0  0
   -0.3803   -1.6232    3.4159 H   0  0  0  0  0  0  0  0  0  0  0  0
   -1.5806   -0.3582    2.9188 H   0  0  0  0  0  0  0  0  0  0  0  0
    1.0971    0.6164    1.7326 C   0  0  0  0  0  0  0  0  0  0  0  0
    0.8364    0.6386    0.3009 C   0  0  0  0  0  0  0  0  0  0  0  0
   -0.0839    1.5381   -0.2498 C   0  0  0  0  0  3  0  0  0  0  0  0
   -0.4026    1.4970   -1.5946 C   0  0  0  0  0  0  0  0  0  0  0  0
    0.1886    0.5545   -2.4256 C   0  0  0  0  0  0  0  0  0  0  0  0
    1.1067   -0.3422   -1.8971 C   0  0  0  0  0  0  0  0  0  0  0  0
    1.4245   -0.3026   -0.5514 C   0  0  0  0  0  0  0  0  0  0  0  0
    0.1612   -0.2555    2.2227 H   0  0  0  0  0  0  0  0  0  0  0  0
    2.0243    0.1442    2.0465 H   0  0  0  0  0  0  0  0  0  0  0  0
    0.8721    1.5284    2.2787 H   0  0  0  0  0  0  0  0  0  0  0  0
   -0.5538    2.2731    0.3938 H   0  0  0  0  0  0  0  0  0  0  0  0
   -1.1167    2.2034   -1.9998 H   0  0  0  0  0  0  0  0  0  0  0  0
   -0.0611    0.5227   -3.4784 H   0  0  0  0  0  0  0  0  0  0  0  0
    1.5754   -1.0781   -2.5387 H   0  0  0  0  0  0  0  0  0  0  0  0
    2.1375   -1.0105   -0.1446 H   0  0  0  0  0  0  0  0  0  0  0  0
  1  2  2  3
  1  4  1  0
  1  5  1  0
  2  3  1  0
  2  6  1  0
  3  7  1  0
  3  8  1  0
  3 16  1  0
  9 10  2  3
  9 17  1  0
  9 18  1  0
 10 11  1  0
 10 15  1  0
 11 12  1  0
 11 19  1  0
 12 13  2  0
 12 20  1  0
 13 14  1  0
 13 21  1  0
 14 15  2  0
 14 22  1  0
 15 23  1  0
M  RAD  1  11   2
M  END
>  <reaction>  (4) 
rxn_1438

>  <mol_properties>  (4) 
{"1": {"label": "*0", "atom_type": "Cd"}, "2": {"label": "*1", "atom_type": "Cs"}, "8": {"label": "*3", "atom_type": "Cd"}, "9": {"label": "*4", "atom_type": "Cd"}, "15": {"label": "*2", "atom_type": "H0"}}

>  <type>  (4) 
ts

$$$$

     RDKit          3D

 23 22  0  0  0  0  0  0  0  0999 V2000
   -0.2150   -3.2511    3.2992 C   0  0  0  0  0  0  0  0  0  0  0  0
   -0.0629   -1.9743    2.9850 C   0  0  0  0  0  0  0  0  0  0  0  0
   -1.0048   -1.1777    2.1409 C   0  0  0  0  0  3  0  0  0  0  0  0
    0.5057   -3.7723    3.9168 H   0  0  0  0  0  0  0  0  0  0  0  0
   -1.0683   -3.8224    2.9491 H   0  0  0  0  0  0  0  0  0  0  0  0
    0.8085   -1.4432    3.3594 H   0  0  0  0  0  0  0  0  0  0  0  0
   -1.3935   -0.3197    2.6956 H   0  0  0  0  0  0  0  0  0  0  0  0
   -1.8492   -1.7819    1.8069 H   0  0  0  0  0  0  0  0  0  0  0  0
    0.1763    0.9582    1.1877 C   0  0  0  0  0  0  0  0  0  0  0  0
    0.1763    0.9582   -0.3161 C   0  0  0  0  0  0  0  0  0  0  0  0
    0.1763    2.1526   -1.0301 C   0  0  0  0  0  0  0  0  0  0  0  0
    0.2067    2.1559   -2.4161 C   0  0  0  0  0  0  0  0  0  0  0  0
    0.2363    0.9589   -3.1151 C   0  0  0  0  0  0  0  0  0  0  0  0
    0.2332   -0.2385   -2.4161 C   0  0  0  0  0  0  0  0  0  0  0  0
    0.2026   -0.2358   -1.0301 C   0  0  0  0  0  0  0  0  0  0  0  0
   -0.4136   -0.1085    1.6637 H   0  0  0  0  0  0  0  0  0  0  0  0
    1.1985    0.9695    1.5744 H   0  0  0  0  0  0  0  0  0  0  0  0
   -0.3347    1.8361    1.5844 H   0  0  0  0  0  0  0  0  0  0  0  0
    0.1497    3.0937   -0.4923 H   0  0  0  0  0  0  0  0  0  0  0  0
    0.2041    3.0971   -2.9518 H   0  0  0  0  0  0  0  0  0  0  0  0
    0.2574    0.9591   -4.1975 H   0  0  0  0  0  0  0  0  0  0  0  0
    0.2513   -1.1795   -2.9518 H   0  0  0  0  0  0  0  0  0  0  0  0
    0.1968   -1.1773   -0.4923 H   0  0  0  0  0  0  0  0  0  0  0  0
  1  2  2  3
  1  4  1  0
  1  5  1  0
  2  3  1  0
  2  6  1  0
  3  7  1  0
  3  8  1  0
  9 10  1  0
  9 16  1  0
  9 17  1  0
  9 18  1  0
 10 11  2  0
 10 15  1  0
 11 12  1  0
 11 19  1  0
 12 13  2  0
 12 20  1  0
 13 14  1  0
 13 21  1  0
 14 15  2  0
 14 22  1  0
 15 23  1  0
M  RAD  1   3   2
M  END
>  <reaction>  (5) 
rxn_1438

>  <mol_properties>  (5) 
{"1": {"label": "*0", "atom_type": "Cd"}, "2": {"label": "*1", "atom_type": "Cs"}, "8": {"label": "*3", "atom_type": "Cd"}, "9": {"label": "*4", "atom_type": "Cd"}, "15": {"label": "*2", "atom_type": "H0"}}

>  <type>  (5) 
unop_1

>  <geom_source>  (5) 
Heuristics

$$$$

     RDKit          3D

 23 22  0  0  0  0  0  0  0  0999 V2000
   -1.5540   -3.1743    1.3383 C   0  0  0  0  0  0  0  0  0  0  0  0
   -0.6062   -2.2992    1.6353 C   0  0  0  0  0  0  0  0  0  0  0  0
   -0.7648   -1.1425    2.5687 C   0  0  0  0  0  3  0  0  0  0  0  0
   -1.3748   -3.9925    0.6523 H   0  0  0  0  0  0  0  0  0  0  0  0
   -2.5460   -3.1033    1.7720 H   0  0  0  0  0  0  0  0  0  0  0  0
    0.3724   -2.4112    1.1756 H   0  0  0  0  0  0  0  0  0  0  0  0
   -0.0525   -1.2093    3.3951 H   0  0  0  0  0  0  0  0  0  0  0  0
   -1.7719   -1.1017    2.9854 H   0  0  0  0  0  0  0  0  0  0  0  0
    0.4164    0.9934    1.6154 C   0  0  0  0  0  0  0  0  0  0  0  0
    0.4164    0.9934    0.1117 C   0  0  0  0  0  0  0  0  0  0  0  0
    0.4164    2.1877   -0.6024 C   0  0  0  0  0  0  0  0  0  0  0  0
    0.4468    2.1911   -1.9884 C   0  0  0  0  0  0  0  0  0  0  0  0
    0.4764    0.9941   -2.6874 C   0  0  0  0  0  0  0  0  0  0  0  0
    0.4732   -0.2033   -1.9884 C   0  0  0  0  0  0  0  0  0  0  0  0
    0.4427   -0.2006   -0.6024 C   0  0  0  0  0  0  0  0  0  0  0  0
   -0.1735   -0.0733    2.0915 H   0  0  0  0  0  0  0  0  0  0  0  0
    1.4386    1.0047    2.0022 H   0  0  0  0  0  0  0  0  0  0  0  0
   -0.0947    1.8713    2.0121 H   0  0  0  0  0  0  0  0  0  0  0  0
    0.3898    3.1288   -0.0646 H   0  0  0  0  0  0  0  0  0  0  0  0
    0.4442    3.1323   -2.5241 H   0  0  0  0  0  0  0  0  0  0  0  0
    0.4975    0.9943   -3.7698 H   0  0  0  0  0  0  0  0  0  0  0  0
    0.4913   -1.1443   -2.5241 H   0  0  0  0  0  0  0  0  0  0  0  0
    0.4368   -1.1421   -0.0646 H   0  0  0  0  0  0  0  0  0  0  0  0
  1  2  2  3
  1  4  1  0
  1  5  1  0
  2  3  1  0
  2  6  1  0
  3  7  1  0
  3  8  1  0
  9 10  1  0
  9 16  1  0
  9 17  1  0
  9 18  1  0
 10 11  2  0
 10 15  1  0
 11 12  1  0
 11 19  1  0
 12 13  2  0
 12 20  1  0
 13 14  1  0
 13 21  1  0
 14 15  2  0
 14 22  1  0
 15 23  1  0
M  RAD  1   3   2
M  END
>  <reaction>  (6) 
rxn_1438

>  <mol_properties>  (6) 
{"1": {"label": "*0", "atom_type": "Cd"}, "2": {"label": "*1", "atom_type": "Cs"}, "8": {"label": "*3", "atom_type": "Cd"}, "9": {"label": "*4", "atom_type": "Cd"}, "15": {"label": "*2", "atom_type": "H0"}}

>  <type>  (6) 
unop_2

>  <geom_source>  (6) 
Heuristics

$$$$

     RDKit          3D

 23 22  0  0  0  0  0  0  0  0999 V2000
   -0.2905   -2.8873    3.8162 C   0  0  0  0  0  0  0  0  0  0  0  0
   -0.3703   -1.6507    3.3507 C   0  0  0  0  0  0  0  0  0  0  0  0
   -0.9548   -1.2643    2.0303 C   0  0  0  0  0  3  0  0  0  0  0  0
    0.1458   -3.1013    4.7838 H   0  0  0  0  0  0  0  0  0  0  0  0
   -0.6598   -3.7322    3.2445 H   0  0  0  0  0  0  0  0  0  0  0  0
    0.0133   -0.8362    3.9598 H   0  0  0  0  0  0  0  0  0  0  0  0
   -1.7897   -0.5714    2.1625 H   0  0  0  0  0  0  0  0  0  0  0  0
   -1.3153   -2.1364    1.4834 H   0  0  0  0  0  0  0  0  0  0  0  0
    0.2263    0.8716    1.0771 C   0  0  0  0  0  0  0  0  0  0  0  0
    0.2263    0.8716   -0.4266 C   0  0  0  0  0  0  0  0  0  0  0  0
    0.2263    2.0659   -1.1407 C   0  0  0  0  0  0  0  0  0  0  0  0
    0.2568    2.0693   -2.5267 C   0  0  0  0  0  0  0  0  0  0  0  0
    0.2863    0.8722   -3.2257 C   0  0  0  0  0  0  0  0  0  0  0  0
    0.2832   -0.3251   -2.5267 C   0  0  0  0  0  0  0  0  0  0  0  0
    0.2527   -0.3224   -1.1407 C   0  0  0  0  0  0  0  0  0  0  0  0
   -0.3635   -0.1951    1.5532 H   0  0  0  0  0  0  0  0  0  0  0  0
    1.2486    0.8828    1.4639 H   0  0  0  0  0  0  0  0  0  0  0  0
   -0.2847    1.7495    1.4738 H   0  0  0  0  0  0  0  0  0  0  0  0
    0.1997    3.0070   -0.6029 H   0  0  0  0  0  0  0  0  0  0  0  0
    0.2541    3.0105   -3.0624 H   0  0  0  0  0  0  0  0  0  0  0  0
    0.3075    0.8725   -4.3081 H   0  0  0  0  0  0  0  0  0  0  0  0
    0.3013   -1.2662   -3.0624 H   0  0  0  0  0  0  0  0  0  0  0  0
    0.2468   -1.2639   -0.6029 H   0  0  0  0  0  0  0  0  0  0  0  0
  1  2  2  3
  1  4  1  0
  1  5  1  0
  2  3  1  0
  2  6  1  0
  3  7  1  0
  3  8  1  0
  9 10  1  0
  9 16  1  0
  9 17  1  0
  9 18  1  0
 10 11  2  0
 10 15  1  0
 11 12  1  0
 11 19  1  0
 12 13  2  0
 12 20  1  0
 13 14  1  0
 13 21  1  0
 14 15  2  0
 14 22  1  0
 15 23  1  0
M  RAD  1   3   2
M  END
>  <reaction>  (7) 
rxn_1438

>  <mol_properties>  (7) 
{"1": {"label": "*0", "atom_type": "Cd"}, "2": {"label": "*1", "atom_type": "Cs"}, "8": {"label": "*3", "atom_type": "Cd"}, "9": {"label": "*4", "atom_type": "Cd"}, "15": {"label": "*2", "atom_type": "H0"}}

>  <type>  (7) 
unop_3

>  <geom_source>  (7) 
Heuristics

$$$$

     RDKit          3D

 23 22  0  0  0  0  0  0  0  0999 V2000
   -2.8845   -1.0462    2.5471 C   0  0  0  0  0  0  0  0  0  0  0  0
   -1.8533   -1.5851    1.9158 C   0  0  0  0  0  0  0  0  0  0  0  0
   -0.4320   -1.5147    2.3729 C   0  0  0  0  0  3  0  0  0  0  0  0
   -3.8928   -1.1333    2.1623 H   0  0  0  0  0  0  0  0  0  0  0  0
   -2.7566   -0.4972    3.4741 H   0  0  0  0  0  0  0  0  0  0  0  0
   -2.0309   -2.1262    0.9899 H   0  0  0  0  0  0  0  0  0  0  0  0
   -0.0237   -2.5165    2.5294 H   0  0  0  0  0  0  0  0  0  0  0  0
   -0.3403   -0.9568    3.3056 H   0  0  0  0  0  0  0  0  0  0  0  0
    0.7492    0.6212    1.4196 C   0  0  0  0  0  0  0  0  0  0  0  0
    0.7492    0.6212   -0.0841 C   0  0  0  0  0  0  0  0  0  0  0  0
    0.7492    1.8156   -0.7981 C   0  0  0  0  0  0  0  0  0  0  0  0
    0.7796    1.8189   -2.1841 C   0  0  0  0  0  0  0  0  0  0  0  0
    0.8091    0.6219   -2.8832 C   0  0  0  0  0  0  0  0  0  0  0  0
    0.8060   -0.5755   -2.1841 C   0  0  0  0  0  0  0  0  0  0  0  0
    0.7755   -0.5728   -0.7981 C   0  0  0  0  0  0  0  0  0  0  0  0
    0.1593   -0.4455    1.8957 H   0  0  0  0  0  0  0  0  0  0  0  0
    1.7714    0.6325    1.8064 H   0  0  0  0  0  0  0  0  0  0  0  0
    0.2381    1.4991    1.8164 H   0  0  0  0  0  0  0  0  0  0  0  0
    0.7225    2.7567   -0.2603 H   0  0  0  0  0  0  0  0  0  0  0  0
    0.7770    2.7601   -2.7199 H   0  0  0  0  0  0  0  0  0  0  0  0
    0.8303    0.6221   -3.9655 H   0  0  0  0  0  0  0  0  0  0  0  0
    0.8241   -1.5165   -2.7199 H   0  0  0  0  0  0  0  0  0  0  0  0
    0.7696   -1.5142   -0.2603 H   0  0  0  0  0  0  0  0  0  0  0  0
  1  2  2  3
  1  4  1  0
  1  5  1  0
  2  3  1  0
  2  6  1  0
  3  7  1  0
  3  8  1  0
  9 10  1  0
  9 16  1  0
  9 17  1  0
  9 18  1  0
 10 11  2  0
 10 15  1  0
 11 12  1  0
 11 19  1  0
 12 13  2  0
 12 20  1  0
 13 14  1  0
 13 21  1  0
 14 15  2  0
 14 22  1  0
 15 23  1  0
M  RAD  1   3   2
M  END
>  <reaction>  (8) 
rxn_1438

>  <mol_properties>  (8) 
{"1": {"label": "*0", "atom_type": "Cd"}, "2": {"label": "*1", "atom_type": "Cs"}, "8": {"label": "*3", "atom_type": "Cd"}, "9": {"label": "*4", "atom_type": "Cd"}, "15": {"label": "*2", "atom_type": "H0"}}

>  <type>  (8) 
unop_4

>  <geom_source>  (8) 
Heuristics

$$$$

     RDKit          3D

 23 22  0  0  0  0  0  0  0  0999 V2000
   -0.3331   -2.2921    4.2265 C   0  0  0  0  0  0  0  0  0  0  0  0
   -0.8822   -1.3632    3.4597 C   0  0  0  0  0  0  0  0  0  0  0  0
   -0.8884   -1.3744    1.9651 C   0  0  0  0  0  3  0  0  0  0  0  0
   -0.3630   -2.2253    5.3068 H   0  0  0  0  0  0  0  0  0  0  0  0
    0.1672   -3.1551    3.7999 H   0  0  0  0  0  0  0  0  0  0  0  0
   -1.3727   -0.5164    3.9330 H   0  0  0  0  0  0  0  0  0  0  0  0
   -1.9115   -1.3687    1.5803 H   0  0  0  0  0  0  0  0  0  0  0  0
   -0.3780   -2.2541    1.5709 H   0  0  0  0  0  0  0  0  0  0  0  0
    0.2927    0.7615    1.0118 C   0  0  0  0  0  0  0  0  0  0  0  0
    0.2927    0.7615   -0.4919 C   0  0  0  0  0  0  0  0  0  0  0  0
    0.2927    1.9558   -1.2060 C   0  0  0  0  0  0  0  0  0  0  0  0
    0.3232    1.9592   -2.5920 C   0  0  0  0  0  0  0  0  0  0  0  0
    0.3527    0.7622   -3.2910 C   0  0  0  0  0  0  0  0  0  0  0  0
    0.3496   -0.4352   -2.5920 C   0  0  0  0  0  0  0  0  0  0  0  0
    0.3191   -0.4325   -1.2060 C   0  0  0  0  0  0  0  0  0  0  0  0
   -0.2972   -0.3052    1.4879 H   0  0  0  0  0  0  0  0  0  0  0  0
    1.3150    0.7727    1.3986 H   0  0  0  0  0  0  0  0  0  0  0  0
   -0.2183    1.6394    1.4085 H   0  0  0  0  0  0  0  0  0  0  0  0
    0.2661    2.8969   -0.6682 H   0  0  0  0  0  0  0  0  0  0  0  0
    0.3205    2.9004   -3.1277 H   0  0  0  0  0  0  0  0  0  0  0  0
    0.3739    0.7624   -4.3734 H   0  0  0  0  0  0  0  0  0  0  0  0
    0.3677   -1.3763   -3.1277 H   0  0  0  0  0  0  0  0  0  0  0  0
    0.3132   -1.3740   -0.6682 H   0  0  0  0  0  0  0  0  0  0  0  0
  1  2  2  3
  1  4  1  0
  1  5  1  0
  2  3  1  0
  2  6  1  0
  3  7  1  0
  3  8  1  0
  9 10  1  0
  9 16  1  0
  9 17  1  0
  9 18  1  0
 10 11  2  0
 10 15  1  0
 11 12  1  0
 11 19  1  0
 12 13  2  0
 12 20  1  0
 13 14  1  0
 13 21  1  0
 14 15  2  0
 14 22  1  0
 15 23  1  0
M  RAD  1   3   2
M  END
>  <reaction>  (9) 
rxn_1438

>  <mol_properties>  (9) 
{"1": {"label": "*0", "atom_type": "Cd"}, "2": {"label": "*1", "atom_type": "Cs"}, "8": {"label": "*3", "atom_type": "Cd"}, "9": {"label": "*4", "atom_type": "Cd"}, "15": {"label": "*2", "atom_type": "H0"}}

>  <type>  (9) 
unop_5

>  <geom_source>  (9) 
Heuristics

$$$$

     RDKit          3D

 23 22  0  0  0  0  0  0  0  0999 V2000
   -2.4790   -0.7308    3.4319 C   0  0  0  0  0  0  0  0  0  0  0  0
   -1.9394   -1.3436    2.3900 C   0  0  0  0  0  0  0  0  0  0  0  0
   -0.4772   -1.5861    2.1965 C   0  0  0  0  0  3  0  0  0  0  0  0
   -3.5490   -0.5862    3.5125 H   0  0  0  0  0  0  0  0  0  0  0  0
   -1.8679   -0.3507    4.2439 H   0  0  0  0  0  0  0  0  0  0  0  0
   -2.5924   -1.7074    1.6007 H   0  0  0  0  0  0  0  0  0  0  0  0
   -0.2690   -2.6552    2.1058 H   0  0  0  0  0  0  0  0  0  0  0  0
    0.1059   -1.1919    3.0297 H   0  0  0  0  0  0  0  0  0  0  0  0
    0.7039    0.5499    1.2433 C   0  0  0  0  0  0  0  0  0  0  0  0
    0.7039    0.5499   -0.2605 C   0  0  0  0  0  0  0  0  0  0  0  0
    0.7039    1.7442   -0.9745 C   0  0  0  0  0  0  0  0  0  0  0  0
    0.7343    1.7475   -2.3605 C   0  0  0  0  0  0  0  0  0  0  0  0
    0.7639    0.5505   -3.0595 C   0  0  0  0  0  0  0  0  0  0  0  0
    0.7607   -0.6469   -2.3605 C   0  0  0  0  0  0  0  0  0  0  0  0
    0.7302   -0.6442   -0.9745 C   0  0  0  0  0  0  0  0  0  0  0  0
    0.1140   -0.5169    1.7193 H   0  0  0  0  0  0  0  0  0  0  0  0
    1.7261    0.5611    1.6300 H   0  0  0  0  0  0  0  0  0  0  0  0
    0.1929    1.4277    1.6400 H   0  0  0  0  0  0  0  0  0  0  0  0
    0.6773    2.6853   -0.4367 H   0  0  0  0  0  0  0  0  0  0  0  0
    0.7317    2.6887   -2.8962 H   0  0  0  0  0  0  0  0  0  0  0  0
    0.7850    0.5508   -4.1419 H   0  0  0  0  0  0  0  0  0  0  0  0
    0.7788   -1.5879   -2.8962 H   0  0  0  0  0  0  0  0  0  0  0  0
    0.7244   -1.5856   -0.4367 H   0  0  0  0  0  0  0  0  0  0  0  0
  1  2  2  3
  1  4  1  0
  1  5  1  0
  2  3  1  0
  2  6  1  0
  3  7  1  0
  3  8  1  0
  9 10  1  0
  9 16  1  0
  9 17  1  0
  9 18  1  0
 10 11  2  0
 10 15  1  0
 11 12  1  0
 11 19  1  0
 12 13  2  0
 12 20  1  0
 13 14  1  0
 13 21  1  0
 14 15  2  0
 14 22  1  0
 15 23  1  0
M  RAD  1   3   2
M  END
>  <reaction>  (10) 
rxn_1438

>  <mol_properties>  (10) 
{"1": {"label": "*0", "atom_type": "Cd"}, "2": {"label": "*1", "atom_type": "Cs"}, "8": {"label": "*3", "atom_type": "Cd"}, "9": {"label": "*4", "atom_type": "Cd"}, "15": {"label": "*2", "atom_type": "H0"}}

>  <type>  (10) 
unop_6

>  <geom_source>  (10) 
Heuristics

$$$$

     RDKit          3D

 23 22  0  0  0  0  0  0  0  0999 V2000
   -1.7140   -0.8265    4.1498 C   0  0  0  0  0  0  0  0  0  0  0  0
   -1.7761   -1.2136    2.8855 C   0  0  0  0  0  0  0  0  0  0  0  0
   -0.6007   -1.5879    2.0414 C   0  0  0  0  0  3  0  0  0  0  0  0
   -2.6054   -0.5682    4.7076 H   0  0  0  0  0  0  0  0  0  0  0  0
   -0.7667   -0.7538    4.6736 H   0  0  0  0  0  0  0  0  0  0  0  0
   -2.7483   -1.2711    2.4027 H   0  0  0  0  0  0  0  0  0  0  0  0
   -0.6936   -2.6148    1.6786 H   0  0  0  0  0  0  0  0  0  0  0  0
    0.3332   -1.5036    2.5985 H   0  0  0  0  0  0  0  0  0  0  0  0
    0.5804    0.5480    1.0881 C   0  0  0  0  0  0  0  0  0  0  0  0
    0.5804    0.5480   -0.4156 C   0  0  0  0  0  0  0  0  0  0  0  0
    0.5804    1.7424   -1.1296 C   0  0  0  0  0  0  0  0  0  0  0  0
    0.6109    1.7457   -2.5156 C   0  0  0  0  0  0  0  0  0  0  0  0
    0.6404    0.5487   -3.2147 C   0  0  0  0  0  0  0  0  0  0  0  0
    0.6373   -0.6487   -2.5156 C   0  0  0  0  0  0  0  0  0  0  0  0
    0.6068   -0.6460   -1.1296 C   0  0  0  0  0  0  0  0  0  0  0  0
   -0.0094   -0.5187    1.5642 H   0  0  0  0  0  0  0  0  0  0  0  0
    1.6027    0.5593    1.4749 H   0  0  0  0  0  0  0  0  0  0  0  0
    0.0694    1.4259    1.4849 H   0  0  0  0  0  0  0  0  0  0  0  0
    0.5538    2.6835   -0.5918 H   0  0  0  0  0  0  0  0  0  0  0  0
    0.6083    2.6869   -3.0514 H   0  0  0  0  0  0  0  0  0  0  0  0
    0.6616    0.5489   -4.2970 H   0  0  0  0  0  0  0  0  0  0  0  0
    0.6554   -1.5897   -3.0514 H   0  0  0  0  0  0  0  0  0  0  0  0
    0.6009   -1.5875   -0.5918 H   0  0  0  0  0  0  0  0  0  0  0  0
  1  2  2  3
  1  4  1  0
  1  5  1  0
  2  3  1  0
  2  6  1  0
  3  7  1  0
  3  8  1  0
  9 10  1  0
  9 16  1  0
  9 17  1  0
  9 18  1  0
 10 11  2  0
 10 15  1  0
 11 12  1  0
 11 19  1  0
 12 13  2  0
 12 20  1  0
 13 14  1  0
 13 21  1  0
 14 15  2  0
 14 22  1  0
 15 23  1  0
M  RAD  1   3   2
M  END
>  <reaction>  (11) 
rxn_1438

>  <mol_properties>  (11) 
{"1": {"label": "*0", "atom_type": "Cd"}, "2": {"label": "*1", "atom_type": "Cs"}, "8": {"label": "*3", "atom_type": "Cd"}, "9": {"label": "*4", "atom_type": "Cd"}, "15": {"label": "*2", "atom_type": "H0"}}

>  <type>  (11) 
unop_7

>  <geom_source>  (11) 
Heuristics

$$$$

     RDKit          3D

 23 22  0  0  0  0  0  0  0  0999 V2000
   -0.3254   -3.5051    2.5879 C   0  0  0  0  0  0  0  0  0  0  0  0
   -0.0162   -2.2218    2.4887 C   0  0  0  0  0  0  0  0  0  0  0  0
   -0.9989   -1.1123    2.2952 C   0  0  0  0  0  3  0  0  0  0  0  0
    0.4360   -4.2621    2.7278 H   0  0  0  0  0  0  0  0  0  0  0  0
   -1.3542   -3.8453    2.5327 H   0  0  0  0  0  0  0  0  0  0  0  0
    1.0288   -1.9289    2.5500 H   0  0  0  0  0  0  0  0  0  0  0  0
   -0.9383   -0.3918    3.1150 H   0  0  0  0  0  0  0  0  0  0  0  0
   -2.0211   -1.4895    2.2442 H   0  0  0  0  0  0  0  0  0  0  0  0
    0.1822    1.0236    1.3420 C   0  0  0  0  0  0  0  0  0  0  0  0
    0.1822    1.0236   -0.1617 C   0  0  0  0  0  0  0  0  0  0  0  0
    0.1822    2.2179   -0.8758 C   0  0  0  0  0  0  0  0  0  0  0  0
    0.2127    2.2213   -2.2618 C   0  0  0  0  0  0  0  0  0  0  0  0
    0.2422    1.0243   -2.9608 C   0  0  0  0  0  0  0  0  0  0  0  0
    0.2391   -0.1731   -2.2618 C   0  0  0  0  0  0  0  0  0  0  0  0
    0.2085   -0.1704   -0.8758 C   0  0  0  0  0  0  0  0  0  0  0  0
   -0.4077   -0.0431    1.8181 H   0  0  0  0  0  0  0  0  0  0  0  0
    1.2044    1.0349    1.7288 H   0  0  0  0  0  0  0  0  0  0  0  0
   -0.3288    1.9015    1.7387 H   0  0  0  0  0  0  0  0  0  0  0  0
    0.1556    3.1590   -0.3380 H   0  0  0  0  0  0  0  0  0  0  0  0
    0.2100    3.1625   -2.7975 H   0  0  0  0  0  0  0  0  0  0  0  0
    0.2633    1.0245   -4.0432 H   0  0  0  0  0  0  0  0  0  0  0  0
    0.2572   -1.1141   -2.7975 H   0  0  0  0  0  0  0  0  0  0  0  0
    0.2027   -1.1119   -0.3380 H   0  0  0  0  0  0  0  0  0  0  0  0
  1  2  2  3
  1  4  1  0
  1  5  1  0
  2  3  1  0
  2  6  1  0
  3  7  1  0
  3  8  1  0
  9 10  1  0
  9 16  1  0
  9 17  1  0
  9 18  1  0
 10 11  2  0
 10 15  1  0
 11 12  1  0
 11 19  1  0
 12 13  2  0
 12 20  1  0
 13 14  1  0
 13 21  1  0
 14 15  2  0
 14 22  1  0
 15 23  1  0
M  RAD  1   3   2
M  END
>  <reaction>  (12) 
rxn_1438

>  <mol_properties>  (12) 
{"1": {"label": "*0", "atom_type": "Cd"}, "2": {"label": "*1", "atom_type": "Cs"}, "8": {"label": "*3", "atom_type": "Cd"}, "9": {"label": "*4", "atom_type": "Cd"}, "15": {"label": "*2", "atom_type": "H0"}}

>  <type>  (12) 
unop_8

>  <geom_source>  (12) 
Heuristics

$$$$

     RDKit          3D

 23 22  0  0  0  0  0  0  0  0999 V2000
   -2.8398   -1.6869    1.7521 C   0  0  0  0  0  0  0  0  0  0  0  0
   -1.5398   -1.8737    1.5868 C   0  0  0  0  0  0  0  0  0  0  0  0
   -0.4759   -1.3931    2.5202 C   0  0  0  0  0  3  0  0  0  0  0  0
   -3.5614   -2.0615    1.0370 H   0  0  0  0  0  0  0  0  0  0  0  0
   -3.2300   -1.1510    2.6110 H   0  0  0  0  0  0  0  0  0  0  0  0
   -1.1962   -2.4169    0.7102 H   0  0  0  0  0  0  0  0  0  0  0  0
    0.1152   -2.2303    2.9004 H   0  0  0  0  0  0  0  0  0  0  0  0
   -0.9027   -0.8598    3.3706 H   0  0  0  0  0  0  0  0  0  0  0  0
    0.7052    0.7428    1.5670 C   0  0  0  0  0  0  0  0  0  0  0  0
    0.7052    0.7428    0.0633 C   0  0  0  0  0  0  0  0  0  0  0  0
    0.7052    1.9371   -0.6508 C   0  0  0  0  0  0  0  0  0  0  0  0
    0.7357    1.9405   -2.0368 C   0  0  0  0  0  0  0  0  0  0  0  0
    0.7652    0.7435   -2.7358 C   0  0  0  0  0  0  0  0  0  0  0  0
    0.7621   -0.4539   -2.0368 C   0  0  0  0  0  0  0  0  0  0  0  0
    0.7316   -0.4512   -0.6508 C   0  0  0  0  0  0  0  0  0  0  0  0
    0.1154   -0.3239    2.0431 H   0  0  0  0  0  0  0  0  0  0  0  0
    1.7275    0.7541    1.9538 H   0  0  0  0  0  0  0  0  0  0  0  0
    0.1942    1.6207    1.9637 H   0  0  0  0  0  0  0  0  0  0  0  0
    0.6786    2.8782   -0.1130 H   0  0  0  0  0  0  0  0  0  0  0  0
    0.7331    2.8817   -2.5725 H   0  0  0  0  0  0  0  0  0  0  0  0
    0.7864    0.7437   -3.8182 H   0  0  0  0  0  0  0  0  0  0  0  0
    0.7802   -1.3949   -2.5725 H   0  0  0  0  0  0  0  0  0  0  0  0
    0.7257   -1.3927   -0.1130 H   0  0  0  0  0  0  0  0  0  0  0  0
  1  2  2  3
  1  4  1  0
  1  5  1  0
  2  3  1  0
  2  6  1  0
  3  7  1  0
  3  8  1  0
  9 10  1  0
  9 16  1  0
  9 17  1  0
  9 18  1  0
 10 11  2  0
 10 15  1  0
 11 12  1  0
 11 19  1  0
 12 13  2  0
 12 20  1  0
 13 14  1  0
 13 21  1  0
 14 15  2  0
 14 22  1  0
 15 23  1  0
M  RAD  1   3   2
M  END
>  <reaction>  (13) 
rxn_1438

>  <mol_properties>  (13) 
{"1": {"label": "*0", "atom_type": "Cd"}, "2": {"label": "*1", "atom_type": "Cs"}, "8": {"label": "*3", "atom_type": "Cd"}, "9": {"label": "*4", "atom_type": "Cd"}, "15": {"label": "*2", "atom_type": "H0"}}

>  <type>  (13) 
unop_9

>  <geom_source>  (13) 
Heuristics

$$$$

     RDKit          3D

 23 22  0  0  0  0  0  0  0  0999 V2000
   -0.7916   -3.5189    1.8461 C   0  0  0  0  0  0  0  0  0  0  0  0
   -0.2180   -2.3355    1.9978 C   0  0  0  0  0  0  0  0  0  0  0  0
   -0.9140   -1.0942    2.4549 C   0  0  0  0  0  3  0  0  0  0  0  0
   -0.2301   -4.3817    1.5105 H   0  0  0  0  0  0  0  0  0  0  0  0
   -1.8462   -3.6674    2.0527 H   0  0  0  0  0  0  0  0  0  0  0  0
    0.8419   -2.2354    1.7784 H   0  0  0  0  0  0  0  0  0  0  0  0
   -0.4556   -0.7050    3.3676 H   0  0  0  0  0  0  0  0  0  0  0  0
   -1.9705   -1.2795    2.6531 H   0  0  0  0  0  0  0  0  0  0  0  0
    0.2671    1.0417    1.5017 C   0  0  0  0  0  0  0  0  0  0  0  0
    0.2671    1.0417   -0.0021 C   0  0  0  0  0  0  0  0  0  0  0  0
    0.2671    2.2360   -0.7161 C   0  0  0  0  0  0  0  0  0  0  0  0
    0.2975    2.2394   -2.1021 C   0  0  0  0  0  0  0  0  0  0  0  0
    0.3271    1.0424   -2.8011 C   0  0  0  0  0  0  0  0  0  0  0  0
    0.3239   -0.1550   -2.1021 C   0  0  0  0  0  0  0  0  0  0  0  0
    0.2934   -0.1523   -0.7161 C   0  0  0  0  0  0  0  0  0  0  0  0
   -0.3228   -0.0250    1.9777 H   0  0  0  0  0  0  0  0  0  0  0  0
    1.2893    1.0530    1.8884 H   0  0  0  0  0  0  0  0  0  0  0  0
   -0.2439    1.9196    1.8984 H   0  0  0  0  0  0  0  0  0  0  0  0
    0.2405    3.1771   -0.1783 H   0  0  0  0  0  0  0  0  0  0  0  0
    0.2949    3.1806   -2.6378 H   0  0  0  0  0  0  0  0  0  0  0  0
    0.3482    1.0426   -3.8835 H   0  0  0  0  0  0  0  0  0  0  0  0
    0.3421   -1.0960   -2.6378 H   0  0  0  0  0  0  0  0  0  0  0  0
    0.2876   -1.0938   -0.1783 H   0  0  0  0  0  0  0  0  0  0  0  0
  1  2  2  3
  1  4  1  0
  1  5  1  0
  2  3  1  0
  2  6  1  0
  3  7  1  0
  3  8  1  0
  9 10  1  0
  9 16  1  0
  9 17  1  0
  9 18  1  0
 10 11  2  0
 10 15  1  0
 11 12  1  0
 11 19  1  0
 12 13  2  0
 12 20  1  0
 13 14  1  0
 13 21  1  0
 14 15  2  0
 14 22  1  0
 15 23  1  0
M  RAD  1   3   2
M  END
>  <reaction>  (14) 
rxn_1438

>  <mol_properties>  (14) 
{"1": {"label": "*0", "atom_type": "Cd"}, "2": {"label": "*1", "atom_type": "Cs"}, "8": {"label": "*3", "atom_type": "Cd"}, "9": {"label": "*4", "atom_type": "Cd"}, "15": {"label": "*2", "atom_type": "H0"}}

>  <type>  (14) 
unop_10

>  <geom_source>  (14) 
Heuristics

$$$$

     RDKit          3D

 23 22  0  0  0  0  0  0  0  0999 V2000
   -0.8254   -1.3930    4.4550 C   0  0  0  0  0  0  0  0  0  0  0  0
   -1.4019   -1.2205    3.2759 C   0  0  0  0  0  0  0  0  0  0  0  0
   -0.7639   -1.5101    1.9556 C   0  0  0  0  0  3  0  0  0  0  0  0
   -1.3433   -1.1635    5.3778 H   0  0  0  0  0  0  0  0  0  0  0  0
    0.1880   -1.7711    4.5397 H   0  0  0  0  0  0  0  0  0  0  0  0
   -2.4192   -0.8391    3.2413 H   0  0  0  0  0  0  0  0  0  0  0  0
   -1.3421   -2.2519    1.3986 H   0  0  0  0  0  0  0  0  0  0  0  0
    0.2520   -1.8877    2.0780 H   0  0  0  0  0  0  0  0  0  0  0  0
    0.4172    0.6258    1.0024 C   0  0  0  0  0  0  0  0  0  0  0  0
    0.4172    0.6258   -0.5014 C   0  0  0  0  0  0  0  0  0  0  0  0
    0.4172    1.8201   -1.2154 C   0  0  0  0  0  0  0  0  0  0  0  0
    0.4477    1.8235   -2.6014 C   0  0  0  0  0  0  0  0  0  0  0  0
    0.4772    0.6265   -3.3004 C   0  0  0  0  0  0  0  0  0  0  0  0
    0.4741   -0.5709   -2.6014 C   0  0  0  0  0  0  0  0  0  0  0  0
    0.4436   -0.5682   -1.2154 C   0  0  0  0  0  0  0  0  0  0  0  0
   -0.1726   -0.4409    1.4784 H   0  0  0  0  0  0  0  0  0  0  0  0
    1.4395    0.6371    1.3891 H   0  0  0  0  0  0  0  0  0  0  0  0
   -0.0938    1.5037    1.3991 H   0  0  0  0  0  0  0  0  0  0  0  0
    0.3906    2.7612   -0.6776 H   0  0  0  0  0  0  0  0  0  0  0  0
    0.4450    2.7647   -3.1371 H   0  0  0  0  0  0  0  0  0  0  0  0
    0.4984    0.6267   -4.3828 H   0  0  0  0  0  0  0  0  0  0  0  0
    0.4922   -1.5120   -3.1371 H   0  0  0  0  0  0  0  0  0  0  0  0
    0.4377   -1.5097   -0.6776 H   0  0  0  0  0  0  0  0  0  0  0  0
  1  2  2  3
  1  4  1  0
  1  5  1  0
  2  3  1  0
  2  6  1  0
  3  7  1  0
  3  8  1  0
  9 10  1  0
  9 16  1  0
  9 17  1  0
  9 18  1  0
 10 11  2  0
 10 15  1  0
 11 12  1  0
 11 19  1  0
 12 13  2  0
 12 20  1  0
 13 14  1  0
 13 21  1  0
 14 15  2  0
 14 22  1  0
 15 23  1  0
M  RAD  1   3   2
M  END
>  <reaction>  (15) 
rxn_1438

>  <mol_properties>  (15) 
{"1": {"label": "*0", "atom_type": "Cd"}, "2": {"label": "*1", "atom_type": "Cs"}, "8": {"label": "*3", "atom_type": "Cd"}, "9": {"label": "*4", "atom_type": "Cd"}, "15": {"label": "*2", "atom_type": "H0"}}

>  <type>  (15) 
unop_11

>  <geom_source>  (15) 
Heuristics

$$$$

     RDKit          3D

 23 22  0  0  0  0  0  0  0  0999 V2000
   -2.3447   -2.4888    1.2933 C   0  0  0  0  0  0  0  0  0  0  0  0
   -1.0847   -2.1320    1.4863 C   0  0  0  0  0  0  0  0  0  0  0  0
   -0.5990   -1.2537    2.5940 C   0  0  0  0  0  3  0  0  0  0  0  0
   -2.6322   -3.1294    0.4691 H   0  0  0  0  0  0  0  0  0  0  0  0
   -3.1360   -2.1520    1.9547 H   0  0  0  0  0  0  0  0  0  0  0  0
   -0.3264   -2.4946    0.7970 H   0  0  0  0  0  0  0  0  0  0  0  0
    0.1387   -1.7755    3.2091 H   0  0  0  0  0  0  0  0  0  0  0  0
   -1.4191   -0.9342    3.2382 H   0  0  0  0  0  0  0  0  0  0  0  0
    0.5821    0.8822    1.6408 C   0  0  0  0  0  0  0  0  0  0  0  0
    0.5821    0.8822    0.1371 C   0  0  0  0  0  0  0  0  0  0  0  0
    0.5821    2.0765   -0.5770 C   0  0  0  0  0  0  0  0  0  0  0  0
    0.6126    2.0799   -1.9630 C   0  0  0  0  0  0  0  0  0  0  0  0
    0.6421    0.8828   -2.6620 C   0  0  0  0  0  0  0  0  0  0  0  0
    0.6390   -0.3145   -1.9630 C   0  0  0  0  0  0  0  0  0  0  0  0
    0.6084   -0.3118   -0.5770 C   0  0  0  0  0  0  0  0  0  0  0  0
   -0.0078   -0.1845    2.1169 H   0  0  0  0  0  0  0  0  0  0  0  0
    1.6043    0.8934    2.0276 H   0  0  0  0  0  0  0  0  0  0  0  0
    0.0711    1.7601    2.0375 H   0  0  0  0  0  0  0  0  0  0  0  0
    0.5555    3.0176   -0.0392 H   0  0  0  0  0  0  0  0  0  0  0  0
    0.6099    3.0211   -2.4987 H   0  0  0  0  0  0  0  0  0  0  0  0
    0.6632    0.8831   -3.7444 H   0  0  0  0  0  0  0  0  0  0  0  0
    0.6571   -1.2556   -2.4987 H   0  0  0  0  0  0  0  0  0  0  0  0
    0.6026   -1.2533   -0.0392 H   0  0  0  0  0  0  0  0  0  0  0  0
  1  2  2  3
  1  4  1  0
  1  5  1  0
  2  3  1  0
  2  6  1  0
  3  7  1  0
  3  8  1  0
  9 10  1  0
  9 16  1  0
  9 17  1  0
  9 18  1  0
 10 11  2  0
 10 15  1  0
 11 12  1  0
 11 19  1  0
 12 13  2  0
 12 20  1  0
 13 14  1  0
 13 21  1  0
 14 15  2  0
 14 22  1  0
 15 23  1  0
M  RAD  1   3   2
M  END
>  <reaction>  (16) 
rxn_1438

>  <mol_properties>  (16) 
{"1": {"label": "*0", "atom_type": "Cd"}, "2": {"label": "*1", "atom_type": "Cs"}, "8": {"label": "*3", "atom_type": "Cd"}, "9": {"label": "*4", "atom_type": "Cd"}, "15": {"label": "*2", "atom_type": "H0"}}

>  <type>  (16) 
unop_12

>  <geom_source>  (16) 
Heuristics

$$$$

     RDKit          3D

 23 22  0  0  0  0  0  0  0  0999 V2000
   -2.3942   -0.5738    0.5857 C   0  0  0  0  0  0  0  0  0  0  0  0
    1.2167   -0.5537    0.3096 C   0  0  0  0  0  0  0  0  0  0  0  0
   -2.8071    0.4234   -0.4505 C   0  0  0  0  0  0  0  0  0  0  0  0
    1.2181    0.8152    0.6098 C   0  0  0  0  0  0  0  0  0  0  0  0
    2.2799   -1.1074   -0.4194 C   0  0  0  0  0  0  0  0  0  0  0  0
    2.2760    1.6252    0.1836 C   0  0  0  0  0  0  0  0  0  0  0  0
    3.3344    1.0706   -0.5429 C   0  0  0  0  0  0  0  0  0  0  0  0
    3.3363   -0.2948   -0.8442 C   0  0  0  0  0  0  0  0  0  0  0  0
    0.0846   -1.4127    0.7674 C   0  0  0  0  0  0  0  0  0  0  0  0
   -4.0511    0.9057   -0.4892 C   0  0  0  0  0  3  0  0  0  0  0  0
   -2.5208   -0.1413    1.6007 H   0  0  0  0  0  0  0  0  0  0  0  0
   -3.0105   -1.4931    0.4949 H   0  0  0  0  0  0  0  0  0  0  0  0
   -1.0617   -0.9060    0.4017 H   0  0  0  0  0  0  0  0  0  0  0  0
   -2.0791    0.7586   -1.1827 H   0  0  0  0  0  0  0  0  0  0  0  0
    0.4026    1.2535    1.1720 H   0  0  0  0  0  0  0  0  0  0  0  0
    2.2754    2.6822    0.4164 H   0  0  0  0  0  0  0  0  0  0  0  0
    2.2893   -2.1640   -0.6572 H   0  0  0  0  0  0  0  0  0  0  0  0
    4.1523    1.6984   -0.8720 H   0  0  0  0  0  0  0  0  0  0  0  0
    4.1558   -0.7233   -1.4065 H   0  0  0  0  0  0  0  0  0  0  0  0
   -4.3301    1.6284   -1.2491 H   0  0  0  0  0  0  0  0  0  0  0  0
   -4.7965    0.5852    0.2327 H   0  0  0  0  0  0  0  0  0  0  0  0
    0.4579   -2.2089    1.4453 H   0  0  0  0  0  0  0  0  0  0  0  0
   -0.4282   -1.8678   -0.1059 H   0  0  0  0  0  0  0  0  0  0  0  0
  1  3  2  3
  1 11  1  0
  1 12  1  0
  2  9  1  0
  2  4  2  0
  2  5  1  0
  3 10  1  0
  3 14  1  0
  4  6  1  0
  4 15  1  0
  5  8  2  0
  5 17  1  0
  6  7  2  0
  6 16  1  0
  7  8  1  0
  7 18  1  0
  8 19  1  0
  9 13  1  0
  9 22  1  0
  9 23  1  0
 10 20  1  0
 10 21  1  0
M  RAD  1  10   2
M  END
>  <reaction>  (17) 
rxn_1438

>  <mol_properties>  (17) 
{"1": {"label": "*0", "atom_type": "Cd"}, "2": {"label": "*1", "atom_type": "Cs"}, "8": {"label": "*3", "atom_type": "Cd"}, "9": {"label": "*4", "atom_type": "Cd"}, "15": {"label": "*2", "atom_type": "H0"}}

>  <type>  (17) 
unop_13

>  <geom_source>  (17) 
AutoTST

$$$$
