
     RDKit          3D

  6  5  0  0  0  0  0  0  0  0999 V2000
   -0.5072   -0.0291   -0.0097 C   0  0  0  0  0  0  0  0  0  0  0  0
    1.1321   -0.1527   -0.7687 S   0  0  0  0  0  0  0  0  0  0  0  0
   -0.6174   -0.7330    0.8127 H   0  0  0  0  0  0  0  0  0  0  0  0
   -0.5863    0.9827    0.3845 H   0  0  0  0  0  0  0  0  0  0  0  0
   -1.2962   -0.1800   -0.7434 H   0  0  0  0  0  0  0  0  0  0  0  0
    1.0312   -1.4237   -1.1764 H   0  0  0  0  0  0  0  0  0  0  0  0
  1  2  1  0
  1  3  1  0
  1  4  1  0
  1  5  1  0
  2  6  1  0
M  END
>  <reaction>  (1) 
rxn_1848

>  <mol_properties>  (1) 
{"0": {"label": "donator", "atom_type": "Cs"}, "2": {"label": "d_hydrogen", "atom_type": "H0"}}

>  <type>  (1) 
r1h

$$$$

     RDKit          3D

  6  5  0  0  0  0  0  0  0  0999 V2000
    1.7035    0.4954    0.0162 S   0  0  0  0  0  0  0  0  0  0  0  0
    0.1927   -0.1841   -0.3584 C   0  0  0  0  0  3  0  0  0  0  0  0
   -1.0558    0.0577   -0.0460 C   0  0  0  0  0  0  0  0  0  0  0  0
    2.3611   -0.6557    0.2254 H   0  0  0  0  0  0  0  0  0  0  0  0
   -1.8677   -0.4245   -0.5802 H   0  0  0  0  0  0  0  0  0  0  0  0
   -1.3294    0.7333    0.7635 H   0  0  0  0  0  0  0  0  0  0  0  0
  1  2  1  0
  1  4  1  0
  2  3  2  3
  3  5  1  0
  3  6  1  0
M  RAD  1   2   2
M  END
>  <reaction>  (2) 
rxn_1848

>  <mol_properties>  (2) 
{"1": {"label": "acceptor", "atom_type": "Cd"}}

>  <type>  (2) 
r2

$$$$

     RDKit          3D

  7  6  0  0  0  0  0  0  0  0999 V2000
    1.2020   -0.5069    1.0970 S   0  0  0  0  0  0  0  0  0  0  0  0
    0.2449    0.0208   -0.2711 C   0  0  0  0  0  0  0  0  0  0  0  0
    0.6491    0.2538   -1.5109 C   0  0  0  0  0  0  0  0  0  0  0  0
    2.3807   -0.5751    0.4630 H   0  0  0  0  0  0  0  0  0  0  0  0
   -0.7959    0.1526    0.0036 H   0  0  0  0  0  0  0  0  0  0  0  0
    1.6808    0.1320   -1.8181 H   0  0  0  0  0  0  0  0  0  0  0  0
   -0.0586    0.5786   -2.2618 H   0  0  0  0  0  0  0  0  0  0  0  0
  1  2  1  0
  1  4  1  0
  2  3  2  3
  2  5  1  0
  3  6  1  0
  3  7  1  0
M  END
>  <reaction>  (3) 
rxn_1848

>  <mol_properties>  (3) 
{"1": {"label": "acceptor", "atom_type": "Cd"}, "6": {"label": "a_hydrogen", "atom_type": "H0"}}

>  <type>  (3) 
r2h

$$$$

     RDKit          3D

 12 10  0  0  0  0  0  0  0  0999 V2000
   -0.4178    0.5647    2.5553 S   0  0  0  0  0  0  0  0  0  0  0  0
    0.3878    0.6879    1.0331 C   0  0  0  0  0  3  0  0  0  0  0  0
    1.1707    1.5823    0.4693 C   0  0  0  0  0  0  0  0  0  0  0  0
   -0.0855    1.7704    3.0532 H   0  0  0  0  0  0  0  0  0  0  0  0
    1.5433    1.4214   -0.5372 H   0  0  0  0  0  0  0  0  0  0  0  0
    1.4687    2.4987    0.9731 H   0  0  0  0  0  0  0  0  0  0  0  0
   -0.0207   -1.3987   -0.6102 C   0  0  0  0  0  0  0  0  0  0  0  0
    1.1738   -1.3060   -1.9159 S   0  0  0  0  0  0  0  0  0  0  0  0
    0.1403   -0.4393    0.2037 H   0  0  0  0  0  0  0  0  0  0  0  0
   -1.0166   -1.2575   -1.0234 H   0  0  0  0  0  0  0  0  0  0  0  0
    0.0438   -2.3038   -0.0111 H   0  0  0  0  0  0  0  0  0  0  0  0
    2.2479   -1.6336   -1.1860 H   0  0  0  0  0  0  0  0  0  0  0  0
  1  2  1  0
  1  4  1  0
  2  3  2  3
  3  5  1  0
  3  6  1  0
  7  8  1  0
  7  9  1  0
  7 10  1  0
  7 11  1  0
  8 12  1  0
M  RAD  1   2   2
M  END
>  <reaction>  (4) 
rxn_1848

>  <mol_properties>  (4) 
{"0": {"label": "*4", "atom_type": "S2s"}, "1": {"label": "*3", "atom_type": "Cd"}, "6": {"label": "*1", "atom_type": "Cs"}, "7": {"label": "*0", "atom_type": "S2s"}, "8": {"label": "*2", "atom_type": "H0"}}

>  <type>  (4) 
ts

$$$$

     RDKit          3D

 12 10  0  0  0  0  0  0  0  0999 V2000
   -1.1667    1.2243    1.6221 S   0  0  0  0  0  0  0  0  0  0  0  0
    0.2462    0.9292    0.6307 C   0  0  0  0  0  0  0  0  0  0  0  0
    1.4922    1.3248    0.8440 C   0  0  0  0  0  0  0  0  0  0  0  0
   -0.5557    1.9334    2.5811 H   0  0  0  0  0  0  0  0  0  0  0  0
    2.2726    1.0677    0.1403 H   0  0  0  0  0  0  0  0  0  0  0  0
    1.7759    1.9086    1.7114 H   0  0  0  0  0  0  0  0  0  0  0  0
    0.2462   -1.4985   -0.3194 C   0  0  0  0  0  3  0  0  0  0  0  0
    0.2462   -1.4985   -2.1300 S   0  0  0  0  0  0  0  0  0  0  0  0
    0.2462   -0.2827    0.1564 H   0  0  0  0  0  0  0  0  0  0  0  0
   -0.6745   -1.9927   -0.0134 H   0  0  0  0  0  0  0  0  0  0  0  0
    1.0906   -2.0585    0.0771 H   0  0  0  0  0  0  0  0  0  0  0  0
    1.4165   -0.8704   -2.2964 H   0  0  0  0  0  0  0  0  0  0  0  0
  1  2  1  0
  1  4  1  0
  2  3  2  3
  2  9  1  0
  3  5  1  0
  3  6  1  0
  7  8  1  0
  7 10  1  0
  7 11  1  0
  8 12  1  0
M  RAD  1   7   2
M  END
>  <reaction>  (5) 
rxn_1848

>  <mol_properties>  (5) 
{"0": {"label": "*4", "atom_type": "S2s"}, "1": {"label": "*3", "atom_type": "Cd"}, "6": {"label": "*1", "atom_type": "Cs"}, "7": {"label": "*0", "atom_type": "S2s"}, "8": {"label": "*2", "atom_type": "H0"}}

>  <type>  (5) 
unop_1

>  <geom_source>  (5) 
Heuristics

$$$$

     RDKit          3D

 12 10  0  0  0  0  0  0  0  0999 V2000
   -0.6117    1.8150    0.0382 S   0  0  0  0  0  0  0  0  0  0  0  0
    0.2041    0.7078    1.1221 C   0  0  0  0  0  0  0  0  0  0  0  0
    0.4841    0.8772    2.4056 C   0  0  0  0  0  0  0  0  0  0  0  0
   -0.8194    2.7981    0.9250 H   0  0  0  0  0  0  0  0  0  0  0  0
    0.9978    0.1012    2.9573 H   0  0  0  0  0  0  0  0  0  0  0  0
    0.2172    1.7783    2.9445 H   0  0  0  0  0  0  0  0  0  0  0  0
    0.2041   -1.7199    0.1721 C   0  0  0  0  0  3  0  0  0  0  0  0
    0.2041   -1.7199   -1.6385 S   0  0  0  0  0  0  0  0  0  0  0  0
    0.2041   -0.5041    0.6479 H   0  0  0  0  0  0  0  0  0  0  0  0
   -0.7166   -2.2140    0.4781 H   0  0  0  0  0  0  0  0  0  0  0  0
    1.0484   -2.2799    0.5686 H   0  0  0  0  0  0  0  0  0  0  0  0
    1.3744   -1.0918   -1.8049 H   0  0  0  0  0  0  0  0  0  0  0  0
  1  2  1  0
  1  4  1  0
  2  3  2  3
  2  9  1  0
  3  5  1  0
  3  6  1  0
  7  8  1  0
  7 10  1  0
  7 11  1  0
  8 12  1  0
M  RAD  1   7   2
M  END
>  <reaction>  (6) 
rxn_1848

>  <mol_properties>  (6) 
{"0": {"label": "*4", "atom_type": "S2s"}, "1": {"label": "*3", "atom_type": "Cd"}, "6": {"label": "*1", "atom_type": "Cs"}, "7": {"label": "*0", "atom_type": "S2s"}, "8": {"label": "*2", "atom_type": "H0"}}

>  <type>  (6) 
unop_2

>  <geom_source>  (6) 
Heuristics

$$$$

     RDKit          3D

 12 10  0  0  0  0  0  0  0  0999 V2000
   -0.7181    1.0193    2.1025 S   0  0  0  0  0  0  0  0  0  0  0  0
    0.0977    0.9418    0.5550 C   0  0  0  0  0  0  0  0  0  0  0  0
    1.0830    1.7074    0.1106 C   0  0  0  0  0  0  0  0  0  0  0  0
   -0.0259    2.0498    2.6075 H   0  0  0  0  0  0  0  0  0  0  0  0
    1.4954    1.5450   -0.8763 H   0  0  0  0  0  0  0  0  0  0  0  0
    1.5076    2.5095    0.7021 H   0  0  0  0  0  0  0  0  0  0  0  0
    0.0977   -1.4859   -0.3951 C   0  0  0  0  0  3  0  0  0  0  0  0
    0.0977   -1.4859   -2.2057 S   0  0  0  0  0  0  0  0  0  0  0  0
    0.0977   -0.2701    0.0807 H   0  0  0  0  0  0  0  0  0  0  0  0
   -0.8230   -1.9800   -0.0891 H   0  0  0  0  0  0  0  0  0  0  0  0
    0.9420   -2.0459    0.0014 H   0  0  0  0  0  0  0  0  0  0  0  0
    1.2680   -0.8578   -2.3721 H   0  0  0  0  0  0  0  0  0  0  0  0
  1  2  1  0
  1  4  1  0
  2  3  2  3
  2  9  1  0
  3  5  1  0
  3  6  1  0
  7  8  1  0
  7 10  1  0
  7 11  1  0
  8 12  1  0
M  RAD  1   7   2
M  END
>  <reaction>  (7) 
rxn_1848

>  <mol_properties>  (7) 
{"0": {"label": "*4", "atom_type": "S2s"}, "1": {"label": "*3", "atom_type": "Cd"}, "6": {"label": "*1", "atom_type": "Cs"}, "7": {"label": "*0", "atom_type": "S2s"}, "8": {"label": "*2", "atom_type": "H0"}}

>  <type>  (7) 
unop_3

>  <geom_source>  (7) 
Heuristics

$$$$

     RDKit          3D

 12 10  0  0  0  0  0  0  0  0999 V2000
    1.0582    1.6733    0.4409 S   0  0  0  0  0  0  0  0  0  0  0  0
   -0.3547    0.7837    0.9688 C   0  0  0  0  0  0  0  0  0  0  0  0
   -1.0182    0.9040    2.1089 C   0  0  0  0  0  0  0  0  0  0  0  0
    1.1904    2.4430    1.5300 H   0  0  0  0  0  0  0  0  0  0  0  0
   -1.8822    0.2827    2.3037 H   0  0  0  0  0  0  0  0  0  0  0  0
   -0.7307    1.6125    2.8764 H   0  0  0  0  0  0  0  0  0  0  0  0
   -0.3547   -1.6440    0.0188 C   0  0  0  0  0  3  0  0  0  0  0  0
   -0.3547   -1.6440   -1.7919 S   0  0  0  0  0  0  0  0  0  0  0  0
   -0.3547   -0.4282    0.4946 H   0  0  0  0  0  0  0  0  0  0  0  0
   -1.2754   -2.1382    0.3247 H   0  0  0  0  0  0  0  0  0  0  0  0
    0.4897   -2.2040    0.4153 H   0  0  0  0  0  0  0  0  0  0  0  0
    0.8156   -1.0159   -1.9583 H   0  0  0  0  0  0  0  0  0  0  0  0
  1  2  1  0
  1  4  1  0
  2  3  2  3
  2  9  1  0
  3  5  1  0
  3  6  1  0
  7  8  1  0
  7 10  1  0
  7 11  1  0
  8 12  1  0
M  RAD  1   7   2
M  END
>  <reaction>  (8) 
rxn_1848

>  <mol_properties>  (8) 
{"0": {"label": "*4", "atom_type": "S2s"}, "1": {"label": "*3", "atom_type": "Cd"}, "6": {"label": "*1", "atom_type": "Cs"}, "7": {"label": "*0", "atom_type": "S2s"}, "8": {"label": "*2", "atom_type": "H0"}}

>  <type>  (8) 
unop_4

>  <geom_source>  (8) 
Heuristics

$$$$

     RDKit          3D

 12 10  0  0  0  0  0  0  0  0999 V2000
   -0.0103    0.9228    2.2982 S   0  0  0  0  0  0  0  0  0  0  0  0
   -0.0103    0.9250    0.5471 C   0  0  0  0  0  0  0  0  0  0  0  0
   -0.0103    1.9680   -0.2695 C   0  0  0  0  0  0  0  0  0  0  0  0
   -0.0103    2.2520    2.4693 H   0  0  0  0  0  0  0  0  0  0  0  0
   -0.0103    1.8198   -1.3412 H   0  0  0  0  0  0  0  0  0  0  0  0
   -0.0103    2.9891    0.0923 H   0  0  0  0  0  0  0  0  0  0  0  0
   -0.0103   -1.5027   -0.4029 C   0  0  0  0  0  3  0  0  0  0  0  0
   -0.0103   -1.5027   -2.2136 S   0  0  0  0  0  0  0  0  0  0  0  0
   -0.0103   -0.2868    0.0728 H   0  0  0  0  0  0  0  0  0  0  0  0
   -0.9310   -1.9968   -0.0970 H   0  0  0  0  0  0  0  0  0  0  0  0
    0.8341   -2.0627   -0.0065 H   0  0  0  0  0  0  0  0  0  0  0  0
    1.1600   -0.8745   -2.3800 H   0  0  0  0  0  0  0  0  0  0  0  0
  1  2  1  0
  1  4  1  0
  2  3  2  3
  2  9  1  0
  3  5  1  0
  3  6  1  0
  7  8  1  0
  7 10  1  0
  7 11  1  0
  8 12  1  0
M  RAD  1   7   2
M  END
>  <reaction>  (9) 
rxn_1848

>  <mol_properties>  (9) 
{"0": {"label": "*4", "atom_type": "S2s"}, "1": {"label": "*3", "atom_type": "Cd"}, "6": {"label": "*1", "atom_type": "Cs"}, "7": {"label": "*0", "atom_type": "S2s"}, "8": {"label": "*2", "atom_type": "H0"}}

>  <type>  (9) 
unop_5

>  <geom_source>  (9) 
Heuristics

$$$$

     RDKit          3D

 12 10  0  0  0  0  0  0  0  0999 V2000
    1.2669    1.4607    1.0156 S   0  0  0  0  0  0  0  0  0  0  0  0
   -0.3645    0.8683    0.7838 C   0  0  0  0  0  0  0  0  0  0  0  0
   -1.4186    1.0475    1.5659 C   0  0  0  0  0  0  0  0  0  0  0  0
    1.0523    2.0996    2.1740 H   0  0  0  0  0  0  0  0  0  0  0  0
   -2.3749    0.6196    1.2963 H   0  0  0  0  0  0  0  0  0  0  0  0
   -1.3689    1.6163    2.4865 H   0  0  0  0  0  0  0  0  0  0  0  0
   -0.3645   -1.5594   -0.1662 C   0  0  0  0  0  3  0  0  0  0  0  0
   -0.3645   -1.5594   -1.9768 S   0  0  0  0  0  0  0  0  0  0  0  0
   -0.3645   -0.3436    0.3096 H   0  0  0  0  0  0  0  0  0  0  0  0
   -1.2852   -2.0535    0.1398 H   0  0  0  0  0  0  0  0  0  0  0  0
    0.4798   -2.1194    0.2303 H   0  0  0  0  0  0  0  0  0  0  0  0
    0.8058   -0.9312   -2.1432 H   0  0  0  0  0  0  0  0  0  0  0  0
  1  2  1  0
  1  4  1  0
  2  3  2  3
  2  9  1  0
  3  5  1  0
  3  6  1  0
  7  8  1  0
  7 10  1  0
  7 11  1  0
  8 12  1  0
M  RAD  1   7   2
M  END
>  <reaction>  (10) 
rxn_1848

>  <mol_properties>  (10) 
{"0": {"label": "*4", "atom_type": "S2s"}, "1": {"label": "*3", "atom_type": "Cd"}, "6": {"label": "*1", "atom_type": "Cs"}, "7": {"label": "*0", "atom_type": "S2s"}, "8": {"label": "*2", "atom_type": "H0"}}

>  <type>  (10) 
unop_6

>  <geom_source>  (10) 
Heuristics

$$$$

     RDKit          3D

 12 10  0  0  0  0  0  0  0  0999 V2000
    1.1461    1.2243    1.6221 S   0  0  0  0  0  0  0  0  0  0  0  0
   -0.2668    0.9292    0.6307 C   0  0  0  0  0  0  0  0  0  0  0  0
   -1.5128    1.3248    0.8440 C   0  0  0  0  0  0  0  0  0  0  0  0
    0.5350    1.9334    2.5811 H   0  0  0  0  0  0  0  0  0  0  0  0
   -2.2932    1.0677    0.1403 H   0  0  0  0  0  0  0  0  0  0  0  0
   -1.7966    1.9086    1.7113 H   0  0  0  0  0  0  0  0  0  0  0  0
   -0.2668   -1.4985   -0.3194 C   0  0  0  0  0  3  0  0  0  0  0  0
   -0.2668   -1.4985   -2.1300 S   0  0  0  0  0  0  0  0  0  0  0  0
   -0.2668   -0.2827    0.1564 H   0  0  0  0  0  0  0  0  0  0  0  0
   -1.1875   -1.9927   -0.0134 H   0  0  0  0  0  0  0  0  0  0  0  0
    0.5776   -2.0585    0.0771 H   0  0  0  0  0  0  0  0  0  0  0  0
    0.9035   -0.8704   -2.2964 H   0  0  0  0  0  0  0  0  0  0  0  0
  1  2  1  0
  1  4  1  0
  2  3  2  3
  2  9  1  0
  3  5  1  0
  3  6  1  0
  7  8  1  0
  7 10  1  0
  7 11  1  0
  8 12  1  0
M  RAD  1   7   2
M  END
>  <reaction>  (11) 
rxn_1848

>  <mol_properties>  (11) 
{"0": {"label": "*4", "atom_type": "S2s"}, "1": {"label": "*3", "atom_type": "Cd"}, "6": {"label": "*1", "atom_type": "Cs"}, "7": {"label": "*0", "atom_type": "S2s"}, "8": {"label": "*2", "atom_type": "H0"}}

>  <type>  (11) 
unop_7

>  <geom_source>  (11) 
Heuristics

$$$$

     RDKit          3D

 12 10  0  0  0  0  0  0  0  0999 V2000
   -1.2875    1.4607    1.0156 S   0  0  0  0  0  0  0  0  0  0  0  0
    0.3439    0.8683    0.7838 C   0  0  0  0  0  0  0  0  0  0  0  0
    1.3979    1.0475    1.5659 C   0  0  0  0  0  0  0  0  0  0  0  0
   -1.0729    2.0996    2.1740 H   0  0  0  0  0  0  0  0  0  0  0  0
    2.3543    0.6196    1.2963 H   0  0  0  0  0  0  0  0  0  0  0  0
    1.3483    1.6163    2.4865 H   0  0  0  0  0  0  0  0  0  0  0  0
    0.3439   -1.5594   -0.1662 C   0  0  0  0  0  3  0  0  0  0  0  0
    0.3439   -1.5594   -1.9768 S   0  0  0  0  0  0  0  0  0  0  0  0
    0.3439   -0.3436    0.3096 H   0  0  0  0  0  0  0  0  0  0  0  0
   -0.5767   -2.0535    0.1398 H   0  0  0  0  0  0  0  0  0  0  0  0
    1.1883   -2.1194    0.2303 H   0  0  0  0  0  0  0  0  0  0  0  0
    1.5142   -0.9312   -2.1432 H   0  0  0  0  0  0  0  0  0  0  0  0
  1  2  1  0
  1  4  1  0
  2  3  2  3
  2  9  1  0
  3  5  1  0
  3  6  1  0
  7  8  1  0
  7 10  1  0
  7 11  1  0
  8 12  1  0
M  RAD  1   7   2
M  END
>  <reaction>  (12) 
rxn_1848

>  <mol_properties>  (12) 
{"0": {"label": "*4", "atom_type": "S2s"}, "1": {"label": "*3", "atom_type": "Cd"}, "6": {"label": "*1", "atom_type": "Cs"}, "7": {"label": "*0", "atom_type": "S2s"}, "8": {"label": "*2", "atom_type": "H0"}}

>  <type>  (12) 
unop_8

>  <geom_source>  (12) 
Heuristics

$$$$

     RDKit          3D

 12 10  0  0  0  0  0  0  0  0999 V2000
    0.5911    1.8150    0.0382 S   0  0  0  0  0  0  0  0  0  0  0  0
   -0.2247    0.7078    1.1221 C   0  0  0  0  0  0  0  0  0  0  0  0
   -0.5048    0.8772    2.4056 C   0  0  0  0  0  0  0  0  0  0  0  0
    0.7988    2.7981    0.9250 H   0  0  0  0  0  0  0  0  0  0  0  0
   -1.0184    0.1012    2.9573 H   0  0  0  0  0  0  0  0  0  0  0  0
   -0.2379    1.7783    2.9445 H   0  0  0  0  0  0  0  0  0  0  0  0
   -0.2247   -1.7199    0.1721 C   0  0  0  0  0  3  0  0  0  0  0  0
   -0.2247   -1.7199   -1.6385 S   0  0  0  0  0  0  0  0  0  0  0  0
   -0.2247   -0.5041    0.6479 H   0  0  0  0  0  0  0  0  0  0  0  0
   -1.1454   -2.2140    0.4781 H   0  0  0  0  0  0  0  0  0  0  0  0
    0.6197   -2.2799    0.5686 H   0  0  0  0  0  0  0  0  0  0  0  0
    0.9456   -1.0918   -1.8049 H   0  0  0  0  0  0  0  0  0  0  0  0
  1  2  1  0
  1  4  1  0
  2  3  2  3
  2  9  1  0
  3  5  1  0
  3  6  1  0
  7  8  1  0
  7 10  1  0
  7 11  1  0
  8 12  1  0
M  RAD  1   7   2
M  END
>  <reaction>  (13) 
rxn_1848

>  <mol_properties>  (13) 
{"0": {"label": "*4", "atom_type": "S2s"}, "1": {"label": "*3", "atom_type": "Cd"}, "6": {"label": "*1", "atom_type": "Cs"}, "7": {"label": "*0", "atom_type": "S2s"}, "8": {"label": "*2", "atom_type": "H0"}}

>  <type>  (13) 
unop_9

>  <geom_source>  (13) 
Heuristics

$$$$

     RDKit          3D

 12 10  0  0  0  0  0  0  0  0999 V2000
   -1.0788    1.6733    0.4409 S   0  0  0  0  0  0  0  0  0  0  0  0
    0.3341    0.7837    0.9688 C   0  0  0  0  0  0  0  0  0  0  0  0
    0.9976    0.9040    2.1089 C   0  0  0  0  0  0  0  0  0  0  0  0
   -1.2110    2.4430    1.5300 H   0  0  0  0  0  0  0  0  0  0  0  0
    1.8616    0.2827    2.3037 H   0  0  0  0  0  0  0  0  0  0  0  0
    0.7101    1.6124    2.8764 H   0  0  0  0  0  0  0  0  0  0  0  0
    0.3341   -1.6440    0.0188 C   0  0  0  0  0  3  0  0  0  0  0  0
    0.3341   -1.6440   -1.7919 S   0  0  0  0  0  0  0  0  0  0  0  0
    0.3341   -0.4282    0.4946 H   0  0  0  0  0  0  0  0  0  0  0  0
   -0.5866   -2.1382    0.3247 H   0  0  0  0  0  0  0  0  0  0  0  0
    1.1785   -2.2040    0.4153 H   0  0  0  0  0  0  0  0  0  0  0  0
    1.5044   -1.0159   -1.9583 H   0  0  0  0  0  0  0  0  0  0  0  0
  1  2  1  0
  1  4  1  0
  2  3  2  3
  2  9  1  0
  3  5  1  0
  3  6  1  0
  7  8  1  0
  7 10  1  0
  7 11  1  0
  8 12  1  0
M  RAD  1   7   2
M  END
>  <reaction>  (14) 
rxn_1848

>  <mol_properties>  (14) 
{"0": {"label": "*4", "atom_type": "S2s"}, "1": {"label": "*3", "atom_type": "Cd"}, "6": {"label": "*1", "atom_type": "Cs"}, "7": {"label": "*0", "atom_type": "S2s"}, "8": {"label": "*2", "atom_type": "H0"}}

>  <type>  (14) 
unop_10

>  <geom_source>  (14) 
Heuristics

$$$$

     RDKit          3D

 12 10  0  0  0  0  0  0  0  0999 V2000
    0.6975    1.0193    2.1025 S   0  0  0  0  0  0  0  0  0  0  0  0
   -0.1183    0.9418    0.5550 C   0  0  0  0  0  0  0  0  0  0  0  0
   -1.1036    1.7074    0.1106 C   0  0  0  0  0  0  0  0  0  0  0  0
    0.0053    2.0498    2.6075 H   0  0  0  0  0  0  0  0  0  0  0  0
   -1.5160    1.5450   -0.8763 H   0  0  0  0  0  0  0  0  0  0  0  0
   -1.5282    2.5095    0.7021 H   0  0  0  0  0  0  0  0  0  0  0  0
   -0.1183   -1.4859   -0.3951 C   0  0  0  0  0  3  0  0  0  0  0  0
   -0.1183   -1.4859   -2.2057 S   0  0  0  0  0  0  0  0  0  0  0  0
   -0.1183   -0.2701    0.0807 H   0  0  0  0  0  0  0  0  0  0  0  0
   -1.0389   -1.9800   -0.0891 H   0  0  0  0  0  0  0  0  0  0  0  0
    0.7261   -2.0459    0.0014 H   0  0  0  0  0  0  0  0  0  0  0  0
    1.0520   -0.8578   -2.3721 H   0  0  0  0  0  0  0  0  0  0  0  0
  1  2  1  0
  1  4  1  0
  2  3  2  3
  2  9  1  0
  3  5  1  0
  3  6  1  0
  7  8  1  0
  7 10  1  0
  7 11  1  0
  8 12  1  0
M  RAD  1   7   2
M  END
>  <reaction>  (15) 
rxn_1848

>  <mol_properties>  (15) 
{"0": {"label": "*4", "atom_type": "S2s"}, "1": {"label": "*3", "atom_type": "Cd"}, "6": {"label": "*1", "atom_type": "Cs"}, "7": {"label": "*0", "atom_type": "S2s"}, "8": {"label": "*2", "atom_type": "H0"}}

>  <type>  (15) 
unop_11

>  <geom_source>  (15) 
Heuristics

$$$$

     RDKit          3D

 12 10  0  0  0  0  0  0  0  0999 V2000
   -0.0103    1.8632   -0.1050 S   0  0  0  0  0  0  0  0  0  0  0  0
   -0.0103    0.6764    1.1825 C   0  0  0  0  0  0  0  0  0  0  0  0
   -0.0103    0.8881    2.4901 C   0  0  0  0  0  0  0  0  0  0  0  0
   -0.0103    2.9555    0.6715 H   0  0  0  0  0  0  0  0  0  0  0  0
   -0.0103    0.0519    3.1765 H   0  0  0  0  0  0  0  0  0  0  0  0
   -0.0103    1.8835    2.9174 H   0  0  0  0  0  0  0  0  0  0  0  0
   -0.0103   -1.7513    0.2325 C   0  0  0  0  0  3  0  0  0  0  0  0
   -0.0103   -1.7513   -1.5781 S   0  0  0  0  0  0  0  0  0  0  0  0
   -0.0103   -0.5355    0.7083 H   0  0  0  0  0  0  0  0  0  0  0  0
   -0.9310   -2.2455    0.5385 H   0  0  0  0  0  0  0  0  0  0  0  0
    0.8341   -2.3113    0.6290 H   0  0  0  0  0  0  0  0  0  0  0  0
    1.1600   -1.1232   -1.7445 H   0  0  0  0  0  0  0  0  0  0  0  0
  1  2  1  0
  1  4  1  0
  2  3  2  3
  2  9  1  0
  3  5  1  0
  3  6  1  0
  7  8  1  0
  7 10  1  0
  7 11  1  0
  8 12  1  0
M  RAD  1   7   2
M  END
>  <reaction>  (16) 
rxn_1848

>  <mol_properties>  (16) 
{"0": {"label": "*4", "atom_type": "S2s"}, "1": {"label": "*3", "atom_type": "Cd"}, "6": {"label": "*1", "atom_type": "Cs"}, "7": {"label": "*0", "atom_type": "S2s"}, "8": {"label": "*2", "atom_type": "H0"}}

>  <type>  (16) 
unop_12

>  <geom_source>  (16) 
Heuristics

$$$$

     RDKit          3D

 12 10  0  0  0  0  0  0  0  0999 V2000
   -1.1384    0.9187    1.6047 S   0  0  0  0  0  0  0  0  0  0  0  0
    2.7761    1.0941   -0.1902 S   0  0  0  0  0  0  0  0  0  0  0  0
   -0.9289   -0.0756    0.1291 C   0  0  0  0  0  0  0  0  0  0  0  0
   -1.8985   -0.8896   -0.2841 C   0  0  0  0  0  0  0  0  0  0  0  0
    1.5614   -0.2207   -0.4859 C   0  0  0  0  0  3  0  0  0  0  0  0
    0.1525   -0.0014   -0.5228 H   0  0  0  0  0  0  0  0  0  0  0  0
   -1.7591   -1.4867   -1.1789 H   0  0  0  0  0  0  0  0  0  0  0  0
   -2.8322   -0.9646    0.2644 H   0  0  0  0  0  0  0  0  0  0  0  0
    1.7640   -1.0740    0.1938 H   0  0  0  0  0  0  0  0  0  0  0  0
    1.6363   -0.5624   -1.5386 H   0  0  0  0  0  0  0  0  0  0  0  0
   -1.6789    1.9909    0.8703 H   0  0  0  0  0  0  0  0  0  0  0  0
    2.3457    1.2714    1.1381 H   0  0  0  0  0  0  0  0  0  0  0  0
  1  3  1  0
  1 11  1  0
  2  5  1  0
  2 12  1  0
  3  4  2  3
  3  6  1  0
  4  7  1  0
  4  8  1  0
  5  9  1  0
  5 10  1  0
M  RAD  1   5   2
M  END
>  <reaction>  (17) 
rxn_1848

>  <mol_properties>  (17) 
{"0": {"label": "*4", "atom_type": "S2s"}, "1": {"label": "*3", "atom_type": "Cd"}, "6": {"label": "*1", "atom_type": "Cs"}, "7": {"label": "*0", "atom_type": "S2s"}, "8": {"label": "*2", "atom_type": "H0"}}

>  <type>  (17) 
unop_13

>  <geom_source>  (17) 
AutoTST

$$$$
