
     RDKit          3D

  5  4  0  0  0  0  0  0  0  0999 V2000
   -0.4535    0.0104   -0.2352 N   0  0  0  0  0  0  0  0  0  0  0  0
    0.8506   -0.0148    0.3346 O   0  0  0  0  0  0  0  0  0  0  0  0
   -0.9090    0.8045    0.2022 H   0  0  0  0  0  0  0  0  0  0  0  0
   -0.9099   -0.8179    0.1325 H   0  0  0  0  0  0  0  0  0  0  0  0
    1.4218    0.0179   -0.4341 H   0  0  0  0  0  0  0  0  0  0  0  0
  1  2  1  0
  1  3  1  0
  1  4  1  0
  2  5  1  0
M  END
>  <reaction>  (1) 
rxn_715

>  <mol_properties>  (1) 
{"1": {"label": "donator", "atom_type": "O2s"}, "4": {"label": "d_hydrogen", "atom_type": "H0"}}

>  <type>  (1) 
r1h

$$$$

     RDKit          3D

  4  3  0  0  0  0  0  0  0  0999 V2000
    0.0000    0.0000    0.0000 C   0  0  0  0  0  3  0  0  0  0  0  0
    1.0638   -0.1747    0.0540 H   0  0  0  0  0  0  0  0  0  0  0  0
   -0.6833   -0.8351   -0.0280 H   0  0  0  0  0  0  0  0  0  0  0  0
   -0.3805    1.0098   -0.0260 H   0  0  0  0  0  0  0  0  0  0  0  0
  1  2  1  0
  1  3  1  0
  1  4  1  0
M  RAD  1   1   2
M  END
>  <reaction>  (2) 
rxn_715

>  <mol_properties>  (2) 
{"0": {"label": "acceptor", "atom_type": "Cs"}}

>  <type>  (2) 
r2

$$$$

     RDKit          3D

  5  4  0  0  0  0  0  0  0  0999 V2000
    0.0000    0.0000    0.0000 C   0  0  0  0  0  0  0  0  0  0  0  0
   -0.6486   -0.7720   -0.4113 H   0  0  0  0  0  0  0  0  0  0  0  0
   -0.3482    0.9787   -0.3267 H   0  0  0  0  0  0  0  0  0  0  0  0
   -0.0223   -0.0487    1.0876 H   0  0  0  0  0  0  0  0  0  0  0  0
    1.0191   -0.1580   -0.3496 H   0  0  0  0  0  0  0  0  0  0  0  0
  1  2  1  0
  1  3  1  0
  1  4  1  0
  1  5  1  0
M  END
>  <reaction>  (3) 
rxn_715

>  <mol_properties>  (3) 
{"0": {"label": "a_hydrogen", "atom_type": "H0"}, "1": {"label": "acceptor", "atom_type": "Cs"}}

>  <type>  (3) 
r2h

$$$$

     RDKit          3D

  9  7  0  0  0  0  0  0  0  0999 V2000
   -0.0971   -0.7781   -1.1188 N   0  0  0  0  0  0  0  0  0  0  0  0
    0.1607   -0.8340    0.2322 O   0  0  0  0  0  0  0  0  0  0  0  0
   -0.9140   -1.3485   -1.3017 H   0  0  0  0  0  0  0  0  0  0  0  0
    0.7044   -1.1648   -1.6029 H   0  0  0  0  0  0  0  0  0  0  0  0
    0.1102    0.2161    0.6015 H   0  0  0  0  0  0  0  0  0  0  0  0
    0.0191    1.5858    0.9475 C   0  0  0  0  0  3  0  0  0  0  0  0
   -0.2093    1.9871   -0.0347 H   0  0  0  0  0  0  0  0  0  0  0  0
   -0.7890    1.6241    1.6700 H   0  0  0  0  0  0  0  0  0  0  0  0
    1.0022    1.8274    1.3367 H   0  0  0  0  0  0  0  0  0  0  0  0
  1  2  1  0
  1  3  1  0
  1  4  1  0
  2  5  1  0
  6  7  1  0
  6  8  1  0
  6  9  1  0
M  RAD  1   6   2
M  END
>  <reaction>  (4) 
rxn_715

>  <mol_properties>  (4) 
{"0": {"label": "*0", "atom_type": "N3s"}, "1": {"label": "*1", "atom_type": "O2s"}, "4": {"label": "*2", "atom_type": "H0"}, "5": {"label": "*3", "atom_type": "Cs"}, "6": {"label": "*4", "atom_type": "H0"}}

>  <type>  (4) 
ts

$$$$

     RDKit          3D

  9  7  0  0  0  0  0  0  0  0999 V2000
   -0.0024   -0.7670   -1.1370 N   0  0  0  0  0  0  0  0  0  0  0  0
   -0.0024   -0.7670    0.2863 O   0  0  0  0  0  0  0  0  0  0  0  0
   -0.8144   -1.3188   -1.3934 H   0  0  0  0  0  0  0  0  0  0  0  0
    0.8095   -1.3188   -1.3934 H   0  0  0  0  0  0  0  0  0  0  0  0
   -0.0024    0.3535    0.5445 H   0  0  0  0  0  0  0  0  0  0  0  0
   -0.0024    1.6268    0.8379 C   0  0  0  0  0  3  0  0  0  0  0  0
   -0.8915    1.8653    1.4196 H   0  0  0  0  0  0  0  0  0  0  0  0
    0.6830    1.2692    1.6048 H   0  0  0  0  0  0  0  0  0  0  0  0
    0.3169    2.6100    0.4956 H   0  0  0  0  0  0  0  0  0  0  0  0
  1  2  1  0
  1  3  1  0
  1  4  1  0
  2  5  1  0
  6  7  1  0
  6  8  1  0
  6  9  1  0
M  RAD  1   6   2
M  END
>  <reaction>  (5) 
rxn_715

>  <mol_properties>  (5) 
{"0": {"label": "*0", "atom_type": "N3s"}, "1": {"label": "*1", "atom_type": "O2s"}, "4": {"label": "*2", "atom_type": "H0"}, "5": {"label": "*3", "atom_type": "Cs"}, "6": {"label": "*4", "atom_type": "H0"}}

>  <type>  (5) 
unop_1

>  <geom_source>  (5) 
Heuristics

$$$$

     RDKit          3D

  9  7  0  0  0  0  0  0  0  0999 V2000
    0.0003   -0.7557   -1.1232 N   0  0  0  0  0  0  0  0  0  0  0  0
    0.0003   -0.7557    0.3002 O   0  0  0  0  0  0  0  0  0  0  0  0
   -0.8116   -1.3075   -1.3795 H   0  0  0  0  0  0  0  0  0  0  0  0
    0.8123   -1.3075   -1.3795 H   0  0  0  0  0  0  0  0  0  0  0  0
    0.0003    0.3648    0.5583 H   0  0  0  0  0  0  0  0  0  0  0  0
    0.0003    1.6382    0.8517 C   0  0  0  0  0  3  0  0  0  0  0  0
   -0.5130    2.1915    0.0668 H   0  0  0  0  0  0  0  0  0  0  0  0
   -0.5287    1.1916    1.6922 H   0  0  0  0  0  0  0  0  0  0  0  0
    1.0268    1.8555    1.1430 H   0  0  0  0  0  0  0  0  0  0  0  0
  1  2  1  0
  1  3  1  0
  1  4  1  0
  2  5  1  0
  6  7  1  0
  6  8  1  0
  6  9  1  0
M  RAD  1   6   2
M  END
>  <reaction>  (6) 
rxn_715

>  <mol_properties>  (6) 
{"0": {"label": "*0", "atom_type": "N3s"}, "1": {"label": "*1", "atom_type": "O2s"}, "4": {"label": "*2", "atom_type": "H0"}, "5": {"label": "*3", "atom_type": "Cs"}, "6": {"label": "*4", "atom_type": "H0"}}

>  <type>  (6) 
unop_2

>  <geom_source>  (6) 
Heuristics

$$$$

     RDKit          3D

  9  7  0  0  0  0  0  0  0  0999 V2000
   -0.0049   -0.7732   -1.1381 N   0  0  0  0  0  0  0  0  0  0  0  0
   -0.0049   -0.7732    0.2853 O   0  0  0  0  0  0  0  0  0  0  0  0
   -0.8168   -1.3251   -1.3945 H   0  0  0  0  0  0  0  0  0  0  0  0
    0.8071   -1.3251   -1.3945 H   0  0  0  0  0  0  0  0  0  0  0  0
   -0.0049    0.3472    0.5434 H   0  0  0  0  0  0  0  0  0  0  0  0
   -0.0049    1.6206    0.8368 C   0  0  0  0  0  3  0  0  0  0  0  0
   -0.5182    1.7747    1.7847 H   0  0  0  0  0  0  0  0  0  0  0  0
    0.9790    1.6260    1.3034 H   0  0  0  0  0  0  0  0  0  0  0  0
   -0.2429    2.6215    0.4799 H   0  0  0  0  0  0  0  0  0  0  0  0
  1  2  1  0
  1  3  1  0
  1  4  1  0
  2  5  1  0
  6  7  1  0
  6  8  1  0
  6  9  1  0
M  RAD  1   6   2
M  END
>  <reaction>  (7) 
rxn_715

>  <mol_properties>  (7) 
{"0": {"label": "*0", "atom_type": "N3s"}, "1": {"label": "*1", "atom_type": "O2s"}, "4": {"label": "*2", "atom_type": "H0"}, "5": {"label": "*3", "atom_type": "Cs"}, "6": {"label": "*4", "atom_type": "H0"}}

>  <type>  (7) 
unop_3

>  <geom_source>  (7) 
Heuristics

$$$$

     RDKit          3D

  9  7  0  0  0  0  0  0  0  0999 V2000
   -0.0011   -0.7589   -1.1268 N   0  0  0  0  0  0  0  0  0  0  0  0
   -0.0011   -0.7589    0.2966 O   0  0  0  0  0  0  0  0  0  0  0  0
   -0.8130   -1.3107   -1.3831 H   0  0  0  0  0  0  0  0  0  0  0  0
    0.8109   -1.3107   -1.3831 H   0  0  0  0  0  0  0  0  0  0  0  0
   -0.0011    0.3616    0.5547 H   0  0  0  0  0  0  0  0  0  0  0  0
   -0.0011    1.6350    0.8481 C   0  0  0  0  0  3  0  0  0  0  0  0
    0.8880    2.1039    0.4294 H   0  0  0  0  0  0  0  0  0  0  0  0
   -0.9334    2.1976    0.8538 H   0  0  0  0  0  0  0  0  0  0  0  0
    0.0928    1.0786    1.7795 H   0  0  0  0  0  0  0  0  0  0  0  0
  1  2  1  0
  1  3  1  0
  1  4  1  0
  2  5  1  0
  6  7  1  0
  6  8  1  0
  6  9  1  0
M  RAD  1   6   2
M  END
>  <reaction>  (8) 
rxn_715

>  <mol_properties>  (8) 
{"0": {"label": "*0", "atom_type": "N3s"}, "1": {"label": "*1", "atom_type": "O2s"}, "4": {"label": "*2", "atom_type": "H0"}, "5": {"label": "*3", "atom_type": "Cs"}, "6": {"label": "*4", "atom_type": "H0"}}

>  <type>  (8) 
unop_4

>  <geom_source>  (8) 
Heuristics

$$$$

     RDKit          3D

  9  7  0  0  0  0  0  0  0  0999 V2000
    0.0000   -0.7778   -1.1366 N   0  0  0  0  0  0  0  0  0  0  0  0
    0.0000   -0.7778    0.2868 O   0  0  0  0  0  0  0  0  0  0  0  0
   -0.8120   -1.3296   -1.3930 H   0  0  0  0  0  0  0  0  0  0  0  0
    0.8120   -1.3296   -1.3930 H   0  0  0  0  0  0  0  0  0  0  0  0
    0.0000    0.3427    0.5449 H   0  0  0  0  0  0  0  0  0  0  0  0
    0.0000    1.6161    0.8383 C   0  0  0  0  0  3  0  0  0  0  0  0
    0.0000    1.7393    1.9202 H   0  0  0  0  0  0  0  0  0  0  0  0
    0.8891    2.2430    0.7907 H   0  0  0  0  0  0  0  0  0  0  0  0
   -0.8891    2.2430    0.7907 H   0  0  0  0  0  0  0  0  0  0  0  0
  1  2  1  0
  1  3  1  0
  1  4  1  0
  2  5  1  0
  6  7  1  0
  6  8  1  0
  6  9  1  0
M  RAD  1   6   2
M  END
>  <reaction>  (9) 
rxn_715

>  <mol_properties>  (9) 
{"0": {"label": "*0", "atom_type": "N3s"}, "1": {"label": "*1", "atom_type": "O2s"}, "4": {"label": "*2", "atom_type": "H0"}, "5": {"label": "*3", "atom_type": "Cs"}, "6": {"label": "*4", "atom_type": "H0"}}

>  <type>  (9) 
unop_5

>  <geom_source>  (9) 
Heuristics

$$$$

     RDKit          3D

  9  7  0  0  0  0  0  0  0  0999 V2000
   -0.0005   -0.7625   -1.1323 N   0  0  0  0  0  0  0  0  0  0  0  0
   -0.0005   -0.7625    0.2911 O   0  0  0  0  0  0  0  0  0  0  0  0
   -0.8124   -1.3144   -1.3886 H   0  0  0  0  0  0  0  0  0  0  0  0
    0.8115   -1.3144   -1.3886 H   0  0  0  0  0  0  0  0  0  0  0  0
   -0.0005    0.3580    0.5493 H   0  0  0  0  0  0  0  0  0  0  0  0
   -0.0005    1.6313    0.8426 C   0  0  0  0  0  3  0  0  0  0  0  0
    1.0262    1.9850    0.9241 H   0  0  0  0  0  0  0  0  0  0  0  0
   -0.6891    2.4494    0.6370 H   0  0  0  0  0  0  0  0  0  0  0  0
   -0.3156    1.1098    1.7452 H   0  0  0  0  0  0  0  0  0  0  0  0
  1  2  1  0
  1  3  1  0
  1  4  1  0
  2  5  1  0
  6  7  1  0
  6  8  1  0
  6  9  1  0
M  RAD  1   6   2
M  END
>  <reaction>  (10) 
rxn_715

>  <mol_properties>  (10) 
{"0": {"label": "*0", "atom_type": "N3s"}, "1": {"label": "*1", "atom_type": "O2s"}, "4": {"label": "*2", "atom_type": "H0"}, "5": {"label": "*3", "atom_type": "Cs"}, "6": {"label": "*4", "atom_type": "H0"}}

>  <type>  (10) 
unop_6

>  <geom_source>  (10) 
Heuristics

$$$$

     RDKit          3D

  9  7  0  0  0  0  0  0  0  0999 V2000
    0.0024   -0.7670   -1.1370 N   0  0  0  0  0  0  0  0  0  0  0  0
    0.0024   -0.7670    0.2863 O   0  0  0  0  0  0  0  0  0  0  0  0
   -0.8095   -1.3188   -1.3934 H   0  0  0  0  0  0  0  0  0  0  0  0
    0.8144   -1.3188   -1.3934 H   0  0  0  0  0  0  0  0  0  0  0  0
    0.0024    0.3535    0.5445 H   0  0  0  0  0  0  0  0  0  0  0  0
    0.0024    1.6268    0.8379 C   0  0  0  0  0  3  0  0  0  0  0  0
    0.8915    1.8653    1.4196 H   0  0  0  0  0  0  0  0  0  0  0  0
   -0.3169    2.6100    0.4956 H   0  0  0  0  0  0  0  0  0  0  0  0
   -0.6830    1.2692    1.6048 H   0  0  0  0  0  0  0  0  0  0  0  0
  1  2  1  0
  1  3  1  0
  1  4  1  0
  2  5  1  0
  6  7  1  0
  6  8  1  0
  6  9  1  0
M  RAD  1   6   2
M  END
>  <reaction>  (11) 
rxn_715

>  <mol_properties>  (11) 
{"0": {"label": "*0", "atom_type": "N3s"}, "1": {"label": "*1", "atom_type": "O2s"}, "4": {"label": "*2", "atom_type": "H0"}, "5": {"label": "*3", "atom_type": "Cs"}, "6": {"label": "*4", "atom_type": "H0"}}

>  <type>  (11) 
unop_7

>  <geom_source>  (11) 
Heuristics

$$$$

     RDKit          3D

  9  7  0  0  0  0  0  0  0  0999 V2000
    0.0005   -0.7625   -1.1323 N   0  0  0  0  0  0  0  0  0  0  0  0
    0.0005   -0.7625    0.2911 O   0  0  0  0  0  0  0  0  0  0  0  0
   -0.8115   -1.3144   -1.3886 H   0  0  0  0  0  0  0  0  0  0  0  0
    0.8124   -1.3144   -1.3886 H   0  0  0  0  0  0  0  0  0  0  0  0
    0.0005    0.3580    0.5493 H   0  0  0  0  0  0  0  0  0  0  0  0
    0.0005    1.6313    0.8426 C   0  0  0  0  0  3  0  0  0  0  0  0
   -1.0262    1.9850    0.9241 H   0  0  0  0  0  0  0  0  0  0  0  0
    0.3156    1.1098    1.7452 H   0  0  0  0  0  0  0  0  0  0  0  0
    0.6891    2.4494    0.6370 H   0  0  0  0  0  0  0  0  0  0  0  0
  1  2  1  0
  1  3  1  0
  1  4  1  0
  2  5  1  0
  6  7  1  0
  6  8  1  0
  6  9  1  0
M  RAD  1   6   2
M  END
>  <reaction>  (12) 
rxn_715

>  <mol_properties>  (12) 
{"0": {"label": "*0", "atom_type": "N3s"}, "1": {"label": "*1", "atom_type": "O2s"}, "4": {"label": "*2", "atom_type": "H0"}, "5": {"label": "*3", "atom_type": "Cs"}, "6": {"label": "*4", "atom_type": "H0"}}

>  <type>  (12) 
unop_8

>  <geom_source>  (12) 
Heuristics

$$$$

     RDKit          3D

  9  7  0  0  0  0  0  0  0  0999 V2000
   -0.0003   -0.7557   -1.1232 N   0  0  0  0  0  0  0  0  0  0  0  0
   -0.0003   -0.7557    0.3002 O   0  0  0  0  0  0  0  0  0  0  0  0
   -0.8123   -1.3075   -1.3795 H   0  0  0  0  0  0  0  0  0  0  0  0
    0.8116   -1.3075   -1.3795 H   0  0  0  0  0  0  0  0  0  0  0  0
   -0.0003    0.3648    0.5583 H   0  0  0  0  0  0  0  0  0  0  0  0
   -0.0003    1.6382    0.8517 C   0  0  0  0  0  3  0  0  0  0  0  0
    0.5130    2.1915    0.0668 H   0  0  0  0  0  0  0  0  0  0  0  0
   -1.0268    1.8555    1.1430 H   0  0  0  0  0  0  0  0  0  0  0  0
    0.5287    1.1916    1.6922 H   0  0  0  0  0  0  0  0  0  0  0  0
  1  2  1  0
  1  3  1  0
  1  4  1  0
  2  5  1  0
  6  7  1  0
  6  8  1  0
  6  9  1  0
M  RAD  1   6   2
M  END
>  <reaction>  (13) 
rxn_715

>  <mol_properties>  (13) 
{"0": {"label": "*0", "atom_type": "N3s"}, "1": {"label": "*1", "atom_type": "O2s"}, "4": {"label": "*2", "atom_type": "H0"}, "5": {"label": "*3", "atom_type": "Cs"}, "6": {"label": "*4", "atom_type": "H0"}}

>  <type>  (13) 
unop_9

>  <geom_source>  (13) 
Heuristics

$$$$

     RDKit          3D

  9  7  0  0  0  0  0  0  0  0999 V2000
    0.0011   -0.7589   -1.1268 N   0  0  0  0  0  0  0  0  0  0  0  0
    0.0011   -0.7589    0.2966 O   0  0  0  0  0  0  0  0  0  0  0  0
   -0.8109   -1.3107   -1.3831 H   0  0  0  0  0  0  0  0  0  0  0  0
    0.8130   -1.3107   -1.3831 H   0  0  0  0  0  0  0  0  0  0  0  0
    0.0011    0.3616    0.5547 H   0  0  0  0  0  0  0  0  0  0  0  0
    0.0011    1.6350    0.8481 C   0  0  0  0  0  3  0  0  0  0  0  0
   -0.8880    2.1039    0.4294 H   0  0  0  0  0  0  0  0  0  0  0  0
   -0.0928    1.0786    1.7795 H   0  0  0  0  0  0  0  0  0  0  0  0
    0.9334    2.1976    0.8538 H   0  0  0  0  0  0  0  0  0  0  0  0
  1  2  1  0
  1  3  1  0
  1  4  1  0
  2  5  1  0
  6  7  1  0
  6  8  1  0
  6  9  1  0
M  RAD  1   6   2
M  END
>  <reaction>  (14) 
rxn_715

>  <mol_properties>  (14) 
{"0": {"label": "*0", "atom_type": "N3s"}, "1": {"label": "*1", "atom_type": "O2s"}, "4": {"label": "*2", "atom_type": "H0"}, "5": {"label": "*3", "atom_type": "Cs"}, "6": {"label": "*4", "atom_type": "H0"}}

>  <type>  (14) 
unop_10

>  <geom_source>  (14) 
Heuristics

$$$$

     RDKit          3D

  9  7  0  0  0  0  0  0  0  0999 V2000
    0.0049   -0.7732   -1.1381 N   0  0  0  0  0  0  0  0  0  0  0  0
    0.0049   -0.7732    0.2853 O   0  0  0  0  0  0  0  0  0  0  0  0
   -0.8071   -1.3251   -1.3945 H   0  0  0  0  0  0  0  0  0  0  0  0
    0.8168   -1.3251   -1.3945 H   0  0  0  0  0  0  0  0  0  0  0  0
    0.0049    0.3472    0.5434 H   0  0  0  0  0  0  0  0  0  0  0  0
    0.0049    1.6206    0.8368 C   0  0  0  0  0  3  0  0  0  0  0  0
    0.5182    1.7747    1.7847 H   0  0  0  0  0  0  0  0  0  0  0  0
    0.2429    2.6215    0.4799 H   0  0  0  0  0  0  0  0  0  0  0  0
   -0.9790    1.6260    1.3034 H   0  0  0  0  0  0  0  0  0  0  0  0
  1  2  1  0
  1  3  1  0
  1  4  1  0
  2  5  1  0
  6  7  1  0
  6  8  1  0
  6  9  1  0
M  RAD  1   6   2
M  END
>  <reaction>  (15) 
rxn_715

>  <mol_properties>  (15) 
{"0": {"label": "*0", "atom_type": "N3s"}, "1": {"label": "*1", "atom_type": "O2s"}, "4": {"label": "*2", "atom_type": "H0"}, "5": {"label": "*3", "atom_type": "Cs"}, "6": {"label": "*4", "atom_type": "H0"}}

>  <type>  (15) 
unop_11

>  <geom_source>  (15) 
Heuristics

$$$$

     RDKit          3D

  9  7  0  0  0  0  0  0  0  0999 V2000
    0.0000   -0.7543   -1.1221 N   0  0  0  0  0  0  0  0  0  0  0  0
    0.0000   -0.7543    0.3013 O   0  0  0  0  0  0  0  0  0  0  0  0
   -0.8120   -1.3061   -1.3785 H   0  0  0  0  0  0  0  0  0  0  0  0
    0.8120   -1.3061   -1.3785 H   0  0  0  0  0  0  0  0  0  0  0  0
    0.0000    0.3662    0.5594 H   0  0  0  0  0  0  0  0  0  0  0  0
    0.0000    1.6396    0.8528 C   0  0  0  0  0  3  0  0  0  0  0  0
    0.0000    2.2238   -0.0662 H   0  0  0  0  0  0  0  0  0  0  0  0
   -0.8891    1.4754    1.4597 H   0  0  0  0  0  0  0  0  0  0  0  0
    0.8891    1.4754    1.4597 H   0  0  0  0  0  0  0  0  0  0  0  0
  1  2  1  0
  1  3  1  0
  1  4  1  0
  2  5  1  0
  6  7  1  0
  6  8  1  0
  6  9  1  0
M  RAD  1   6   2
M  END
>  <reaction>  (16) 
rxn_715

>  <mol_properties>  (16) 
{"0": {"label": "*0", "atom_type": "N3s"}, "1": {"label": "*1", "atom_type": "O2s"}, "4": {"label": "*2", "atom_type": "H0"}, "5": {"label": "*3", "atom_type": "Cs"}, "6": {"label": "*4", "atom_type": "H0"}}

>  <type>  (16) 
unop_12

>  <geom_source>  (16) 
Heuristics

$$$$

     RDKit          3D

  9  7  0  0  0  0  0  0  0  0999 V2000
    0.8154   -0.6224   -0.2680 O   0  0  0  0  0  1  0  0  0  0  0  0
    1.9816   -0.1842    0.2607 N   0  0  0  0  0  0  0  0  0  0  0  0
   -1.4838    0.0547    0.0165 C   0  0  0  0  0  0  0  0  0  0  0  0
   -2.2883    0.1143   -0.7451 H   0  0  0  0  0  0  0  0  0  0  0  0
   -1.2384    1.0752    0.3758 H   0  0  0  0  0  0  0  0  0  0  0  0
   -1.8277   -0.5651    0.8699 H   0  0  0  0  0  0  0  0  0  0  0  0
   -0.5281   -0.4325   -0.4611 H   0  0  0  0  0  0  0  0  0  0  0  0
    2.7044   -0.2784   -0.4873 H   0  0  0  0  0  0  0  0  0  0  0  0
    1.8651    0.8384    0.4385 H   0  0  0  0  0  0  0  0  0  0  0  0
  1  2  1  0
  2  8  1  0
  2  9  1  0
  3  4  1  0
  3  5  1  0
  3  6  1  0
  3  7  1  0
M  RAD  1   1   2
M  END
>  <reaction>  (17) 
rxn_715

>  <mol_properties>  (17) 
{"0": {"label": "*0", "atom_type": "N3s"}, "1": {"label": "*1", "atom_type": "O2s"}, "4": {"label": "*2", "atom_type": "H0"}, "5": {"label": "*3", "atom_type": "Cs"}, "6": {"label": "*4", "atom_type": "H0"}}

>  <type>  (17) 
unop_13

>  <geom_source>  (17) 
AutoTST

$$$$
