
     RDKit          3D

  6  5  0  0  0  0  0  0  0  0999 V2000
   -0.5072   -0.0291   -0.0097 C   0  0  0  0  0  0  0  0  0  0  0  0
    1.1321   -0.1527   -0.7687 S   0  0  0  0  0  0  0  0  0  0  0  0
   -0.6174   -0.7330    0.8127 H   0  0  0  0  0  0  0  0  0  0  0  0
   -0.5863    0.9827    0.3845 H   0  0  0  0  0  0  0  0  0  0  0  0
   -1.2962   -0.1800   -0.7434 H   0  0  0  0  0  0  0  0  0  0  0  0
    1.0312   -1.4237   -1.1764 H   0  0  0  0  0  0  0  0  0  0  0  0
  1  2  1  0
  1  3  1  0
  1  4  1  0
  1  5  1  0
  2  6  1  0
M  END
>  <reaction>  (1) 
rxn_1837

>  <mol_properties>  (1) 
{"0": {"label": "donator", "atom_type": "Cs"}, "2": {"label": "d_hydrogen", "atom_type": "H0"}}

>  <type>  (1) 
r1h

$$$$

     RDKit          3D

  9  8  0  0  0  0  0  0  0  0999 V2000
    1.8963   -0.1405   -0.2150 C   0  0  0  0  0  0  0  0  0  0  0  0
    0.6340    0.1486   -0.2254 C   0  0  0  0  0  3  0  0  0  0  0  0
   -0.6770    0.4501   -0.2373 C   0  0  0  0  0  0  0  0  0  0  0  0
   -1.6600   -0.2303    0.4662 C   0  0  0  0  0  0  0  0  0  0  0  0
    2.3274   -0.8354   -0.9313 H   0  0  0  0  0  0  0  0  0  0  0  0
    2.5751    0.2988    0.5117 H   0  0  0  0  0  0  0  0  0  0  0  0
   -0.9723    1.2966   -0.8520 H   0  0  0  0  0  0  0  0  0  0  0  0
   -2.6934    0.0777    0.4015 H   0  0  0  0  0  0  0  0  0  0  0  0
   -1.4140   -1.0782    1.0904 H   0  0  0  0  0  0  0  0  0  0  0  0
  1  2  2  3
  1  5  1  0
  1  6  1  0
  2  3  1  0
  3  4  2  3
  3  7  1  0
  4  8  1  0
  4  9  1  0
M  RAD  1   2   2
M  END
>  <reaction>  (2) 
rxn_1837

>  <mol_properties>  (2) 
{"1": {"label": "acceptor", "atom_type": "Cd"}}

>  <type>  (2) 
r2

$$$$

     RDKit          3D

 10  9  0  0  0  0  0  0  0  0999 V2000
    1.8334    0.0847   -0.1062 C   0  0  0  0  0  0  0  0  0  0  0  0
    0.5993   -0.4071   -0.0750 C   0  0  0  0  0  0  0  0  0  0  0  0
   -0.5993    0.4071    0.0750 C   0  0  0  0  0  0  0  0  0  0  0  0
   -1.8334   -0.0847    0.1062 C   0  0  0  0  0  0  0  0  0  0  0  0
    2.0179    1.1498   -0.0189 H   0  0  0  0  0  0  0  0  0  0  0  0
    2.6972   -0.5572   -0.2194 H   0  0  0  0  0  0  0  0  0  0  0  0
    0.4465   -1.4793   -0.1649 H   0  0  0  0  0  0  0  0  0  0  0  0
   -0.4465    1.4793    0.1649 H   0  0  0  0  0  0  0  0  0  0  0  0
   -2.0179   -1.1498    0.0189 H   0  0  0  0  0  0  0  0  0  0  0  0
   -2.6972    0.5572    0.2194 H   0  0  0  0  0  0  0  0  0  0  0  0
  1  2  2  3
  1  5  1  0
  1  6  1  0
  2  3  1  0
  2  7  1  0
  3  4  2  3
  3  8  1  0
  4  9  1  0
  4 10  1  0
M  END
>  <reaction>  (3) 
rxn_1837

>  <mol_properties>  (3) 
{"0": {"label": "a_hydrogen", "atom_type": "H0"}, "2": {"label": "acceptor", "atom_type": "Cd"}}

>  <type>  (3) 
r2h

$$$$

     RDKit          3D

 15 13  0  0  0  0  0  0  0  0999 V2000
   -0.1559   -1.2243   -0.5377 C   0  0  0  0  0  0  0  0  0  0  0  0
    0.9992   -1.3017   -1.8853 S   0  0  0  0  0  0  0  0  0  0  0  0
   -0.0194   -0.1252    0.0983 H   0  0  0  0  0  0  0  0  0  0  0  0
   -1.1673   -1.2028   -0.9374 H   0  0  0  0  0  0  0  0  0  0  0  0
   -0.0303   -2.0179    0.1955 H   0  0  0  0  0  0  0  0  0  0  0  0
    2.1120   -1.3986   -1.1462 H   0  0  0  0  0  0  0  0  0  0  0  0
    0.9439    1.9467    0.0296 C   0  0  0  0  0  0  0  0  0  0  0  0
    0.1980    1.1188    0.7340 C   0  0  0  0  0  3  0  0  0  0  0  0
   -0.4083    1.2818    2.0362 C   0  0  0  0  0  0  0  0  0  0  0  0
   -1.1657    0.3696    2.6373 C   0  0  0  0  0  0  0  0  0  0  0  0
    1.3235    1.6706   -0.9487 H   0  0  0  0  0  0  0  0  0  0  0  0
    1.2033    2.9372    0.4006 H   0  0  0  0  0  0  0  0  0  0  0  0
   -0.2154    2.2303    2.5379 H   0  0  0  0  0  0  0  0  0  0  0  0
   -1.5951    0.5487    3.6141 H   0  0  0  0  0  0  0  0  0  0  0  0
   -1.3803   -0.5834    2.1683 H   0  0  0  0  0  0  0  0  0  0  0  0
  1  2  1  0
  1  3  1  0
  1  4  1  0
  1  5  1  0
  2  6  1  0
  7  8  2  3
  7 11  1  0
  7 12  1  0
  8  9  1  0
  9 10  2  3
  9 13  1  0
 10 14  1  0
 10 15  1  0
M  RAD  1   8   2
M  END
>  <reaction>  (4) 
rxn_1837

>  <mol_properties>  (4) 
{"0": {"label": "*1", "atom_type": "Cs"}, "1": {"label": "*0", "atom_type": "S2s"}, "2": {"label": "*2", "atom_type": "H0"}, "7": {"label": "*3", "atom_type": "Cd"}, "8": {"label": "*4", "atom_type": "Cd"}}

>  <type>  (4) 
ts

$$$$

     RDKit          3D

 15 13  0  0  0  0  0  0  0  0999 V2000
    0.2891   -1.3868   -0.1528 C   0  0  0  0  0  3  0  0  0  0  0  0
    0.2891   -1.3868   -1.9635 S   0  0  0  0  0  0  0  0  0  0  0  0
    0.2891   -0.1710    0.3229 H   0  0  0  0  0  0  0  0  0  0  0  0
   -0.6316   -1.8810    0.1531 H   0  0  0  0  0  0  0  0  0  0  0  0
    1.1334   -1.9468    0.2436 H   0  0  0  0  0  0  0  0  0  0  0  0
    1.4594   -0.7587   -2.1299 H   0  0  0  0  0  0  0  0  0  0  0  0
    1.5504    1.3659    1.0644 C   0  0  0  0  0  0  0  0  0  0  0  0
    0.2891    1.0433    0.7981 C   0  0  0  0  0  0  0  0  0  0  0  0
   -0.8412    1.4083    1.6417 C   0  0  0  0  0  0  0  0  0  0  0  0
   -2.1026    1.0858    1.3755 C   0  0  0  0  0  0  0  0  0  0  0  0
    2.3609    1.0739    0.4095 H   0  0  0  0  0  0  0  0  0  0  0  0
    1.8117    1.9346    1.9500 H   0  0  0  0  0  0  0  0  0  0  0  0
   -0.6108    1.9790    2.5373 H   0  0  0  0  0  0  0  0  0  0  0  0
   -2.9130    1.3777    2.0304 H   0  0  0  0  0  0  0  0  0  0  0  0
   -2.3638    0.5171    0.4898 H   0  0  0  0  0  0  0  0  0  0  0  0
  1  2  1  0
  1  4  1  0
  1  5  1  0
  2  6  1  0
  3  8  1  0
  7  8  2  3
  7 11  1  0
  7 12  1  0
  8  9  1  0
  9 10  2  3
  9 13  1  0
 10 14  1  0
 10 15  1  0
M  RAD  1   1   2
M  END
>  <reaction>  (5) 
rxn_1837

>  <mol_properties>  (5) 
{"0": {"label": "*1", "atom_type": "Cs"}, "1": {"label": "*0", "atom_type": "S2s"}, "2": {"label": "*2", "atom_type": "H0"}, "7": {"label": "*3", "atom_type": "Cd"}, "8": {"label": "*4", "atom_type": "Cd"}}

>  <type>  (5) 
unop_1

>  <geom_source>  (5) 
Heuristics

$$$$

     RDKit          3D

 15 13  0  0  0  0  0  0  0  0999 V2000
    0.1663   -1.5641    0.2951 C   0  0  0  0  0  3  0  0  0  0  0  0
    0.1663   -1.5641   -1.5155 S   0  0  0  0  0  0  0  0  0  0  0  0
    0.1663   -0.3483    0.7709 H   0  0  0  0  0  0  0  0  0  0  0  0
   -0.7544   -2.0583    0.6011 H   0  0  0  0  0  0  0  0  0  0  0  0
    1.0107   -2.1241    0.6916 H   0  0  0  0  0  0  0  0  0  0  0  0
    1.3366   -0.9360   -1.6819 H   0  0  0  0  0  0  0  0  0  0  0  0
    0.4400    1.0142    2.5380 C   0  0  0  0  0  0  0  0  0  0  0  0
    0.1663    0.8661    1.2461 C   0  0  0  0  0  0  0  0  0  0  0  0
   -0.4863    1.8807    0.4294 C   0  0  0  0  0  0  0  0  0  0  0  0
   -0.7600    1.7326   -0.8625 C   0  0  0  0  0  0  0  0  0  0  0  0
    0.9268    0.2336    3.1078 H   0  0  0  0  0  0  0  0  0  0  0  0
    0.1841    1.9255    3.0673 H   0  0  0  0  0  0  0  0  0  0  0  0
   -0.7551    2.8058    0.9322 H   0  0  0  0  0  0  0  0  0  0  0  0
   -1.2467    2.5132   -1.4323 H   0  0  0  0  0  0  0  0  0  0  0  0
   -0.5041    0.8213   -1.3918 H   0  0  0  0  0  0  0  0  0  0  0  0
  1  2  1  0
  1  4  1  0
  1  5  1  0
  2  6  1  0
  3  8  1  0
  7  8  2  3
  7 11  1  0
  7 12  1  0
  8  9  1  0
  9 10  2  3
  9 13  1  0
 10 14  1  0
 10 15  1  0
M  RAD  1   1   2
M  END
>  <reaction>  (6) 
rxn_1837

>  <mol_properties>  (6) 
{"0": {"label": "*1", "atom_type": "Cs"}, "1": {"label": "*0", "atom_type": "S2s"}, "2": {"label": "*2", "atom_type": "H0"}, "7": {"label": "*3", "atom_type": "Cd"}, "8": {"label": "*4", "atom_type": "Cd"}}

>  <type>  (6) 
unop_2

>  <geom_source>  (6) 
Heuristics

$$$$

     RDKit          3D

 15 13  0  0  0  0  0  0  0  0999 V2000
    0.1594   -1.3422   -0.2693 C   0  0  0  0  0  3  0  0  0  0  0  0
    0.1594   -1.3422   -2.0800 S   0  0  0  0  0  0  0  0  0  0  0  0
    0.1594   -0.1264    0.2065 H   0  0  0  0  0  0  0  0  0  0  0  0
   -0.7612   -1.8364    0.0366 H   0  0  0  0  0  0  0  0  0  0  0  0
    1.0038   -1.9022    0.1272 H   0  0  0  0  0  0  0  0  0  0  0  0
    1.3297   -0.7141   -2.2463 H   0  0  0  0  0  0  0  0  0  0  0  0
    1.2119    1.7872    0.2703 C   0  0  0  0  0  0  0  0  0  0  0  0
    0.1594    1.0879    0.6817 C   0  0  0  0  0  0  0  0  0  0  0  0
   -0.4931    1.2788    1.9701 C   0  0  0  0  0  0  0  0  0  0  0  0
   -1.5456    0.5795    2.3815 C   0  0  0  0  0  0  0  0  0  0  0  0
    1.6663    1.6126   -0.6961 H   0  0  0  0  0  0  0  0  0  0  0  0
    1.6529    2.5595    0.8909 H   0  0  0  0  0  0  0  0  0  0  0  0
   -0.0735    2.0463    2.6148 H   0  0  0  0  0  0  0  0  0  0  0  0
   -2.0001    0.7542    3.3479 H   0  0  0  0  0  0  0  0  0  0  0  0
   -1.9866   -0.1927    1.7608 H   0  0  0  0  0  0  0  0  0  0  0  0
  1  2  1  0
  1  4  1  0
  1  5  1  0
  2  6  1  0
  3  8  1  0
  7  8  2  3
  7 11  1  0
  7 12  1  0
  8  9  1  0
  9 10  2  3
  9 13  1  0
 10 14  1  0
 10 15  1  0
M  RAD  1   1   2
M  END
>  <reaction>  (7) 
rxn_1837

>  <mol_properties>  (7) 
{"0": {"label": "*1", "atom_type": "Cs"}, "1": {"label": "*0", "atom_type": "S2s"}, "2": {"label": "*2", "atom_type": "H0"}, "7": {"label": "*3", "atom_type": "Cd"}, "8": {"label": "*4", "atom_type": "Cd"}}

>  <type>  (7) 
unop_3

>  <geom_source>  (7) 
Heuristics

$$$$

     RDKit          3D

 15 13  0  0  0  0  0  0  0  0999 V2000
   -0.3163   -1.5157    0.1738 C   0  0  0  0  0  3  0  0  0  0  0  0
   -0.3163   -1.5157   -1.6368 S   0  0  0  0  0  0  0  0  0  0  0  0
   -0.3163   -0.2999    0.6496 H   0  0  0  0  0  0  0  0  0  0  0  0
   -1.2370   -2.0098    0.4798 H   0  0  0  0  0  0  0  0  0  0  0  0
    0.5280   -2.0757    0.5703 H   0  0  0  0  0  0  0  0  0  0  0  0
    0.8540   -0.8876   -1.8032 H   0  0  0  0  0  0  0  0  0  0  0  0
   -0.9619    1.0058    2.2828 C   0  0  0  0  0  0  0  0  0  0  0  0
   -0.3163    0.9145    1.1248 C   0  0  0  0  0  0  0  0  0  0  0  0
    0.8140    1.7550    0.7530 C   0  0  0  0  0  0  0  0  0  0  0  0
    1.4595    1.6637   -0.4050 C   0  0  0  0  0  0  0  0  0  0  0  0
   -1.7978    0.3605    2.5186 H   0  0  0  0  0  0  0  0  0  0  0  0
   -0.6721    1.7327    3.0336 H   0  0  0  0  0  0  0  0  0  0  0  0
    1.1279    2.4937    1.4856 H   0  0  0  0  0  0  0  0  0  0  0  0
    2.2955    2.3090   -0.6408 H   0  0  0  0  0  0  0  0  0  0  0  0
    1.1697    0.9368   -1.1558 H   0  0  0  0  0  0  0  0  0  0  0  0
  1  2  1  0
  1  4  1  0
  1  5  1  0
  2  6  1  0
  3  8  1  0
  7  8  2  3
  7 11  1  0
  7 12  1  0
  8  9  1  0
  9 10  2  3
  9 13  1  0
 10 14  1  0
 10 15  1  0
M  RAD  1   1   2
M  END
>  <reaction>  (8) 
rxn_1837

>  <mol_properties>  (8) 
{"0": {"label": "*1", "atom_type": "Cs"}, "1": {"label": "*0", "atom_type": "S2s"}, "2": {"label": "*2", "atom_type": "H0"}, "7": {"label": "*3", "atom_type": "Cd"}, "8": {"label": "*4", "atom_type": "Cd"}}

>  <type>  (8) 
unop_4

>  <geom_source>  (8) 
Heuristics

$$$$

     RDKit          3D

 15 13  0  0  0  0  0  0  0  0999 V2000
   -0.0109   -1.3276   -0.3104 C   0  0  0  0  0  3  0  0  0  0  0  0
   -0.0109   -1.3276   -2.1210 S   0  0  0  0  0  0  0  0  0  0  0  0
   -0.0109   -0.1118    0.1654 H   0  0  0  0  0  0  0  0  0  0  0  0
   -0.9316   -1.8218   -0.0044 H   0  0  0  0  0  0  0  0  0  0  0  0
    0.8335   -1.8876    0.0861 H   0  0  0  0  0  0  0  0  0  0  0  0
    1.1594   -0.6995   -2.2874 H   0  0  0  0  0  0  0  0  0  0  0  0
   -0.0109    2.1347   -0.1964 C   0  0  0  0  0  0  0  0  0  0  0  0
   -0.0109    1.1025    0.6406 C   0  0  0  0  0  0  0  0  0  0  0  0
   -0.0109    1.2297    2.0919 C   0  0  0  0  0  0  0  0  0  0  0  0
   -0.0109    0.1975    2.9288 C   0  0  0  0  0  0  0  0  0  0  0  0
   -0.0109    1.9949   -1.2694 H   0  0  0  0  0  0  0  0  0  0  0  0
   -0.0109    3.1560    0.1685 H   0  0  0  0  0  0  0  0  0  0  0  0
   -0.0109    2.2416    2.4879 H   0  0  0  0  0  0  0  0  0  0  0  0
   -0.0109    0.3373    4.0018 H   0  0  0  0  0  0  0  0  0  0  0  0
   -0.0109   -0.8238    2.5640 H   0  0  0  0  0  0  0  0  0  0  0  0
  1  2  1  0
  1  4  1  0
  1  5  1  0
  2  6  1  0
  3  8  1  0
  7  8  2  3
  7 11  1  0
  7 12  1  0
  8  9  1  0
  9 10  2  3
  9 13  1  0
 10 14  1  0
 10 15  1  0
M  RAD  1   1   2
M  END
>  <reaction>  (9) 
rxn_1837

>  <mol_properties>  (9) 
{"0": {"label": "*1", "atom_type": "Cs"}, "1": {"label": "*0", "atom_type": "S2s"}, "2": {"label": "*2", "atom_type": "H0"}, "7": {"label": "*3", "atom_type": "Cd"}, "8": {"label": "*4", "atom_type": "Cd"}}

>  <type>  (9) 
unop_5

>  <geom_source>  (9) 
Heuristics

$$$$

     RDKit          3D

 15 13  0  0  0  0  0  0  0  0999 V2000
   -0.3610   -1.4506    0.0096 C   0  0  0  0  0  3  0  0  0  0  0  0
   -0.3610   -1.4506   -1.8011 S   0  0  0  0  0  0  0  0  0  0  0  0
   -0.3610   -0.2347    0.4853 H   0  0  0  0  0  0  0  0  0  0  0  0
   -1.2817   -1.9447    0.3155 H   0  0  0  0  0  0  0  0  0  0  0  0
    0.4834   -2.0106    0.4060 H   0  0  0  0  0  0  0  0  0  0  0  0
    0.8093   -0.8224   -1.9675 H   0  0  0  0  0  0  0  0  0  0  0  0
   -1.3990    1.1089    1.7802 C   0  0  0  0  0  0  0  0  0  0  0  0
   -0.3610    0.9796    0.9605 C   0  0  0  0  0  0  0  0  0  0  0  0
    0.9441    1.5824    1.1964 C   0  0  0  0  0  0  0  0  0  0  0  0
    1.9821    1.4530    0.3767 C   0  0  0  0  0  0  0  0  0  0  0  0
   -2.3521    0.6435    1.5662 H   0  0  0  0  0  0  0  0  0  0  0  0
   -1.3261    1.6872    2.6947 H   0  0  0  0  0  0  0  0  0  0  0  0
    1.0481    2.1684    2.1056 H   0  0  0  0  0  0  0  0  0  0  0  0
    2.9353    1.9185    0.5908 H   0  0  0  0  0  0  0  0  0  0  0  0
    1.9093    0.8747   -0.5378 H   0  0  0  0  0  0  0  0  0  0  0  0
  1  2  1  0
  1  4  1  0
  1  5  1  0
  2  6  1  0
  3  8  1  0
  7  8  2  3
  7 11  1  0
  7 12  1  0
  8  9  1  0
  9 10  2  3
  9 13  1  0
 10 14  1  0
 10 15  1  0
M  RAD  1   1   2
M  END
>  <reaction>  (10) 
rxn_1837

>  <mol_properties>  (10) 
{"0": {"label": "*1", "atom_type": "Cs"}, "1": {"label": "*0", "atom_type": "S2s"}, "2": {"label": "*2", "atom_type": "H0"}, "7": {"label": "*3", "atom_type": "Cd"}, "8": {"label": "*4", "atom_type": "Cd"}}

>  <type>  (10) 
unop_6

>  <geom_source>  (10) 
Heuristics

$$$$

     RDKit          3D

 15 13  0  0  0  0  0  0  0  0999 V2000
   -0.3109   -1.3868   -0.1528 C   0  0  0  0  0  3  0  0  0  0  0  0
   -0.3109   -1.3868   -1.9635 S   0  0  0  0  0  0  0  0  0  0  0  0
   -0.3109   -0.1710    0.3229 H   0  0  0  0  0  0  0  0  0  0  0  0
   -1.2316   -1.8810    0.1531 H   0  0  0  0  0  0  0  0  0  0  0  0
    0.5335   -1.9468    0.2436 H   0  0  0  0  0  0  0  0  0  0  0  0
    0.8594   -0.7587   -2.1299 H   0  0  0  0  0  0  0  0  0  0  0  0
   -1.5723    1.3659    1.0644 C   0  0  0  0  0  0  0  0  0  0  0  0
   -0.3109    1.0433    0.7981 C   0  0  0  0  0  0  0  0  0  0  0  0
    0.8194    1.4083    1.6417 C   0  0  0  0  0  0  0  0  0  0  0  0
    2.0807    1.0858    1.3755 C   0  0  0  0  0  0  0  0  0  0  0  0
   -2.3827    1.0739    0.4095 H   0  0  0  0  0  0  0  0  0  0  0  0
   -1.8335    1.9346    1.9500 H   0  0  0  0  0  0  0  0  0  0  0  0
    0.5890    1.9790    2.5373 H   0  0  0  0  0  0  0  0  0  0  0  0
    2.8912    1.3777    2.0304 H   0  0  0  0  0  0  0  0  0  0  0  0
    2.3420    0.5171    0.4898 H   0  0  0  0  0  0  0  0  0  0  0  0
  1  2  1  0
  1  4  1  0
  1  5  1  0
  2  6  1  0
  3  8  1  0
  7  8  2  3
  7 11  1  0
  7 12  1  0
  8  9  1  0
  9 10  2  3
  9 13  1  0
 10 14  1  0
 10 15  1  0
M  RAD  1   1   2
M  END
>  <reaction>  (11) 
rxn_1837

>  <mol_properties>  (11) 
{"0": {"label": "*1", "atom_type": "Cs"}, "1": {"label": "*0", "atom_type": "S2s"}, "2": {"label": "*2", "atom_type": "H0"}, "7": {"label": "*3", "atom_type": "Cd"}, "8": {"label": "*4", "atom_type": "Cd"}}

>  <type>  (11) 
unop_7

>  <geom_source>  (11) 
Heuristics

$$$$

     RDKit          3D

 15 13  0  0  0  0  0  0  0  0999 V2000
    0.3392   -1.4506    0.0096 C   0  0  0  0  0  3  0  0  0  0  0  0
    0.3392   -1.4506   -1.8011 S   0  0  0  0  0  0  0  0  0  0  0  0
    0.3392   -0.2347    0.4853 H   0  0  0  0  0  0  0  0  0  0  0  0
   -0.5815   -1.9447    0.3155 H   0  0  0  0  0  0  0  0  0  0  0  0
    1.1835   -2.0106    0.4060 H   0  0  0  0  0  0  0  0  0  0  0  0
    1.5095   -0.8224   -1.9675 H   0  0  0  0  0  0  0  0  0  0  0  0
    1.3771    1.1089    1.7802 C   0  0  0  0  0  0  0  0  0  0  0  0
    0.3392    0.9796    0.9605 C   0  0  0  0  0  0  0  0  0  0  0  0
   -0.9660    1.5824    1.1964 C   0  0  0  0  0  0  0  0  0  0  0  0
   -2.0039    1.4530    0.3767 C   0  0  0  0  0  0  0  0  0  0  0  0
    2.3303    0.6435    1.5662 H   0  0  0  0  0  0  0  0  0  0  0  0
    1.3043    1.6872    2.6947 H   0  0  0  0  0  0  0  0  0  0  0  0
   -1.0699    2.1684    2.1056 H   0  0  0  0  0  0  0  0  0  0  0  0
   -2.9571    1.9185    0.5908 H   0  0  0  0  0  0  0  0  0  0  0  0
   -1.9311    0.8747   -0.5378 H   0  0  0  0  0  0  0  0  0  0  0  0
  1  2  1  0
  1  4  1  0
  1  5  1  0
  2  6  1  0
  3  8  1  0
  7  8  2  3
  7 11  1  0
  7 12  1  0
  8  9  1  0
  9 10  2  3
  9 13  1  0
 10 14  1  0
 10 15  1  0
M  RAD  1   1   2
M  END
>  <reaction>  (12) 
rxn_1837

>  <mol_properties>  (12) 
{"0": {"label": "*1", "atom_type": "Cs"}, "1": {"label": "*0", "atom_type": "S2s"}, "2": {"label": "*2", "atom_type": "H0"}, "7": {"label": "*3", "atom_type": "Cd"}, "8": {"label": "*4", "atom_type": "Cd"}}

>  <type>  (12) 
unop_8

>  <geom_source>  (12) 
Heuristics

$$$$

     RDKit          3D

 15 13  0  0  0  0  0  0  0  0999 V2000
   -0.1881   -1.5641    0.2951 C   0  0  0  0  0  3  0  0  0  0  0  0
   -0.1881   -1.5641   -1.5155 S   0  0  0  0  0  0  0  0  0  0  0  0
   -0.1881   -0.3483    0.7709 H   0  0  0  0  0  0  0  0  0  0  0  0
   -1.1088   -2.0583    0.6011 H   0  0  0  0  0  0  0  0  0  0  0  0
    0.6562   -2.1241    0.6916 H   0  0  0  0  0  0  0  0  0  0  0  0
    0.9822   -0.9360   -1.6819 H   0  0  0  0  0  0  0  0  0  0  0  0
   -0.4618    1.0142    2.5380 C   0  0  0  0  0  0  0  0  0  0  0  0
   -0.1881    0.8661    1.2461 C   0  0  0  0  0  0  0  0  0  0  0  0
    0.4645    1.8807    0.4294 C   0  0  0  0  0  0  0  0  0  0  0  0
    0.7382    1.7326   -0.8625 C   0  0  0  0  0  0  0  0  0  0  0  0
   -0.9486    0.2336    3.1078 H   0  0  0  0  0  0  0  0  0  0  0  0
   -0.2059    1.9255    3.0673 H   0  0  0  0  0  0  0  0  0  0  0  0
    0.7332    2.8058    0.9322 H   0  0  0  0  0  0  0  0  0  0  0  0
    1.2249    2.5132   -1.4323 H   0  0  0  0  0  0  0  0  0  0  0  0
    0.4823    0.8213   -1.3918 H   0  0  0  0  0  0  0  0  0  0  0  0
  1  2  1  0
  1  4  1  0
  1  5  1  0
  2  6  1  0
  3  8  1  0
  7  8  2  3
  7 11  1  0
  7 12  1  0
  8  9  1  0
  9 10  2  3
  9 13  1  0
 10 14  1  0
 10 15  1  0
M  RAD  1   1   2
M  END
>  <reaction>  (13) 
rxn_1837

>  <mol_properties>  (13) 
{"0": {"label": "*1", "atom_type": "Cs"}, "1": {"label": "*0", "atom_type": "S2s"}, "2": {"label": "*2", "atom_type": "H0"}, "7": {"label": "*3", "atom_type": "Cd"}, "8": {"label": "*4", "atom_type": "Cd"}}

>  <type>  (13) 
unop_9

>  <geom_source>  (13) 
Heuristics

$$$$

     RDKit          3D

 15 13  0  0  0  0  0  0  0  0999 V2000
    0.2945   -1.5157    0.1738 C   0  0  0  0  0  3  0  0  0  0  0  0
    0.2945   -1.5157   -1.6368 S   0  0  0  0  0  0  0  0  0  0  0  0
    0.2945   -0.2999    0.6496 H   0  0  0  0  0  0  0  0  0  0  0  0
   -0.6262   -2.0098    0.4798 H   0  0  0  0  0  0  0  0  0  0  0  0
    1.1389   -2.0757    0.5703 H   0  0  0  0  0  0  0  0  0  0  0  0
    1.4648   -0.8876   -1.8032 H   0  0  0  0  0  0  0  0  0  0  0  0
    0.9401    1.0058    2.2828 C   0  0  0  0  0  0  0  0  0  0  0  0
    0.2945    0.9145    1.1248 C   0  0  0  0  0  0  0  0  0  0  0  0
   -0.8358    1.7550    0.7530 C   0  0  0  0  0  0  0  0  0  0  0  0
   -1.4813    1.6637   -0.4050 C   0  0  0  0  0  0  0  0  0  0  0  0
    1.7760    0.3605    2.5186 H   0  0  0  0  0  0  0  0  0  0  0  0
    0.6503    1.7327    3.0336 H   0  0  0  0  0  0  0  0  0  0  0  0
   -1.1498    2.4937    1.4856 H   0  0  0  0  0  0  0  0  0  0  0  0
   -2.3173    2.3090   -0.6408 H   0  0  0  0  0  0  0  0  0  0  0  0
   -1.1915    0.9368   -1.1558 H   0  0  0  0  0  0  0  0  0  0  0  0
  1  2  1  0
  1  4  1  0
  1  5  1  0
  2  6  1  0
  3  8  1  0
  7  8  2  3
  7 11  1  0
  7 12  1  0
  8  9  1  0
  9 10  2  3
  9 13  1  0
 10 14  1  0
 10 15  1  0
M  RAD  1   1   2
M  END
>  <reaction>  (14) 
rxn_1837

>  <mol_properties>  (14) 
{"0": {"label": "*1", "atom_type": "Cs"}, "1": {"label": "*0", "atom_type": "S2s"}, "2": {"label": "*2", "atom_type": "H0"}, "7": {"label": "*3", "atom_type": "Cd"}, "8": {"label": "*4", "atom_type": "Cd"}}

>  <type>  (14) 
unop_10

>  <geom_source>  (14) 
Heuristics

$$$$

     RDKit          3D

 15 13  0  0  0  0  0  0  0  0999 V2000
   -0.1813   -1.3422   -0.2693 C   0  0  0  0  0  3  0  0  0  0  0  0
   -0.1813   -1.3422   -2.0800 S   0  0  0  0  0  0  0  0  0  0  0  0
   -0.1813   -0.1264    0.2065 H   0  0  0  0  0  0  0  0  0  0  0  0
   -1.1019   -1.8364    0.0366 H   0  0  0  0  0  0  0  0  0  0  0  0
    0.6631   -1.9022    0.1272 H   0  0  0  0  0  0  0  0  0  0  0  0
    0.9891   -0.7141   -2.2463 H   0  0  0  0  0  0  0  0  0  0  0  0
   -1.2337    1.7872    0.2703 C   0  0  0  0  0  0  0  0  0  0  0  0
   -0.1813    1.0879    0.6817 C   0  0  0  0  0  0  0  0  0  0  0  0
    0.4713    1.2788    1.9701 C   0  0  0  0  0  0  0  0  0  0  0  0
    1.5238    0.5795    2.3815 C   0  0  0  0  0  0  0  0  0  0  0  0
   -1.6882    1.6126   -0.6961 H   0  0  0  0  0  0  0  0  0  0  0  0
   -1.6747    2.5595    0.8909 H   0  0  0  0  0  0  0  0  0  0  0  0
    0.0517    2.0463    2.6148 H   0  0  0  0  0  0  0  0  0  0  0  0
    1.9782    0.7542    3.3479 H   0  0  0  0  0  0  0  0  0  0  0  0
    1.9647   -0.1927    1.7608 H   0  0  0  0  0  0  0  0  0  0  0  0
  1  2  1  0
  1  4  1  0
  1  5  1  0
  2  6  1  0
  3  8  1  0
  7  8  2  3
  7 11  1  0
  7 12  1  0
  8  9  1  0
  9 10  2  3
  9 13  1  0
 10 14  1  0
 10 15  1  0
M  RAD  1   1   2
M  END
>  <reaction>  (15) 
rxn_1837

>  <mol_properties>  (15) 
{"0": {"label": "*1", "atom_type": "Cs"}, "1": {"label": "*0", "atom_type": "S2s"}, "2": {"label": "*2", "atom_type": "H0"}, "7": {"label": "*3", "atom_type": "Cd"}, "8": {"label": "*4", "atom_type": "Cd"}}

>  <type>  (15) 
unop_11

>  <geom_source>  (15) 
Heuristics

$$$$

     RDKit          3D

 15 13  0  0  0  0  0  0  0  0999 V2000
   -0.0109   -1.5820    0.3397 C   0  0  0  0  0  3  0  0  0  0  0  0
   -0.0109   -1.5820   -1.4709 S   0  0  0  0  0  0  0  0  0  0  0  0
   -0.0109   -0.3662    0.8155 H   0  0  0  0  0  0  0  0  0  0  0  0
   -0.9316   -2.0762    0.6457 H   0  0  0  0  0  0  0  0  0  0  0  0
    0.8335   -2.1420    0.7362 H   0  0  0  0  0  0  0  0  0  0  0  0
    1.1594   -0.9539   -1.6373 H   0  0  0  0  0  0  0  0  0  0  0  0
   -0.0109    1.0381    2.6059 C   0  0  0  0  0  0  0  0  0  0  0  0
   -0.0109    0.8481    1.2907 C   0  0  0  0  0  0  0  0  0  0  0  0
   -0.0109    1.9265    0.3112 C   0  0  0  0  0  0  0  0  0  0  0  0
   -0.0109    1.7365   -1.0041 C   0  0  0  0  0  0  0  0  0  0  0  0
   -0.0109    0.2072    3.2991 H   0  0  0  0  0  0  0  0  0  0  0  0
   -0.0109    2.0358    3.0311 H   0  0  0  0  0  0  0  0  0  0  0  0
   -0.0109    2.9385    0.7072 H   0  0  0  0  0  0  0  0  0  0  0  0
   -0.0109    2.5675   -1.6972 H   0  0  0  0  0  0  0  0  0  0  0  0
   -0.0109    0.7389   -1.4292 H   0  0  0  0  0  0  0  0  0  0  0  0
  1  2  1  0
  1  4  1  0
  1  5  1  0
  2  6  1  0
  3  8  1  0
  7  8  2  3
  7 11  1  0
  7 12  1  0
  8  9  1  0
  9 10  2  3
  9 13  1  0
 10 14  1  0
 10 15  1  0
M  RAD  1   1   2
M  END
>  <reaction>  (16) 
rxn_1837

>  <mol_properties>  (16) 
{"0": {"label": "*1", "atom_type": "Cs"}, "1": {"label": "*0", "atom_type": "S2s"}, "2": {"label": "*2", "atom_type": "H0"}, "7": {"label": "*3", "atom_type": "Cd"}, "8": {"label": "*4", "atom_type": "Cd"}}

>  <type>  (16) 
unop_12

>  <geom_source>  (16) 
Heuristics

$$$$

     RDKit          3D

 15 13  0  0  0  0  0  0  0  0999 V2000
    2.5861    0.3163    1.0628 S   0  0  0  0  0  0  0  0  0  0  0  0
   -0.2961   -0.1037   -0.3655 C   0  0  0  0  0  0  0  0  0  0  0  0
   -0.8479    0.7862    0.6797 C   0  0  0  0  0  0  0  0  0  0  0  0
   -1.0202   -0.7566   -1.2754 C   0  0  0  0  0  0  0  0  0  0  0  0
   -2.1438    1.0538    0.8506 C   0  0  0  0  0  0  0  0  0  0  0  0
    2.0808   -1.0294   -0.0440 C   0  0  0  0  0  3  0  0  0  0  0  0
    0.9514   -0.2514   -0.3924 H   0  0  0  0  0  0  0  0  0  0  0  0
   -0.1397    1.2520    1.3532 H   0  0  0  0  0  0  0  0  0  0  0  0
   -0.5189   -1.3850   -1.9994 H   0  0  0  0  0  0  0  0  0  0  0  0
   -2.0965   -0.6882   -1.3263 H   0  0  0  0  0  0  0  0  0  0  0  0
   -2.4500    1.7201    1.6467 H   0  0  0  0  0  0  0  0  0  0  0  0
   -2.9154    0.6321    0.2243 H   0  0  0  0  0  0  0  0  0  0  0  0
    2.5052   -1.9870    0.3214 H   0  0  0  0  0  0  0  0  0  0  0  0
    2.4547   -0.8282   -1.0692 H   0  0  0  0  0  0  0  0  0  0  0  0
    1.8503    1.2690    0.3335 H   0  0  0  0  0  0  0  0  0  0  0  0
  1  6  1  0
  1 15  1  0
  2  4  2  3
  2  3  1  0
  2  7  1  0
  3  5  2  3
  3  8  1  0
  4  9  1  0
  4 10  1  0
  5 11  1  0
  5 12  1  0
  6 13  1  0
  6 14  1  0
M  RAD  1   6   2
M  END
>  <reaction>  (17) 
rxn_1837

>  <mol_properties>  (17) 
{"0": {"label": "*1", "atom_type": "Cs"}, "1": {"label": "*0", "atom_type": "S2s"}, "2": {"label": "*2", "atom_type": "H0"}, "7": {"label": "*3", "atom_type": "Cd"}, "8": {"label": "*4", "atom_type": "Cd"}}

>  <type>  (17) 
unop_13

>  <geom_source>  (17) 
AutoTST

$$$$
