
     RDKit          3D

 12 11  0  0  0  0  0  0  0  0999 V2000
    2.1696    0.6854    1.1310 C   0  0  0  0  0  0  0  0  0  0  0  0
    1.2518    0.4145    0.4134 C   0  0  0  0  0  0  0  0  0  0  0  0
    0.1391    0.0443   -0.4683 C   0  0  0  0  0  0  0  0  0  0  0  0
   -0.2054   -1.4492   -0.3339 C   0  0  0  0  0  0  0  0  0  0  0  0
   -1.0375    0.8853   -0.2222 C   0  0  0  0  0  0  0  0  0  0  0  0
   -2.0160    1.5463   -0.0311 C   0  0  0  0  0  0  0  0  0  0  0  0
    2.9819    0.9356    1.7702 H   0  0  0  0  0  0  0  0  0  0  0  0
    0.4629    0.2285   -1.4981 H   0  0  0  0  0  0  0  0  0  0  0  0
   -0.5327   -1.6703    0.6812 H   0  0  0  0  0  0  0  0  0  0  0  0
    0.6727   -2.0535   -0.5593 H   0  0  0  0  0  0  0  0  0  0  0  0
   -1.0064   -1.7081   -1.0256 H   0  0  0  0  0  0  0  0  0  0  0  0
   -2.8802    2.1413    0.1426 H   0  0  0  0  0  0  0  0  0  0  0  0
  1  2  3  0
  1  7  1  0
  2  3  1  0
  3  4  1  0
  3  5  1  0
  3  8  1  0
  4  9  1  0
  4 10  1  0
  4 11  1  0
  5  6  3  0
  6 12  1  0
M  END
>  <reaction>  (1) 
rxn_1405

>  <mol_properties>  (1) 
{"2": {"label": "donator", "atom_type": "Cs"}, "7": {"label": "d_hydrogen", "atom_type": "H0"}}

>  <type>  (1) 
r1h

$$$$

     RDKit          3D

 20 20  0  0  0  0  0  0  0  0999 V2000
   -2.4774    0.8083    0.1488 C   0  0  0  0  0  0  0  0  0  0  0  0
   -1.4172   -0.1696   -0.2476 C   0  0  0  0  0  3  0  0  0  0  0  0
   -0.2904    0.2932   -1.1156 C   0  0  0  0  0  0  0  0  0  0  0  0
   -1.4797   -1.5204    0.1947 C   0  0  0  0  0  0  0  0  0  0  0  0
   -0.4907   -2.4664   -0.1650 C   0  0  0  0  0  0  0  0  0  0  0  0
   -0.5559   -3.7750    0.2665 C   0  0  0  0  0  0  0  0  0  0  0  0
   -1.6038   -4.2041    1.0733 C   0  0  0  0  0  0  0  0  0  0  0  0
   -2.5899   -3.2959    1.4424 C   0  0  0  0  0  0  0  0  0  0  0  0
   -2.5339   -1.9852    1.0162 C   0  0  0  0  0  0  0  0  0  0  0  0
   -3.4697    0.4933   -0.1924 H   0  0  0  0  0  0  0  0  0  0  0  0
   -2.5434    0.9184    1.2368 H   0  0  0  0  0  0  0  0  0  0  0  0
   -2.2829    1.7944   -0.2706 H   0  0  0  0  0  0  0  0  0  0  0  0
   -0.2452   -0.2661   -2.0565 H   0  0  0  0  0  0  0  0  0  0  0  0
   -0.3905    1.3487   -1.3647 H   0  0  0  0  0  0  0  0  0  0  0  0
    0.6811    0.1589   -0.6274 H   0  0  0  0  0  0  0  0  0  0  0  0
    0.3373   -2.1635   -0.7918 H   0  0  0  0  0  0  0  0  0  0  0  0
    0.2187   -4.4725   -0.0281 H   0  0  0  0  0  0  0  0  0  0  0  0
   -1.6513   -5.2316    1.4097 H   0  0  0  0  0  0  0  0  0  0  0  0
   -3.4116   -3.6175    2.0706 H   0  0  0  0  0  0  0  0  0  0  0  0
   -3.3164   -1.3029    1.3205 H   0  0  0  0  0  0  0  0  0  0  0  0
  1  2  1  0
  1 10  1  0
  1 11  1  0
  1 12  1  0
  2  3  1  0
  2  4  1  0
  3 13  1  0
  3 14  1  0
  3 15  1  0
  4  5  2  0
  4  9  1  0
  5  6  1  0
  5 16  1  0
  6  7  2  0
  6 17  1  0
  7  8  1  0
  7 18  1  0
  8  9  2  0
  8 19  1  0
  9 20  1  0
M  RAD  1   2   2
M  END
>  <reaction>  (2) 
rxn_1405

>  <mol_properties>  (2) 
{"1": {"label": "acceptor", "atom_type": "Cs"}}

>  <type>  (2) 
r2

$$$$

     RDKit          3D

 21 21  0  0  0  0  0  0  0  0999 V2000
   -1.3695    1.3367   -1.0719 C   0  0  0  0  0  0  0  0  0  0  0  0
   -1.4091   -0.0981   -0.5428 C   0  0  0  0  0  0  0  0  0  0  0  0
   -0.1819   -0.3999    0.3191 C   0  0  0  0  0  0  0  0  0  0  0  0
   -1.5636   -1.1028   -1.6652 C   0  0  0  0  0  0  0  0  0  0  0  0
   -0.5920   -1.2314   -2.6553 C   0  0  0  0  0  0  0  0  0  0  0  0
   -0.7353   -2.1509   -3.6809 C   0  0  0  0  0  0  0  0  0  0  0  0
   -1.8582   -2.9642   -3.7377 C   0  0  0  0  0  0  0  0  0  0  0  0
   -2.8325   -2.8475   -2.7602 C   0  0  0  0  0  0  0  0  0  0  0  0
   -2.6828   -1.9241   -1.7351 C   0  0  0  0  0  0  0  0  0  0  0  0
   -0.4920    1.4974   -1.7025 H   0  0  0  0  0  0  0  0  0  0  0  0
   -2.2553    1.5607   -1.6679 H   0  0  0  0  0  0  0  0  0  0  0  0
   -1.3211    2.0496   -0.2461 H   0  0  0  0  0  0  0  0  0  0  0  0
   -2.2930   -0.1918    0.0948 H   0  0  0  0  0  0  0  0  0  0  0  0
   -0.1215    0.2955    1.1588 H   0  0  0  0  0  0  0  0  0  0  0  0
   -0.2200   -1.4155    0.7159 H   0  0  0  0  0  0  0  0  0  0  0  0
    0.7383   -0.3016   -0.2615 H   0  0  0  0  0  0  0  0  0  0  0  0
    0.2915   -0.6040   -2.6263 H   0  0  0  0  0  0  0  0  0  0  0  0
    0.0326   -2.2338   -4.4401 H   0  0  0  0  0  0  0  0  0  0  0  0
   -1.9712   -3.6833   -4.5391 H   0  0  0  0  0  0  0  0  0  0  0  0
   -3.7135   -3.4765   -2.7932 H   0  0  0  0  0  0  0  0  0  0  0  0
   -3.4509   -1.8400   -0.9743 H   0  0  0  0  0  0  0  0  0  0  0  0
  1  2  1  0
  1 10  1  0
  1 11  1  0
  1 12  1  0
  2  3  1  0
  2  4  1  0
  2 13  1  0
  3 14  1  0
  3 15  1  0
  3 16  1  0
  4  5  2  0
  4  9  1  0
  5  6  1  0
  5 17  1  0
  6  7  2  0
  6 18  1  0
  7  8  1  0
  7 19  1  0
  8  9  2  0
  8 20  1  0
  9 21  1  0
M  END
>  <reaction>  (3) 
rxn_1405

>  <mol_properties>  (3) 
{"0": {"label": "a_hydrogen", "atom_type": "H0"}, "2": {"label": "acceptor", "atom_type": "Cs"}}

>  <type>  (3) 
r2h

$$$$

     RDKit          3D

 32 31  0  0  0  0  0  0  0  0999 V2000
   -2.4304   -0.6399   -2.2435 C   0  0  0  0  0  0  0  0  0  0  0  0
   -2.2755   -0.1847   -1.1432 C   0  0  0  0  0  0  0  0  0  0  0  0
   -2.0220    0.3525    0.1653 C   0  0  0  0  0  0  0  0  0  0  0  0
   -1.6126    1.8189    0.1969 C   0  0  0  0  0  0  0  0  0  0  0  0
   -2.9631   -0.0491    1.1749 C   0  0  0  0  0  0  0  0  0  0  0  0
   -3.7037   -0.3884    2.0569 C   0  0  0  0  0  0  0  0  0  0  0  0
   -2.5922   -1.0366   -3.2166 H   0  0  0  0  0  0  0  0  0  0  0  0
   -0.8936   -0.2456    0.5334 H   0  0  0  0  0  0  0  0  0  0  0  0
   -2.4450    2.4608   -0.0967 H   0  0  0  0  0  0  0  0  0  0  0  0
   -0.7806    1.9859   -0.4871 H   0  0  0  0  0  0  0  0  0  0  0  0
   -1.2997    2.0949    1.2039 H   0  0  0  0  0  0  0  0  0  0  0  0
   -4.3765   -0.6843    2.8251 H   0  0  0  0  0  0  0  0  0  0  0  0
    0.2104   -0.6919    2.4258 C   0  0  0  0  0  0  0  0  0  0  0  0
    0.2735   -0.8442    0.9267 C   0  0  0  0  0  3  0  0  0  0  0  0
    0.0207   -2.2563    0.4526 C   0  0  0  0  0  0  0  0  0  0  0  0
    1.2854   -0.0503    0.1968 C   0  0  0  0  0  0  0  0  0  0  0  0
    2.1719    0.8052    0.8587 C   0  0  0  0  0  0  0  0  0  0  0  0
    3.0774    1.5840    0.1567 C   0  0  0  0  0  0  0  0  0  0  0  0
    3.1161    1.5392   -1.2277 C   0  0  0  0  0  0  0  0  0  0  0  0
    2.2398    0.7011   -1.9032 C   0  0  0  0  0  0  0  0  0  0  0  0
    1.3417   -0.0829   -1.2030 C   0  0  0  0  0  0  0  0  0  0  0  0
    0.1518    0.3537    2.7315 H   0  0  0  0  0  0  0  0  0  0  0  0
   -0.6717   -1.2001    2.8159 H   0  0  0  0  0  0  0  0  0  0  0  0
    1.0910   -1.1341    2.9053 H   0  0  0  0  0  0  0  0  0  0  0  0
    0.8489   -2.9092    0.7486 H   0  0  0  0  0  0  0  0  0  0  0  0
   -0.8937   -2.6479    0.9021 H   0  0  0  0  0  0  0  0  0  0  0  0
   -0.0879   -2.3230   -0.6285 H   0  0  0  0  0  0  0  0  0  0  0  0
    2.1661    0.8578    1.9390 H   0  0  0  0  0  0  0  0  0  0  0  0
    3.7576    2.2302    0.6977 H   0  0  0  0  0  0  0  0  0  0  0  0
    3.8207    2.1513   -1.7761 H   0  0  0  0  0  0  0  0  0  0  0  0
    2.2533    0.6610   -2.9853 H   0  0  0  0  0  0  0  0  0  0  0  0
    0.6509   -0.7087   -1.7525 H   0  0  0  0  0  0  0  0  0  0  0  0
  1  2  3  0
  1  7  1  0
  2  3  1  0
  3  4  1  0
  3  5  1  0
  3  8  1  0
  4  9  1  0
  4 10  1  0
  4 11  1  0
  5  6  3  0
  6 12  1  0
 13 14  1  0
 13 22  1  0
 13 23  1  0
 13 24  1  0
 14 15  1  0
 14 16  1  0
 15 25  1  0
 15 26  1  0
 15 27  1  0
 16 17  2  0
 16 21  1  0
 17 18  1  0
 17 28  1  0
 18 19  2  0
 18 29  1  0
 19 20  1  0
 19 30  1  0
 20 21  2  0
 20 31  1  0
 21 32  1  0
M  RAD  1  14   2
M  END
>  <reaction>  (4) 
rxn_1405

>  <mol_properties>  (4) 
{"1": {"label": "*0", "atom_type": "Ct"}, "2": {"label": "*1", "atom_type": "Cs"}, "7": {"label": "*2", "atom_type": "H0"}, "13": {"label": "*3", "atom_type": "Cs"}, "15": {"label": "*4", "atom_type": "Cd"}}

>  <type>  (4) 
ts

$$$$

     RDKit          3D

 32 31  0  0  0  0  0  0  0  0999 V2000
   -2.2808    0.5172   -2.6942 C   0  0  0  0  0  0  0  0  0  0  0  0
   -2.2808    0.5172   -1.4981 C   0  0  0  0  0  0  0  0  0  0  0  0
   -2.2808    0.5572   -0.0315 C   0  0  0  0  0  3  0  0  0  0  0  0
   -2.9188    1.8565    0.4905 C   0  0  0  0  0  0  0  0  0  0  0  0
   -2.9427   -0.6240    0.5333 C   0  0  0  0  0  0  0  0  0  0  0  0
   -3.4909   -1.5693    1.0198 C   0  0  0  0  0  0  0  0  0  0  0  0
   -2.2808    0.5172   -3.7577 H   0  0  0  0  0  0  0  0  0  0  0  0
   -1.0272    0.5300    0.3616 H   0  0  0  0  0  0  0  0  0  0  0  0
   -3.9621    1.9137    0.1827 H   0  0  0  0  0  0  0  0  0  0  0  0
   -2.3862    2.7179    0.0888 H   0  0  0  0  0  0  0  0  0  0  0  0
   -2.8717    1.8809    1.5787 H   0  0  0  0  0  0  0  0  0  0  0  0
   -3.9783   -2.4097    1.4523 H   0  0  0  0  0  0  0  0  0  0  0  0
    0.4879    1.7802    1.5538 C   0  0  0  0  0  0  0  0  0  0  0  0
    0.2251    0.5028    0.7544 C   0  0  0  0  0  0  0  0  0  0  0  0
   -0.5027   -0.5386    1.6063 C   0  0  0  0  0  0  0  0  0  0  0  0
    1.5007   -0.0557    0.1594 C   0  0  0  0  0  0  0  0  0  0  0  0
    2.5473   -0.4843    0.9730 C   0  0  0  0  0  0  0  0  0  0  0  0
    3.7131   -0.9948    0.4268 C   0  0  0  0  0  0  0  0  0  0  0  0
    3.8568   -1.0874   -0.9503 C   0  0  0  0  0  0  0  0  0  0  0  0
    2.8247   -0.6650   -1.7717 C   0  0  0  0  0  0  0  0  0  0  0  0
    1.6591   -0.1545   -1.2180 C   0  0  0  0  0  0  0  0  0  0  0  0
    0.9865    2.5323    0.9407 H   0  0  0  0  0  0  0  0  0  0  0  0
   -0.4493    2.2027    1.9220 H   0  0  0  0  0  0  0  0  0  0  0  0
    1.1242    1.5773    2.4182 H   0  0  0  0  0  0  0  0  0  0  0  0
    0.0980   -0.8249    2.4727 H   0  0  0  0  0  0  0  0  0  0  0  0
   -1.4499   -0.1395    1.9751 H   0  0  0  0  0  0  0  0  0  0  0  0
   -0.7112   -1.4416    1.0307 H   0  0  0  0  0  0  0  0  0  0  0  0
    2.4518   -0.4191    2.0508 H   0  0  0  0  0  0  0  0  0  0  0  0
    4.5139   -1.3221    1.0784 H   0  0  0  0  0  0  0  0  0  0  0  0
    4.7678   -1.4862   -1.3782 H   0  0  0  0  0  0  0  0  0  0  0  0
    2.9246   -0.7321   -2.8479 H   0  0  0  0  0  0  0  0  0  0  0  0
    0.8565    0.1736   -1.8691 H   0  0  0  0  0  0  0  0  0  0  0  0
  1  2  3  0
  1  7  1  0
  2  3  1  0
  3  4  1  0
  3  5  1  0
  4  9  1  0
  4 10  1  0
  4 11  1  0
  5  6  3  0
  6 12  1  0
  8 14  1  0
 13 14  1  0
 13 22  1  0
 13 23  1  0
 13 24  1  0
 14 15  1  0
 14 16  1  0
 15 25  1  0
 15 26  1  0
 15 27  1  0
 16 17  2  0
 16 21  1  0
 17 18  1  0
 17 28  1  0
 18 19  2  0
 18 29  1  0
 19 20  1  0
 19 30  1  0
 20 21  2  0
 20 31  1  0
 21 32  1  0
M  RAD  1   3   2
M  END
>  <reaction>  (5) 
rxn_1405

>  <mol_properties>  (5) 
{"1": {"label": "*0", "atom_type": "Ct"}, "2": {"label": "*1", "atom_type": "Cs"}, "7": {"label": "*2", "atom_type": "H0"}, "13": {"label": "*3", "atom_type": "Cs"}, "15": {"label": "*4", "atom_type": "Cd"}}

>  <type>  (5) 
unop_1

>  <geom_source>  (5) 
Heuristics

$$$$

     RDKit          3D

 32 31  0  0  0  0  0  0  0  0999 V2000
   -1.8802    0.9560   -3.3945 C   0  0  0  0  0  0  0  0  0  0  0  0
   -1.8802    0.9560   -2.1984 C   0  0  0  0  0  0  0  0  0  0  0  0
   -1.8802    0.9961   -0.7318 C   0  0  0  0  0  3  0  0  0  0  0  0
   -2.5182    2.2953   -0.2098 C   0  0  0  0  0  0  0  0  0  0  0  0
   -2.5420   -0.1851   -0.1670 C   0  0  0  0  0  0  0  0  0  0  0  0
   -3.0903   -1.1304    0.3194 C   0  0  0  0  0  0  0  0  0  0  0  0
   -1.8802    0.9560   -4.4580 H   0  0  0  0  0  0  0  0  0  0  0  0
   -0.6266    0.9688   -0.3387 H   0  0  0  0  0  0  0  0  0  0  0  0
   -3.5615    2.3526   -0.5176 H   0  0  0  0  0  0  0  0  0  0  0  0
   -1.9856    3.1567   -0.6115 H   0  0  0  0  0  0  0  0  0  0  0  0
   -2.4710    2.3197    0.8784 H   0  0  0  0  0  0  0  0  0  0  0  0
   -3.5777   -1.9708    0.7520 H   0  0  0  0  0  0  0  0  0  0  0  0
    1.4665    1.6160   -1.0314 C   0  0  0  0  0  0  0  0  0  0  0  0
    0.6257    0.9416    0.0540 C   0  0  0  0  0  0  0  0  0  0  0  0
    0.3409    1.9059    1.2069 C   0  0  0  0  0  0  0  0  0  0  0  0
    1.2691   -0.3389    0.5434 C   0  0  0  0  0  0  0  0  0  0  0  0
    2.5144   -0.3260    1.1680 C   0  0  0  0  0  0  0  0  0  0  0  0
    3.1011   -1.4982    1.6148 C   0  0  0  0  0  0  0  0  0  0  0  0
    2.4515   -2.7127    1.4455 C   0  0  0  0  0  0  0  0  0  0  0  0
    1.2129   -2.7410    0.8263 C   0  0  0  0  0  0  0  0  0  0  0  0
    0.6306   -1.5627    0.3808 C   0  0  0  0  0  0  0  0  0  0  0  0
    1.6511    0.9366   -1.8648 H   0  0  0  0  0  0  0  0  0  0  0  0
    0.9579    2.5024   -1.4163 H   0  0  0  0  0  0  0  0  0  0  0  0
    2.4347    1.9326   -0.6367 H   0  0  0  0  0  0  0  0  0  0  0  0
    1.2686    2.2329    1.6822 H   0  0  0  0  0  0  0  0  0  0  0  0
   -0.1790    2.7952    0.8446 H   0  0  0  0  0  0  0  0  0  0  0  0
   -0.2778    1.4334    1.9712 H   0  0  0  0  0  0  0  0  0  0  0  0
    3.0357    0.6140    1.3084 H   0  0  0  0  0  0  0  0  0  0  0  0
    4.0699   -1.4646    2.0976 H   0  0  0  0  0  0  0  0  0  0  0  0
    2.9093   -3.6296    1.7944 H   0  0  0  0  0  0  0  0  0  0  0  0
    0.6958   -3.6824    0.6882 H   0  0  0  0  0  0  0  0  0  0  0  0
   -0.3394   -1.5948   -0.1028 H   0  0  0  0  0  0  0  0  0  0  0  0
  1  2  3  0
  1  7  1  0
  2  3  1  0
  3  4  1  0
  3  5  1  0
  4  9  1  0
  4 10  1  0
  4 11  1  0
  5  6  3  0
  6 12  1  0
  8 14  1  0
 13 14  1  0
 13 22  1  0
 13 23  1  0
 13 24  1  0
 14 15  1  0
 14 16  1  0
 15 25  1  0
 15 26  1  0
 15 27  1  0
 16 17  2  0
 16 21  1  0
 17 18  1  0
 17 28  1  0
 18 19  2  0
 18 29  1  0
 19 20  1  0
 19 30  1  0
 20 21  2  0
 20 31  1  0
 21 32  1  0
M  RAD  1   3   2
M  END
>  <reaction>  (6) 
rxn_1405

>  <mol_properties>  (6) 
{"1": {"label": "*0", "atom_type": "Ct"}, "2": {"label": "*1", "atom_type": "Cs"}, "7": {"label": "*2", "atom_type": "H0"}, "13": {"label": "*3", "atom_type": "Cs"}, "15": {"label": "*4", "atom_type": "Cd"}}

>  <type>  (6) 
unop_2

>  <geom_source>  (6) 
Heuristics

$$$$

     RDKit          3D

 32 31  0  0  0  0  0  0  0  0999 V2000
   -2.2706    0.0019   -2.4911 C   0  0  0  0  0  0  0  0  0  0  0  0
   -2.2706    0.0019   -1.2950 C   0  0  0  0  0  0  0  0  0  0  0  0
   -2.2706    0.0420    0.1716 C   0  0  0  0  0  3  0  0  0  0  0  0
   -2.9087    1.3412    0.6936 C   0  0  0  0  0  0  0  0  0  0  0  0
   -2.9325   -1.1392    0.7363 C   0  0  0  0  0  0  0  0  0  0  0  0
   -3.4807   -2.0845    1.2228 C   0  0  0  0  0  0  0  0  0  0  0  0
   -2.2706    0.0019   -3.5546 H   0  0  0  0  0  0  0  0  0  0  0  0
   -1.0171    0.0148    0.5647 H   0  0  0  0  0  0  0  0  0  0  0  0
   -3.9519    1.3985    0.3858 H   0  0  0  0  0  0  0  0  0  0  0  0
   -2.3761    2.2026    0.2919 H   0  0  0  0  0  0  0  0  0  0  0  0
   -2.8615    1.3657    1.7818 H   0  0  0  0  0  0  0  0  0  0  0  0
   -3.9681   -2.9249    1.6553 H   0  0  0  0  0  0  0  0  0  0  0  0
    0.3227    0.7506    2.2804 C   0  0  0  0  0  0  0  0  0  0  0  0
    0.2352   -0.0125    0.9574 C   0  0  0  0  0  0  0  0  0  0  0  0
   -0.0282   -1.5001    1.1975 C   0  0  0  0  0  0  0  0  0  0  0  0
    1.4675    0.2056    0.1048 C   0  0  0  0  0  0  0  0  0  0  0  0
    2.7265   -0.2008    0.5416 C   0  0  0  0  0  0  0  0  0  0  0  0
    3.8522   -0.0004   -0.2397 C   0  0  0  0  0  0  0  0  0  0  0  0
    3.7416    0.6133   -1.4793 C   0  0  0  0  0  0  0  0  0  0  0  0
    2.4964    1.0227   -1.9267 C   0  0  0  0  0  0  0  0  0  0  0  0
    1.3723    0.8189   -1.1389 C   0  0  0  0  0  0  0  0  0  0  0  0
    0.4878    1.8154    2.1101 H   0  0  0  0  0  0  0  0  0  0  0  0
   -0.5992    0.6327    2.8536 H   0  0  0  0  0  0  0  0  0  0  0  0
    1.1463    0.3779    2.8937 H   0  0  0  0  0  0  0  0  0  0  0  0
    0.7828   -1.9537    1.7719 H   0  0  0  0  0  0  0  0  0  0  0  0
   -0.9536   -1.6406    1.7598 H   0  0  0  0  0  0  0  0  0  0  0  0
   -0.1136   -2.0416    0.2543 H   0  0  0  0  0  0  0  0  0  0  0  0
    2.8311   -0.6818    1.5074 H   0  0  0  0  0  0  0  0  0  0  0  0
    4.8211   -0.3245    0.1199 H   0  0  0  0  0  0  0  0  0  0  0  0
    4.6210    0.7704   -2.0908 H   0  0  0  0  0  0  0  0  0  0  0  0
    2.3967    1.5028   -2.8923 H   0  0  0  0  0  0  0  0  0  0  0  0
    0.4016    1.1428   -1.4976 H   0  0  0  0  0  0  0  0  0  0  0  0
  1  2  3  0
  1  7  1  0
  2  3  1  0
  3  4  1  0
  3  5  1  0
  4  9  1  0
  4 10  1  0
  4 11  1  0
  5  6  3  0
  6 12  1  0
  8 14  1  0
 13 14  1  0
 13 22  1  0
 13 23  1  0
 13 24  1  0
 14 15  1  0
 14 16  1  0
 15 25  1  0
 15 26  1  0
 15 27  1  0
 16 17  2  0
 16 21  1  0
 17 18  1  0
 17 28  1  0
 18 19  2  0
 18 29  1  0
 19 20  1  0
 19 30  1  0
 20 21  2  0
 20 31  1  0
 21 32  1  0
M  RAD  1   3   2
M  END
>  <reaction>  (7) 
rxn_1405

>  <mol_properties>  (7) 
{"1": {"label": "*0", "atom_type": "Ct"}, "2": {"label": "*1", "atom_type": "Cs"}, "7": {"label": "*2", "atom_type": "H0"}, "13": {"label": "*3", "atom_type": "Cs"}, "15": {"label": "*4", "atom_type": "Cd"}}

>  <type>  (7) 
unop_3

>  <geom_source>  (7) 
Heuristics

$$$$

     RDKit          3D

 32 30  0  0  0  0  0  0  0  0999 V2000
   -0.9395    0.2874   -3.9889 C   0  0  0  0  0  3  0  0  0  0  0  0
   -0.9395    0.2874   -2.7927 C   0  0  0  0  0  0  0  0  0  0  0  0
   -0.9395    0.3275   -1.3262 C   0  0  0  0  0  3  0  0  0  0  0  0
   -1.5776    1.6267   -0.8042 C   0  0  0  0  0  3  0  0  0  0  0  0
   -1.6014   -0.8538   -0.7614 C   0  0  0  0  0  0  0  0  0  0  0  0
   -2.1496   -1.7991   -0.2749 C   0  0  0  0  0  0  0  0  0  0  0  0
   -0.9395    0.2874   -5.0524 H   0  0  0  0  0  0  0  0  0  0  0  0
    0.3141    0.3002   -0.9331 H   0  0  0  0  0  0  0  0  0  0  0  0
   -2.6208    1.6839   -1.1119 H   0  0  0  0  0  0  0  0  0  0  0  0
   -1.0449    2.4881   -1.2058 H   0  0  0  0  0  0  0  0  0  0  0  0
   -1.5304    1.6511    0.2840 H   0  0  0  0  0  0  0  0  0  0  0  0
   -2.6370   -2.6395    0.1576 H   0  0  0  0  0  0  0  0  0  0  0  0
    2.1877   -1.0237   -1.0625 C   0  0  0  0  0  0  0  0  0  0  0  0
    1.5663    0.2730   -0.5403 C   0  0  0  0  0  0  0  0  0  0  0  0
    2.6127    1.3849   -0.4469 C   0  0  0  0  0  0  0  0  0  0  0  0
    0.8586    0.0601    0.7814 C   0  0  0  0  0  0  0  0  0  0  0  0
    1.5572   -0.3526    1.9139 C   0  0  0  0  0  0  0  0  0  0  0  0
    0.9080   -0.5468    3.1217 C   0  0  0  0  0  0  0  0  0  0  0  0
   -0.4591   -0.3312    3.2222 C   0  0  0  0  0  0  0  0  0  0  0  0
   -1.1667    0.0793    2.1046 C   0  0  0  0  0  0  0  0  0  0  0  0
   -0.5102    0.2720    0.8972 C   0  0  0  0  0  0  0  0  0  0  0  0
    1.4379   -1.8112   -1.1513 H   0  0  0  0  0  0  0  0  0  0  0  0
    2.6386   -0.8656   -2.0444 H   0  0  0  0  0  0  0  0  0  0  0  0
    2.9708   -1.3812   -0.3900 H   0  0  0  0  0  0  0  0  0  0  0  0
    3.4111    1.1140    0.2478 H   0  0  0  0  0  0  0  0  0  0  0  0
    3.0678    1.5673   -1.4226 H   0  0  0  0  0  0  0  0  0  0  0  0
    2.1663    2.3167   -0.0963 H   0  0  0  0  0  0  0  0  0  0  0  0
    2.6256   -0.5257    1.8533 H   0  0  0  0  0  0  0  0  0  0  0  0
    1.4711   -0.8679    3.9894 H   0  0  0  0  0  0  0  0  0  0  0  0
   -0.9675   -0.4827    4.1659 H   0  0  0  0  0  0  0  0  0  0  0  0
   -2.2340    0.2509    2.1699 H   0  0  0  0  0  0  0  0  0  0  0  0
   -1.0726    0.5935    0.0277 H   0  0  0  0  0  0  0  0  0  0  0  0
  1  2  2  0
  1  7  1  0
  2  3  2  0
  3  5  1  0
  4  9  1  0
  4 10  1  0
  4 11  1  0
  5  6  3  0
  6 12  1  0
  8 14  1  0
 13 14  1  0
 13 22  1  0
 13 23  1  0
 13 24  1  0
 14 15  1  0
 14 16  1  0
 15 25  1  0
 15 26  1  0
 15 27  1  0
 16 17  2  0
 16 21  1  0
 17 18  1  0
 17 28  1  0
 18 19  2  0
 18 29  1  0
 19 20  1  0
 19 30  1  0
 20 21  2  0
 20 31  1  0
 21 32  1  0
M  CHG  2   1   1   3  -1
M  RAD  1   4   2
M  END
>  <reaction>  (8) 
rxn_1405

>  <mol_properties>  (8) 
{"1": {"label": "*0", "atom_type": "Ct"}, "2": {"label": "*1", "atom_type": "Cs"}, "7": {"label": "*2", "atom_type": "H0"}, "13": {"label": "*3", "atom_type": "Cs"}, "15": {"label": "*4", "atom_type": "Cd"}}

>  <type>  (8) 
unop_4

>  <geom_source>  (8) 
Heuristics

$$$$

     RDKit          3D

 32 31  0  0  0  0  0  0  0  0999 V2000
   -1.9117   -0.7162   -2.6441 C   0  0  0  0  0  0  0  0  0  0  0  0
   -1.9117   -0.7162   -1.4479 C   0  0  0  0  0  0  0  0  0  0  0  0
   -1.9117   -0.6761    0.0187 C   0  0  0  0  0  3  0  0  0  0  0  0
   -2.5497    0.6231    0.5407 C   0  0  0  0  0  0  0  0  0  0  0  0
   -2.5735   -1.8573    0.5834 C   0  0  0  0  0  0  0  0  0  0  0  0
   -3.1218   -2.8026    1.0699 C   0  0  0  0  0  0  0  0  0  0  0  0
   -1.9117   -0.7162   -3.7075 H   0  0  0  0  0  0  0  0  0  0  0  0
   -0.6581   -0.7033    0.4118 H   0  0  0  0  0  0  0  0  0  0  0  0
   -3.5930    0.6804    0.2329 H   0  0  0  0  0  0  0  0  0  0  0  0
   -2.0171    1.4846    0.1390 H   0  0  0  0  0  0  0  0  0  0  0  0
   -2.5025    0.6476    1.6289 H   0  0  0  0  0  0  0  0  0  0  0  0
   -3.6092   -3.6430    1.5024 H   0  0  0  0  0  0  0  0  0  0  0  0
    0.6013   -0.6890    2.3336 C   0  0  0  0  0  0  0  0  0  0  0  0
    0.5942   -0.7305    0.8045 C   0  0  0  0  0  0  0  0  0  0  0  0
    1.2139   -2.0299    0.2873 C   0  0  0  0  0  0  0  0  0  0  0  0
    1.2716    0.4863    0.2100 C   0  0  0  0  0  0  0  0  0  0  0  0
    2.6203    0.7457    0.4437 C   0  0  0  0  0  0  0  0  0  0  0  0
    3.2380    1.8591   -0.1010 C   0  0  0  0  0  0  0  0  0  0  0  0
    2.5164    2.7399   -0.8942 C   0  0  0  0  0  0  0  0  0  0  0  0
    1.1747    2.4948   -1.1352 C   0  0  0  0  0  0  0  0  0  0  0  0
    0.5617    1.3773   -0.5864 C   0  0  0  0  0  0  0  0  0  0  0  0
    0.1389    0.2270    2.7044 H   0  0  0  0  0  0  0  0  0  0  0  0
    0.0547   -1.5407    2.7438 H   0  0  0  0  0  0  0  0  0  0  0  0
    1.6216   -0.7299    2.7218 H   0  0  0  0  0  0  0  0  0  0  0  0
    2.2563   -2.1190    0.6018 H   0  0  0  0  0  0  0  0  0  0  0  0
    0.6734   -2.8951    0.6768 H   0  0  0  0  0  0  0  0  0  0  0  0
    1.1888   -2.0711   -0.8026 H   0  0  0  0  0  0  0  0  0  0  0  0
    3.1991    0.0681    1.0610 H   0  0  0  0  0  0  0  0  0  0  0  0
    4.2877    2.0411    0.0940 H   0  0  0  0  0  0  0  0  0  0  0  0
    2.9983    3.6105   -1.3204 H   0  0  0  0  0  0  0  0  0  0  0  0
    0.6005    3.1746   -1.7526 H   0  0  0  0  0  0  0  0  0  0  0  0
   -0.4891    1.1938   -0.7808 H   0  0  0  0  0  0  0  0  0  0  0  0
  1  2  3  0
  1  7  1  0
  2  3  1  0
  3  4  1  0
  3  5  1  0
  4  9  1  0
  4 10  1  0
  4 11  1  0
  5  6  3  0
  6 12  1  0
  8 14  1  0
 13 14  1  0
 13 22  1  0
 13 23  1  0
 13 24  1  0
 14 15  1  0
 14 16  1  0
 15 25  1  0
 15 26  1  0
 15 27  1  0
 16 17  2  0
 16 21  1  0
 17 18  1  0
 17 28  1  0
 18 19  2  0
 18 29  1  0
 19 20  1  0
 19 30  1  0
 20 21  2  0
 20 31  1  0
 21 32  1  0
M  RAD  1   3   2
M  END
>  <reaction>  (9) 
rxn_1405

>  <mol_properties>  (9) 
{"1": {"label": "*0", "atom_type": "Ct"}, "2": {"label": "*1", "atom_type": "Cs"}, "7": {"label": "*2", "atom_type": "H0"}, "13": {"label": "*3", "atom_type": "Cs"}, "15": {"label": "*4", "atom_type": "Cd"}}

>  <type>  (9) 
unop_5

>  <geom_source>  (9) 
Heuristics

$$$$

     RDKit          3D

 32 30  0  0  0  0  0  0  0  0999 V2000
   -0.8553   -0.2264   -3.9038 C   0  0  0  0  0  3  0  0  0  0  0  0
   -0.8553   -0.2264   -2.7077 C   0  0  0  0  0  0  0  0  0  0  0  0
   -0.8553   -0.1863   -1.2411 C   0  0  0  0  0  3  0  0  0  0  0  0
   -1.4933    1.1129   -0.7191 C   0  0  0  0  0  3  0  0  0  0  0  0
   -1.5171   -1.3675   -0.6764 C   0  0  0  0  0  0  0  0  0  0  0  0
   -2.0653   -2.3128   -0.1899 C   0  0  0  0  0  0  0  0  0  0  0  0
   -0.8553   -0.2264   -4.9673 H   0  0  0  0  0  0  0  0  0  0  0  0
    0.3983   -0.2135   -0.8480 H   0  0  0  0  0  0  0  0  0  0  0  0
   -2.5366    1.1702   -1.0269 H   0  0  0  0  0  0  0  0  0  0  0  0
   -0.9607    1.9744   -1.1208 H   0  0  0  0  0  0  0  0  0  0  0  0
   -1.4461    1.1374    0.3691 H   0  0  0  0  0  0  0  0  0  0  0  0
   -2.5528   -3.1532    0.2426 H   0  0  0  0  0  0  0  0  0  0  0  0
    2.0485   -1.7070   -0.2768 C   0  0  0  0  0  0  0  0  0  0  0  0
    1.6506   -0.2408   -0.4553 C   0  0  0  0  0  0  0  0  0  0  0  0
    2.8791    0.6353   -0.7069 C   0  0  0  0  0  0  0  0  0  0  0  0
    0.8364    0.2633    0.7178 C   0  0  0  0  0  0  0  0  0  0  0  0
    1.3751    0.3081    2.0019 C   0  0  0  0  0  0  0  0  0  0  0  0
    0.6288    0.7695    3.0734 C   0  0  0  0  0  0  0  0  0  0  0  0
   -0.6773    1.1974    2.8819 C   0  0  0  0  0  0  0  0  0  0  0  0
   -1.2261    1.1587    1.6108 C   0  0  0  0  0  0  0  0  0  0  0  0
   -0.4729    0.6952    0.5414 C   0  0  0  0  0  0  0  0  0  0  0  0
    1.1713   -2.3364   -0.1200 H   0  0  0  0  0  0  0  0  0  0  0  0
    2.5799   -2.0710   -1.1586 H   0  0  0  0  0  0  0  0  0  0  0  0
    2.7084   -1.8316    0.5848 H   0  0  0  0  0  0  0  0  0  0  0  0
    3.5689    0.5949    0.1393 H   0  0  0  0  0  0  0  0  0  0  0  0
    3.4189    0.2949   -1.5930 H   0  0  0  0  0  0  0  0  0  0  0  0
    2.5948    1.6778   -0.8571 H   0  0  0  0  0  0  0  0  0  0  0  0
    2.3938   -0.0224    2.1694 H   0  0  0  0  0  0  0  0  0  0  0  0
    1.0679    0.7955    4.0631 H   0  0  0  0  0  0  0  0  0  0  0  0
   -1.2615    1.5583    3.7189 H   0  0  0  0  0  0  0  0  0  0  0  0
   -2.2443    1.4899    1.4482 H   0  0  0  0  0  0  0  0  0  0  0  0
   -0.9112    0.6686   -0.4501 H   0  0  0  0  0  0  0  0  0  0  0  0
  1  2  2  0
  1  7  1  0
  2  3  2  0
  3  5  1  0
  4  9  1  0
  4 10  1  0
  4 32  1  0
  5  6  3  0
  6 12  1  0
  8 14  1  0
 11 21  1  0
 13 14  1  0
 13 22  1  0
 13 23  1  0
 13 24  1  0
 14 15  1  0
 14 16  1  0
 15 25  1  0
 15 26  1  0
 15 27  1  0
 16 17  2  0
 16 21  1  0
 17 18  1  0
 17 28  1  0
 18 19  2  0
 18 29  1  0
 19 20  1  0
 19 30  1  0
 20 21  2  0
 20 31  1  0
M  CHG  2   1   1   3  -1
M  RAD  1   4   2
M  END
>  <reaction>  (10) 
rxn_1405

>  <mol_properties>  (10) 
{"1": {"label": "*0", "atom_type": "Ct"}, "2": {"label": "*1", "atom_type": "Cs"}, "7": {"label": "*2", "atom_type": "H0"}, "13": {"label": "*3", "atom_type": "Cs"}, "15": {"label": "*4", "atom_type": "Cd"}}

>  <type>  (10) 
unop_6

>  <geom_source>  (10) 
Heuristics

$$$$

     RDKit          3D

 32 30  0  0  0  0  0  0  0  0999 V2000
   -0.9606   -0.6805   -3.6225 C   0  0  0  0  0  3  0  0  0  0  0  0
   -0.9606   -0.6805   -2.4263 C   0  0  0  0  0  0  0  0  0  0  0  0
   -0.9606   -0.6405   -0.9598 C   0  0  0  0  0  3  0  0  0  0  0  0
   -1.5986    0.6587   -0.4378 C   0  0  0  0  0  0  0  0  0  0  0  0
   -1.6225   -1.8217   -0.3950 C   0  0  0  0  0  0  0  0  0  0  0  0
   -2.1707   -2.7670    0.0915 C   0  0  0  0  0  0  0  0  0  0  0  0
   -0.9606   -0.6805   -4.6859 H   0  0  0  0  0  0  0  0  0  0  0  0
    0.2930   -0.6677   -0.5666 H   0  0  0  0  0  0  0  0  0  0  0  0
   -2.6419    0.7160   -0.7455 H   0  0  0  0  0  0  0  0  0  0  0  0
   -1.0660    1.5202   -0.8394 H   0  0  0  0  0  0  0  0  0  0  0  0
   -1.5515    0.6832    0.6505 H   0  0  0  0  0  0  0  0  0  0  0  0
   -2.6581   -3.6074    0.5240 H   0  0  0  0  0  0  0  0  0  0  0  0
    1.7316   -1.9404    0.6945 C   0  0  0  0  0  0  0  0  0  0  0  0
    1.5453   -0.6949   -0.1739 C   0  0  0  0  0  0  0  0  0  0  0  0
    2.8737   -0.2490   -0.7874 C   0  0  0  0  0  0  0  0  0  0  0  0
    0.8811    0.4276    0.5955 C   0  0  0  0  0  0  0  0  0  0  0  0
    1.4911    0.9943    1.7125 C   0  0  0  0  0  0  0  0  0  0  0  0
    0.8820    2.0208    2.4147 C   0  0  0  0  0  0  0  0  0  0  0  0
   -0.3552    2.5038    2.0125 C   0  0  0  0  0  0  0  0  0  0  0  0
   -0.9737    1.9501    0.9039 C   0  0  0  0  0  0  0  0  0  0  0  0
   -0.3579    0.9217    0.2046 C   0  0  0  0  0  3  0  0  0  0  0  0
    0.7812   -2.2730    1.1143 H   0  0  0  0  0  0  0  0  0  0  0  0
    2.1535   -2.7587    0.1072 H   0  0  0  0  0  0  0  0  0  0  0  0
    2.4128   -1.7406    1.5248 H   0  0  0  0  0  0  0  0  0  0  0  0
    3.5960    0.0117   -0.0103 H   0  0  0  0  0  0  0  0  0  0  0  0
    3.3071   -1.0502   -1.3895 H   0  0  0  0  0  0  0  0  0  0  0  0
    2.7385    0.6257   -1.4252 H   0  0  0  0  0  0  0  0  0  0  0  0
    2.4576    0.6291    2.0406 H   0  0  0  0  0  0  0  0  0  0  0  0
    1.3745    2.4465    3.2803 H   0  0  0  0  0  0  0  0  0  0  0  0
   -0.8322    3.3062    2.5608 H   0  0  0  0  0  0  0  0  0  0  0  0
   -1.9392    2.3182    0.5798 H   0  0  0  0  0  0  0  0  0  0  0  0
   -0.8498    0.4945   -0.6622 H   0  0  0  0  0  0  0  0  0  0  0  0
  1  2  2  0
  1  7  1  0
  2  3  2  0
  3  5  1  0
  4  9  1  0
  4 10  1  0
  4 11  1  0
  4 32  1  0
  5  6  3  0
  6 12  1  0
  8 14  1  0
 13 14  1  0
 13 22  1  0
 13 23  1  0
 13 24  1  0
 14 15  1  0
 14 16  1  0
 15 25  1  0
 15 26  1  0
 15 27  1  0
 16 17  2  0
 16 21  1  0
 17 18  1  0
 17 28  1  0
 18 19  2  0
 18 29  1  0
 19 20  1  0
 19 30  1  0
 20 21  2  0
 20 31  1  0
M  CHG  2   1   1   3  -1
M  RAD  1  21   2
M  END
>  <reaction>  (11) 
rxn_1405

>  <mol_properties>  (11) 
{"1": {"label": "*0", "atom_type": "Ct"}, "2": {"label": "*1", "atom_type": "Cs"}, "7": {"label": "*2", "atom_type": "H0"}, "13": {"label": "*3", "atom_type": "Cs"}, "15": {"label": "*4", "atom_type": "Cd"}}

>  <type>  (11) 
unop_7

>  <geom_source>  (11) 
Heuristics

$$$$

     RDKit          3D

 32 31  0  0  0  0  0  0  0  0999 V2000
   -2.1943    0.7591   -2.9610 C   0  0  0  0  0  0  0  0  0  0  0  0
   -2.1943    0.7591   -1.7649 C   0  0  0  0  0  0  0  0  0  0  0  0
   -2.1943    0.7991   -0.2983 C   0  0  0  0  0  3  0  0  0  0  0  0
   -2.8323    2.0983    0.2237 C   0  0  0  0  0  0  0  0  0  0  0  0
   -2.8561   -0.3821    0.2664 C   0  0  0  0  0  0  0  0  0  0  0  0
   -3.4043   -1.3274    0.7529 C   0  0  0  0  0  0  0  0  0  0  0  0
   -2.1943    0.7591   -4.0245 H   0  0  0  0  0  0  0  0  0  0  0  0
   -0.9407    0.7719    0.0948 H   0  0  0  0  0  0  0  0  0  0  0  0
   -3.8755    2.1556   -0.0841 H   0  0  0  0  0  0  0  0  0  0  0  0
   -2.2997    2.9598   -0.1780 H   0  0  0  0  0  0  0  0  0  0  0  0
   -2.7851    2.1228    1.3119 H   0  0  0  0  0  0  0  0  0  0  0  0
   -3.8918   -2.1678    1.1854 H   0  0  0  0  0  0  0  0  0  0  0  0
    0.7978    2.1917    0.5864 C   0  0  0  0  0  0  0  0  0  0  0  0
    0.3116    0.7447    0.4875 C   0  0  0  0  0  0  0  0  0  0  0  0
   -0.5275    0.3624    1.7080 C   0  0  0  0  0  0  0  0  0  0  0  0
    1.4619   -0.2175    0.2775 C   0  0  0  0  0  0  0  0  0  0  0  0
    2.4659   -0.3590    1.2331 C   0  0  0  0  0  0  0  0  0  0  0  0
    3.5170   -1.2395    1.0391 C   0  0  0  0  0  0  0  0  0  0  0  0
    3.5861   -2.0000   -0.1196 C   0  0  0  0  0  0  0  0  0  0  0  0
    2.5951   -1.8700   -1.0784 C   0  0  0  0  0  0  0  0  0  0  0  0
    1.5444   -0.9858   -0.8779 C   0  0  0  0  0  0  0  0  0  0  0  0
    1.3773    2.4729   -0.2941 H   0  0  0  0  0  0  0  0  0  0  0  0
   -0.0484    2.8762    0.6744 H   0  0  0  0  0  0  0  0  0  0  0  0
    1.4328    2.3324    1.4641 H   0  0  0  0  0  0  0  0  0  0  0  0
    0.0597    0.4373    2.6261 H   0  0  0  0  0  0  0  0  0  0  0  0
   -1.3871    1.0285    1.8074 H   0  0  0  0  0  0  0  0  0  0  0  0
   -0.8941   -0.6621    1.6282 H   0  0  0  0  0  0  0  0  0  0  0  0
    2.4276    0.2273    2.1440 H   0  0  0  0  0  0  0  0  0  0  0  0
    4.2866   -1.3334    1.7954 H   0  0  0  0  0  0  0  0  0  0  0  0
    4.4074   -2.6887   -0.2722 H   0  0  0  0  0  0  0  0  0  0  0  0
    2.6375   -2.4578   -1.9870 H   0  0  0  0  0  0  0  0  0  0  0  0
    0.7732   -0.8908   -1.6342 H   0  0  0  0  0  0  0  0  0  0  0  0
  1  2  3  0
  1  7  1  0
  2  3  1  0
  3  4  1  0
  3  5  1  0
  4  9  1  0
  4 10  1  0
  4 11  1  0
  5  6  3  0
  6 12  1  0
  8 14  1  0
 13 14  1  0
 13 22  1  0
 13 23  1  0
 13 24  1  0
 14 15  1  0
 14 16  1  0
 15 25  1  0
 15 26  1  0
 15 27  1  0
 16 17  2  0
 16 21  1  0
 17 18  1  0
 17 28  1  0
 18 19  2  0
 18 29  1  0
 19 20  1  0
 19 30  1  0
 20 21  2  0
 20 31  1  0
 21 32  1  0
M  RAD  1   3   2
M  END
>  <reaction>  (12) 
rxn_1405

>  <mol_properties>  (12) 
{"1": {"label": "*0", "atom_type": "Ct"}, "2": {"label": "*1", "atom_type": "Cs"}, "7": {"label": "*2", "atom_type": "H0"}, "13": {"label": "*3", "atom_type": "Cs"}, "15": {"label": "*4", "atom_type": "Cd"}}

>  <type>  (12) 
unop_8

>  <geom_source>  (12) 
Heuristics

$$$$

     RDKit          3D

 32 31  0  0  0  0  0  0  0  0999 V2000
   -1.1993    0.7294   -3.8756 C   0  0  0  0  0  0  0  0  0  0  0  0
   -1.1993    0.7294   -2.6794 C   0  0  0  0  0  0  0  0  0  0  0  0
   -1.1993    0.7694   -1.2129 C   0  0  0  0  0  3  0  0  0  0  0  0
   -1.8373    2.0687   -0.6909 C   0  0  0  0  0  0  0  0  0  0  0  0
   -1.8611   -0.4118   -0.6481 C   0  0  0  0  0  0  0  0  0  0  0  0
   -2.4094   -1.3571   -0.1616 C   0  0  0  0  0  0  0  0  0  0  0  0
   -1.1993    0.7294   -4.9390 H   0  0  0  0  0  0  0  0  0  0  0  0
    0.0543    0.7422   -0.8197 H   0  0  0  0  0  0  0  0  0  0  0  0
   -2.8806    2.1259   -0.9986 H   0  0  0  0  0  0  0  0  0  0  0  0
   -1.3047    2.9301   -1.0925 H   0  0  0  0  0  0  0  0  0  0  0  0
   -1.7901    2.0931    0.3974 H   0  0  0  0  0  0  0  0  0  0  0  0
   -2.8968   -2.1975    0.2709 H   0  0  0  0  0  0  0  0  0  0  0  0
    2.1032   -0.0672   -1.4726 C   0  0  0  0  0  0  0  0  0  0  0  0
    1.3066    0.7150   -0.4270 C   0  0  0  0  0  0  0  0  0  0  0  0
    2.0507    1.9830   -0.0048 C   0  0  0  0  0  0  0  0  0  0  0  0
    0.9533   -0.1482    0.7660 C   0  0  0  0  0  0  0  0  0  0  0  0
    1.9448   -0.7010    1.5736 C   0  0  0  0  0  0  0  0  0  0  0  0
    1.6196   -1.4901    2.6642 C   0  0  0  0  0  0  0  0  0  0  0  0
    0.2902   -1.7437    2.9709 C   0  0  0  0  0  0  0  0  0  0  0  0
   -0.7064   -1.2008    2.1770 C   0  0  0  0  0  0  0  0  0  0  0  0
   -0.3737   -0.4109    1.0855 C   0  0  0  0  0  0  0  0  0  0  0  0
    1.5634   -0.9600   -1.7916 H   0  0  0  0  0  0  0  0  0  0  0  0
    2.2947    0.5514   -2.3518 H   0  0  0  0  0  0  0  0  0  0  0  0
    3.0688   -0.3849   -1.0723 H   0  0  0  0  0  0  0  0  0  0  0  0
    3.0144    1.7391    0.4483 H   0  0  0  0  0  0  0  0  0  0  0  0
    2.2416    2.6224   -0.8692 H   0  0  0  0  0  0  0  0  0  0  0  0
    1.4734    2.5537    0.7240 H   0  0  0  0  0  0  0  0  0  0  0  0
    2.9884   -0.5131    1.3485 H   0  0  0  0  0  0  0  0  0  0  0  0
    2.4068   -1.9096    3.2784 H   0  0  0  0  0  0  0  0  0  0  0  0
    0.0349   -2.3604    3.8233 H   0  0  0  0  0  0  0  0  0  0  0  0
   -1.7476   -1.3912    2.4057 H   0  0  0  0  0  0  0  0  0  0  0  0
   -1.1609    0.0098    0.4697 H   0  0  0  0  0  0  0  0  0  0  0  0
  1  2  3  0
  1  7  1  0
  2  3  1  0
  3  4  1  0
  3  5  1  0
  4  9  1  0
  4 10  1  0
  4 11  1  0
  5  6  3  0
  6 12  1  0
  8 14  1  0
 13 14  1  0
 13 22  1  0
 13 23  1  0
 13 24  1  0
 14 15  1  0
 14 16  1  0
 15 25  1  0
 15 26  1  0
 15 27  1  0
 16 17  2  0
 16 21  1  0
 17 18  1  0
 17 28  1  0
 18 19  2  0
 18 29  1  0
 19 20  1  0
 19 30  1  0
 20 21  2  0
 20 31  1  0
 21 32  1  0
M  RAD  1   3   2
M  END
>  <reaction>  (13) 
rxn_1405

>  <mol_properties>  (13) 
{"1": {"label": "*0", "atom_type": "Ct"}, "2": {"label": "*1", "atom_type": "Cs"}, "7": {"label": "*2", "atom_type": "H0"}, "13": {"label": "*3", "atom_type": "Cs"}, "15": {"label": "*4", "atom_type": "Cd"}}

>  <type>  (13) 
unop_9

>  <geom_source>  (13) 
Heuristics

$$$$

     RDKit          3D

 32 31  0  0  0  0  0  0  0  0999 V2000
   -2.0736    0.8748   -3.1890 C   0  0  0  0  0  0  0  0  0  0  0  0
   -2.0736    0.8748   -1.9928 C   0  0  0  0  0  0  0  0  0  0  0  0
   -2.0736    0.9149   -0.5262 C   0  0  0  0  0  3  0  0  0  0  0  0
   -2.7116    2.2141   -0.0042 C   0  0  0  0  0  0  0  0  0  0  0  0
   -2.7354   -0.2664    0.0385 C   0  0  0  0  0  0  0  0  0  0  0  0
   -3.2837   -1.2117    0.5250 C   0  0  0  0  0  0  0  0  0  0  0  0
   -2.0736    0.8748   -4.2524 H   0  0  0  0  0  0  0  0  0  0  0  0
   -0.8200    0.8876   -0.1331 H   0  0  0  0  0  0  0  0  0  0  0  0
   -3.7549    2.2713   -0.3120 H   0  0  0  0  0  0  0  0  0  0  0  0
   -2.1790    3.0755   -0.4059 H   0  0  0  0  0  0  0  0  0  0  0  0
   -2.6644    2.2385    1.0840 H   0  0  0  0  0  0  0  0  0  0  0  0
   -3.7711   -2.0521    0.9575 H   0  0  0  0  0  0  0  0  0  0  0  0
    1.1301    2.0867   -0.3315 C   0  0  0  0  0  0  0  0  0  0  0  0
    0.4323    0.8604    0.2596 C   0  0  0  0  0  0  0  0  0  0  0  0
   -0.2525    1.2029    1.5839 C   0  0  0  0  0  0  0  0  0  0  0  0
    1.3861   -0.3061    0.4099 C   0  0  0  0  0  0  0  0  0  0  0  0
    2.4959   -0.2254    1.2482 C   0  0  0  0  0  0  0  0  0  0  0  0
    3.3670   -1.2934    1.3841 C   0  0  0  0  0  0  0  0  0  0  0  0
    3.1451   -2.4693    0.6814 C   0  0  0  0  0  0  0  0  0  0  0  0
    2.0458   -2.5640   -0.1557 C   0  0  0  0  0  0  0  0  0  0  0  0
    1.1768   -1.4901   -0.2875 C   0  0  0  0  0  0  0  0  0  0  0  0
    1.5996    1.8495   -1.2872 H   0  0  0  0  0  0  0  0  0  0  0  0
    0.4148    2.8962   -0.4910 H   0  0  0  0  0  0  0  0  0  0  0  0
    1.9075    2.4569    0.3408 H   0  0  0  0  0  0  0  0  0  0  0  0
    0.4753    1.5413    2.3251 H   0  0  0  0  0  0  0  0  0  0  0  0
   -0.9817    2.0035    1.4437 H   0  0  0  0  0  0  0  0  0  0  0  0
   -0.7698    0.3350    1.9953 H   0  0  0  0  0  0  0  0  0  0  0  0
    2.6844    0.6856    1.8045 H   0  0  0  0  0  0  0  0  0  0  0  0
    4.2235   -1.2086    2.0415 H   0  0  0  0  0  0  0  0  0  0  0  0
    3.8254   -3.3047    0.7871 H   0  0  0  0  0  0  0  0  0  0  0  0
    1.8616   -3.4762   -0.7096 H   0  0  0  0  0  0  0  0  0  0  0  0
    0.3188   -1.5737   -0.9454 H   0  0  0  0  0  0  0  0  0  0  0  0
  1  2  3  0
  1  7  1  0
  2  3  1  0
  3  4  1  0
  3  5  1  0
  4  9  1  0
  4 10  1  0
  4 11  1  0
  5  6  3  0
  6 12  1  0
  8 14  1  0
 13 14  1  0
 13 22  1  0
 13 23  1  0
 13 24  1  0
 14 15  1  0
 14 16  1  0
 15 25  1  0
 15 26  1  0
 15 27  1  0
 16 17  2  0
 16 21  1  0
 17 18  1  0
 17 28  1  0
 18 19  2  0
 18 29  1  0
 19 20  1  0
 19 30  1  0
 20 21  2  0
 20 31  1  0
 21 32  1  0
M  RAD  1   3   2
M  END
>  <reaction>  (14) 
rxn_1405

>  <mol_properties>  (14) 
{"1": {"label": "*0", "atom_type": "Ct"}, "2": {"label": "*1", "atom_type": "Cs"}, "7": {"label": "*2", "atom_type": "H0"}, "13": {"label": "*3", "atom_type": "Cs"}, "15": {"label": "*4", "atom_type": "Cd"}}

>  <type>  (14) 
unop_10

>  <geom_source>  (14) 
Heuristics

$$$$

     RDKit          3D

 32 30  0  0  0  0  0  0  0  0999 V2000
   -1.3100   -0.9468   -3.1661 C   0  0  0  0  0  3  0  0  0  0  0  0
   -1.3100   -0.9468   -1.9700 C   0  0  0  0  0  0  0  0  0  0  0  0
   -1.3100   -0.9067   -0.5034 C   0  0  0  0  0  3  0  0  0  0  0  0
   -1.9480    0.3925    0.0186 C   0  0  0  0  0  3  0  0  0  0  0  0
   -1.9718   -2.0880    0.0614 C   0  0  0  0  0  0  0  0  0  0  0  0
   -2.5201   -3.0332    0.5478 C   0  0  0  0  0  0  0  0  0  0  0  0
   -1.3100   -0.9468   -4.2296 H   0  0  0  0  0  0  0  0  0  0  0  0
   -0.0564   -0.9340   -0.1103 H   0  0  0  0  0  0  0  0  0  0  0  0
   -2.9913    0.4498   -0.2892 H   0  0  0  0  0  0  0  0  0  0  0  0
   -1.4154    1.2539   -0.3831 H   0  0  0  0  0  0  0  0  0  0  0  0
   -1.9008    0.4169    1.1068 H   0  0  0  0  0  0  0  0  0  0  0  0
   -3.0075   -3.8737    0.9804 H   0  0  0  0  0  0  0  0  0  0  0  0
    1.2392   -1.6548    1.6452 C   0  0  0  0  0  0  0  0  0  0  0  0
    1.1959   -0.9612    0.2824 C   0  0  0  0  0  0  0  0  0  0  0  0
    2.4341   -1.3036   -0.5480 C   0  0  0  0  0  0  0  0  0  0  0  0
    1.0149    0.5357    0.4235 C   0  0  0  0  0  0  0  0  0  0  0  0
    1.9695    1.3186    1.0690 C   0  0  0  0  0  0  0  0  0  0  0  0
    1.8021    2.6874    1.1969 C   0  0  0  0  0  0  0  0  0  0  0  0
    0.6716    3.3040    0.6797 C   0  0  0  0  0  0  0  0  0  0  0  0
   -0.2859    2.5383    0.0355 C   0  0  0  0  0  0  0  0  0  0  0  0
   -0.1121    1.1671   -0.0894 C   0  0  0  0  0  0  0  0  0  0  0  0
    0.3459   -1.4298    2.2296 H   0  0  0  0  0  0  0  0  0  0  0  0
    1.3067   -2.7378    1.5232 H   0  0  0  0  0  0  0  0  0  0  0  0
    2.1078   -1.3298    2.2226 H   0  0  0  0  0  0  0  0  0  0  0  0
    3.3456   -0.9660   -0.0495 H   0  0  0  0  0  0  0  0  0  0  0  0
    2.5136   -2.3831   -0.6921 H   0  0  0  0  0  0  0  0  0  0  0  0
    2.3936   -0.8279   -1.5290 H   0  0  0  0  0  0  0  0  0  0  0  0
    2.8587    0.8534    1.4789 H   0  0  0  0  0  0  0  0  0  0  0  0
    2.5571    3.2766    1.7026 H   0  0  0  0  0  0  0  0  0  0  0  0
    0.5398    4.3739    0.7793 H   0  0  0  0  0  0  0  0  0  0  0  0
   -1.1726    3.0075   -0.3725 H   0  0  0  0  0  0  0  0  0  0  0  0
   -0.8672    0.5759   -0.5955 H   0  0  0  0  0  0  0  0  0  0  0  0
  1  2  2  0
  1  7  1  0
  2  3  2  0
  3  5  1  0
  4  9  1  0
  4 10  1  0
  4 11  1  0
  5  6  3  0
  6 12  1  0
  8 14  1  0
 13 14  1  0
 13 22  1  0
 13 23  1  0
 13 24  1  0
 14 15  1  0
 14 16  1  0
 15 25  1  0
 15 26  1  0
 15 27  1  0
 16 17  2  0
 16 21  1  0
 17 18  1  0
 17 28  1  0
 18 19  2  0
 18 29  1  0
 19 20  1  0
 19 30  1  0
 20 21  2  0
 20 31  1  0
 21 32  1  0
M  CHG  2   1   1   3  -1
M  RAD  1   4   2
M  END
>  <reaction>  (15) 
rxn_1405

>  <mol_properties>  (15) 
{"1": {"label": "*0", "atom_type": "Ct"}, "2": {"label": "*1", "atom_type": "Cs"}, "7": {"label": "*2", "atom_type": "H0"}, "13": {"label": "*3", "atom_type": "Cs"}, "15": {"label": "*4", "atom_type": "Cd"}}

>  <type>  (15) 
unop_11

>  <geom_source>  (15) 
Heuristics

$$$$

     RDKit          3D

 32 31  0  0  0  0  0  0  0  0999 V2000
   -1.5646    0.9546   -3.6350 C   0  0  0  0  0  0  0  0  0  0  0  0
   -1.5646    0.9546   -2.4388 C   0  0  0  0  0  0  0  0  0  0  0  0
   -1.5646    0.9947   -0.9723 C   0  0  0  0  0  3  0  0  0  0  0  0
   -2.2026    2.2939   -0.4503 C   0  0  0  0  0  0  0  0  0  0  0  0
   -2.2265   -0.1865   -0.4075 C   0  0  0  0  0  0  0  0  0  0  0  0
   -2.7747   -1.1318    0.0790 C   0  0  0  0  0  0  0  0  0  0  0  0
   -1.5646    0.9546   -4.6985 H   0  0  0  0  0  0  0  0  0  0  0  0
   -0.3110    0.9675   -0.5792 H   0  0  0  0  0  0  0  0  0  0  0  0
   -3.2459    2.3512   -0.7581 H   0  0  0  0  0  0  0  0  0  0  0  0
   -1.6700    3.1554   -0.8519 H   0  0  0  0  0  0  0  0  0  0  0  0
   -2.1555    2.3184    0.6379 H   0  0  0  0  0  0  0  0  0  0  0  0
   -3.2621   -1.9722    0.5115 H   0  0  0  0  0  0  0  0  0  0  0  0
    1.8183    0.8795   -1.4383 C   0  0  0  0  0  0  0  0  0  0  0  0
    0.9413    0.9403   -0.1864 C   0  0  0  0  0  0  0  0  0  0  0  0
    1.2057    2.2204    0.6081 C   0  0  0  0  0  0  0  0  0  0  0  0
    1.1093   -0.2949    0.6733 C   0  0  0  0  0  0  0  0  0  0  0  0
    2.3386   -0.6104    1.2480 C   0  0  0  0  0  0  0  0  0  0  0  0
    2.4902   -1.7405    2.0340 C   0  0  0  0  0  0  0  0  0  0  0  0
    1.4108   -2.5821    2.2623 C   0  0  0  0  0  0  0  0  0  0  0  0
    0.1825   -2.2812    1.6974 C   0  0  0  0  0  0  0  0  0  0  0  0
    0.0373   -1.1472    0.9108 C   0  0  0  0  0  0  0  0  0  0  0  0
    1.6145   -0.0220   -2.0180 H   0  0  0  0  0  0  0  0  0  0  0  0
    1.6378    1.7470   -2.0764 H   0  0  0  0  0  0  0  0  0  0  0  0
    2.8783    0.8751   -1.1740 H   0  0  0  0  0  0  0  0  0  0  0  0
    2.2436    2.2643    0.9459 H   0  0  0  0  0  0  0  0  0  0  0  0
    1.0190    3.1015   -0.0095 H   0  0  0  0  0  0  0  0  0  0  0  0
    0.5646    2.2761    1.4891 H   0  0  0  0  0  0  0  0  0  0  0  0
    3.1924    0.0361    1.0800 H   0  0  0  0  0  0  0  0  0  0  0  0
    3.4552   -1.9663    2.4708 H   0  0  0  0  0  0  0  0  0  0  0  0
    1.5283   -3.4658    2.8766 H   0  0  0  0  0  0  0  0  0  0  0  0
   -0.6676   -2.9300    1.8681 H   0  0  0  0  0  0  0  0  0  0  0  0
   -0.9282   -0.9199    0.4728 H   0  0  0  0  0  0  0  0  0  0  0  0
  1  2  3  0
  1  7  1  0
  2  3  1  0
  3  4  1  0
  3  5  1  0
  4  9  1  0
  4 10  1  0
  4 11  1  0
  5  6  3  0
  6 12  1  0
  8 14  1  0
 13 14  1  0
 13 22  1  0
 13 23  1  0
 13 24  1  0
 14 15  1  0
 14 16  1  0
 15 25  1  0
 15 26  1  0
 15 27  1  0
 16 17  2  0
 16 21  1  0
 17 18  1  0
 17 28  1  0
 18 19  2  0
 18 29  1  0
 19 20  1  0
 19 30  1  0
 20 21  2  0
 20 31  1  0
 21 32  1  0
M  RAD  1   3   2
M  END
>  <reaction>  (16) 
rxn_1405

>  <mol_properties>  (16) 
{"1": {"label": "*0", "atom_type": "Ct"}, "2": {"label": "*1", "atom_type": "Cs"}, "7": {"label": "*2", "atom_type": "H0"}, "13": {"label": "*3", "atom_type": "Cs"}, "15": {"label": "*4", "atom_type": "Cd"}}

>  <type>  (16) 
unop_12

>  <geom_source>  (16) 
Heuristics

$$$$

     RDKit          3D

 32 31  0  0  0  0  0  0  0  0999 V2000
   -0.1302    0.6837   -0.4457 C   0  0  0  0  0  0  0  0  0  0  0  0
   -0.1330    0.5820   -1.9745 C   0  0  0  0  0  0  0  0  0  0  0  0
    0.1761    2.1131    0.0130 C   0  0  0  0  0  0  0  0  0  0  0  0
    1.8394   -1.6120    0.9300 C   0  0  0  0  0  0  0  0  0  0  0  0
   -1.4388    0.1898    0.1383 C   0  0  0  0  0  0  0  0  0  0  0  0
    2.1371   -0.5308   -0.1049 C   0  0  0  0  0  3  0  0  0  0  0  0
   -1.4473   -0.9236    0.9973 C   0  0  0  0  0  0  0  0  0  0  0  0
   -2.6583    0.8276   -0.1634 C   0  0  0  0  0  0  0  0  0  0  0  0
   -2.6485   -1.3882    1.5420 C   0  0  0  0  0  0  0  0  0  0  0  0
   -3.8515   -0.7480    1.2360 C   0  0  0  0  0  0  0  0  0  0  0  0
   -3.8563    0.3588    0.3841 C   0  0  0  0  0  0  0  0  0  0  0  0
    2.9855    0.5197    0.4709 C   0  0  0  0  0  0  0  0  0  0  0  0
    2.7955   -1.1072   -1.2835 C   0  0  0  0  0  0  0  0  0  0  0  0
    3.6809    1.3836    0.9444 C   0  0  0  0  0  0  0  0  0  0  0  0
    3.3348   -1.5810   -2.2524 C   0  0  0  0  0  0  0  0  0  0  0  0
    0.8665   -0.0809   -0.0117 H   0  0  0  0  0  0  0  0  0  0  0  0
   -0.8900    1.2609   -2.4214 H   0  0  0  0  0  0  0  0  0  0  0  0
    0.8672    0.8552   -2.3723 H   0  0  0  0  0  0  0  0  0  0  0  0
   -0.3555   -0.4613   -2.2840 H   0  0  0  0  0  0  0  0  0  0  0  0
   -0.5729    2.8316   -0.3824 H   0  0  0  0  0  0  0  0  0  0  0  0
    0.1743    2.1631    1.1227 H   0  0  0  0  0  0  0  0  0  0  0  0
    1.1824    2.4166   -0.3456 H   0  0  0  0  0  0  0  0  0  0  0  0
    2.7776   -2.0972    1.2784 H   0  0  0  0  0  0  0  0  0  0  0  0
    1.1746   -2.3847    0.4884 H   0  0  0  0  0  0  0  0  0  0  0  0
    1.3169   -1.1658    1.8029 H   0  0  0  0  0  0  0  0  0  0  0  0
   -0.5269   -1.4352    1.2483 H   0  0  0  0  0  0  0  0  0  0  0  0
   -2.6463   -2.2458    2.2024 H   0  0  0  0  0  0  0  0  0  0  0  0
   -2.6842    1.6867   -0.8211 H   0  0  0  0  0  0  0  0  0  0  0  0
   -4.7799   -1.1095    1.6588 H   0  0  0  0  0  0  0  0  0  0  0  0
   -4.7891    0.8542    0.1475 H   0  0  0  0  0  0  0  0  0  0  0  0
    4.2914    2.1415    1.3601 H   0  0  0  0  0  0  0  0  0  0  0  0
    3.8083   -1.9969   -3.1026 H   0  0  0  0  0  0  0  0  0  0  0  0
  1  2  1  0
  1  3  1  0
  1  5  1  0
  1 16  1  0
  2 17  1  0
  2 18  1  0
  2 19  1  0
  3 20  1  0
  3 21  1  0
  3 22  1  0
  4  6  1  0
  4 23  1  0
  4 24  1  0
  4 25  1  0
  5  7  2  0
  5  8  1  0
  6 12  1  0
  6 13  1  0
  7  9  1  0
  7 26  1  0
  8 11  2  0
  8 28  1  0
  9 10  2  0
  9 27  1  0
 10 11  1  0
 10 29  1  0
 11 30  1  0
 12 14  3  0
 13 15  3  0
 14 31  1  0
 15 32  1  0
M  RAD  1   6   2
M  END
>  <reaction>  (17) 
rxn_1405

>  <mol_properties>  (17) 
{"1": {"label": "*0", "atom_type": "Ct"}, "2": {"label": "*1", "atom_type": "Cs"}, "7": {"label": "*2", "atom_type": "H0"}, "13": {"label": "*3", "atom_type": "Cs"}, "15": {"label": "*4", "atom_type": "Cd"}}

>  <type>  (17) 
unop_13

>  <geom_source>  (17) 
AutoTST

$$$$

     RDKit          3D

 32 31  0  0  0  0  0  0  0  0999 V2000
   -1.8802    0.9560   -3.3945 C   0  0  0  0  0  0  0  0  0  0  0  0
   -1.8802    0.9560   -2.1984 C   0  0  0  0  0  0  0  0  0  0  0  0
   -1.8802    0.9961   -0.7318 C   0  0  0  0  0  3  0  0  0  0  0  0
   -2.5182    2.2953   -0.2098 C   0  0  0  0  0  0  0  0  0  0  0  0
   -2.5420   -0.1852   -0.1670 C   0  0  0  0  0  0  0  0  0  0  0  0
   -3.0903   -1.1304    0.3195 C   0  0  0  0  0  0  0  0  0  0  0  0
   -1.8802    0.9560   -4.4580 H   0  0  0  0  0  0  0  0  0  0  0  0
   -0.6266    0.9688   -0.3387 H   0  0  0  0  0  0  0  0  0  0  0  0
   -3.5615    2.3526   -0.5176 H   0  0  0  0  0  0  0  0  0  0  0  0
   -1.9856    3.1567   -0.6115 H   0  0  0  0  0  0  0  0  0  0  0  0
   -2.4710    2.3197    0.8784 H   0  0  0  0  0  0  0  0  0  0  0  0
   -3.5777   -1.9708    0.7520 H   0  0  0  0  0  0  0  0  0  0  0  0
    1.4665    1.6160   -1.0314 C   0  0  0  0  0  0  0  0  0  0  0  0
    0.6257    0.9416    0.0540 C   0  0  0  0  0  0  0  0  0  0  0  0
    0.3409    1.9059    1.2069 C   0  0  0  0  0  0  0  0  0  0  0  0
    1.2691   -0.3389    0.5434 C   0  0  0  0  0  0  0  0  0  0  0  0
    2.5144   -0.3260    1.1680 C   0  0  0  0  0  0  0  0  0  0  0  0
    3.1010   -1.4982    1.6148 C   0  0  0  0  0  0  0  0  0  0  0  0
    2.4515   -2.7127    1.4455 C   0  0  0  0  0  0  0  0  0  0  0  0
    1.2129   -2.7410    0.8263 C   0  0  0  0  0  0  0  0  0  0  0  0
    0.6306   -1.5627    0.3808 C   0  0  0  0  0  0  0  0  0  0  0  0
    1.6511    0.9366   -1.8648 H   0  0  0  0  0  0  0  0  0  0  0  0
    0.9579    2.5024   -1.4163 H   0  0  0  0  0  0  0  0  0  0  0  0
    2.4347    1.9326   -0.6367 H   0  0  0  0  0  0  0  0  0  0  0  0
    1.2686    2.2329    1.6822 H   0  0  0  0  0  0  0  0  0  0  0  0
   -0.1790    2.7952    0.8446 H   0  0  0  0  0  0  0  0  0  0  0  0
   -0.2778    1.4334    1.9712 H   0  0  0  0  0  0  0  0  0  0  0  0
    3.0357    0.6140    1.3084 H   0  0  0  0  0  0  0  0  0  0  0  0
    4.0699   -1.4646    2.0976 H   0  0  0  0  0  0  0  0  0  0  0  0
    2.9093   -3.6296    1.7944 H   0  0  0  0  0  0  0  0  0  0  0  0
    0.6958   -3.6824    0.6882 H   0  0  0  0  0  0  0  0  0  0  0  0
   -0.3394   -1.5948   -0.1028 H   0  0  0  0  0  0  0  0  0  0  0  0
  1  2  3  0
  1  7  1  0
  2  3  1  0
  3  4  1  0
  3  5  1  0
  4  9  1  0
  4 10  1  0
  4 11  1  0
  5  6  3  0
  6 12  1  0
  8 14  1  0
 13 14  1  0
 13 22  1  0
 13 23  1  0
 13 24  1  0
 14 15  1  0
 14 16  1  0
 15 25  1  0
 15 26  1  0
 15 27  1  0
 16 17  2  0
 16 21  1  0
 17 18  1  0
 17 28  1  0
 18 19  2  0
 18 29  1  0
 19 20  1  0
 19 30  1  0
 20 21  2  0
 20 31  1  0
 21 32  1  0
M  RAD  1   3   2
M  END
>  <reaction>  (18) 
rxn_1405

>  <mol_properties>  (18) 
{"1": {"label": "*0", "atom_type": "Ct"}, "2": {"label": "*1", "atom_type": "Cs"}, "7": {"label": "*2", "atom_type": "H0"}, "13": {"label": "*3", "atom_type": "Cs"}, "15": {"label": "*4", "atom_type": "Cd"}}

>  <type>  (18) 
unop_14

>  <geom_source>  (18) 
gaussian_log

$$$$
