
     RDKit          3D

  8  7  0  0  0  0  0  0  0  0999 V2000
    0.7610    0.0250    0.0051 C   0  0  0  0  0  0  0  0  0  0  0  0
   -0.7610   -0.0250   -0.0051 C   0  0  0  0  0  0  0  0  0  0  0  0
    1.1904   -0.9237   -0.3217 H   0  0  0  0  0  0  0  0  0  0  0  0
    1.1359    0.8041   -0.6609 H   0  0  0  0  0  0  0  0  0  0  0  0
    1.1435    0.2336    1.0058 H   0  0  0  0  0  0  0  0  0  0  0  0
   -1.1435   -0.2336   -1.0058 H   0  0  0  0  0  0  0  0  0  0  0  0
   -1.1904    0.9237    0.3216 H   0  0  0  0  0  0  0  0  0  0  0  0
   -1.1359   -0.8041    0.6609 H   0  0  0  0  0  0  0  0  0  0  0  0
  1  2  1  0
  1  3  1  0
  1  4  1  0
  1  5  1  0
  2  6  1  0
  2  7  1  0
  2  8  1  0
M  END
>  <reaction>  (1) 
rxn_296

>  <mol_properties>  (1) 
{"1": {"label": "donator", "atom_type": "Cs"}, "5": {"label": "d_hydrogen", "atom_type": "H0"}}

>  <type>  (1) 
r1h

$$$$

     RDKit          3D

  3  2  0  0  0  0  0  0  0  0999 V2000
    0.9943   -0.1797    0.0000 O   0  0  0  0  0  1  0  0  0  0  0  0
   -0.1595    0.4394    0.0000 O   0  0  0  0  0  0  0  0  0  0  0  0
   -0.8348   -0.2597    0.0000 H   0  0  0  0  0  0  0  0  0  0  0  0
  1  2  1  0
  2  3  1  0
M  RAD  1   1   2
M  END
>  <reaction>  (2) 
rxn_296

>  <mol_properties>  (2) 
{"0": {"label": "acceptor", "atom_type": "O2s"}}

>  <type>  (2) 
r2

$$$$

     RDKit          3D

  4  3  0  0  0  0  0  0  0  0999 V2000
    0.5949   -0.3853    0.2659 O   0  0  0  0  0  0  0  0  0  0  0  0
   -0.5918    0.4028    0.2462 O   0  0  0  0  0  0  0  0  0  0  0  0
    1.1865    0.1539   -0.2689 H   0  0  0  0  0  0  0  0  0  0  0  0
   -1.1896   -0.1714   -0.2432 H   0  0  0  0  0  0  0  0  0  0  0  0
  1  2  1  0
  1  3  1  0
  2  4  1  0
M  END
>  <reaction>  (3) 
rxn_296

>  <mol_properties>  (3) 
{"0": {"label": "acceptor", "atom_type": "O2s"}, "3": {"label": "a_hydrogen", "atom_type": "H0"}}

>  <type>  (3) 
r2h

$$$$

     RDKit          3D

 11  9  0  0  0  0  0  0  0  0999 V2000
   -0.2908    0.8328    1.0839 O   0  0  0  0  0  0  0  0  0  0  0  0
    0.3081    1.5957    0.0890 O   0  0  0  0  0  0  0  0  0  0  0  0
   -0.4378    1.8518   -0.4656 H   0  0  0  0  0  0  0  0  0  0  0  0
   -0.0842   -1.3330   -1.2679 C   0  0  0  0  0  0  0  0  0  0  0  0
    0.0259   -1.5099    0.2145 C   0  0  0  0  0  3  0  0  0  0  0  0
   -1.0844   -1.0082   -1.5596 H   0  0  0  0  0  0  0  0  0  0  0  0
    0.6394   -0.6017   -1.6320 H   0  0  0  0  0  0  0  0  0  0  0  0
    0.1166   -2.2771   -1.7869 H   0  0  0  0  0  0  0  0  0  0  0  0
   -0.1424   -0.2682    0.7414 H   0  0  0  0  0  0  0  0  0  0  0  0
    1.0134   -1.7650    0.5923 H   0  0  0  0  0  0  0  0  0  0  0  0
   -0.7731   -2.0701    0.6951 H   0  0  0  0  0  0  0  0  0  0  0  0
  1  2  1  0
  1  9  1  0
  2  3  1  0
  4  5  1  0
  4  6  1  0
  4  7  1  0
  4  8  1  0
  5 10  1  0
  5 11  1  0
M  RAD  1   5   2
M  END
>  <reaction>  (4) 
rxn_296

>  <mol_properties>  (4) 
{"0": {"label": "*1", "atom_type": "O2s"}, "1": {"label": "*0", "atom_type": "O2s"}, "3": {"label": "*4", "atom_type": "Cs"}, "4": {"label": "*3", "atom_type": "Cs"}, "8": {"label": "*2", "atom_type": "H0"}}

>  <type>  (4) 
ts

$$$$

     RDKit          3D

 11  9  0  0  0  0  0  0  0  0999 V2000
    0.3224    1.0987    0.5727 O   0  0  0  0  0  0  0  0  0  0  0  0
   -0.8879    1.1033    1.3243 O   0  0  0  0  0  0  0  0  0  0  0  0
   -0.6349    0.5769    2.0896 H   0  0  0  0  0  0  0  0  0  0  0  0
    0.3224   -1.1983   -1.8440 C   0  0  0  0  0  0  0  0  0  0  0  0
    0.3224   -1.1983   -0.3212 C   0  0  0  0  0  3  0  0  0  0  0  0
   -0.5585   -0.6898   -2.2399 H   0  0  0  0  0  0  0  0  0  0  0  0
    1.2032   -0.6898   -2.2399 H   0  0  0  0  0  0  0  0  0  0  0  0
    0.3224   -2.2154   -2.2399 H   0  0  0  0  0  0  0  0  0  0  0  0
    0.3224    0.0222    0.1538 H   0  0  0  0  0  0  0  0  0  0  0  0
    1.2032   -1.7069    0.0746 H   0  0  0  0  0  0  0  0  0  0  0  0
   -0.5585   -1.7069    0.0746 H   0  0  0  0  0  0  0  0  0  0  0  0
  1  2  1  0
  1  9  1  0
  2  3  1  0
  4  5  1  0
  4  6  1  0
  4  7  1  0
  4  8  1  0
  5 10  1  0
  5 11  1  0
M  RAD  1   5   2
M  END
>  <reaction>  (5) 
rxn_296

>  <mol_properties>  (5) 
{"0": {"label": "*1", "atom_type": "O2s"}, "1": {"label": "*0", "atom_type": "O2s"}, "3": {"label": "*4", "atom_type": "Cs"}, "4": {"label": "*3", "atom_type": "Cs"}, "8": {"label": "*2", "atom_type": "H0"}}

>  <type>  (5) 
unop_1

>  <geom_source>  (5) 
Heuristics

$$$$

     RDKit          3D

 11  9  0  0  0  0  0  0  0  0999 V2000
    0.2029    0.9041    1.0595 O   0  0  0  0  0  0  0  0  0  0  0  0
   -0.4959    1.6010    0.0320 O   0  0  0  0  0  0  0  0  0  0  0  0
   -1.3988    1.5674    0.3639 H   0  0  0  0  0  0  0  0  0  0  0  0
    0.2029   -1.3929   -1.3573 C   0  0  0  0  0  0  0  0  0  0  0  0
    0.2029   -1.3929    0.1655 C   0  0  0  0  0  3  0  0  0  0  0  0
   -0.6780   -0.8844   -1.7531 H   0  0  0  0  0  0  0  0  0  0  0  0
    1.0837   -0.8844   -1.7531 H   0  0  0  0  0  0  0  0  0  0  0  0
    0.2029   -2.4101   -1.7531 H   0  0  0  0  0  0  0  0  0  0  0  0
    0.2029   -0.1724    0.6405 H   0  0  0  0  0  0  0  0  0  0  0  0
    1.0837   -1.9015    0.5613 H   0  0  0  0  0  0  0  0  0  0  0  0
   -0.6780   -1.9015    0.5613 H   0  0  0  0  0  0  0  0  0  0  0  0
  1  2  1  0
  1  9  1  0
  2  3  1  0
  4  5  1  0
  4  6  1  0
  4  7  1  0
  4  8  1  0
  5 10  1  0
  5 11  1  0
M  RAD  1   5   2
M  END
>  <reaction>  (6) 
rxn_296

>  <mol_properties>  (6) 
{"0": {"label": "*1", "atom_type": "O2s"}, "1": {"label": "*0", "atom_type": "O2s"}, "3": {"label": "*4", "atom_type": "Cs"}, "4": {"label": "*3", "atom_type": "Cs"}, "8": {"label": "*2", "atom_type": "H0"}}

>  <type>  (6) 
unop_2

>  <geom_source>  (6) 
Heuristics

$$$$

     RDKit          3D

 11  9  0  0  0  0  0  0  0  0999 V2000
    0.1769    1.1442    0.4470 O   0  0  0  0  0  0  0  0  0  0  0  0
   -0.5218    0.9633    1.6753 O   0  0  0  0  0  0  0  0  0  0  0  0
    0.1980    0.7185    2.2657 H   0  0  0  0  0  0  0  0  0  0  0  0
    0.1769   -1.1528   -1.9698 C   0  0  0  0  0  0  0  0  0  0  0  0
    0.1769   -1.1528   -0.4470 C   0  0  0  0  0  3  0  0  0  0  0  0
   -0.7039   -0.6442   -2.3656 H   0  0  0  0  0  0  0  0  0  0  0  0
    1.0578   -0.6442   -2.3656 H   0  0  0  0  0  0  0  0  0  0  0  0
    0.1769   -2.1699   -2.3656 H   0  0  0  0  0  0  0  0  0  0  0  0
    0.1769    0.0677    0.0280 H   0  0  0  0  0  0  0  0  0  0  0  0
    1.0578   -1.6614   -0.0511 H   0  0  0  0  0  0  0  0  0  0  0  0
   -0.7039   -1.6614   -0.0511 H   0  0  0  0  0  0  0  0  0  0  0  0
  1  2  1  0
  1  9  1  0
  2  3  1  0
  4  5  1  0
  4  6  1  0
  4  7  1  0
  4  8  1  0
  5 10  1  0
  5 11  1  0
M  RAD  1   5   2
M  END
>  <reaction>  (7) 
rxn_296

>  <mol_properties>  (7) 
{"0": {"label": "*1", "atom_type": "O2s"}, "1": {"label": "*0", "atom_type": "O2s"}, "3": {"label": "*4", "atom_type": "Cs"}, "4": {"label": "*3", "atom_type": "Cs"}, "8": {"label": "*2", "atom_type": "H0"}}

>  <type>  (7) 
unop_3

>  <geom_source>  (7) 
Heuristics

$$$$

     RDKit          3D

 11  9  0  0  0  0  0  0  0  0999 V2000
   -0.3229    0.9387    0.9378 O   0  0  0  0  0  0  0  0  0  0  0  0
    0.8874    1.4501    0.3870 O   0  0  0  0  0  0  0  0  0  0  0  0
    0.6693    2.3826    0.2899 H   0  0  0  0  0  0  0  0  0  0  0  0
   -0.3229   -1.3584   -1.4790 C   0  0  0  0  0  0  0  0  0  0  0  0
   -0.3229   -1.3584    0.0438 C   0  0  0  0  0  3  0  0  0  0  0  0
   -1.2038   -0.8498   -1.8748 H   0  0  0  0  0  0  0  0  0  0  0  0
    0.5579   -0.8498   -1.8748 H   0  0  0  0  0  0  0  0  0  0  0  0
   -0.3229   -2.3755   -1.8748 H   0  0  0  0  0  0  0  0  0  0  0  0
   -0.3229   -0.1378    0.5188 H   0  0  0  0  0  0  0  0  0  0  0  0
    0.5579   -1.8669    0.4396 H   0  0  0  0  0  0  0  0  0  0  0  0
   -1.2038   -1.8669    0.4396 H   0  0  0  0  0  0  0  0  0  0  0  0
  1  2  1  0
  1  9  1  0
  2  3  1  0
  4  5  1  0
  4  6  1  0
  4  7  1  0
  4  8  1  0
  5 10  1  0
  5 11  1  0
M  RAD  1   5   2
M  END
>  <reaction>  (8) 
rxn_296

>  <mol_properties>  (8) 
{"0": {"label": "*1", "atom_type": "O2s"}, "1": {"label": "*0", "atom_type": "O2s"}, "3": {"label": "*4", "atom_type": "Cs"}, "4": {"label": "*3", "atom_type": "Cs"}, "8": {"label": "*2", "atom_type": "H0"}}

>  <type>  (8) 
unop_4

>  <geom_source>  (8) 
Heuristics

$$$$

     RDKit          3D

 11  9  0  0  0  0  0  0  0  0999 V2000
   -0.0138    1.1530    0.4053 O   0  0  0  0  0  0  0  0  0  0  0  0
   -0.0138    0.9042    1.8081 O   0  0  0  0  0  0  0  0  0  0  0  0
    0.8470    1.2538    2.0601 H   0  0  0  0  0  0  0  0  0  0  0  0
   -0.0138   -1.1440   -2.0114 C   0  0  0  0  0  0  0  0  0  0  0  0
   -0.0138   -1.1440   -0.4886 C   0  0  0  0  0  3  0  0  0  0  0  0
   -0.8946   -0.6354   -2.4073 H   0  0  0  0  0  0  0  0  0  0  0  0
    0.8671   -0.6354   -2.4073 H   0  0  0  0  0  0  0  0  0  0  0  0
   -0.0138   -2.1611   -2.4073 H   0  0  0  0  0  0  0  0  0  0  0  0
   -0.0138    0.0765   -0.0136 H   0  0  0  0  0  0  0  0  0  0  0  0
    0.8671   -1.6525   -0.0928 H   0  0  0  0  0  0  0  0  0  0  0  0
   -0.8946   -1.6525   -0.0928 H   0  0  0  0  0  0  0  0  0  0  0  0
  1  2  1  0
  1  9  1  0
  2  3  1  0
  4  5  1  0
  4  6  1  0
  4  7  1  0
  4  8  1  0
  5 10  1  0
  5 11  1  0
M  RAD  1   5   2
M  END
>  <reaction>  (9) 
rxn_296

>  <mol_properties>  (9) 
{"0": {"label": "*1", "atom_type": "O2s"}, "1": {"label": "*0", "atom_type": "O2s"}, "3": {"label": "*4", "atom_type": "Cs"}, "4": {"label": "*3", "atom_type": "Cs"}, "8": {"label": "*2", "atom_type": "H0"}}

>  <type>  (9) 
unop_5

>  <geom_source>  (9) 
Heuristics

$$$$

     RDKit          3D

 11  9  0  0  0  0  0  0  0  0999 V2000
   -0.3772    1.0066    0.7613 O   0  0  0  0  0  0  0  0  0  0  0  0
    1.0203    1.2645    0.8617 O   0  0  0  0  0  0  0  0  0  0  0  0
    1.0366    2.2261    0.8191 H   0  0  0  0  0  0  0  0  0  0  0  0
   -0.3772   -1.2905   -1.6555 C   0  0  0  0  0  0  0  0  0  0  0  0
   -0.3772   -1.2905   -0.1327 C   0  0  0  0  0  3  0  0  0  0  0  0
   -1.2580   -0.7819   -2.0513 H   0  0  0  0  0  0  0  0  0  0  0  0
    0.5037   -0.7819   -2.0513 H   0  0  0  0  0  0  0  0  0  0  0  0
   -0.3772   -2.3076   -2.0513 H   0  0  0  0  0  0  0  0  0  0  0  0
   -0.3772   -0.0699    0.3423 H   0  0  0  0  0  0  0  0  0  0  0  0
    0.5037   -1.7990    0.2632 H   0  0  0  0  0  0  0  0  0  0  0  0
   -1.2580   -1.7990    0.2632 H   0  0  0  0  0  0  0  0  0  0  0  0
  1  2  1  0
  1  9  1  0
  2  3  1  0
  4  5  1  0
  4  6  1  0
  4  7  1  0
  4  8  1  0
  5 10  1  0
  5 11  1  0
M  RAD  1   5   2
M  END
>  <reaction>  (10) 
rxn_296

>  <mol_properties>  (10) 
{"0": {"label": "*1", "atom_type": "O2s"}, "1": {"label": "*0", "atom_type": "O2s"}, "3": {"label": "*4", "atom_type": "Cs"}, "4": {"label": "*3", "atom_type": "Cs"}, "8": {"label": "*2", "atom_type": "H0"}}

>  <type>  (10) 
unop_6

>  <geom_source>  (10) 
Heuristics

$$$$

     RDKit          3D

 11  9  0  0  0  0  0  0  0  0999 V2000
   -0.3299    1.0753    0.5851 O   0  0  0  0  0  0  0  0  0  0  0  0
    0.8803    1.0799    1.3367 O   0  0  0  0  0  0  0  0  0  0  0  0
    1.1019    2.0166    1.3288 H   0  0  0  0  0  0  0  0  0  0  0  0
   -0.3299   -1.2217   -1.8317 C   0  0  0  0  0  0  0  0  0  0  0  0
   -0.3299   -1.2217   -0.3089 C   0  0  0  0  0  3  0  0  0  0  0  0
   -1.2108   -0.7132   -2.2275 H   0  0  0  0  0  0  0  0  0  0  0  0
    0.5509   -0.7132   -2.2275 H   0  0  0  0  0  0  0  0  0  0  0  0
   -0.3299   -2.2388   -2.2275 H   0  0  0  0  0  0  0  0  0  0  0  0
   -0.3299   -0.0012    0.1662 H   0  0  0  0  0  0  0  0  0  0  0  0
    0.5509   -1.7303    0.0870 H   0  0  0  0  0  0  0  0  0  0  0  0
   -1.2108   -1.7303    0.0870 H   0  0  0  0  0  0  0  0  0  0  0  0
  1  2  1  0
  1  9  1  0
  2  3  1  0
  4  5  1  0
  4  6  1  0
  4  7  1  0
  4  8  1  0
  5 10  1  0
  5 11  1  0
M  RAD  1   5   2
M  END
>  <reaction>  (11) 
rxn_296

>  <mol_properties>  (11) 
{"0": {"label": "*1", "atom_type": "O2s"}, "1": {"label": "*0", "atom_type": "O2s"}, "3": {"label": "*4", "atom_type": "Cs"}, "4": {"label": "*3", "atom_type": "Cs"}, "8": {"label": "*2", "atom_type": "H0"}}

>  <type>  (11) 
unop_7

>  <geom_source>  (11) 
Heuristics

$$$$

     RDKit          3D

 11  9  0  0  0  0  0  0  0  0999 V2000
    0.3807    1.0307    0.7485 O   0  0  0  0  0  0  0  0  0  0  0  0
   -1.0168    1.2887    0.8489 O   0  0  0  0  0  0  0  0  0  0  0  0
   -1.2544    0.7408    1.6039 H   0  0  0  0  0  0  0  0  0  0  0  0
    0.3807   -1.2663   -1.6682 C   0  0  0  0  0  0  0  0  0  0  0  0
    0.3807   -1.2663   -0.1454 C   0  0  0  0  0  3  0  0  0  0  0  0
   -0.5001   -0.7578   -2.0641 H   0  0  0  0  0  0  0  0  0  0  0  0
    1.2615   -0.7578   -2.0641 H   0  0  0  0  0  0  0  0  0  0  0  0
    0.3807   -2.2834   -2.0641 H   0  0  0  0  0  0  0  0  0  0  0  0
    0.3807   -0.0458    0.3296 H   0  0  0  0  0  0  0  0  0  0  0  0
    1.2615   -1.7749    0.2504 H   0  0  0  0  0  0  0  0  0  0  0  0
   -0.5001   -1.7749    0.2504 H   0  0  0  0  0  0  0  0  0  0  0  0
  1  2  1  0
  1  9  1  0
  2  3  1  0
  4  5  1  0
  4  6  1  0
  4  7  1  0
  4  8  1  0
  5 10  1  0
  5 11  1  0
M  RAD  1   5   2
M  END
>  <reaction>  (12) 
rxn_296

>  <mol_properties>  (12) 
{"0": {"label": "*1", "atom_type": "O2s"}, "1": {"label": "*0", "atom_type": "O2s"}, "3": {"label": "*4", "atom_type": "Cs"}, "4": {"label": "*3", "atom_type": "Cs"}, "8": {"label": "*2", "atom_type": "H0"}}

>  <type>  (12) 
unop_8

>  <geom_source>  (12) 
Heuristics

$$$$

     RDKit          3D

 11  9  0  0  0  0  0  0  0  0999 V2000
   -0.1797    0.8910    1.0664 O   0  0  0  0  0  0  0  0  0  0  0  0
    0.5191    1.5879    0.0389 O   0  0  0  0  0  0  0  0  0  0  0  0
   -0.0296    2.3725   -0.0614 H   0  0  0  0  0  0  0  0  0  0  0  0
   -0.1797   -1.4060   -1.3504 C   0  0  0  0  0  0  0  0  0  0  0  0
   -0.1797   -1.4060    0.1724 C   0  0  0  0  0  3  0  0  0  0  0  0
   -1.0605   -0.8975   -1.7462 H   0  0  0  0  0  0  0  0  0  0  0  0
    0.7012   -0.8975   -1.7462 H   0  0  0  0  0  0  0  0  0  0  0  0
   -0.1797   -2.4231   -1.7462 H   0  0  0  0  0  0  0  0  0  0  0  0
   -0.1797   -0.1855    0.6474 H   0  0  0  0  0  0  0  0  0  0  0  0
    0.7012   -1.9146    0.5683 H   0  0  0  0  0  0  0  0  0  0  0  0
   -1.0605   -1.9146    0.5683 H   0  0  0  0  0  0  0  0  0  0  0  0
  1  2  1  0
  1  9  1  0
  2  3  1  0
  4  5  1  0
  4  6  1  0
  4  7  1  0
  4  8  1  0
  5 10  1  0
  5 11  1  0
M  RAD  1   5   2
M  END
>  <reaction>  (13) 
rxn_296

>  <mol_properties>  (13) 
{"0": {"label": "*1", "atom_type": "O2s"}, "1": {"label": "*0", "atom_type": "O2s"}, "3": {"label": "*4", "atom_type": "Cs"}, "4": {"label": "*3", "atom_type": "Cs"}, "8": {"label": "*2", "atom_type": "H0"}}

>  <type>  (13) 
unop_9

>  <geom_source>  (13) 
Heuristics

$$$$

     RDKit          3D

 11  9  0  0  0  0  0  0  0  0999 V2000
    0.3368    0.9597    0.9267 O   0  0  0  0  0  0  0  0  0  0  0  0
   -0.8734    1.4711    0.3759 O   0  0  0  0  0  0  0  0  0  0  0  0
   -1.5260    1.0906    0.9726 H   0  0  0  0  0  0  0  0  0  0  0  0
    0.3368   -1.3374   -1.4901 C   0  0  0  0  0  0  0  0  0  0  0  0
    0.3368   -1.3374    0.0327 C   0  0  0  0  0  3  0  0  0  0  0  0
   -0.5440   -0.8288   -1.8859 H   0  0  0  0  0  0  0  0  0  0  0  0
    1.2177   -0.8288   -1.8859 H   0  0  0  0  0  0  0  0  0  0  0  0
    0.3368   -2.3545   -1.8859 H   0  0  0  0  0  0  0  0  0  0  0  0
    0.3368   -0.1168    0.5077 H   0  0  0  0  0  0  0  0  0  0  0  0
    1.2177   -1.8459    0.4286 H   0  0  0  0  0  0  0  0  0  0  0  0
   -0.5440   -1.8459    0.4286 H   0  0  0  0  0  0  0  0  0  0  0  0
  1  2  1  0
  1  9  1  0
  2  3  1  0
  4  5  1  0
  4  6  1  0
  4  7  1  0
  4  8  1  0
  5 10  1  0
  5 11  1  0
M  RAD  1   5   2
M  END
>  <reaction>  (14) 
rxn_296

>  <mol_properties>  (14) 
{"0": {"label": "*1", "atom_type": "O2s"}, "1": {"label": "*0", "atom_type": "O2s"}, "3": {"label": "*4", "atom_type": "Cs"}, "4": {"label": "*3", "atom_type": "Cs"}, "8": {"label": "*2", "atom_type": "H0"}}

>  <type>  (14) 
unop_10

>  <geom_source>  (14) 
Heuristics

$$$$

     RDKit          3D

 11  9  0  0  0  0  0  0  0  0999 V2000
   -0.1969    1.1274    0.4558 O   0  0  0  0  0  0  0  0  0  0  0  0
    0.5019    0.9465    1.6841 O   0  0  0  0  0  0  0  0  0  0  0  0
    1.0288    1.7513    1.7199 H   0  0  0  0  0  0  0  0  0  0  0  0
   -0.1969   -1.1696   -1.9609 C   0  0  0  0  0  0  0  0  0  0  0  0
   -0.1969   -1.1696   -0.4381 C   0  0  0  0  0  3  0  0  0  0  0  0
   -1.0777   -0.6610   -2.3568 H   0  0  0  0  0  0  0  0  0  0  0  0
    0.6840   -0.6610   -2.3568 H   0  0  0  0  0  0  0  0  0  0  0  0
   -0.1969   -2.1867   -2.3568 H   0  0  0  0  0  0  0  0  0  0  0  0
   -0.1969    0.0510    0.0369 H   0  0  0  0  0  0  0  0  0  0  0  0
    0.6840   -1.6781   -0.0423 H   0  0  0  0  0  0  0  0  0  0  0  0
   -1.0777   -1.6781   -0.0423 H   0  0  0  0  0  0  0  0  0  0  0  0
  1  2  1  0
  1  9  1  0
  2  3  1  0
  4  5  1  0
  4  6  1  0
  4  7  1  0
  4  8  1  0
  5 10  1  0
  5 11  1  0
M  RAD  1   5   2
M  END
>  <reaction>  (15) 
rxn_296

>  <mol_properties>  (15) 
{"0": {"label": "*1", "atom_type": "O2s"}, "1": {"label": "*0", "atom_type": "O2s"}, "3": {"label": "*4", "atom_type": "Cs"}, "4": {"label": "*3", "atom_type": "Cs"}, "8": {"label": "*2", "atom_type": "H0"}}

>  <type>  (15) 
unop_11

>  <geom_source>  (15) 
Heuristics

$$$$

     RDKit          3D

 11  9  0  0  0  0  0  0  0  0999 V2000
    0.0138    0.8784    1.1110 O   0  0  0  0  0  0  0  0  0  0  0  0
    0.0138    1.6432   -0.0909 O   0  0  0  0  0  0  0  0  0  0  0  0
   -0.8470    2.0713   -0.0403 H   0  0  0  0  0  0  0  0  0  0  0  0
    0.0138   -1.4186   -1.3057 C   0  0  0  0  0  0  0  0  0  0  0  0
    0.0138   -1.4186    0.2171 C   0  0  0  0  0  3  0  0  0  0  0  0
   -0.8671   -0.9101   -1.7016 H   0  0  0  0  0  0  0  0  0  0  0  0
    0.8946   -0.9101   -1.7016 H   0  0  0  0  0  0  0  0  0  0  0  0
    0.0138   -2.4357   -1.7016 H   0  0  0  0  0  0  0  0  0  0  0  0
    0.0138   -0.1981    0.6921 H   0  0  0  0  0  0  0  0  0  0  0  0
    0.8946   -1.9272    0.6129 H   0  0  0  0  0  0  0  0  0  0  0  0
   -0.8671   -1.9272    0.6129 H   0  0  0  0  0  0  0  0  0  0  0  0
  1  2  1  0
  1  9  1  0
  2  3  1  0
  4  5  1  0
  4  6  1  0
  4  7  1  0
  4  8  1  0
  5 10  1  0
  5 11  1  0
M  RAD  1   5   2
M  END
>  <reaction>  (16) 
rxn_296

>  <mol_properties>  (16) 
{"0": {"label": "*1", "atom_type": "O2s"}, "1": {"label": "*0", "atom_type": "O2s"}, "3": {"label": "*4", "atom_type": "Cs"}, "4": {"label": "*3", "atom_type": "Cs"}, "8": {"label": "*2", "atom_type": "H0"}}

>  <type>  (16) 
unop_12

>  <geom_source>  (16) 
Heuristics

$$$$

     RDKit          3D

 11  9  0  0  0  0  0  0  0  0999 V2000
    2.4307    0.5315   -0.6630 O   0  0  0  0  0  0  0  0  0  0  0  0
    1.8298    0.4861    0.5072 O   0  0  0  0  0  1  0  0  0  0  0  0
   -1.4394    0.2228   -0.3785 C   0  0  0  0  0  0  0  0  0  0  0  0
   -0.4239   -0.4282    0.5421 C   0  0  0  0  0  0  0  0  0  0  0  0
   -1.2266    1.3091   -0.4583 H   0  0  0  0  0  0  0  0  0  0  0  0
   -2.4637    0.0778    0.0250 H   0  0  0  0  0  0  0  0  0  0  0  0
   -1.3741   -0.2350   -1.3875 H   0  0  0  0  0  0  0  0  0  0  0  0
   -0.4770    0.0307    1.5519 H   0  0  0  0  0  0  0  0  0  0  0  0
   -0.6249   -1.5174    0.6203 H   0  0  0  0  0  0  0  0  0  0  0  0
    3.0682   -0.2264   -0.6457 H   0  0  0  0  0  0  0  0  0  0  0  0
    0.7009   -0.2510    0.2864 H   0  0  0  0  0  0  0  0  0  0  0  0
  1  2  1  0
  1 10  1  0
  3  4  1  0
  3  5  1  0
  3  6  1  0
  3  7  1  0
  4  8  1  0
  4  9  1  0
  4 11  1  0
M  RAD  1   2   2
M  END
>  <reaction>  (17) 
rxn_296

>  <mol_properties>  (17) 
{"0": {"label": "*1", "atom_type": "O2s"}, "1": {"label": "*0", "atom_type": "O2s"}, "3": {"label": "*4", "atom_type": "Cs"}, "4": {"label": "*3", "atom_type": "Cs"}, "8": {"label": "*2", "atom_type": "H0"}}

>  <type>  (17) 
unop_13

>  <geom_source>  (17) 
AutoTST

$$$$
