
     RDKit          3D

 13 12  0  0  0  0  0  0  0  0999 V2000
    3.0977   -0.3549   -0.5105 C   0  0  0  0  0  0  0  0  0  0  0  0
    2.0556    0.4221   -0.2627 C   0  0  0  0  0  0  0  0  0  0  0  0
    0.6313   -0.0354   -0.2366 C   0  0  0  0  0  0  0  0  0  0  0  0
   -0.2567    0.6038   -1.2694 C   0  0  0  0  0  0  0  0  0  0  0  0
    0.1459    1.3456   -2.2891 C   0  0  0  0  0  0  0  0  0  0  0  0
    4.1081    0.0344   -0.5074 H   0  0  0  0  0  0  0  0  0  0  0  0
    2.9777   -1.4116   -0.7243 H   0  0  0  0  0  0  0  0  0  0  0  0
    2.2171    1.4781   -0.0618 H   0  0  0  0  0  0  0  0  0  0  0  0
    0.5865   -1.1233   -0.3540 H   0  0  0  0  0  0  0  0  0  0  0  0
    0.2065    0.1743    0.7521 H   0  0  0  0  0  0  0  0  0  0  0  0
   -1.3190    0.4126   -1.1445 H   0  0  0  0  0  0  0  0  0  0  0  0
    1.1948    1.5564   -2.4628 H   0  0  0  0  0  0  0  0  0  0  0  0
   -0.5644    1.7621   -2.9918 H   0  0  0  0  0  0  0  0  0  0  0  0
  1  2  2  3
  1  6  1  0
  1  7  1  0
  2  3  1  0
  2  8  1  0
  3  4  1  0
  3  9  1  0
  3 10  1  0
  4  5  2  3
  4 11  1  0
  5 12  1  0
  5 13  1  0
M  END
>  <reaction>  (1) 
rxn_1131

>  <mol_properties>  (1) 
{"2": {"label": "donator", "atom_type": "Cs"}, "8": {"label": "d_hydrogen", "atom_type": "H0"}}

>  <type>  (1) 
r1h

$$$$

     RDKit          3D

 11 10  0  0  0  0  0  0  0  0999 V2000
    2.0591    0.2533   -0.1061 C   0  0  0  0  0  0  0  0  0  0  0  0
    0.8045   -0.3111   -0.1535 C   0  0  0  0  0  0  0  0  0  0  0  0
   -0.3816    0.3942   -0.1885 C   0  0  0  0  0  3  0  0  0  0  0  0
   -1.7316   -0.2294   -0.2396 C   0  0  0  0  0  0  0  0  0  0  0  0
    2.9505   -0.3576   -0.0805 H   0  0  0  0  0  0  0  0  0  0  0  0
    2.1872    1.3290   -0.0933 H   0  0  0  0  0  0  0  0  0  0  0  0
    0.7385   -1.3970   -0.1643 H   0  0  0  0  0  0  0  0  0  0  0  0
   -0.3340    1.4795   -0.1783 H   0  0  0  0  0  0  0  0  0  0  0  0
   -1.6704   -1.3186   -0.2461 H   0  0  0  0  0  0  0  0  0  0  0  0
   -2.3404    0.0713    0.6191 H   0  0  0  0  0  0  0  0  0  0  0  0
   -2.2805    0.0851   -1.1331 H   0  0  0  0  0  0  0  0  0  0  0  0
  1  2  2  3
  1  5  1  0
  1  6  1  0
  2  3  1  0
  2  7  1  0
  3  4  1  0
  3  8  1  0
  4  9  1  0
  4 10  1  0
  4 11  1  0
M  RAD  1   3   2
M  END
>  <reaction>  (2) 
rxn_1131

>  <mol_properties>  (2) 
{"2": {"label": "acceptor", "atom_type": "Cs"}}

>  <type>  (2) 
r2

$$$$

     RDKit          3D

 12 11  0  0  0  0  0  0  0  0999 V2000
    1.9877    0.1011    0.4814 C   0  0  0  0  0  0  0  0  0  0  0  0
    0.8179    0.5502    0.0525 C   0  0  0  0  0  0  0  0  0  0  0  0
   -0.2939   -0.2692   -0.5320 C   0  0  0  0  0  0  0  0  0  0  0  0
   -0.0292   -1.7631   -0.6328 C   0  0  0  0  0  0  0  0  0  0  0  0
    2.2522   -0.9490    0.4436 H   0  0  0  0  0  0  0  0  0  0  0  0
    2.7295    0.7757    0.8896 H   0  0  0  0  0  0  0  0  0  0  0  0
    0.6162    1.6164    0.1190 H   0  0  0  0  0  0  0  0  0  0  0  0
   -0.5268    0.1319   -1.5245 H   0  0  0  0  0  0  0  0  0  0  0  0
   -1.1959   -0.0938    0.0644 H   0  0  0  0  0  0  0  0  0  0  0  0
    0.1590   -2.1992    0.3502 H   0  0  0  0  0  0  0  0  0  0  0  0
    0.8382   -1.9701   -1.2626 H   0  0  0  0  0  0  0  0  0  0  0  0
   -0.8879   -2.2759   -1.0672 H   0  0  0  0  0  0  0  0  0  0  0  0
  1  2  2  3
  1  5  1  0
  1  6  1  0
  2  3  1  0
  2  7  1  0
  3  4  1  0
  3  8  1  0
  3  9  1  0
  4 10  1  0
  4 11  1  0
  4 12  1  0
M  END
>  <reaction>  (3) 
rxn_1131

>  <mol_properties>  (3) 
{"0": {"label": "a_hydrogen", "atom_type": "H0"}, "3": {"label": "acceptor", "atom_type": "Cs"}}

>  <type>  (3) 
r2h

$$$$

     RDKit          3D

 24 22  0  0  0  0  0  0  0  0999 V2000
   -0.3103   -2.1726   -1.0739 C   0  0  0  0  0  0  0  0  0  0  0  0
    0.3601   -1.5658   -0.0951 C   0  0  0  0  0  0  0  0  0  0  0  0
   -0.2674   -0.7918    0.9750 C   0  0  0  0  0  0  0  0  0  0  0  0
    0.4251   -0.5655    2.2498 C   0  0  0  0  0  0  0  0  0  0  0  0
    1.7059   -0.8011    2.5315 C   0  0  0  0  0  0  0  0  0  0  0  0
    0.2035   -2.6985   -1.8680 H   0  0  0  0  0  0  0  0  0  0  0  0
   -1.3938   -2.1604   -1.1086 H   0  0  0  0  0  0  0  0  0  0  0  0
    1.4450   -1.5958   -0.1155 H   0  0  0  0  0  0  0  0  0  0  0  0
   -0.3867    0.4194    0.4611 H   0  0  0  0  0  0  0  0  0  0  0  0
   -1.3308   -1.0012    1.0916 H   0  0  0  0  0  0  0  0  0  0  0  0
   -0.1892   -0.1136    3.0238 H   0  0  0  0  0  0  0  0  0  0  0  0
    2.3867   -1.2553    1.8223 H   0  0  0  0  0  0  0  0  0  0  0  0
    2.1124   -0.5536    3.5033 H   0  0  0  0  0  0  0  0  0  0  0  0
   -1.4109    1.2837   -2.4035 C   0  0  0  0  0  0  0  0  0  0  0  0
   -1.4863    1.5869   -1.1006 C   0  0  0  0  0  0  0  0  0  0  0  0
   -0.3757    1.6570   -0.1748 C   0  0  0  0  0  3  0  0  0  0  0  0
    1.0371    1.6940   -0.6860 C   0  0  0  0  0  0  0  0  0  0  0  0
   -2.3022    1.2196   -3.0134 H   0  0  0  0  0  0  0  0  0  0  0  0
   -0.4646    1.0988   -2.8964 H   0  0  0  0  0  0  0  0  0  0  0  0
   -2.4699    1.7600   -0.6723 H   0  0  0  0  0  0  0  0  0  0  0  0
   -0.5590    2.2789    0.6997 H   0  0  0  0  0  0  0  0  0  0  0  0
    1.2356    2.6170   -1.2389 H   0  0  0  0  0  0  0  0  0  0  0  0
    1.7457    1.6328    0.1410 H   0  0  0  0  0  0  0  0  0  0  0  0
    1.2352    0.8565   -1.3584 H   0  0  0  0  0  0  0  0  0  0  0  0
  1  2  2  3
  1  6  1  0
  1  7  1  0
  2  3  1  0
  2  8  1  0
  3  4  1  0
  3  9  1  0
  3 10  1  0
  4  5  2  3
  4 11  1  0
  5 12  1  0
  5 13  1  0
 14 15  2  3
 14 18  1  0
 14 19  1  0
 15 16  1  0
 15 20  1  0
 16 17  1  0
 16 21  1  0
 17 22  1  0
 17 23  1  0
 17 24  1  0
M  RAD  1  16   2
M  END
>  <reaction>  (4) 
rxn_1131

>  <mol_properties>  (4) 
{"1": {"label": "*0", "atom_type": "Cd"}, "2": {"label": "*1", "atom_type": "Cs"}, "8": {"label": "*2", "atom_type": "H0"}, "14": {"label": "*4", "atom_type": "Cd"}, "15": {"label": "*3", "atom_type": "Cs"}}

>  <type>  (4) 
ts

$$$$

     RDKit          3D

 24 22  0  0  0  0  0  0  0  0999 V2000
   -0.0046   -2.1857   -1.2007 C   0  0  0  0  0  0  0  0  0  0  0  0
   -0.0046   -2.1857    0.1226 C   0  0  0  0  0  0  0  0  0  0  0  0
   -0.0046   -0.9599    0.9806 C   0  0  0  0  0  0  0  0  0  0  0  0
    1.2051   -0.8055    1.8618 C   0  0  0  0  0  0  0  0  0  0  0  0
    2.3163   -1.5212    1.7894 C   0  0  0  0  0  0  0  0  0  0  0  0
   -0.0128   -3.1084   -1.7672 H   0  0  0  0  0  0  0  0  0  0  0  0
    0.0018   -1.2602   -1.7666 H   0  0  0  0  0  0  0  0  0  0  0  0
   -0.0020   -3.1344    0.6531 H   0  0  0  0  0  0  0  0  0  0  0  0
   -0.1247    0.1121    0.2300 H   0  0  0  0  0  0  0  0  0  0  0  0
   -0.8926   -0.9734    1.6234 H   0  0  0  0  0  0  0  0  0  0  0  0
    1.1324   -0.0205    2.6095 H   0  0  0  0  0  0  0  0  0  0  0  0
    2.4418   -2.3081    1.0545 H   0  0  0  0  0  0  0  0  0  0  0  0
    3.1445   -1.3369    2.4617 H   0  0  0  0  0  0  0  0  0  0  0  0
   -2.1464    2.8186   -0.8091 C   0  0  0  0  0  0  0  0  0  0  0  0
   -1.4924    1.9062   -0.1064 C   0  0  0  0  0  0  0  0  0  0  0  0
   -0.2448    1.1845   -0.5208 C   0  0  0  0  0  3  0  0  0  0  0  0
    0.3067    1.5535   -1.8889 C   0  0  0  0  0  0  0  0  0  0  0  0
   -3.0431    3.2853   -0.4215 H   0  0  0  0  0  0  0  0  0  0  0  0
   -1.8177    3.1356   -1.7917 H   0  0  0  0  0  0  0  0  0  0  0  0
   -1.8763    1.6335    0.8734 H   0  0  0  0  0  0  0  0  0  0  0  0
    0.5196    1.3591    0.2443 H   0  0  0  0  0  0  0  0  0  0  0  0
    0.5611    2.6139   -1.9407 H   0  0  0  0  0  0  0  0  0  0  0  0
    1.2101    0.9820   -2.1047 H   0  0  0  0  0  0  0  0  0  0  0  0
   -0.4183    1.3442   -2.6779 H   0  0  0  0  0  0  0  0  0  0  0  0
  1  2  2  3
  1  6  1  0
  1  7  1  0
  2  3  1  0
  2  8  1  0
  3  4  1  0
  3  9  1  0
  3 10  1  0
  4  5  2  3
  4 11  1  0
  5 12  1  0
  5 13  1  0
 14 15  2  3
 14 18  1  0
 14 19  1  0
 15 16  1  0
 15 20  1  0
 16 17  1  0
 16 21  1  0
 17 22  1  0
 17 23  1  0
 17 24  1  0
M  RAD  1  16   2
M  END
>  <reaction>  (5) 
rxn_1131

>  <mol_properties>  (5) 
{"1": {"label": "*0", "atom_type": "Cd"}, "2": {"label": "*1", "atom_type": "Cs"}, "8": {"label": "*2", "atom_type": "H0"}, "14": {"label": "*4", "atom_type": "Cd"}, "15": {"label": "*3", "atom_type": "Cs"}}

>  <type>  (5) 
unop_1

>  <geom_source>  (5) 
Heuristics

$$$$

     RDKit          3D

 24 22  0  0  0  0  0  0  0  0999 V2000
   -0.2696   -1.9631   -0.9171 C   0  0  0  0  0  0  0  0  0  0  0  0
   -0.2696   -1.9631    0.4061 C   0  0  0  0  0  0  0  0  0  0  0  0
   -0.2696   -0.7372    1.2641 C   0  0  0  0  0  0  0  0  0  0  0  0
    0.9402   -0.5829    2.1453 C   0  0  0  0  0  0  0  0  0  0  0  0
    2.0513   -1.2986    2.0729 C   0  0  0  0  0  0  0  0  0  0  0  0
   -0.2777   -2.8858   -1.4836 H   0  0  0  0  0  0  0  0  0  0  0  0
   -0.2632   -1.0376   -1.4831 H   0  0  0  0  0  0  0  0  0  0  0  0
   -0.2670   -2.9118    0.9367 H   0  0  0  0  0  0  0  0  0  0  0  0
   -0.3896    0.3347    0.5136 H   0  0  0  0  0  0  0  0  0  0  0  0
   -1.1575   -0.7507    1.9069 H   0  0  0  0  0  0  0  0  0  0  0  0
    0.8675    0.2021    2.8931 H   0  0  0  0  0  0  0  0  0  0  0  0
    2.1768   -2.0854    1.3380 H   0  0  0  0  0  0  0  0  0  0  0  0
    2.8795   -1.1143    2.7452 H   0  0  0  0  0  0  0  0  0  0  0  0
   -1.0974    1.4668   -2.6909 C   0  0  0  0  0  0  0  0  0  0  0  0
   -1.3026    1.0369   -1.4552 C   0  0  0  0  0  0  0  0  0  0  0  0
   -0.5098    1.4072   -0.2373 C   0  0  0  0  0  3  0  0  0  0  0  0
    0.6403    2.3745   -0.4682 C   0  0  0  0  0  0  0  0  0  0  0  0
   -1.7278    1.1398   -3.5081 H   0  0  0  0  0  0  0  0  0  0  0  0
   -0.2990    2.1568   -2.9372 H   0  0  0  0  0  0  0  0  0  0  0  0
   -2.1218    0.3449   -1.2767 H   0  0  0  0  0  0  0  0  0  0  0  0
   -1.1998    1.8248    0.5041 H   0  0  0  0  0  0  0  0  0  0  0  0
    0.2845    3.3231   -0.8751 H   0  0  0  0  0  0  0  0  0  0  0  0
    1.1576    2.5855    0.4684 H   0  0  0  0  0  0  0  0  0  0  0  0
    1.3700    1.9626   -1.1681 H   0  0  0  0  0  0  0  0  0  0  0  0
  1  2  2  3
  1  6  1  0
  1  7  1  0
  2  3  1  0
  2  8  1  0
  3  4  1  0
  3  9  1  0
  3 10  1  0
  4  5  2  3
  4 11  1  0
  5 12  1  0
  5 13  1  0
 14 15  2  3
 14 18  1  0
 14 19  1  0
 15 16  1  0
 15 20  1  0
 16 17  1  0
 16 21  1  0
 17 22  1  0
 17 23  1  0
 17 24  1  0
M  RAD  1  16   2
M  END
>  <reaction>  (6) 
rxn_1131

>  <mol_properties>  (6) 
{"1": {"label": "*0", "atom_type": "Cd"}, "2": {"label": "*1", "atom_type": "Cs"}, "8": {"label": "*2", "atom_type": "H0"}, "14": {"label": "*4", "atom_type": "Cd"}, "15": {"label": "*3", "atom_type": "Cs"}}

>  <type>  (6) 
unop_2

>  <geom_source>  (6) 
Heuristics

$$$$

     RDKit          3D

 24 22  0  0  0  0  0  0  0  0999 V2000
   -0.0160   -2.2248   -1.2915 C   0  0  0  0  0  0  0  0  0  0  0  0
   -0.0160   -2.2248    0.0318 C   0  0  0  0  0  0  0  0  0  0  0  0
   -0.0160   -0.9990    0.8898 C   0  0  0  0  0  0  0  0  0  0  0  0
    1.1937   -0.8447    1.7710 C   0  0  0  0  0  0  0  0  0  0  0  0
    2.3048   -1.5604    1.6985 C   0  0  0  0  0  0  0  0  0  0  0  0
   -0.0242   -3.1476   -1.8580 H   0  0  0  0  0  0  0  0  0  0  0  0
   -0.0097   -1.2994   -1.8575 H   0  0  0  0  0  0  0  0  0  0  0  0
   -0.0135   -3.1736    0.5623 H   0  0  0  0  0  0  0  0  0  0  0  0
   -0.1361    0.0730    0.1392 H   0  0  0  0  0  0  0  0  0  0  0  0
   -0.9040   -1.0125    1.5326 H   0  0  0  0  0  0  0  0  0  0  0  0
    1.1210   -0.0596    2.5187 H   0  0  0  0  0  0  0  0  0  0  0  0
    2.4303   -2.3472    0.9637 H   0  0  0  0  0  0  0  0  0  0  0  0
    3.1330   -1.3761    2.3709 H   0  0  0  0  0  0  0  0  0  0  0  0
   -1.7483    3.1549   -0.2874 C   0  0  0  0  0  0  0  0  0  0  0  0
   -0.9673    2.1965    0.1875 C   0  0  0  0  0  0  0  0  0  0  0  0
   -0.2563    1.1454   -0.6116 C   0  0  0  0  0  3  0  0  0  0  0  0
   -0.4678    1.2054   -2.1161 C   0  0  0  0  0  0  0  0  0  0  0  0
   -2.2195    3.8707    0.3741 H   0  0  0  0  0  0  0  0  0  0  0  0
   -1.9486    3.2648   -1.3466 H   0  0  0  0  0  0  0  0  0  0  0  0
   -0.8079    2.1426    1.2615 H   0  0  0  0  0  0  0  0  0  0  0  0
    0.8138    1.2125   -0.3867 H   0  0  0  0  0  0  0  0  0  0  0  0
   -0.1234    2.1565   -2.5270 H   0  0  0  0  0  0  0  0  0  0  0  0
    0.0844    0.4070   -2.6129 H   0  0  0  0  0  0  0  0  0  0  0  0
   -1.5230    1.0924   -2.3726 H   0  0  0  0  0  0  0  0  0  0  0  0
  1  2  2  3
  1  6  1  0
  1  7  1  0
  2  3  1  0
  2  8  1  0
  3  4  1  0
  3  9  1  0
  3 10  1  0
  4  5  2  3
  4 11  1  0
  5 12  1  0
  5 13  1  0
 14 15  2  3
 14 18  1  0
 14 19  1  0
 15 16  1  0
 15 20  1  0
 16 17  1  0
 16 21  1  0
 17 22  1  0
 17 23  1  0
 17 24  1  0
M  RAD  1  16   2
M  END
>  <reaction>  (7) 
rxn_1131

>  <mol_properties>  (7) 
{"1": {"label": "*0", "atom_type": "Cd"}, "2": {"label": "*1", "atom_type": "Cs"}, "8": {"label": "*2", "atom_type": "H0"}, "14": {"label": "*4", "atom_type": "Cd"}, "15": {"label": "*3", "atom_type": "Cs"}}

>  <type>  (7) 
unop_3

>  <geom_source>  (7) 
Heuristics

$$$$

     RDKit          3D

 24 22  0  0  0  0  0  0  0  0999 V2000
   -0.6955   -2.0462   -1.3288 C   0  0  0  0  0  0  0  0  0  0  0  0
   -0.6955   -2.0462   -0.0056 C   0  0  0  0  0  0  0  0  0  0  0  0
   -0.6955   -0.8204    0.8524 C   0  0  0  0  0  0  0  0  0  0  0  0
    0.5142   -0.6660    1.7336 C   0  0  0  0  0  0  0  0  0  0  0  0
    1.6254   -1.3817    1.6612 C   0  0  0  0  0  0  0  0  0  0  0  0
   -0.7037   -2.9689   -1.8954 H   0  0  0  0  0  0  0  0  0  0  0  0
   -0.6891   -1.1207   -1.8948 H   0  0  0  0  0  0  0  0  0  0  0  0
   -0.6929   -2.9949    0.5250 H   0  0  0  0  0  0  0  0  0  0  0  0
   -0.8156    0.2516    0.1019 H   0  0  0  0  0  0  0  0  0  0  0  0
   -1.5835   -0.8339    1.4952 H   0  0  0  0  0  0  0  0  0  0  0  0
    0.4415    0.1190    2.4814 H   0  0  0  0  0  0  0  0  0  0  0  0
    1.7508   -2.1686    0.9263 H   0  0  0  0  0  0  0  0  0  0  0  0
    2.4536   -1.1974    2.3335 H   0  0  0  0  0  0  0  0  0  0  0  0
    1.3865    1.9702   -1.3967 C   0  0  0  0  0  0  0  0  0  0  0  0
    0.2267    1.3627   -1.5957 C   0  0  0  0  0  0  0  0  0  0  0  0
   -0.9357    1.3240   -0.6490 C   0  0  0  0  0  3  0  0  0  0  0  0
   -0.7404    2.0634    0.6652 C   0  0  0  0  0  0  0  0  0  0  0  0
    2.1683    1.9408   -2.1450 H   0  0  0  0  0  0  0  0  0  0  0  0
    1.6030    2.5177   -0.4870 H   0  0  0  0  0  0  0  0  0  0  0  0
    0.0744    0.8305   -2.5314 H   0  0  0  0  0  0  0  0  0  0  0  0
   -1.8127    1.7234   -1.1701 H   0  0  0  0  0  0  0  0  0  0  0  0
   -0.5453    3.1244    0.4976 H   0  0  0  0  0  0  0  0  0  0  0  0
   -1.6325    1.9816    1.2871 H   0  0  0  0  0  0  0  0  0  0  0  0
    0.0996    1.6535    1.2294 H   0  0  0  0  0  0  0  0  0  0  0  0
  1  2  2  3
  1  6  1  0
  1  7  1  0
  2  3  1  0
  2  8  1  0
  3  4  1  0
  3  9  1  0
  3 10  1  0
  4  5  2  3
  4 11  1  0
  5 12  1  0
  5 13  1  0
 14 15  2  3
 14 18  1  0
 14 19  1  0
 15 16  1  0
 15 20  1  0
 16 17  1  0
 16 21  1  0
 17 22  1  0
 17 23  1  0
 17 24  1  0
M  RAD  1  16   2
M  END
>  <reaction>  (8) 
rxn_1131

>  <mol_properties>  (8) 
{"1": {"label": "*0", "atom_type": "Cd"}, "2": {"label": "*1", "atom_type": "Cs"}, "8": {"label": "*2", "atom_type": "H0"}, "14": {"label": "*4", "atom_type": "Cd"}, "15": {"label": "*3", "atom_type": "Cs"}}

>  <type>  (8) 
unop_4

>  <geom_source>  (8) 
Heuristics

$$$$

     RDKit          3D

 24 22  0  0  0  0  0  0  0  0999 V2000
   -0.0301   -2.2294   -1.4465 C   0  0  0  0  0  0  0  0  0  0  0  0
   -0.0301   -2.2294   -0.1233 C   0  0  0  0  0  0  0  0  0  0  0  0
   -0.0301   -1.0036    0.7347 C   0  0  0  0  0  0  0  0  0  0  0  0
    1.1797   -0.8492    1.6159 C   0  0  0  0  0  0  0  0  0  0  0  0
    2.2908   -1.5649    1.5435 C   0  0  0  0  0  0  0  0  0  0  0  0
   -0.0382   -3.1521   -2.0131 H   0  0  0  0  0  0  0  0  0  0  0  0
   -0.0237   -1.3039   -2.0125 H   0  0  0  0  0  0  0  0  0  0  0  0
   -0.0275   -3.1781    0.4072 H   0  0  0  0  0  0  0  0  0  0  0  0
   -0.1501    0.0684   -0.0158 H   0  0  0  0  0  0  0  0  0  0  0  0
   -0.9180   -1.0170    1.3775 H   0  0  0  0  0  0  0  0  0  0  0  0
    1.1070   -0.0642    2.3636 H   0  0  0  0  0  0  0  0  0  0  0  0
    2.4163   -2.3517    0.8086 H   0  0  0  0  0  0  0  0  0  0  0  0
    3.1190   -1.3806    2.2158 H   0  0  0  0  0  0  0  0  0  0  0  0
   -1.2039    3.2731    0.2086 C   0  0  0  0  0  0  0  0  0  0  0  0
   -0.2656    2.3417    0.1316 C   0  0  0  0  0  0  0  0  0  0  0  0
   -0.2703    1.1408   -0.7667 C   0  0  0  0  0  3  0  0  0  0  0  0
   -1.4841    0.9990   -1.6713 C   0  0  0  0  0  0  0  0  0  0  0  0
   -1.1089    4.1068    0.8927 H   0  0  0  0  0  0  0  0  0  0  0  0
   -2.0985    3.2435   -0.4023 H   0  0  0  0  0  0  0  0  0  0  0  0
    0.6074    2.4315    0.7732 H   0  0  0  0  0  0  0  0  0  0  0  0
    0.6413    1.1664   -1.3739 H   0  0  0  0  0  0  0  0  0  0  0  0
   -1.5813    1.8556   -2.3411 H   0  0  0  0  0  0  0  0  0  0  0  0
   -1.4013    0.1018   -2.2858 H   0  0  0  0  0  0  0  0  0  0  0  0
   -2.4049    0.9226   -1.0897 H   0  0  0  0  0  0  0  0  0  0  0  0
  1  2  2  3
  1  6  1  0
  1  7  1  0
  2  3  1  0
  2  8  1  0
  3  4  1  0
  3  9  1  0
  3 10  1  0
  4  5  2  3
  4 11  1  0
  5 12  1  0
  5 13  1  0
 14 15  2  3
 14 18  1  0
 14 19  1  0
 15 16  1  0
 15 20  1  0
 16 17  1  0
 16 21  1  0
 17 22  1  0
 17 23  1  0
 17 24  1  0
M  RAD  1  16   2
M  END
>  <reaction>  (9) 
rxn_1131

>  <mol_properties>  (9) 
{"1": {"label": "*0", "atom_type": "Cd"}, "2": {"label": "*1", "atom_type": "Cs"}, "8": {"label": "*2", "atom_type": "H0"}, "14": {"label": "*4", "atom_type": "Cd"}, "15": {"label": "*3", "atom_type": "Cs"}}

>  <type>  (9) 
unop_5

>  <geom_source>  (9) 
Heuristics

$$$$

     RDKit          3D

 24 22  0  0  0  0  0  0  0  0999 V2000
   -0.6138   -2.1275   -1.5175 C   0  0  0  0  0  0  0  0  0  0  0  0
   -0.6138   -2.1275   -0.1943 C   0  0  0  0  0  0  0  0  0  0  0  0
   -0.6138   -0.9017    0.6637 C   0  0  0  0  0  0  0  0  0  0  0  0
    0.5959   -0.7474    1.5449 C   0  0  0  0  0  0  0  0  0  0  0  0
    1.7070   -1.4631    1.4725 C   0  0  0  0  0  0  0  0  0  0  0  0
   -0.6220   -3.0503   -2.0841 H   0  0  0  0  0  0  0  0  0  0  0  0
   -0.6075   -1.2021   -2.0835 H   0  0  0  0  0  0  0  0  0  0  0  0
   -0.6113   -3.0763    0.3362 H   0  0  0  0  0  0  0  0  0  0  0  0
   -0.7339    0.1702   -0.0868 H   0  0  0  0  0  0  0  0  0  0  0  0
   -1.5018   -0.9152    1.3065 H   0  0  0  0  0  0  0  0  0  0  0  0
    0.5232    0.0376    2.2926 H   0  0  0  0  0  0  0  0  0  0  0  0
    1.8325   -2.2499    0.7376 H   0  0  0  0  0  0  0  0  0  0  0  0
    2.5353   -1.2788    2.1448 H   0  0  0  0  0  0  0  0  0  0  0  0
    1.3199    2.4797   -0.5011 C   0  0  0  0  0  0  0  0  0  0  0  0
    0.5221    1.7023   -1.2174 C   0  0  0  0  0  0  0  0  0  0  0  0
   -0.8540    1.2427   -0.8377 C   0  0  0  0  0  3  0  0  0  0  0  0
   -1.3638    1.7306    0.5092 C   0  0  0  0  0  0  0  0  0  0  0  0
    2.3015    2.7578   -0.8633 H   0  0  0  0  0  0  0  0  0  0  0  0
    1.0299    2.8681    0.4680 H   0  0  0  0  0  0  0  0  0  0  0  0
    0.8747    1.3467   -2.1823 H   0  0  0  0  0  0  0  0  0  0  0  0
   -1.5465    1.5520   -1.6282 H   0  0  0  0  0  0  0  0  0  0  0  0
   -1.4083    2.8208    0.5446 H   0  0  0  0  0  0  0  0  0  0  0  0
   -2.3672    1.3486    0.7003 H   0  0  0  0  0  0  0  0  0  0  0  0
   -0.7174    1.3952    1.3225 H   0  0  0  0  0  0  0  0  0  0  0  0
  1  2  2  3
  1  6  1  0
  1  7  1  0
  2  3  1  0
  2  8  1  0
  3  4  1  0
  3  9  1  0
  3 10  1  0
  4  5  2  3
  4 11  1  0
  5 12  1  0
  5 13  1  0
 14 15  2  3
 14 18  1  0
 14 19  1  0
 15 16  1  0
 15 20  1  0
 16 17  1  0
 16 21  1  0
 17 22  1  0
 17 23  1  0
 17 24  1  0
M  RAD  1  16   2
M  END
>  <reaction>  (10) 
rxn_1131

>  <mol_properties>  (10) 
{"1": {"label": "*0", "atom_type": "Cd"}, "2": {"label": "*1", "atom_type": "Cs"}, "8": {"label": "*2", "atom_type": "H0"}, "14": {"label": "*4", "atom_type": "Cd"}, "15": {"label": "*3", "atom_type": "Cs"}}

>  <type>  (10) 
unop_6

>  <geom_source>  (10) 
Heuristics

$$$$

     RDKit          3D

 24 22  0  0  0  0  0  0  0  0999 V2000
   -0.4286   -2.1907   -1.6347 C   0  0  0  0  0  0  0  0  0  0  0  0
   -0.4286   -2.1907   -0.3115 C   0  0  0  0  0  0  0  0  0  0  0  0
   -0.4286   -0.9649    0.5465 C   0  0  0  0  0  0  0  0  0  0  0  0
    0.7812   -0.8105    1.4278 C   0  0  0  0  0  0  0  0  0  0  0  0
    1.8923   -1.5262    1.3553 C   0  0  0  0  0  0  0  0  0  0  0  0
   -0.4367   -3.1134   -2.2012 H   0  0  0  0  0  0  0  0  0  0  0  0
   -0.4222   -1.2652   -2.2007 H   0  0  0  0  0  0  0  0  0  0  0  0
   -0.4260   -3.1394    0.2191 H   0  0  0  0  0  0  0  0  0  0  0  0
   -0.5486    0.1071   -0.2040 H   0  0  0  0  0  0  0  0  0  0  0  0
   -1.3165   -0.9783    1.1893 H   0  0  0  0  0  0  0  0  0  0  0  0
    0.7085   -0.0255    2.1755 H   0  0  0  0  0  0  0  0  0  0  0  0
    2.0178   -2.3130    0.6205 H   0  0  0  0  0  0  0  0  0  0  0  0
    2.7205   -1.3419    2.0277 H   0  0  0  0  0  0  0  0  0  0  0  0
    0.7135    2.9280    0.2292 C   0  0  0  0  0  0  0  0  0  0  0  0
    0.5409    2.0389   -0.7371 C   0  0  0  0  0  0  0  0  0  0  0  0
   -0.6688    1.1795   -0.9549 C   0  0  0  0  0  3  0  0  0  0  0  0
   -1.7979    1.3647    0.0465 C   0  0  0  0  0  0  0  0  0  0  0  0
    1.6279    3.5028    0.3026 H   0  0  0  0  0  0  0  0  0  0  0  0
   -0.0434    3.1181    0.9809 H   0  0  0  0  0  0  0  0  0  0  0  0
    1.3407    1.8969   -1.4596 H   0  0  0  0  0  0  0  0  0  0  0  0
   -1.0405    1.3655   -1.9685 H   0  0  0  0  0  0  0  0  0  0  0  0
   -2.1721    2.3903    0.0365 H   0  0  0  0  0  0  0  0  0  0  0  0
   -2.6315    0.7023   -0.1892 H   0  0  0  0  0  0  0  0  0  0  0  0
   -1.4676    1.1387    1.0622 H   0  0  0  0  0  0  0  0  0  0  0  0
  1  2  2  3
  1  6  1  0
  1  7  1  0
  2  3  1  0
  2  8  1  0
  3  4  1  0
  3  9  1  0
  3 10  1  0
  4  5  2  3
  4 11  1  0
  5 12  1  0
  5 13  1  0
 14 15  2  3
 14 18  1  0
 14 19  1  0
 15 16  1  0
 15 20  1  0
 16 17  1  0
 16 21  1  0
 17 22  1  0
 17 23  1  0
 17 24  1  0
M  RAD  1  16   2
M  END
>  <reaction>  (11) 
rxn_1131

>  <mol_properties>  (11) 
{"1": {"label": "*0", "atom_type": "Cd"}, "2": {"label": "*1", "atom_type": "Cs"}, "8": {"label": "*2", "atom_type": "H0"}, "14": {"label": "*4", "atom_type": "Cd"}, "15": {"label": "*3", "atom_type": "Cs"}}

>  <type>  (11) 
unop_7

>  <geom_source>  (11) 
Heuristics

$$$$

     RDKit          3D

 24 22  0  0  0  0  0  0  0  0999 V2000
   -0.0109   -2.1127   -1.0946 C   0  0  0  0  0  0  0  0  0  0  0  0
   -0.0109   -2.1127    0.2286 C   0  0  0  0  0  0  0  0  0  0  0  0
   -0.0109   -0.8869    1.0866 C   0  0  0  0  0  0  0  0  0  0  0  0
    1.1989   -0.7325    1.9678 C   0  0  0  0  0  0  0  0  0  0  0  0
    2.3100   -1.4482    1.8954 C   0  0  0  0  0  0  0  0  0  0  0  0
   -0.0190   -3.0354   -1.6612 H   0  0  0  0  0  0  0  0  0  0  0  0
   -0.0045   -1.1872   -1.6606 H   0  0  0  0  0  0  0  0  0  0  0  0
   -0.0083   -3.0614    0.7591 H   0  0  0  0  0  0  0  0  0  0  0  0
   -0.1309    0.1851    0.3361 H   0  0  0  0  0  0  0  0  0  0  0  0
   -0.8988   -0.9004    1.7294 H   0  0  0  0  0  0  0  0  0  0  0  0
    1.1262    0.0525    2.7155 H   0  0  0  0  0  0  0  0  0  0  0  0
    2.4355   -2.2351    1.1605 H   0  0  0  0  0  0  0  0  0  0  0  0
    3.1382   -1.2639    2.5677 H   0  0  0  0  0  0  0  0  0  0  0  0
   -2.2669    2.3301   -1.4898 C   0  0  0  0  0  0  0  0  0  0  0  0
   -1.7123    1.5583   -0.5675 C   0  0  0  0  0  0  0  0  0  0  0  0
   -0.2511    1.2575   -0.4148 C   0  0  0  0  0  3  0  0  0  0  0  0
    0.6673    1.9157   -1.4323 C   0  0  0  0  0  0  0  0  0  0  0  0
   -3.3378    2.4863   -1.5174 H   0  0  0  0  0  0  0  0  0  0  0  0
   -1.6810    2.8340   -2.2495 H   0  0  0  0  0  0  0  0  0  0  0  0
   -2.3580    1.0818    0.1660 H   0  0  0  0  0  0  0  0  0  0  0  0
    0.0522    1.5471    0.5973 H   0  0  0  0  0  0  0  0  0  0  0  0
    0.5946    3.0040   -1.3860 H   0  0  0  0  0  0  0  0  0  0  0  0
    1.7060    1.6417   -1.2446 H   0  0  0  0  0  0  0  0  0  0  0  0
    0.4180    1.6065   -2.4492 H   0  0  0  0  0  0  0  0  0  0  0  0
  1  2  2  3
  1  6  1  0
  1  7  1  0
  2  3  1  0
  2  8  1  0
  3  4  1  0
  3  9  1  0
  3 10  1  0
  4  5  2  3
  4 11  1  0
  5 12  1  0
  5 13  1  0
 14 15  2  3
 14 18  1  0
 14 19  1  0
 15 16  1  0
 15 20  1  0
 16 17  1  0
 16 21  1  0
 17 22  1  0
 17 23  1  0
 17 24  1  0
M  RAD  1  16   2
M  END
>  <reaction>  (12) 
rxn_1131

>  <mol_properties>  (12) 
{"1": {"label": "*0", "atom_type": "Cd"}, "2": {"label": "*1", "atom_type": "Cs"}, "8": {"label": "*2", "atom_type": "H0"}, "14": {"label": "*4", "atom_type": "Cd"}, "15": {"label": "*3", "atom_type": "Cs"}}

>  <type>  (12) 
unop_8

>  <geom_source>  (12) 
Heuristics

$$$$

     RDKit          3D

 24 22  0  0  0  0  0  0  0  0999 V2000
   -0.6521   -1.9750   -1.1223 C   0  0  0  0  0  0  0  0  0  0  0  0
   -0.6521   -1.9750    0.2009 C   0  0  0  0  0  0  0  0  0  0  0  0
   -0.6521   -0.7492    1.0589 C   0  0  0  0  0  0  0  0  0  0  0  0
    0.5576   -0.5948    1.9402 C   0  0  0  0  0  0  0  0  0  0  0  0
    1.6688   -1.3105    1.8677 C   0  0  0  0  0  0  0  0  0  0  0  0
   -0.6603   -2.8977   -1.6888 H   0  0  0  0  0  0  0  0  0  0  0  0
   -0.6457   -1.0496   -1.6883 H   0  0  0  0  0  0  0  0  0  0  0  0
   -0.6495   -2.9238    0.7315 H   0  0  0  0  0  0  0  0  0  0  0  0
   -0.7722    0.3228    0.3084 H   0  0  0  0  0  0  0  0  0  0  0  0
   -1.5401   -0.7627    1.7017 H   0  0  0  0  0  0  0  0  0  0  0  0
    0.4849    0.1902    2.6879 H   0  0  0  0  0  0  0  0  0  0  0  0
    1.7943   -2.0974    1.1329 H   0  0  0  0  0  0  0  0  0  0  0  0
    2.4970   -1.1262    2.5401 H   0  0  0  0  0  0  0  0  0  0  0  0
    0.9000    1.5530   -2.2123 C   0  0  0  0  0  0  0  0  0  0  0  0
   -0.2664    1.1044   -1.7739 C   0  0  0  0  0  0  0  0  0  0  0  0
   -0.8923    1.3952   -0.4425 C   0  0  0  0  0  3  0  0  0  0  0  0
   -0.0891    2.2979    0.4805 C   0  0  0  0  0  0  0  0  0  0  0  0
    1.2680    1.2854   -3.1946 H   0  0  0  0  0  0  0  0  0  0  0  0
    1.5311    2.2004   -1.6150 H   0  0  0  0  0  0  0  0  0  0  0  0
   -0.8506    0.4580   -2.4242 H   0  0  0  0  0  0  0  0  0  0  0  0
   -1.8804    1.8340   -0.6193 H   0  0  0  0  0  0  0  0  0  0  0  0
    0.0823    3.2762    0.0271 H   0  0  0  0  0  0  0  0  0  0  0  0
   -0.6190    2.4535    1.4208 H   0  0  0  0  0  0  0  0  0  0  0  0
    0.8842    1.8615    0.7130 H   0  0  0  0  0  0  0  0  0  0  0  0
  1  2  2  3
  1  6  1  0
  1  7  1  0
  2  3  1  0
  2  8  1  0
  3  4  1  0
  3  9  1  0
  3 10  1  0
  4  5  2  3
  4 11  1  0
  5 12  1  0
  5 13  1  0
 14 15  2  3
 14 18  1  0
 14 19  1  0
 15 16  1  0
 15 20  1  0
 16 17  1  0
 16 21  1  0
 17 22  1  0
 17 23  1  0
 17 24  1  0
M  RAD  1  16   2
M  END
>  <reaction>  (13) 
rxn_1131

>  <mol_properties>  (13) 
{"1": {"label": "*0", "atom_type": "Cd"}, "2": {"label": "*1", "atom_type": "Cs"}, "8": {"label": "*2", "atom_type": "H0"}, "14": {"label": "*4", "atom_type": "Cd"}, "15": {"label": "*3", "atom_type": "Cs"}}

>  <type>  (13) 
unop_9

>  <geom_source>  (13) 
Heuristics

$$$$

     RDKit          3D

 24 22  0  0  0  0  0  0  0  0999 V2000
   -0.0937   -2.0284   -0.9813 C   0  0  0  0  0  0  0  0  0  0  0  0
   -0.0937   -2.0284    0.3419 C   0  0  0  0  0  0  0  0  0  0  0  0
   -0.0937   -0.8025    1.1999 C   0  0  0  0  0  0  0  0  0  0  0  0
    1.1160   -0.6482    2.0812 C   0  0  0  0  0  0  0  0  0  0  0  0
    2.2272   -1.3639    2.0087 C   0  0  0  0  0  0  0  0  0  0  0  0
   -0.1019   -2.9511   -1.5478 H   0  0  0  0  0  0  0  0  0  0  0  0
   -0.0873   -1.1029   -1.5473 H   0  0  0  0  0  0  0  0  0  0  0  0
   -0.0911   -2.9771    0.8725 H   0  0  0  0  0  0  0  0  0  0  0  0
   -0.2138    0.2694    0.4494 H   0  0  0  0  0  0  0  0  0  0  0  0
   -0.9817   -0.8160    1.8427 H   0  0  0  0  0  0  0  0  0  0  0  0
    1.0433    0.1368    2.8289 H   0  0  0  0  0  0  0  0  0  0  0  0
    2.3526   -2.1507    1.2739 H   0  0  0  0  0  0  0  0  0  0  0  0
    3.0554   -1.1796    2.6811 H   0  0  0  0  0  0  0  0  0  0  0  0
   -1.9199    1.8281   -2.2034 C   0  0  0  0  0  0  0  0  0  0  0  0
   -1.6287    1.2429   -1.0516 C   0  0  0  0  0  0  0  0  0  0  0  0
   -0.3339    1.3419   -0.3015 C   0  0  0  0  0  3  0  0  0  0  0  0
    0.7376    2.2061   -0.9470 C   0  0  0  0  0  0  0  0  0  0  0  0
   -2.8884    1.6948   -2.6686 H   0  0  0  0  0  0  0  0  0  0  0  0
   -1.2108    2.4590   -2.7261 H   0  0  0  0  0  0  0  0  0  0  0  0
   -2.3863    0.6223   -0.5796 H   0  0  0  0  0  0  0  0  0  0  0  0
   -0.5514    1.7148    0.7054 H   0  0  0  0  0  0  0  0  0  0  0  0
    0.3976    3.2369   -1.0646 H   0  0  0  0  0  0  0  0  0  0  0  0
    1.6397    2.2194   -0.3344 H   0  0  0  0  0  0  0  0  0  0  0  0
    1.0093    1.8285   -1.9347 H   0  0  0  0  0  0  0  0  0  0  0  0
  1  2  2  3
  1  6  1  0
  1  7  1  0
  2  3  1  0
  2  8  1  0
  3  4  1  0
  3  9  1  0
  3 10  1  0
  4  5  2  3
  4 11  1  0
  5 12  1  0
  5 13  1  0
 14 15  2  3
 14 18  1  0
 14 19  1  0
 15 16  1  0
 15 20  1  0
 16 17  1  0
 16 21  1  0
 17 22  1  0
 17 23  1  0
 17 24  1  0
M  RAD  1  16   2
M  END
>  <reaction>  (14) 
rxn_1131

>  <mol_properties>  (14) 
{"1": {"label": "*0", "atom_type": "Cd"}, "2": {"label": "*1", "atom_type": "Cs"}, "8": {"label": "*2", "atom_type": "H0"}, "14": {"label": "*4", "atom_type": "Cd"}, "15": {"label": "*3", "atom_type": "Cs"}}

>  <type>  (14) 
unop_10

>  <geom_source>  (14) 
Heuristics

$$$$

     RDKit          3D

 24 22  0  0  0  0  0  0  0  0999 V2000
   -0.1902   -2.2208   -1.6201 C   0  0  0  0  0  0  0  0  0  0  0  0
   -0.1902   -2.2208   -0.2968 C   0  0  0  0  0  0  0  0  0  0  0  0
   -0.1902   -0.9950    0.5612 C   0  0  0  0  0  0  0  0  0  0  0  0
    1.0195   -0.8407    1.4424 C   0  0  0  0  0  0  0  0  0  0  0  0
    2.1306   -1.5564    1.3699 C   0  0  0  0  0  0  0  0  0  0  0  0
   -0.1984   -3.1436   -2.1866 H   0  0  0  0  0  0  0  0  0  0  0  0
   -0.1839   -1.2954   -2.1861 H   0  0  0  0  0  0  0  0  0  0  0  0
   -0.1877   -3.1696    0.2337 H   0  0  0  0  0  0  0  0  0  0  0  0
   -0.3103    0.0769   -0.1894 H   0  0  0  0  0  0  0  0  0  0  0  0
   -1.0782   -1.0085    1.2039 H   0  0  0  0  0  0  0  0  0  0  0  0
    0.9468   -0.0557    2.1901 H   0  0  0  0  0  0  0  0  0  0  0  0
    2.2561   -2.3432    0.6351 H   0  0  0  0  0  0  0  0  0  0  0  0
    2.9588   -1.3721    2.0423 H   0  0  0  0  0  0  0  0  0  0  0  0
   -0.2737    3.2003    0.5221 C   0  0  0  0  0  0  0  0  0  0  0  0
    0.2772    2.2800   -0.2547 C   0  0  0  0  0  0  0  0  0  0  0  0
   -0.4305    1.1494   -0.9403 C   0  0  0  0  0  3  0  0  0  0  0  0
   -1.9307    1.0716   -0.7056 C   0  0  0  0  0  0  0  0  0  0  0  0
    0.3248    3.9810    0.9742 H   0  0  0  0  0  0  0  0  0  0  0  0
   -1.3355    3.2135    0.7379 H   0  0  0  0  0  0  0  0  0  0  0  0
    1.3491    2.3244   -0.4305 H   0  0  0  0  0  0  0  0  0  0  0  0
   -0.2285    1.2228   -2.0145 H   0  0  0  0  0  0  0  0  0  0  0  0
   -2.4337    1.9754   -1.0549 H   0  0  0  0  0  0  0  0  0  0  0  0
   -2.3587    0.2230   -1.2402 H   0  0  0  0  0  0  0  0  0  0  0  0
   -2.1600    0.9494    0.3548 H   0  0  0  0  0  0  0  0  0  0  0  0
  1  2  2  3
  1  6  1  0
  1  7  1  0
  2  3  1  0
  2  8  1  0
  3  4  1  0
  3  9  1  0
  3 10  1  0
  4  5  2  3
  4 11  1  0
  5 12  1  0
  5 13  1  0
 14 15  2  3
 14 18  1  0
 14 19  1  0
 15 16  1  0
 15 20  1  0
 16 17  1  0
 16 21  1  0
 17 22  1  0
 17 23  1  0
 17 24  1  0
M  RAD  1  16   2
M  END
>  <reaction>  (15) 
rxn_1131

>  <mol_properties>  (15) 
{"1": {"label": "*0", "atom_type": "Cd"}, "2": {"label": "*1", "atom_type": "Cs"}, "8": {"label": "*2", "atom_type": "H0"}, "14": {"label": "*4", "atom_type": "Cd"}, "15": {"label": "*3", "atom_type": "Cs"}}

>  <type>  (15) 
unop_11

>  <geom_source>  (15) 
Heuristics

$$$$

     RDKit          3D

 24 22  0  0  0  0  0  0  0  0999 V2000
   -0.4888   -1.9425   -0.9635 C   0  0  0  0  0  0  0  0  0  0  0  0
   -0.4888   -1.9425    0.3598 C   0  0  0  0  0  0  0  0  0  0  0  0
   -0.4888   -0.7167    1.2178 C   0  0  0  0  0  0  0  0  0  0  0  0
    0.7209   -0.5624    2.0990 C   0  0  0  0  0  0  0  0  0  0  0  0
    1.8321   -1.2781    2.0265 C   0  0  0  0  0  0  0  0  0  0  0  0
   -0.4970   -2.8653   -1.5300 H   0  0  0  0  0  0  0  0  0  0  0  0
   -0.4825   -1.0171   -1.5295 H   0  0  0  0  0  0  0  0  0  0  0  0
   -0.4863   -2.8913    0.8903 H   0  0  0  0  0  0  0  0  0  0  0  0
   -0.6089    0.3553    0.4672 H   0  0  0  0  0  0  0  0  0  0  0  0
   -1.3768   -0.7302    1.8605 H   0  0  0  0  0  0  0  0  0  0  0  0
    0.6482    0.2227    2.8467 H   0  0  0  0  0  0  0  0  0  0  0  0
    1.9575   -2.0649    1.2917 H   0  0  0  0  0  0  0  0  0  0  0  0
    2.6603   -1.0938    2.6989 H   0  0  0  0  0  0  0  0  0  0  0  0
   -0.0270    1.3636   -2.7070 C   0  0  0  0  0  0  0  0  0  0  0  0
   -0.8188    0.9872   -1.7144 C   0  0  0  0  0  0  0  0  0  0  0  0
   -0.7290    1.4277   -0.2836 C   0  0  0  0  0  3  0  0  0  0  0  0
    0.3913    2.4047    0.0363 C   0  0  0  0  0  0  0  0  0  0  0  0
   -0.1734    0.9878   -3.7117 H   0  0  0  0  0  0  0  0  0  0  0  0
    0.7932    2.0564   -2.5604 H   0  0  0  0  0  0  0  0  0  0  0  0
   -1.6237    0.2890   -1.9299 H   0  0  0  0  0  0  0  0  0  0  0  0
   -1.6925    1.8660   -0.0012 H   0  0  0  0  0  0  0  0  0  0  0  0
    0.2892    3.3267   -0.5393 H   0  0  0  0  0  0  0  0  0  0  0  0
    0.3795    2.6680    1.0945 H   0  0  0  0  0  0  0  0  0  0  0  0
    1.3687    1.9747   -0.1908 H   0  0  0  0  0  0  0  0  0  0  0  0
  1  2  2  3
  1  6  1  0
  1  7  1  0
  2  3  1  0
  2  8  1  0
  3  4  1  0
  3  9  1  0
  3 10  1  0
  4  5  2  3
  4 11  1  0
  5 12  1  0
  5 13  1  0
 14 15  2  3
 14 18  1  0
 14 19  1  0
 15 16  1  0
 15 20  1  0
 16 17  1  0
 16 21  1  0
 17 22  1  0
 17 23  1  0
 17 24  1  0
M  RAD  1  16   2
M  END
>  <reaction>  (16) 
rxn_1131

>  <mol_properties>  (16) 
{"1": {"label": "*0", "atom_type": "Cd"}, "2": {"label": "*1", "atom_type": "Cs"}, "8": {"label": "*2", "atom_type": "H0"}, "14": {"label": "*4", "atom_type": "Cd"}, "15": {"label": "*3", "atom_type": "Cs"}}

>  <type>  (16) 
unop_12

>  <geom_source>  (16) 
Heuristics

$$$$

     RDKit          3D

 24 22  0  0  0  0  0  0  0  0999 V2000
    1.2611   -0.8765    0.0587 C   0  0  0  0  0  0  0  0  0  0  0  0
    1.9314   -1.5722   -1.1215 C   0  0  0  0  0  0  0  0  0  0  0  0
    2.1795    0.1263    0.6979 C   0  0  0  0  0  0  0  0  0  0  0  0
   -1.1863    0.1785   -0.1207 C   0  0  0  0  0  3  0  0  0  0  0  0
   -1.8730    1.4830    0.1597 C   0  0  0  0  0  0  0  0  0  0  0  0
   -1.5886   -0.8871    0.8555 C   0  0  0  0  0  0  0  0  0  0  0  0
    2.4845    1.2791    0.0959 C   0  0  0  0  0  0  0  0  0  0  0  0
   -1.4796    2.5994   -0.4549 C   0  0  0  0  0  0  0  0  0  0  0  0
   -2.7834   -1.4810    0.7909 C   0  0  0  0  0  0  0  0  0  0  0  0
    0.9800   -1.6419    0.8135 H   0  0  0  0  0  0  0  0  0  0  0  0
    0.1372   -0.2627   -0.3570 H   0  0  0  0  0  0  0  0  0  0  0  0
    2.8612   -2.0828   -0.7911 H   0  0  0  0  0  0  0  0  0  0  0  0
    2.1771   -0.8369   -1.9165 H   0  0  0  0  0  0  0  0  0  0  0  0
    1.2388   -2.3296   -1.5443 H   0  0  0  0  0  0  0  0  0  0  0  0
    2.5764   -0.0762    1.6883 H   0  0  0  0  0  0  0  0  0  0  0  0
   -1.3614   -0.1498   -1.1682 H   0  0  0  0  0  0  0  0  0  0  0  0
   -2.7026    1.5289    0.8605 H   0  0  0  0  0  0  0  0  0  0  0  0
   -0.8853   -1.1812    1.6279 H   0  0  0  0  0  0  0  0  0  0  0  0
    3.1374    1.9924    0.5882 H   0  0  0  0  0  0  0  0  0  0  0  0
    2.0854    1.5207   -0.8846 H   0  0  0  0  0  0  0  0  0  0  0  0
   -0.6564    2.5863   -1.1631 H   0  0  0  0  0  0  0  0  0  0  0  0
   -1.9834    3.5385   -0.2503 H   0  0  0  0  0  0  0  0  0  0  0  0
   -3.0472   -2.2503    1.5092 H   0  0  0  0  0  0  0  0  0  0  0  0
   -3.5028   -1.2047    0.0258 H   0  0  0  0  0  0  0  0  0  0  0  0
  1  2  1  0
  1  3  1  0
  1 10  1  0
  1 11  1  0
  2 12  1  0
  2 13  1  0
  2 14  1  0
  3  7  2  3
  3 15  1  0
  4  5  1  0
  4  6  1  0
  4 16  1  0
  5  8  2  3
  5 17  1  0
  6  9  2  3
  6 18  1  0
  7 19  1  0
  7 20  1  0
  8 21  1  0
  8 22  1  0
  9 23  1  0
  9 24  1  0
M  RAD  1   4   2
M  END
>  <reaction>  (17) 
rxn_1131

>  <mol_properties>  (17) 
{"1": {"label": "*0", "atom_type": "Cd"}, "2": {"label": "*1", "atom_type": "Cs"}, "8": {"label": "*2", "atom_type": "H0"}, "14": {"label": "*4", "atom_type": "Cd"}, "15": {"label": "*3", "atom_type": "Cs"}}

>  <type>  (17) 
unop_13

>  <geom_source>  (17) 
AutoTST

$$$$
