
     RDKit          3D

  7  6  0  0  0  0  0  0  0  0999 V2000
    1.6964   -0.0938    0.0583 C   0  0  0  0  0  0  0  0  0  0  0  0
    0.5019   -0.0278    0.0173 C   0  0  0  0  0  0  0  0  0  0  0  0
   -0.9505    0.0525   -0.0327 C   0  0  0  0  0  0  0  0  0  0  0  0
    2.7574   -0.1524    0.0947 H   0  0  0  0  0  0  0  0  0  0  0  0
   -1.2692    0.9972   -0.4754 H   0  0  0  0  0  0  0  0  0  0  0  0
   -1.3749   -0.0147    0.9700 H   0  0  0  0  0  0  0  0  0  0  0  0
   -1.3610   -0.7611   -0.6323 H   0  0  0  0  0  0  0  0  0  0  0  0
  1  2  3  0
  1  4  1  0
  2  3  1  0
  3  5  1  0
  3  6  1  0
  3  7  1  0
M  END
>  <reaction>  (1) 
rxn_1234

>  <mol_properties>  (1) 
{"2": {"label": "donator", "atom_type": "Cs"}, "4": {"label": "d_hydrogen", "atom_type": "H0"}}

>  <type>  (1) 
r1h

$$$$

     RDKit          3D

  7  6  0  0  0  0  0  0  0  0999 V2000
    1.3002    0.7433    2.1279 C   0  0  0  0  0  0  0  0  0  0  0  0
    0.5758    0.3292    1.2319 C   0  0  0  0  0  0  0  0  0  0  0  0
   -0.2057   -0.1176    0.2652 C   0  0  0  0  0  3  0  0  0  0  0  0
   -0.9747   -0.5572   -0.6858 C   0  0  0  0  0  0  0  0  0  0  0  0
    1.9293    1.1030    2.9060 H   0  0  0  0  0  0  0  0  0  0  0  0
   -1.9977   -0.8727   -0.4932 H   0  0  0  0  0  0  0  0  0  0  0  0
   -0.6274   -0.6280   -1.7143 H   0  0  0  0  0  0  0  0  0  0  0  0
  1  2  3  0
  1  5  1  0
  2  3  1  0
  3  4  2  3
  4  6  1  0
  4  7  1  0
M  RAD  1   3   2
M  END
>  <reaction>  (2) 
rxn_1234

>  <mol_properties>  (2) 
{"2": {"label": "acceptor", "atom_type": "Cd"}}

>  <type>  (2) 
r2

$$$$

     RDKit          3D

  8  7  0  0  0  0  0  0  0  0999 V2000
    1.9029    0.9046   -0.2050 C   0  0  0  0  0  0  0  0  0  0  0  0
    0.8517    0.4283    0.1217 C   0  0  0  0  0  0  0  0  0  0  0  0
   -0.3908   -0.1311    0.5404 C   0  0  0  0  0  0  0  0  0  0  0  0
   -1.2847   -0.6576   -0.2899 C   0  0  0  0  0  0  0  0  0  0  0  0
    2.8335    1.3255   -0.5014 H   0  0  0  0  0  0  0  0  0  0  0  0
   -0.5867   -0.1096    1.6074 H   0  0  0  0  0  0  0  0  0  0  0  0
   -2.2126   -1.0686    0.0850 H   0  0  0  0  0  0  0  0  0  0  0  0
   -1.1134   -0.6914   -1.3582 H   0  0  0  0  0  0  0  0  0  0  0  0
  1  2  3  0
  1  5  1  0
  2  3  1  0
  3  4  2  3
  3  6  1  0
  4  7  1  0
  4  8  1  0
M  END
>  <reaction>  (3) 
rxn_1234

>  <mol_properties>  (3) 
{"2": {"label": "acceptor", "atom_type": "Cd"}, "7": {"label": "a_hydrogen", "atom_type": "H0"}}

>  <type>  (3) 
r2h

$$$$

     RDKit          3D

 14 12  0  0  0  0  0  0  0  0999 V2000
    0.8839    3.1461    0.5940 C   0  0  0  0  0  0  0  0  0  0  0  0
    0.3814    2.0601    0.7356 C   0  0  0  0  0  0  0  0  0  0  0  0
   -0.1278    0.7662    0.7979 C   0  0  0  0  0  3  0  0  0  0  0  0
   -0.9987    0.1556    1.5755 C   0  0  0  0  0  0  0  0  0  0  0  0
    1.3124    4.1140    0.4909 H   0  0  0  0  0  0  0  0  0  0  0  0
   -1.5010    0.6723    2.3878 H   0  0  0  0  0  0  0  0  0  0  0  0
   -1.2361   -0.8911    1.4190 H   0  0  0  0  0  0  0  0  0  0  0  0
   -0.4426   -3.2077   -0.4923 C   0  0  0  0  0  0  0  0  0  0  0  0
    0.1399   -2.1898   -0.7572 C   0  0  0  0  0  0  0  0  0  0  0  0
    0.8010   -0.9576   -1.0256 C   0  0  0  0  0  0  0  0  0  0  0  0
   -0.9477   -4.1177   -0.2741 H   0  0  0  0  0  0  0  0  0  0  0  0
    0.3816   -0.0821   -0.1615 H   0  0  0  0  0  0  0  0  0  0  0  0
    0.5394   -0.5024   -1.9782 H   0  0  0  0  0  0  0  0  0  0  0  0
    1.8747   -0.9736   -0.8527 H   0  0  0  0  0  0  0  0  0  0  0  0
  1  2  3  0
  1  5  1  0
  2  3  1  0
  3  4  2  3
  4  6  1  0
  4  7  1  0
  8  9  3  0
  8 11  1  0
  9 10  1  0
 10 12  1  0
 10 13  1  0
 10 14  1  0
M  RAD  1   3   2
M  END
>  <reaction>  (4) 
rxn_1234

>  <mol_properties>  (4) 
{"1": {"label": "*4", "atom_type": "Ct"}, "2": {"label": "*3", "atom_type": "Cd"}, "8": {"label": "*0", "atom_type": "Ct"}, "9": {"label": "*1", "atom_type": "Cs"}, "11": {"label": "*2", "atom_type": "H0"}}

>  <type>  (4) 
ts

$$$$

     RDKit          3D

 14 12  0  0  0  0  0  0  0  0999 V2000
   -1.6690    1.6806    2.0961 C   0  0  0  0  0  0  0  0  0  0  0  0
   -0.7494    1.3065    1.4231 C   0  0  0  0  0  0  0  0  0  0  0  0
    0.3229    0.8486    0.6030 C   0  0  0  0  0  0  0  0  0  0  0  0
    1.6062    1.0676    0.8692 C   0  0  0  0  0  0  0  0  0  0  0  0
   -2.4844    2.0123    2.6928 H   0  0  0  0  0  0  0  0  0  0  0  0
    1.9156    1.6205    1.7469 H   0  0  0  0  0  0  0  0  0  0  0  0
    2.3790    0.6955    0.2096 H   0  0  0  0  0  0  0  0  0  0  0  0
    0.1006   -1.5840   -2.9718 C   0  0  0  0  0  0  0  0  0  0  0  0
    0.1006   -1.5840   -1.7748 C   0  0  0  0  0  0  0  0  0  0  0  0
    0.1006   -1.5840   -0.3194 C   0  0  0  0  0  3  0  0  0  0  0  0
    0.1006   -1.5840   -4.0351 H   0  0  0  0  0  0  0  0  0  0  0  0
    0.2121   -0.3644    0.1430 H   0  0  0  0  0  0  0  0  0  0  0  0
    0.9343   -2.1725    0.0660 H   0  0  0  0  0  0  0  0  0  0  0  0
   -0.8260   -2.0117    0.0660 H   0  0  0  0  0  0  0  0  0  0  0  0
  1  2  3  0
  1  5  1  0
  2  3  1  0
  3  4  2  3
  3 12  1  0
  4  6  1  0
  4  7  1  0
  8  9  3  0
  8 11  1  0
  9 10  1  0
 10 13  1  0
 10 14  1  0
M  RAD  1  10   2
M  END
>  <reaction>  (5) 
rxn_1234

>  <mol_properties>  (5) 
{"1": {"label": "*4", "atom_type": "Ct"}, "2": {"label": "*3", "atom_type": "Cd"}, "8": {"label": "*0", "atom_type": "Ct"}, "9": {"label": "*1", "atom_type": "Cs"}, "11": {"label": "*2", "atom_type": "H0"}}

>  <type>  (5) 
unop_1

>  <geom_source>  (5) 
Heuristics

$$$$

     RDKit          3D

 14 12  0  0  0  0  0  0  0  0999 V2000
   -0.7386    2.5116   -0.4292 C   0  0  0  0  0  0  0  0  0  0  0  0
   -0.2768    1.6610    0.2792 C   0  0  0  0  0  0  0  0  0  0  0  0
    0.2723    0.6301    1.0965 C   0  0  0  0  0  0  0  0  0  0  0  0
    0.5572    0.7782    2.3859 C   0  0  0  0  0  0  0  0  0  0  0  0
   -1.1481    3.2657   -1.0573 H   0  0  0  0  0  0  0  0  0  0  0  0
    0.3833    1.7149    2.8998 H   0  0  0  0  0  0  0  0  0  0  0  0
    0.9733   -0.0406    2.9577 H   0  0  0  0  0  0  0  0  0  0  0  0
    0.0500   -1.8025   -2.4784 C   0  0  0  0  0  0  0  0  0  0  0  0
    0.0500   -1.8025   -1.2813 C   0  0  0  0  0  0  0  0  0  0  0  0
    0.0500   -1.8025    0.1741 C   0  0  0  0  0  3  0  0  0  0  0  0
    0.0500   -1.8025   -3.5416 H   0  0  0  0  0  0  0  0  0  0  0  0
    0.1614   -0.5829    0.6365 H   0  0  0  0  0  0  0  0  0  0  0  0
    0.8837   -2.3910    0.5595 H   0  0  0  0  0  0  0  0  0  0  0  0
   -0.8766   -2.2302    0.5595 H   0  0  0  0  0  0  0  0  0  0  0  0
  1  2  3  0
  1  5  1  0
  2  3  1  0
  3  4  2  3
  3 12  1  0
  4  6  1  0
  4  7  1  0
  8  9  3  0
  8 11  1  0
  9 10  1  0
 10 13  1  0
 10 14  1  0
M  RAD  1  10   2
M  END
>  <reaction>  (6) 
rxn_1234

>  <mol_properties>  (6) 
{"1": {"label": "*4", "atom_type": "Ct"}, "2": {"label": "*3", "atom_type": "Cd"}, "8": {"label": "*0", "atom_type": "Ct"}, "9": {"label": "*1", "atom_type": "Cs"}, "11": {"label": "*2", "atom_type": "H0"}}

>  <type>  (6) 
unop_2

>  <geom_source>  (6) 
Heuristics

$$$$

     RDKit          3D

 14 12  0  0  0  0  0  0  0  0999 V2000
   -0.9916    1.3131    2.8475 C   0  0  0  0  0  0  0  0  0  0  0  0
   -0.4507    1.1205    1.7944 C   0  0  0  0  0  0  0  0  0  0  0  0
    0.1697    0.8703    0.5356 C   0  0  0  0  0  0  0  0  0  0  0  0
    1.2774    1.4759    0.1210 C   0  0  0  0  0  0  0  0  0  0  0  0
   -1.4712    1.4839    3.7811 H   0  0  0  0  0  0  0  0  0  0  0  0
    1.7825    2.2121    0.7330 H   0  0  0  0  0  0  0  0  0  0  0  0
    1.7043    1.2458   -0.8461 H   0  0  0  0  0  0  0  0  0  0  0  0
   -0.0526   -1.5624   -3.0392 C   0  0  0  0  0  0  0  0  0  0  0  0
   -0.0526   -1.5624   -1.8422 C   0  0  0  0  0  0  0  0  0  0  0  0
   -0.0526   -1.5624   -0.3868 C   0  0  0  0  0  3  0  0  0  0  0  0
   -0.0526   -1.5624   -4.1025 H   0  0  0  0  0  0  0  0  0  0  0  0
    0.0588   -0.3428    0.0757 H   0  0  0  0  0  0  0  0  0  0  0  0
    0.7811   -2.1509   -0.0014 H   0  0  0  0  0  0  0  0  0  0  0  0
   -0.9792   -1.9901   -0.0014 H   0  0  0  0  0  0  0  0  0  0  0  0
  1  2  3  0
  1  5  1  0
  2  3  1  0
  3  4  2  3
  3 12  1  0
  4  6  1  0
  4  7  1  0
  8  9  3  0
  8 11  1  0
  9 10  1  0
 10 13  1  0
 10 14  1  0
M  RAD  1  10   2
M  END
>  <reaction>  (7) 
rxn_1234

>  <mol_properties>  (7) 
{"1": {"label": "*4", "atom_type": "Ct"}, "2": {"label": "*3", "atom_type": "Cd"}, "8": {"label": "*0", "atom_type": "Ct"}, "9": {"label": "*1", "atom_type": "Cs"}, "11": {"label": "*2", "atom_type": "H0"}}

>  <type>  (7) 
unop_3

>  <geom_source>  (7) 
Heuristics

$$$$

     RDKit          3D

 14 12  0  0  0  0  0  0  0  0999 V2000
    1.8956    2.0444    0.2212 C   0  0  0  0  0  0  0  0  0  0  0  0
    0.9037    1.4631    0.5629 C   0  0  0  0  0  0  0  0  0  0  0  0
   -0.2751    0.7564    0.9414 C   0  0  0  0  0  0  0  0  0  0  0  0
   -0.9032    0.9280    2.0998 C   0  0  0  0  0  0  0  0  0  0  0  0
    2.7751    2.5598   -0.0818 H   0  0  0  0  0  0  0  0  0  0  0  0
   -0.5443    1.6327    2.8389 H   0  0  0  0  0  0  0  0  0  0  0  0
   -1.7956    0.3629    2.3337 H   0  0  0  0  0  0  0  0  0  0  0  0
   -0.4974   -1.6762   -2.6334 C   0  0  0  0  0  0  0  0  0  0  0  0
   -0.4974   -1.6762   -1.4364 C   0  0  0  0  0  0  0  0  0  0  0  0
   -0.4974   -1.6762    0.0190 C   0  0  0  0  0  3  0  0  0  0  0  0
   -0.4974   -1.6762   -3.6967 H   0  0  0  0  0  0  0  0  0  0  0  0
   -0.3859   -0.4566    0.4815 H   0  0  0  0  0  0  0  0  0  0  0  0
    0.3363   -2.2647    0.4044 H   0  0  0  0  0  0  0  0  0  0  0  0
   -1.4240   -2.1039    0.4044 H   0  0  0  0  0  0  0  0  0  0  0  0
  1  2  3  0
  1  5  1  0
  2  3  1  0
  3  4  2  3
  3 12  1  0
  4  6  1  0
  4  7  1  0
  8  9  3  0
  8 11  1  0
  9 10  1  0
 10 13  1  0
 10 14  1  0
M  RAD  1  10   2
M  END
>  <reaction>  (8) 
rxn_1234

>  <mol_properties>  (8) 
{"1": {"label": "*4", "atom_type": "Ct"}, "2": {"label": "*3", "atom_type": "Cd"}, "8": {"label": "*0", "atom_type": "Ct"}, "9": {"label": "*1", "atom_type": "Cs"}, "11": {"label": "*2", "atom_type": "H0"}}

>  <type>  (8) 
unop_4

>  <geom_source>  (8) 
Heuristics

$$$$

     RDKit          3D

 14 12  0  0  0  0  0  0  0  0999 V2000
    0.0975    1.0667    3.1550 C   0  0  0  0  0  0  0  0  0  0  0  0
    0.0898    0.9826    1.9586 C   0  0  0  0  0  0  0  0  0  0  0  0
    0.0778    0.8510    0.5392 C   0  0  0  0  0  0  0  0  0  0  0  0
    0.1714    1.8757   -0.3017 C   0  0  0  0  0  0  0  0  0  0  0  0
    0.1043    1.1413    4.2158 H   0  0  0  0  0  0  0  0  0  0  0  0
    0.2644    2.8935    0.0550 H   0  0  0  0  0  0  0  0  0  0  0  0
    0.1568    1.7159   -1.3716 H   0  0  0  0  0  0  0  0  0  0  0  0
   -0.1445   -1.5816   -3.0356 C   0  0  0  0  0  0  0  0  0  0  0  0
   -0.1445   -1.5816   -1.8386 C   0  0  0  0  0  0  0  0  0  0  0  0
   -0.1445   -1.5816   -0.3832 C   0  0  0  0  0  3  0  0  0  0  0  0
   -0.1445   -1.5816   -4.0989 H   0  0  0  0  0  0  0  0  0  0  0  0
   -0.0331   -0.3620    0.0793 H   0  0  0  0  0  0  0  0  0  0  0  0
    0.6892   -2.1702    0.0022 H   0  0  0  0  0  0  0  0  0  0  0  0
   -1.0711   -2.0093    0.0022 H   0  0  0  0  0  0  0  0  0  0  0  0
  1  2  3  0
  1  5  1  0
  2  3  1  0
  3  4  2  3
  3 12  1  0
  4  6  1  0
  4  7  1  0
  8  9  3  0
  8 11  1  0
  9 10  1  0
 10 13  1  0
 10 14  1  0
M  RAD  1  10   2
M  END
>  <reaction>  (9) 
rxn_1234

>  <mol_properties>  (9) 
{"1": {"label": "*4", "atom_type": "Ct"}, "2": {"label": "*3", "atom_type": "Cd"}, "8": {"label": "*0", "atom_type": "Ct"}, "9": {"label": "*1", "atom_type": "Cs"}, "11": {"label": "*2", "atom_type": "H0"}}

>  <type>  (9) 
unop_5

>  <geom_source>  (9) 
Heuristics

$$$$

     RDKit          3D

 14 12  0  0  0  0  0  0  0  0999 V2000
    2.1816    1.6877    1.1386 C   0  0  0  0  0  0  0  0  0  0  0  0
    1.0557    1.3077    0.9756 C   0  0  0  0  0  0  0  0  0  0  0  0
   -0.2734    0.8420    0.7548 C   0  0  0  0  0  0  0  0  0  0  0  0
   -1.2899    1.0830    1.5760 C   0  0  0  0  0  0  0  0  0  0  0  0
    3.1799    2.0246    1.2832 H   0  0  0  0  0  0  0  0  0  0  0  0
   -1.1607    1.6615    2.4817 H   0  0  0  0  0  0  0  0  0  0  0  0
   -2.2792    0.7035    1.3572 H   0  0  0  0  0  0  0  0  0  0  0  0
   -0.4957   -1.5906   -2.8200 C   0  0  0  0  0  0  0  0  0  0  0  0
   -0.4957   -1.5906   -1.6230 C   0  0  0  0  0  0  0  0  0  0  0  0
   -0.4957   -1.5906   -0.1675 C   0  0  0  0  0  3  0  0  0  0  0  0
   -0.4957   -1.5906   -3.8833 H   0  0  0  0  0  0  0  0  0  0  0  0
   -0.3843   -0.3710    0.2949 H   0  0  0  0  0  0  0  0  0  0  0  0
    0.3380   -2.1792    0.2178 H   0  0  0  0  0  0  0  0  0  0  0  0
   -1.4223   -2.0183    0.2178 H   0  0  0  0  0  0  0  0  0  0  0  0
  1  2  3  0
  1  5  1  0
  2  3  1  0
  3  4  2  3
  3 12  1  0
  4  6  1  0
  4  7  1  0
  8  9  3  0
  8 11  1  0
  9 10  1  0
 10 13  1  0
 10 14  1  0
M  RAD  1  10   2
M  END
>  <reaction>  (10) 
rxn_1234

>  <mol_properties>  (10) 
{"1": {"label": "*4", "atom_type": "Ct"}, "2": {"label": "*3", "atom_type": "Cd"}, "8": {"label": "*0", "atom_type": "Ct"}, "9": {"label": "*1", "atom_type": "Cs"}, "11": {"label": "*2", "atom_type": "H0"}}

>  <type>  (10) 
unop_6

>  <geom_source>  (10) 
Heuristics

$$$$

     RDKit          3D

 14 12  0  0  0  0  0  0  0  0999 V2000
    1.9460    1.3502    2.0961 C   0  0  0  0  0  0  0  0  0  0  0  0
    0.9738    1.1490    1.4231 C   0  0  0  0  0  0  0  0  0  0  0  0
   -0.1637    0.8931    0.6030 C   0  0  0  0  0  0  0  0  0  0  0  0
   -1.3861    1.3411    0.8692 C   0  0  0  0  0  0  0  0  0  0  0  0
    2.8080    1.5286    2.6928 H   0  0  0  0  0  0  0  0  0  0  0  0
   -1.5901    1.9409    1.7469 H   0  0  0  0  0  0  0  0  0  0  0  0
   -2.2135    1.1152    0.2096 H   0  0  0  0  0  0  0  0  0  0  0  0
   -0.3861   -1.5395   -2.9718 C   0  0  0  0  0  0  0  0  0  0  0  0
   -0.3861   -1.5395   -1.7748 C   0  0  0  0  0  0  0  0  0  0  0  0
   -0.3861   -1.5395   -0.3194 C   0  0  0  0  0  3  0  0  0  0  0  0
   -0.3861   -1.5395   -4.0351 H   0  0  0  0  0  0  0  0  0  0  0  0
   -0.2746   -0.3199    0.1430 H   0  0  0  0  0  0  0  0  0  0  0  0
    0.4476   -2.1281    0.0660 H   0  0  0  0  0  0  0  0  0  0  0  0
   -1.3127   -1.9672    0.0660 H   0  0  0  0  0  0  0  0  0  0  0  0
  1  2  3  0
  1  5  1  0
  2  3  1  0
  3  4  2  3
  3 12  1  0
  4  6  1  0
  4  7  1  0
  8  9  3  0
  8 11  1  0
  9 10  1  0
 10 13  1  0
 10 14  1  0
M  RAD  1  10   2
M  END
>  <reaction>  (11) 
rxn_1234

>  <mol_properties>  (11) 
{"1": {"label": "*4", "atom_type": "Ct"}, "2": {"label": "*3", "atom_type": "Cd"}, "8": {"label": "*0", "atom_type": "Ct"}, "9": {"label": "*1", "atom_type": "Cs"}, "11": {"label": "*2", "atom_type": "H0"}}

>  <type>  (11) 
unop_7

>  <geom_source>  (11) 
Heuristics

$$$$

     RDKit          3D

 14 12  0  0  0  0  0  0  0  0999 V2000
   -1.8395    2.0552    1.1386 C   0  0  0  0  0  0  0  0  0  0  0  0
   -0.8012    1.4774    0.9756 C   0  0  0  0  0  0  0  0  0  0  0  0
    0.4215    0.7785    0.7548 C   0  0  0  0  0  0  0  0  0  0  0  0
    1.4649    0.8312    1.5760 C   0  0  0  0  0  0  0  0  0  0  0  0
   -2.7602    2.5674    1.2832 H   0  0  0  0  0  0  0  0  0  0  0  0
    1.4426    1.4236    2.4817 H   0  0  0  0  0  0  0  0  0  0  0  0
    2.3690    0.2787    1.3572 H   0  0  0  0  0  0  0  0  0  0  0  0
    0.1992   -1.6541   -2.8200 C   0  0  0  0  0  0  0  0  0  0  0  0
    0.1992   -1.6541   -1.6230 C   0  0  0  0  0  0  0  0  0  0  0  0
    0.1992   -1.6541   -0.1675 C   0  0  0  0  0  3  0  0  0  0  0  0
    0.1992   -1.6541   -3.8833 H   0  0  0  0  0  0  0  0  0  0  0  0
    0.3106   -0.4345    0.2949 H   0  0  0  0  0  0  0  0  0  0  0  0
    1.0329   -2.2427    0.2178 H   0  0  0  0  0  0  0  0  0  0  0  0
   -0.7274   -2.0818    0.2178 H   0  0  0  0  0  0  0  0  0  0  0  0
  1  2  3  0
  1  5  1  0
  2  3  1  0
  3  4  2  3
  3 12  1  0
  4  6  1  0
  4  7  1  0
  8  9  3  0
  8 11  1  0
  9 10  1  0
 10 13  1  0
 10 14  1  0
M  RAD  1  10   2
M  END
>  <reaction>  (12) 
rxn_1234

>  <mol_properties>  (12) 
{"1": {"label": "*4", "atom_type": "Ct"}, "2": {"label": "*3", "atom_type": "Cd"}, "8": {"label": "*0", "atom_type": "Ct"}, "9": {"label": "*1", "atom_type": "Cs"}, "11": {"label": "*2", "atom_type": "H0"}}

>  <type>  (12) 
unop_8

>  <geom_source>  (12) 
Heuristics

$$$$

     RDKit          3D

 14 12  0  0  0  0  0  0  0  0999 V2000
    1.1816    2.3361   -0.4292 C   0  0  0  0  0  0  0  0  0  0  0  0
    0.5733    1.5833    0.2792 C   0  0  0  0  0  0  0  0  0  0  0  0
   -0.1536    0.6691    1.0965 C   0  0  0  0  0  0  0  0  0  0  0  0
   -0.4069    0.8663    2.3859 C   0  0  0  0  0  0  0  0  0  0  0  0
    1.7210    3.0035   -1.0573 H   0  0  0  0  0  0  0  0  0  0  0  0
   -0.0661    1.7559    2.8998 H   0  0  0  0  0  0  0  0  0  0  0  0
   -0.9646    0.1365    2.9577 H   0  0  0  0  0  0  0  0  0  0  0  0
   -0.3759   -1.7635   -2.4784 C   0  0  0  0  0  0  0  0  0  0  0  0
   -0.3759   -1.7635   -1.2813 C   0  0  0  0  0  0  0  0  0  0  0  0
   -0.3759   -1.7635    0.1741 C   0  0  0  0  0  3  0  0  0  0  0  0
   -0.3759   -1.7635   -3.5416 H   0  0  0  0  0  0  0  0  0  0  0  0
   -0.2644   -0.5440    0.6365 H   0  0  0  0  0  0  0  0  0  0  0  0
    0.4578   -2.3521    0.5595 H   0  0  0  0  0  0  0  0  0  0  0  0
   -1.3025   -2.1912    0.5595 H   0  0  0  0  0  0  0  0  0  0  0  0
  1  2  3  0
  1  5  1  0
  2  3  1  0
  3  4  2  3
  3 12  1  0
  4  6  1  0
  4  7  1  0
  8  9  3  0
  8 11  1  0
  9 10  1  0
 10 13  1  0
 10 14  1  0
M  RAD  1  10   2
M  END
>  <reaction>  (13) 
rxn_1234

>  <mol_properties>  (13) 
{"1": {"label": "*4", "atom_type": "Ct"}, "2": {"label": "*3", "atom_type": "Cd"}, "8": {"label": "*0", "atom_type": "Ct"}, "9": {"label": "*1", "atom_type": "Cs"}, "11": {"label": "*2", "atom_type": "H0"}}

>  <type>  (13) 
unop_9

>  <geom_source>  (13) 
Heuristics

$$$$

     RDKit          3D

 14 12  0  0  0  0  0  0  0  0999 V2000
   -1.4936    2.3541    0.2212 C   0  0  0  0  0  0  0  0  0  0  0  0
   -0.6235    1.6026    0.5629 C   0  0  0  0  0  0  0  0  0  0  0  0
    0.4076    0.6940    0.9414 C   0  0  0  0  0  0  0  0  0  0  0  0
    1.0564    0.7490    2.0998 C   0  0  0  0  0  0  0  0  0  0  0  0
   -2.2651    3.0204   -0.0818 H   0  0  0  0  0  0  0  0  0  0  0  0
    0.8312    1.5070    2.8389 H   0  0  0  0  0  0  0  0  0  0  0  0
    1.8316    0.0314    2.3337 H   0  0  0  0  0  0  0  0  0  0  0  0
    0.1853   -1.7386   -2.6334 C   0  0  0  0  0  0  0  0  0  0  0  0
    0.1853   -1.7386   -1.4364 C   0  0  0  0  0  0  0  0  0  0  0  0
    0.1853   -1.7386    0.0190 C   0  0  0  0  0  3  0  0  0  0  0  0
    0.1853   -1.7386   -3.6967 H   0  0  0  0  0  0  0  0  0  0  0  0
    0.2968   -0.5190    0.4815 H   0  0  0  0  0  0  0  0  0  0  0  0
    1.0190   -2.3271    0.4044 H   0  0  0  0  0  0  0  0  0  0  0  0
   -0.7413   -2.1663    0.4044 H   0  0  0  0  0  0  0  0  0  0  0  0
  1  2  3  0
  1  5  1  0
  2  3  1  0
  3  4  2  3
  3 12  1  0
  4  6  1  0
  4  7  1  0
  8  9  3  0
  8 11  1  0
  9 10  1  0
 10 13  1  0
 10 14  1  0
M  RAD  1  10   2
M  END
>  <reaction>  (14) 
rxn_1234

>  <mol_properties>  (14) 
{"1": {"label": "*4", "atom_type": "Ct"}, "2": {"label": "*3", "atom_type": "Cd"}, "8": {"label": "*0", "atom_type": "Ct"}, "9": {"label": "*1", "atom_type": "Cs"}, "11": {"label": "*2", "atom_type": "H0"}}

>  <type>  (14) 
unop_10

>  <geom_source>  (14) 
Heuristics

$$$$

     RDKit          3D

 14 12  0  0  0  0  0  0  0  0999 V2000
    1.2132    1.1116    2.8475 C   0  0  0  0  0  0  0  0  0  0  0  0
    0.6464    1.0202    1.7944 C   0  0  0  0  0  0  0  0  0  0  0  0
   -0.0091    0.8866    0.5356 C   0  0  0  0  0  0  0  0  0  0  0  0
   -0.9887    1.6830    0.1210 C   0  0  0  0  0  0  0  0  0  0  0  0
    1.7158    1.1927    3.7811 H   0  0  0  0  0  0  0  0  0  0  0  0
   -1.3520    2.4986    0.7330 H   0  0  0  0  0  0  0  0  0  0  0  0
   -1.4503    1.5341   -0.8461 H   0  0  0  0  0  0  0  0  0  0  0  0
   -0.2314   -1.5460   -3.0392 C   0  0  0  0  0  0  0  0  0  0  0  0
   -0.2314   -1.5460   -1.8422 C   0  0  0  0  0  0  0  0  0  0  0  0
   -0.2314   -1.5460   -0.3868 C   0  0  0  0  0  3  0  0  0  0  0  0
   -0.2314   -1.5460   -4.1025 H   0  0  0  0  0  0  0  0  0  0  0  0
   -0.1200   -0.3264    0.0757 H   0  0  0  0  0  0  0  0  0  0  0  0
    0.6023   -2.1346   -0.0014 H   0  0  0  0  0  0  0  0  0  0  0  0
   -1.1580   -1.9737   -0.0014 H   0  0  0  0  0  0  0  0  0  0  0  0
  1  2  3  0
  1  5  1  0
  2  3  1  0
  3  4  2  3
  3 12  1  0
  4  6  1  0
  4  7  1  0
  8  9  3  0
  8 11  1  0
  9 10  1  0
 10 13  1  0
 10 14  1  0
M  RAD  1  10   2
M  END
>  <reaction>  (15) 
rxn_1234

>  <mol_properties>  (15) 
{"1": {"label": "*4", "atom_type": "Ct"}, "2": {"label": "*3", "atom_type": "Cd"}, "8": {"label": "*0", "atom_type": "Ct"}, "9": {"label": "*1", "atom_type": "Cs"}, "11": {"label": "*2", "atom_type": "H0"}}

>  <type>  (15) 
unop_11

>  <geom_source>  (15) 
Heuristics

$$$$

     RDKit          3D

 14 12  0  0  0  0  0  0  0  0999 V2000
    0.2287    2.5022   -0.6624 C   0  0  0  0  0  0  0  0  0  0  0  0
    0.1509    1.6515    0.1796 C   0  0  0  0  0  0  0  0  0  0  0  0
    0.0565    0.6186    1.1574 C   0  0  0  0  0  0  0  0  0  0  0  0
    0.0762    0.8340    2.4685 C   0  0  0  0  0  0  0  0  0  0  0  0
    0.2976    3.2564   -1.4089 H   0  0  0  0  0  0  0  0  0  0  0  0
    0.1675    1.8325    2.8764 H   0  0  0  0  0  0  0  0  0  0  0  0
    0.0009    0.0098    3.1654 H   0  0  0  0  0  0  0  0  0  0  0  0
   -0.1658   -1.8140   -2.4174 C   0  0  0  0  0  0  0  0  0  0  0  0
   -0.1658   -1.8140   -1.2204 C   0  0  0  0  0  0  0  0  0  0  0  0
   -0.1658   -1.8140    0.2351 C   0  0  0  0  0  3  0  0  0  0  0  0
   -0.1658   -1.8140   -3.4807 H   0  0  0  0  0  0  0  0  0  0  0  0
   -0.0543   -0.5945    0.6975 H   0  0  0  0  0  0  0  0  0  0  0  0
    0.6679   -2.4026    0.6204 H   0  0  0  0  0  0  0  0  0  0  0  0
   -1.0924   -2.2418    0.6204 H   0  0  0  0  0  0  0  0  0  0  0  0
  1  2  3  0
  1  5  1  0
  2  3  1  0
  3  4  2  3
  3 12  1  0
  4  6  1  0
  4  7  1  0
  8  9  3  0
  8 11  1  0
  9 10  1  0
 10 13  1  0
 10 14  1  0
M  RAD  1  10   2
M  END
>  <reaction>  (16) 
rxn_1234

>  <mol_properties>  (16) 
{"1": {"label": "*4", "atom_type": "Ct"}, "2": {"label": "*3", "atom_type": "Cd"}, "8": {"label": "*0", "atom_type": "Ct"}, "9": {"label": "*1", "atom_type": "Cs"}, "11": {"label": "*2", "atom_type": "H0"}}

>  <type>  (16) 
unop_12

>  <geom_source>  (16) 
Heuristics

$$$$

     RDKit          3D

 14 12  0  0  0  0  0  0  0  0999 V2000
   -1.0677    0.1888    0.0456 C   0  0  0  0  0  0  0  0  0  0  0  0
   -1.1814    1.5084   -0.0472 C   0  0  0  0  0  0  0  0  0  0  0  0
    1.3297   -0.7508   -0.3884 C   0  0  0  0  0  3  0  0  0  0  0  0
   -2.2330   -0.6538    0.0479 C   0  0  0  0  0  0  0  0  0  0  0  0
    2.4637   -0.0635    0.2298 C   0  0  0  0  0  0  0  0  0  0  0  0
   -3.2093   -1.3611    0.0498 C   0  0  0  0  0  0  0  0  0  0  0  0
    3.3978    0.5029    0.7394 C   0  0  0  0  0  0  0  0  0  0  0  0
    0.0935   -0.3451    0.1345 H   0  0  0  0  0  0  0  0  0  0  0  0
   -0.2930    2.1256   -0.0472 H   0  0  0  0  0  0  0  0  0  0  0  0
   -2.1520    1.9837   -0.1234 H   0  0  0  0  0  0  0  0  0  0  0  0
    1.5600   -1.8318   -0.4854 H   0  0  0  0  0  0  0  0  0  0  0  0
    1.1399   -0.3216   -1.3937 H   0  0  0  0  0  0  0  0  0  0  0  0
   -4.0663   -1.9819    0.0515 H   0  0  0  0  0  0  0  0  0  0  0  0
    4.2180    1.0001    1.1868 H   0  0  0  0  0  0  0  0  0  0  0  0
  1  2  2  3
  1  4  1  0
  1  8  1  0
  2  9  1  0
  2 10  1  0
  3  5  1  0
  3 11  1  0
  3 12  1  0
  4  6  3  0
  5  7  3  0
  6 13  1  0
  7 14  1  0
M  RAD  1   3   2
M  END
>  <reaction>  (17) 
rxn_1234

>  <mol_properties>  (17) 
{"1": {"label": "*4", "atom_type": "Ct"}, "2": {"label": "*3", "atom_type": "Cd"}, "8": {"label": "*0", "atom_type": "Ct"}, "9": {"label": "*1", "atom_type": "Cs"}, "11": {"label": "*2", "atom_type": "H0"}}

>  <type>  (17) 
unop_13

>  <geom_source>  (17) 
AutoTST

$$$$
