
     RDKit          3D

 13 12  0  0  0  0  0  0  0  0999 V2000
    2.2975   -0.6134    0.7685 C   0  0  0  0  0  0  0  0  0  0  0  0
    1.1676   -0.5248    0.3802 C   0  0  0  0  0  0  0  0  0  0  0  0
   -0.2109   -0.3926   -0.0948 C   0  0  0  0  0  0  0  0  0  0  0  0
   -0.2501    0.2584   -1.4808 C   0  0  0  0  0  0  0  0  0  0  0  0
   -1.0633    0.3831    0.9141 C   0  0  0  0  0  0  0  0  0  0  0  0
    3.2999   -0.6974    1.1133 H   0  0  0  0  0  0  0  0  0  0  0  0
   -0.6209   -1.4038   -0.1814 H   0  0  0  0  0  0  0  0  0  0  0  0
    0.3402   -0.3102   -2.1992 H   0  0  0  0  0  0  0  0  0  0  0  0
    0.1511    1.2724   -1.4369 H   0  0  0  0  0  0  0  0  0  0  0  0
   -1.2791    0.3109   -1.8407 H   0  0  0  0  0  0  0  0  0  0  0  0
   -0.6861    1.4008    1.0287 H   0  0  0  0  0  0  0  0  0  0  0  0
   -1.0492   -0.0971    1.8924 H   0  0  0  0  0  0  0  0  0  0  0  0
   -2.0971    0.4363    0.5680 H   0  0  0  0  0  0  0  0  0  0  0  0
  1  2  3  0
  1  6  1  0
  2  3  1  0
  3  4  1  0
  3  5  1  0
  3  7  1  0
  4  8  1  0
  4  9  1  0
  4 10  1  0
  5 11  1  0
  5 12  1  0
  5 13  1  0
M  END
>  <reaction>  (1) 
rxn_1328

>  <mol_properties>  (1) 
{"2": {"label": "donator", "atom_type": "Cs"}, "6": {"label": "d_hydrogen", "atom_type": "H0"}}

>  <type>  (1) 
r1h

$$$$

     RDKit          3D

 12 11  0  0  0  0  0  0  0  0999 V2000
    2.7049    0.9350   -0.4404 S   0  0  0  0  0  1  0  0  0  0  0  0
    1.0313    1.0813   -0.4080 C   0  0  0  0  0  0  0  0  0  0  0  0
    0.1364    0.1019   -0.0473 C   0  0  0  0  0  0  0  0  0  0  0  0
    0.5360   -1.2679    0.3784 C   0  0  0  0  0  0  0  0  0  0  0  0
   -1.3304    0.3842   -0.0689 C   0  0  0  0  0  0  0  0  0  0  0  0
    0.6069    2.0398   -0.6990 H   0  0  0  0  0  0  0  0  0  0  0  0
    0.1578   -1.4699    1.3849 H   0  0  0  0  0  0  0  0  0  0  0  0
    0.0783   -2.0109   -0.2814 H   0  0  0  0  0  0  0  0  0  0  0  0
    1.6154   -1.3973    0.3689 H   0  0  0  0  0  0  0  0  0  0  0  0
   -1.8406   -0.3126   -0.7406 H   0  0  0  0  0  0  0  0  0  0  0  0
   -1.5514    1.4016   -0.3887 H   0  0  0  0  0  0  0  0  0  0  0  0
   -1.7610    0.2281    0.9247 H   0  0  0  0  0  0  0  0  0  0  0  0
  1  2  1  0
  2  3  2  3
  2  6  1  0
  3  4  1  0
  3  5  1  0
  4  7  1  0
  4  8  1  0
  4  9  1  0
  5 10  1  0
  5 11  1  0
  5 12  1  0
M  RAD  1   1   2
M  END
>  <reaction>  (2) 
rxn_1328

>  <mol_properties>  (2) 
{"2": {"label": "acceptor", "atom_type": "Cs"}}

>  <type>  (2) 
r2

$$$$

     RDKit          3D

 13 12  0  0  0  0  0  0  0  0999 V2000
    2.7452   -1.1134   -0.3601 S   0  0  0  0  0  0  0  0  0  0  0  0
    1.4120   -0.4899    0.2856 C   0  0  0  0  0  0  0  0  0  0  0  0
    0.1714   -0.0257   -0.4180 C   0  0  0  0  0  0  0  0  0  0  0  0
   -0.0717    1.4493   -0.0658 C   0  0  0  0  0  0  0  0  0  0  0  0
    0.1609   -0.2576   -1.9191 C   0  0  0  0  0  0  0  0  0  0  0  0
    1.3665   -0.3550    1.3690 H   0  0  0  0  0  0  0  0  0  0  0  0
   -0.6453   -0.6023    0.0382 H   0  0  0  0  0  0  0  0  0  0  0  0
    0.7161    2.0755   -0.4895 H   0  0  0  0  0  0  0  0  0  0  0  0
   -0.0915    1.6095    1.0136 H   0  0  0  0  0  0  0  0  0  0  0  0
   -1.0268    1.7797   -0.4755 H   0  0  0  0  0  0  0  0  0  0  0  0
    0.3131   -1.3093   -2.1616 H   0  0  0  0  0  0  0  0  0  0  0  0
    0.9567    0.3095   -2.4051 H   0  0  0  0  0  0  0  0  0  0  0  0
   -0.7945    0.0619   -2.3384 H   0  0  0  0  0  0  0  0  0  0  0  0
  1  2  2  0
  2  3  1  0
  2  6  1  0
  3  4  1  0
  3  5  1  0
  3  7  1  0
  4  8  1  0
  4  9  1  0
  4 10  1  0
  5 11  1  0
  5 12  1  0
  5 13  1  0
M  END
>  <reaction>  (3) 
rxn_1328

>  <mol_properties>  (3) 
{"0": {"label": "a_hydrogen", "atom_type": "H0"}, "3": {"label": "acceptor", "atom_type": "Cs"}}

>  <type>  (3) 
r2h

$$$$

     RDKit          3D

 25 23  0  0  0  0  0  0  0  0999 V2000
   -2.0948    0.8827   -2.7068 C   0  0  0  0  0  0  0  0  0  0  0  0
   -1.3536    1.1672   -1.8007 C   0  0  0  0  0  0  0  0  0  0  0  0
   -0.4906    1.4536   -0.7121 C   0  0  0  0  0  3  0  0  0  0  0  0
   -1.0462    2.3371    0.3780 C   0  0  0  0  0  0  0  0  0  0  0  0
    0.9719    1.6369   -1.0323 C   0  0  0  0  0  0  0  0  0  0  0  0
   -2.7478    0.6475   -3.5126 H   0  0  0  0  0  0  0  0  0  0  0  0
   -0.4090    0.2031   -0.0223 H   0  0  0  0  0  0  0  0  0  0  0  0
   -2.0841    2.0911    0.5976 H   0  0  0  0  0  0  0  0  0  0  0  0
   -1.0017    3.3872    0.0722 H   0  0  0  0  0  0  0  0  0  0  0  0
   -0.4584    2.2256    1.2909 H   0  0  0  0  0  0  0  0  0  0  0  0
    1.1494    2.6312   -1.4524 H   0  0  0  0  0  0  0  0  0  0  0  0
    1.3167    0.8974   -1.7547 H   0  0  0  0  0  0  0  0  0  0  0  0
    1.5682    1.5491   -0.1210 H   0  0  0  0  0  0  0  0  0  0  0  0
    0.7097   -0.2111    3.0097 S   0  0  0  0  0  0  0  0  0  0  0  0
    0.7137   -0.7618    1.4734 C   0  0  0  0  0  0  0  0  0  0  0  0
   -0.4187   -0.9200    0.5833 C   0  0  0  0  0  0  0  0  0  0  0  0
   -0.2119   -1.8876   -0.5660 C   0  0  0  0  0  0  0  0  0  0  0  0
   -1.8065   -0.9447    1.1790 C   0  0  0  0  0  0  0  0  0  0  0  0
    1.6752   -1.0039    1.0167 H   0  0  0  0  0  0  0  0  0  0  0  0
   -0.3514   -2.9179   -0.2280 H   0  0  0  0  0  0  0  0  0  0  0  0
   -0.9327   -1.6947   -1.3621 H   0  0  0  0  0  0  0  0  0  0  0  0
    0.7918   -1.8020   -0.9861 H   0  0  0  0  0  0  0  0  0  0  0  0
   -2.5528   -0.7788    0.3997 H   0  0  0  0  0  0  0  0  0  0  0  0
   -1.9194   -0.1872    1.9528 H   0  0  0  0  0  0  0  0  0  0  0  0
   -2.0020   -1.9182    1.6363 H   0  0  0  0  0  0  0  0  0  0  0  0
  1  2  3  0
  1  6  1  0
  2  3  1  0
  3  4  1  0
  3  5  1  0
  4  8  1  0
  4  9  1  0
  4 10  1  0
  5 11  1  0
  5 12  1  0
  5 13  1  0
  7 16  1  0
 14 15  2  0
 15 16  1  0
 15 19  1  0
 16 17  1  0
 16 18  1  0
 17 20  1  0
 17 21  1  0
 17 22  1  0
 18 23  1  0
 18 24  1  0
 18 25  1  0
M  RAD  1   3   2
M  END
>  <reaction>  (4) 
rxn_1328

>  <mol_properties>  (4) 
{"1": {"label": "*4", "atom_type": "Ct"}, "2": {"label": "*3", "atom_type": "Cs"}, "6": {"label": "*2", "atom_type": "H0"}, "14": {"label": "*0", "atom_type": "CS"}, "15": {"label": "*1", "atom_type": "Cs"}}

>  <type>  (4) 
ts

$$$$

     RDKit          3D

 25 23  0  0  0  0  0  0  0  0999 V2000
   -0.2587    1.3103   -3.4544 C   0  0  0  0  0  0  0  0  0  0  0  0
   -0.2587    1.3103   -2.2563 C   0  0  0  0  0  0  0  0  0  0  0  0
   -0.2587    1.3343   -0.7925 C   0  0  0  0  0  0  0  0  0  0  0  0
   -1.5248    2.0108   -0.2582 C   0  0  0  0  0  0  0  0  0  0  0  0
    1.0074    2.0107   -0.2582 C   0  0  0  0  0  0  0  0  0  0  0  0
   -0.2587    1.3103   -4.5177 H   0  0  0  0  0  0  0  0  0  0  0  0
   -0.2587    0.0856   -0.3846 H   0  0  0  0  0  0  0  0  0  0  0  0
   -2.4219    1.5114   -0.6241 H   0  0  0  0  0  0  0  0  0  0  0  0
   -1.5621    3.0543   -0.5757 H   0  0  0  0  0  0  0  0  0  0  0  0
   -1.5321    1.9827    0.8329 H   0  0  0  0  0  0  0  0  0  0  0  0
    1.0448    3.0542   -0.5757 H   0  0  0  0  0  0  0  0  0  0  0  0
    1.9045    1.5114   -0.6241 H   0  0  0  0  0  0  0  0  0  0  0  0
    1.0148    1.9827    0.8329 H   0  0  0  0  0  0  0  0  0  0  0  0
    1.2134   -0.9916    2.3939 S   0  0  0  0  0  1  0  0  0  0  0  0
    0.9963   -1.3103    0.8336 C   0  0  0  0  0  0  0  0  0  0  0  0
   -0.2587   -1.1679    0.0249 C   0  0  0  0  0  0  0  0  0  0  0  0
   -0.6047   -2.5315   -0.5915 C   0  0  0  0  0  0  0  0  0  0  0  0
   -1.4384   -0.5695    0.7717 C   0  0  0  0  0  0  0  0  0  0  0  0
    1.8385   -1.6958    0.2540 H   0  0  0  0  0  0  0  0  0  0  0  0
   -0.8796   -3.2425    0.1903 H   0  0  0  0  0  0  0  0  0  0  0  0
   -1.4502   -2.4309   -1.2729 H   0  0  0  0  0  0  0  0  0  0  0  0
    0.2350   -2.9473   -1.1511 H   0  0  0  0  0  0  0  0  0  0  0  0
   -2.2879   -0.4564    0.0963 H   0  0  0  0  0  0  0  0  0  0  0  0
   -1.1928    0.4071    1.1887 H   0  0  0  0  0  0  0  0  0  0  0  0
   -1.7405   -1.2131    1.5997 H   0  0  0  0  0  0  0  0  0  0  0  0
  1  2  3  0
  1  6  1  0
  2  3  1  0
  3  4  1  0
  3  5  1  0
  3  7  1  0
  4  8  1  0
  4  9  1  0
  4 10  1  0
  5 11  1  0
  5 12  1  0
  5 13  1  0
 14 15  1  0
 15 16  2  3
 15 19  1  0
 16 17  1  0
 16 18  1  0
 17 20  1  0
 17 21  1  0
 17 22  1  0
 18 23  1  0
 18 24  1  0
 18 25  1  0
M  RAD  1  14   2
M  END
>  <reaction>  (5) 
rxn_1328

>  <mol_properties>  (5) 
{"1": {"label": "*4", "atom_type": "Ct"}, "2": {"label": "*3", "atom_type": "Cs"}, "6": {"label": "*2", "atom_type": "H0"}, "14": {"label": "*0", "atom_type": "CS"}, "15": {"label": "*1", "atom_type": "Cs"}}

>  <type>  (5) 
unop_1

>  <geom_source>  (5) 
Heuristics

$$$$

     RDKit          3D

 25 23  0  0  0  0  0  0  0  0999 V2000
   -0.4666    1.6426   -2.7411 C   0  0  0  0  0  0  0  0  0  0  0  0
   -0.4666    1.6426   -1.5430 C   0  0  0  0  0  0  0  0  0  0  0  0
   -0.4666    1.6665   -0.0792 C   0  0  0  0  0  0  0  0  0  0  0  0
   -1.7327    2.3430    0.4551 C   0  0  0  0  0  0  0  0  0  0  0  0
    0.7995    2.3429    0.4551 C   0  0  0  0  0  0  0  0  0  0  0  0
   -0.4666    1.6426   -3.8044 H   0  0  0  0  0  0  0  0  0  0  0  0
   -0.4666    0.4179    0.3287 H   0  0  0  0  0  0  0  0  0  0  0  0
   -2.6298    1.8437    0.0892 H   0  0  0  0  0  0  0  0  0  0  0  0
   -1.7701    3.3865    0.1376 H   0  0  0  0  0  0  0  0  0  0  0  0
   -1.7401    2.3150    1.5462 H   0  0  0  0  0  0  0  0  0  0  0  0
    0.8369    3.3865    0.1376 H   0  0  0  0  0  0  0  0  0  0  0  0
    1.6966    1.8436    0.0892 H   0  0  0  0  0  0  0  0  0  0  0  0
    0.8068    2.3149    1.5462 H   0  0  0  0  0  0  0  0  0  0  0  0
    1.7516   -2.1848   -0.2961 S   0  0  0  0  0  1  0  0  0  0  0  0
    0.2579   -1.5928   -0.3348 C   0  0  0  0  0  0  0  0  0  0  0  0
   -0.4667   -0.8357    0.7382 C   0  0  0  0  0  0  0  0  0  0  0  0
   -1.7593   -1.5891    1.0851 C   0  0  0  0  0  0  0  0  0  0  0  0
    0.3589   -0.5298    1.9760 C   0  0  0  0  0  0  0  0  0  0  0  0
   -0.3473   -1.7520   -1.2305 H   0  0  0  0  0  0  0  0  0  0  0  0
   -1.5260   -2.5462    1.5559 H   0  0  0  0  0  0  0  0  0  0  0  0
   -2.3584   -1.0033    1.7831 H   0  0  0  0  0  0  0  0  0  0  0  0
   -2.3647   -1.7836    0.1980 H   0  0  0  0  0  0  0  0  0  0  0  0
   -0.2288    0.0640    2.6780 H   0  0  0  0  0  0  0  0  0  0  0  0
    1.2642    0.0231    1.7254 H   0  0  0  0  0  0  0  0  0  0  0  0
    0.6646   -1.4504    2.4760 H   0  0  0  0  0  0  0  0  0  0  0  0
  1  2  3  0
  1  6  1  0
  2  3  1  0
  3  4  1  0
  3  5  1  0
  3  7  1  0
  4  8  1  0
  4  9  1  0
  4 10  1  0
  5 11  1  0
  5 12  1  0
  5 13  1  0
 14 15  1  0
 15 16  2  3
 15 19  1  0
 16 17  1  0
 16 18  1  0
 17 20  1  0
 17 21  1  0
 17 22  1  0
 18 23  1  0
 18 24  1  0
 18 25  1  0
M  RAD  1  14   2
M  END
>  <reaction>  (6) 
rxn_1328

>  <mol_properties>  (6) 
{"1": {"label": "*4", "atom_type": "Ct"}, "2": {"label": "*3", "atom_type": "Cs"}, "6": {"label": "*2", "atom_type": "H0"}, "14": {"label": "*0", "atom_type": "CS"}, "15": {"label": "*1", "atom_type": "Cs"}}

>  <type>  (6) 
unop_2

>  <geom_source>  (6) 
Heuristics

$$$$

     RDKit          3D

 25 23  0  0  0  0  0  0  0  0999 V2000
    0.0217    1.3580   -3.5042 C   0  0  0  0  0  0  0  0  0  0  0  0
    0.0217    1.3580   -2.3061 C   0  0  0  0  0  0  0  0  0  0  0  0
    0.0217    1.3820   -0.8423 C   0  0  0  0  0  0  0  0  0  0  0  0
   -1.2444    2.0584   -0.3080 C   0  0  0  0  0  0  0  0  0  0  0  0
    1.2878    2.0584   -0.3080 C   0  0  0  0  0  0  0  0  0  0  0  0
    0.0217    1.3580   -4.5675 H   0  0  0  0  0  0  0  0  0  0  0  0
    0.0217    0.1333   -0.4344 H   0  0  0  0  0  0  0  0  0  0  0  0
   -2.1415    1.5591   -0.6739 H   0  0  0  0  0  0  0  0  0  0  0  0
   -1.2817    3.1019   -0.6255 H   0  0  0  0  0  0  0  0  0  0  0  0
   -1.2517    2.0304    0.7831 H   0  0  0  0  0  0  0  0  0  0  0  0
    1.3252    3.1019   -0.6255 H   0  0  0  0  0  0  0  0  0  0  0  0
    2.1849    1.5591   -0.6739 H   0  0  0  0  0  0  0  0  0  0  0  0
    1.2952    2.0304    0.7831 H   0  0  0  0  0  0  0  0  0  0  0  0
    0.1192   -1.0662    2.7675 S   0  0  0  0  0  1  0  0  0  0  0  0
    0.7463   -1.0979    1.2880 C   0  0  0  0  0  0  0  0  0  0  0  0
    0.0217   -1.1202   -0.0250 C   0  0  0  0  0  0  0  0  0  0  0  0
    0.4588   -2.3674   -0.8074 C   0  0  0  0  0  0  0  0  0  0  0  0
   -1.4905   -1.0170    0.0754 C   0  0  0  0  0  0  0  0  0  0  0  0
    1.8331   -1.1226    1.1785 H   0  0  0  0  0  0  0  0  0  0  0  0
    0.1113   -3.2721   -0.3044 H   0  0  0  0  0  0  0  0  0  0  0  0
    0.0306   -2.3496   -1.8103 H   0  0  0  0  0  0  0  0  0  0  0  0
    1.5445   -2.4255   -0.9026 H   0  0  0  0  0  0  0  0  0  0  0  0
   -1.9288   -0.9897   -0.9235 H   0  0  0  0  0  0  0  0  0  0  0  0
   -1.7944   -0.1193    0.6135 H   0  0  0  0  0  0  0  0  0  0  0  0
   -1.9036   -1.8748    0.6089 H   0  0  0  0  0  0  0  0  0  0  0  0
  1  2  3  0
  1  6  1  0
  2  3  1  0
  3  4  1  0
  3  5  1  0
  3  7  1  0
  4  8  1  0
  4  9  1  0
  4 10  1  0
  5 11  1  0
  5 12  1  0
  5 13  1  0
 14 15  1  0
 15 16  2  3
 15 19  1  0
 16 17  1  0
 16 18  1  0
 17 20  1  0
 17 21  1  0
 17 22  1  0
 18 23  1  0
 18 24  1  0
 18 25  1  0
M  RAD  1  14   2
M  END
>  <reaction>  (7) 
rxn_1328

>  <mol_properties>  (7) 
{"1": {"label": "*4", "atom_type": "Ct"}, "2": {"label": "*3", "atom_type": "Cs"}, "6": {"label": "*2", "atom_type": "H0"}, "14": {"label": "*0", "atom_type": "CS"}, "15": {"label": "*1", "atom_type": "Cs"}}

>  <type>  (7) 
unop_3

>  <geom_source>  (7) 
Heuristics

$$$$

     RDKit          3D

 25 23  0  0  0  0  0  0  0  0999 V2000
    0.3531    1.7634   -2.8083 C   0  0  0  0  0  0  0  0  0  0  0  0
    0.3531    1.7634   -1.6102 C   0  0  0  0  0  0  0  0  0  0  0  0
    0.3531    1.7873   -0.1464 C   0  0  0  0  0  0  0  0  0  0  0  0
   -0.9130    2.4638    0.3880 C   0  0  0  0  0  0  0  0  0  0  0  0
    1.6192    2.4638    0.3880 C   0  0  0  0  0  0  0  0  0  0  0  0
    0.3531    1.7634   -3.8716 H   0  0  0  0  0  0  0  0  0  0  0  0
    0.3530    0.5387    0.2615 H   0  0  0  0  0  0  0  0  0  0  0  0
   -1.8101    1.9645    0.0220 H   0  0  0  0  0  0  0  0  0  0  0  0
   -0.9504    3.5073    0.0704 H   0  0  0  0  0  0  0  0  0  0  0  0
   -0.9204    2.4358    1.4790 H   0  0  0  0  0  0  0  0  0  0  0  0
    1.6566    3.5073    0.0704 H   0  0  0  0  0  0  0  0  0  0  0  0
    2.5162    1.9644    0.0220 H   0  0  0  0  0  0  0  0  0  0  0  0
    1.6265    2.4358    1.4790 H   0  0  0  0  0  0  0  0  0  0  0  0
   -1.2123   -2.8501   -0.2241 S   0  0  0  0  0  1  0  0  0  0  0  0
   -0.9020   -1.3072    0.1022 C   0  0  0  0  0  0  0  0  0  0  0  0
    0.3530   -0.7149    0.6710 C   0  0  0  0  0  0  0  0  0  0  0  0
    0.0011    0.0362    1.9636 C   0  0  0  0  0  0  0  0  0  0  0  0
    1.4892   -1.7009    0.8815 C   0  0  0  0  0  0  0  0  0  0  0  0
   -1.6809   -0.5639   -0.0841 H   0  0  0  0  0  0  0  0  0  0  0  0
   -0.3260   -0.6658    2.7333 H   0  0  0  0  0  0  0  0  0  0  0  0
    0.8764    0.5683    2.3378 H   0  0  0  0  0  0  0  0  0  0  0  0
   -0.7964    0.7640    1.8044 H   0  0  0  0  0  0  0  0  0  0  0  0
    2.3735   -1.1770    1.2479 H   0  0  0  0  0  0  0  0  0  0  0  0
    1.7479   -2.2151   -0.0440 H   0  0  0  0  0  0  0  0  0  0  0  0
    1.2123   -2.4617    1.6132 H   0  0  0  0  0  0  0  0  0  0  0  0
  1  2  3  0
  1  6  1  0
  2  3  1  0
  3  4  1  0
  3  5  1  0
  3  7  1  0
  4  8  1  0
  4  9  1  0
  4 10  1  0
  5 11  1  0
  5 12  1  0
  5 13  1  0
 14 15  1  0
 15 16  2  3
 15 19  1  0
 16 17  1  0
 16 18  1  0
 17 20  1  0
 17 21  1  0
 17 22  1  0
 18 23  1  0
 18 24  1  0
 18 25  1  0
M  RAD  1  14   2
M  END
>  <reaction>  (8) 
rxn_1328

>  <mol_properties>  (8) 
{"1": {"label": "*4", "atom_type": "Ct"}, "2": {"label": "*3", "atom_type": "Cs"}, "6": {"label": "*2", "atom_type": "H0"}, "14": {"label": "*0", "atom_type": "CS"}, "15": {"label": "*1", "atom_type": "Cs"}}

>  <type>  (8) 
unop_4

>  <geom_source>  (8) 
Heuristics

$$$$

     RDKit          3D

 25 23  0  0  0  0  0  0  0  0999 V2000
    0.1982    1.4956   -3.4296 C   0  0  0  0  0  0  0  0  0  0  0  0
    0.1982    1.4956   -2.2315 C   0  0  0  0  0  0  0  0  0  0  0  0
    0.1982    1.5196   -0.7677 C   0  0  0  0  0  0  0  0  0  0  0  0
   -1.0679    2.1960   -0.2334 C   0  0  0  0  0  0  0  0  0  0  0  0
    1.4644    2.1960   -0.2334 C   0  0  0  0  0  0  0  0  0  0  0  0
    0.1982    1.4956   -4.4929 H   0  0  0  0  0  0  0  0  0  0  0  0
    0.1982    0.2709   -0.3598 H   0  0  0  0  0  0  0  0  0  0  0  0
   -1.9649    1.6967   -0.5993 H   0  0  0  0  0  0  0  0  0  0  0  0
   -1.1052    3.2395   -0.5509 H   0  0  0  0  0  0  0  0  0  0  0  0
   -1.0752    2.1680    0.8577 H   0  0  0  0  0  0  0  0  0  0  0  0
    1.5017    3.2395   -0.5509 H   0  0  0  0  0  0  0  0  0  0  0  0
    2.3614    1.6967   -0.5993 H   0  0  0  0  0  0  0  0  0  0  0  0
    1.4717    2.1680    0.8577 H   0  0  0  0  0  0  0  0  0  0  0  0
   -0.8545   -1.5438    2.5770 S   0  0  0  0  0  1  0  0  0  0  0  0
    0.1982   -0.9000    1.5472 C   0  0  0  0  0  0  0  0  0  0  0  0
    0.1982   -0.9826    0.0496 C   0  0  0  0  0  0  0  0  0  0  0  0
    1.5262   -1.6028   -0.4093 C   0  0  0  0  0  0  0  0  0  0  0  0
   -0.9982   -1.6987   -0.5530 C   0  0  0  0  0  0  0  0  0  0  0  0
    1.0448   -0.3357    1.9455 H   0  0  0  0  0  0  0  0  0  0  0  0
    1.5875   -2.6459   -0.0923 H   0  0  0  0  0  0  0  0  0  0  0  0
    1.5976   -1.5727   -1.4971 H   0  0  0  0  0  0  0  0  0  0  0  0
    2.3852   -1.0700    0.0024 H   0  0  0  0  0  0  0  0  0  0  0  0
   -0.9412   -1.6670   -1.6422 H   0  0  0  0  0  0  0  0  0  0  0  0
   -1.9365   -1.2409   -0.2401 H   0  0  0  0  0  0  0  0  0  0  0  0
   -1.0230   -2.7440   -0.2402 H   0  0  0  0  0  0  0  0  0  0  0  0
  1  2  3  0
  1  6  1  0
  2  3  1  0
  3  4  1  0
  3  5  1  0
  3  7  1  0
  4  8  1  0
  4  9  1  0
  4 10  1  0
  5 11  1  0
  5 12  1  0
  5 13  1  0
 14 15  1  0
 15 16  2  3
 15 19  1  0
 16 17  1  0
 16 18  1  0
 17 20  1  0
 17 21  1  0
 17 22  1  0
 18 23  1  0
 18 24  1  0
 18 25  1  0
M  RAD  1  14   2
M  END
>  <reaction>  (9) 
rxn_1328

>  <mol_properties>  (9) 
{"1": {"label": "*4", "atom_type": "Ct"}, "2": {"label": "*3", "atom_type": "Cs"}, "6": {"label": "*2", "atom_type": "H0"}, "14": {"label": "*0", "atom_type": "CS"}, "15": {"label": "*1", "atom_type": "Cs"}}

>  <type>  (9) 
unop_5

>  <geom_source>  (9) 
Heuristics

$$$$

     RDKit          3D

 25 23  0  0  0  0  0  0  0  0999 V2000
    0.4227    1.6879   -3.0420 C   0  0  0  0  0  0  0  0  0  0  0  0
    0.4227    1.6879   -1.8439 C   0  0  0  0  0  0  0  0  0  0  0  0
    0.4227    1.7119   -0.3801 C   0  0  0  0  0  0  0  0  0  0  0  0
   -0.8434    2.3883    0.1542 C   0  0  0  0  0  0  0  0  0  0  0  0
    1.6889    2.3883    0.1542 C   0  0  0  0  0  0  0  0  0  0  0  0
    0.4227    1.6879   -4.1053 H   0  0  0  0  0  0  0  0  0  0  0  0
    0.4227    0.4632    0.0278 H   0  0  0  0  0  0  0  0  0  0  0  0
   -1.7404    1.8890   -0.2117 H   0  0  0  0  0  0  0  0  0  0  0  0
   -0.8807    3.4318   -0.1633 H   0  0  0  0  0  0  0  0  0  0  0  0
   -0.8507    2.3603    1.2453 H   0  0  0  0  0  0  0  0  0  0  0  0
    1.7262    3.4318   -0.1633 H   0  0  0  0  0  0  0  0  0  0  0  0
    2.5859    1.8890   -0.2117 H   0  0  0  0  0  0  0  0  0  0  0  0
    1.6962    2.3603    1.2453 H   0  0  0  0  0  0  0  0  0  0  0  0
   -1.6764   -2.6263    0.6202 S   0  0  0  0  0  1  0  0  0  0  0  0
   -1.0265   -1.1577    0.5573 C   0  0  0  0  0  0  0  0  0  0  0  0
    0.4227   -0.7903    0.4372 C   0  0  0  0  0  0  0  0  0  0  0  0
    0.8076    0.0924    1.6337 C   0  0  0  0  0  0  0  0  0  0  0  0
    1.3707   -1.9659    0.2740 C   0  0  0  0  0  0  0  0  0  0  0  0
   -1.6853   -0.2884    0.6222 H   0  0  0  0  0  0  0  0  0  0  0  0
    0.7622   -0.4834    2.5603 H   0  0  0  0  0  0  0  0  0  0  0  0
    1.8258    0.4637    1.5130 H   0  0  0  0  0  0  0  0  0  0  0  0
    0.1422    0.9519    1.7330 H   0  0  0  0  0  0  0  0  0  0  0  0
    2.3922   -1.6050    0.1438 H   0  0  0  0  0  0  0  0  0  0  0  0
    1.1047   -2.5763   -0.5888 H   0  0  0  0  0  0  0  0  0  0  0  0
    1.3436   -2.6115    1.1535 H   0  0  0  0  0  0  0  0  0  0  0  0
  1  2  3  0
  1  6  1  0
  2  3  1  0
  3  4  1  0
  3  5  1  0
  3  7  1  0
  4  8  1  0
  4  9  1  0
  4 10  1  0
  5 11  1  0
  5 12  1  0
  5 13  1  0
 14 15  1  0
 15 16  2  3
 15 19  1  0
 16 17  1  0
 16 18  1  0
 17 20  1  0
 17 21  1  0
 17 22  1  0
 18 23  1  0
 18 24  1  0
 18 25  1  0
M  RAD  1  14   2
M  END
>  <reaction>  (10) 
rxn_1328

>  <mol_properties>  (10) 
{"1": {"label": "*4", "atom_type": "Ct"}, "2": {"label": "*3", "atom_type": "Cs"}, "6": {"label": "*2", "atom_type": "H0"}, "14": {"label": "*0", "atom_type": "CS"}, "15": {"label": "*1", "atom_type": "Cs"}}

>  <type>  (10) 
unop_6

>  <geom_source>  (10) 
Heuristics

$$$$

     RDKit          3D

 25 23  0  0  0  0  0  0  0  0999 V2000
    0.3635    1.6245   -3.2366 C   0  0  0  0  0  0  0  0  0  0  0  0
    0.3635    1.6245   -2.0385 C   0  0  0  0  0  0  0  0  0  0  0  0
    0.3635    1.6485   -0.5747 C   0  0  0  0  0  0  0  0  0  0  0  0
   -0.9026    2.3249   -0.0403 C   0  0  0  0  0  0  0  0  0  0  0  0
    1.6296    2.3249   -0.0403 C   0  0  0  0  0  0  0  0  0  0  0  0
    0.3635    1.6245   -4.2999 H   0  0  0  0  0  0  0  0  0  0  0  0
    0.3635    0.3998   -0.1668 H   0  0  0  0  0  0  0  0  0  0  0  0
   -1.7997    1.8256   -0.4062 H   0  0  0  0  0  0  0  0  0  0  0  0
   -0.9400    3.3684   -0.3578 H   0  0  0  0  0  0  0  0  0  0  0  0
   -0.9100    2.2969    1.0507 H   0  0  0  0  0  0  0  0  0  0  0  0
    1.6670    3.3684   -0.3578 H   0  0  0  0  0  0  0  0  0  0  0  0
    2.5267    1.8256   -0.4062 H   0  0  0  0  0  0  0  0  0  0  0  0
    1.6369    2.2969    1.0507 H   0  0  0  0  0  0  0  0  0  0  0  0
   -1.6650   -2.3461    1.4547 S   0  0  0  0  0  1  0  0  0  0  0  0
   -0.8916   -0.9961    1.0515 C   0  0  0  0  0  0  0  0  0  0  0  0
    0.3634   -0.8537    0.2427 C   0  0  0  0  0  0  0  0  0  0  0  0
    1.4112   -0.1122    1.0860 C   0  0  0  0  0  0  0  0  0  0  0  0
    0.9108   -2.1518   -0.3254 C   0  0  0  0  0  0  0  0  0  0  0  0
   -1.2864   -0.0396    1.4024 H   0  0  0  0  0  0  0  0  0  0  0  0
    1.7185   -0.7260    1.9352 H   0  0  0  0  0  0  0  0  0  0  0  0
    2.2944    0.1015    0.4830 H   0  0  0  0  0  0  0  0  0  0  0  0
    1.0254    0.8336    1.4705 H   0  0  0  0  0  0  0  0  0  0  0  0
    1.7905   -1.9483   -0.9381 H   0  0  0  0  0  0  0  0  0  0  0  0
    0.1694   -2.6626   -0.9397 H   0  0  0  0  0  0  0  0  0  0  0  0
    1.1999   -2.8346    0.4754 H   0  0  0  0  0  0  0  0  0  0  0  0
  1  2  3  0
  1  6  1  0
  2  3  1  0
  3  4  1  0
  3  5  1  0
  3  7  1  0
  4  8  1  0
  4  9  1  0
  4 10  1  0
  5 11  1  0
  5 12  1  0
  5 13  1  0
 14 15  1  0
 15 16  2  3
 15 19  1  0
 16 17  1  0
 16 18  1  0
 17 20  1  0
 17 21  1  0
 17 22  1  0
 18 23  1  0
 18 24  1  0
 18 25  1  0
M  RAD  1  14   2
M  END
>  <reaction>  (11) 
rxn_1328

>  <mol_properties>  (11) 
{"1": {"label": "*4", "atom_type": "Ct"}, "2": {"label": "*3", "atom_type": "Cs"}, "6": {"label": "*2", "atom_type": "H0"}, "14": {"label": "*0", "atom_type": "CS"}, "15": {"label": "*1", "atom_type": "Cs"}}

>  <type>  (11) 
unop_7

>  <geom_source>  (11) 
Heuristics

$$$$

     RDKit          3D

 25 23  0  0  0  0  0  0  0  0999 V2000
   -0.4858    1.3663   -3.2650 C   0  0  0  0  0  0  0  0  0  0  0  0
   -0.4858    1.3663   -2.0669 C   0  0  0  0  0  0  0  0  0  0  0  0
   -0.4858    1.3903   -0.6031 C   0  0  0  0  0  0  0  0  0  0  0  0
   -1.7519    2.0667   -0.0688 C   0  0  0  0  0  0  0  0  0  0  0  0
    0.7804    2.0667   -0.0688 C   0  0  0  0  0  0  0  0  0  0  0  0
   -0.4858    1.3663   -4.3283 H   0  0  0  0  0  0  0  0  0  0  0  0
   -0.4858    0.1416   -0.1952 H   0  0  0  0  0  0  0  0  0  0  0  0
   -2.6489    1.5674   -0.4347 H   0  0  0  0  0  0  0  0  0  0  0  0
   -1.7892    3.1102   -0.3863 H   0  0  0  0  0  0  0  0  0  0  0  0
   -1.7592    2.0387    1.0223 H   0  0  0  0  0  0  0  0  0  0  0  0
    0.8177    3.1102   -0.3863 H   0  0  0  0  0  0  0  0  0  0  0  0
    1.6774    1.5674   -0.4347 H   0  0  0  0  0  0  0  0  0  0  0  0
    0.7877    2.0387    1.0223 H   0  0  0  0  0  0  0  0  0  0  0  0
    1.9483   -1.2398    1.5815 S   0  0  0  0  0  1  0  0  0  0  0  0
    0.9634   -1.4793    0.3343 C   0  0  0  0  0  0  0  0  0  0  0  0
   -0.4858   -1.1119    0.2142 C   0  0  0  0  0  0  0  0  0  0  0  0
   -1.2932   -2.3840   -0.0835 C   0  0  0  0  0  0  0  0  0  0  0  0
   -1.0532   -0.3461    1.3971 C   0  0  0  0  0  0  0  0  0  0  0  0
    1.3528   -1.9838   -0.5533 H   0  0  0  0  0  0  0  0  0  0  0  0
   -1.2674   -3.0594    0.7741 H   0  0  0  0  0  0  0  0  0  0  0  0
   -2.3342   -2.1285   -0.2845 H   0  0  0  0  0  0  0  0  0  0  0  0
   -0.9012   -2.9184   -0.9506 H   0  0  0  0  0  0  0  0  0  0  0  0
   -2.0928   -0.0778    1.2026 H   0  0  0  0  0  0  0  0  0  0  0  0
   -0.4885    0.5659    1.5899 H   0  0  0  0  0  0  0  0  0  0  0  0
   -1.0182   -0.9517    2.3044 H   0  0  0  0  0  0  0  0  0  0  0  0
  1  2  3  0
  1  6  1  0
  2  3  1  0
  3  4  1  0
  3  5  1  0
  3  7  1  0
  4  8  1  0
  4  9  1  0
  4 10  1  0
  5 11  1  0
  5 12  1  0
  5 13  1  0
 14 15  1  0
 15 16  2  3
 15 19  1  0
 16 17  1  0
 16 18  1  0
 17 20  1  0
 17 21  1  0
 17 22  1  0
 18 23  1  0
 18 24  1  0
 18 25  1  0
M  RAD  1  14   2
M  END
>  <reaction>  (12) 
rxn_1328

>  <mol_properties>  (12) 
{"1": {"label": "*4", "atom_type": "Ct"}, "2": {"label": "*3", "atom_type": "Cs"}, "6": {"label": "*2", "atom_type": "H0"}, "14": {"label": "*0", "atom_type": "CS"}, "15": {"label": "*1", "atom_type": "Cs"}}

>  <type>  (12) 
unop_8

>  <geom_source>  (12) 
Heuristics

$$$$

     RDKit          3D

 25 23  0  0  0  0  0  0  0  0999 V2000
    0.1249    1.8076   -2.6267 C   0  0  0  0  0  0  0  0  0  0  0  0
    0.1249    1.8076   -1.4286 C   0  0  0  0  0  0  0  0  0  0  0  0
    0.1249    1.8315    0.0352 C   0  0  0  0  0  0  0  0  0  0  0  0
   -1.1413    2.5080    0.5696 C   0  0  0  0  0  0  0  0  0  0  0  0
    1.3910    2.5079    0.5696 C   0  0  0  0  0  0  0  0  0  0  0  0
    0.1249    1.8076   -3.6900 H   0  0  0  0  0  0  0  0  0  0  0  0
    0.1248    0.5828    0.4431 H   0  0  0  0  0  0  0  0  0  0  0  0
   -2.0383    2.0087    0.2036 H   0  0  0  0  0  0  0  0  0  0  0  0
   -1.1786    3.5515    0.2520 H   0  0  0  0  0  0  0  0  0  0  0  0
   -1.1486    2.4800    1.6606 H   0  0  0  0  0  0  0  0  0  0  0  0
    1.4284    3.5514    0.2520 H   0  0  0  0  0  0  0  0  0  0  0  0
    2.2880    2.0086    0.2036 H   0  0  0  0  0  0  0  0  0  0  0  0
    1.3983    2.4799    1.6606 H   0  0  0  0  0  0  0  0  0  0  0  0
   -0.2781   -2.8961   -0.7893 S   0  0  0  0  0  1  0  0  0  0  0  0
   -0.5998   -1.4278   -0.2204 C   0  0  0  0  0  0  0  0  0  0  0  0
    0.1248   -0.6707    0.8526 C   0  0  0  0  0  0  0  0  0  0  0  0
   -0.8727   -0.3186    1.9660 C   0  0  0  0  0  0  0  0  0  0  0  0
    1.3625   -1.3607    1.3998 C   0  0  0  0  0  0  0  0  0  0  0  0
   -1.4546   -0.8823   -0.6275 H   0  0  0  0  0  0  0  0  0  0  0  0
   -1.2118   -1.2247    2.4722 H   0  0  0  0  0  0  0  0  0  0  0  0
   -0.3966    0.3266    2.7052 H   0  0  0  0  0  0  0  0  0  0  0  0
   -1.7486    0.2019    1.5748 H   0  0  0  0  0  0  0  0  0  0  0  0
    1.8518   -0.7195    2.1348 H   0  0  0  0  0  0  0  0  0  0  0  0
    2.0753   -1.5890    0.6076 H   0  0  0  0  0  0  0  0  0  0  0  0
    1.0993   -2.3019    1.8856 H   0  0  0  0  0  0  0  0  0  0  0  0
  1  2  3  0
  1  6  1  0
  2  3  1  0
  3  4  1  0
  3  5  1  0
  3  7  1  0
  4  8  1  0
  4  9  1  0
  4 10  1  0
  5 11  1  0
  5 12  1  0
  5 13  1  0
 14 15  1  0
 15 16  2  3
 15 19  1  0
 16 17  1  0
 16 18  1  0
 17 20  1  0
 17 21  1  0
 17 22  1  0
 18 23  1  0
 18 24  1  0
 18 25  1  0
M  RAD  1  14   2
M  END
>  <reaction>  (13) 
rxn_1328

>  <mol_properties>  (13) 
{"1": {"label": "*4", "atom_type": "Ct"}, "2": {"label": "*3", "atom_type": "Cs"}, "6": {"label": "*2", "atom_type": "H0"}, "14": {"label": "*0", "atom_type": "CS"}, "15": {"label": "*1", "atom_type": "Cs"}}

>  <type>  (13) 
unop_9

>  <geom_source>  (13) 
Heuristics

$$$$

     RDKit          3D

 25 23  0  0  0  0  0  0  0  0999 V2000
   -0.5681    1.4898   -2.9980 C   0  0  0  0  0  0  0  0  0  0  0  0
   -0.5681    1.4898   -1.7999 C   0  0  0  0  0  0  0  0  0  0  0  0
   -0.5681    1.5137   -0.3361 C   0  0  0  0  0  0  0  0  0  0  0  0
   -1.8343    2.1902    0.1982 C   0  0  0  0  0  0  0  0  0  0  0  0
    0.6980    2.1902    0.1982 C   0  0  0  0  0  0  0  0  0  0  0  0
   -0.5681    1.4898   -4.0613 H   0  0  0  0  0  0  0  0  0  0  0  0
   -0.5682    0.2651    0.0718 H   0  0  0  0  0  0  0  0  0  0  0  0
   -2.7313    1.6909   -0.1677 H   0  0  0  0  0  0  0  0  0  0  0  0
   -1.8716    3.2337   -0.1193 H   0  0  0  0  0  0  0  0  0  0  0  0
   -1.8416    2.1622    1.2893 H   0  0  0  0  0  0  0  0  0  0  0  0
    0.7354    3.2337   -0.1193 H   0  0  0  0  0  0  0  0  0  0  0  0
    1.5950    1.6908   -0.1677 H   0  0  0  0  0  0  0  0  0  0  0  0
    0.7053    2.1622    1.2893 H   0  0  0  0  0  0  0  0  0  0  0  0
    2.1397   -1.6705    0.5938 S   0  0  0  0  0  1  0  0  0  0  0  0
    0.6868   -1.5809   -0.0875 C   0  0  0  0  0  0  0  0  0  0  0  0
   -0.5682   -0.9885    0.4812 C   0  0  0  0  0  0  0  0  0  0  0  0
   -1.6577   -2.0707    0.5027 C   0  0  0  0  0  0  0  0  0  0  0  0
   -0.4058   -0.3228    1.8370 C   0  0  0  0  0  0  0  0  0  0  0  0
    0.5468   -2.0063   -1.0842 H   0  0  0  0  0  0  0  0  0  0  0  0
   -1.3972   -2.8574    1.2137 H   0  0  0  0  0  0  0  0  0  0  0  0
   -2.6105   -1.6371    0.8086 H   0  0  0  0  0  0  0  0  0  0  0  0
   -1.7924   -2.5287   -0.4787 H   0  0  0  0  0  0  0  0  0  0  0  0
   -1.3520    0.1223    2.1488 H   0  0  0  0  0  0  0  0  0  0  0  0
    0.3539    0.4582    1.8096 H   0  0  0  0  0  0  0  0  0  0  0  0
   -0.1021   -1.0496    2.5924 H   0  0  0  0  0  0  0  0  0  0  0  0
  1  2  3  0
  1  6  1  0
  2  3  1  0
  3  4  1  0
  3  5  1  0
  3  7  1  0
  4  8  1  0
  4  9  1  0
  4 10  1  0
  5 11  1  0
  5 12  1  0
  5 13  1  0
 14 15  1  0
 15 16  2  3
 15 19  1  0
 16 17  1  0
 16 18  1  0
 17 20  1  0
 17 21  1  0
 17 22  1  0
 18 23  1  0
 18 24  1  0
 18 25  1  0
M  RAD  1  14   2
M  END
>  <reaction>  (14) 
rxn_1328

>  <mol_properties>  (14) 
{"1": {"label": "*4", "atom_type": "Ct"}, "2": {"label": "*3", "atom_type": "Cs"}, "6": {"label": "*2", "atom_type": "H0"}, "14": {"label": "*0", "atom_type": "CS"}, "15": {"label": "*1", "atom_type": "Cs"}}

>  <type>  (14) 
unop_10

>  <geom_source>  (14) 
Heuristics

$$$$

     RDKit          3D

 25 23  0  0  0  0  0  0  0  0999 V2000
    0.2664    1.5818   -3.3490 C   0  0  0  0  0  0  0  0  0  0  0  0
    0.2664    1.5818   -2.1510 C   0  0  0  0  0  0  0  0  0  0  0  0
    0.2664    1.6058   -0.6872 C   0  0  0  0  0  0  0  0  0  0  0  0
   -0.9997    2.2822   -0.1528 C   0  0  0  0  0  0  0  0  0  0  0  0
    1.5325    2.2822   -0.1528 C   0  0  0  0  0  0  0  0  0  0  0  0
    0.2664    1.5818   -4.4124 H   0  0  0  0  0  0  0  0  0  0  0  0
    0.2664    0.3571   -0.2793 H   0  0  0  0  0  0  0  0  0  0  0  0
   -1.8968    1.7829   -0.5187 H   0  0  0  0  0  0  0  0  0  0  0  0
   -1.0370    3.3257   -0.4703 H   0  0  0  0  0  0  0  0  0  0  0  0
   -1.0070    2.2542    0.9383 H   0  0  0  0  0  0  0  0  0  0  0  0
    1.5699    3.3257   -0.4703 H   0  0  0  0  0  0  0  0  0  0  0  0
    2.4296    1.7829   -0.5187 H   0  0  0  0  0  0  0  0  0  0  0  0
    1.5399    2.2542    0.9383 H   0  0  0  0  0  0  0  0  0  0  0  0
   -1.3612   -2.0310    2.0986 S   0  0  0  0  0  1  0  0  0  0  0  0
   -0.4582   -0.8741    1.4432 C   0  0  0  0  0  0  0  0  0  0  0  0
    0.2664   -0.8964    0.1302 C   0  0  0  0  0  0  0  0  0  0  0  0
    1.7594   -0.6442    0.3874 C   0  0  0  0  0  0  0  0  0  0  0  0
    0.0397   -2.1441   -0.7060 C   0  0  0  0  0  0  0  0  0  0  0  0
   -0.3146    0.0572    1.9964 H   0  0  0  0  0  0  0  0  0  0  0  0
    2.1960   -1.4797    0.9385 H   0  0  0  0  0  0  0  0  0  0  0  0
    2.2912   -0.5458   -0.5595 H   0  0  0  0  0  0  0  0  0  0  0  0
    1.9221    0.2676    0.9647 H   0  0  0  0  0  0  0  0  0  0  0  0
    0.5610   -2.0524   -1.6603 H   0  0  0  0  0  0  0  0  0  0  0  0
   -1.0201   -2.3057   -0.9025 H   0  0  0  0  0  0  0  0  0  0  0  0
    0.4168   -3.0298   -0.1919 H   0  0  0  0  0  0  0  0  0  0  0  0
  1  2  3  0
  1  6  1  0
  2  3  1  0
  3  4  1  0
  3  5  1  0
  3  7  1  0
  4  8  1  0
  4  9  1  0
  4 10  1  0
  5 11  1  0
  5 12  1  0
  5 13  1  0
 14 15  1  0
 15 16  2  3
 15 19  1  0
 16 17  1  0
 16 18  1  0
 17 20  1  0
 17 21  1  0
 17 22  1  0
 18 23  1  0
 18 24  1  0
 18 25  1  0
M  RAD  1  14   2
M  END
>  <reaction>  (15) 
rxn_1328

>  <mol_properties>  (15) 
{"1": {"label": "*4", "atom_type": "Ct"}, "2": {"label": "*3", "atom_type": "Cs"}, "6": {"label": "*2", "atom_type": "H0"}, "14": {"label": "*0", "atom_type": "CS"}, "15": {"label": "*1", "atom_type": "Cs"}}

>  <type>  (15) 
unop_11

>  <geom_source>  (15) 
Heuristics

$$$$

     RDKit          3D

 25 23  0  0  0  0  0  0  0  0999 V2000
   -0.1982    1.7685   -2.5943 C   0  0  0  0  0  0  0  0  0  0  0  0
   -0.1982    1.7685   -1.3962 C   0  0  0  0  0  0  0  0  0  0  0  0
   -0.1982    1.7924    0.0676 C   0  0  0  0  0  0  0  0  0  0  0  0
   -1.4643    2.4689    0.6019 C   0  0  0  0  0  0  0  0  0  0  0  0
    1.0679    2.4689    0.6019 C   0  0  0  0  0  0  0  0  0  0  0  0
   -0.1982    1.7685   -3.6576 H   0  0  0  0  0  0  0  0  0  0  0  0
   -0.1982    0.5438    0.4755 H   0  0  0  0  0  0  0  0  0  0  0  0
   -2.3613    1.9696    0.2360 H   0  0  0  0  0  0  0  0  0  0  0  0
   -1.5016    3.5124    0.2844 H   0  0  0  0  0  0  0  0  0  0  0  0
   -1.4716    2.4409    1.6930 H   0  0  0  0  0  0  0  0  0  0  0  0
    1.1053    3.5124    0.2844 H   0  0  0  0  0  0  0  0  0  0  0  0
    1.9650    1.9695    0.2360 H   0  0  0  0  0  0  0  0  0  0  0  0
    1.0753    2.4409    1.6930 H   0  0  0  0  0  0  0  0  0  0  0  0
    0.8544   -2.6547   -0.8237 S   0  0  0  0  0  1  0  0  0  0  0  0
   -0.1982   -1.5271   -0.3726 C   0  0  0  0  0  0  0  0  0  0  0  0
   -0.1982   -0.7098    0.8849 C   0  0  0  0  0  0  0  0  0  0  0  0
   -1.5262   -0.9394    1.6214 C   0  0  0  0  0  0  0  0  0  0  0  0
    0.9982   -0.9321    1.7941 C   0  0  0  0  0  0  0  0  0  0  0  0
   -1.0448   -1.3067   -1.0273 H   0  0  0  0  0  0  0  0  0  0  0  0
   -1.5876   -1.9685    1.9813 H   0  0  0  0  0  0  0  0  0  0  0  0
   -1.5976   -0.2729    2.4817 H   0  0  0  0  0  0  0  0  0  0  0  0
   -2.3852   -0.7523    0.9746 H   0  0  0  0  0  0  0  0  0  0  0  0
    0.9411   -0.2634    2.6545 H   0  0  0  0  0  0  0  0  0  0  0  0
    1.9365   -0.7472    1.2713 H   0  0  0  0  0  0  0  0  0  0  0  0
    1.0229   -1.9604    2.1587 H   0  0  0  0  0  0  0  0  0  0  0  0
  1  2  3  0
  1  6  1  0
  2  3  1  0
  3  4  1  0
  3  5  1  0
  3  7  1  0
  4  8  1  0
  4  9  1  0
  4 10  1  0
  5 11  1  0
  5 12  1  0
  5 13  1  0
 14 15  1  0
 15 16  2  3
 15 19  1  0
 16 17  1  0
 16 18  1  0
 17 20  1  0
 17 21  1  0
 17 22  1  0
 18 23  1  0
 18 24  1  0
 18 25  1  0
M  RAD  1  14   2
M  END
>  <reaction>  (16) 
rxn_1328

>  <mol_properties>  (16) 
{"1": {"label": "*4", "atom_type": "Ct"}, "2": {"label": "*3", "atom_type": "Cs"}, "6": {"label": "*2", "atom_type": "H0"}, "14": {"label": "*0", "atom_type": "CS"}, "15": {"label": "*1", "atom_type": "Cs"}}

>  <type>  (16) 
unop_12

>  <geom_source>  (16) 
Heuristics

$$$$

     RDKit          3D

 25 23  0  0  0  0  0  0  0  0999 V2000
   -1.2377    2.7361   -0.9386 S   0  0  0  0  0  0  0  0  0  0  0  0
   -1.2959    0.2835   -0.1903 C   0  0  0  0  0  0  0  0  0  0  0  0
   -1.8749    0.4023    1.2246 C   0  0  0  0  0  0  0  0  0  0  0  0
   -1.6692   -1.0686   -0.8053 C   0  0  0  0  0  0  0  0  0  0  0  0
    1.7833   -0.8809   -1.1598 C   0  0  0  0  0  0  0  0  0  0  0  0
    1.5858   -1.0524    1.3532 C   0  0  0  0  0  0  0  0  0  0  0  0
    1.2290   -0.2381    0.1106 C   0  0  0  0  0  3  0  0  0  0  0  0
   -1.7836    1.4127   -1.0671 C   0  0  0  0  0  0  0  0  0  0  0  0
    1.7116    1.1448    0.2429 C   0  0  0  0  0  0  0  0  0  0  0  0
    2.1063    2.2789    0.3513 C   0  0  0  0  0  0  0  0  0  0  0  0
    0.0298    0.3336   -0.1100 H   0  0  0  0  0  0  0  0  0  0  0  0
   -1.5496    1.3548    1.6939 H   0  0  0  0  0  0  0  0  0  0  0  0
   -1.5081   -0.4331    1.8581 H   0  0  0  0  0  0  0  0  0  0  0  0
   -2.9857    0.3743    1.1975 H   0  0  0  0  0  0  0  0  0  0  0  0
   -2.7730   -1.1769   -0.8808 H   0  0  0  0  0  0  0  0  0  0  0  0
   -1.2681   -1.8949   -0.1808 H   0  0  0  0  0  0  0  0  0  0  0  0
   -1.2272   -1.1582   -1.8205 H   0  0  0  0  0  0  0  0  0  0  0  0
    1.3764   -1.9080   -1.2715 H   0  0  0  0  0  0  0  0  0  0  0  0
    2.8932   -0.9328   -1.1237 H   0  0  0  0  0  0  0  0  0  0  0  0
    1.4761   -0.2896   -2.0486 H   0  0  0  0  0  0  0  0  0  0  0  0
    1.1774   -2.0808    1.2606 H   0  0  0  0  0  0  0  0  0  0  0  0
    1.1380   -0.5833    2.2551 H   0  0  0  0  0  0  0  0  0  0  0  0
    2.6883   -1.1107    1.4834 H   0  0  0  0  0  0  0  0  0  0  0  0
   -2.4751    1.2134   -1.8806 H   0  0  0  0  0  0  0  0  0  0  0  0
    2.4530    3.2742    0.4465 H   0  0  0  0  0  0  0  0  0  0  0  0
  1  8  2  0
  2  3  1  0
  2  4  1  0
  2  8  1  0
  2 11  1  0
  3 12  1  0
  3 13  1  0
  3 14  1  0
  4 15  1  0
  4 16  1  0
  4 17  1  0
  5  7  1  0
  5 18  1  0
  5 19  1  0
  5 20  1  0
  6  7  1  0
  6 21  1  0
  6 22  1  0
  6 23  1  0
  7  9  1  0
  8 24  1  0
  9 10  3  0
 10 25  1  0
M  RAD  1   7   2
M  END
>  <reaction>  (17) 
rxn_1328

>  <mol_properties>  (17) 
{"1": {"label": "*4", "atom_type": "Ct"}, "2": {"label": "*3", "atom_type": "Cs"}, "6": {"label": "*2", "atom_type": "H0"}, "14": {"label": "*0", "atom_type": "CS"}, "15": {"label": "*1", "atom_type": "Cs"}}

>  <type>  (17) 
unop_13

>  <geom_source>  (17) 
AutoTST

$$$$
