
     RDKit          3D

 12 11  0  0  0  0  0  0  0  0999 V2000
    1.9877    0.1011    0.4814 C   0  0  0  0  0  0  0  0  0  0  0  0
    0.8179    0.5502    0.0525 C   0  0  0  0  0  0  0  0  0  0  0  0
   -0.2939   -0.2692   -0.5320 C   0  0  0  0  0  0  0  0  0  0  0  0
   -0.0292   -1.7631   -0.6328 C   0  0  0  0  0  0  0  0  0  0  0  0
    2.2522   -0.9490    0.4436 H   0  0  0  0  0  0  0  0  0  0  0  0
    2.7295    0.7757    0.8896 H   0  0  0  0  0  0  0  0  0  0  0  0
    0.6162    1.6164    0.1190 H   0  0  0  0  0  0  0  0  0  0  0  0
   -0.5268    0.1319   -1.5245 H   0  0  0  0  0  0  0  0  0  0  0  0
   -1.1959   -0.0938    0.0644 H   0  0  0  0  0  0  0  0  0  0  0  0
    0.1590   -2.1992    0.3502 H   0  0  0  0  0  0  0  0  0  0  0  0
    0.8382   -1.9701   -1.2626 H   0  0  0  0  0  0  0  0  0  0  0  0
   -0.8879   -2.2759   -1.0672 H   0  0  0  0  0  0  0  0  0  0  0  0
  1  2  2  3
  1  5  1  0
  1  6  1  0
  2  3  1  0
  2  7  1  0
  3  4  1  0
  3  8  1  0
  3  9  1  0
  4 10  1  0
  4 11  1  0
  4 12  1  0
M  END
>  <reaction>  (1) 
rxn_1079

>  <mol_properties>  (1) 
{"2": {"label": "donator", "atom_type": "Cs"}, "7": {"label": "d_hydrogen", "atom_type": "H0"}}

>  <type>  (1) 
r1h

$$$$

     RDKit          3D

  7  6  0  0  0  0  0  0  0  0999 V2000
   -0.6904   -0.9066   -0.0346 C   0  0  0  0  0  0  0  0  0  0  0  0
    0.1413    0.0254   -0.6161 C   0  0  0  0  0  0  0  0  0  0  0  0
    0.4603    0.1105   -1.9267 C   0  0  0  0  0  3  0  0  0  0  0  0
    0.8318    0.2180   -3.4201 S   0  0  0  0  0  0  0  0  0  0  0  0
   -0.8731   -0.8770    1.0287 H   0  0  0  0  0  0  0  0  0  0  0  0
   -1.1718   -1.6767   -0.6199 H   0  0  0  0  0  0  0  0  0  0  0  0
    0.6090    0.7866    0.0044 H   0  0  0  0  0  0  0  0  0  0  0  0
  1  2  2  3
  1  5  1  0
  1  6  1  0
  2  3  1  0
  2  7  1  0
  3  4  2  0
M  RAD  1   3   2
M  END
>  <reaction>  (2) 
rxn_1079

>  <mol_properties>  (2) 
{"2": {"label": "acceptor", "atom_type": "CS"}}

>  <type>  (2) 
r2

$$$$

     RDKit          3D

  8  7  0  0  0  0  0  0  0  0999 V2000
   -1.1617    0.0338    0.5053 C   0  0  0  0  0  0  0  0  0  0  0  0
   -0.1023    0.4503   -0.1863 C   0  0  0  0  0  0  0  0  0  0  0  0
    1.0978   -0.3557   -0.3104 C   0  0  0  0  0  0  0  0  0  0  0  0
    2.4251    0.0667   -1.1256 S   0  0  0  0  0  0  0  0  0  0  0  0
   -1.1653   -0.9292    1.0039 H   0  0  0  0  0  0  0  0  0  0  0  0
   -2.0546    0.6389    0.5948 H   0  0  0  0  0  0  0  0  0  0  0  0
   -0.0991    1.4132   -0.6847 H   0  0  0  0  0  0  0  0  0  0  0  0
    1.0601   -1.3180    0.2032 H   0  0  0  0  0  0  0  0  0  0  0  0
  1  2  2  3
  1  5  1  0
  1  6  1  0
  2  3  1  0
  2  7  1  0
  3  4  2  0
  3  8  1  0
M  END
>  <reaction>  (3) 
rxn_1079

>  <mol_properties>  (3) 
{"2": {"label": "acceptor", "atom_type": "CS"}, "7": {"label": "a_hydrogen", "atom_type": "H0"}}

>  <type>  (3) 
r2h

$$$$

     RDKit          3D

 19 17  0  0  0  0  0  0  0  0999 V2000
    1.6163   -1.4272   -0.4785 C   0  0  0  0  0  0  0  0  0  0  0  0
    1.5621   -0.8803    0.7360 C   0  0  0  0  0  0  0  0  0  0  0  0
    0.3917   -0.1788    1.2109 C   0  0  0  0  0  3  0  0  0  0  0  0
    0.1162    0.5352    2.6044 S   0  0  0  0  0  0  0  0  0  0  0  0
    2.5038   -1.9481   -0.8152 H   0  0  0  0  0  0  0  0  0  0  0  0
    0.7765   -1.3771   -1.1619 H   0  0  0  0  0  0  0  0  0  0  0  0
    2.4088   -0.9484    1.4142 H   0  0  0  0  0  0  0  0  0  0  0  0
   -1.6154   -1.2099   -2.6411 C   0  0  0  0  0  0  0  0  0  0  0  0
   -1.9207   -0.9392   -1.3694 C   0  0  0  0  0  0  0  0  0  0  0  0
   -1.5442    0.2617   -0.6279 C   0  0  0  0  0  0  0  0  0  0  0  0
   -0.9388    1.4229   -1.3742 C   0  0  0  0  0  0  0  0  0  0  0  0
   -1.0772   -0.5066   -3.2656 H   0  0  0  0  0  0  0  0  0  0  0  0
   -1.9164   -2.1418   -3.1016 H   0  0  0  0  0  0  0  0  0  0  0  0
   -2.4757   -1.6837   -0.8050 H   0  0  0  0  0  0  0  0  0  0  0  0
   -0.6131   -0.0837    0.2395 H   0  0  0  0  0  0  0  0  0  0  0  0
   -2.2927    0.5590    0.1080 H   0  0  0  0  0  0  0  0  0  0  0  0
   -1.6431    1.8407   -2.0992 H   0  0  0  0  0  0  0  0  0  0  0  0
   -0.0414    1.1238   -1.9208 H   0  0  0  0  0  0  0  0  0  0  0  0
   -0.6562    2.2164   -0.6816 H   0  0  0  0  0  0  0  0  0  0  0  0
  1  2  2  3
  1  5  1  0
  1  6  1  0
  2  3  1  0
  2  7  1  0
  3  4  2  0
  8  9  2  3
  8 12  1  0
  8 13  1  0
  9 10  1  0
  9 14  1  0
 10 11  1  0
 10 15  1  0
 10 16  1  0
 11 17  1  0
 11 18  1  0
 11 19  1  0
M  RAD  1   3   2
M  END
>  <reaction>  (4) 
rxn_1079

>  <mol_properties>  (4) 
{"2": {"label": "*3", "atom_type": "CS"}, "3": {"label": "*4", "atom_type": "S2d"}, "8": {"label": "*0", "atom_type": "Cd"}, "9": {"label": "*1", "atom_type": "Cs"}, "14": {"label": "*2", "atom_type": "H0"}}

>  <type>  (4) 
ts

$$$$

     RDKit          3D

 19 17  0  0  0  0  0  0  0  0999 V2000
    2.0806    1.5123   -0.3669 C   0  0  0  0  0  0  0  0  0  0  0  0
    1.7347    0.9994    0.8127 C   0  0  0  0  0  0  0  0  0  0  0  0
    0.7935   -0.0991    0.9251 C   0  0  0  0  0  0  0  0  0  0  0  0
    0.3173   -0.7820    2.3077 S   0  0  0  0  0  0  0  0  0  0  0  0
    2.7833    2.3318   -0.4452 H   0  0  0  0  0  0  0  0  0  0  0  0
    1.6684    1.1247   -1.2919 H   0  0  0  0  0  0  0  0  0  0  0  0
    2.1472    1.3872    1.7374 H   0  0  0  0  0  0  0  0  0  0  0  0
   -1.2892   -1.1408   -2.8813 C   0  0  0  0  0  0  0  0  0  0  0  0
   -1.2892   -1.1408   -1.5570 C   0  0  0  0  0  0  0  0  0  0  0  0
   -1.2892    0.0637   -0.6635 C   0  0  0  0  0  3  0  0  0  0  0  0
   -1.2892    1.4095   -1.3712 C   0  0  0  0  0  0  0  0  0  0  0  0
   -1.2892   -0.2239   -3.4588 H   0  0  0  0  0  0  0  0  0  0  0  0
   -1.2892   -2.0681   -3.4400 H   0  0  0  0  0  0  0  0  0  0  0  0
   -1.2892   -2.0965   -1.0388 H   0  0  0  0  0  0  0  0  0  0  0  0
   -0.2460   -0.0178    0.1322 H   0  0  0  0  0  0  0  0  0  0  0  0
   -2.1586   -0.0042   -0.0004 H   0  0  0  0  0  0  0  0  0  0  0  0
   -2.1717    1.5245   -2.0036 H   0  0  0  0  0  0  0  0  0  0  0  0
   -0.4068    1.5245   -2.0036 H   0  0  0  0  0  0  0  0  0  0  0  0
   -1.2892    2.2239   -0.6459 H   0  0  0  0  0  0  0  0  0  0  0  0
  1  2  2  3
  1  5  1  0
  1  6  1  0
  2  3  1  0
  2  7  1  0
  3  4  2  0
  3 15  1  0
  8  9  2  3
  8 12  1  0
  8 13  1  0
  9 10  1  0
  9 14  1  0
 10 11  1  0
 10 16  1  0
 11 17  1  0
 11 18  1  0
 11 19  1  0
M  RAD  1  10   2
M  END
>  <reaction>  (5) 
rxn_1079

>  <mol_properties>  (5) 
{"2": {"label": "*3", "atom_type": "CS"}, "3": {"label": "*4", "atom_type": "S2d"}, "8": {"label": "*0", "atom_type": "Cd"}, "9": {"label": "*1", "atom_type": "Cs"}, "14": {"label": "*2", "atom_type": "H0"}}

>  <type>  (5) 
unop_1

>  <geom_source>  (5) 
Heuristics

$$$$

     RDKit          3D

 19 17  0  0  0  0  0  0  0  0999 V2000
    1.6979   -1.4829   -0.5797 C   0  0  0  0  0  0  0  0  0  0  0  0
    1.8120   -0.6793    0.4764 C   0  0  0  0  0  0  0  0  0  0  0  0
    0.6693    0.0176    1.0368 C   0  0  0  0  0  0  0  0  0  0  0  0
    0.7132    1.0078    2.3105 S   0  0  0  0  0  0  0  0  0  0  0  0
    2.5535   -2.0004   -0.9939 H   0  0  0  0  0  0  0  0  0  0  0  0
    0.7405   -1.6463   -1.0618 H   0  0  0  0  0  0  0  0  0  0  0  0
    2.7694   -0.5161    0.9583 H   0  0  0  0  0  0  0  0  0  0  0  0
   -1.4134   -1.0241   -2.7696 C   0  0  0  0  0  0  0  0  0  0  0  0
   -1.4134   -1.0241   -1.4452 C   0  0  0  0  0  0  0  0  0  0  0  0
   -1.4134    0.1804   -0.5518 C   0  0  0  0  0  3  0  0  0  0  0  0
   -1.4134    1.5261   -1.2595 C   0  0  0  0  0  0  0  0  0  0  0  0
   -1.4134   -0.1072   -3.3470 H   0  0  0  0  0  0  0  0  0  0  0  0
   -1.4134   -1.9514   -3.3282 H   0  0  0  0  0  0  0  0  0  0  0  0
   -1.4134   -1.9798   -0.9270 H   0  0  0  0  0  0  0  0  0  0  0  0
   -0.3701    0.0988    0.2440 H   0  0  0  0  0  0  0  0  0  0  0  0
   -2.2828    0.1124    0.1114 H   0  0  0  0  0  0  0  0  0  0  0  0
   -2.2958    1.6412   -1.8919 H   0  0  0  0  0  0  0  0  0  0  0  0
   -0.5309    1.6412   -1.8919 H   0  0  0  0  0  0  0  0  0  0  0  0
   -1.4134    2.3405   -0.5342 H   0  0  0  0  0  0  0  0  0  0  0  0
  1  2  2  3
  1  5  1  0
  1  6  1  0
  2  3  1  0
  2  7  1  0
  3  4  2  0
  3 15  1  0
  8  9  2  3
  8 12  1  0
  8 13  1  0
  9 10  1  0
  9 14  1  0
 10 11  1  0
 10 16  1  0
 11 17  1  0
 11 18  1  0
 11 19  1  0
M  RAD  1  10   2
M  END
>  <reaction>  (6) 
rxn_1079

>  <mol_properties>  (6) 
{"2": {"label": "*3", "atom_type": "CS"}, "3": {"label": "*4", "atom_type": "S2d"}, "8": {"label": "*0", "atom_type": "Cd"}, "9": {"label": "*1", "atom_type": "Cs"}, "14": {"label": "*2", "atom_type": "H0"}}

>  <type>  (6) 
unop_2

>  <geom_source>  (6) 
Heuristics

$$$$

     RDKit          3D

 19 17  0  0  0  0  0  0  0  0999 V2000
    1.2976    2.3231    0.5299 C   0  0  0  0  0  0  0  0  0  0  0  0
    1.3495    1.2447    1.3099 C   0  0  0  0  0  0  0  0  0  0  0  0
    0.7984   -0.0310    0.8927 C   0  0  0  0  0  0  0  0  0  0  0  0
    0.8160   -1.3863    1.7688 S   0  0  0  0  0  0  0  0  0  0  0  0
    1.7102    3.2724    0.8459 H   0  0  0  0  0  0  0  0  0  0  0  0
    0.8384    2.2861   -0.4518 H   0  0  0  0  0  0  0  0  0  0  0  0
    1.8087    1.2821    2.2914 H   0  0  0  0  0  0  0  0  0  0  0  0
   -1.2843   -1.0727   -2.9137 C   0  0  0  0  0  0  0  0  0  0  0  0
   -1.2843   -1.0727   -1.5894 C   0  0  0  0  0  0  0  0  0  0  0  0
   -1.2843    0.1318   -0.6959 C   0  0  0  0  0  3  0  0  0  0  0  0
   -1.2843    1.4776   -1.4036 C   0  0  0  0  0  0  0  0  0  0  0  0
   -1.2843   -0.1558   -3.4911 H   0  0  0  0  0  0  0  0  0  0  0  0
   -1.2843   -2.0000   -3.4724 H   0  0  0  0  0  0  0  0  0  0  0  0
   -1.2843   -2.0284   -1.0712 H   0  0  0  0  0  0  0  0  0  0  0  0
   -0.2410    0.0503    0.0999 H   0  0  0  0  0  0  0  0  0  0  0  0
   -2.1537    0.0639   -0.0328 H   0  0  0  0  0  0  0  0  0  0  0  0
   -2.1668    1.5926   -2.0360 H   0  0  0  0  0  0  0  0  0  0  0  0
   -0.4019    1.5926   -2.0360 H   0  0  0  0  0  0  0  0  0  0  0  0
   -1.2843    2.2920   -0.6783 H   0  0  0  0  0  0  0  0  0  0  0  0
  1  2  2  3
  1  5  1  0
  1  6  1  0
  2  3  1  0
  2  7  1  0
  3  4  2  0
  3 15  1  0
  8  9  2  3
  8 12  1  0
  8 13  1  0
  9 10  1  0
  9 14  1  0
 10 11  1  0
 10 16  1  0
 11 17  1  0
 11 18  1  0
 11 19  1  0
M  RAD  1  10   2
M  END
>  <reaction>  (7) 
rxn_1079

>  <mol_properties>  (7) 
{"2": {"label": "*3", "atom_type": "CS"}, "3": {"label": "*4", "atom_type": "S2d"}, "8": {"label": "*0", "atom_type": "Cd"}, "9": {"label": "*1", "atom_type": "Cs"}, "14": {"label": "*2", "atom_type": "H0"}}

>  <type>  (7) 
unop_3

>  <geom_source>  (7) 
Heuristics

$$$$

     RDKit          3D

 19 17  0  0  0  0  0  0  0  0999 V2000
    0.3237   -2.2905    1.3430 C   0  0  0  0  0  0  0  0  0  0  0  0
    0.8448   -1.1274    1.7299 C   0  0  0  0  0  0  0  0  0  0  0  0
    0.8167    0.0469    0.8781 C   0  0  0  0  0  0  0  0  0  0  0  0
    1.4215    1.4930    1.2624 S   0  0  0  0  0  0  0  0  0  0  0  0
    0.3473   -3.1635    1.9822 H   0  0  0  0  0  0  0  0  0  0  0  0
   -0.1435   -2.4024    0.3708 H   0  0  0  0  0  0  0  0  0  0  0  0
    1.3119   -1.0159    2.7020 H   0  0  0  0  0  0  0  0  0  0  0  0
   -1.2660   -0.9948   -2.9283 C   0  0  0  0  0  0  0  0  0  0  0  0
   -1.2660   -0.9948   -1.6040 C   0  0  0  0  0  0  0  0  0  0  0  0
   -1.2660    0.2097   -0.7105 C   0  0  0  0  0  3  0  0  0  0  0  0
   -1.2660    1.5555   -1.4182 C   0  0  0  0  0  0  0  0  0  0  0  0
   -1.2660   -0.0779   -3.5058 H   0  0  0  0  0  0  0  0  0  0  0  0
   -1.2660   -1.9221   -3.4870 H   0  0  0  0  0  0  0  0  0  0  0  0
   -1.2660   -1.9505   -1.0858 H   0  0  0  0  0  0  0  0  0  0  0  0
   -0.2227    0.1281    0.0852 H   0  0  0  0  0  0  0  0  0  0  0  0
   -2.1354    0.1417   -0.0474 H   0  0  0  0  0  0  0  0  0  0  0  0
   -2.1484    1.6705   -2.0506 H   0  0  0  0  0  0  0  0  0  0  0  0
   -0.3835    1.6705   -2.0506 H   0  0  0  0  0  0  0  0  0  0  0  0
   -1.2660    2.3698   -0.6929 H   0  0  0  0  0  0  0  0  0  0  0  0
  1  2  2  3
  1  5  1  0
  1  6  1  0
  2  3  1  0
  2  7  1  0
  3  4  2  0
  3 15  1  0
  8  9  2  3
  8 12  1  0
  8 13  1  0
  9 10  1  0
  9 14  1  0
 10 11  1  0
 10 16  1  0
 11 17  1  0
 11 18  1  0
 11 19  1  0
M  RAD  1  10   2
M  END
>  <reaction>  (8) 
rxn_1079

>  <mol_properties>  (8) 
{"2": {"label": "*3", "atom_type": "CS"}, "3": {"label": "*4", "atom_type": "S2d"}, "8": {"label": "*0", "atom_type": "Cd"}, "9": {"label": "*1", "atom_type": "Cs"}, "14": {"label": "*2", "atom_type": "H0"}}

>  <type>  (8) 
unop_4

>  <geom_source>  (8) 
Heuristics

$$$$

     RDKit          3D

 19 17  0  0  0  0  0  0  0  0999 V2000
    0.0057    2.1019    1.9099 C   0  0  0  0  0  0  0  0  0  0  0  0
    0.8736    1.0922    1.8733 C   0  0  0  0  0  0  0  0  0  0  0  0
    0.7304   -0.0088    0.9391 C   0  0  0  0  0  0  0  0  0  0  0  0
    1.7302   -1.2705    0.8237 S   0  0  0  0  0  0  0  0  0  0  0  0
    0.1171    2.9208    2.6088 H   0  0  0  0  0  0  0  0  0  0  0  0
   -0.8449    2.1376    1.2383 H   0  0  0  0  0  0  0  0  0  0  0  0
    1.7240    1.0568    2.5450 H   0  0  0  0  0  0  0  0  0  0  0  0
   -1.3523   -1.0504   -2.8673 C   0  0  0  0  0  0  0  0  0  0  0  0
   -1.3523   -1.0504   -1.5429 C   0  0  0  0  0  0  0  0  0  0  0  0
   -1.3523    0.1541   -0.6495 C   0  0  0  0  0  3  0  0  0  0  0  0
   -1.3523    1.4998   -1.3572 C   0  0  0  0  0  0  0  0  0  0  0  0
   -1.3523   -0.1335   -3.4447 H   0  0  0  0  0  0  0  0  0  0  0  0
   -1.3523   -1.9778   -3.4260 H   0  0  0  0  0  0  0  0  0  0  0  0
   -1.3523   -2.0062   -1.0248 H   0  0  0  0  0  0  0  0  0  0  0  0
   -0.3090    0.0725    0.1463 H   0  0  0  0  0  0  0  0  0  0  0  0
   -2.2217    0.0861    0.0136 H   0  0  0  0  0  0  0  0  0  0  0  0
   -2.2347    1.6148   -1.9896 H   0  0  0  0  0  0  0  0  0  0  0  0
   -0.4698    1.6148   -1.9896 H   0  0  0  0  0  0  0  0  0  0  0  0
   -1.3523    2.3142   -0.6319 H   0  0  0  0  0  0  0  0  0  0  0  0
  1  2  2  3
  1  5  1  0
  1  6  1  0
  2  3  1  0
  2  7  1  0
  3  4  2  0
  3 15  1  0
  8  9  2  3
  8 12  1  0
  8 13  1  0
  9 10  1  0
  9 14  1  0
 10 11  1  0
 10 16  1  0
 11 17  1  0
 11 18  1  0
 11 19  1  0
M  RAD  1  10   2
M  END
>  <reaction>  (9) 
rxn_1079

>  <mol_properties>  (9) 
{"2": {"label": "*3", "atom_type": "CS"}, "3": {"label": "*4", "atom_type": "S2d"}, "8": {"label": "*0", "atom_type": "Cd"}, "9": {"label": "*1", "atom_type": "Cs"}, "14": {"label": "*2", "atom_type": "H0"}}

>  <type>  (9) 
unop_5

>  <geom_source>  (9) 
Heuristics

$$$$

     RDKit          3D

 19 17  0  0  0  0  0  0  0  0999 V2000
   -0.1621   -1.8283    2.1978 C   0  0  0  0  0  0  0  0  0  0  0  0
    0.5884   -0.7298    2.1332 C   0  0  0  0  0  0  0  0  0  0  0  0
    0.8281   -0.0372    0.8809 C   0  0  0  0  0  0  0  0  0  0  0  0
    1.7209    1.2962    0.7082 S   0  0  0  0  0  0  0  0  0  0  0  0
   -0.3377   -2.3411    3.1345 H   0  0  0  0  0  0  0  0  0  0  0  0
   -0.6240   -2.2473    1.3108 H   0  0  0  0  0  0  0  0  0  0  0  0
    1.0502   -0.3110    3.0203 H   0  0  0  0  0  0  0  0  0  0  0  0
   -1.2546   -1.0789   -2.9255 C   0  0  0  0  0  0  0  0  0  0  0  0
   -1.2546   -1.0789   -1.6011 C   0  0  0  0  0  0  0  0  0  0  0  0
   -1.2546    0.1256   -0.7077 C   0  0  0  0  0  3  0  0  0  0  0  0
   -1.2546    1.4714   -1.4154 C   0  0  0  0  0  0  0  0  0  0  0  0
   -1.2546   -0.1620   -3.5029 H   0  0  0  0  0  0  0  0  0  0  0  0
   -1.2546   -2.0062   -3.4842 H   0  0  0  0  0  0  0  0  0  0  0  0
   -1.2546   -2.0346   -1.0830 H   0  0  0  0  0  0  0  0  0  0  0  0
   -0.2113    0.0441    0.0881 H   0  0  0  0  0  0  0  0  0  0  0  0
   -2.1240    0.0577   -0.0446 H   0  0  0  0  0  0  0  0  0  0  0  0
   -2.1371    1.5864   -2.0478 H   0  0  0  0  0  0  0  0  0  0  0  0
   -0.3722    1.5864   -2.0478 H   0  0  0  0  0  0  0  0  0  0  0  0
   -1.2546    2.2857   -0.6901 H   0  0  0  0  0  0  0  0  0  0  0  0
  1  2  2  3
  1  5  1  0
  1  6  1  0
  2  3  1  0
  2  7  1  0
  3  4  2  0
  3 15  1  0
  8  9  2  3
  8 12  1  0
  8 13  1  0
  9 10  1  0
  9 14  1  0
 10 11  1  0
 10 16  1  0
 11 17  1  0
 11 18  1  0
 11 19  1  0
M  RAD  1  10   2
M  END
>  <reaction>  (10) 
rxn_1079

>  <mol_properties>  (10) 
{"2": {"label": "*3", "atom_type": "CS"}, "3": {"label": "*4", "atom_type": "S2d"}, "8": {"label": "*0", "atom_type": "Cd"}, "9": {"label": "*1", "atom_type": "Cs"}, "14": {"label": "*2", "atom_type": "H0"}}

>  <type>  (10) 
unop_6

>  <geom_source>  (10) 
Heuristics

$$$$

     RDKit          3D

 19 17  0  0  0  0  0  0  0  0999 V2000
   -0.5342   -0.8509    2.8190 C   0  0  0  0  0  0  0  0  0  0  0  0
    0.4810   -0.1337    2.3402 C   0  0  0  0  0  0  0  0  0  0  0  0
    0.7944   -0.0983    0.9240 C   0  0  0  0  0  0  0  0  0  0  0  0
    2.0012    0.7398    0.2561 S   0  0  0  0  0  0  0  0  0  0  0  0
   -0.7637   -0.8739    3.8764 H   0  0  0  0  0  0  0  0  0  0  0  0
   -1.1672   -1.4380    2.1630 H   0  0  0  0  0  0  0  0  0  0  0  0
    1.1138    0.4533    2.9965 H   0  0  0  0  0  0  0  0  0  0  0  0
   -1.2883   -1.1399   -2.8824 C   0  0  0  0  0  0  0  0  0  0  0  0
   -1.2883   -1.1399   -1.5581 C   0  0  0  0  0  0  0  0  0  0  0  0
   -1.2883    0.0646   -0.6646 C   0  0  0  0  0  3  0  0  0  0  0  0
   -1.2883    1.4103   -1.3723 C   0  0  0  0  0  0  0  0  0  0  0  0
   -1.2883   -0.2230   -3.4599 H   0  0  0  0  0  0  0  0  0  0  0  0
   -1.2883   -2.0673   -3.4411 H   0  0  0  0  0  0  0  0  0  0  0  0
   -1.2883   -2.0957   -1.0399 H   0  0  0  0  0  0  0  0  0  0  0  0
   -0.2451   -0.0170    0.1311 H   0  0  0  0  0  0  0  0  0  0  0  0
   -2.1577   -0.0034   -0.0015 H   0  0  0  0  0  0  0  0  0  0  0  0
   -2.1708    1.5253   -2.0047 H   0  0  0  0  0  0  0  0  0  0  0  0
   -0.4059    1.5253   -2.0047 H   0  0  0  0  0  0  0  0  0  0  0  0
   -1.2883    2.2247   -0.6470 H   0  0  0  0  0  0  0  0  0  0  0  0
  1  2  2  3
  1  5  1  0
  1  6  1  0
  2  3  1  0
  2  7  1  0
  3  4  2  0
  3 15  1  0
  8  9  2  3
  8 12  1  0
  8 13  1  0
  9 10  1  0
  9 14  1  0
 10 11  1  0
 10 16  1  0
 11 17  1  0
 11 18  1  0
 11 19  1  0
M  RAD  1  10   2
M  END
>  <reaction>  (11) 
rxn_1079

>  <mol_properties>  (11) 
{"2": {"label": "*3", "atom_type": "CS"}, "3": {"label": "*4", "atom_type": "S2d"}, "8": {"label": "*0", "atom_type": "Cd"}, "9": {"label": "*1", "atom_type": "Cs"}, "14": {"label": "*2", "atom_type": "H0"}}

>  <type>  (11) 
unop_7

>  <geom_source>  (11) 
Heuristics

$$$$

     RDKit          3D

 19 17  0  0  0  0  0  0  0  0999 V2000
    2.3039    0.4004   -0.8068 C   0  0  0  0  0  0  0  0  0  0  0  0
    1.9506    0.5013    0.4735 C   0  0  0  0  0  0  0  0  0  0  0  0
    0.7415   -0.1154    0.9864 C   0  0  0  0  0  0  0  0  0  0  0  0
    0.2359   -0.0459    2.5175 S   0  0  0  0  0  0  0  0  0  0  0  0
    3.2069    0.8624   -1.1843 H   0  0  0  0  0  0  0  0  0  0  0  0
    1.6965   -0.1501   -1.5166 H   0  0  0  0  0  0  0  0  0  0  0  0
    2.5582    1.0518    1.1830 H   0  0  0  0  0  0  0  0  0  0  0  0
   -1.3412   -1.1571   -2.8200 C   0  0  0  0  0  0  0  0  0  0  0  0
   -1.3412   -1.1571   -1.4957 C   0  0  0  0  0  0  0  0  0  0  0  0
   -1.3412    0.0474   -0.6022 C   0  0  0  0  0  3  0  0  0  0  0  0
   -1.3412    1.3932   -1.3099 C   0  0  0  0  0  0  0  0  0  0  0  0
   -1.3412   -0.2402   -3.3975 H   0  0  0  0  0  0  0  0  0  0  0  0
   -1.3412   -2.0844   -3.3787 H   0  0  0  0  0  0  0  0  0  0  0  0
   -1.3412   -2.1128   -0.9775 H   0  0  0  0  0  0  0  0  0  0  0  0
   -0.2979   -0.0342    0.1935 H   0  0  0  0  0  0  0  0  0  0  0  0
   -2.2106   -0.0206    0.0609 H   0  0  0  0  0  0  0  0  0  0  0  0
   -2.2236    1.5082   -1.9423 H   0  0  0  0  0  0  0  0  0  0  0  0
   -0.4587    1.5082   -1.9423 H   0  0  0  0  0  0  0  0  0  0  0  0
   -1.3412    2.2075   -0.5846 H   0  0  0  0  0  0  0  0  0  0  0  0
  1  2  2  3
  1  5  1  0
  1  6  1  0
  2  3  1  0
  2  7  1  0
  3  4  2  0
  3 15  1  0
  8  9  2  3
  8 12  1  0
  8 13  1  0
  9 10  1  0
  9 14  1  0
 10 11  1  0
 10 16  1  0
 11 17  1  0
 11 18  1  0
 11 19  1  0
M  RAD  1  10   2
M  END
>  <reaction>  (12) 
rxn_1079

>  <mol_properties>  (12) 
{"2": {"label": "*3", "atom_type": "CS"}, "3": {"label": "*4", "atom_type": "S2d"}, "8": {"label": "*0", "atom_type": "Cd"}, "9": {"label": "*1", "atom_type": "Cs"}, "14": {"label": "*2", "atom_type": "H0"}}

>  <type>  (12) 
unop_8

>  <geom_source>  (12) 
Heuristics

$$$$

     RDKit          3D

 19 17  0  0  0  0  0  0  0  0999 V2000
    0.7979   -2.2964    0.5170 C   0  0  0  0  0  0  0  0  0  0  0  0
    1.1823   -1.2483    1.2435 C   0  0  0  0  0  0  0  0  0  0  0  0
    0.7640    0.1032    0.9214 C   0  0  0  0  0  0  0  0  0  0  0  0
    1.1793    1.4291    1.7426 S   0  0  0  0  0  0  0  0  0  0  0  0
    1.1127   -3.3026    0.7616 H   0  0  0  0  0  0  0  0  0  0  0  0
    0.1540   -2.1764   -0.3473 H   0  0  0  0  0  0  0  0  0  0  0  0
    1.8261   -1.3687    2.1077 H   0  0  0  0  0  0  0  0  0  0  0  0
   -1.3187   -0.9385   -2.8850 C   0  0  0  0  0  0  0  0  0  0  0  0
   -1.3187   -0.9385   -1.5606 C   0  0  0  0  0  0  0  0  0  0  0  0
   -1.3187    0.2660   -0.6672 C   0  0  0  0  0  3  0  0  0  0  0  0
   -1.3187    1.6118   -1.3749 C   0  0  0  0  0  0  0  0  0  0  0  0
   -1.3187   -0.0216   -3.4624 H   0  0  0  0  0  0  0  0  0  0  0  0
   -1.3187   -1.8658   -3.4437 H   0  0  0  0  0  0  0  0  0  0  0  0
   -1.3187   -1.8942   -1.0425 H   0  0  0  0  0  0  0  0  0  0  0  0
   -0.2754    0.1844    0.1286 H   0  0  0  0  0  0  0  0  0  0  0  0
   -2.1880    0.1980   -0.0041 H   0  0  0  0  0  0  0  0  0  0  0  0
   -2.2011    1.7268   -2.0073 H   0  0  0  0  0  0  0  0  0  0  0  0
   -0.4362    1.7268   -2.0073 H   0  0  0  0  0  0  0  0  0  0  0  0
   -1.3187    2.4261   -0.6496 H   0  0  0  0  0  0  0  0  0  0  0  0
  1  2  2  3
  1  5  1  0
  1  6  1  0
  2  3  1  0
  2  7  1  0
  3  4  2  0
  3 15  1  0
  8  9  2  3
  8 12  1  0
  8 13  1  0
  9 10  1  0
  9 14  1  0
 10 11  1  0
 10 16  1  0
 11 17  1  0
 11 18  1  0
 11 19  1  0
M  RAD  1  10   2
M  END
>  <reaction>  (13) 
rxn_1079

>  <mol_properties>  (13) 
{"2": {"label": "*3", "atom_type": "CS"}, "3": {"label": "*4", "atom_type": "S2d"}, "8": {"label": "*0", "atom_type": "Cd"}, "9": {"label": "*1", "atom_type": "Cs"}, "14": {"label": "*2", "atom_type": "H0"}}

>  <type>  (13) 
unop_9

>  <geom_source>  (13) 
Heuristics

$$$$

     RDKit          3D

 19 17  0  0  0  0  0  0  0  0999 V2000
    2.1175   -0.6693   -0.8426 C   0  0  0  0  0  0  0  0  0  0  0  0
    1.9717   -0.1090    0.3569 C   0  0  0  0  0  0  0  0  0  0  0  0
    0.6889   -0.0686    1.0338 C   0  0  0  0  0  0  0  0  0  0  0  0
    0.4193    0.5872    2.4836 S   0  0  0  0  0  0  0  0  0  0  0  0
    3.0767   -0.6968   -1.3432 H   0  0  0  0  0  0  0  0  0  0  0  0
    1.2770   -1.1186   -1.3599 H   0  0  0  0  0  0  0  0  0  0  0  0
    2.8123    0.3401    0.8739 H   0  0  0  0  0  0  0  0  0  0  0  0
   -1.3938   -1.1103   -2.7726 C   0  0  0  0  0  0  0  0  0  0  0  0
   -1.3938   -1.1103   -1.4483 C   0  0  0  0  0  0  0  0  0  0  0  0
   -1.3938    0.0942   -0.5548 C   0  0  0  0  0  3  0  0  0  0  0  0
   -1.3938    1.4400   -1.2625 C   0  0  0  0  0  0  0  0  0  0  0  0
   -1.3938   -0.1934   -3.3501 H   0  0  0  0  0  0  0  0  0  0  0  0
   -1.3938   -2.0376   -3.3313 H   0  0  0  0  0  0  0  0  0  0  0  0
   -1.3938   -2.0660   -0.9301 H   0  0  0  0  0  0  0  0  0  0  0  0
   -0.3505    0.0126    0.2409 H   0  0  0  0  0  0  0  0  0  0  0  0
   -2.2632    0.0262    0.1083 H   0  0  0  0  0  0  0  0  0  0  0  0
   -2.2762    1.5550   -1.8949 H   0  0  0  0  0  0  0  0  0  0  0  0
   -0.5113    1.5550   -1.8949 H   0  0  0  0  0  0  0  0  0  0  0  0
   -1.3938    2.2543   -0.5372 H   0  0  0  0  0  0  0  0  0  0  0  0
  1  2  2  3
  1  5  1  0
  1  6  1  0
  2  3  1  0
  2  7  1  0
  3  4  2  0
  3 15  1  0
  8  9  2  3
  8 12  1  0
  8 13  1  0
  9 10  1  0
  9 14  1  0
 10 11  1  0
 10 16  1  0
 11 17  1  0
 11 18  1  0
 11 19  1  0
M  RAD  1  10   2
M  END
>  <reaction>  (14) 
rxn_1079

>  <mol_properties>  (14) 
{"2": {"label": "*3", "atom_type": "CS"}, "3": {"label": "*4", "atom_type": "S2d"}, "8": {"label": "*0", "atom_type": "Cd"}, "9": {"label": "*1", "atom_type": "Cs"}, "14": {"label": "*2", "atom_type": "H0"}}

>  <type>  (14) 
unop_10

>  <geom_source>  (14) 
Heuristics

$$$$

     RDKit          3D

 19 17  0  0  0  0  0  0  0  0999 V2000
   -0.6248    0.5857    2.8721 C   0  0  0  0  0  0  0  0  0  0  0  0
    0.5619    0.5329    2.2696 C   0  0  0  0  0  0  0  0  0  0  0  0
    0.7351   -0.0882    0.9698 C   0  0  0  0  0  0  0  0  0  0  0  0
    2.1308   -0.1980    0.1668 S   0  0  0  0  0  0  0  0  0  0  0  0
   -0.7487    1.0501    3.8418 H   0  0  0  0  0  0  0  0  0  0  0  0
   -1.5102    0.1635    2.4097 H   0  0  0  0  0  0  0  0  0  0  0  0
    1.4469    0.9551    2.7323 H   0  0  0  0  0  0  0  0  0  0  0  0
   -1.3476   -1.1298   -2.8366 C   0  0  0  0  0  0  0  0  0  0  0  0
   -1.3476   -1.1298   -1.5123 C   0  0  0  0  0  0  0  0  0  0  0  0
   -1.3476    0.0747   -0.6188 C   0  0  0  0  0  3  0  0  0  0  0  0
   -1.3476    1.4204   -1.3265 C   0  0  0  0  0  0  0  0  0  0  0  0
   -1.3476   -0.2129   -3.4141 H   0  0  0  0  0  0  0  0  0  0  0  0
   -1.3476   -2.0572   -3.3953 H   0  0  0  0  0  0  0  0  0  0  0  0
   -1.3476   -2.0856   -0.9941 H   0  0  0  0  0  0  0  0  0  0  0  0
   -0.3043   -0.0069    0.1769 H   0  0  0  0  0  0  0  0  0  0  0  0
   -2.2170    0.0067    0.0443 H   0  0  0  0  0  0  0  0  0  0  0  0
   -2.2300    1.5354   -1.9589 H   0  0  0  0  0  0  0  0  0  0  0  0
   -0.4651    1.5354   -1.9589 H   0  0  0  0  0  0  0  0  0  0  0  0
   -1.3476    2.2348   -0.6012 H   0  0  0  0  0  0  0  0  0  0  0  0
  1  2  2  3
  1  5  1  0
  1  6  1  0
  2  3  1  0
  2  7  1  0
  3  4  2  0
  3 15  1  0
  8  9  2  3
  8 12  1  0
  8 13  1  0
  9 10  1  0
  9 14  1  0
 10 11  1  0
 10 16  1  0
 11 17  1  0
 11 18  1  0
 11 19  1  0
M  RAD  1  10   2
M  END
>  <reaction>  (15) 
rxn_1079

>  <mol_properties>  (15) 
{"2": {"label": "*3", "atom_type": "CS"}, "3": {"label": "*4", "atom_type": "S2d"}, "8": {"label": "*0", "atom_type": "Cd"}, "9": {"label": "*1", "atom_type": "Cs"}, "14": {"label": "*2", "atom_type": "H0"}}

>  <type>  (15) 
unop_11

>  <geom_source>  (15) 
Heuristics

$$$$

     RDKit          3D

 19 17  0  0  0  0  0  0  0  0999 V2000
    1.2369   -2.0040   -0.1252 C   0  0  0  0  0  0  0  0  0  0  0  0
    1.5264   -1.0848    0.7943 C   0  0  0  0  0  0  0  0  0  0  0  0
    0.7002    0.0919    0.9890 C   0  0  0  0  0  0  0  0  0  0  0  0
    0.9731    1.2542    2.0751 S   0  0  0  0  0  0  0  0  0  0  0  0
    1.8566   -2.8801   -0.2664 H   0  0  0  0  0  0  0  0  0  0  0  0
    0.3674   -1.9052   -0.7656 H   0  0  0  0  0  0  0  0  0  0  0  0
    2.3959   -1.1839    1.4344 H   0  0  0  0  0  0  0  0  0  0  0  0
   -1.3825   -0.9497   -2.8174 C   0  0  0  0  0  0  0  0  0  0  0  0
   -1.3825   -0.9497   -1.4930 C   0  0  0  0  0  0  0  0  0  0  0  0
   -1.3825    0.2548   -0.5996 C   0  0  0  0  0  3  0  0  0  0  0  0
   -1.3825    1.6005   -1.3073 C   0  0  0  0  0  0  0  0  0  0  0  0
   -1.3825   -0.0328   -3.3948 H   0  0  0  0  0  0  0  0  0  0  0  0
   -1.3825   -1.8770   -3.3761 H   0  0  0  0  0  0  0  0  0  0  0  0
   -1.3825   -1.9054   -0.9748 H   0  0  0  0  0  0  0  0  0  0  0  0
   -0.3392    0.1732    0.1962 H   0  0  0  0  0  0  0  0  0  0  0  0
   -2.2519    0.1868    0.0636 H   0  0  0  0  0  0  0  0  0  0  0  0
   -2.2649    1.7156   -1.9397 H   0  0  0  0  0  0  0  0  0  0  0  0
   -0.5000    1.7156   -1.9397 H   0  0  0  0  0  0  0  0  0  0  0  0
   -1.3825    2.4149   -0.5820 H   0  0  0  0  0  0  0  0  0  0  0  0
  1  2  2  3
  1  5  1  0
  1  6  1  0
  2  3  1  0
  2  7  1  0
  3  4  2  0
  3 15  1  0
  8  9  2  3
  8 12  1  0
  8 13  1  0
  9 10  1  0
  9 14  1  0
 10 11  1  0
 10 16  1  0
 11 17  1  0
 11 18  1  0
 11 19  1  0
M  RAD  1  10   2
M  END
>  <reaction>  (16) 
rxn_1079

>  <mol_properties>  (16) 
{"2": {"label": "*3", "atom_type": "CS"}, "3": {"label": "*4", "atom_type": "S2d"}, "8": {"label": "*0", "atom_type": "Cd"}, "9": {"label": "*1", "atom_type": "Cs"}, "14": {"label": "*2", "atom_type": "H0"}}

>  <type>  (16) 
unop_12

>  <geom_source>  (16) 
Heuristics

$$$$

     RDKit          3D

 19 17  0  0  0  0  0  0  0  0999 V2000
    1.0769    2.0175   -1.0069 S   0  0  0  0  0  0  0  0  0  0  0  0
   -1.9969   -1.8173    0.1305 C   0  0  0  0  0  0  0  0  0  0  0  0
   -0.9363   -0.7270    0.0379 C   0  0  0  0  0  3  0  0  0  0  0  0
   -1.5367    0.6154   -0.2642 C   0  0  0  0  0  0  0  0  0  0  0  0
    2.6409   -0.0855   -0.1997 C   0  0  0  0  0  0  0  0  0  0  0  0
    3.7588    0.6401   -0.1667 C   0  0  0  0  0  0  0  0  0  0  0  0
    1.3217    0.4537   -0.5792 C   0  0  0  0  0  0  0  0  0  0  0  0
   -2.2563    1.2847    0.6410 C   0  0  0  0  0  0  0  0  0  0  0  0
   -2.5812   -1.8624   -0.8128 H   0  0  0  0  0  0  0  0  0  0  0  0
   -1.5007   -2.7974    0.2879 H   0  0  0  0  0  0  0  0  0  0  0  0
   -2.6826   -1.6230    0.9823 H   0  0  0  0  0  0  0  0  0  0  0  0
   -0.3300   -0.6860    0.9685 H   0  0  0  0  0  0  0  0  0  0  0  0
    2.6971   -1.1332    0.0666 H   0  0  0  0  0  0  0  0  0  0  0  0
   -1.3517    1.0622   -1.2356 H   0  0  0  0  0  0  0  0  0  0  0  0
    3.7684    1.6913   -0.4215 H   0  0  0  0  0  0  0  0  0  0  0  0
    4.6923    0.1747    0.1223 H   0  0  0  0  0  0  0  0  0  0  0  0
    0.3202   -0.3370   -0.5744 H   0  0  0  0  0  0  0  0  0  0  0  0
   -2.4394    0.8695    1.6274 H   0  0  0  0  0  0  0  0  0  0  0  0
   -2.6647    2.2598    0.3965 H   0  0  0  0  0  0  0  0  0  0  0  0
  1  7  2  0
  2  3  1  0
  2  9  1  0
  2 10  1  0
  2 11  1  0
  3  4  1  0
  3 12  1  0
  4  8  2  3
  4 14  1  0
  5  6  2  3
  5  7  1  0
  5 13  1  0
  6 15  1  0
  6 16  1  0
  7 17  1  0
  8 18  1  0
  8 19  1  0
M  RAD  1   3   2
M  END
>  <reaction>  (17) 
rxn_1079

>  <mol_properties>  (17) 
{"2": {"label": "*3", "atom_type": "CS"}, "3": {"label": "*4", "atom_type": "S2d"}, "8": {"label": "*0", "atom_type": "Cd"}, "9": {"label": "*1", "atom_type": "Cs"}, "14": {"label": "*2", "atom_type": "H0"}}

>  <type>  (17) 
unop_13

>  <geom_source>  (17) 
AutoTST

$$$$
