
     RDKit          3D

  9  8  0  0  0  0  0  0  0  0999 V2000
    1.1303   -0.2933   -0.7510 C   0  0  0  0  0  0  0  0  0  0  0  0
    0.2866    0.4560   -0.0588 C   0  0  0  0  0  0  0  0  0  0  0  0
   -0.9719   -0.0331    0.5823 C   0  0  0  0  0  0  0  0  0  0  0  0
    2.0274    0.1230   -1.1916 H   0  0  0  0  0  0  0  0  0  0  0  0
    0.9532   -1.3530   -0.9023 H   0  0  0  0  0  0  0  0  0  0  0  0
    0.5065    1.5132    0.0659 H   0  0  0  0  0  0  0  0  0  0  0  0
   -0.9526    0.1426    1.6610 H   0  0  0  0  0  0  0  0  0  0  0  0
   -1.1182   -1.1002    0.4106 H   0  0  0  0  0  0  0  0  0  0  0  0
   -1.8412    0.5010    0.1901 H   0  0  0  0  0  0  0  0  0  0  0  0
  1  2  2  3
  1  4  1  0
  1  5  1  0
  2  3  1  0
  2  6  1  0
  3  7  1  0
  3  8  1  0
  3  9  1  0
M  END
>  <reaction>  (1) 
rxn_1625

>  <mol_properties>  (1) 
{"1": {"label": "donator", "atom_type": "Cd"}, "5": {"label": "d_hydrogen", "atom_type": "H0"}}

>  <type>  (1) 
r1h

$$$$

     RDKit          3D

  8  7  0  0  0  0  0  0  0  0999 V2000
   -1.0607    0.1793   -0.1423 C   0  0  0  0  0  0  0  0  0  0  0  0
    0.2796    0.0327    0.4820 C   0  0  0  0  0  3  0  0  0  0  0  0
    0.8817   -1.4663    1.0791 S   0  0  0  0  0  0  0  0  0  0  0  0
   -1.3043    1.2328   -0.2850 H   0  0  0  0  0  0  0  0  0  0  0  0
   -1.8444   -0.2641    0.4799 H   0  0  0  0  0  0  0  0  0  0  0  0
   -1.1164   -0.3100   -1.1237 H   0  0  0  0  0  0  0  0  0  0  0  0
    1.0449    0.7826    0.3391 H   0  0  0  0  0  0  0  0  0  0  0  0
   -0.2993   -2.0726    1.2718 H   0  0  0  0  0  0  0  0  0  0  0  0
  1  2  1  0
  1  4  1  0
  1  5  1  0
  1  6  1  0
  2  3  1  0
  2  7  1  0
  3  8  1  0
M  RAD  1   2   2
M  END
>  <reaction>  (2) 
rxn_1625

>  <mol_properties>  (2) 
{"1": {"label": "acceptor", "atom_type": "Cs"}}

>  <type>  (2) 
r2

$$$$

     RDKit          3D

  9  8  0  0  0  0  0  0  0  0999 V2000
   -0.8818   -0.3578    0.1297 C   0  0  0  0  0  0  0  0  0  0  0  0
    0.6153   -0.3021   -0.1188 C   0  0  0  0  0  0  0  0  0  0  0  0
    1.5354   -1.7170    0.5545 S   0  0  0  0  0  0  0  0  0  0  0  0
   -1.1018   -0.3317    1.1984 H   0  0  0  0  0  0  0  0  0  0  0  0
   -1.3114   -1.2723   -0.2799 H   0  0  0  0  0  0  0  0  0  0  0  0
   -1.3767    0.4976   -0.3363 H   0  0  0  0  0  0  0  0  0  0  0  0
    1.0467    0.6194    0.2718 H   0  0  0  0  0  0  0  0  0  0  0  0
    0.8295   -0.3275   -1.1882 H   0  0  0  0  0  0  0  0  0  0  0  0
    1.2306   -1.5077    1.8423 H   0  0  0  0  0  0  0  0  0  0  0  0
  1  2  1  0
  1  4  1  0
  1  5  1  0
  1  6  1  0
  2  3  1  0
  2  7  1  0
  2  8  1  0
  3  9  1  0
M  END
>  <reaction>  (3) 
rxn_1625

>  <mol_properties>  (3) 
{"1": {"label": "acceptor", "atom_type": "Cs"}, "8": {"label": "a_hydrogen", "atom_type": "H0"}}

>  <type>  (3) 
r2h

$$$$

     RDKit          3D

 17 15  0  0  0  0  0  0  0  0999 V2000
    1.3934   -0.7980    1.2213 C   0  0  0  0  0  0  0  0  0  0  0  0
    0.0077   -0.6742    0.6353 C   0  0  0  0  0  0  0  0  0  0  0  0
   -0.5218   -1.9821   -0.4583 S   0  0  0  0  0  0  0  0  0  0  0  0
    1.6083    0.0572    1.8662 H   0  0  0  0  0  0  0  0  0  0  0  0
    2.1470   -0.8208    0.4309 H   0  0  0  0  0  0  0  0  0  0  0  0
    1.4992   -1.7100    1.8130 H   0  0  0  0  0  0  0  0  0  0  0  0
   -0.7721   -0.5527    1.3868 H   0  0  0  0  0  0  0  0  0  0  0  0
    0.5073   -1.8981   -1.3138 H   0  0  0  0  0  0  0  0  0  0  0  0
   -0.5777    1.5108   -1.9394 C   0  0  0  0  0  0  0  0  0  0  0  0
    0.0549    1.6045   -0.7924 C   0  0  0  0  0  3  0  0  0  0  0  0
    0.8286    2.7064   -0.1754 C   0  0  0  0  0  0  0  0  0  0  0  0
   -1.1015    0.6036   -2.2229 H   0  0  0  0  0  0  0  0  0  0  0  0
   -0.6040    2.3394   -2.6466 H   0  0  0  0  0  0  0  0  0  0  0  0
   -0.0112    0.4174   -0.0197 H   0  0  0  0  0  0  0  0  0  0  0  0
    0.3955    2.9974    0.7846 H   0  0  0  0  0  0  0  0  0  0  0  0
    0.8475    3.5884   -0.8237 H   0  0  0  0  0  0  0  0  0  0  0  0
    1.8599    2.4000    0.0155 H   0  0  0  0  0  0  0  0  0  0  0  0
  1  2  1  0
  1  4  1  0
  1  5  1  0
  1  6  1  0
  2  3  1  0
  2  7  1  0
  2 14  1  0
  3  8  1  0
  9 10  2  3
  9 12  1  0
  9 13  1  0
 10 11  1  0
 11 15  1  0
 11 16  1  0
 11 17  1  0
M  RAD  1  10   2
M  END
>  <reaction>  (4) 
rxn_1625

>  <mol_properties>  (4) 
{"1": {"label": "*1", "atom_type": "Cs"}, "2": {"label": "*0", "atom_type": "S2s"}, "8": {"label": "*4", "atom_type": "Cd"}, "9": {"label": "*3", "atom_type": "Cd"}, "13": {"label": "*2", "atom_type": "H0"}}

>  <type>  (4) 
ts

$$$$

     RDKit          3D

 17 15  0  0  0  0  0  0  0  0999 V2000
    1.3133   -0.7304    1.4213 C   0  0  0  0  0  0  0  0  0  0  0  0
    0.0875   -0.5887    0.5359 C   0  0  0  0  0  3  0  0  0  0  0  0
   -0.7811   -2.1512    0.2105 S   0  0  0  0  0  0  0  0  0  0  0  0
    1.7608    0.2482    1.6107 H   0  0  0  0  0  0  0  0  0  0  0  0
    2.0685   -1.3585    0.9455 H   0  0  0  0  0  0  0  0  0  0  0  0
    1.0531   -1.1837    2.3781 H   0  0  0  0  0  0  0  0  0  0  0  0
   -0.6634    0.0406    1.0157 H   0  0  0  0  0  0  0  0  0  0  0  0
    0.2278   -2.7665   -0.4209 H   0  0  0  0  0  0  0  0  0  0  0  0
    0.0875    1.7006   -2.0459 C   0  0  0  0  0  0  0  0  0  0  0  0
    0.0875    1.7006   -0.7221 C   0  0  0  0  0  0  0  0  0  0  0  0
    0.0875    2.9227    0.1384 C   0  0  0  0  0  0  0  0  0  0  0  0
    0.0875    0.7778   -2.6124 H   0  0  0  0  0  0  0  0  0  0  0  0
    0.0875    2.6262   -2.6119 H   0  0  0  0  0  0  0  0  0  0  0  0
    0.0875    0.5574   -0.0939 H   0  0  0  0  0  0  0  0  0  0  0  0
   -0.7902    2.9399    0.7896 H   0  0  0  0  0  0  0  0  0  0  0  0
    0.0875    3.8332   -0.4622 H   0  0  0  0  0  0  0  0  0  0  0  0
    0.9653    2.9399    0.7896 H   0  0  0  0  0  0  0  0  0  0  0  0
  1  2  1  0
  1  4  1  0
  1  5  1  0
  1  6  1  0
  2  3  1  0
  2  7  1  0
  3  8  1  0
  9 10  2  3
  9 12  1  0
  9 13  1  0
 10 11  1  0
 10 14  1  0
 11 15  1  0
 11 16  1  0
 11 17  1  0
M  RAD  1   2   2
M  END
>  <reaction>  (5) 
rxn_1625

>  <mol_properties>  (5) 
{"1": {"label": "*1", "atom_type": "Cs"}, "2": {"label": "*0", "atom_type": "S2s"}, "8": {"label": "*4", "atom_type": "Cd"}, "9": {"label": "*3", "atom_type": "Cd"}, "13": {"label": "*2", "atom_type": "H0"}}

>  <type>  (5) 
unop_1

>  <geom_source>  (5) 
Heuristics

$$$$

     RDKit          3D

 17 15  0  0  0  0  0  0  0  0999 V2000
    1.0697   -1.8307   -0.4022 C   0  0  0  0  0  0  0  0  0  0  0  0
    0.3620   -0.7578    0.4068 C   0  0  0  0  0  3  0  0  0  0  0  0
   -1.1065   -1.3461    1.3008 S   0  0  0  0  0  0  0  0  0  0  0  0
    1.9639   -1.4207   -0.8777 H   0  0  0  0  0  0  0  0  0  0  0  0
    0.4199   -2.2197   -1.1883 H   0  0  0  0  0  0  0  0  0  0  0  0
    1.3665   -2.6658    0.2326 H   0  0  0  0  0  0  0  0  0  0  0  0
    1.0160   -0.3720    1.1901 H   0  0  0  0  0  0  0  0  0  0  0  0
   -1.8135   -1.7127    0.2233 H   0  0  0  0  0  0  0  0  0  0  0  0
    0.3620    1.5314   -2.1750 C   0  0  0  0  0  0  0  0  0  0  0  0
    0.3620    1.5314   -0.8513 C   0  0  0  0  0  0  0  0  0  0  0  0
    0.3620    2.7536    0.0092 C   0  0  0  0  0  0  0  0  0  0  0  0
    0.3620    0.6087   -2.7415 H   0  0  0  0  0  0  0  0  0  0  0  0
    0.3620    2.4570   -2.7410 H   0  0  0  0  0  0  0  0  0  0  0  0
    0.3620    0.3883   -0.2231 H   0  0  0  0  0  0  0  0  0  0  0  0
   -0.5157    2.7707    0.6604 H   0  0  0  0  0  0  0  0  0  0  0  0
    0.3620    3.6641   -0.5914 H   0  0  0  0  0  0  0  0  0  0  0  0
    1.2397    2.7707    0.6604 H   0  0  0  0  0  0  0  0  0  0  0  0
  1  2  1  0
  1  4  1  0
  1  5  1  0
  1  6  1  0
  2  3  1  0
  2  7  1  0
  3  8  1  0
  9 10  2  3
  9 12  1  0
  9 13  1  0
 10 11  1  0
 10 14  1  0
 11 15  1  0
 11 16  1  0
 11 17  1  0
M  RAD  1   2   2
M  END
>  <reaction>  (6) 
rxn_1625

>  <mol_properties>  (6) 
{"1": {"label": "*1", "atom_type": "Cs"}, "2": {"label": "*0", "atom_type": "S2s"}, "8": {"label": "*4", "atom_type": "Cd"}, "9": {"label": "*3", "atom_type": "Cd"}, "13": {"label": "*2", "atom_type": "H0"}}

>  <type>  (6) 
unop_2

>  <geom_source>  (6) 
Heuristics

$$$$

     RDKit          3D

 17 15  0  0  0  0  0  0  0  0999 V2000
    0.5832   -0.4884    1.9348 C   0  0  0  0  0  0  0  0  0  0  0  0
   -0.1245   -0.5962    0.5954 C   0  0  0  0  0  3  0  0  0  0  0  0
   -0.0828   -2.2584   -0.1375 S   0  0  0  0  0  0  0  0  0  0  0  0
    0.4836    0.5224    2.3373 H   0  0  0  0  0  0  0  0  0  0  0  0
    1.6480   -0.7057    1.8328 H   0  0  0  0  0  0  0  0  0  0  0  0
    0.1641   -1.1914    2.6552 H   0  0  0  0  0  0  0  0  0  0  0  0
   -1.1878   -0.3773    0.7029 H   0  0  0  0  0  0  0  0  0  0  0  0
    1.2484   -2.3445   -0.2630 H   0  0  0  0  0  0  0  0  0  0  0  0
   -0.1245    1.6930   -1.9864 C   0  0  0  0  0  0  0  0  0  0  0  0
   -0.1245    1.6930   -0.6626 C   0  0  0  0  0  0  0  0  0  0  0  0
   -0.1245    2.9152    0.1979 C   0  0  0  0  0  0  0  0  0  0  0  0
   -0.1245    0.7703   -2.5529 H   0  0  0  0  0  0  0  0  0  0  0  0
   -0.1245    2.6186   -2.5524 H   0  0  0  0  0  0  0  0  0  0  0  0
   -0.1245    0.5499   -0.0344 H   0  0  0  0  0  0  0  0  0  0  0  0
   -1.0022    2.9323    0.8491 H   0  0  0  0  0  0  0  0  0  0  0  0
   -0.1245    3.8257   -0.4027 H   0  0  0  0  0  0  0  0  0  0  0  0
    0.7532    2.9323    0.8491 H   0  0  0  0  0  0  0  0  0  0  0  0
  1  2  1  0
  1  4  1  0
  1  5  1  0
  1  6  1  0
  2  3  1  0
  2  7  1  0
  3  8  1  0
  9 10  2  3
  9 12  1  0
  9 13  1  0
 10 11  1  0
 10 14  1  0
 11 15  1  0
 11 16  1  0
 11 17  1  0
M  RAD  1   2   2
M  END
>  <reaction>  (7) 
rxn_1625

>  <mol_properties>  (7) 
{"1": {"label": "*1", "atom_type": "Cs"}, "2": {"label": "*0", "atom_type": "S2s"}, "8": {"label": "*4", "atom_type": "Cd"}, "9": {"label": "*3", "atom_type": "Cd"}, "13": {"label": "*2", "atom_type": "H0"}}

>  <type>  (7) 
unop_3

>  <geom_source>  (7) 
Heuristics

$$$$

     RDKit          3D

 17 15  0  0  0  0  0  0  0  0999 V2000
   -0.9700   -2.1444   -0.2023 C   0  0  0  0  0  0  0  0  0  0  0  0
    0.2557   -1.3211    0.1527 C   0  0  0  0  0  3  0  0  0  0  0  0
    0.0483   -0.2714    1.6214 S   0  0  0  0  0  0  0  0  0  0  0  0
   -0.7633   -2.7814   -1.0656 H   0  0  0  0  0  0  0  0  0  0  0  0
   -1.8139   -1.4999   -0.4551 H   0  0  0  0  0  0  0  0  0  0  0  0
   -1.2693   -2.7784    0.6327 H   0  0  0  0  0  0  0  0  0  0  0  0
    1.0961   -1.9699    0.4034 H   0  0  0  0  0  0  0  0  0  0  0  0
   -0.9446    0.4867    1.1372 H   0  0  0  0  0  0  0  0  0  0  0  0
    0.2557    0.9682   -2.4291 C   0  0  0  0  0  0  0  0  0  0  0  0
    0.2557    0.9682   -1.1054 C   0  0  0  0  0  0  0  0  0  0  0  0
    0.2557    2.1904   -0.2448 C   0  0  0  0  0  0  0  0  0  0  0  0
    0.2557    0.0455   -2.9956 H   0  0  0  0  0  0  0  0  0  0  0  0
    0.2557    1.8938   -2.9951 H   0  0  0  0  0  0  0  0  0  0  0  0
    0.2557   -0.1750   -0.4771 H   0  0  0  0  0  0  0  0  0  0  0  0
   -0.6220    2.2075    0.4064 H   0  0  0  0  0  0  0  0  0  0  0  0
    0.2557    3.1008   -0.8454 H   0  0  0  0  0  0  0  0  0  0  0  0
    1.1334    2.2075    0.4064 H   0  0  0  0  0  0  0  0  0  0  0  0
  1  2  1  0
  1  4  1  0
  1  5  1  0
  1  6  1  0
  2  3  1  0
  2  7  1  0
  3  8  1  0
  9 10  2  3
  9 12  1  0
  9 13  1  0
 10 11  1  0
 10 14  1  0
 11 15  1  0
 11 16  1  0
 11 17  1  0
M  RAD  1   2   2
M  END
>  <reaction>  (8) 
rxn_1625

>  <mol_properties>  (8) 
{"1": {"label": "*1", "atom_type": "Cs"}, "2": {"label": "*0", "atom_type": "S2s"}, "8": {"label": "*4", "atom_type": "Cd"}, "9": {"label": "*3", "atom_type": "Cd"}, "13": {"label": "*2", "atom_type": "H0"}}

>  <type>  (8) 
unop_4

>  <geom_source>  (8) 
Heuristics

$$$$

     RDKit          3D

 17 15  0  0  0  0  0  0  0  0999 V2000
   -0.4413   -0.6201    2.0375 C   0  0  0  0  0  0  0  0  0  0  0  0
   -0.4413   -0.8192    0.5320 C   0  0  0  0  0  3  0  0  0  0  0  0
    0.9348   -1.8327   -0.0854 S   0  0  0  0  0  0  0  0  0  0  0  0
   -1.3149   -0.0402    2.3444 H   0  0  0  0  0  0  0  0  0  0  0  0
    0.4505   -0.0798    2.3602 H   0  0  0  0  0  0  0  0  0  0  0  0
   -0.4607   -1.5780    2.5577 H   0  0  0  0  0  0  0  0  0  0  0  0
   -1.3349   -1.3586    0.2148 H   0  0  0  0  0  0  0  0  0  0  0  0
    1.9231   -1.0217    0.3152 H   0  0  0  0  0  0  0  0  0  0  0  0
   -0.4413    1.4701   -2.0498 C   0  0  0  0  0  0  0  0  0  0  0  0
   -0.4413    1.4701   -0.7261 C   0  0  0  0  0  0  0  0  0  0  0  0
   -0.4413    2.6922    0.1344 C   0  0  0  0  0  0  0  0  0  0  0  0
   -0.4413    0.5473   -2.6163 H   0  0  0  0  0  0  0  0  0  0  0  0
   -0.4413    2.3957   -2.6158 H   0  0  0  0  0  0  0  0  0  0  0  0
   -0.4413    0.3269   -0.0979 H   0  0  0  0  0  0  0  0  0  0  0  0
   -1.3190    2.7094    0.7856 H   0  0  0  0  0  0  0  0  0  0  0  0
   -0.4413    3.6027   -0.4662 H   0  0  0  0  0  0  0  0  0  0  0  0
    0.4365    2.7094    0.7856 H   0  0  0  0  0  0  0  0  0  0  0  0
  1  2  1  0
  1  4  1  0
  1  5  1  0
  1  6  1  0
  2  3  1  0
  2  7  1  0
  3  8  1  0
  9 10  2  3
  9 12  1  0
  9 13  1  0
 10 11  1  0
 10 14  1  0
 11 15  1  0
 11 16  1  0
 11 17  1  0
M  RAD  1   2   2
M  END
>  <reaction>  (9) 
rxn_1625

>  <mol_properties>  (9) 
{"1": {"label": "*1", "atom_type": "Cs"}, "2": {"label": "*0", "atom_type": "S2s"}, "8": {"label": "*4", "atom_type": "Cd"}, "9": {"label": "*3", "atom_type": "Cd"}, "13": {"label": "*2", "atom_type": "H0"}}

>  <type>  (9) 
unop_5

>  <geom_source>  (9) 
Heuristics

$$$$

     RDKit          3D

 17 15  0  0  0  0  0  0  0  0999 V2000
   -1.4002   -1.8916    0.3940 C   0  0  0  0  0  0  0  0  0  0  0  0
    0.0152   -1.4091    0.1288 C   0  0  0  0  0  3  0  0  0  0  0  0
    0.6519   -0.2483    1.3734 S   0  0  0  0  0  0  0  0  0  0  0  0
   -1.7035   -2.6161   -0.3655 H   0  0  0  0  0  0  0  0  0  0  0  0
   -2.1077   -1.0609    0.3671 H   0  0  0  0  0  0  0  0  0  0  0  0
   -1.4740   -2.3647    1.3735 H   0  0  0  0  0  0  0  0  0  0  0  0
    0.7178   -2.2432    0.1559 H   0  0  0  0  0  0  0  0  0  0  0  0
   -0.2552    0.7167    1.1710 H   0  0  0  0  0  0  0  0  0  0  0  0
    0.0152    0.8802   -2.4530 C   0  0  0  0  0  0  0  0  0  0  0  0
    0.0152    0.8802   -1.1292 C   0  0  0  0  0  0  0  0  0  0  0  0
    0.0152    2.1024   -0.2687 C   0  0  0  0  0  0  0  0  0  0  0  0
    0.0152   -0.0425   -3.0195 H   0  0  0  0  0  0  0  0  0  0  0  0
    0.0152    1.8058   -3.0190 H   0  0  0  0  0  0  0  0  0  0  0  0
    0.0152   -0.2630   -0.5010 H   0  0  0  0  0  0  0  0  0  0  0  0
   -0.8626    2.1195    0.3825 H   0  0  0  0  0  0  0  0  0  0  0  0
    0.0152    3.0128   -0.8693 H   0  0  0  0  0  0  0  0  0  0  0  0
    0.8929    2.1195    0.3825 H   0  0  0  0  0  0  0  0  0  0  0  0
  1  2  1  0
  1  4  1  0
  1  5  1  0
  1  6  1  0
  2  3  1  0
  2  7  1  0
  3  8  1  0
  9 10  2  3
  9 12  1  0
  9 13  1  0
 10 11  1  0
 10 14  1  0
 11 15  1  0
 11 16  1  0
 11 17  1  0
M  RAD  1   2   2
M  END
>  <reaction>  (10) 
rxn_1625

>  <mol_properties>  (10) 
{"1": {"label": "*1", "atom_type": "Cs"}, "2": {"label": "*0", "atom_type": "S2s"}, "8": {"label": "*4", "atom_type": "Cd"}, "9": {"label": "*3", "atom_type": "Cd"}, "13": {"label": "*2", "atom_type": "H0"}}

>  <type>  (10) 
unop_6

>  <geom_source>  (10) 
Heuristics

$$$$

     RDKit          3D

 17 15  0  0  0  0  0  0  0  0999 V2000
   -1.4745   -1.5243    1.0711 C   0  0  0  0  0  0  0  0  0  0  0  0
   -0.2487   -1.3826    0.1857 C   0  0  0  0  0  3  0  0  0  0  0  0
    1.1225   -0.4695    0.9524 S   0  0  0  0  0  0  0  0  0  0  0  0
   -2.2411   -2.1174    0.5670 H   0  0  0  0  0  0  0  0  0  0  0  0
   -1.9039   -0.5480    1.3030 H   0  0  0  0  0  0  0  0  0  0  0  0
   -1.2214   -2.0126    2.0124 H   0  0  0  0  0  0  0  0  0  0  0  0
    0.1758   -2.3610   -0.0438 H   0  0  0  0  0  0  0  0  0  0  0  0
    0.4747    0.6932    1.1054 H   0  0  0  0  0  0  0  0  0  0  0  0
   -0.2487    0.9067   -2.3961 C   0  0  0  0  0  0  0  0  0  0  0  0
   -0.2487    0.9067   -1.0723 C   0  0  0  0  0  0  0  0  0  0  0  0
   -0.2487    2.1289   -0.2118 C   0  0  0  0  0  0  0  0  0  0  0  0
   -0.2487   -0.0160   -2.9626 H   0  0  0  0  0  0  0  0  0  0  0  0
   -0.2487    1.8323   -2.9621 H   0  0  0  0  0  0  0  0  0  0  0  0
   -0.2487   -0.2364   -0.4441 H   0  0  0  0  0  0  0  0  0  0  0  0
   -1.1264    2.1460    0.4394 H   0  0  0  0  0  0  0  0  0  0  0  0
   -0.2487    3.0393   -0.8124 H   0  0  0  0  0  0  0  0  0  0  0  0
    0.6290    2.1460    0.4394 H   0  0  0  0  0  0  0  0  0  0  0  0
  1  2  1  0
  1  4  1  0
  1  5  1  0
  1  6  1  0
  2  3  1  0
  2  7  1  0
  3  8  1  0
  9 10  2  3
  9 12  1  0
  9 13  1  0
 10 11  1  0
 10 14  1  0
 11 15  1  0
 11 16  1  0
 11 17  1  0
M  RAD  1   2   2
M  END
>  <reaction>  (11) 
rxn_1625

>  <mol_properties>  (11) 
{"1": {"label": "*1", "atom_type": "Cs"}, "2": {"label": "*0", "atom_type": "S2s"}, "8": {"label": "*4", "atom_type": "Cd"}, "9": {"label": "*3", "atom_type": "Cd"}, "13": {"label": "*2", "atom_type": "H0"}}

>  <type>  (11) 
unop_7

>  <geom_source>  (11) 
Heuristics

$$$$

     RDKit          3D

 17 15  0  0  0  0  0  0  0  0999 V2000
    1.6031   -1.1058    0.7407 C   0  0  0  0  0  0  0  0  0  0  0  0
    0.1878   -0.6233    0.4755 C   0  0  0  0  0  3  0  0  0  0  0  0
   -1.0819   -1.9129    0.6390 S   0  0  0  0  0  0  0  0  0  0  0  0
    2.3083   -0.2745    0.6675 H   0  0  0  0  0  0  0  0  0  0  0  0
    1.9005   -1.8632    0.0132 H   0  0  0  0  0  0  0  0  0  0  0  0
    1.6859   -1.5442    1.7355 H   0  0  0  0  0  0  0  0  0  0  0  0
   -0.1039    0.1340    1.2046 H   0  0  0  0  0  0  0  0  0  0  0  0
   -0.6292   -2.7079   -0.3398 H   0  0  0  0  0  0  0  0  0  0  0  0
    0.1878    1.6660   -2.1063 C   0  0  0  0  0  0  0  0  0  0  0  0
    0.1878    1.6660   -0.7826 C   0  0  0  0  0  0  0  0  0  0  0  0
    0.1878    2.8882    0.0780 C   0  0  0  0  0  0  0  0  0  0  0  0
    0.1878    0.7432   -2.6728 H   0  0  0  0  0  0  0  0  0  0  0  0
    0.1878    2.5916   -2.6723 H   0  0  0  0  0  0  0  0  0  0  0  0
    0.1878    0.5228   -0.1543 H   0  0  0  0  0  0  0  0  0  0  0  0
   -0.6899    2.9053    0.7292 H   0  0  0  0  0  0  0  0  0  0  0  0
    0.1878    3.7986   -0.5226 H   0  0  0  0  0  0  0  0  0  0  0  0
    1.0655    2.9053    0.7292 H   0  0  0  0  0  0  0  0  0  0  0  0
  1  2  1  0
  1  4  1  0
  1  5  1  0
  1  6  1  0
  2  3  1  0
  2  7  1  0
  3  8  1  0
  9 10  2  3
  9 12  1  0
  9 13  1  0
 10 11  1  0
 10 14  1  0
 11 15  1  0
 11 16  1  0
 11 17  1  0
M  RAD  1   2   2
M  END
>  <reaction>  (12) 
rxn_1625

>  <mol_properties>  (12) 
{"1": {"label": "*1", "atom_type": "Cs"}, "2": {"label": "*0", "atom_type": "S2s"}, "8": {"label": "*4", "atom_type": "Cd"}, "9": {"label": "*3", "atom_type": "Cd"}, "13": {"label": "*2", "atom_type": "H0"}}

>  <type>  (12) 
unop_8

>  <geom_source>  (12) 
Heuristics

$$$$

     RDKit          3D

 17 15  0  0  0  0  0  0  0  0999 V2000
   -0.2935   -2.2149   -0.5717 C   0  0  0  0  0  0  0  0  0  0  0  0
    0.4142   -1.1420    0.2373 C   0  0  0  0  0  3  0  0  0  0  0  0
   -0.5378   -0.5322    1.6598 S   0  0  0  0  0  0  0  0  0  0  0  0
    0.3492   -2.5655   -1.3828 H   0  0  0  0  0  0  0  0  0  0  0  0
   -1.2124   -1.8274   -1.0152 H   0  0  0  0  0  0  0  0  0  0  0  0
   -0.5561   -3.0670    0.0557 H   0  0  0  0  0  0  0  0  0  0  0  0
    1.3322   -1.5342    0.6773 H   0  0  0  0  0  0  0  0  0  0  0  0
   -1.5694   -0.0383    0.9620 H   0  0  0  0  0  0  0  0  0  0  0  0
    0.4142    1.1472   -2.3445 C   0  0  0  0  0  0  0  0  0  0  0  0
    0.4142    1.1472   -1.0208 C   0  0  0  0  0  0  0  0  0  0  0  0
    0.4142    2.3694   -0.1603 C   0  0  0  0  0  0  0  0  0  0  0  0
    0.4142    0.2245   -2.9110 H   0  0  0  0  0  0  0  0  0  0  0  0
    0.4142    2.0728   -2.9105 H   0  0  0  0  0  0  0  0  0  0  0  0
    0.4142    0.0041   -0.3925 H   0  0  0  0  0  0  0  0  0  0  0  0
   -0.4635    2.3865    0.4910 H   0  0  0  0  0  0  0  0  0  0  0  0
    0.4142    3.2799   -0.7609 H   0  0  0  0  0  0  0  0  0  0  0  0
    1.2919    2.3865    0.4910 H   0  0  0  0  0  0  0  0  0  0  0  0
  1  2  1  0
  1  4  1  0
  1  5  1  0
  1  6  1  0
  2  3  1  0
  2  7  1  0
  3  8  1  0
  9 10  2  3
  9 12  1  0
  9 13  1  0
 10 11  1  0
 10 14  1  0
 11 15  1  0
 11 16  1  0
 11 17  1  0
M  RAD  1   2   2
M  END
>  <reaction>  (13) 
rxn_1625

>  <mol_properties>  (13) 
{"1": {"label": "*1", "atom_type": "Cs"}, "2": {"label": "*0", "atom_type": "S2s"}, "8": {"label": "*4", "atom_type": "Cd"}, "9": {"label": "*3", "atom_type": "Cd"}, "13": {"label": "*2", "atom_type": "H0"}}

>  <type>  (13) 
unop_9

>  <geom_source>  (13) 
Heuristics

$$$$

     RDKit          3D

 17 15  0  0  0  0  0  0  0  0999 V2000
    1.4910   -1.4927    0.0852 C   0  0  0  0  0  0  0  0  0  0  0  0
    0.2653   -0.6694    0.4402 C   0  0  0  0  0  3  0  0  0  0  0  0
   -1.1520   -1.6520    1.0124 S   0  0  0  0  0  0  0  0  0  0  0  0
    2.3159   -0.8394   -0.2089 H   0  0  0  0  0  0  0  0  0  0  0  0
    1.2819   -2.1653   -0.7486 H   0  0  0  0  0  0  0  0  0  0  0  0
    1.8133   -2.0980    0.9328 H   0  0  0  0  0  0  0  0  0  0  0  0
    0.4801    0.0016    1.2732 H   0  0  0  0  0  0  0  0  0  0  0  0
   -1.3261   -2.3535   -0.1157 H   0  0  0  0  0  0  0  0  0  0  0  0
    0.2653    1.6199   -2.1416 C   0  0  0  0  0  0  0  0  0  0  0  0
    0.2653    1.6199   -0.8178 C   0  0  0  0  0  0  0  0  0  0  0  0
    0.2653    2.8421    0.0427 C   0  0  0  0  0  0  0  0  0  0  0  0
    0.2653    0.6972   -2.7081 H   0  0  0  0  0  0  0  0  0  0  0  0
    0.2653    2.5455   -2.7076 H   0  0  0  0  0  0  0  0  0  0  0  0
    0.2653    0.4767   -0.1896 H   0  0  0  0  0  0  0  0  0  0  0  0
   -0.6124    2.8592    0.6939 H   0  0  0  0  0  0  0  0  0  0  0  0
    0.2653    3.7525   -0.5579 H   0  0  0  0  0  0  0  0  0  0  0  0
    1.1430    2.8592    0.6939 H   0  0  0  0  0  0  0  0  0  0  0  0
  1  2  1  0
  1  4  1  0
  1  5  1  0
  1  6  1  0
  2  3  1  0
  2  7  1  0
  3  8  1  0
  9 10  2  3
  9 12  1  0
  9 13  1  0
 10 11  1  0
 10 14  1  0
 11 15  1  0
 11 16  1  0
 11 17  1  0
M  RAD  1   2   2
M  END
>  <reaction>  (14) 
rxn_1625

>  <mol_properties>  (14) 
{"1": {"label": "*1", "atom_type": "Cs"}, "2": {"label": "*0", "atom_type": "S2s"}, "8": {"label": "*4", "atom_type": "Cd"}, "9": {"label": "*3", "atom_type": "Cd"}, "13": {"label": "*2", "atom_type": "H0"}}

>  <type>  (14) 
unop_10

>  <geom_source>  (14) 
Heuristics

$$$$

     RDKit          3D

 17 15  0  0  0  0  0  0  0  0999 V2000
   -1.1748   -1.0876    1.6705 C   0  0  0  0  0  0  0  0  0  0  0  0
   -0.4671   -1.1954    0.3311 C   0  0  0  0  0  3  0  0  0  0  0  0
    1.3359   -0.9891    0.4224 S   0  0  0  0  0  0  0  0  0  0  0  0
   -2.2464   -1.2631    1.5496 H   0  0  0  0  0  0  0  0  0  0  0  0
   -1.0440   -0.0939    2.1027 H   0  0  0  0  0  0  0  0  0  0  0  0
   -0.7817   -1.8170    2.3792 H   0  0  0  0  0  0  0  0  0  0  0  0
   -0.6018   -2.1899   -0.0967 H   0  0  0  0  0  0  0  0  0  0  0  0
    1.3298    0.2668    0.8890 H   0  0  0  0  0  0  0  0  0  0  0  0
   -0.4671    1.0939   -2.2507 C   0  0  0  0  0  0  0  0  0  0  0  0
   -0.4671    1.0939   -0.9270 C   0  0  0  0  0  0  0  0  0  0  0  0
   -0.4671    2.3160   -0.0665 C   0  0  0  0  0  0  0  0  0  0  0  0
   -0.4671    0.1711   -2.8172 H   0  0  0  0  0  0  0  0  0  0  0  0
   -0.4671    2.0195   -2.8167 H   0  0  0  0  0  0  0  0  0  0  0  0
   -0.4671   -0.0493   -0.2987 H   0  0  0  0  0  0  0  0  0  0  0  0
   -1.3448    2.3331    0.5848 H   0  0  0  0  0  0  0  0  0  0  0  0
   -0.4671    3.2265   -0.6670 H   0  0  0  0  0  0  0  0  0  0  0  0
    0.4106    2.3331    0.5848 H   0  0  0  0  0  0  0  0  0  0  0  0
  1  2  1  0
  1  4  1  0
  1  5  1  0
  1  6  1  0
  2  3  1  0
  2  7  1  0
  3  8  1  0
  9 10  2  3
  9 12  1  0
  9 13  1  0
 10 11  1  0
 10 14  1  0
 11 15  1  0
 11 16  1  0
 11 17  1  0
M  RAD  1   2   2
M  END
>  <reaction>  (15) 
rxn_1625

>  <mol_properties>  (15) 
{"1": {"label": "*1", "atom_type": "Cs"}, "2": {"label": "*0", "atom_type": "S2s"}, "8": {"label": "*4", "atom_type": "Cd"}, "9": {"label": "*3", "atom_type": "Cd"}, "13": {"label": "*2", "atom_type": "H0"}}

>  <type>  (15) 
unop_11

>  <geom_source>  (15) 
Heuristics

$$$$

     RDKit          3D

 17 15  0  0  0  0  0  0  0  0999 V2000
    0.4413   -2.0897   -0.6368 C   0  0  0  0  0  0  0  0  0  0  0  0
    0.4413   -0.9256    0.3384 C   0  0  0  0  0  3  0  0  0  0  0  0
   -0.9348   -0.9477    1.5250 S   0  0  0  0  0  0  0  0  0  0  0  0
    1.3149   -2.0379   -1.2908 H   0  0  0  0  0  0  0  0  0  0  0  0
   -0.4505   -2.0725   -1.2659 H   0  0  0  0  0  0  0  0  0  0  0  0
    0.4607   -3.0424   -0.1070 H   0  0  0  0  0  0  0  0  0  0  0  0
    1.3349   -0.9470    0.9638 H   0  0  0  0  0  0  0  0  0  0  0  0
   -1.9231   -0.8511    0.6256 H   0  0  0  0  0  0  0  0  0  0  0  0
    0.4413    1.3637   -2.2434 C   0  0  0  0  0  0  0  0  0  0  0  0
    0.4413    1.3637   -0.9196 C   0  0  0  0  0  0  0  0  0  0  0  0
    0.4413    2.5859   -0.0591 C   0  0  0  0  0  0  0  0  0  0  0  0
    0.4413    0.4410   -2.8099 H   0  0  0  0  0  0  0  0  0  0  0  0
    0.4413    2.2893   -2.8094 H   0  0  0  0  0  0  0  0  0  0  0  0
    0.4413    0.2205   -0.2914 H   0  0  0  0  0  0  0  0  0  0  0  0
   -0.4365    2.6030    0.5921 H   0  0  0  0  0  0  0  0  0  0  0  0
    0.4413    3.4963   -0.6597 H   0  0  0  0  0  0  0  0  0  0  0  0
    1.3190    2.6030    0.5921 H   0  0  0  0  0  0  0  0  0  0  0  0
  1  2  1  0
  1  4  1  0
  1  5  1  0
  1  6  1  0
  2  3  1  0
  2  7  1  0
  3  8  1  0
  9 10  2  3
  9 12  1  0
  9 13  1  0
 10 11  1  0
 10 14  1  0
 11 15  1  0
 11 16  1  0
 11 17  1  0
M  RAD  1   2   2
M  END
>  <reaction>  (16) 
rxn_1625

>  <mol_properties>  (16) 
{"1": {"label": "*1", "atom_type": "Cs"}, "2": {"label": "*0", "atom_type": "S2s"}, "8": {"label": "*4", "atom_type": "Cd"}, "9": {"label": "*3", "atom_type": "Cd"}, "13": {"label": "*2", "atom_type": "H0"}}

>  <type>  (16) 
unop_12

>  <geom_source>  (16) 
Heuristics

$$$$

     RDKit          3D

 17 15  0  0  0  0  0  0  0  0999 V2000
   -2.1498    1.7279    0.7450 S   0  0  0  0  0  0  0  0  0  0  0  0
   -1.3248    0.4275   -0.2212 C   0  0  0  0  0  3  0  0  0  0  0  0
   -2.1936   -0.8184   -0.2756 C   0  0  0  0  0  0  0  0  0  0  0  0
    2.1182    0.6759   -0.5154 C   0  0  0  0  0  0  0  0  0  0  0  0
    1.5103   -1.2377    0.9253 C   0  0  0  0  0  0  0  0  0  0  0  0
    1.1665   -0.0838    0.3521 C   0  0  0  0  0  0  0  0  0  0  0  0
   -1.1379    0.7985   -1.2512 H   0  0  0  0  0  0  0  0  0  0  0  0
   -0.0573    0.1012    0.4021 H   0  0  0  0  0  0  0  0  0  0  0  0
   -1.6763   -1.6040   -0.8648 H   0  0  0  0  0  0  0  0  0  0  0  0
   -3.1666   -0.5872   -0.7590 H   0  0  0  0  0  0  0  0  0  0  0  0
   -2.3726   -1.2014    0.7511 H   0  0  0  0  0  0  0  0  0  0  0  0
    1.6213    1.5979   -0.8810 H   0  0  0  0  0  0  0  0  0  0  0  0
    2.4164    0.0557   -1.3870 H   0  0  0  0  0  0  0  0  0  0  0  0
    3.0210    0.9579    0.0666 H   0  0  0  0  0  0  0  0  0  0  0  0
    2.4988   -1.6626    0.7779 H   0  0  0  0  0  0  0  0  0  0  0  0
    0.7941   -1.7615    1.5484 H   0  0  0  0  0  0  0  0  0  0  0  0
   -1.0678    2.6141    0.5866 H   0  0  0  0  0  0  0  0  0  0  0  0
  1  2  1  0
  1 17  1  0
  2  3  1  0
  2  7  1  0
  3  9  1  0
  3 10  1  0
  3 11  1  0
  4  6  1  0
  4 12  1  0
  4 13  1  0
  4 14  1  0
  5  6  2  3
  5 15  1  0
  5 16  1  0
  6  8  1  0
M  RAD  1   2   2
M  END
>  <reaction>  (17) 
rxn_1625

>  <mol_properties>  (17) 
{"1": {"label": "*1", "atom_type": "Cs"}, "2": {"label": "*0", "atom_type": "S2s"}, "8": {"label": "*4", "atom_type": "Cd"}, "9": {"label": "*3", "atom_type": "Cd"}, "13": {"label": "*2", "atom_type": "H0"}}

>  <type>  (17) 
unop_13

>  <geom_source>  (17) 
AutoTST

$$$$
