
     RDKit          3D

 10  9  0  0  0  0  0  0  0  0999 V2000
    2.2738    0.0217   -0.0992 C   0  0  0  0  0  0  0  0  0  0  0  0
    1.1083    0.2960   -0.0695 C   0  0  0  0  0  0  0  0  0  0  0  0
   -0.3173    0.6046   -0.0227 C   0  0  0  0  0  0  0  0  0  0  0  0
   -1.1561   -0.5495    0.5292 C   0  0  0  0  0  0  0  0  0  0  0  0
    3.3097   -0.2166   -0.1277 H   0  0  0  0  0  0  0  0  0  0  0  0
   -0.6542    0.8617   -1.0302 H   0  0  0  0  0  0  0  0  0  0  0  0
   -0.4633    1.4978    0.5900 H   0  0  0  0  0  0  0  0  0  0  0  0
   -0.8485   -0.7997    1.5447 H   0  0  0  0  0  0  0  0  0  0  0  0
   -2.2115   -0.2752    0.5459 H   0  0  0  0  0  0  0  0  0  0  0  0
   -1.0409   -1.4407   -0.0879 H   0  0  0  0  0  0  0  0  0  0  0  0
  1  2  3  0
  1  5  1  0
  2  3  1  0
  3  4  1  0
  3  6  1  0
  3  7  1  0
  4  8  1  0
  4  9  1  0
  4 10  1  0
M  END
>  <reaction>  (1) 
rxn_1278

>  <mol_properties>  (1) 
{"2": {"label": "donator", "atom_type": "Cs"}, "5": {"label": "d_hydrogen", "atom_type": "H0"}}

>  <type>  (1) 
r1h

$$$$

     RDKit          3D

  7  6  0  0  0  0  0  0  0  0999 V2000
    1.3002    0.7433    2.1279 C   0  0  0  0  0  0  0  0  0  0  0  0
    0.5758    0.3292    1.2319 C   0  0  0  0  0  0  0  0  0  0  0  0
   -0.2057   -0.1176    0.2652 C   0  0  0  0  0  3  0  0  0  0  0  0
   -0.9747   -0.5572   -0.6858 C   0  0  0  0  0  0  0  0  0  0  0  0
    1.9293    1.1030    2.9060 H   0  0  0  0  0  0  0  0  0  0  0  0
   -1.9977   -0.8727   -0.4932 H   0  0  0  0  0  0  0  0  0  0  0  0
   -0.6274   -0.6280   -1.7143 H   0  0  0  0  0  0  0  0  0  0  0  0
  1  2  3  0
  1  5  1  0
  2  3  1  0
  3  4  2  3
  4  6  1  0
  4  7  1  0
M  RAD  1   3   2
M  END
>  <reaction>  (2) 
rxn_1278

>  <mol_properties>  (2) 
{"2": {"label": "acceptor", "atom_type": "Cd"}}

>  <type>  (2) 
r2

$$$$

     RDKit          3D

  8  7  0  0  0  0  0  0  0  0999 V2000
    1.9029    0.9046   -0.2050 C   0  0  0  0  0  0  0  0  0  0  0  0
    0.8517    0.4283    0.1217 C   0  0  0  0  0  0  0  0  0  0  0  0
   -0.3908   -0.1311    0.5404 C   0  0  0  0  0  0  0  0  0  0  0  0
   -1.2847   -0.6576   -0.2899 C   0  0  0  0  0  0  0  0  0  0  0  0
    2.8335    1.3255   -0.5014 H   0  0  0  0  0  0  0  0  0  0  0  0
   -0.5867   -0.1096    1.6074 H   0  0  0  0  0  0  0  0  0  0  0  0
   -2.2126   -1.0686    0.0850 H   0  0  0  0  0  0  0  0  0  0  0  0
   -1.1134   -0.6914   -1.3582 H   0  0  0  0  0  0  0  0  0  0  0  0
  1  2  3  0
  1  5  1  0
  2  3  1  0
  3  4  2  3
  3  6  1  0
  4  7  1  0
  4  8  1  0
M  END
>  <reaction>  (3) 
rxn_1278

>  <mol_properties>  (3) 
{"2": {"label": "acceptor", "atom_type": "Cd"}, "7": {"label": "a_hydrogen", "atom_type": "H0"}}

>  <type>  (3) 
r2h

$$$$

     RDKit          3D

 17 15  0  0  0  0  0  0  0  0999 V2000
    3.0441    0.3135    1.5186 C   0  0  0  0  0  0  0  0  0  0  0  0
    2.0200   -0.2425    1.2089 C   0  0  0  0  0  0  0  0  0  0  0  0
    0.7834   -0.7577    0.8396 C   0  0  0  0  0  3  0  0  0  0  0  0
    0.2976   -1.9671    0.6477 C   0  0  0  0  0  0  0  0  0  0  0  0
    3.9610    0.7759    1.7952 H   0  0  0  0  0  0  0  0  0  0  0  0
    0.9059   -2.8569    0.7814 H   0  0  0  0  0  0  0  0  0  0  0  0
   -0.7356   -2.1029    0.3465 H   0  0  0  0  0  0  0  0  0  0  0  0
   -3.1683   -0.2662   -0.4964 C   0  0  0  0  0  0  0  0  0  0  0  0
   -2.2209    0.3785   -0.1337 C   0  0  0  0  0  0  0  0  0  0  0  0
   -1.0616    1.1056    0.2844 C   0  0  0  0  0  0  0  0  0  0  0  0
   -0.3850    1.9652   -0.7639 C   0  0  0  0  0  0  0  0  0  0  0  0
   -4.0167   -0.8228   -0.8148 H   0  0  0  0  0  0  0  0  0  0  0  0
   -0.1859    0.2293    0.5982 H   0  0  0  0  0  0  0  0  0  0  0  0
   -1.2137    1.6155    1.2358 H   0  0  0  0  0  0  0  0  0  0  0  0
   -1.0199    2.8070   -1.0483 H   0  0  0  0  0  0  0  0  0  0  0  0
    0.5553    2.3587   -0.3763 H   0  0  0  0  0  0  0  0  0  0  0  0
   -0.1725    1.3824   -1.6603 H   0  0  0  0  0  0  0  0  0  0  0  0
  1  2  3  0
  1  5  1  0
  2  3  1  0
  3  4  2  3
  4  6  1  0
  4  7  1  0
  8  9  3  0
  8 12  1  0
  9 10  1  0
 10 11  1  0
 10 13  1  0
 10 14  1  0
 11 15  1  0
 11 16  1  0
 11 17  1  0
M  RAD  1   3   2
M  END
>  <reaction>  (4) 
rxn_1278

>  <mol_properties>  (4) 
{"1": {"label": "*4", "atom_type": "Ct"}, "2": {"label": "*3", "atom_type": "Cd"}, "8": {"label": "*0", "atom_type": "Ct"}, "9": {"label": "*1", "atom_type": "Cs"}, "12": {"label": "*2", "atom_type": "H0"}}

>  <type>  (4) 
ts

$$$$

     RDKit          3D

 17 15  0  0  0  0  0  0  0  0999 V2000
    2.4970    0.4441    1.9874 C   0  0  0  0  0  0  0  0  0  0  0  0
    1.7269   -0.2059    1.3370 C   0  0  0  0  0  0  0  0  0  0  0  0
    0.8086   -0.9541    0.5439 C   0  0  0  0  0  0  0  0  0  0  0  0
    0.4284   -2.1965    0.8226 C   0  0  0  0  0  0  0  0  0  0  0  0
    3.1799    1.0205    2.5640 H   0  0  0  0  0  0  0  0  0  0  0  0
    0.8055   -2.7222    1.6905 H   0  0  0  0  0  0  0  0  0  0  0  0
   -0.2728   -2.7165    0.1836 H   0  0  0  0  0  0  0  0  0  0  0  0
   -1.2850    0.3212   -2.9779 C   0  0  0  0  0  0  0  0  0  0  0  0
   -1.2850    0.3212   -1.7802 C   0  0  0  0  0  0  0  0  0  0  0  0
   -1.2850    0.3494   -0.3211 C   0  0  0  0  0  3  0  0  0  0  0  0
   -1.2850    1.7708    0.2445 C   0  0  0  0  0  0  0  0  0  0  0  0
   -1.2850    0.3212   -4.0412 H   0  0  0  0  0  0  0  0  0  0  0  0
   -0.2344   -0.3047    0.1130 H   0  0  0  0  0  0  0  0  0  0  0  0
   -2.1605   -0.1957    0.0406 H   0  0  0  0  0  0  0  0  0  0  0  0
   -2.1672    2.3187   -0.0869 H   0  0  0  0  0  0  0  0  0  0  0  0
   -1.2850    1.7435    1.3348 H   0  0  0  0  0  0  0  0  0  0  0  0
   -0.4027    2.3186   -0.0869 H   0  0  0  0  0  0  0  0  0  0  0  0
  1  2  3  0
  1  5  1  0
  2  3  1  0
  3  4  2  3
  3 13  1  0
  4  6  1  0
  4  7  1  0
  8  9  3  0
  8 12  1  0
  9 10  1  0
 10 11  1  0
 10 14  1  0
 11 15  1  0
 11 16  1  0
 11 17  1  0
M  RAD  1  10   2
M  END
>  <reaction>  (5) 
rxn_1278

>  <mol_properties>  (5) 
{"1": {"label": "*4", "atom_type": "Ct"}, "2": {"label": "*3", "atom_type": "Cd"}, "8": {"label": "*0", "atom_type": "Ct"}, "9": {"label": "*1", "atom_type": "Cs"}, "12": {"label": "*2", "atom_type": "H0"}}

>  <type>  (5) 
unop_1

>  <geom_source>  (5) 
Heuristics

$$$$

     RDKit          3D

 17 15  0  0  0  0  0  0  0  0999 V2000
    2.7628   -0.7847   -0.6109 C   0  0  0  0  0  0  0  0  0  0  0  0
    1.8161   -0.8088    0.1250 C   0  0  0  0  0  0  0  0  0  0  0  0
    0.6722   -0.8284    0.9755 C   0  0  0  0  0  0  0  0  0  0  0  0
    0.7117   -1.1480    2.2647 C   0  0  0  0  0  0  0  0  0  0  0  0
    3.6023   -0.7633   -1.2635 H   0  0  0  0  0  0  0  0  0  0  0  0
    1.6396   -1.4180    2.7525 H   0  0  0  0  0  0  0  0  0  0  0  0
   -0.1899   -1.1459    2.8627 H   0  0  0  0  0  0  0  0  0  0  0  0
   -1.4214    0.4468   -2.5463 C   0  0  0  0  0  0  0  0  0  0  0  0
   -1.4214    0.4468   -1.3486 C   0  0  0  0  0  0  0  0  0  0  0  0
   -1.4214    0.4751    0.1105 C   0  0  0  0  0  3  0  0  0  0  0  0
   -1.4214    1.8964    0.6761 C   0  0  0  0  0  0  0  0  0  0  0  0
   -1.4214    0.4468   -3.6096 H   0  0  0  0  0  0  0  0  0  0  0  0
   -0.3708   -0.1791    0.5446 H   0  0  0  0  0  0  0  0  0  0  0  0
   -2.2969   -0.0700    0.4722 H   0  0  0  0  0  0  0  0  0  0  0  0
   -2.3036    2.4443    0.3447 H   0  0  0  0  0  0  0  0  0  0  0  0
   -1.4214    1.8691    1.7664 H   0  0  0  0  0  0  0  0  0  0  0  0
   -0.5391    2.4443    0.3447 H   0  0  0  0  0  0  0  0  0  0  0  0
  1  2  3  0
  1  5  1  0
  2  3  1  0
  3  4  2  3
  3 13  1  0
  4  6  1  0
  4  7  1  0
  8  9  3  0
  8 12  1  0
  9 10  1  0
 10 11  1  0
 10 14  1  0
 11 15  1  0
 11 16  1  0
 11 17  1  0
M  RAD  1  10   2
M  END
>  <reaction>  (6) 
rxn_1278

>  <mol_properties>  (6) 
{"1": {"label": "*4", "atom_type": "Ct"}, "2": {"label": "*3", "atom_type": "Cd"}, "8": {"label": "*0", "atom_type": "Ct"}, "9": {"label": "*1", "atom_type": "Cs"}, "12": {"label": "*2", "atom_type": "H0"}}

>  <type>  (6) 
unop_2

>  <geom_source>  (6) 
Heuristics

$$$$

     RDKit          3D

 17 15  0  0  0  0  0  0  0  0999 V2000
    1.8722   -0.0083    2.7666 C   0  0  0  0  0  0  0  0  0  0  0  0
    1.4247   -0.4039    1.7264 C   0  0  0  0  0  0  0  0  0  0  0  0
    0.8839   -0.8444    0.4832 C   0  0  0  0  0  0  0  0  0  0  0  0
    0.9083   -2.1068    0.0692 C   0  0  0  0  0  0  0  0  0  0  0  0
    2.2689    0.3424    3.6888 H   0  0  0  0  0  0  0  0  0  0  0  0
    1.3520   -2.8906    0.6696 H   0  0  0  0  0  0  0  0  0  0  0  0
    0.4816   -2.3838   -0.8857 H   0  0  0  0  0  0  0  0  0  0  0  0
   -1.2097    0.4309   -3.0386 C   0  0  0  0  0  0  0  0  0  0  0  0
   -1.2097    0.4309   -1.8409 C   0  0  0  0  0  0  0  0  0  0  0  0
   -1.2097    0.4591   -0.3818 C   0  0  0  0  0  3  0  0  0  0  0  0
   -1.2097    1.8805    0.1838 C   0  0  0  0  0  0  0  0  0  0  0  0
   -1.2097    0.4309   -4.1019 H   0  0  0  0  0  0  0  0  0  0  0  0
   -0.1591   -0.1950    0.0523 H   0  0  0  0  0  0  0  0  0  0  0  0
   -2.0852   -0.0859   -0.0201 H   0  0  0  0  0  0  0  0  0  0  0  0
   -2.0919    2.4284   -0.1476 H   0  0  0  0  0  0  0  0  0  0  0  0
   -1.2097    1.8532    1.2741 H   0  0  0  0  0  0  0  0  0  0  0  0
   -0.3274    2.4284   -0.1476 H   0  0  0  0  0  0  0  0  0  0  0  0
  1  2  3  0
  1  5  1  0
  2  3  1  0
  3  4  2  3
  3 13  1  0
  4  6  1  0
  4  7  1  0
  8  9  3  0
  8 12  1  0
  9 10  1  0
 10 11  1  0
 10 14  1  0
 11 15  1  0
 11 16  1  0
 11 17  1  0
M  RAD  1  10   2
M  END
>  <reaction>  (7) 
rxn_1278

>  <mol_properties>  (7) 
{"1": {"label": "*4", "atom_type": "Ct"}, "2": {"label": "*3", "atom_type": "Cd"}, "8": {"label": "*0", "atom_type": "Ct"}, "9": {"label": "*1", "atom_type": "Cs"}, "12": {"label": "*2", "atom_type": "H0"}}

>  <type>  (7) 
unop_3

>  <geom_source>  (7) 
Heuristics

$$$$

     RDKit          3D

 17 15  0  0  0  0  0  0  0  0999 V2000
    1.1216   -2.9755    0.1102 C   0  0  0  0  0  0  0  0  0  0  0  0
    1.0642   -1.8274    0.4523 C   0  0  0  0  0  0  0  0  0  0  0  0
    0.9813   -0.4558    0.8318 C   0  0  0  0  0  0  0  0  0  0  0  0
    1.4526    0.0271    1.9764 C   0  0  0  0  0  0  0  0  0  0  0  0
    1.1724   -3.9935   -0.1931 H   0  0  0  0  0  0  0  0  0  0  0  0
    1.9384   -0.6118    2.7027 H   0  0  0  0  0  0  0  0  0  0  0  0
    1.3615    1.0792    2.2119 H   0  0  0  0  0  0  0  0  0  0  0  0
   -1.1124    0.8195   -2.6901 C   0  0  0  0  0  0  0  0  0  0  0  0
   -1.1124    0.8195   -1.4924 C   0  0  0  0  0  0  0  0  0  0  0  0
   -1.1124    0.8477   -0.0332 C   0  0  0  0  0  3  0  0  0  0  0  0
   -1.1123    2.2691    0.5324 C   0  0  0  0  0  0  0  0  0  0  0  0
   -1.1124    0.8195   -3.7534 H   0  0  0  0  0  0  0  0  0  0  0  0
   -0.0618    0.1936    0.4008 H   0  0  0  0  0  0  0  0  0  0  0  0
   -1.9879    0.3026    0.3285 H   0  0  0  0  0  0  0  0  0  0  0  0
   -1.9946    2.8170    0.2009 H   0  0  0  0  0  0  0  0  0  0  0  0
   -1.1123    2.2418    1.6227 H   0  0  0  0  0  0  0  0  0  0  0  0
   -0.2301    2.8169    0.2009 H   0  0  0  0  0  0  0  0  0  0  0  0
  1  2  3  0
  1  5  1  0
  2  3  1  0
  3  4  2  3
  3 13  1  0
  4  6  1  0
  4  7  1  0
  8  9  3  0
  8 12  1  0
  9 10  1  0
 10 11  1  0
 10 14  1  0
 11 15  1  0
 11 16  1  0
 11 17  1  0
M  RAD  1  10   2
M  END
>  <reaction>  (8) 
rxn_1278

>  <mol_properties>  (8) 
{"1": {"label": "*4", "atom_type": "Ct"}, "2": {"label": "*3", "atom_type": "Cd"}, "8": {"label": "*0", "atom_type": "Ct"}, "9": {"label": "*1", "atom_type": "Cs"}, "12": {"label": "*2", "atom_type": "H0"}}

>  <type>  (8) 
unop_4

>  <geom_source>  (8) 
Heuristics

$$$$

     RDKit          3D

 17 15  0  0  0  0  0  0  0  0999 V2000
    1.1637   -0.8783    3.0952 C   0  0  0  0  0  0  0  0  0  0  0  0
    1.0578   -0.8346    1.9013 C   0  0  0  0  0  0  0  0  0  0  0  0
    0.9054   -0.7658    0.4856 C   0  0  0  0  0  0  0  0  0  0  0  0
    1.7510   -1.3159   -0.3793 C   0  0  0  0  0  0  0  0  0  0  0  0
    1.2575   -0.9169    4.1538 H   0  0  0  0  0  0  0  0  0  0  0  0
    2.6253   -1.8608   -0.0470 H   0  0  0  0  0  0  0  0  0  0  0  0
    1.5846   -1.2315   -1.4450 H   0  0  0  0  0  0  0  0  0  0  0  0
   -1.1883    0.5094   -3.0362 C   0  0  0  0  0  0  0  0  0  0  0  0
   -1.1883    0.5094   -1.8385 C   0  0  0  0  0  0  0  0  0  0  0  0
   -1.1883    0.5377   -0.3794 C   0  0  0  0  0  3  0  0  0  0  0  0
   -1.1882    1.9590    0.1862 C   0  0  0  0  0  0  0  0  0  0  0  0
   -1.1883    0.5094   -4.0995 H   0  0  0  0  0  0  0  0  0  0  0  0
   -0.1377   -0.1164    0.0547 H   0  0  0  0  0  0  0  0  0  0  0  0
   -2.0638   -0.0074   -0.0177 H   0  0  0  0  0  0  0  0  0  0  0  0
   -2.0705    2.5069   -0.1452 H   0  0  0  0  0  0  0  0  0  0  0  0
   -1.1882    1.9318    1.2765 H   0  0  0  0  0  0  0  0  0  0  0  0
   -0.3060    2.5069   -0.1452 H   0  0  0  0  0  0  0  0  0  0  0  0
  1  2  3  0
  1  5  1  0
  2  3  1  0
  3  4  2  3
  3 13  1  0
  4  6  1  0
  4  7  1  0
  8  9  3  0
  8 12  1  0
  9 10  1  0
 10 11  1  0
 10 14  1  0
 11 15  1  0
 11 16  1  0
 11 17  1  0
M  RAD  1  10   2
M  END
>  <reaction>  (9) 
rxn_1278

>  <mol_properties>  (9) 
{"1": {"label": "*4", "atom_type": "Ct"}, "2": {"label": "*3", "atom_type": "Cd"}, "8": {"label": "*0", "atom_type": "Ct"}, "9": {"label": "*1", "atom_type": "Cs"}, "12": {"label": "*2", "atom_type": "H0"}}

>  <type>  (9) 
unop_5

>  <geom_source>  (9) 
Heuristics

$$$$

     RDKit          3D

 17 15  0  0  0  0  0  0  0  0999 V2000
    0.6910   -3.0617    1.0654 C   0  0  0  0  0  0  0  0  0  0  0  0
    0.8594   -1.8863    0.8961 C   0  0  0  0  0  0  0  0  0  0  0  0
    1.0420   -0.4910    0.6683 C   0  0  0  0  0  0  0  0  0  0  0  0
    1.7418    0.3061    1.4687 C   0  0  0  0  0  0  0  0  0  0  0  0
    0.5418   -4.1038    1.2156 H   0  0  0  0  0  0  0  0  0  0  0  0
    2.2243   -0.0709    2.3614 H   0  0  0  0  0  0  0  0  0  0  0  0
    1.8470    1.3595    1.2456 H   0  0  0  0  0  0  0  0  0  0  0  0
   -1.0516    0.7843   -2.8536 C   0  0  0  0  0  0  0  0  0  0  0  0
   -1.0516    0.7843   -1.6558 C   0  0  0  0  0  0  0  0  0  0  0  0
   -1.0516    0.8125   -0.1967 C   0  0  0  0  0  3  0  0  0  0  0  0
   -1.0516    2.2339    0.3689 C   0  0  0  0  0  0  0  0  0  0  0  0
   -1.0516    0.7843   -3.9169 H   0  0  0  0  0  0  0  0  0  0  0  0
   -0.0010    0.1584    0.2374 H   0  0  0  0  0  0  0  0  0  0  0  0
   -1.9271    0.2675    0.1650 H   0  0  0  0  0  0  0  0  0  0  0  0
   -1.9338    2.7818    0.0374 H   0  0  0  0  0  0  0  0  0  0  0  0
   -1.0516    2.2066    1.4592 H   0  0  0  0  0  0  0  0  0  0  0  0
   -0.1694    2.7818    0.0374 H   0  0  0  0  0  0  0  0  0  0  0  0
  1  2  3  0
  1  5  1  0
  2  3  1  0
  3  4  2  3
  3 13  1  0
  4  6  1  0
  4  7  1  0
  8  9  3  0
  8 12  1  0
  9 10  1  0
 10 11  1  0
 10 14  1  0
 11 15  1  0
 11 16  1  0
 11 17  1  0
M  RAD  1  10   2
M  END
>  <reaction>  (10) 
rxn_1278

>  <mol_properties>  (10) 
{"1": {"label": "*4", "atom_type": "Ct"}, "2": {"label": "*3", "atom_type": "Cd"}, "8": {"label": "*0", "atom_type": "Ct"}, "9": {"label": "*1", "atom_type": "Cs"}, "12": {"label": "*2", "atom_type": "H0"}}

>  <type>  (10) 
unop_6

>  <geom_source>  (10) 
Heuristics

$$$$

     RDKit          3D

 17 15  0  0  0  0  0  0  0  0999 V2000
    0.5262   -2.6812    2.0478 C   0  0  0  0  0  0  0  0  0  0  0  0
    0.7693   -1.7245    1.3664 C   0  0  0  0  0  0  0  0  0  0  0  0
    1.0345   -0.5959    0.5370 C   0  0  0  0  0  0  0  0  0  0  0  0
    1.9962    0.2897    0.7745 C   0  0  0  0  0  0  0  0  0  0  0  0
    0.3107   -3.5294    2.6520 H   0  0  0  0  0  0  0  0  0  0  0  0
    2.6482    0.2000    1.6339 H   0  0  0  0  0  0  0  0  0  0  0  0
    2.1519    1.1286    0.1092 H   0  0  0  0  0  0  0  0  0  0  0  0
   -1.0591    0.6794   -2.9849 C   0  0  0  0  0  0  0  0  0  0  0  0
   -1.0591    0.6794   -1.7871 C   0  0  0  0  0  0  0  0  0  0  0  0
   -1.0591    0.7076   -0.3280 C   0  0  0  0  0  3  0  0  0  0  0  0
   -1.0591    2.1290    0.2376 C   0  0  0  0  0  0  0  0  0  0  0  0
   -1.0591    0.6794   -4.0482 H   0  0  0  0  0  0  0  0  0  0  0  0
   -0.0085    0.0535    0.1061 H   0  0  0  0  0  0  0  0  0  0  0  0
   -1.9346    0.1625    0.0337 H   0  0  0  0  0  0  0  0  0  0  0  0
   -1.9413    2.6769   -0.0939 H   0  0  0  0  0  0  0  0  0  0  0  0
   -1.0591    2.1017    1.3279 H   0  0  0  0  0  0  0  0  0  0  0  0
   -0.1769    2.6768   -0.0939 H   0  0  0  0  0  0  0  0  0  0  0  0
  1  2  3  0
  1  5  1  0
  2  3  1  0
  3  4  2  3
  3 13  1  0
  4  6  1  0
  4  7  1  0
  8  9  3  0
  8 12  1  0
  9 10  1  0
 10 11  1  0
 10 14  1  0
 11 15  1  0
 11 16  1  0
 11 17  1  0
M  RAD  1  10   2
M  END
>  <reaction>  (11) 
rxn_1278

>  <mol_properties>  (11) 
{"1": {"label": "*4", "atom_type": "Ct"}, "2": {"label": "*3", "atom_type": "Cd"}, "8": {"label": "*0", "atom_type": "Ct"}, "9": {"label": "*1", "atom_type": "Cs"}, "12": {"label": "*2", "atom_type": "H0"}}

>  <type>  (11) 
unop_7

>  <geom_source>  (11) 
Heuristics

$$$$

     RDKit          3D

 17 15  0  0  0  0  0  0  0  0999 V2000
    2.8942    0.4321    0.9978 C   0  0  0  0  0  0  0  0  0  0  0  0
    1.9034   -0.2305    0.8641 C   0  0  0  0  0  0  0  0  0  0  0  0
    0.7195   -1.0024    0.6782 C   0  0  0  0  0  0  0  0  0  0  0  0
    0.3161   -1.9548    1.5124 C   0  0  0  0  0  0  0  0  0  0  0  0
    3.7727    1.0196    1.1165 H   0  0  0  0  0  0  0  0  0  0  0  0
    0.8798   -2.2030    2.4026 H   0  0  0  0  0  0  0  0  0  0  0  0
   -0.5928   -2.5094    1.3204 H   0  0  0  0  0  0  0  0  0  0  0  0
   -1.3741    0.2729   -2.8437 C   0  0  0  0  0  0  0  0  0  0  0  0
   -1.3741    0.2729   -1.6460 C   0  0  0  0  0  0  0  0  0  0  0  0
   -1.3741    0.3011   -0.1868 C   0  0  0  0  0  3  0  0  0  0  0  0
   -1.3741    1.7225    0.3788 C   0  0  0  0  0  0  0  0  0  0  0  0
   -1.3741    0.2729   -3.9070 H   0  0  0  0  0  0  0  0  0  0  0  0
   -0.3235   -0.3530    0.2472 H   0  0  0  0  0  0  0  0  0  0  0  0
   -2.2496   -0.2440    0.1749 H   0  0  0  0  0  0  0  0  0  0  0  0
   -2.2563    2.2703    0.0473 H   0  0  0  0  0  0  0  0  0  0  0  0
   -1.3741    1.6952    1.4691 H   0  0  0  0  0  0  0  0  0  0  0  0
   -0.4919    2.2703    0.0473 H   0  0  0  0  0  0  0  0  0  0  0  0
  1  2  3  0
  1  5  1  0
  2  3  1  0
  3  4  2  3
  3 13  1  0
  4  6  1  0
  4  7  1  0
  8  9  3  0
  8 12  1  0
  9 10  1  0
 10 11  1  0
 10 14  1  0
 11 15  1  0
 11 16  1  0
 11 17  1  0
M  RAD  1  10   2
M  END
>  <reaction>  (12) 
rxn_1278

>  <mol_properties>  (12) 
{"1": {"label": "*4", "atom_type": "Ct"}, "2": {"label": "*3", "atom_type": "Cd"}, "8": {"label": "*0", "atom_type": "Ct"}, "9": {"label": "*1", "atom_type": "Cs"}, "12": {"label": "*2", "atom_type": "H0"}}

>  <type>  (12) 
unop_8

>  <geom_source>  (12) 
Heuristics

$$$$

     RDKit          3D

 17 15  0  0  0  0  0  0  0  0999 V2000
    1.7040   -2.4637   -0.5785 C   0  0  0  0  0  0  0  0  0  0  0  0
    1.3304   -1.5789    0.1399 C   0  0  0  0  0  0  0  0  0  0  0  0
    0.8699   -0.5150    0.9695 C   0  0  0  0  0  0  0  0  0  0  0  0
    1.1977   -0.3774    2.2498 C   0  0  0  0  0  0  0  0  0  0  0  0
    2.0353   -3.2483   -1.2154 H   0  0  0  0  0  0  0  0  0  0  0  0
    1.8498   -1.0847    2.7460 H   0  0  0  0  0  0  0  0  0  0  0  0
    0.8175    0.4517    2.8318 H   0  0  0  0  0  0  0  0  0  0  0  0
   -1.2237    0.7603   -2.5524 C   0  0  0  0  0  0  0  0  0  0  0  0
   -1.2237    0.7603   -1.3547 C   0  0  0  0  0  0  0  0  0  0  0  0
   -1.2237    0.7885    0.1045 C   0  0  0  0  0  3  0  0  0  0  0  0
   -1.2237    2.2099    0.6701 C   0  0  0  0  0  0  0  0  0  0  0  0
   -1.2237    0.7603   -3.6157 H   0  0  0  0  0  0  0  0  0  0  0  0
   -0.1731    0.1344    0.5385 H   0  0  0  0  0  0  0  0  0  0  0  0
   -2.0993    0.2434    0.4662 H   0  0  0  0  0  0  0  0  0  0  0  0
   -2.1060    2.7577    0.3386 H   0  0  0  0  0  0  0  0  0  0  0  0
   -1.2237    2.1826    1.7604 H   0  0  0  0  0  0  0  0  0  0  0  0
   -0.3415    2.7577    0.3386 H   0  0  0  0  0  0  0  0  0  0  0  0
  1  2  3  0
  1  5  1  0
  2  3  1  0
  3  4  2  3
  3 13  1  0
  4  6  1  0
  4  7  1  0
  8  9  3  0
  8 12  1  0
  9 10  1  0
 10 11  1  0
 10 14  1  0
 11 15  1  0
 11 16  1  0
 11 17  1  0
M  RAD  1  10   2
M  END
>  <reaction>  (13) 
rxn_1278

>  <mol_properties>  (13) 
{"1": {"label": "*4", "atom_type": "Ct"}, "2": {"label": "*3", "atom_type": "Cd"}, "8": {"label": "*0", "atom_type": "Ct"}, "9": {"label": "*1", "atom_type": "Cs"}, "12": {"label": "*2", "atom_type": "H0"}}

>  <type>  (13) 
unop_9

>  <geom_source>  (13) 
Heuristics

$$$$

     RDKit          3D

 17 15  0  0  0  0  0  0  0  0999 V2000
    2.9854   -0.0198    0.0530 C   0  0  0  0  0  0  0  0  0  0  0  0
    1.9309   -0.4530    0.4258 C   0  0  0  0  0  0  0  0  0  0  0  0
    0.6644   -0.9582    0.8415 C   0  0  0  0  0  0  0  0  0  0  0  0
    0.4519   -1.5597    2.0071 C   0  0  0  0  0  0  0  0  0  0  0  0
    3.9204    0.3643   -0.2774 H   0  0  0  0  0  0  0  0  0  0  0  0
    1.2505   -1.7027    2.7238 H   0  0  0  0  0  0  0  0  0  0  0  0
   -0.5323   -1.9240    2.2699 H   0  0  0  0  0  0  0  0  0  0  0  0
   -1.4292    0.3170   -2.6804 C   0  0  0  0  0  0  0  0  0  0  0  0
   -1.4292    0.3170   -1.4827 C   0  0  0  0  0  0  0  0  0  0  0  0
   -1.4292    0.3453   -0.0235 C   0  0  0  0  0  3  0  0  0  0  0  0
   -1.4292    1.7666    0.5421 C   0  0  0  0  0  0  0  0  0  0  0  0
   -1.4292    0.3170   -3.7437 H   0  0  0  0  0  0  0  0  0  0  0  0
   -0.3786   -0.3088    0.4105 H   0  0  0  0  0  0  0  0  0  0  0  0
   -2.3047   -0.1998    0.3382 H   0  0  0  0  0  0  0  0  0  0  0  0
   -2.3114    2.3145    0.2106 H   0  0  0  0  0  0  0  0  0  0  0  0
   -1.4292    1.7394    1.6324 H   0  0  0  0  0  0  0  0  0  0  0  0
   -0.5469    2.3145    0.2106 H   0  0  0  0  0  0  0  0  0  0  0  0
  1  2  3  0
  1  5  1  0
  2  3  1  0
  3  4  2  3
  3 13  1  0
  4  6  1  0
  4  7  1  0
  8  9  3  0
  8 12  1  0
  9 10  1  0
 10 11  1  0
 10 14  1  0
 11 15  1  0
 11 16  1  0
 11 17  1  0
M  RAD  1  10   2
M  END
>  <reaction>  (14) 
rxn_1278

>  <mol_properties>  (14) 
{"1": {"label": "*4", "atom_type": "Ct"}, "2": {"label": "*3", "atom_type": "Cd"}, "8": {"label": "*0", "atom_type": "Ct"}, "9": {"label": "*1", "atom_type": "Cs"}, "12": {"label": "*2", "atom_type": "H0"}}

>  <type>  (14) 
unop_10

>  <geom_source>  (14) 
Heuristics

$$$$

     RDKit          3D

 17 15  0  0  0  0  0  0  0  0999 V2000
    0.6786   -1.9011    2.8032 C   0  0  0  0  0  0  0  0  0  0  0  0
    0.8244   -1.3559    1.7449 C   0  0  0  0  0  0  0  0  0  0  0  0
    0.9669   -0.7128    0.4807 C   0  0  0  0  0  0  0  0  0  0  0  0
    2.1091   -0.2026    0.0324 C   0  0  0  0  0  0  0  0  0  0  0  0
    0.5493   -2.3845    3.7415 H   0  0  0  0  0  0  0  0  0  0  0  0
    3.0179   -0.2488    0.6185 H   0  0  0  0  0  0  0  0  0  0  0  0
    2.1583    0.2751   -0.9371 H   0  0  0  0  0  0  0  0  0  0  0  0
   -1.1267    0.5625   -3.0412 C   0  0  0  0  0  0  0  0  0  0  0  0
   -1.1267    0.5625   -1.8435 C   0  0  0  0  0  0  0  0  0  0  0  0
   -1.1267    0.5907   -0.3843 C   0  0  0  0  0  3  0  0  0  0  0  0
   -1.1267    2.0121    0.1813 C   0  0  0  0  0  0  0  0  0  0  0  0
   -1.1267    0.5625   -4.1045 H   0  0  0  0  0  0  0  0  0  0  0  0
   -0.0761   -0.0634    0.0497 H   0  0  0  0  0  0  0  0  0  0  0  0
   -2.0022    0.0457   -0.0226 H   0  0  0  0  0  0  0  0  0  0  0  0
   -2.0089    2.5600   -0.1502 H   0  0  0  0  0  0  0  0  0  0  0  0
   -1.1267    1.9848    1.2716 H   0  0  0  0  0  0  0  0  0  0  0  0
   -0.2444    2.5600   -0.1502 H   0  0  0  0  0  0  0  0  0  0  0  0
  1  2  3  0
  1  5  1  0
  2  3  1  0
  3  4  2  3
  3 13  1  0
  4  6  1  0
  4  7  1  0
  8  9  3  0
  8 12  1  0
  9 10  1  0
 10 11  1  0
 10 14  1  0
 11 15  1  0
 11 16  1  0
 11 17  1  0
M  RAD  1  10   2
M  END
>  <reaction>  (15) 
rxn_1278

>  <mol_properties>  (15) 
{"1": {"label": "*4", "atom_type": "Ct"}, "2": {"label": "*3", "atom_type": "Cd"}, "8": {"label": "*0", "atom_type": "Ct"}, "9": {"label": "*1", "atom_type": "Cs"}, "12": {"label": "*2", "atom_type": "H0"}}

>  <type>  (15) 
unop_11

>  <geom_source>  (15) 
Heuristics

$$$$

     RDKit          3D

 17 15  0  0  0  0  0  0  0  0999 V2000
    2.2965   -1.6687   -0.8379 C   0  0  0  0  0  0  0  0  0  0  0  0
    1.5986   -1.2119    0.0239 C   0  0  0  0  0  0  0  0  0  0  0  0
    0.7497   -0.6573    1.0259 C   0  0  0  0  0  0  0  0  0  0  0  0
    0.9703   -0.7711    2.3313 C   0  0  0  0  0  0  0  0  0  0  0  0
    2.9153   -2.0737   -1.6021 H   0  0  0  0  0  0  0  0  0  0  0  0
    1.8297   -1.3056    2.7153 H   0  0  0  0  0  0  0  0  0  0  0  0
    0.2907   -0.3287    3.0475 H   0  0  0  0  0  0  0  0  0  0  0  0
   -1.3439    0.6180   -2.4959 C   0  0  0  0  0  0  0  0  0  0  0  0
   -1.3439    0.6180   -1.2982 C   0  0  0  0  0  0  0  0  0  0  0  0
   -1.3439    0.6463    0.1609 C   0  0  0  0  0  3  0  0  0  0  0  0
   -1.3439    2.0676    0.7266 C   0  0  0  0  0  0  0  0  0  0  0  0
   -1.3439    0.6180   -3.5592 H   0  0  0  0  0  0  0  0  0  0  0  0
   -0.2933   -0.0079    0.5950 H   0  0  0  0  0  0  0  0  0  0  0  0
   -2.2194    0.1012    0.5227 H   0  0  0  0  0  0  0  0  0  0  0  0
   -2.2261    2.6155    0.3951 H   0  0  0  0  0  0  0  0  0  0  0  0
   -1.3439    2.0403    1.8168 H   0  0  0  0  0  0  0  0  0  0  0  0
   -0.4616    2.6155    0.3951 H   0  0  0  0  0  0  0  0  0  0  0  0
  1  2  3  0
  1  5  1  0
  2  3  1  0
  3  4  2  3
  3 13  1  0
  4  6  1  0
  4  7  1  0
  8  9  3  0
  8 12  1  0
  9 10  1  0
 10 11  1  0
 10 14  1  0
 11 15  1  0
 11 16  1  0
 11 17  1  0
M  RAD  1  10   2
M  END
>  <reaction>  (16) 
rxn_1278

>  <mol_properties>  (16) 
{"1": {"label": "*4", "atom_type": "Ct"}, "2": {"label": "*3", "atom_type": "Cd"}, "8": {"label": "*0", "atom_type": "Ct"}, "9": {"label": "*1", "atom_type": "Cs"}, "12": {"label": "*2", "atom_type": "H0"}}

>  <type>  (16) 
unop_12

>  <geom_source>  (16) 
Heuristics

$$$$

     RDKit          3D

 17 15  0  0  0  0  0  0  0  0999 V2000
   -2.1523    0.4718    1.5391 C   0  0  0  0  0  0  0  0  0  0  0  0
   -1.0401    0.2168    0.5323 C   0  0  0  0  0  3  0  0  0  0  0  0
    1.4496   -0.1178   -0.1645 C   0  0  0  0  0  0  0  0  0  0  0  0
    1.5083   -1.3083   -0.7498 C   0  0  0  0  0  0  0  0  0  0  0  0
   -1.5594   -0.4759   -0.6519 C   0  0  0  0  0  0  0  0  0  0  0  0
    2.5934    0.7537   -0.1490 C   0  0  0  0  0  0  0  0  0  0  0  0
    3.5516    1.4851   -0.1354 C   0  0  0  0  0  0  0  0  0  0  0  0
   -1.9853   -1.0453   -1.6254 C   0  0  0  0  0  0  0  0  0  0  0  0
   -2.6009   -0.4904    1.8664 H   0  0  0  0  0  0  0  0  0  0  0  0
   -2.9404    1.1157    1.0926 H   0  0  0  0  0  0  0  0  0  0  0  0
   -1.7309    0.9859    2.4279 H   0  0  0  0  0  0  0  0  0  0  0  0
   -0.5784    1.1788    0.2250 H   0  0  0  0  0  0  0  0  0  0  0  0
    0.3968    0.2515    0.3770 H   0  0  0  0  0  0  0  0  0  0  0  0
    0.6377   -1.9504   -0.7515 H   0  0  0  0  0  0  0  0  0  0  0  0
    2.4167   -1.6531   -1.2294 H   0  0  0  0  0  0  0  0  0  0  0  0
    4.3929    2.1271   -0.1235 H   0  0  0  0  0  0  0  0  0  0  0  0
   -2.3593   -1.5452   -2.4800 H   0  0  0  0  0  0  0  0  0  0  0  0
  1  2  1  0
  1  9  1  0
  1 10  1  0
  1 11  1  0
  2  5  1  0
  2 12  1  0
  3  4  2  3
  3  6  1  0
  3 13  1  0
  4 14  1  0
  4 15  1  0
  5  8  3  0
  6  7  3  0
  7 16  1  0
  8 17  1  0
M  RAD  1   2   2
M  END
>  <reaction>  (17) 
rxn_1278

>  <mol_properties>  (17) 
{"1": {"label": "*4", "atom_type": "Ct"}, "2": {"label": "*3", "atom_type": "Cd"}, "8": {"label": "*0", "atom_type": "Ct"}, "9": {"label": "*1", "atom_type": "Cs"}, "12": {"label": "*2", "atom_type": "H0"}}

>  <type>  (17) 
unop_13

>  <geom_source>  (17) 
AutoTST

$$$$
