
     RDKit          3D

 16 15  0  0  0  0  0  0  0  0999 V2000
    1.7961   -0.3807    1.6176 C   0  0  0  0  0  0  0  0  0  0  0  0
    0.8562   -0.8708    0.8256 C   0  0  0  0  0  0  0  0  0  0  0  0
    0.0895   -0.0826   -0.2048 C   0  0  0  0  0  0  0  0  0  0  0  0
   -1.4061   -0.1111    0.0982 C   0  0  0  0  0  0  0  0  0  0  0  0
    0.4476   -0.5902   -1.5797 C   0  0  0  0  0  0  0  0  0  0  0  0
   -0.3793   -1.1113   -2.4728 C   0  0  0  0  0  0  0  0  0  0  0  0
    2.3110   -1.0032    2.3386 H   0  0  0  0  0  0  0  0  0  0  0  0
    2.0846    0.6643    1.5737 H   0  0  0  0  0  0  0  0  0  0  0  0
    0.5921   -1.9241    0.8925 H   0  0  0  0  0  0  0  0  0  0  0  0
    0.4358    0.9557   -0.1462 H   0  0  0  0  0  0  0  0  0  0  0  0
   -1.5968    0.3080    1.0865 H   0  0  0  0  0  0  0  0  0  0  0  0
   -1.9674    0.4693   -0.6359 H   0  0  0  0  0  0  0  0  0  0  0  0
   -1.7902   -1.1338    0.0883 H   0  0  0  0  0  0  0  0  0  0  0  0
    1.5049   -0.5197   -1.8214 H   0  0  0  0  0  0  0  0  0  0  0  0
   -1.4421   -1.2131   -2.2889 H   0  0  0  0  0  0  0  0  0  0  0  0
   -0.0162   -1.4558   -3.4328 H   0  0  0  0  0  0  0  0  0  0  0  0
  1  2  2  3
  1  7  1  0
  1  8  1  0
  2  3  1  0
  2  9  1  0
  3  4  1  0
  3  5  1  0
  3 10  1  0
  4 11  1  0
  4 12  1  0
  4 13  1  0
  5  6  2  3
  5 14  1  0
  6 15  1  0
  6 16  1  0
M  END
>  <reaction>  (1) 
rxn_1210

>  <mol_properties>  (1) 
{"2": {"label": "donator", "atom_type": "Cs"}, "9": {"label": "d_hydrogen", "atom_type": "H0"}}

>  <type>  (1) 
r1h

$$$$

     RDKit          3D

  4  3  0  0  0  0  0  0  0  0999 V2000
   -0.7528   -0.8706   -0.3839 S   0  0  0  0  0  0  0  0  0  0  0  0
    0.7502   -0.2564   -0.0649 C   0  0  0  0  0  3  0  0  0  0  0  0
    1.5655    0.9691    0.4633 S   0  0  0  0  0  0  0  0  0  0  0  0
   -1.5629    0.1579   -0.0146 H   0  0  0  0  0  0  0  0  0  0  0  0
  1  2  1  0
  1  4  1  0
  2  3  2  0
M  RAD  1   2   2
M  END
>  <reaction>  (2) 
rxn_1210

>  <mol_properties>  (2) 
{"1": {"label": "acceptor", "atom_type": "CS"}}

>  <type>  (2) 
r2

$$$$

     RDKit          3D

  5  4  0  0  0  0  0  0  0  0999 V2000
    1.2280   -0.4626    0.1225 S   0  0  0  0  0  0  0  0  0  0  0  0
   -0.4732   -0.2566   -0.0746 C   0  0  0  0  0  0  0  0  0  0  0  0
   -1.3314    1.1074   -0.0947 S   0  0  0  0  0  0  0  0  0  0  0  0
    1.5289    0.8405    0.2416 H   0  0  0  0  0  0  0  0  0  0  0  0
   -0.9523   -1.2286   -0.1949 H   0  0  0  0  0  0  0  0  0  0  0  0
  1  2  1  0
  1  4  1  0
  2  3  2  0
  2  5  1  0
M  END
>  <reaction>  (3) 
rxn_1210

>  <mol_properties>  (3) 
{"1": {"label": "acceptor", "atom_type": "CS"}, "4": {"label": "a_hydrogen", "atom_type": "H0"}}

>  <type>  (3) 
r2h

$$$$

     RDKit          3D

 20 18  0  0  0  0  0  0  0  0999 V2000
   -0.6288    2.2366   -0.3275 S   0  0  0  0  0  0  0  0  0  0  0  0
    0.5834    1.1229   -0.7351 C   0  0  0  0  0  3  0  0  0  0  0  0
    1.8561    1.1405   -1.6853 S   0  0  0  0  0  0  0  0  0  0  0  0
   -0.2276    3.2807   -1.0832 H   0  0  0  0  0  0  0  0  0  0  0  0
   -0.0949   -3.1841   -0.6730 C   0  0  0  0  0  0  0  0  0  0  0  0
    0.6346   -2.1815   -0.1914 C   0  0  0  0  0  0  0  0  0  0  0  0
    0.1969   -1.1333    0.7544 C   0  0  0  0  0  0  0  0  0  0  0  0
    1.2031   -0.8350    1.8477 C   0  0  0  0  0  0  0  0  0  0  0  0
   -1.2284   -1.1255    1.1334 C   0  0  0  0  0  0  0  0  0  0  0  0
   -1.7220   -0.8238    2.3310 C   0  0  0  0  0  0  0  0  0  0  0  0
    0.3272   -3.8839   -1.3825 H   0  0  0  0  0  0  0  0  0  0  0  0
   -1.1205   -3.3540   -0.3689 H   0  0  0  0  0  0  0  0  0  0  0  0
    1.6657   -2.0855   -0.5223 H   0  0  0  0  0  0  0  0  0  0  0  0
    0.3066   -0.0829    0.0205 H   0  0  0  0  0  0  0  0  0  0  0  0
    2.2065   -0.7560    1.4270 H   0  0  0  0  0  0  0  0  0  0  0  0
    0.9749    0.1058    2.3516 H   0  0  0  0  0  0  0  0  0  0  0  0
    1.2124   -1.6307    2.5975 H   0  0  0  0  0  0  0  0  0  0  0  0
   -1.9250   -1.3482    0.3301 H   0  0  0  0  0  0  0  0  0  0  0  0
   -1.0871   -0.5942    3.1779 H   0  0  0  0  0  0  0  0  0  0  0  0
   -2.7904   -0.8071    2.5032 H   0  0  0  0  0  0  0  0  0  0  0  0
  1  2  1  0
  1  4  1  0
  2  3  2  0
  5  6  2  3
  5 11  1  0
  5 12  1  0
  6  7  1  0
  6 13  1  0
  7  8  1  0
  7  9  1  0
  7 14  1  0
  8 15  1  0
  8 16  1  0
  8 17  1  0
  9 10  2  3
  9 18  1  0
 10 19  1  0
 10 20  1  0
M  RAD  1   2   2
M  END
>  <reaction>  (4) 
rxn_1210

>  <mol_properties>  (4) 
{"0": {"label": "*4", "atom_type": "S2s"}, "1": {"label": "*3", "atom_type": "CS"}, "5": {"label": "*0", "atom_type": "Cd"}, "6": {"label": "*1", "atom_type": "Cs"}, "13": {"label": "*2", "atom_type": "H0"}}

>  <type>  (4) 
ts

$$$$

     RDKit          3D

 20 18  0  0  0  0  0  0  0  0999 V2000
   -1.2596    1.9477   -0.6273 S   0  0  0  0  0  0  0  0  0  0  0  0
    0.1356    0.9661   -0.8824 C   0  0  0  0  0  0  0  0  0  0  0  0
    1.6570    1.4220   -1.1563 S   0  0  0  0  0  0  0  0  0  0  0  0
   -0.6373    3.1324   -0.7366 H   0  0  0  0  0  0  0  0  0  0  0  0
    0.0626   -2.3479   -1.4816 C   0  0  0  0  0  0  0  0  0  0  0  0
    0.0626   -2.3479   -0.1584 C   0  0  0  0  0  0  0  0  0  0  0  0
    0.0626   -1.1171    0.7110 C   0  0  0  0  0  3  0  0  0  0  0  0
    1.3010   -1.0873    1.6026 C   0  0  0  0  0  0  0  0  0  0  0  0
   -1.2409   -1.0485    1.4675 C   0  0  0  0  0  0  0  0  0  0  0  0
   -1.3955   -1.0483    2.7825 C   0  0  0  0  0  0  0  0  0  0  0  0
    0.0619   -3.2705   -2.0483 H   0  0  0  0  0  0  0  0  0  0  0  0
    0.0644   -1.4221   -2.0473 H   0  0  0  0  0  0  0  0  0  0  0  0
    0.0579   -3.2937    0.3793 H   0  0  0  0  0  0  0  0  0  0  0  0
    0.0992   -0.0728   -0.0878 H   0  0  0  0  0  0  0  0  0  0  0  0
    2.2038   -1.0957    0.9914 H   0  0  0  0  0  0  0  0  0  0  0  0
    1.3157   -0.1916    2.2257 H   0  0  0  0  0  0  0  0  0  0  0  0
    1.3336   -1.9591    2.2602 H   0  0  0  0  0  0  0  0  0  0  0  0
   -2.1240   -1.0128    0.8350 H   0  0  0  0  0  0  0  0  0  0  0  0
   -0.5551   -1.0876    3.4650 H   0  0  0  0  0  0  0  0  0  0  0  0
   -2.3819   -1.0052    3.2267 H   0  0  0  0  0  0  0  0  0  0  0  0
  1  2  1  0
  1  4  1  0
  2  3  2  0
  2 14  1  0
  5  6  2  3
  5 11  1  0
  5 12  1  0
  6  7  1  0
  6 13  1  0
  7  8  1  0
  7  9  1  0
  8 15  1  0
  8 16  1  0
  8 17  1  0
  9 10  2  3
  9 18  1  0
 10 19  1  0
 10 20  1  0
M  RAD  1   7   2
M  END
>  <reaction>  (5) 
rxn_1210

>  <mol_properties>  (5) 
{"0": {"label": "*4", "atom_type": "S2s"}, "1": {"label": "*3", "atom_type": "CS"}, "5": {"label": "*0", "atom_type": "Cd"}, "6": {"label": "*1", "atom_type": "Cs"}, "13": {"label": "*2", "atom_type": "H0"}}

>  <type>  (5) 
unop_1

>  <geom_source>  (5) 
Heuristics

$$$$

     RDKit          3D

 20 18  0  0  0  0  0  0  0  0999 V2000
   -0.5330    0.6730   -2.1897 S   0  0  0  0  0  0  0  0  0  0  0  0
    0.2493    1.0482   -0.6989 C   0  0  0  0  0  0  0  0  0  0  0  0
    0.5985    2.4927   -0.0753 S   0  0  0  0  0  0  0  0  0  0  0  0
   -0.7198    1.9409   -2.5899 H   0  0  0  0  0  0  0  0  0  0  0  0
    0.1763   -2.2658   -1.2982 C   0  0  0  0  0  0  0  0  0  0  0  0
    0.1763   -2.2658    0.0251 C   0  0  0  0  0  0  0  0  0  0  0  0
    0.1763   -1.0350    0.8945 C   0  0  0  0  0  3  0  0  0  0  0  0
    1.4147   -1.0052    1.7861 C   0  0  0  0  0  0  0  0  0  0  0  0
   -1.1272   -0.9664    1.6510 C   0  0  0  0  0  0  0  0  0  0  0  0
   -1.2818   -0.9662    2.9659 C   0  0  0  0  0  0  0  0  0  0  0  0
    0.1756   -3.1884   -1.8649 H   0  0  0  0  0  0  0  0  0  0  0  0
    0.1781   -1.3400   -1.8639 H   0  0  0  0  0  0  0  0  0  0  0  0
    0.1716   -3.2116    0.5627 H   0  0  0  0  0  0  0  0  0  0  0  0
    0.2129    0.0094    0.0957 H   0  0  0  0  0  0  0  0  0  0  0  0
    2.3175   -1.0136    1.1748 H   0  0  0  0  0  0  0  0  0  0  0  0
    1.4294   -0.1094    2.4092 H   0  0  0  0  0  0  0  0  0  0  0  0
    1.4473   -1.8770    2.4437 H   0  0  0  0  0  0  0  0  0  0  0  0
   -2.0103   -0.9307    1.0185 H   0  0  0  0  0  0  0  0  0  0  0  0
   -0.4414   -1.0055    3.6485 H   0  0  0  0  0  0  0  0  0  0  0  0
   -2.2682   -0.9231    3.4102 H   0  0  0  0  0  0  0  0  0  0  0  0
  1  2  1  0
  1  4  1  0
  2  3  2  0
  2 14  1  0
  5  6  2  3
  5 11  1  0
  5 12  1  0
  6  7  1  0
  6 13  1  0
  7  8  1  0
  7  9  1  0
  8 15  1  0
  8 16  1  0
  8 17  1  0
  9 10  2  3
  9 18  1  0
 10 19  1  0
 10 20  1  0
M  RAD  1   7   2
M  END
>  <reaction>  (6) 
rxn_1210

>  <mol_properties>  (6) 
{"0": {"label": "*4", "atom_type": "S2s"}, "1": {"label": "*3", "atom_type": "CS"}, "5": {"label": "*0", "atom_type": "Cd"}, "6": {"label": "*1", "atom_type": "Cs"}, "13": {"label": "*2", "atom_type": "H0"}}

>  <type>  (6) 
unop_2

>  <geom_source>  (6) 
Heuristics

$$$$

     RDKit          3D

 20 18  0  0  0  0  0  0  0  0999 V2000
   -0.7294    2.3159   -0.0783 S   0  0  0  0  0  0  0  0  0  0  0  0
    0.0774    0.9833   -0.8191 C   0  0  0  0  0  0  0  0  0  0  0  0
    1.2791    0.9984   -1.8929 S   0  0  0  0  0  0  0  0  0  0  0  0
   -0.0273    3.2822   -0.6916 H   0  0  0  0  0  0  0  0  0  0  0  0
    0.0044   -2.3306   -1.4183 C   0  0  0  0  0  0  0  0  0  0  0  0
    0.0044   -2.3306   -0.0951 C   0  0  0  0  0  0  0  0  0  0  0  0
    0.0044   -1.0998    0.7743 C   0  0  0  0  0  3  0  0  0  0  0  0
    1.2427   -1.0701    1.6659 C   0  0  0  0  0  0  0  0  0  0  0  0
   -1.2991   -1.0313    1.5308 C   0  0  0  0  0  0  0  0  0  0  0  0
   -1.4538   -1.0310    2.8458 C   0  0  0  0  0  0  0  0  0  0  0  0
    0.0036   -3.2532   -1.9850 H   0  0  0  0  0  0  0  0  0  0  0  0
    0.0061   -1.4048   -1.9840 H   0  0  0  0  0  0  0  0  0  0  0  0
   -0.0004   -3.2764    0.4426 H   0  0  0  0  0  0  0  0  0  0  0  0
    0.0410   -0.0555   -0.0245 H   0  0  0  0  0  0  0  0  0  0  0  0
    2.1455   -1.0784    1.0547 H   0  0  0  0  0  0  0  0  0  0  0  0
    1.2574   -0.1743    2.2890 H   0  0  0  0  0  0  0  0  0  0  0  0
    1.2753   -1.9418    2.3235 H   0  0  0  0  0  0  0  0  0  0  0  0
   -2.1823   -0.9955    0.8983 H   0  0  0  0  0  0  0  0  0  0  0  0
   -0.6134   -1.0704    3.5283 H   0  0  0  0  0  0  0  0  0  0  0  0
   -2.4402   -0.9879    3.2900 H   0  0  0  0  0  0  0  0  0  0  0  0
  1  2  1  0
  1  4  1  0
  2  3  2  0
  2 14  1  0
  5  6  2  3
  5 11  1  0
  5 12  1  0
  6  7  1  0
  6 13  1  0
  7  8  1  0
  7  9  1  0
  8 15  1  0
  8 16  1  0
  8 17  1  0
  9 10  2  3
  9 18  1  0
 10 19  1  0
 10 20  1  0
M  RAD  1   7   2
M  END
>  <reaction>  (7) 
rxn_1210

>  <mol_properties>  (7) 
{"0": {"label": "*4", "atom_type": "S2s"}, "1": {"label": "*3", "atom_type": "CS"}, "5": {"label": "*0", "atom_type": "Cd"}, "6": {"label": "*1", "atom_type": "Cs"}, "13": {"label": "*2", "atom_type": "H0"}}

>  <type>  (7) 
unop_3

>  <geom_source>  (7) 
Heuristics

$$$$

     RDKit          3D

 20 18  0  0  0  0  0  0  0  0999 V2000
    1.4475    0.9613   -1.7623 S   0  0  0  0  0  0  0  0  0  0  0  0
    0.0197    1.0129   -0.7958 C   0  0  0  0  0  0  0  0  0  0  0  0
   -0.7801    2.2972   -0.2405 S   0  0  0  0  0  0  0  0  0  0  0  0
    1.6155    2.2897   -1.8612 H   0  0  0  0  0  0  0  0  0  0  0  0
   -0.0533   -2.3010   -1.3951 C   0  0  0  0  0  0  0  0  0  0  0  0
   -0.0533   -2.3010   -0.0718 C   0  0  0  0  0  0  0  0  0  0  0  0
   -0.0533   -1.0703    0.7976 C   0  0  0  0  0  3  0  0  0  0  0  0
    1.1851   -1.0405    1.6892 C   0  0  0  0  0  0  0  0  0  0  0  0
   -1.3568   -1.0017    1.5541 C   0  0  0  0  0  0  0  0  0  0  0  0
   -1.5114   -1.0015    2.8690 C   0  0  0  0  0  0  0  0  0  0  0  0
   -0.0540   -3.2237   -1.9618 H   0  0  0  0  0  0  0  0  0  0  0  0
   -0.0515   -1.3753   -1.9608 H   0  0  0  0  0  0  0  0  0  0  0  0
   -0.0580   -3.2469    0.4658 H   0  0  0  0  0  0  0  0  0  0  0  0
   -0.0167   -0.0259   -0.0012 H   0  0  0  0  0  0  0  0  0  0  0  0
    2.0879   -1.0488    1.0779 H   0  0  0  0  0  0  0  0  0  0  0  0
    1.1998   -0.1447    2.3123 H   0  0  0  0  0  0  0  0  0  0  0  0
    1.2177   -1.9122    2.3468 H   0  0  0  0  0  0  0  0  0  0  0  0
   -2.2399   -0.9660    0.9216 H   0  0  0  0  0  0  0  0  0  0  0  0
   -0.6710   -1.0408    3.5516 H   0  0  0  0  0  0  0  0  0  0  0  0
   -2.4978   -0.9583    3.3133 H   0  0  0  0  0  0  0  0  0  0  0  0
  1  2  1  0
  1  4  1  0
  2  3  2  0
  2 14  1  0
  5  6  2  3
  5 11  1  0
  5 12  1  0
  6  7  1  0
  6 13  1  0
  7  8  1  0
  7  9  1  0
  8 15  1  0
  8 16  1  0
  8 17  1  0
  9 10  2  3
  9 18  1  0
 10 19  1  0
 10 20  1  0
M  RAD  1   7   2
M  END
>  <reaction>  (8) 
rxn_1210

>  <mol_properties>  (8) 
{"0": {"label": "*4", "atom_type": "S2s"}, "1": {"label": "*3", "atom_type": "CS"}, "5": {"label": "*0", "atom_type": "Cd"}, "6": {"label": "*1", "atom_type": "Cs"}, "13": {"label": "*2", "atom_type": "H0"}}

>  <type>  (8) 
unop_4

>  <geom_source>  (8) 
Heuristics

$$$$

     RDKit          3D

 20 18  0  0  0  0  0  0  0  0999 V2000
    0.1505    2.4483    0.1827 S   0  0  0  0  0  0  0  0  0  0  0  0
    0.1483    0.9973   -0.7500 C   0  0  0  0  0  0  0  0  0  0  0  0
    0.1836    0.8244   -2.3520 S   0  0  0  0  0  0  0  0  0  0  0  0
    0.1896    3.2992   -0.8552 H   0  0  0  0  0  0  0  0  0  0  0  0
    0.0753   -2.3167   -1.3492 C   0  0  0  0  0  0  0  0  0  0  0  0
    0.0753   -2.3167   -0.0260 C   0  0  0  0  0  0  0  0  0  0  0  0
    0.0753   -1.0859    0.8434 C   0  0  0  0  0  3  0  0  0  0  0  0
    1.3137   -1.0561    1.7350 C   0  0  0  0  0  0  0  0  0  0  0  0
   -1.2282   -1.0173    1.5999 C   0  0  0  0  0  0  0  0  0  0  0  0
   -1.3828   -1.0171    2.9148 C   0  0  0  0  0  0  0  0  0  0  0  0
    0.0746   -3.2393   -1.9159 H   0  0  0  0  0  0  0  0  0  0  0  0
    0.0771   -1.3909   -1.9149 H   0  0  0  0  0  0  0  0  0  0  0  0
    0.0706   -3.2625    0.5116 H   0  0  0  0  0  0  0  0  0  0  0  0
    0.1119   -0.0416    0.0446 H   0  0  0  0  0  0  0  0  0  0  0  0
    2.2165   -1.0645    1.1238 H   0  0  0  0  0  0  0  0  0  0  0  0
    1.3284   -0.1604    2.3581 H   0  0  0  0  0  0  0  0  0  0  0  0
    1.3463   -1.9279    2.3926 H   0  0  0  0  0  0  0  0  0  0  0  0
   -2.1114   -0.9816    0.9674 H   0  0  0  0  0  0  0  0  0  0  0  0
   -0.5425   -1.0564    3.5974 H   0  0  0  0  0  0  0  0  0  0  0  0
   -2.3692   -0.9740    3.3591 H   0  0  0  0  0  0  0  0  0  0  0  0
  1  2  1  0
  1  4  1  0
  2  3  2  0
  2 14  1  0
  5  6  2  3
  5 11  1  0
  5 12  1  0
  6  7  1  0
  6 13  1  0
  7  8  1  0
  7  9  1  0
  8 15  1  0
  8 16  1  0
  8 17  1  0
  9 10  2  3
  9 18  1  0
 10 19  1  0
 10 20  1  0
M  RAD  1   7   2
M  END
>  <reaction>  (9) 
rxn_1210

>  <mol_properties>  (9) 
{"0": {"label": "*4", "atom_type": "S2s"}, "1": {"label": "*3", "atom_type": "CS"}, "5": {"label": "*0", "atom_type": "Cd"}, "6": {"label": "*1", "atom_type": "Cs"}, "13": {"label": "*2", "atom_type": "H0"}}

>  <type>  (9) 
unop_5

>  <geom_source>  (9) 
Heuristics

$$$$

     RDKit          3D

 20 18  0  0  0  0  0  0  0  0999 V2000
    1.7114    1.4150   -1.1871 S   0  0  0  0  0  0  0  0  0  0  0  0
    0.0734    0.9772   -0.8700 C   0  0  0  0  0  0  0  0  0  0  0  0
   -1.1991    1.9341   -0.6199 S   0  0  0  0  0  0  0  0  0  0  0  0
    1.5269    2.7443   -1.1473 H   0  0  0  0  0  0  0  0  0  0  0  0
    0.0004   -2.3367   -1.4693 C   0  0  0  0  0  0  0  0  0  0  0  0
    0.0004   -2.3367   -0.1460 C   0  0  0  0  0  0  0  0  0  0  0  0
    0.0004   -1.1059    0.7234 C   0  0  0  0  0  3  0  0  0  0  0  0
    1.2388   -1.0761    1.6150 C   0  0  0  0  0  0  0  0  0  0  0  0
   -1.3031   -1.0373    1.4799 C   0  0  0  0  0  0  0  0  0  0  0  0
   -1.4577   -1.0371    2.7948 C   0  0  0  0  0  0  0  0  0  0  0  0
   -0.0003   -3.2593   -2.0360 H   0  0  0  0  0  0  0  0  0  0  0  0
    0.0022   -1.4109   -2.0350 H   0  0  0  0  0  0  0  0  0  0  0  0
   -0.0043   -3.2825    0.3916 H   0  0  0  0  0  0  0  0  0  0  0  0
    0.0370   -0.0616   -0.0754 H   0  0  0  0  0  0  0  0  0  0  0  0
    2.1416   -1.0845    1.0037 H   0  0  0  0  0  0  0  0  0  0  0  0
    1.2535   -0.1804    2.2381 H   0  0  0  0  0  0  0  0  0  0  0  0
    1.2714   -1.9479    2.2726 H   0  0  0  0  0  0  0  0  0  0  0  0
   -2.1863   -1.0016    0.8474 H   0  0  0  0  0  0  0  0  0  0  0  0
   -0.6174   -1.0764    3.4774 H   0  0  0  0  0  0  0  0  0  0  0  0
   -2.4441   -0.9940    3.2390 H   0  0  0  0  0  0  0  0  0  0  0  0
  1  2  1  0
  1  4  1  0
  2  3  2  0
  2 14  1  0
  5  6  2  3
  5 11  1  0
  5 12  1  0
  6  7  1  0
  6 13  1  0
  7  8  1  0
  7  9  1  0
  8 15  1  0
  8 16  1  0
  8 17  1  0
  9 10  2  3
  9 18  1  0
 10 19  1  0
 10 20  1  0
M  RAD  1   7   2
M  END
>  <reaction>  (10) 
rxn_1210

>  <mol_properties>  (10) 
{"0": {"label": "*4", "atom_type": "S2s"}, "1": {"label": "*3", "atom_type": "CS"}, "5": {"label": "*0", "atom_type": "Cd"}, "6": {"label": "*1", "atom_type": "Cs"}, "13": {"label": "*2", "atom_type": "H0"}}

>  <type>  (10) 
unop_6

>  <geom_source>  (10) 
Heuristics

$$$$

     RDKit          3D

 20 18  0  0  0  0  0  0  0  0999 V2000
    1.5799    1.8999   -0.5597 S   0  0  0  0  0  0  0  0  0  0  0  0
    0.1662    0.9655   -0.8816 C   0  0  0  0  0  0  0  0  0  0  0  0
   -1.3242    1.4722   -1.2273 S   0  0  0  0  0  0  0  0  0  0  0  0
    1.0038    3.1048   -0.6975 H   0  0  0  0  0  0  0  0  0  0  0  0
    0.0932   -2.3484   -1.4809 C   0  0  0  0  0  0  0  0  0  0  0  0
    0.0932   -2.3484   -0.1576 C   0  0  0  0  0  0  0  0  0  0  0  0
    0.0932   -1.1176    0.7118 C   0  0  0  0  0  3  0  0  0  0  0  0
    1.3316   -1.0878    1.6034 C   0  0  0  0  0  0  0  0  0  0  0  0
   -1.2103   -1.0490    1.4683 C   0  0  0  0  0  0  0  0  0  0  0  0
   -1.3649   -1.0488    2.7832 C   0  0  0  0  0  0  0  0  0  0  0  0
    0.0925   -3.2710   -2.0476 H   0  0  0  0  0  0  0  0  0  0  0  0
    0.0950   -1.4226   -2.0466 H   0  0  0  0  0  0  0  0  0  0  0  0
    0.0885   -3.2942    0.3800 H   0  0  0  0  0  0  0  0  0  0  0  0
    0.1298   -0.0733   -0.0871 H   0  0  0  0  0  0  0  0  0  0  0  0
    2.2344   -1.0962    0.9921 H   0  0  0  0  0  0  0  0  0  0  0  0
    1.3463   -0.1921    2.2265 H   0  0  0  0  0  0  0  0  0  0  0  0
    1.3642   -1.9596    2.2610 H   0  0  0  0  0  0  0  0  0  0  0  0
   -2.0935   -1.0133    0.8357 H   0  0  0  0  0  0  0  0  0  0  0  0
   -0.5246   -1.0881    3.4658 H   0  0  0  0  0  0  0  0  0  0  0  0
   -2.3513   -1.0057    3.2274 H   0  0  0  0  0  0  0  0  0  0  0  0
  1  2  1  0
  1  4  1  0
  2  3  2  0
  2 14  1  0
  5  6  2  3
  5 11  1  0
  5 12  1  0
  6  7  1  0
  6 13  1  0
  7  8  1  0
  7  9  1  0
  8 15  1  0
  8 16  1  0
  8 17  1  0
  9 10  2  3
  9 18  1  0
 10 19  1  0
 10 20  1  0
M  RAD  1   7   2
M  END
>  <reaction>  (11) 
rxn_1210

>  <mol_properties>  (11) 
{"0": {"label": "*4", "atom_type": "S2s"}, "1": {"label": "*3", "atom_type": "CS"}, "5": {"label": "*0", "atom_type": "Cd"}, "6": {"label": "*1", "atom_type": "Cs"}, "13": {"label": "*2", "atom_type": "H0"}}

>  <type>  (11) 
unop_7

>  <geom_source>  (11) 
Heuristics

$$$$

     RDKit          3D

 20 18  0  0  0  0  0  0  0  0999 V2000
   -1.3773    1.4669   -1.2607 S   0  0  0  0  0  0  0  0  0  0  0  0
    0.2281    0.9746   -0.8664 C   0  0  0  0  0  0  0  0  0  0  0  0
    1.5188    1.8884   -0.5551 S   0  0  0  0  0  0  0  0  0  0  0  0
   -1.1502    2.7893   -1.2110 H   0  0  0  0  0  0  0  0  0  0  0  0
    0.1551   -2.3393   -1.4656 C   0  0  0  0  0  0  0  0  0  0  0  0
    0.1551   -2.3393   -0.1423 C   0  0  0  0  0  0  0  0  0  0  0  0
    0.1551   -1.1085    0.7271 C   0  0  0  0  0  3  0  0  0  0  0  0
    1.3935   -1.0787    1.6187 C   0  0  0  0  0  0  0  0  0  0  0  0
   -1.1484   -1.0399    1.4836 C   0  0  0  0  0  0  0  0  0  0  0  0
   -1.3030   -1.0397    2.7985 C   0  0  0  0  0  0  0  0  0  0  0  0
    0.1544   -3.2619   -2.0323 H   0  0  0  0  0  0  0  0  0  0  0  0
    0.1569   -1.4135   -2.0313 H   0  0  0  0  0  0  0  0  0  0  0  0
    0.1504   -3.2851    0.3953 H   0  0  0  0  0  0  0  0  0  0  0  0
    0.1917   -0.0642   -0.0718 H   0  0  0  0  0  0  0  0  0  0  0  0
    2.2963   -1.0871    1.0074 H   0  0  0  0  0  0  0  0  0  0  0  0
    1.4082   -0.1830    2.2418 H   0  0  0  0  0  0  0  0  0  0  0  0
    1.4261   -1.9505    2.2763 H   0  0  0  0  0  0  0  0  0  0  0  0
   -2.0315   -1.0042    0.8510 H   0  0  0  0  0  0  0  0  0  0  0  0
   -0.4626   -1.0790    3.4810 H   0  0  0  0  0  0  0  0  0  0  0  0
   -2.2894   -0.9966    3.2427 H   0  0  0  0  0  0  0  0  0  0  0  0
  1  2  1  0
  1  4  1  0
  2  3  2  0
  2 14  1  0
  5  6  2  3
  5 11  1  0
  5 12  1  0
  6  7  1  0
  6 13  1  0
  7  8  1  0
  7  9  1  0
  8 15  1  0
  8 16  1  0
  8 17  1  0
  9 10  2  3
  9 18  1  0
 10 19  1  0
 10 20  1  0
M  RAD  1   7   2
M  END
>  <reaction>  (12) 
rxn_1210

>  <mol_properties>  (12) 
{"0": {"label": "*4", "atom_type": "S2s"}, "1": {"label": "*3", "atom_type": "CS"}, "5": {"label": "*0", "atom_type": "Cd"}, "6": {"label": "*1", "atom_type": "Cs"}, "13": {"label": "*2", "atom_type": "H0"}}

>  <type>  (12) 
unop_8

>  <geom_source>  (12) 
Heuristics

$$$$

     RDKit          3D

 20 18  0  0  0  0  0  0  0  0999 V2000
    0.8861    0.6491   -2.1559 S   0  0  0  0  0  0  0  0  0  0  0  0
    0.0468    1.0516   -0.7038 C   0  0  0  0  0  0  0  0  0  0  0  0
   -0.2829    2.5075   -0.0963 S   0  0  0  0  0  0  0  0  0  0  0  0
    1.1342    1.9097   -2.5457 H   0  0  0  0  0  0  0  0  0  0  0  0
   -0.0263   -2.2623   -1.3030 C   0  0  0  0  0  0  0  0  0  0  0  0
   -0.0263   -2.2623    0.0203 C   0  0  0  0  0  0  0  0  0  0  0  0
   -0.0263   -1.0316    0.8897 C   0  0  0  0  0  3  0  0  0  0  0  0
    1.2121   -1.0018    1.7813 C   0  0  0  0  0  0  0  0  0  0  0  0
   -1.3298   -0.9630    1.6462 C   0  0  0  0  0  0  0  0  0  0  0  0
   -1.4844   -0.9628    2.9611 C   0  0  0  0  0  0  0  0  0  0  0  0
   -0.0270   -3.1850   -1.8697 H   0  0  0  0  0  0  0  0  0  0  0  0
   -0.0245   -1.3366   -1.8687 H   0  0  0  0  0  0  0  0  0  0  0  0
   -0.0310   -3.2082    0.5579 H   0  0  0  0  0  0  0  0  0  0  0  0
    0.0103    0.0128    0.0908 H   0  0  0  0  0  0  0  0  0  0  0  0
    2.1149   -1.0102    1.1700 H   0  0  0  0  0  0  0  0  0  0  0  0
    1.2268   -0.1060    2.4044 H   0  0  0  0  0  0  0  0  0  0  0  0
    1.2447   -1.8736    2.4389 H   0  0  0  0  0  0  0  0  0  0  0  0
   -2.2129   -0.9273    1.0136 H   0  0  0  0  0  0  0  0  0  0  0  0
   -0.6440   -1.0021    3.6436 H   0  0  0  0  0  0  0  0  0  0  0  0
   -2.4708   -0.9196    3.4053 H   0  0  0  0  0  0  0  0  0  0  0  0
  1  2  1  0
  1  4  1  0
  2  3  2  0
  2 14  1  0
  5  6  2  3
  5 11  1  0
  5 12  1  0
  6  7  1  0
  6 13  1  0
  7  8  1  0
  7  9  1  0
  8 15  1  0
  8 16  1  0
  8 17  1  0
  9 10  2  3
  9 18  1  0
 10 19  1  0
 10 20  1  0
M  RAD  1   7   2
M  END
>  <reaction>  (13) 
rxn_1210

>  <mol_properties>  (13) 
{"0": {"label": "*4", "atom_type": "S2s"}, "1": {"label": "*3", "atom_type": "CS"}, "5": {"label": "*0", "atom_type": "Cd"}, "6": {"label": "*1", "atom_type": "Cs"}, "13": {"label": "*2", "atom_type": "H0"}}

>  <type>  (13) 
unop_9

>  <geom_source>  (13) 
Heuristics

$$$$

     RDKit          3D

 20 18  0  0  0  0  0  0  0  0999 V2000
   -1.1017    1.0042   -1.8230 S   0  0  0  0  0  0  0  0  0  0  0  0
    0.2794    1.0085   -0.7896 C   0  0  0  0  0  0  0  0  0  0  0  0
    1.0946    2.2657   -0.1959 S   0  0  0  0  0  0  0  0  0  0  0  0
   -1.2201    2.3374   -1.9287 H   0  0  0  0  0  0  0  0  0  0  0  0
    0.2064   -2.3054   -1.3889 C   0  0  0  0  0  0  0  0  0  0  0  0
    0.2064   -2.3054   -0.0656 C   0  0  0  0  0  0  0  0  0  0  0  0
    0.2064   -1.0746    0.8038 C   0  0  0  0  0  3  0  0  0  0  0  0
    1.4448   -1.0448    1.6954 C   0  0  0  0  0  0  0  0  0  0  0  0
   -1.0971   -1.0061    1.5603 C   0  0  0  0  0  0  0  0  0  0  0  0
   -1.2518   -1.0058    2.8752 C   0  0  0  0  0  0  0  0  0  0  0  0
    0.2056   -3.2280   -1.9556 H   0  0  0  0  0  0  0  0  0  0  0  0
    0.2082   -1.3796   -1.9546 H   0  0  0  0  0  0  0  0  0  0  0  0
    0.2016   -3.2512    0.4720 H   0  0  0  0  0  0  0  0  0  0  0  0
    0.2430   -0.0303    0.0049 H   0  0  0  0  0  0  0  0  0  0  0  0
    2.3475   -1.0532    1.0841 H   0  0  0  0  0  0  0  0  0  0  0  0
    1.4594   -0.1491    2.3185 H   0  0  0  0  0  0  0  0  0  0  0  0
    1.4773   -1.9166    2.3530 H   0  0  0  0  0  0  0  0  0  0  0  0
   -1.9803   -0.9703    0.9277 H   0  0  0  0  0  0  0  0  0  0  0  0
   -0.4114   -1.0451    3.5577 H   0  0  0  0  0  0  0  0  0  0  0  0
   -2.2382   -0.9627    3.3194 H   0  0  0  0  0  0  0  0  0  0  0  0
  1  2  1  0
  1  4  1  0
  2  3  2  0
  2 14  1  0
  5  6  2  3
  5 11  1  0
  5 12  1  0
  6  7  1  0
  6 13  1  0
  7  8  1  0
  7  9  1  0
  8 15  1  0
  8 16  1  0
  8 17  1  0
  9 10  2  3
  9 18  1  0
 10 19  1  0
 10 20  1  0
M  RAD  1   7   2
M  END
>  <reaction>  (14) 
rxn_1210

>  <mol_properties>  (14) 
{"0": {"label": "*4", "atom_type": "S2s"}, "1": {"label": "*3", "atom_type": "CS"}, "5": {"label": "*0", "atom_type": "Cd"}, "6": {"label": "*1", "atom_type": "Cs"}, "13": {"label": "*2", "atom_type": "H0"}}

>  <type>  (14) 
unop_10

>  <geom_source>  (14) 
Heuristics

$$$$

     RDKit          3D

 20 18  0  0  0  0  0  0  0  0999 V2000
    1.0369    2.2861   -0.0363 S   0  0  0  0  0  0  0  0  0  0  0  0
    0.2220    0.9809   -0.8156 C   0  0  0  0  0  0  0  0  0  0  0  0
   -0.9261    1.0355   -1.9455 S   0  0  0  0  0  0  0  0  0  0  0  0
    0.3977    3.2750   -0.6815 H   0  0  0  0  0  0  0  0  0  0  0  0
    0.1490   -2.3331   -1.4149 C   0  0  0  0  0  0  0  0  0  0  0  0
    0.1490   -2.3331   -0.0916 C   0  0  0  0  0  0  0  0  0  0  0  0
    0.1490   -1.1023    0.7778 C   0  0  0  0  0  3  0  0  0  0  0  0
    1.3873   -1.0725    1.6694 C   0  0  0  0  0  0  0  0  0  0  0  0
   -1.1546   -1.0337    1.5343 C   0  0  0  0  0  0  0  0  0  0  0  0
   -1.3092   -1.0335    2.8492 C   0  0  0  0  0  0  0  0  0  0  0  0
    0.1482   -3.2557   -1.9816 H   0  0  0  0  0  0  0  0  0  0  0  0
    0.1507   -1.4073   -1.9806 H   0  0  0  0  0  0  0  0  0  0  0  0
    0.1442   -3.2789    0.4460 H   0  0  0  0  0  0  0  0  0  0  0  0
    0.1856   -0.0579   -0.0210 H   0  0  0  0  0  0  0  0  0  0  0  0
    2.2901   -1.0809    1.0581 H   0  0  0  0  0  0  0  0  0  0  0  0
    1.4020   -0.1767    2.2925 H   0  0  0  0  0  0  0  0  0  0  0  0
    1.4199   -1.9443    2.3270 H   0  0  0  0  0  0  0  0  0  0  0  0
   -2.0377   -0.9980    0.9018 H   0  0  0  0  0  0  0  0  0  0  0  0
   -0.4688   -1.0728    3.5318 H   0  0  0  0  0  0  0  0  0  0  0  0
   -2.2956   -0.9904    3.2934 H   0  0  0  0  0  0  0  0  0  0  0  0
  1  2  1  0
  1  4  1  0
  2  3  2  0
  2 14  1  0
  5  6  2  3
  5 11  1  0
  5 12  1  0
  6  7  1  0
  6 13  1  0
  7  8  1  0
  7  9  1  0
  8 15  1  0
  8 16  1  0
  8 17  1  0
  9 10  2  3
  9 18  1  0
 10 19  1  0
 10 20  1  0
M  RAD  1   7   2
M  END
>  <reaction>  (15) 
rxn_1210

>  <mol_properties>  (15) 
{"0": {"label": "*4", "atom_type": "S2s"}, "1": {"label": "*3", "atom_type": "CS"}, "5": {"label": "*0", "atom_type": "Cd"}, "6": {"label": "*1", "atom_type": "Cs"}, "13": {"label": "*2", "atom_type": "H0"}}

>  <type>  (15) 
unop_11

>  <geom_source>  (15) 
Heuristics

$$$$

     RDKit          3D

 20 18  0  0  0  0  0  0  0  0999 V2000
    0.1777    0.5463   -2.3026 S   0  0  0  0  0  0  0  0  0  0  0  0
    0.1473    1.0672   -0.6586 C   0  0  0  0  0  0  0  0  0  0  0  0
    0.1586    2.5686   -0.0728 S   0  0  0  0  0  0  0  0  0  0  0  0
    0.2114    1.7708   -2.8524 H   0  0  0  0  0  0  0  0  0  0  0  0
    0.0743   -2.2467   -1.2578 C   0  0  0  0  0  0  0  0  0  0  0  0
    0.0743   -2.2467    0.0654 C   0  0  0  0  0  0  0  0  0  0  0  0
    0.0743   -1.0159    0.9348 C   0  0  0  0  0  3  0  0  0  0  0  0
    1.3127   -0.9861    1.8264 C   0  0  0  0  0  0  0  0  0  0  0  0
   -1.2292   -0.9473    1.6913 C   0  0  0  0  0  0  0  0  0  0  0  0
   -1.3838   -0.9471    3.0063 C   0  0  0  0  0  0  0  0  0  0  0  0
    0.0736   -3.1693   -1.8245 H   0  0  0  0  0  0  0  0  0  0  0  0
    0.0761   -1.3209   -1.8235 H   0  0  0  0  0  0  0  0  0  0  0  0
    0.0696   -3.1925    0.6031 H   0  0  0  0  0  0  0  0  0  0  0  0
    0.1109    0.0284    0.1360 H   0  0  0  0  0  0  0  0  0  0  0  0
    2.2155   -0.9945    1.2152 H   0  0  0  0  0  0  0  0  0  0  0  0
    1.3274   -0.0904    2.4495 H   0  0  0  0  0  0  0  0  0  0  0  0
    1.3453   -1.8579    2.4840 H   0  0  0  0  0  0  0  0  0  0  0  0
   -2.1124   -0.9116    1.0588 H   0  0  0  0  0  0  0  0  0  0  0  0
   -0.5435   -0.9864    3.6888 H   0  0  0  0  0  0  0  0  0  0  0  0
   -2.3702   -0.9040    3.4505 H   0  0  0  0  0  0  0  0  0  0  0  0
  1  2  1  0
  1  4  1  0
  2  3  2  0
  2 14  1  0
  5  6  2  3
  5 11  1  0
  5 12  1  0
  6  7  1  0
  6 13  1  0
  7  8  1  0
  7  9  1  0
  8 15  1  0
  8 16  1  0
  8 17  1  0
  9 10  2  3
  9 18  1  0
 10 19  1  0
 10 20  1  0
M  RAD  1   7   2
M  END
>  <reaction>  (16) 
rxn_1210

>  <mol_properties>  (16) 
{"0": {"label": "*4", "atom_type": "S2s"}, "1": {"label": "*3", "atom_type": "CS"}, "5": {"label": "*0", "atom_type": "Cd"}, "6": {"label": "*1", "atom_type": "Cs"}, "13": {"label": "*2", "atom_type": "H0"}}

>  <type>  (16) 
unop_12

>  <geom_source>  (16) 
Heuristics

$$$$

     RDKit          3D

 20 17  0  0  0  0  0  0  0  0999 V2000
    3.4936    0.4901   -0.9698 S   0  0  0  0  0  0  0  0  0  0  0  0
    2.9811   -0.5463    1.5770 S   0  0  0  0  0  0  0  0  0  0  0  0
    0.5717    0.4144   -0.7425 C   0  0  0  0  0  0  0  0  0  0  0  0
   -0.1573    0.0722    0.5588 C   0  0  0  0  0  3  0  0  0  0  0  0
   -1.1562    1.1097    1.0021 C   0  0  0  0  0  0  0  0  0  0  0  0
   -0.6934   -1.3348    0.6186 C   0  0  0  0  0  0  0  0  0  0  0  0
   -2.1804    1.5069    0.2394 C   0  0  0  0  0  3  0  0  0  0  0  0
   -1.5493   -1.8268   -0.2835 C   0  0  0  0  0  0  0  0  0  0  0  0
    2.4355    0.0976    0.4187 C   0  0  0  0  0  3  0  0  0  0  0  0
   -0.1273    0.4173   -1.6047 H   0  0  0  0  0  0  0  0  0  0  0  0
    1.0414    1.4167   -0.6559 H   0  0  0  0  0  0  0  0  0  0  0  0
    1.3724   -0.3316   -0.9302 H   0  0  0  0  0  0  0  0  0  0  0  0
   -1.0410    1.5380    1.9925 H   0  0  0  0  0  0  0  0  0  0  0  0
   -0.3775   -1.9662    1.4427 H   0  0  0  0  0  0  0  0  0  0  0  0
   -2.3341    1.1047   -0.7557 H   0  0  0  0  0  0  0  0  0  0  0  0
   -2.8754    2.2518    0.6129 H   0  0  0  0  0  0  0  0  0  0  0  0
   -1.9103   -2.8454   -0.1868 H   0  0  0  0  0  0  0  0  0  0  0  0
   -1.8919   -1.2308   -1.1221 H   0  0  0  0  0  0  0  0  0  0  0  0
    1.1689    0.4072    0.3806 H   0  0  0  0  0  0  0  0  0  0  0  0
    3.2295   -0.7446   -1.5920 H   0  0  0  0  0  0  0  0  0  0  0  0
  1  9  1  0
  1 20  1  0
  2  9  2  0
  3 10  1  0
  3 11  1  0
  3 12  1  0
  3 19  1  0
  4  5  2  3
  4  6  1  0
  5  7  1  0
  5 13  1  0
  6  8  2  3
  6 14  1  0
  7 15  1  0
  7 16  1  0
  8 17  1  0
  8 18  1  0
M  CHG  2   4  -1   7   1
M  RAD  1   9   2
M  END
>  <reaction>  (17) 
rxn_1210

>  <mol_properties>  (17) 
{"0": {"label": "*4", "atom_type": "S2s"}, "1": {"label": "*3", "atom_type": "CS"}, "5": {"label": "*0", "atom_type": "Cd"}, "6": {"label": "*1", "atom_type": "Cs"}, "13": {"label": "*2", "atom_type": "H0"}}

>  <type>  (17) 
unop_13

>  <geom_source>  (17) 
AutoTST

$$$$
