
     RDKit          3D

 25 26  0  0  0  0  0  0  0  0999 V2000
    2.0298   -1.1515    0.0571 C   0  0  0  0  0  0  0  0  0  0  0  0
    2.2278    0.2445    0.6528 C   0  0  0  0  0  0  0  0  0  0  0  0
    1.2292    1.2625    0.0947 C   0  0  0  0  0  0  0  0  0  0  0  0
   -0.1869    0.7454    0.2762 C   0  0  0  0  0  0  0  0  0  0  0  0
   -1.3415    1.5501   -0.3122 C   0  0  0  0  0  0  0  0  0  0  0  0
   -2.5060    0.5338   -0.4178 C   0  0  0  0  0  0  0  0  0  0  0  0
   -1.8709   -0.8658   -0.2234 C   0  0  0  0  0  0  0  0  0  0  0  0
   -0.3715   -0.6265   -0.3693 C   0  0  0  0  0  0  0  0  0  0  0  0
    0.5898   -1.6500    0.2086 C   0  0  0  0  0  0  0  0  0  0  0  0
    2.2820   -1.1226   -1.0088 H   0  0  0  0  0  0  0  0  0  0  0  0
    2.7243   -1.8549    0.5221 H   0  0  0  0  0  0  0  0  0  0  0  0
    2.1030    0.1885    1.7400 H   0  0  0  0  0  0  0  0  0  0  0  0
    3.2514    0.5819    0.4743 H   0  0  0  0  0  0  0  0  0  0  0  0
    1.3611    2.2304    0.5855 H   0  0  0  0  0  0  0  0  0  0  0  0
    1.4198    1.4194   -0.9737 H   0  0  0  0  0  0  0  0  0  0  0  0
   -0.3675    0.6209    1.3539 H   0  0  0  0  0  0  0  0  0  0  0  0
   -1.5992    2.4249    0.2862 H   0  0  0  0  0  0  0  0  0  0  0  0
   -1.0595    1.9116   -1.3055 H   0  0  0  0  0  0  0  0  0  0  0  0
   -3.2666    0.7244    0.3399 H   0  0  0  0  0  0  0  0  0  0  0  0
   -3.0030    0.6112   -1.3853 H   0  0  0  0  0  0  0  0  0  0  0  0
   -2.2549   -1.6039   -0.9288 H   0  0  0  0  0  0  0  0  0  0  0  0
   -2.0796   -1.2429    0.7821 H   0  0  0  0  0  0  0  0  0  0  0  0
   -0.1432   -0.5121   -1.4391 H   0  0  0  0  0  0  0  0  0  0  0  0
    0.4720   -2.6209   -0.2799 H   0  0  0  0  0  0  0  0  0  0  0  0
    0.3601   -1.7986    1.2704 H   0  0  0  0  0  0  0  0  0  0  0  0
  1  2  1  0
  1  9  1  0
  1 10  1  0
  1 11  1  0
  2  3  1  0
  2 12  1  0
  2 13  1  0
  3  4  1  0
  3 14  1  0
  3 15  1  0
  4  5  1  0
  4  8  1  0
  4 16  1  0
  5  6  1  0
  5 17  1  0
  5 18  1  0
  6  7  1  0
  6 19  1  0
  6 20  1  0
  7  8  1  0
  7 21  1  0
  7 22  1  0
  8  9  1  0
  8 23  1  0
  9 24  1  0
  9 25  1  0
M  END
>  <reaction>  (1) 
rxn_602

>  <mol_properties>  (1) 
{"5": {"label": "donator", "atom_type": "Cs"}, "18": {"label": "d_hydrogen", "atom_type": "H0"}}

>  <type>  (1) 
r1h

$$$$

     RDKit          3D

 13 12  0  0  0  0  0  0  0  0999 V2000
   -1.3649   -0.5967   -0.3477 C   0  0  0  0  0  0  0  0  0  0  0  0
   -0.1601   -0.2776    0.4669 C   0  0  0  0  0  3  0  0  0  0  0  0
    1.1241   -0.9571    0.1414 C   0  0  0  0  0  0  0  0  0  0  0  0
   -0.1188    1.0130    1.2082 C   0  0  0  0  0  0  0  0  0  0  0  0
   -1.4265   -1.6632   -0.5770 H   0  0  0  0  0  0  0  0  0  0  0  0
   -2.2859   -0.3004    0.1602 H   0  0  0  0  0  0  0  0  0  0  0  0
   -1.3532   -0.0668   -1.3139 H   0  0  0  0  0  0  0  0  0  0  0  0
    1.6174   -0.4963   -0.7297 H   0  0  0  0  0  0  0  0  0  0  0  0
    0.9723   -2.0104   -0.1064 H   0  0  0  0  0  0  0  0  0  0  0  0
    1.8338   -0.8977    0.9701 H   0  0  0  0  0  0  0  0  0  0  0  0
   -1.0851    1.2507    1.6593 H   0  0  0  0  0  0  0  0  0  0  0  0
    0.6358    1.0009    1.9983 H   0  0  0  0  0  0  0  0  0  0  0  0
    0.1343    1.8546    0.5434 H   0  0  0  0  0  0  0  0  0  0  0  0
  1  2  1  0
  1  5  1  0
  1  6  1  0
  1  7  1  0
  2  3  1  0
  2  4  1  0
  3  8  1  0
  3  9  1  0
  3 10  1  0
  4 11  1  0
  4 12  1  0
  4 13  1  0
M  RAD  1   2   2
M  END
>  <reaction>  (2) 
rxn_602

>  <mol_properties>  (2) 
{"1": {"label": "acceptor", "atom_type": "Cs"}}

>  <type>  (2) 
r2

$$$$

     RDKit          3D

 14 13  0  0  0  0  0  0  0  0999 V2000
   -0.7647   -1.2352   -0.0349 C   0  0  0  0  0  0  0  0  0  0  0  0
    0.0570   -0.0126    0.3624 C   0  0  0  0  0  0  0  0  0  0  0  0
    1.4161   -0.0194   -0.3307 C   0  0  0  0  0  0  0  0  0  0  0  0
   -0.7022    1.2765    0.0629 C   0  0  0  0  0  0  0  0  0  0  0  0
   -0.2387   -2.1618    0.2040 H   0  0  0  0  0  0  0  0  0  0  0  0
   -0.9624   -1.2316   -1.1108 H   0  0  0  0  0  0  0  0  0  0  0  0
   -1.7273   -1.2512    0.4805 H   0  0  0  0  0  0  0  0  0  0  0  0
    0.2295   -0.0590    1.4432 H   0  0  0  0  0  0  0  0  0  0  0  0
    1.2933    0.0260   -1.4168 H   0  0  0  0  0  0  0  0  0  0  0  0
    2.0207    0.8381   -0.0278 H   0  0  0  0  0  0  0  0  0  0  0  0
    1.9766   -0.9269   -0.0966 H   0  0  0  0  0  0  0  0  0  0  0  0
   -1.6638    1.3002    0.5800 H   0  0  0  0  0  0  0  0  0  0  0  0
   -0.8979    1.3663   -1.0096 H   0  0  0  0  0  0  0  0  0  0  0  0
   -0.1313    2.1545    0.3720 H   0  0  0  0  0  0  0  0  0  0  0  0
  1  2  1  0
  1  5  1  0
  1  6  1  0
  1  7  1  0
  2  3  1  0
  2  4  1  0
  2  8  1  0
  3  9  1  0
  3 10  1  0
  3 11  1  0
  4 12  1  0
  4 13  1  0
  4 14  1  0
M  END
>  <reaction>  (3) 
rxn_602

>  <mol_properties>  (3) 
{"1": {"label": "acceptor", "atom_type": "Cs"}, "13": {"label": "a_hydrogen", "atom_type": "H0"}}

>  <type>  (3) 
r2h

$$$$

     RDKit          3D

 38 38  0  0  0  0  0  0  0  0999 V2000
    1.1343    3.5326    1.2975 C   0  0  0  0  0  0  0  0  0  0  0  0
    0.1854    2.8985    0.3097 C   0  0  0  0  0  0  0  0  0  0  0  0
   -1.1024    2.4074    0.9248 C   0  0  0  0  0  0  0  0  0  0  0  0
   -0.0049    3.6998   -0.9552 C   0  0  0  0  0  0  0  0  0  0  0  0
    1.3174    2.8760    2.1511 H   0  0  0  0  0  0  0  0  0  0  0  0
    2.0967    3.7587    0.8327 H   0  0  0  0  0  0  0  0  0  0  0  0
    0.7271    4.4740    1.6874 H   0  0  0  0  0  0  0  0  0  0  0  0
   -1.7136    3.2462    1.2815 H   0  0  0  0  0  0  0  0  0  0  0  0
   -0.9111    1.7545    1.7795 H   0  0  0  0  0  0  0  0  0  0  0  0
   -1.7019    1.8497    0.2013 H   0  0  0  0  0  0  0  0  0  0  0  0
    0.9528    3.9183   -1.4331 H   0  0  0  0  0  0  0  0  0  0  0  0
   -0.6274    3.1650   -1.6760 H   0  0  0  0  0  0  0  0  0  0  0  0
   -0.4948    4.6588   -0.7442 H   0  0  0  0  0  0  0  0  0  0  0  0
   -1.2994   -3.3211   -0.7138 C   0  0  0  0  0  0  0  0  0  0  0  0
   -1.2488   -3.1330    0.8046 C   0  0  0  0  0  0  0  0  0  0  0  0
    0.0247   -2.4156    1.2622 C   0  0  0  0  0  0  0  0  0  0  0  0
    0.1725   -1.1086    0.5050 C   0  0  0  0  0  0  0  0  0  0  0  0
    1.4214   -0.2597    0.7222 C   0  0  0  0  0  0  0  0  0  0  0  0
    1.4314    0.6625   -0.4910 C   0  0  0  0  0  3  0  0  0  0  0  0
    0.5376    0.0431   -1.5652 C   0  0  0  0  0  0  0  0  0  0  0  0
    0.1808   -1.3361   -1.0065 C   0  0  0  0  0  0  0  0  0  0  0  0
   -1.0997   -2.0057   -1.4724 C   0  0  0  0  0  0  0  0  0  0  0  0
   -0.5111   -4.0214   -1.0120 H   0  0  0  0  0  0  0  0  0  0  0  0
   -2.2482   -3.7817   -0.9983 H   0  0  0  0  0  0  0  0  0  0  0  0
   -2.1165   -2.5423    1.1190 H   0  0  0  0  0  0  0  0  0  0  0  0
   -1.3362   -4.1023    1.3008 H   0  0  0  0  0  0  0  0  0  0  0  0
   -0.0051   -2.2446    2.3416 H   0  0  0  0  0  0  0  0  0  0  0  0
    0.8980   -3.0483    1.0642 H   0  0  0  0  0  0  0  0  0  0  0  0
   -0.7024   -0.4837    0.7325 H   0  0  0  0  0  0  0  0  0  0  0  0
    1.4097    0.2866    1.6696 H   0  0  0  0  0  0  0  0  0  0  0  0
    2.3102   -0.9023    0.7364 H   0  0  0  0  0  0  0  0  0  0  0  0
    0.8212    1.7995   -0.0935 H   0  0  0  0  0  0  0  0  0  0  0  0
    2.4069    1.0183   -0.8153 H   0  0  0  0  0  0  0  0  0  0  0  0
    1.0202   -0.0075   -2.5428 H   0  0  0  0  0  0  0  0  0  0  0  0
   -0.3780    0.6338   -1.6973 H   0  0  0  0  0  0  0  0  0  0  0  0
    1.0172   -2.0157   -1.2229 H   0  0  0  0  0  0  0  0  0  0  0  0
   -1.0794   -2.1899   -2.5498 H   0  0  0  0  0  0  0  0  0  0  0  0
   -1.9457   -1.3349   -1.2802 H   0  0  0  0  0  0  0  0  0  0  0  0
  1  2  1  0
  1  5  1  0
  1  6  1  0
  1  7  1  0
  2  3  1  0
  2  4  1  0
  2 32  1  0
  3  8  1  0
  3  9  1  0
  3 10  1  0
  4 11  1  0
  4 12  1  0
  4 13  1  0
 14 15  1  0
 14 22  1  0
 14 23  1  0
 14 24  1  0
 15 16  1  0
 15 25  1  0
 15 26  1  0
 16 17  1  0
 16 27  1  0
 16 28  1  0
 17 18  1  0
 17 21  1  0
 17 29  1  0
 18 19  1  0
 18 30  1  0
 18 31  1  0
 19 20  1  0
 19 33  1  0
 20 21  1  0
 20 34  1  0
 20 35  1  0
 21 22  1  0
 21 36  1  0
 22 37  1  0
 22 38  1  0
M  RAD  1  19   2
M  END
>  <reaction>  (4) 
rxn_602

>  <mol_properties>  (4) 
{"0": {"label": "*0", "atom_type": "Cs"}, "1": {"label": "*1", "atom_type": "Cs"}, "17": {"label": "*4", "atom_type": "Cs"}, "18": {"label": "*3", "atom_type": "Cs"}, "31": {"label": "*2", "atom_type": "H0"}}

>  <type>  (4) 
ts

$$$$

     RDKit          3D

 38 38  0  0  0  0  0  0  0  0999 V2000
    1.2379    4.1002    0.4597 C   0  0  0  0  0  0  0  0  0  0  0  0
    0.1782    3.0181    0.6440 C   0  0  0  0  0  3  0  0  0  0  0  0
   -0.8050    3.3988    1.7468 C   0  0  0  0  0  0  0  0  0  0  0  0
   -0.5519    2.7401   -0.6665 C   0  0  0  0  0  0  0  0  0  0  0  0
    1.7841    4.2831    1.3875 H   0  0  0  0  0  0  0  0  0  0  0  0
    1.9619    3.8203   -0.3084 H   0  0  0  0  0  0  0  0  0  0  0  0
    0.7747    5.0429    0.1539 H   0  0  0  0  0  0  0  0  0  0  0  0
   -1.3384    4.3174    1.4851 H   0  0  0  0  0  0  0  0  0  0  0  0
   -0.2911    3.5707    2.6949 H   0  0  0  0  0  0  0  0  0  0  0  0
   -1.5489    2.6149    1.9036 H   0  0  0  0  0  0  0  0  0  0  0  0
    0.1437    2.4386   -1.4524 H   0  0  0  0  0  0  0  0  0  0  0  0
   -1.2919    1.9458   -0.5480 H   0  0  0  0  0  0  0  0  0  0  0  0
   -1.0766    3.6361   -1.0111 H   0  0  0  0  0  0  0  0  0  0  0  0
   -1.0041   -3.5233   -1.0120 C   0  0  0  0  0  0  0  0  0  0  0  0
   -1.0041   -3.5233    0.5186 C   0  0  0  0  0  0  0  0  0  0  0  0
    0.1390   -2.6869    1.1006 C   0  0  0  0  0  0  0  0  0  0  0  0
    0.0994   -1.2860    0.5165 C   0  0  0  0  0  0  0  0  0  0  0  0
    1.2185   -0.3122    0.8719 C   0  0  0  0  0  0  0  0  0  0  0  0
    1.1685    0.7584   -0.2467 C   0  0  0  0  0  0  0  0  0  0  0  0
    0.2750    0.1665   -1.3653 C   0  0  0  0  0  0  0  0  0  0  0  0
    0.1499   -1.3116   -1.0099 C   0  0  0  0  0  0  0  0  0  0  0  0
   -1.0041   -2.1069   -1.5940 C   0  0  0  0  0  0  0  0  0  0  0  0
   -0.1117   -4.0501   -1.3679 H   0  0  0  0  0  0  0  0  0  0  0  0
   -1.8650   -4.0844   -1.3827 H   0  0  0  0  0  0  0  0  0  0  0  0
   -1.9562   -3.1142    0.8745 H   0  0  0  0  0  0  0  0  0  0  0  0
   -0.9486   -4.5494    0.8893 H   0  0  0  0  0  0  0  0  0  0  0  0
    0.0718   -2.6610    2.1914 H   0  0  0  0  0  0  0  0  0  0  0  0
    1.1005   -3.1521    0.8525 H   0  0  0  0  0  0  0  0  0  0  0  0
   -0.8594   -0.8271    0.7990 H   0  0  0  0  0  0  0  0  0  0  0  0
    1.1096    0.1158    1.8693 H   0  0  0  0  0  0  0  0  0  0  0  0
    2.1761   -0.8407    0.8515 H   0  0  0  0  0  0  0  0  0  0  0  0
    0.6745    1.8856    0.1976 H   0  0  0  0  0  0  0  0  0  0  0  0
    2.1697    0.9808   -0.6170 H   0  0  0  0  0  0  0  0  0  0  0  0
    0.6846    0.3314   -2.3627 H   0  0  0  0  0  0  0  0  0  0  0  0
   -0.7170    0.6273   -1.3449 H   0  0  0  0  0  0  0  0  0  0  0  0
    1.0864   -1.8144   -1.2924 H   0  0  0  0  0  0  0  0  0  0  0  0
   -0.9435   -2.1459   -2.6848 H   0  0  0  0  0  0  0  0  0  0  0  0
   -1.9473   -1.6056   -1.3459 H   0  0  0  0  0  0  0  0  0  0  0  0
  1  2  1  0
  1  5  1  0
  1  6  1  0
  1  7  1  0
  2  3  1  0
  2  4  1  0
  3  8  1  0
  3  9  1  0
  3 10  1  0
  4 11  1  0
  4 12  1  0
  4 13  1  0
 14 15  1  0
 14 22  1  0
 14 23  1  0
 14 24  1  0
 15 16  1  0
 15 25  1  0
 15 26  1  0
 16 17  1  0
 16 27  1  0
 16 28  1  0
 17 18  1  0
 17 21  1  0
 17 29  1  0
 18 19  1  0
 18 30  1  0
 18 31  1  0
 19 20  1  0
 19 32  1  0
 19 33  1  0
 20 21  1  0
 20 34  1  0
 20 35  1  0
 21 22  1  0
 21 36  1  0
 22 37  1  0
 22 38  1  0
M  RAD  1   2   2
M  END
>  <reaction>  (5) 
rxn_602

>  <mol_properties>  (5) 
{"0": {"label": "*0", "atom_type": "Cs"}, "1": {"label": "*1", "atom_type": "Cs"}, "17": {"label": "*4", "atom_type": "Cs"}, "18": {"label": "*3", "atom_type": "Cs"}, "31": {"label": "*2", "atom_type": "H0"}}

>  <type>  (5) 
unop_1

>  <geom_source>  (5) 
Heuristics

$$$$

     RDKit          3D

 38 38  0  0  0  0  0  0  0  0999 V2000
    0.4825    3.1179    2.0577 C   0  0  0  0  0  0  0  0  0  0  0  0
    0.1336    3.0036    0.5769 C   0  0  0  0  0  3  0  0  0  0  0  0
   -1.3149    3.4110    0.3241 C   0  0  0  0  0  0  0  0  0  0  0  0
    1.0904    3.8321   -0.2751 C   0  0  0  0  0  0  0  0  0  0  0  0
   -0.1809    2.5038    2.6705 H   0  0  0  0  0  0  0  0  0  0  0  0
    1.5094    2.7998    2.2494 H   0  0  0  0  0  0  0  0  0  0  0  0
    0.3854    4.1537    2.3961 H   0  0  0  0  0  0  0  0  0  0  0  0
   -1.4736    4.4569    0.6029 H   0  0  0  0  0  0  0  0  0  0  0  0
   -2.0066    2.8016    0.9095 H   0  0  0  0  0  0  0  0  0  0  0  0
   -1.5795    3.3034   -0.7299 H   0  0  0  0  0  0  0  0  0  0  0  0
    2.1270    3.5253   -0.1204 H   0  0  0  0  0  0  0  0  0  0  0  0
    0.8639    3.7313   -1.3386 H   0  0  0  0  0  0  0  0  0  0  0  0
    1.0143    4.8924   -0.0168 H   0  0  0  0  0  0  0  0  0  0  0  0
   -1.0488   -3.5378   -1.0791 C   0  0  0  0  0  0  0  0  0  0  0  0
   -1.0488   -3.5378    0.4515 C   0  0  0  0  0  0  0  0  0  0  0  0
    0.0944   -2.7014    1.0335 C   0  0  0  0  0  0  0  0  0  0  0  0
    0.0547   -1.3004    0.4494 C   0  0  0  0  0  0  0  0  0  0  0  0
    1.1738   -0.3266    0.8048 C   0  0  0  0  0  0  0  0  0  0  0  0
    1.1238    0.7439   -0.3138 C   0  0  0  0  0  0  0  0  0  0  0  0
    0.2304    0.1521   -1.4324 C   0  0  0  0  0  0  0  0  0  0  0  0
    0.1053   -1.3261   -1.0770 C   0  0  0  0  0  0  0  0  0  0  0  0
   -1.0488   -2.1214   -1.6611 C   0  0  0  0  0  0  0  0  0  0  0  0
   -0.1563   -4.0646   -1.4350 H   0  0  0  0  0  0  0  0  0  0  0  0
   -1.9096   -4.0989   -1.4498 H   0  0  0  0  0  0  0  0  0  0  0  0
   -2.0009   -3.1286    0.8074 H   0  0  0  0  0  0  0  0  0  0  0  0
   -0.9932   -4.5639    0.8222 H   0  0  0  0  0  0  0  0  0  0  0  0
    0.0271   -2.6755    2.1243 H   0  0  0  0  0  0  0  0  0  0  0  0
    1.0559   -3.1665    0.7854 H   0  0  0  0  0  0  0  0  0  0  0  0
   -0.9040   -0.8416    0.7319 H   0  0  0  0  0  0  0  0  0  0  0  0
    1.0650    0.1013    1.8022 H   0  0  0  0  0  0  0  0  0  0  0  0
    2.1314   -0.8552    0.7844 H   0  0  0  0  0  0  0  0  0  0  0  0
    0.6299    1.8712    0.1305 H   0  0  0  0  0  0  0  0  0  0  0  0
    2.1250    0.9664   -0.6841 H   0  0  0  0  0  0  0  0  0  0  0  0
    0.6400    0.3170   -2.4299 H   0  0  0  0  0  0  0  0  0  0  0  0
   -0.7617    0.6128   -1.4120 H   0  0  0  0  0  0  0  0  0  0  0  0
    1.0417   -1.8289   -1.3595 H   0  0  0  0  0  0  0  0  0  0  0  0
   -0.9881   -2.1603   -2.7520 H   0  0  0  0  0  0  0  0  0  0  0  0
   -1.9919   -1.6200   -1.4131 H   0  0  0  0  0  0  0  0  0  0  0  0
  1  2  1  0
  1  5  1  0
  1  6  1  0
  1  7  1  0
  2  3  1  0
  2  4  1  0
  3  8  1  0
  3  9  1  0
  3 10  1  0
  4 11  1  0
  4 12  1  0
  4 13  1  0
 14 15  1  0
 14 22  1  0
 14 23  1  0
 14 24  1  0
 15 16  1  0
 15 25  1  0
 15 26  1  0
 16 17  1  0
 16 27  1  0
 16 28  1  0
 17 18  1  0
 17 21  1  0
 17 29  1  0
 18 19  1  0
 18 30  1  0
 18 31  1  0
 19 20  1  0
 19 32  1  0
 19 33  1  0
 20 21  1  0
 20 34  1  0
 20 35  1  0
 21 22  1  0
 21 36  1  0
 22 37  1  0
 22 38  1  0
M  RAD  1   2   2
M  END
>  <reaction>  (6) 
rxn_602

>  <mol_properties>  (6) 
{"0": {"label": "*0", "atom_type": "Cs"}, "1": {"label": "*1", "atom_type": "Cs"}, "17": {"label": "*4", "atom_type": "Cs"}, "18": {"label": "*3", "atom_type": "Cs"}, "31": {"label": "*2", "atom_type": "H0"}}

>  <type>  (6) 
unop_2

>  <geom_source>  (6) 
Heuristics

$$$$

     RDKit          3D

 38 38  0  0  0  0  0  0  0  0999 V2000
    0.8310    4.1637   -0.1887 C   0  0  0  0  0  0  0  0  0  0  0  0
    0.2001    3.0272    0.6102 C   0  0  0  0  0  3  0  0  0  0  0  0
   -0.0401    3.4451    2.0577 C   0  0  0  0  0  0  0  0  0  0  0  0
   -1.0946    2.5534   -0.0434 C   0  0  0  0  0  0  0  0  0  0  0  0
    1.7733    4.4876    0.2580 H   0  0  0  0  0  0  0  0  0  0  0  0
    1.0322    3.8611   -1.2185 H   0  0  0  0  0  0  0  0  0  0  0  0
    0.1618    5.0285   -0.2199 H   0  0  0  0  0  0  0  0  0  0  0  0
   -0.7392    4.2852    2.1037 H   0  0  0  0  0  0  0  0  0  0  0  0
    0.8885    3.7578    2.5400 H   0  0  0  0  0  0  0  0  0  0  0  0
   -0.4646    2.6262    2.6422 H   0  0  0  0  0  0  0  0  0  0  0  0
   -0.9237    2.2252   -1.0708 H   0  0  0  0  0  0  0  0  0  0  0  0
   -1.5359    1.7204    0.5079 H   0  0  0  0  0  0  0  0  0  0  0  0
   -1.8299    3.3629   -0.0696 H   0  0  0  0  0  0  0  0  0  0  0  0
   -0.9822   -3.5142   -1.0458 C   0  0  0  0  0  0  0  0  0  0  0  0
   -0.9822   -3.5142    0.4848 C   0  0  0  0  0  0  0  0  0  0  0  0
    0.1609   -2.6778    1.0668 C   0  0  0  0  0  0  0  0  0  0  0  0
    0.1213   -1.2769    0.4827 C   0  0  0  0  0  0  0  0  0  0  0  0
    1.2403   -0.3031    0.8381 C   0  0  0  0  0  0  0  0  0  0  0  0
    1.1904    0.7675   -0.2805 C   0  0  0  0  0  0  0  0  0  0  0  0
    0.2969    0.1756   -1.3991 C   0  0  0  0  0  0  0  0  0  0  0  0
    0.1718   -1.3025   -1.0437 C   0  0  0  0  0  0  0  0  0  0  0  0
   -0.9822   -2.0978   -1.6278 C   0  0  0  0  0  0  0  0  0  0  0  0
   -0.0898   -4.0410   -1.4017 H   0  0  0  0  0  0  0  0  0  0  0  0
   -1.8431   -4.0753   -1.4165 H   0  0  0  0  0  0  0  0  0  0  0  0
   -1.9344   -3.1051    0.8407 H   0  0  0  0  0  0  0  0  0  0  0  0
   -0.9267   -4.5403    0.8555 H   0  0  0  0  0  0  0  0  0  0  0  0
    0.0936   -2.6519    2.1576 H   0  0  0  0  0  0  0  0  0  0  0  0
    1.1224   -3.1430    0.8187 H   0  0  0  0  0  0  0  0  0  0  0  0
   -0.8375   -0.8180    0.7652 H   0  0  0  0  0  0  0  0  0  0  0  0
    1.1315    0.1249    1.8355 H   0  0  0  0  0  0  0  0  0  0  0  0
    2.1980   -0.8316    0.8177 H   0  0  0  0  0  0  0  0  0  0  0  0
    0.6964    1.8947    0.1638 H   0  0  0  0  0  0  0  0  0  0  0  0
    2.1916    0.9900   -0.6508 H   0  0  0  0  0  0  0  0  0  0  0  0
    0.7065    0.3405   -2.3966 H   0  0  0  0  0  0  0  0  0  0  0  0
   -0.6952    0.6364   -1.3787 H   0  0  0  0  0  0  0  0  0  0  0  0
    1.1083   -1.8053   -1.3262 H   0  0  0  0  0  0  0  0  0  0  0  0
   -0.9216   -2.1368   -2.7187 H   0  0  0  0  0  0  0  0  0  0  0  0
   -1.9254   -1.5965   -1.3798 H   0  0  0  0  0  0  0  0  0  0  0  0
  1  2  1  0
  1  5  1  0
  1  6  1  0
  1  7  1  0
  2  3  1  0
  2  4  1  0
  3  8  1  0
  3  9  1  0
  3 10  1  0
  4 11  1  0
  4 12  1  0
  4 13  1  0
 14 15  1  0
 14 22  1  0
 14 23  1  0
 14 24  1  0
 15 16  1  0
 15 25  1  0
 15 26  1  0
 16 17  1  0
 16 27  1  0
 16 28  1  0
 17 18  1  0
 17 21  1  0
 17 29  1  0
 18 19  1  0
 18 30  1  0
 18 31  1  0
 19 20  1  0
 19 32  1  0
 19 33  1  0
 20 21  1  0
 20 34  1  0
 20 35  1  0
 21 22  1  0
 21 36  1  0
 22 37  1  0
 22 38  1  0
M  RAD  1   2   2
M  END
>  <reaction>  (7) 
rxn_602

>  <mol_properties>  (7) 
{"0": {"label": "*0", "atom_type": "Cs"}, "1": {"label": "*1", "atom_type": "Cs"}, "17": {"label": "*4", "atom_type": "Cs"}, "18": {"label": "*3", "atom_type": "Cs"}, "31": {"label": "*2", "atom_type": "H0"}}

>  <type>  (7) 
unop_3

>  <geom_source>  (7) 
Heuristics

$$$$

     RDKit          3D

 38 38  0  0  0  0  0  0  0  0999 V2000
   -1.2261    2.7471    1.1314 C   0  0  0  0  0  0  0  0  0  0  0  0
    0.1882    3.0201    0.6283 C   0  0  0  0  0  3  0  0  0  0  0  0
    0.1876    3.3160   -0.8685 C   0  0  0  0  0  0  0  0  0  0  0  0
    0.8355    4.1593    1.4099 C   0  0  0  0  0  0  0  0  0  0  0  0
   -1.6841    1.9132    0.5954 H   0  0  0  0  0  0  0  0  0  0  0  0
   -1.2289    2.5058    2.1964 H   0  0  0  0  0  0  0  0  0  0  0  0
   -1.8612    3.6259    0.9867 H   0  0  0  0  0  0  0  0  0  0  0  0
   -0.3990    4.2145   -1.0818 H   0  0  0  0  0  0  0  0  0  0  0  0
   -0.2482    2.4912   -1.4361 H   0  0  0  0  0  0  0  0  0  0  0  0
    1.2005    3.4835   -1.2405 H   0  0  0  0  0  0  0  0  0  0  0  0
    0.8653    3.9403    2.4793 H   0  0  0  0  0  0  0  0  0  0  0  0
    1.8587    4.3402    1.0739 H   0  0  0  0  0  0  0  0  0  0  0  0
    0.2711    5.0866    1.2749 H   0  0  0  0  0  0  0  0  0  0  0  0
   -0.9942   -3.5214   -1.0277 C   0  0  0  0  0  0  0  0  0  0  0  0
   -0.9942   -3.5214    0.5029 C   0  0  0  0  0  0  0  0  0  0  0  0
    0.1490   -2.6850    1.0849 C   0  0  0  0  0  0  0  0  0  0  0  0
    0.1093   -1.2840    0.5008 C   0  0  0  0  0  0  0  0  0  0  0  0
    1.2284   -0.3102    0.8562 C   0  0  0  0  0  0  0  0  0  0  0  0
    1.1784    0.7603   -0.2624 C   0  0  0  0  0  0  0  0  0  0  0  0
    0.2850    0.1685   -1.3811 C   0  0  0  0  0  0  0  0  0  0  0  0
    0.1599   -1.3096   -1.0256 C   0  0  0  0  0  0  0  0  0  0  0  0
   -0.9942   -2.1049   -1.6097 C   0  0  0  0  0  0  0  0  0  0  0  0
   -0.1017   -4.0482   -1.3837 H   0  0  0  0  0  0  0  0  0  0  0  0
   -1.8550   -4.0825   -1.3985 H   0  0  0  0  0  0  0  0  0  0  0  0
   -1.9463   -3.1122    0.8588 H   0  0  0  0  0  0  0  0  0  0  0  0
   -0.9386   -4.5475    0.8736 H   0  0  0  0  0  0  0  0  0  0  0  0
    0.0817   -2.6590    2.1757 H   0  0  0  0  0  0  0  0  0  0  0  0
    1.1105   -3.1501    0.8368 H   0  0  0  0  0  0  0  0  0  0  0  0
   -0.8494   -0.8252    0.7833 H   0  0  0  0  0  0  0  0  0  0  0  0
    1.1196    0.1177    1.8536 H   0  0  0  0  0  0  0  0  0  0  0  0
    2.1860   -0.8388    0.8358 H   0  0  0  0  0  0  0  0  0  0  0  0
    0.6845    1.8876    0.1819 H   0  0  0  0  0  0  0  0  0  0  0  0
    2.1796    0.9828   -0.6327 H   0  0  0  0  0  0  0  0  0  0  0  0
    0.6946    0.3334   -2.3785 H   0  0  0  0  0  0  0  0  0  0  0  0
   -0.7071    0.6292   -1.3606 H   0  0  0  0  0  0  0  0  0  0  0  0
    1.0963   -1.8125   -1.3081 H   0  0  0  0  0  0  0  0  0  0  0  0
   -0.9335   -2.1439   -2.7006 H   0  0  0  0  0  0  0  0  0  0  0  0
   -1.9373   -1.6036   -1.3617 H   0  0  0  0  0  0  0  0  0  0  0  0
  1  2  1  0
  1  5  1  0
  1  6  1  0
  1  7  1  0
  2  3  1  0
  2  4  1  0
  3  8  1  0
  3  9  1  0
  3 10  1  0
  4 11  1  0
  4 12  1  0
  4 13  1  0
 14 15  1  0
 14 22  1  0
 14 23  1  0
 14 24  1  0
 15 16  1  0
 15 25  1  0
 15 26  1  0
 16 17  1  0
 16 27  1  0
 16 28  1  0
 17 18  1  0
 17 21  1  0
 17 29  1  0
 18 19  1  0
 18 30  1  0
 18 31  1  0
 19 20  1  0
 19 32  1  0
 19 33  1  0
 20 21  1  0
 20 34  1  0
 20 35  1  0
 21 22  1  0
 21 36  1  0
 22 37  1  0
 22 38  1  0
M  RAD  1   2   2
M  END
>  <reaction>  (8) 
rxn_602

>  <mol_properties>  (8) 
{"0": {"label": "*0", "atom_type": "Cs"}, "1": {"label": "*1", "atom_type": "Cs"}, "17": {"label": "*4", "atom_type": "Cs"}, "18": {"label": "*3", "atom_type": "Cs"}, "31": {"label": "*2", "atom_type": "H0"}}

>  <type>  (8) 
unop_4

>  <geom_source>  (8) 
Heuristics

$$$$

     RDKit          3D

 38 38  0  0  0  0  0  0  0  0999 V2000
    0.1531    4.0103   -0.5888 C   0  0  0  0  0  0  0  0  0  0  0  0
    0.1676    3.0156    0.5679 C   0  0  0  0  0  3  0  0  0  0  0  0
    1.0645    3.5075    1.6999 C   0  0  0  0  0  0  0  0  0  0  0  0
   -1.2467    2.7426    1.0711 C   0  0  0  0  0  0  0  0  0  0  0  0
    1.1600    4.1875   -0.9727 H   0  0  0  0  0  0  0  0  0  0  0  0
   -0.4641    3.6501   -1.4145 H   0  0  0  0  0  0  0  0  0  0  0  0
   -0.2538    4.9720   -0.2630 H   0  0  0  0  0  0  0  0  0  0  0  0
    0.6887    4.4520    2.1044 H   0  0  0  0  0  0  0  0  0  0  0  0
    2.0857    3.6769    1.3523 H   0  0  0  0  0  0  0  0  0  0  0  0
    1.1022    2.7861    2.5188 H   0  0  0  0  0  0  0  0  0  0  0  0
   -1.8860    2.3622    0.2717 H   0  0  0  0  0  0  0  0  0  0  0  0
   -1.2456    2.0090    1.8801 H   0  0  0  0  0  0  0  0  0  0  0  0
   -1.7017    3.6608    1.4539 H   0  0  0  0  0  0  0  0  0  0  0  0
   -1.0148   -3.5259   -1.0881 C   0  0  0  0  0  0  0  0  0  0  0  0
   -1.0148   -3.5259    0.4426 C   0  0  0  0  0  0  0  0  0  0  0  0
    0.1284   -2.6895    1.0245 C   0  0  0  0  0  0  0  0  0  0  0  0
    0.0887   -1.2885    0.4404 C   0  0  0  0  0  0  0  0  0  0  0  0
    1.2078   -0.3147    0.7959 C   0  0  0  0  0  0  0  0  0  0  0  0
    1.1578    0.7558   -0.3227 C   0  0  0  0  0  0  0  0  0  0  0  0
    0.2644    0.1640   -1.4414 C   0  0  0  0  0  0  0  0  0  0  0  0
    0.1393   -1.3141   -1.0859 C   0  0  0  0  0  0  0  0  0  0  0  0
   -1.0148   -2.1094   -1.6700 C   0  0  0  0  0  0  0  0  0  0  0  0
   -0.1223   -4.0527   -1.4440 H   0  0  0  0  0  0  0  0  0  0  0  0
   -1.8756   -4.0870   -1.4588 H   0  0  0  0  0  0  0  0  0  0  0  0
   -1.9669   -3.1167    0.7985 H   0  0  0  0  0  0  0  0  0  0  0  0
   -0.9592   -4.5520    0.8133 H   0  0  0  0  0  0  0  0  0  0  0  0
    0.0611   -2.6635    2.1154 H   0  0  0  0  0  0  0  0  0  0  0  0
    1.0899   -3.1546    0.7765 H   0  0  0  0  0  0  0  0  0  0  0  0
   -0.8700   -0.8296    0.7230 H   0  0  0  0  0  0  0  0  0  0  0  0
    1.0990    0.1132    1.7933 H   0  0  0  0  0  0  0  0  0  0  0  0
    2.1654   -0.8433    0.7754 H   0  0  0  0  0  0  0  0  0  0  0  0
    0.6639    1.8831    0.1216 H   0  0  0  0  0  0  0  0  0  0  0  0
    2.1590    0.9783   -0.6930 H   0  0  0  0  0  0  0  0  0  0  0  0
    0.6740    0.3289   -2.4388 H   0  0  0  0  0  0  0  0  0  0  0  0
   -0.7277    0.6247   -1.4209 H   0  0  0  0  0  0  0  0  0  0  0  0
    1.0757   -1.8170   -1.3685 H   0  0  0  0  0  0  0  0  0  0  0  0
   -0.9541   -2.1484   -2.7609 H   0  0  0  0  0  0  0  0  0  0  0  0
   -1.9579   -1.6081   -1.4220 H   0  0  0  0  0  0  0  0  0  0  0  0
  1  2  1  0
  1  5  1  0
  1  6  1  0
  1  7  1  0
  2  3  1  0
  2  4  1  0
  3  8  1  0
  3  9  1  0
  3 10  1  0
  4 11  1  0
  4 12  1  0
  4 13  1  0
 14 15  1  0
 14 22  1  0
 14 23  1  0
 14 24  1  0
 15 16  1  0
 15 25  1  0
 15 26  1  0
 16 17  1  0
 16 27  1  0
 16 28  1  0
 17 18  1  0
 17 21  1  0
 17 29  1  0
 18 19  1  0
 18 30  1  0
 18 31  1  0
 19 20  1  0
 19 32  1  0
 19 33  1  0
 20 21  1  0
 20 34  1  0
 20 35  1  0
 21 22  1  0
 21 36  1  0
 22 37  1  0
 22 38  1  0
M  RAD  1   2   2
M  END
>  <reaction>  (9) 
rxn_602

>  <mol_properties>  (9) 
{"0": {"label": "*0", "atom_type": "Cs"}, "1": {"label": "*1", "atom_type": "Cs"}, "17": {"label": "*4", "atom_type": "Cs"}, "18": {"label": "*3", "atom_type": "Cs"}, "31": {"label": "*2", "atom_type": "H0"}}

>  <type>  (9) 
unop_5

>  <geom_source>  (9) 
Heuristics

$$$$

     RDKit          3D

 38 38  0  0  0  0  0  0  0  0999 V2000
   -1.3542    2.9722    0.4409 C   0  0  0  0  0  0  0  0  0  0  0  0
    0.1574    3.0093    0.6445 C   0  0  0  0  0  3  0  0  0  0  0  0
    0.8754    3.3529   -0.6571 C   0  0  0  0  0  0  0  0  0  0  0  0
    0.5354    3.9886    1.7517 C   0  0  0  0  0  0  0  0  0  0  0  0
   -1.6334    2.2513   -0.3304 H   0  0  0  0  0  0  0  0  0  0  0  0
   -1.8723    2.6981    1.3623 H   0  0  0  0  0  0  0  0  0  0  0  0
   -1.7237    3.9537    0.1297 H   0  0  0  0  0  0  0  0  0  0  0  0
    0.5825    4.3475   -1.0059 H   0  0  0  0  0  0  0  0  0  0  0  0
    0.6314    2.6381   -1.4458 H   0  0  0  0  0  0  0  0  0  0  0  0
    1.9594    3.3523   -0.5248 H   0  0  0  0  0  0  0  0  0  0  0  0
    0.0473    3.7305    2.6938 H   0  0  0  0  0  0  0  0  0  0  0  0
    1.6140    3.9981    1.9222 H   0  0  0  0  0  0  0  0  0  0  0  0
    0.2307    5.0050    1.4856 H   0  0  0  0  0  0  0  0  0  0  0  0
   -1.0249   -3.5322   -1.0115 C   0  0  0  0  0  0  0  0  0  0  0  0
   -1.0249   -3.5322    0.5191 C   0  0  0  0  0  0  0  0  0  0  0  0
    0.1182   -2.6958    1.1011 C   0  0  0  0  0  0  0  0  0  0  0  0
    0.0786   -1.2948    0.5170 C   0  0  0  0  0  0  0  0  0  0  0  0
    1.1977   -0.3210    0.8725 C   0  0  0  0  0  0  0  0  0  0  0  0
    1.1477    0.7495   -0.2462 C   0  0  0  0  0  0  0  0  0  0  0  0
    0.2542    0.1577   -1.3648 C   0  0  0  0  0  0  0  0  0  0  0  0
    0.1291   -1.3204   -1.0093 C   0  0  0  0  0  0  0  0  0  0  0  0
   -1.0249   -2.1157   -1.5935 C   0  0  0  0  0  0  0  0  0  0  0  0
   -0.1325   -4.0590   -1.3674 H   0  0  0  0  0  0  0  0  0  0  0  0
   -1.8858   -4.0933   -1.3822 H   0  0  0  0  0  0  0  0  0  0  0  0
   -1.9770   -3.1230    0.8751 H   0  0  0  0  0  0  0  0  0  0  0  0
   -0.9694   -4.5583    0.8899 H   0  0  0  0  0  0  0  0  0  0  0  0
    0.0510   -2.6698    2.1920 H   0  0  0  0  0  0  0  0  0  0  0  0
    1.0797   -3.1609    0.8531 H   0  0  0  0  0  0  0  0  0  0  0  0
   -0.8802   -0.8360    0.7995 H   0  0  0  0  0  0  0  0  0  0  0  0
    1.0888    0.1069    1.8699 H   0  0  0  0  0  0  0  0  0  0  0  0
    2.1553   -0.8496    0.8520 H   0  0  0  0  0  0  0  0  0  0  0  0
    0.6537    1.8768    0.1981 H   0  0  0  0  0  0  0  0  0  0  0  0
    2.1489    0.9720   -0.6164 H   0  0  0  0  0  0  0  0  0  0  0  0
    0.6638    0.3226   -2.3622 H   0  0  0  0  0  0  0  0  0  0  0  0
   -0.7378    0.6184   -1.3444 H   0  0  0  0  0  0  0  0  0  0  0  0
    1.0656   -1.8233   -1.2919 H   0  0  0  0  0  0  0  0  0  0  0  0
   -0.9643   -2.1547   -2.6843 H   0  0  0  0  0  0  0  0  0  0  0  0
   -1.9681   -1.6144   -1.3454 H   0  0  0  0  0  0  0  0  0  0  0  0
  1  2  1  0
  1  5  1  0
  1  6  1  0
  1  7  1  0
  2  3  1  0
  2  4  1  0
  3  8  1  0
  3  9  1  0
  3 10  1  0
  4 11  1  0
  4 12  1  0
  4 13  1  0
 14 15  1  0
 14 22  1  0
 14 23  1  0
 14 24  1  0
 15 16  1  0
 15 25  1  0
 15 26  1  0
 16 17  1  0
 16 27  1  0
 16 28  1  0
 17 18  1  0
 17 21  1  0
 17 29  1  0
 18 19  1  0
 18 30  1  0
 18 31  1  0
 19 20  1  0
 19 32  1  0
 19 33  1  0
 20 21  1  0
 20 34  1  0
 20 35  1  0
 21 22  1  0
 21 36  1  0
 22 37  1  0
 22 38  1  0
M  RAD  1   2   2
M  END
>  <reaction>  (10) 
rxn_602

>  <mol_properties>  (10) 
{"0": {"label": "*0", "atom_type": "Cs"}, "1": {"label": "*1", "atom_type": "Cs"}, "17": {"label": "*4", "atom_type": "Cs"}, "18": {"label": "*3", "atom_type": "Cs"}, "31": {"label": "*2", "atom_type": "H0"}}

>  <type>  (10) 
unop_6

>  <geom_source>  (10) 
Heuristics

$$$$

     RDKit          3D

 38 38  0  0  0  0  0  0  0  0999 V2000
   -1.1276    3.3173   -0.1839 C   0  0  0  0  0  0  0  0  0  0  0  0
    0.1239    3.0001    0.6292 C   0  0  0  0  0  3  0  0  0  0  0  0
    1.3855    3.3814   -0.1394 C   0  0  0  0  0  0  0  0  0  0  0  0
    0.0821    3.6924    1.9882 C   0  0  0  0  0  0  0  0  0  0  0  0
   -1.1173    2.8011   -1.1461 H   0  0  0  0  0  0  0  0  0  0  0  0
   -2.0332    3.0197    0.3489 H   0  0  0  0  0  0  0  0  0  0  0  0
   -1.1946    4.3910   -0.3820 H   0  0  0  0  0  0  0  0  0  0  0  0
    1.4048    4.4573   -0.3359 H   0  0  0  0  0  0  0  0  0  0  0  0
    1.4355    2.8662   -1.1010 H   0  0  0  0  0  0  0  0  0  0  0  0
    2.2857    3.1298    0.4253 H   0  0  0  0  0  0  0  0  0  0  0  0
   -0.8043    3.4007    2.5553 H   0  0  0  0  0  0  0  0  0  0  0  0
    0.9617    3.4459    2.5865 H   0  0  0  0  0  0  0  0  0  0  0  0
    0.0565    4.7791    1.8647 H   0  0  0  0  0  0  0  0  0  0  0  0
   -1.0585   -3.5413   -1.0268 C   0  0  0  0  0  0  0  0  0  0  0  0
   -1.0585   -3.5413    0.5038 C   0  0  0  0  0  0  0  0  0  0  0  0
    0.0846   -2.7049    1.0858 C   0  0  0  0  0  0  0  0  0  0  0  0
    0.0450   -1.3040    0.5017 C   0  0  0  0  0  0  0  0  0  0  0  0
    1.1641   -0.3302    0.8571 C   0  0  0  0  0  0  0  0  0  0  0  0
    1.1141    0.7404   -0.2615 C   0  0  0  0  0  0  0  0  0  0  0  0
    0.2206    0.1485   -1.3801 C   0  0  0  0  0  0  0  0  0  0  0  0
    0.0956   -1.3296   -1.0247 C   0  0  0  0  0  0  0  0  0  0  0  0
   -1.0585   -2.1249   -1.6088 C   0  0  0  0  0  0  0  0  0  0  0  0
   -0.1660   -4.0681   -1.3827 H   0  0  0  0  0  0  0  0  0  0  0  0
   -1.9194   -4.1024   -1.3975 H   0  0  0  0  0  0  0  0  0  0  0  0
   -2.0106   -3.1322    0.8597 H   0  0  0  0  0  0  0  0  0  0  0  0
   -1.0029   -4.5674    0.8745 H   0  0  0  0  0  0  0  0  0  0  0  0
    0.0174   -2.6790    2.1766 H   0  0  0  0  0  0  0  0  0  0  0  0
    1.0462   -3.1701    0.8378 H   0  0  0  0  0  0  0  0  0  0  0  0
   -0.9137   -0.8451    0.7842 H   0  0  0  0  0  0  0  0  0  0  0  0
    1.0553    0.0978    1.8546 H   0  0  0  0  0  0  0  0  0  0  0  0
    2.1217   -0.8587    0.8367 H   0  0  0  0  0  0  0  0  0  0  0  0
    0.6201    1.8676    0.1828 H   0  0  0  0  0  0  0  0  0  0  0  0
    2.1153    0.9629   -0.6318 H   0  0  0  0  0  0  0  0  0  0  0  0
    0.6303    0.3134   -2.3775 H   0  0  0  0  0  0  0  0  0  0  0  0
   -0.7714    0.6093   -1.3597 H   0  0  0  0  0  0  0  0  0  0  0  0
    1.0320   -1.8324   -1.3072 H   0  0  0  0  0  0  0  0  0  0  0  0
   -0.9978   -2.1639   -2.6996 H   0  0  0  0  0  0  0  0  0  0  0  0
   -2.0016   -1.6236   -1.3607 H   0  0  0  0  0  0  0  0  0  0  0  0
  1  2  1  0
  1  5  1  0
  1  6  1  0
  1  7  1  0
  2  3  1  0
  2  4  1  0
  3  8  1  0
  3  9  1  0
  3 10  1  0
  4 11  1  0
  4 12  1  0
  4 13  1  0
 14 15  1  0
 14 22  1  0
 14 23  1  0
 14 24  1  0
 15 16  1  0
 15 25  1  0
 15 26  1  0
 16 17  1  0
 16 27  1  0
 16 28  1  0
 17 18  1  0
 17 21  1  0
 17 29  1  0
 18 19  1  0
 18 30  1  0
 18 31  1  0
 19 20  1  0
 19 32  1  0
 19 33  1  0
 20 21  1  0
 20 34  1  0
 20 35  1  0
 21 22  1  0
 21 36  1  0
 22 37  1  0
 22 38  1  0
M  RAD  1   2   2
M  END
>  <reaction>  (11) 
rxn_602

>  <mol_properties>  (11) 
{"0": {"label": "*0", "atom_type": "Cs"}, "1": {"label": "*1", "atom_type": "Cs"}, "17": {"label": "*4", "atom_type": "Cs"}, "18": {"label": "*3", "atom_type": "Cs"}, "31": {"label": "*2", "atom_type": "H0"}}

>  <type>  (11) 
unop_7

>  <geom_source>  (11) 
Heuristics

$$$$

     RDKit          3D

 38 38  0  0  0  0  0  0  0  0999 V2000
    1.2999    3.8506    1.1631 C   0  0  0  0  0  0  0  0  0  0  0  0
    0.1429    3.0045    0.6406 C   0  0  0  0  0  3  0  0  0  0  0  0
   -1.1746    3.4226    1.2864 C   0  0  0  0  0  0  0  0  0  0  0  0
    0.0538    3.0810   -0.8806 C   0  0  0  0  0  0  0  0  0  0  0  0
    1.3871    3.7768    2.2491 H   0  0  0  0  0  0  0  0  0  0  0  0
    2.2503    3.5368    0.7263 H   0  0  0  0  0  0  0  0  0  0  0  0
    1.1490    4.9045    0.9114 H   0  0  0  0  0  0  0  0  0  0  0  0
   -1.4105    4.4617    1.0389 H   0  0  0  0  0  0  0  0  0  0  0  0
   -1.1266    3.3421    2.3744 H   0  0  0  0  0  0  0  0  0  0  0  0
   -2.0023    2.8011    0.9384 H   0  0  0  0  0  0  0  0  0  0  0  0
    0.9845    2.7549   -1.3497 H   0  0  0  0  0  0  0  0  0  0  0  0
   -0.7545    2.4542   -1.2631 H   0  0  0  0  0  0  0  0  0  0  0  0
   -0.1398    4.1084   -1.2025 H   0  0  0  0  0  0  0  0  0  0  0  0
   -1.0394   -3.5370   -1.0154 C   0  0  0  0  0  0  0  0  0  0  0  0
   -1.0394   -3.5370    0.5152 C   0  0  0  0  0  0  0  0  0  0  0  0
    0.1037   -2.7006    1.0972 C   0  0  0  0  0  0  0  0  0  0  0  0
    0.0641   -1.2996    0.5131 C   0  0  0  0  0  0  0  0  0  0  0  0
    1.1831   -0.3258    0.8685 C   0  0  0  0  0  0  0  0  0  0  0  0
    1.1332    0.7447   -0.2501 C   0  0  0  0  0  0  0  0  0  0  0  0
    0.2397    0.1529   -1.3687 C   0  0  0  0  0  0  0  0  0  0  0  0
    0.1146   -1.3252   -1.0133 C   0  0  0  0  0  0  0  0  0  0  0  0
   -1.0394   -2.1206   -1.5974 C   0  0  0  0  0  0  0  0  0  0  0  0
   -0.1470   -4.0638   -1.3713 H   0  0  0  0  0  0  0  0  0  0  0  0
   -1.9003   -4.0981   -1.3861 H   0  0  0  0  0  0  0  0  0  0  0  0
   -1.9916   -3.1278    0.8711 H   0  0  0  0  0  0  0  0  0  0  0  0
   -0.9839   -4.5631    0.8859 H   0  0  0  0  0  0  0  0  0  0  0  0
    0.0364   -2.6746    2.1880 H   0  0  0  0  0  0  0  0  0  0  0  0
    1.0652   -3.1657    0.8491 H   0  0  0  0  0  0  0  0  0  0  0  0
   -0.8947   -0.8408    0.7956 H   0  0  0  0  0  0  0  0  0  0  0  0
    1.0743    0.1021    1.8659 H   0  0  0  0  0  0  0  0  0  0  0  0
    2.1408   -0.8544    0.8481 H   0  0  0  0  0  0  0  0  0  0  0  0
    0.6392    1.8720    0.1942 H   0  0  0  0  0  0  0  0  0  0  0  0
    2.1344    0.9672   -0.6204 H   0  0  0  0  0  0  0  0  0  0  0  0
    0.6493    0.3178   -2.3662 H   0  0  0  0  0  0  0  0  0  0  0  0
   -0.7523    0.6136   -1.3483 H   0  0  0  0  0  0  0  0  0  0  0  0
    1.0511   -1.8281   -1.2958 H   0  0  0  0  0  0  0  0  0  0  0  0
   -0.9788   -2.1595   -2.6883 H   0  0  0  0  0  0  0  0  0  0  0  0
   -1.9826   -1.6192   -1.3494 H   0  0  0  0  0  0  0  0  0  0  0  0
  1  2  1  0
  1  5  1  0
  1  6  1  0
  1  7  1  0
  2  3  1  0
  2  4  1  0
  3  8  1  0
  3  9  1  0
  3 10  1  0
  4 11  1  0
  4 12  1  0
  4 13  1  0
 14 15  1  0
 14 22  1  0
 14 23  1  0
 14 24  1  0
 15 16  1  0
 15 25  1  0
 15 26  1  0
 16 17  1  0
 16 27  1  0
 16 28  1  0
 17 18  1  0
 17 21  1  0
 17 29  1  0
 18 19  1  0
 18 30  1  0
 18 31  1  0
 19 20  1  0
 19 32  1  0
 19 33  1  0
 20 21  1  0
 20 34  1  0
 20 35  1  0
 21 22  1  0
 21 36  1  0
 22 37  1  0
 22 38  1  0
M  RAD  1   2   2
M  END
>  <reaction>  (12) 
rxn_602

>  <mol_properties>  (12) 
{"0": {"label": "*0", "atom_type": "Cs"}, "1": {"label": "*1", "atom_type": "Cs"}, "17": {"label": "*4", "atom_type": "Cs"}, "18": {"label": "*3", "atom_type": "Cs"}, "31": {"label": "*2", "atom_type": "H0"}}

>  <type>  (12) 
unop_8

>  <geom_source>  (12) 
Heuristics

$$$$

     RDKit          3D

 38 38  0  0  0  0  0  0  0  0999 V2000
   -0.7918    2.6962    1.7110 C   0  0  0  0  0  0  0  0  0  0  0  0
    0.1936    3.0235    0.5932 C   0  0  0  0  0  3  0  0  0  0  0  0
   -0.5381    3.2931   -0.7182 C   0  0  0  0  0  0  0  0  0  0  0  0
    1.0811    4.2040    0.9760 C   0  0  0  0  0  0  0  0  0  0  0  0
   -1.4104    1.8334    1.4550 H   0  0  0  0  0  0  0  0  0  0  0  0
   -0.2726    2.4736    2.6455 H   0  0  0  0  0  0  0  0  0  0  0  0
   -1.4598    3.5430    1.8940 H   0  0  0  0  0  0  0  0  0  0  0  0
   -1.1972    4.1605   -0.6186 H   0  0  0  0  0  0  0  0  0  0  0  0
   -1.1527    2.4398   -1.0126 H   0  0  0  0  0  0  0  0  0  0  0  0
    0.1635    3.4993   -1.5292 H   0  0  0  0  0  0  0  0  0  0  0  0
    1.6301    4.0052    1.8988 H   0  0  0  0  0  0  0  0  0  0  0  0
    1.8083    4.4248    0.1918 H   0  0  0  0  0  0  0  0  0  0  0  0
    0.4775    5.1026    1.1338 H   0  0  0  0  0  0  0  0  0  0  0  0
   -0.9887   -3.5179   -1.0628 C   0  0  0  0  0  0  0  0  0  0  0  0
   -0.9887   -3.5179    0.4678 C   0  0  0  0  0  0  0  0  0  0  0  0
    0.1544   -2.6815    1.0498 C   0  0  0  0  0  0  0  0  0  0  0  0
    0.1148   -1.2805    0.4657 C   0  0  0  0  0  0  0  0  0  0  0  0
    1.2338   -0.3068    0.8211 C   0  0  0  0  0  0  0  0  0  0  0  0
    1.1839    0.7638   -0.2975 C   0  0  0  0  0  0  0  0  0  0  0  0
    0.2904    0.1720   -1.4161 C   0  0  0  0  0  0  0  0  0  0  0  0
    0.1653   -1.3062   -1.0607 C   0  0  0  0  0  0  0  0  0  0  0  0
   -0.9887   -2.1015   -1.6448 C   0  0  0  0  0  0  0  0  0  0  0  0
   -0.0963   -4.0447   -1.4187 H   0  0  0  0  0  0  0  0  0  0  0  0
   -1.8496   -4.0790   -1.4335 H   0  0  0  0  0  0  0  0  0  0  0  0
   -1.9409   -3.1088    0.8237 H   0  0  0  0  0  0  0  0  0  0  0  0
   -0.9332   -4.5440    0.8385 H   0  0  0  0  0  0  0  0  0  0  0  0
    0.0871   -2.6556    2.1407 H   0  0  0  0  0  0  0  0  0  0  0  0
    1.1159   -3.1467    0.8018 H   0  0  0  0  0  0  0  0  0  0  0  0
   -0.8440   -0.8217    0.7482 H   0  0  0  0  0  0  0  0  0  0  0  0
    1.1250    0.1212    1.8186 H   0  0  0  0  0  0  0  0  0  0  0  0
    2.1915   -0.8353    0.8007 H   0  0  0  0  0  0  0  0  0  0  0  0
    0.6899    1.8910    0.1468 H   0  0  0  0  0  0  0  0  0  0  0  0
    2.1851    0.9863   -0.6677 H   0  0  0  0  0  0  0  0  0  0  0  0
    0.7000    0.3368   -2.4135 H   0  0  0  0  0  0  0  0  0  0  0  0
   -0.7016    0.6327   -1.3957 H   0  0  0  0  0  0  0  0  0  0  0  0
    1.1018   -1.8090   -1.3432 H   0  0  0  0  0  0  0  0  0  0  0  0
   -0.9281   -2.1404   -2.7356 H   0  0  0  0  0  0  0  0  0  0  0  0
   -1.9319   -1.6002   -1.3967 H   0  0  0  0  0  0  0  0  0  0  0  0
  1  2  1  0
  1  5  1  0
  1  6  1  0
  1  7  1  0
  2  3  1  0
  2  4  1  0
  3  8  1  0
  3  9  1  0
  3 10  1  0
  4 11  1  0
  4 12  1  0
  4 13  1  0
 14 15  1  0
 14 22  1  0
 14 23  1  0
 14 24  1  0
 15 16  1  0
 15 25  1  0
 15 26  1  0
 16 17  1  0
 16 27  1  0
 16 28  1  0
 17 18  1  0
 17 21  1  0
 17 29  1  0
 18 19  1  0
 18 30  1  0
 18 31  1  0
 19 20  1  0
 19 32  1  0
 19 33  1  0
 20 21  1  0
 20 34  1  0
 20 35  1  0
 21 22  1  0
 21 36  1  0
 22 37  1  0
 22 38  1  0
M  RAD  1   2   2
M  END
>  <reaction>  (13) 
rxn_602

>  <mol_properties>  (13) 
{"0": {"label": "*0", "atom_type": "Cs"}, "1": {"label": "*1", "atom_type": "Cs"}, "17": {"label": "*4", "atom_type": "Cs"}, "18": {"label": "*3", "atom_type": "Cs"}, "31": {"label": "*2", "atom_type": "H0"}}

>  <type>  (13) 
unop_9

>  <geom_source>  (13) 
Heuristics

$$$$

     RDKit          3D

 38 38  0  0  0  0  0  0  0  0999 V2000
    1.0200    3.4905    1.7425 C   0  0  0  0  0  0  0  0  0  0  0  0
    0.1231    2.9985    0.6106 C   0  0  0  0  0  3  0  0  0  0  0  0
   -1.3199    3.4459    0.8235 C   0  0  0  0  0  0  0  0  0  0  0  0
    0.6461    3.4678   -0.7437 C   0  0  0  0  0  0  0  0  0  0  0  0
    0.6673    3.1333    2.7124 H   0  0  0  0  0  0  0  0  0  0  0  0
    2.0488    3.1488    1.6111 H   0  0  0  0  0  0  0  0  0  0  0  0
    1.0331    4.5839    1.7743 H   0  0  0  0  0  0  0  0  0  0  0  0
   -1.3871    4.5378    0.8236 H   0  0  0  0  0  0  0  0  0  0  0  0
   -1.7096    3.0881    1.7788 H   0  0  0  0  0  0  0  0  0  0  0  0
   -1.9724    3.0721    0.0317 H   0  0  0  0  0  0  0  0  0  0  0  0
    1.6690    3.1257   -0.9146 H   0  0  0  0  0  0  0  0  0  0  0  0
    0.0247    3.0945   -1.5604 H   0  0  0  0  0  0  0  0  0  0  0  0
    0.6464    4.5605   -0.7974 H   0  0  0  0  0  0  0  0  0  0  0  0
   -1.0592   -3.5429   -1.0454 C   0  0  0  0  0  0  0  0  0  0  0  0
   -1.0592   -3.5429    0.4852 C   0  0  0  0  0  0  0  0  0  0  0  0
    0.0839   -2.7065    1.0672 C   0  0  0  0  0  0  0  0  0  0  0  0
    0.0443   -1.3055    0.4830 C   0  0  0  0  0  0  0  0  0  0  0  0
    1.1634   -0.3317    0.8385 C   0  0  0  0  0  0  0  0  0  0  0  0
    1.1134    0.7388   -0.2801 C   0  0  0  0  0  0  0  0  0  0  0  0
    0.2199    0.1470   -1.3988 C   0  0  0  0  0  0  0  0  0  0  0  0
    0.0948   -1.3312   -1.0433 C   0  0  0  0  0  0  0  0  0  0  0  0
   -1.0592   -2.1265   -1.6274 C   0  0  0  0  0  0  0  0  0  0  0  0
   -0.1668   -4.0697   -1.4014 H   0  0  0  0  0  0  0  0  0  0  0  0
   -1.9201   -4.1040   -1.4162 H   0  0  0  0  0  0  0  0  0  0  0  0
   -2.0113   -3.1337    0.8411 H   0  0  0  0  0  0  0  0  0  0  0  0
   -1.0037   -4.5690    0.8559 H   0  0  0  0  0  0  0  0  0  0  0  0
    0.0167   -2.6806    2.1580 H   0  0  0  0  0  0  0  0  0  0  0  0
    1.0454   -3.1716    0.8191 H   0  0  0  0  0  0  0  0  0  0  0  0
   -0.9145   -0.8467    0.7656 H   0  0  0  0  0  0  0  0  0  0  0  0
    1.0545    0.0962    1.8359 H   0  0  0  0  0  0  0  0  0  0  0  0
    2.1210   -0.8603    0.8181 H   0  0  0  0  0  0  0  0  0  0  0  0
    0.6194    1.8661    0.1642 H   0  0  0  0  0  0  0  0  0  0  0  0
    2.1146    0.9613   -0.6504 H   0  0  0  0  0  0  0  0  0  0  0  0
    0.6295    0.3118   -2.3962 H   0  0  0  0  0  0  0  0  0  0  0  0
   -0.7721    0.6077   -1.3783 H   0  0  0  0  0  0  0  0  0  0  0  0
    1.0313   -1.8340   -1.3258 H   0  0  0  0  0  0  0  0  0  0  0  0
   -0.9986   -2.1654   -2.7183 H   0  0  0  0  0  0  0  0  0  0  0  0
   -2.0024   -1.6251   -1.3794 H   0  0  0  0  0  0  0  0  0  0  0  0
  1  2  1  0
  1  5  1  0
  1  6  1  0
  1  7  1  0
  2  3  1  0
  2  4  1  0
  3  8  1  0
  3  9  1  0
  3 10  1  0
  4 11  1  0
  4 12  1  0
  4 13  1  0
 14 15  1  0
 14 22  1  0
 14 23  1  0
 14 24  1  0
 15 16  1  0
 15 25  1  0
 15 26  1  0
 16 17  1  0
 16 27  1  0
 16 28  1  0
 17 18  1  0
 17 21  1  0
 17 29  1  0
 18 19  1  0
 18 30  1  0
 18 31  1  0
 19 20  1  0
 19 32  1  0
 19 33  1  0
 20 21  1  0
 20 34  1  0
 20 35  1  0
 21 22  1  0
 21 36  1  0
 22 37  1  0
 22 38  1  0
M  RAD  1   2   2
M  END
>  <reaction>  (14) 
rxn_602

>  <mol_properties>  (14) 
{"0": {"label": "*0", "atom_type": "Cs"}, "1": {"label": "*1", "atom_type": "Cs"}, "17": {"label": "*4", "atom_type": "Cs"}, "18": {"label": "*3", "atom_type": "Cs"}, "31": {"label": "*2", "atom_type": "H0"}}

>  <type>  (14) 
unop_10

>  <geom_source>  (14) 
Heuristics

$$$$

     RDKit          3D

 38 38  0  0  0  0  0  0  0  0999 V2000
   -0.5842    3.6953   -0.5738 C   0  0  0  0  0  0  0  0  0  0  0  0
    0.1192    3.0004    0.5882 C   0  0  0  0  0  3  0  0  0  0  0  0
    1.5778    3.4379    0.6837 C   0  0  0  0  0  0  0  0  0  0  0  0
   -0.6144    3.2550    1.9015 C   0  0  0  0  0  0  0  0  0  0  0  0
   -0.0804    3.4927   -1.5212 H   0  0  0  0  0  0  0  0  0  0  0  0
   -1.6208    3.3643   -0.6655 H   0  0  0  0  0  0  0  0  0  0  0  0
   -0.5919    4.7790   -0.4250 H   0  0  0  0  0  0  0  0  0  0  0  0
    1.6442    4.5128    0.8757 H   0  0  0  0  0  0  0  0  0  0  0  0
    2.1158    3.2314   -0.2439 H   0  0  0  0  0  0  0  0  0  0  0  0
    2.0947    2.9219    1.4955 H   0  0  0  0  0  0  0  0  0  0  0  0
   -1.6514    2.9170    1.8490 H   0  0  0  0  0  0  0  0  0  0  0  0
   -0.1321    2.7362    2.7327 H   0  0  0  0  0  0  0  0  0  0  0  0
   -0.6232    4.3236    2.1353 H   0  0  0  0  0  0  0  0  0  0  0  0
   -1.0631   -3.5410   -1.0678 C   0  0  0  0  0  0  0  0  0  0  0  0
   -1.0631   -3.5410    0.4628 C   0  0  0  0  0  0  0  0  0  0  0  0
    0.0800   -2.7046    1.0448 C   0  0  0  0  0  0  0  0  0  0  0  0
    0.0404   -1.3036    0.4607 C   0  0  0  0  0  0  0  0  0  0  0  0
    1.1595   -0.3298    0.8161 C   0  0  0  0  0  0  0  0  0  0  0  0
    1.1095    0.7407   -0.3025 C   0  0  0  0  0  0  0  0  0  0  0  0
    0.2160    0.1489   -1.4211 C   0  0  0  0  0  0  0  0  0  0  0  0
    0.0909   -1.3293   -1.0657 C   0  0  0  0  0  0  0  0  0  0  0  0
   -1.0631   -2.1246   -1.6498 C   0  0  0  0  0  0  0  0  0  0  0  0
   -0.1707   -4.0678   -1.4237 H   0  0  0  0  0  0  0  0  0  0  0  0
   -1.9240   -4.1021   -1.4385 H   0  0  0  0  0  0  0  0  0  0  0  0
   -2.0152   -3.1318    0.8187 H   0  0  0  0  0  0  0  0  0  0  0  0
   -1.0076   -4.5671    0.8335 H   0  0  0  0  0  0  0  0  0  0  0  0
    0.0128   -2.6787    2.1356 H   0  0  0  0  0  0  0  0  0  0  0  0
    1.0415   -3.1697    0.7967 H   0  0  0  0  0  0  0  0  0  0  0  0
   -0.9184   -0.8448    0.7432 H   0  0  0  0  0  0  0  0  0  0  0  0
    1.0506    0.0981    1.8135 H   0  0  0  0  0  0  0  0  0  0  0  0
    2.1171   -0.8584    0.7957 H   0  0  0  0  0  0  0  0  0  0  0  0
    0.6155    1.8680    0.1418 H   0  0  0  0  0  0  0  0  0  0  0  0
    2.1107    0.9632   -0.6728 H   0  0  0  0  0  0  0  0  0  0  0  0
    0.6256    0.3137   -2.4186 H   0  0  0  0  0  0  0  0  0  0  0  0
   -0.7760    0.6096   -1.4007 H   0  0  0  0  0  0  0  0  0  0  0  0
    1.0274   -1.8321   -1.3482 H   0  0  0  0  0  0  0  0  0  0  0  0
   -1.0025   -2.1635   -2.7407 H   0  0  0  0  0  0  0  0  0  0  0  0
   -2.0063   -1.6232   -1.4018 H   0  0  0  0  0  0  0  0  0  0  0  0
  1  2  1  0
  1  5  1  0
  1  6  1  0
  1  7  1  0
  2  3  1  0
  2  4  1  0
  3  8  1  0
  3  9  1  0
  3 10  1  0
  4 11  1  0
  4 12  1  0
  4 13  1  0
 14 15  1  0
 14 22  1  0
 14 23  1  0
 14 24  1  0
 15 16  1  0
 15 25  1  0
 15 26  1  0
 16 17  1  0
 16 27  1  0
 16 28  1  0
 17 18  1  0
 17 21  1  0
 17 29  1  0
 18 19  1  0
 18 30  1  0
 18 31  1  0
 19 20  1  0
 19 32  1  0
 19 33  1  0
 20 21  1  0
 20 34  1  0
 20 35  1  0
 21 22  1  0
 21 36  1  0
 22 37  1  0
 22 38  1  0
M  RAD  1   2   2
M  END
>  <reaction>  (15) 
rxn_602

>  <mol_properties>  (15) 
{"0": {"label": "*0", "atom_type": "Cs"}, "1": {"label": "*1", "atom_type": "Cs"}, "17": {"label": "*4", "atom_type": "Cs"}, "18": {"label": "*3", "atom_type": "Cs"}, "31": {"label": "*2", "atom_type": "H0"}}

>  <type>  (15) 
unop_11

>  <geom_source>  (15) 
Heuristics

$$$$

     RDKit          3D

 38 38  0  0  0  0  0  0  0  0999 V2000
   -0.1725    2.8300    2.0436 C   0  0  0  0  0  0  0  0  0  0  0  0
    0.1676    3.0156    0.5679 C   0  0  0  0  0  3  0  0  0  0  0  0
   -1.0839    3.3327   -0.2451 C   0  0  0  0  0  0  0  0  0  0  0  0
    1.2273    4.0977    0.3837 C   0  0  0  0  0  0  0  0  0  0  0  0
   -0.9092    2.0363    2.1845 H   0  0  0  0  0  0  0  0  0  0  0  0
    0.7148    2.5739    2.6264 H   0  0  0  0  0  0  0  0  0  0  0  0
   -0.5907    3.7512    2.4599 H   0  0  0  0  0  0  0  0  0  0  0  0
   -1.5333    4.2712    0.0925 H   0  0  0  0  0  0  0  0  0  0  0  0
   -1.8351    2.5471   -0.1403 H   0  0  0  0  0  0  0  0  0  0  0  0
   -0.8515    3.4379   -1.3069 H   0  0  0  0  0  0  0  0  0  0  0  0
    2.1367    3.8616    0.9402 H   0  0  0  0  0  0  0  0  0  0  0  0
    1.4962    4.2150   -0.6682 H   0  0  0  0  0  0  0  0  0  0  0  0
    0.8572    5.0624    0.7430 H   0  0  0  0  0  0  0  0  0  0  0  0
   -1.0147   -3.5259   -1.0881 C   0  0  0  0  0  0  0  0  0  0  0  0
   -1.0147   -3.5259    0.4426 C   0  0  0  0  0  0  0  0  0  0  0  0
    0.1284   -2.6895    1.0245 C   0  0  0  0  0  0  0  0  0  0  0  0
    0.0888   -1.2885    0.4404 C   0  0  0  0  0  0  0  0  0  0  0  0
    1.2078   -0.3147    0.7959 C   0  0  0  0  0  0  0  0  0  0  0  0
    1.1579    0.7559   -0.3228 C   0  0  0  0  0  0  0  0  0  0  0  0
    0.2644    0.1640   -1.4414 C   0  0  0  0  0  0  0  0  0  0  0  0
    0.1393   -1.3141   -1.0859 C   0  0  0  0  0  0  0  0  0  0  0  0
   -1.0147   -2.1094   -1.6700 C   0  0  0  0  0  0  0  0  0  0  0  0
   -0.1223   -4.0527   -1.4440 H   0  0  0  0  0  0  0  0  0  0  0  0
   -1.8756   -4.0870   -1.4588 H   0  0  0  0  0  0  0  0  0  0  0  0
   -1.9669   -3.1167    0.7985 H   0  0  0  0  0  0  0  0  0  0  0  0
   -0.9592   -4.5520    0.8133 H   0  0  0  0  0  0  0  0  0  0  0  0
    0.0611   -2.6635    2.1154 H   0  0  0  0  0  0  0  0  0  0  0  0
    1.0899   -3.1546    0.7765 H   0  0  0  0  0  0  0  0  0  0  0  0
   -0.8700   -0.8296    0.7230 H   0  0  0  0  0  0  0  0  0  0  0  0
    1.0990    0.1132    1.7933 H   0  0  0  0  0  0  0  0  0  0  0  0
    2.1654   -0.8433    0.7754 H   0  0  0  0  0  0  0  0  0  0  0  0
    0.6639    1.8831    0.1216 H   0  0  0  0  0  0  0  0  0  0  0  0
    2.1590    0.9783   -0.6930 H   0  0  0  0  0  0  0  0  0  0  0  0
    0.6740    0.3289   -2.4388 H   0  0  0  0  0  0  0  0  0  0  0  0
   -0.7277    0.6248   -1.4209 H   0  0  0  0  0  0  0  0  0  0  0  0
    1.0757   -1.8170   -1.3685 H   0  0  0  0  0  0  0  0  0  0  0  0
   -0.9541   -2.1484   -2.7609 H   0  0  0  0  0  0  0  0  0  0  0  0
   -1.9579   -1.6081   -1.4220 H   0  0  0  0  0  0  0  0  0  0  0  0
  1  2  1  0
  1  5  1  0
  1  6  1  0
  1  7  1  0
  2  3  1  0
  2  4  1  0
  3  8  1  0
  3  9  1  0
  3 10  1  0
  4 11  1  0
  4 12  1  0
  4 13  1  0
 14 15  1  0
 14 22  1  0
 14 23  1  0
 14 24  1  0
 15 16  1  0
 15 25  1  0
 15 26  1  0
 16 17  1  0
 16 27  1  0
 16 28  1  0
 17 18  1  0
 17 21  1  0
 17 29  1  0
 18 19  1  0
 18 30  1  0
 18 31  1  0
 19 20  1  0
 19 32  1  0
 19 33  1  0
 20 21  1  0
 20 34  1  0
 20 35  1  0
 21 22  1  0
 21 36  1  0
 22 37  1  0
 22 38  1  0
M  RAD  1   2   2
M  END
>  <reaction>  (16) 
rxn_602

>  <mol_properties>  (16) 
{"0": {"label": "*0", "atom_type": "Cs"}, "1": {"label": "*1", "atom_type": "Cs"}, "17": {"label": "*4", "atom_type": "Cs"}, "18": {"label": "*3", "atom_type": "Cs"}, "31": {"label": "*2", "atom_type": "H0"}}

>  <type>  (16) 
unop_12

>  <geom_source>  (16) 
Heuristics

$$$$

     RDKit          3D

 38 38  0  0  0  0  0  0  0  0999 V2000
   -1.3687    0.4938   -0.9372 C   0  0  0  0  0  0  0  0  0  0  0  0
   -1.0189    0.5175    0.5364 C   0  0  0  0  0  0  0  0  0  0  0  0
    2.4116   -0.3793    0.0989 C   0  0  0  0  0  3  0  0  0  0  0  0
   -2.2135   -0.7444   -1.2509 C   0  0  0  0  0  0  0  0  0  0  0  0
   -2.2909    0.6996    1.3695 C   0  0  0  0  0  0  0  0  0  0  0  0
   -3.5131   -0.6842   -0.4196 C   0  0  0  0  0  0  0  0  0  0  0  0
   -3.2424   -0.4838    1.0907 C   0  0  0  0  0  0  0  0  0  0  0  0
   -0.0174    0.6005   -1.6220 C   0  0  0  0  0  0  0  0  0  0  0  0
    0.0316    1.6098    0.6301 C   0  0  0  0  0  0  0  0  0  0  0  0
    3.4682   -0.3562   -1.0094 C   0  0  0  0  0  0  0  0  0  0  0  0
    1.8889   -1.8019    0.3189 C   0  0  0  0  0  0  0  0  0  0  0  0
    2.9792    0.1960    1.3998 C   0  0  0  0  0  0  0  0  0  0  0  0
    0.8096    1.4950   -0.6884 C   0  0  0  0  0  0  0  0  0  0  0  0
    1.3754    0.3961   -0.2891 H   0  0  0  0  0  0  0  0  0  0  0  0
   -1.9575    1.4044   -1.2042 H   0  0  0  0  0  0  0  0  0  0  0  0
   -0.5355   -0.4457    0.8294 H   0  0  0  0  0  0  0  0  0  0  0  0
   -2.4659   -0.7610   -2.3329 H   0  0  0  0  0  0  0  0  0  0  0  0
   -1.6523   -1.6734   -1.0070 H   0  0  0  0  0  0  0  0  0  0  0  0
   -4.1441    0.1542   -0.7882 H   0  0  0  0  0  0  0  0  0  0  0  0
   -4.0851   -1.6253   -0.5671 H   0  0  0  0  0  0  0  0  0  0  0  0
   -2.7981   -1.4154    1.5051 H   0  0  0  0  0  0  0  0  0  0  0  0
   -4.2062   -0.3091    1.6152 H   0  0  0  0  0  0  0  0  0  0  0  0
   -2.7944    1.6574    1.1112 H   0  0  0  0  0  0  0  0  0  0  0  0
   -2.0311    0.7201    2.4497 H   0  0  0  0  0  0  0  0  0  0  0  0
   -0.1121    1.0442   -2.6367 H   0  0  0  0  0  0  0  0  0  0  0  0
    0.4688   -0.3966   -1.6921 H   0  0  0  0  0  0  0  0  0  0  0  0
    0.7049    1.4492    1.4986 H   0  0  0  0  0  0  0  0  0  0  0  0
   -0.4489    2.6108    0.7046 H   0  0  0  0  0  0  0  0  0  0  0  0
    4.3430   -0.9833   -0.7327 H   0  0  0  0  0  0  0  0  0  0  0  0
    3.8119    0.6851   -1.1855 H   0  0  0  0  0  0  0  0  0  0  0  0
    3.0340   -0.7404   -1.9567 H   0  0  0  0  0  0  0  0  0  0  0  0
    1.0973   -1.7999    1.0979 H   0  0  0  0  0  0  0  0  0  0  0  0
    2.7104   -2.4778    0.6405 H   0  0  0  0  0  0  0  0  0  0  0  0
    1.4462   -2.1939   -0.6212 H   0  0  0  0  0  0  0  0  0  0  0  0
    3.3203    1.2403    1.2368 H   0  0  0  0  0  0  0  0  0  0  0  0
    3.8374   -0.4125    1.7580 H   0  0  0  0  0  0  0  0  0  0  0  0
    2.1934    0.2088    2.1846 H   0  0  0  0  0  0  0  0  0  0  0  0
    0.9641    2.5013   -1.1351 H   0  0  0  0  0  0  0  0  0  0  0  0
  1  4  1  0
  1  8  1  0
  1  2  1  0
  1 15  1  0
  2  5  1  0
  2  9  1  0
  2 16  1  0
  3 10  1  0
  3 11  1  0
  3 12  1  0
  4  6  1  0
  4 17  1  0
  4 18  1  0
  5  7  1  0
  5 23  1  0
  5 24  1  0
  6  7  1  0
  6 19  1  0
  6 20  1  0
  7 21  1  0
  7 22  1  0
  8 13  1  0
  8 25  1  0
  8 26  1  0
  9 13  1  0
  9 27  1  0
  9 28  1  0
 10 29  1  0
 10 30  1  0
 10 31  1  0
 11 32  1  0
 11 33  1  0
 11 34  1  0
 12 35  1  0
 12 36  1  0
 12 37  1  0
 13 14  1  0
 13 38  1  0
M  RAD  1   3   2
M  END
>  <reaction>  (17) 
rxn_602

>  <mol_properties>  (17) 
{"0": {"label": "*0", "atom_type": "Cs"}, "1": {"label": "*1", "atom_type": "Cs"}, "17": {"label": "*4", "atom_type": "Cs"}, "18": {"label": "*3", "atom_type": "Cs"}, "31": {"label": "*2", "atom_type": "H0"}}

>  <type>  (17) 
unop_13

>  <geom_source>  (17) 
AutoTST

$$$$
