
     RDKit          3D

  7  6  0  0  0  0  0  0  0  0999 V2000
    1.6964   -0.0938    0.0583 C   0  0  0  0  0  0  0  0  0  0  0  0
    0.5019   -0.0278    0.0173 C   0  0  0  0  0  0  0  0  0  0  0  0
   -0.9505    0.0525   -0.0327 C   0  0  0  0  0  0  0  0  0  0  0  0
    2.7574   -0.1524    0.0947 H   0  0  0  0  0  0  0  0  0  0  0  0
   -1.2692    0.9972   -0.4754 H   0  0  0  0  0  0  0  0  0  0  0  0
   -1.3749   -0.0147    0.9700 H   0  0  0  0  0  0  0  0  0  0  0  0
   -1.3610   -0.7611   -0.6323 H   0  0  0  0  0  0  0  0  0  0  0  0
  1  2  3  0
  1  4  1  0
  2  3  1  0
  3  5  1  0
  3  6  1  0
  3  7  1  0
M  END
>  <reaction>  (1) 
rxn_1249

>  <mol_properties>  (1) 
{"2": {"label": "donator", "atom_type": "Cs"}, "4": {"label": "d_hydrogen", "atom_type": "H0"}}

>  <type>  (1) 
r1h

$$$$

     RDKit          3D

 10  9  0  0  0  0  0  0  0  0999 V2000
   -1.2648    0.1959    0.8197 C   0  0  0  0  0  0  0  0  0  0  0  0
   -0.2805    0.0995   -0.3030 C   0  0  0  0  0  3  0  0  0  0  0  0
   -0.0444    1.1347   -1.1797 C   0  0  0  0  0  0  0  0  0  0  0  0
    0.1640    2.0467   -1.9525 C   0  0  0  0  0  0  0  0  0  0  0  0
    0.5686   -1.4168   -0.4488 S   0  0  0  0  0  0  0  0  0  0  0  0
   -2.0466   -0.5638    0.7258 H   0  0  0  0  0  0  0  0  0  0  0  0
   -0.7765    0.0454    1.7871 H   0  0  0  0  0  0  0  0  0  0  0  0
   -1.7371    1.1762    0.8222 H   0  0  0  0  0  0  0  0  0  0  0  0
    0.3433    2.8484   -2.6273 H   0  0  0  0  0  0  0  0  0  0  0  0
    1.3075   -1.0953   -1.5176 H   0  0  0  0  0  0  0  0  0  0  0  0
  1  2  1  0
  1  6  1  0
  1  7  1  0
  1  8  1  0
  2  3  1  0
  2  5  1  0
  3  4  3  0
  4  9  1  0
  5 10  1  0
M  RAD  1   2   2
M  END
>  <reaction>  (2) 
rxn_1249

>  <mol_properties>  (2) 
{"1": {"label": "acceptor", "atom_type": "Cs"}}

>  <type>  (2) 
r2

$$$$

     RDKit          3D

 11 10  0  0  0  0  0  0  0  0999 V2000
   -1.2582   -0.5130    0.2160 C   0  0  0  0  0  0  0  0  0  0  0  0
   -0.1109    0.0509   -0.6210 C   0  0  0  0  0  0  0  0  0  0  0  0
    1.1862   -0.2025   -0.0072 C   0  0  0  0  0  0  0  0  0  0  0  0
    2.2351   -0.4206    0.5274 C   0  0  0  0  0  0  0  0  0  0  0  0
   -0.3298    1.8272   -1.0120 S   0  0  0  0  0  0  0  0  0  0  0  0
   -1.2875   -0.0327    1.1945 H   0  0  0  0  0  0  0  0  0  0  0  0
   -2.2088   -0.3391   -0.2866 H   0  0  0  0  0  0  0  0  0  0  0  0
   -1.1220   -1.5854    0.3655 H   0  0  0  0  0  0  0  0  0  0  0  0
   -0.1222   -0.4181   -1.6078 H   0  0  0  0  0  0  0  0  0  0  0  0
    3.1729   -0.6098    0.9920 H   0  0  0  0  0  0  0  0  0  0  0  0
   -0.1942    2.2663    0.2466 H   0  0  0  0  0  0  0  0  0  0  0  0
  1  2  1  0
  1  6  1  0
  1  7  1  0
  1  8  1  0
  2  3  1  0
  2  5  1  0
  2  9  1  0
  3  4  3  0
  4 10  1  0
  5 11  1  0
M  END
>  <reaction>  (3) 
rxn_1249

>  <mol_properties>  (3) 
{"0": {"label": "a_hydrogen", "atom_type": "H0"}, "2": {"label": "acceptor", "atom_type": "Cs"}}

>  <type>  (3) 
r2h

$$$$

     RDKit          3D

 17 15  0  0  0  0  0  0  0  0999 V2000
    1.3776   -1.6577   -2.5179 C   0  0  0  0  0  0  0  0  0  0  0  0
    0.5605   -1.6530   -1.6327 C   0  0  0  0  0  0  0  0  0  0  0  0
   -0.3662   -1.5873   -0.5684 C   0  0  0  0  0  3  0  0  0  0  0  0
    2.0876   -1.6815   -3.3090 H   0  0  0  0  0  0  0  0  0  0  0  0
   -0.0476   -0.4670    0.1950 H   0  0  0  0  0  0  0  0  0  0  0  0
   -0.2826   -2.3654    0.1858 H   0  0  0  0  0  0  0  0  0  0  0  0
   -1.3894   -1.3495   -0.8469 H   0  0  0  0  0  0  0  0  0  0  0  0
    1.8132    0.6079    0.6866 C   0  0  0  0  0  0  0  0  0  0  0  0
    0.3146    0.5614    0.9085 C   0  0  0  0  0  0  0  0  0  0  0  0
   -0.4306    1.6556    0.3661 C   0  0  0  0  0  0  0  0  0  0  0  0
   -1.0841    2.5299   -0.1342 C   0  0  0  0  0  0  0  0  0  0  0  0
   -0.0826    0.1430    2.6129 S   0  0  0  0  0  0  0  0  0  0  0  0
    2.2610    1.4556    1.2088 H   0  0  0  0  0  0  0  0  0  0  0  0
    2.2769   -0.3123    1.0448 H   0  0  0  0  0  0  0  0  0  0  0  0
    2.0202    0.7027   -0.3792 H   0  0  0  0  0  0  0  0  0  0  0  0
   -1.6518    3.3171   -0.5690 H   0  0  0  0  0  0  0  0  0  0  0  0
   -1.4051    0.3285    2.5155 H   0  0  0  0  0  0  0  0  0  0  0  0
  1  2  3  0
  1  4  1  0
  2  3  1  0
  3  6  1  0
  3  7  1  0
  5  9  1  0
  8  9  1  0
  8 13  1  0
  8 14  1  0
  8 15  1  0
  9 10  1  0
  9 12  1  0
 10 11  3  0
 11 16  1  0
 12 17  1  0
M  RAD  1   3   2
M  END
>  <reaction>  (4) 
rxn_1249

>  <mol_properties>  (4) 
{"1": {"label": "*4", "atom_type": "Ct"}, "2": {"label": "*3", "atom_type": "Cs"}, "4": {"label": "*2", "atom_type": "H0"}, "8": {"label": "*1", "atom_type": "Cs"}, "11": {"label": "*0", "atom_type": "S2s"}}

>  <type>  (4) 
ts

$$$$

     RDKit          3D

 17 15  0  0  0  0  0  0  0  0999 V2000
   -0.4844   -1.8748   -3.0038 C   0  0  0  0  0  0  0  0  0  0  0  0
   -0.4844   -1.8748   -1.8068 C   0  0  0  0  0  0  0  0  0  0  0  0
   -0.4844   -1.8748   -0.3514 C   0  0  0  0  0  0  0  0  0  0  0  0
   -0.4844   -1.8748   -4.0671 H   0  0  0  0  0  0  0  0  0  0  0  0
   -0.3729   -0.6552    0.1111 H   0  0  0  0  0  0  0  0  0  0  0  0
    0.3493   -2.4634    0.0340 H   0  0  0  0  0  0  0  0  0  0  0  0
   -1.4110   -2.3025    0.0340 H   0  0  0  0  0  0  0  0  0  0  0  0
   -1.4864    0.8940    1.4267 C   0  0  0  0  0  0  0  0  0  0  0  0
   -0.2613    0.5664    0.5743 C   0  0  0  0  0  3  0  0  0  0  0  0
    0.7256   -0.2087    1.3150 C   0  0  0  0  0  0  0  0  0  0  0  0
    1.5185   -0.8385    1.9540 C   0  0  0  0  0  0  0  0  0  0  0  0
    0.4899    2.0558   -0.1829 S   0  0  0  0  0  0  0  0  0  0  0  0
   -1.2017    1.5060    2.2831 H   0  0  0  0  0  0  0  0  0  0  0  0
   -2.2187    1.4415    0.8347 H   0  0  0  0  0  0  0  0  0  0  0  0
   -1.9410   -0.0254    1.7995 H   0  0  0  0  0  0  0  0  0  0  0  0
    2.2228   -1.3978    2.5215 H   0  0  0  0  0  0  0  0  0  0  0  0
    0.9058    2.6039    0.9668 H   0  0  0  0  0  0  0  0  0  0  0  0
  1  2  3  0
  1  4  1  0
  2  3  1  0
  3  5  1  0
  3  6  1  0
  3  7  1  0
  8  9  1  0
  8 13  1  0
  8 14  1  0
  8 15  1  0
  9 10  1  0
  9 12  1  0
 10 11  3  0
 11 16  1  0
 12 17  1  0
M  RAD  1   9   2
M  END
>  <reaction>  (5) 
rxn_1249

>  <mol_properties>  (5) 
{"1": {"label": "*4", "atom_type": "Ct"}, "2": {"label": "*3", "atom_type": "Cs"}, "4": {"label": "*2", "atom_type": "H0"}, "8": {"label": "*1", "atom_type": "Cs"}, "11": {"label": "*0", "atom_type": "S2s"}}

>  <type>  (5) 
unop_1

>  <geom_source>  (5) 
Heuristics

$$$$

     RDKit          3D

 17 15  0  0  0  0  0  0  0  0999 V2000
   -0.2515   -1.8599   -3.2216 C   0  0  0  0  0  0  0  0  0  0  0  0
   -0.2515   -1.8599   -2.0245 C   0  0  0  0  0  0  0  0  0  0  0  0
   -0.2515   -1.8599   -0.5691 C   0  0  0  0  0  0  0  0  0  0  0  0
   -0.2515   -1.8599   -4.2849 H   0  0  0  0  0  0  0  0  0  0  0  0
   -0.1401   -0.6404   -0.1067 H   0  0  0  0  0  0  0  0  0  0  0  0
    0.5822   -2.4485   -0.1838 H   0  0  0  0  0  0  0  0  0  0  0  0
   -1.1781   -2.2876   -0.1838 H   0  0  0  0  0  0  0  0  0  0  0  0
   -0.6641    1.5543   -0.6354 C   0  0  0  0  0  0  0  0  0  0  0  0
   -0.0284    0.5813    0.3565 C   0  0  0  0  0  3  0  0  0  0  0  0
   -0.8996    0.3176    1.4945 C   0  0  0  0  0  0  0  0  0  0  0  0
   -1.6363    0.1283    2.4192 C   0  0  0  0  0  0  0  0  0  0  0  0
    1.6375    1.1157    0.8998 S   0  0  0  0  0  0  0  0  0  0  0  0
   -0.8423    2.5197   -0.1607 H   0  0  0  0  0  0  0  0  0  0  0  0
   -0.0046    1.7021   -1.4896 H   0  0  0  0  0  0  0  0  0  0  0  0
   -1.6212    1.1630   -0.9841 H   0  0  0  0  0  0  0  0  0  0  0  0
   -2.2907   -0.0397    3.2405 H   0  0  0  0  0  0  0  0  0  0  0  0
    1.2258    2.1994    1.5714 H   0  0  0  0  0  0  0  0  0  0  0  0
  1  2  3  0
  1  4  1  0
  2  3  1  0
  3  5  1  0
  3  6  1  0
  3  7  1  0
  8  9  1  0
  8 13  1  0
  8 14  1  0
  8 15  1  0
  9 10  1  0
  9 12  1  0
 10 11  3  0
 11 16  1  0
 12 17  1  0
M  RAD  1   9   2
M  END
>  <reaction>  (6) 
rxn_1249

>  <mol_properties>  (6) 
{"1": {"label": "*4", "atom_type": "Ct"}, "2": {"label": "*3", "atom_type": "Cs"}, "4": {"label": "*2", "atom_type": "H0"}, "8": {"label": "*1", "atom_type": "Cs"}, "11": {"label": "*0", "atom_type": "S2s"}}

>  <type>  (6) 
unop_2

>  <geom_source>  (6) 
Heuristics

$$$$

     RDKit          3D

 17 15  0  0  0  0  0  0  0  0999 V2000
   -0.4172   -1.9811   -2.8220 C   0  0  0  0  0  0  0  0  0  0  0  0
   -0.4172   -1.9811   -1.6250 C   0  0  0  0  0  0  0  0  0  0  0  0
   -0.4172   -1.9811   -0.1696 C   0  0  0  0  0  0  0  0  0  0  0  0
   -0.4172   -1.9811   -3.8853 H   0  0  0  0  0  0  0  0  0  0  0  0
   -0.3057   -0.7615    0.2929 H   0  0  0  0  0  0  0  0  0  0  0  0
    0.4165   -2.5697    0.2158 H   0  0  0  0  0  0  0  0  0  0  0  0
   -1.3438   -2.4088    0.2158 H   0  0  0  0  0  0  0  0  0  0  0  0
   -0.9101    0.5538    2.1026 C   0  0  0  0  0  0  0  0  0  0  0  0
   -0.1941    0.4601    0.7561 C   0  0  0  0  0  3  0  0  0  0  0  0
    1.2179    0.1352    0.9119 C   0  0  0  0  0  0  0  0  0  0  0  0
    2.3751   -0.1252    1.0753 C   0  0  0  0  0  0  0  0  0  0  0  0
   -0.4256    1.9587   -0.2717 S   0  0  0  0  0  0  0  0  0  0  0  0
   -0.4807    1.3531    2.7074 H   0  0  0  0  0  0  0  0  0  0  0  0
   -1.9684    0.7618    1.9501 H   0  0  0  0  0  0  0  0  0  0  0  0
   -0.8038   -0.3841    2.6504 H   0  0  0  0  0  0  0  0  0  0  0  0
    3.4029   -0.3565    1.2204 H   0  0  0  0  0  0  0  0  0  0  0  0
    0.2694    2.7836    0.5232 H   0  0  0  0  0  0  0  0  0  0  0  0
  1  2  3  0
  1  4  1  0
  2  3  1  0
  3  5  1  0
  3  6  1  0
  3  7  1  0
  8  9  1  0
  8 13  1  0
  8 14  1  0
  8 15  1  0
  9 10  1  0
  9 12  1  0
 10 11  3  0
 11 16  1  0
 12 17  1  0
M  RAD  1   9   2
M  END
>  <reaction>  (7) 
rxn_1249

>  <mol_properties>  (7) 
{"1": {"label": "*4", "atom_type": "Ct"}, "2": {"label": "*3", "atom_type": "Cs"}, "4": {"label": "*2", "atom_type": "H0"}, "8": {"label": "*1", "atom_type": "Cs"}, "11": {"label": "*0", "atom_type": "S2s"}}

>  <type>  (7) 
unop_3

>  <geom_source>  (7) 
Heuristics

$$$$

     RDKit          3D

 17 15  0  0  0  0  0  0  0  0999 V2000
   -0.0878   -1.7632   -3.2679 C   0  0  0  0  0  0  0  0  0  0  0  0
   -0.0878   -1.7632   -2.0708 C   0  0  0  0  0  0  0  0  0  0  0  0
   -0.0878   -1.7632   -0.6154 C   0  0  0  0  0  0  0  0  0  0  0  0
   -0.0878   -1.7632   -4.3311 H   0  0  0  0  0  0  0  0  0  0  0  0
    0.0237   -0.5436   -0.1530 H   0  0  0  0  0  0  0  0  0  0  0  0
    0.7459   -2.3518   -0.2300 H   0  0  0  0  0  0  0  0  0  0  0  0
   -1.0144   -2.1909   -0.2300 H   0  0  0  0  0  0  0  0  0  0  0  0
    1.4459    1.2858   -0.1875 C   0  0  0  0  0  0  0  0  0  0  0  0
    0.1353    0.6780    0.3102 C   0  0  0  0  0  3  0  0  0  0  0  0
   -0.8808    1.6952    0.5474 C   0  0  0  0  0  0  0  0  0  0  0  0
   -1.6904    2.5563    0.7391 C   0  0  0  0  0  0  0  0  0  0  0  0
    0.3668   -0.3910    1.7798 S   0  0  0  0  0  0  0  0  0  0  0  0
    1.8618    1.9599    0.5619 H   0  0  0  0  0  0  0  0  0  0  0  0
    2.1710    0.4983   -0.3890 H   0  0  0  0  0  0  0  0  0  0  0  0
    1.2719    1.8562   -1.1014 H   0  0  0  0  0  0  0  0  0  0  0  0
   -2.4094    3.3211    0.9094 H   0  0  0  0  0  0  0  0  0  0  0  0
    0.7236    0.5937    2.6155 H   0  0  0  0  0  0  0  0  0  0  0  0
  1  2  3  0
  1  4  1  0
  2  3  1  0
  3  5  1  0
  3  6  1  0
  3  7  1  0
  8  9  1  0
  8 13  1  0
  8 14  1  0
  8 15  1  0
  9 10  1  0
  9 12  1  0
 10 11  3  0
 11 16  1  0
 12 17  1  0
M  RAD  1   9   2
M  END
>  <reaction>  (8) 
rxn_1249

>  <mol_properties>  (8) 
{"1": {"label": "*4", "atom_type": "Ct"}, "2": {"label": "*3", "atom_type": "Cs"}, "4": {"label": "*2", "atom_type": "H0"}, "8": {"label": "*1", "atom_type": "Cs"}, "11": {"label": "*0", "atom_type": "S2s"}}

>  <type>  (8) 
unop_4

>  <geom_source>  (8) 
Heuristics

$$$$

     RDKit          3D

 17 15  0  0  0  0  0  0  0  0999 V2000
   -0.1225   -2.0560   -2.7329 C   0  0  0  0  0  0  0  0  0  0  0  0
   -0.1225   -2.0560   -1.5359 C   0  0  0  0  0  0  0  0  0  0  0  0
   -0.1225   -2.0560   -0.0805 C   0  0  0  0  0  0  0  0  0  0  0  0
   -0.1225   -2.0560   -3.7962 H   0  0  0  0  0  0  0  0  0  0  0  0
   -0.0110   -0.8364    0.3820 H   0  0  0  0  0  0  0  0  0  0  0  0
    0.7112   -2.6446    0.3049 H   0  0  0  0  0  0  0  0  0  0  0  0
   -1.0491   -2.4837    0.3049 H   0  0  0  0  0  0  0  0  0  0  0  0
    0.0969    0.3452    2.3726 C   0  0  0  0  0  0  0  0  0  0  0  0
    0.1006    0.3852    0.8452 C   0  0  0  0  0  3  0  0  0  0  0  0
    1.3295    0.9651    0.3189 C   0  0  0  0  0  0  0  0  0  0  0  0
    2.3476    1.4528   -0.0803 C   0  0  0  0  0  0  0  0  0  0  0  0
   -1.3793    1.2179    0.1578 S   0  0  0  0  0  0  0  0  0  0  0  0
    0.1537    1.3551    2.7801 H   0  0  0  0  0  0  0  0  0  0  0  0
   -0.8171   -0.1253    2.7325 H   0  0  0  0  0  0  0  0  0  0  0  0
    0.9580   -0.2187    2.7354 H   0  0  0  0  0  0  0  0  0  0  0  0
    3.2518    1.8859   -0.4349 H   0  0  0  0  0  0  0  0  0  0  0  0
   -1.0786    2.4406    0.6161 H   0  0  0  0  0  0  0  0  0  0  0  0
  1  2  3  0
  1  4  1  0
  2  3  1  0
  3  5  1  0
  3  6  1  0
  3  7  1  0
  8  9  1  0
  8 13  1  0
  8 14  1  0
  8 15  1  0
  9 10  1  0
  9 12  1  0
 10 11  3  0
 11 16  1  0
 12 17  1  0
M  RAD  1   9   2
M  END
>  <reaction>  (9) 
rxn_1249

>  <mol_properties>  (9) 
{"1": {"label": "*4", "atom_type": "Ct"}, "2": {"label": "*3", "atom_type": "Cs"}, "4": {"label": "*2", "atom_type": "H0"}, "8": {"label": "*1", "atom_type": "Cs"}, "11": {"label": "*0", "atom_type": "S2s"}}

>  <type>  (9) 
unop_5

>  <geom_source>  (9) 
Heuristics

$$$$

     RDKit          3D

 17 15  0  0  0  0  0  0  0  0999 V2000
    0.0620   -1.7626   -3.2121 C   0  0  0  0  0  0  0  0  0  0  0  0
    0.0620   -1.7626   -2.0151 C   0  0  0  0  0  0  0  0  0  0  0  0
    0.0620   -1.7626   -0.5597 C   0  0  0  0  0  0  0  0  0  0  0  0
    0.0620   -1.7626   -4.2754 H   0  0  0  0  0  0  0  0  0  0  0  0
    0.1735   -0.5431   -0.0972 H   0  0  0  0  0  0  0  0  0  0  0  0
    0.8957   -2.3512   -0.1743 H   0  0  0  0  0  0  0  0  0  0  0  0
   -0.8646   -2.1903   -0.1743 H   0  0  0  0  0  0  0  0  0  0  0  0
    1.7650    1.0149    0.5433 C   0  0  0  0  0  0  0  0  0  0  0  0
    0.2851    0.6785    0.3660 C   0  0  0  0  0  3  0  0  0  0  0  0
   -0.5375    1.8773    0.2680 C   0  0  0  0  0  0  0  0  0  0  0  0
   -1.1852    2.8820    0.1984 C   0  0  0  0  0  0  0  0  0  0  0  0
   -0.3401   -0.4572    1.6602 S   0  0  0  0  0  0  0  0  0  0  0  0
    1.9217    1.5660    1.4711 H   0  0  0  0  0  0  0  0  0  0  0  0
    2.3554    0.1001    0.5770 H   0  0  0  0  0  0  0  0  0  0  0  0
    2.1109    1.6351   -0.2853 H   0  0  0  0  0  0  0  0  0  0  0  0
   -1.7605    3.7743    0.1366 H   0  0  0  0  0  0  0  0  0  0  0  0
   -0.2191    0.4072    2.6767 H   0  0  0  0  0  0  0  0  0  0  0  0
  1  2  3  0
  1  4  1  0
  2  3  1  0
  3  5  1  0
  3  6  1  0
  3  7  1  0
  8  9  1  0
  8 13  1  0
  8 14  1  0
  8 15  1  0
  9 10  1  0
  9 12  1  0
 10 11  3  0
 11 16  1  0
 12 17  1  0
M  RAD  1   9   2
M  END
>  <reaction>  (10) 
rxn_1249

>  <mol_properties>  (10) 
{"1": {"label": "*4", "atom_type": "Ct"}, "2": {"label": "*3", "atom_type": "Cs"}, "4": {"label": "*2", "atom_type": "H0"}, "8": {"label": "*1", "atom_type": "Cs"}, "11": {"label": "*0", "atom_type": "S2s"}}

>  <type>  (10) 
unop_6

>  <geom_source>  (10) 
Heuristics

$$$$

     RDKit          3D

 17 15  0  0  0  0  0  0  0  0999 V2000
    0.1737   -1.8265   -3.0713 C   0  0  0  0  0  0  0  0  0  0  0  0
    0.1737   -1.8265   -1.8742 C   0  0  0  0  0  0  0  0  0  0  0  0
    0.1737   -1.8265   -0.4188 C   0  0  0  0  0  0  0  0  0  0  0  0
    0.1737   -1.8265   -4.1345 H   0  0  0  0  0  0  0  0  0  0  0  0
    0.2851   -0.6069    0.0436 H   0  0  0  0  0  0  0  0  0  0  0  0
    1.0074   -2.4151   -0.0334 H   0  0  0  0  0  0  0  0  0  0  0  0
   -0.7529   -2.2542   -0.0334 H   0  0  0  0  0  0  0  0  0  0  0  0
    1.6609    0.7148    1.3592 C   0  0  0  0  0  0  0  0  0  0  0  0
    0.3968    0.6147    0.5068 C   0  0  0  0  0  3  0  0  0  0  0  0
   -0.0461    1.9203    0.0349 C   0  0  0  0  0  0  0  0  0  0  0  0
   -0.3870    3.0085   -0.3301 C   0  0  0  0  0  0  0  0  0  0  0  0
   -0.9561   -0.2839    1.3543 S   0  0  0  0  0  0  0  0  0  0  0  0
    1.4717    1.3112    2.2523 H   0  0  0  0  0  0  0  0  0  0  0  0
    1.9855   -0.2788    1.6655 H   0  0  0  0  0  0  0  0  0  0  0  0
    2.4598    1.1942    0.7910 H   0  0  0  0  0  0  0  0  0  0  0  0
   -0.6897    3.9751   -0.6542 H   0  0  0  0  0  0  0  0  0  0  0  0
   -1.1584    0.6339    2.3092 H   0  0  0  0  0  0  0  0  0  0  0  0
  1  2  3  0
  1  4  1  0
  2  3  1  0
  3  5  1  0
  3  6  1  0
  3  7  1  0
  8  9  1  0
  8 13  1  0
  8 14  1  0
  8 15  1  0
  9 10  1  0
  9 12  1  0
 10 11  3  0
 11 16  1  0
 12 17  1  0
M  RAD  1   9   2
M  END
>  <reaction>  (11) 
rxn_1249

>  <mol_properties>  (11) 
{"1": {"label": "*4", "atom_type": "Ct"}, "2": {"label": "*3", "atom_type": "Cs"}, "4": {"label": "*2", "atom_type": "H0"}, "8": {"label": "*1", "atom_type": "Cs"}, "11": {"label": "*0", "atom_type": "S2s"}}

>  <type>  (11) 
unop_7

>  <geom_source>  (11) 
Heuristics

$$$$

     RDKit          3D

 17 15  0  0  0  0  0  0  0  0999 V2000
   -0.4171   -1.8274   -3.1446 C   0  0  0  0  0  0  0  0  0  0  0  0
   -0.4171   -1.8274   -1.9476 C   0  0  0  0  0  0  0  0  0  0  0  0
   -0.4171   -1.8274   -0.4922 C   0  0  0  0  0  0  0  0  0  0  0  0
   -0.4171   -1.8274   -4.2079 H   0  0  0  0  0  0  0  0  0  0  0  0
   -0.3057   -0.6078   -0.0297 H   0  0  0  0  0  0  0  0  0  0  0  0
    0.4166   -2.4160   -0.1068 H   0  0  0  0  0  0  0  0  0  0  0  0
   -1.3437   -2.2551   -0.1068 H   0  0  0  0  0  0  0  0  0  0  0  0
   -1.5884    1.2128    0.6108 C   0  0  0  0  0  0  0  0  0  0  0  0
   -0.1940    0.6138    0.4335 C   0  0  0  0  0  3  0  0  0  0  0  0
    0.1740   -0.2481    1.5494 C   0  0  0  0  0  0  0  0  0  0  0  0
    0.4481   -0.9436    2.4847 C   0  0  0  0  0  0  0  0  0  0  0  0
    1.0860    1.8866    0.1216 S   0  0  0  0  0  0  0  0  0  0  0  0
   -1.6227    1.8404    1.5019 H   0  0  0  0  0  0  0  0  0  0  0  0
   -1.8472    1.8215   -0.2547 H   0  0  0  0  0  0  0  0  0  0  0  0
   -2.3270    0.4175    0.7242 H   0  0  0  0  0  0  0  0  0  0  0  0
    0.6916   -1.5614    3.3154 H   0  0  0  0  0  0  0  0  0  0  0  0
    1.0180    2.4548    1.3331 H   0  0  0  0  0  0  0  0  0  0  0  0
  1  2  3  0
  1  4  1  0
  2  3  1  0
  3  5  1  0
  3  6  1  0
  3  7  1  0
  8  9  1  0
  8 13  1  0
  8 14  1  0
  8 15  1  0
  9 10  1  0
  9 12  1  0
 10 11  3  0
 11 16  1  0
 12 17  1  0
M  RAD  1   9   2
M  END
>  <reaction>  (12) 
rxn_1249

>  <mol_properties>  (12) 
{"1": {"label": "*4", "atom_type": "Ct"}, "2": {"label": "*3", "atom_type": "Cs"}, "4": {"label": "*2", "atom_type": "H0"}, "8": {"label": "*1", "atom_type": "Cs"}, "11": {"label": "*0", "atom_type": "S2s"}}

>  <type>  (12) 
unop_8

>  <geom_source>  (12) 
Heuristics

$$$$

     RDKit          3D

 17 15  0  0  0  0  0  0  0  0999 V2000
   -0.1983   -1.8109   -3.2551 C   0  0  0  0  0  0  0  0  0  0  0  0
   -0.1983   -1.8109   -2.0581 C   0  0  0  0  0  0  0  0  0  0  0  0
   -0.1983   -1.8109   -0.6026 C   0  0  0  0  0  0  0  0  0  0  0  0
   -0.1983   -1.8109   -4.3184 H   0  0  0  0  0  0  0  0  0  0  0  0
   -0.0868   -0.5913   -0.1402 H   0  0  0  0  0  0  0  0  0  0  0  0
    0.6354   -2.3995   -0.2173 H   0  0  0  0  0  0  0  0  0  0  0  0
   -1.1249   -2.2386   -0.2173 H   0  0  0  0  0  0  0  0  0  0  0  0
    0.8263    1.4720   -0.6689 C   0  0  0  0  0  0  0  0  0  0  0  0
    0.0248    0.6303    0.3230 C   0  0  0  0  0  3  0  0  0  0  0  0
   -1.1170    1.3605    0.8583 C   0  0  0  0  0  0  0  0  0  0  0  0
   -2.0417    1.9907    1.2840 C   0  0  0  0  0  0  0  0  0  0  0  0
    1.0647   -0.0604    1.6637 S   0  0  0  0  0  0  0  0  0  0  0  0
    1.2356    2.3544   -0.1760 H   0  0  0  0  0  0  0  0  0  0  0  0
    1.6496    0.8869   -1.0767 H   0  0  0  0  0  0  0  0  0  0  0  0
    0.1829    1.8041   -1.4853 H   0  0  0  0  0  0  0  0  0  0  0  0
   -2.8631    2.5505    1.6622 H   0  0  0  0  0  0  0  0  0  0  0  0
    1.3526    1.1151    2.2386 H   0  0  0  0  0  0  0  0  0  0  0  0
  1  2  3  0
  1  4  1  0
  2  3  1  0
  3  5  1  0
  3  6  1  0
  3  7  1  0
  8  9  1  0
  8 13  1  0
  8 14  1  0
  8 15  1  0
  9 10  1  0
  9 12  1  0
 10 11  3  0
 11 16  1  0
 12 17  1  0
M  RAD  1   9   2
M  END
>  <reaction>  (13) 
rxn_1249

>  <mol_properties>  (13) 
{"1": {"label": "*4", "atom_type": "Ct"}, "2": {"label": "*3", "atom_type": "Cs"}, "4": {"label": "*2", "atom_type": "H0"}, "8": {"label": "*1", "atom_type": "Cs"}, "11": {"label": "*0", "atom_type": "S2s"}}

>  <type>  (13) 
unop_9

>  <geom_source>  (13) 
Heuristics

$$$$

     RDKit          3D

 17 15  0  0  0  0  0  0  0  0999 V2000
   -0.3161   -1.8331   -3.2114 C   0  0  0  0  0  0  0  0  0  0  0  0
   -0.3161   -1.8331   -2.0144 C   0  0  0  0  0  0  0  0  0  0  0  0
   -0.3161   -1.8331   -0.5590 C   0  0  0  0  0  0  0  0  0  0  0  0
   -0.3161   -1.8331   -4.2747 H   0  0  0  0  0  0  0  0  0  0  0  0
   -0.2046   -0.6135   -0.0965 H   0  0  0  0  0  0  0  0  0  0  0  0
    0.5176   -2.4217   -0.1736 H   0  0  0  0  0  0  0  0  0  0  0  0
   -1.2427   -2.2608   -0.1736 H   0  0  0  0  0  0  0  0  0  0  0  0
   -1.2717    1.4434   -0.1310 C   0  0  0  0  0  0  0  0  0  0  0  0
   -0.0930    0.6081    0.3667 C   0  0  0  0  0  3  0  0  0  0  0  0
   -0.3981   -0.0719    1.6188 C   0  0  0  0  0  0  0  0  0  0  0  0
   -0.6785   -0.6104    2.6509 C   0  0  0  0  0  0  0  0  0  0  0  0
    1.4556    1.5785    0.4932 S   0  0  0  0  0  0  0  0  0  0  0  0
   -1.5134    2.2270    0.5877 H   0  0  0  0  0  0  0  0  0  0  0  0
   -1.0246    1.9086   -1.0845 H   0  0  0  0  0  0  0  0  0  0  0  0
   -2.1526    0.8117   -0.2573 H   0  0  0  0  0  0  0  0  0  0  0  0
   -0.9275   -1.0886    3.5675 H   0  0  0  0  0  0  0  0  0  0  0  0
    1.0441    2.3711    1.4920 H   0  0  0  0  0  0  0  0  0  0  0  0
  1  2  3  0
  1  4  1  0
  2  3  1  0
  3  5  1  0
  3  6  1  0
  3  7  1  0
  8  9  1  0
  8 13  1  0
  8 14  1  0
  8 15  1  0
  9 10  1  0
  9 12  1  0
 10 11  3  0
 11 16  1  0
 12 17  1  0
M  RAD  1   9   2
M  END
>  <reaction>  (14) 
rxn_1249

>  <mol_properties>  (14) 
{"1": {"label": "*4", "atom_type": "Ct"}, "2": {"label": "*3", "atom_type": "Cs"}, "4": {"label": "*2", "atom_type": "H0"}, "8": {"label": "*1", "atom_type": "Cs"}, "11": {"label": "*0", "atom_type": "S2s"}}

>  <type>  (14) 
unop_10

>  <geom_source>  (14) 
Heuristics

$$$$

     RDKit          3D

 17 15  0  0  0  0  0  0  0  0999 V2000
    0.1480   -1.9525   -2.8719 C   0  0  0  0  0  0  0  0  0  0  0  0
    0.1480   -1.9525   -1.6749 C   0  0  0  0  0  0  0  0  0  0  0  0
    0.1480   -1.9525   -0.2195 C   0  0  0  0  0  0  0  0  0  0  0  0
    0.1480   -1.9525   -3.9352 H   0  0  0  0  0  0  0  0  0  0  0  0
    0.2595   -0.7330    0.2430 H   0  0  0  0  0  0  0  0  0  0  0  0
    0.9817   -2.5411    0.1659 H   0  0  0  0  0  0  0  0  0  0  0  0
   -0.7786   -2.3802    0.1659 H   0  0  0  0  0  0  0  0  0  0  0  0
    1.0923    0.4510    2.0527 C   0  0  0  0  0  0  0  0  0  0  0  0
    0.3711    0.4887    0.7062 C   0  0  0  0  0  3  0  0  0  0  0  0
    0.6655    1.7083   -0.0349 C   0  0  0  0  0  0  0  0  0  0  0  0
    0.9224    2.7243   -0.6142 C   0  0  0  0  0  0  0  0  0  0  0  0
   -1.4344    0.2226    0.8652 S   0  0  0  0  0  0  0  0  0  0  0  0
    0.7622    1.2761    2.6846 H   0  0  0  0  0  0  0  0  0  0  0  0
    0.8804   -0.4868    2.5647 H   0  0  0  0  0  0  0  0  0  0  0  0
    2.1694    0.5437    1.9044 H   0  0  0  0  0  0  0  0  0  0  0  0
    1.1505    3.6266   -1.1286 H   0  0  0  0  0  0  0  0  0  0  0  0
   -1.6885    1.3659    1.5161 H   0  0  0  0  0  0  0  0  0  0  0  0
  1  2  3  0
  1  4  1  0
  2  3  1  0
  3  5  1  0
  3  6  1  0
  3  7  1  0
  8  9  1  0
  8 13  1  0
  8 14  1  0
  8 15  1  0
  9 10  1  0
  9 12  1  0
 10 11  3  0
 11 16  1  0
 12 17  1  0
M  RAD  1   9   2
M  END
>  <reaction>  (15) 
rxn_1249

>  <mol_properties>  (15) 
{"1": {"label": "*4", "atom_type": "Ct"}, "2": {"label": "*3", "atom_type": "Cs"}, "4": {"label": "*2", "atom_type": "H0"}, "8": {"label": "*1", "atom_type": "Cs"}, "11": {"label": "*0", "atom_type": "S2s"}}

>  <type>  (15) 
unop_11

>  <geom_source>  (15) 
Heuristics

$$$$

     RDKit          3D

 17 15  0  0  0  0  0  0  0  0999 V2000
   -0.2353   -1.8585   -3.2266 C   0  0  0  0  0  0  0  0  0  0  0  0
   -0.2353   -1.8585   -2.0295 C   0  0  0  0  0  0  0  0  0  0  0  0
   -0.2353   -1.8585   -0.5741 C   0  0  0  0  0  0  0  0  0  0  0  0
   -0.2353   -1.8585   -4.2898 H   0  0  0  0  0  0  0  0  0  0  0  0
   -0.1238   -0.6389   -0.1117 H   0  0  0  0  0  0  0  0  0  0  0  0
    0.5985   -2.4471   -0.1887 H   0  0  0  0  0  0  0  0  0  0  0  0
   -1.1618   -2.2862   -0.1887 H   0  0  0  0  0  0  0  0  0  0  0  0
    0.0770    1.5581   -0.8212 C   0  0  0  0  0  0  0  0  0  0  0  0
   -0.0121    0.5827    0.3515 C   0  0  0  0  0  3  0  0  0  0  0  0
   -1.1629    0.8580    1.2021 C   0  0  0  0  0  0  0  0  0  0  0  0
   -2.1129    1.1156    1.8839 C   0  0  0  0  0  0  0  0  0  0  0  0
    1.5370    0.5083    1.3264 S   0  0  0  0  0  0  0  0  0  0  0  0
    0.2058    2.5784   -0.4589 H   0  0  0  0  0  0  0  0  0  0  0  0
    0.9248    1.3037   -1.4560 H   0  0  0  0  0  0  0  0  0  0  0  0
   -0.8392    1.5185   -1.4129 H   0  0  0  0  0  0  0  0  0  0  0  0
   -2.9566    1.3444    2.4895 H   0  0  0  0  0  0  0  0  0  0  0  0
    1.4623    1.7574    1.8053 H   0  0  0  0  0  0  0  0  0  0  0  0
  1  2  3  0
  1  4  1  0
  2  3  1  0
  3  5  1  0
  3  6  1  0
  3  7  1  0
  8  9  1  0
  8 13  1  0
  8 14  1  0
  8 15  1  0
  9 10  1  0
  9 12  1  0
 10 11  3  0
 11 16  1  0
 12 17  1  0
M  RAD  1   9   2
M  END
>  <reaction>  (16) 
rxn_1249

>  <mol_properties>  (16) 
{"1": {"label": "*4", "atom_type": "Ct"}, "2": {"label": "*3", "atom_type": "Cs"}, "4": {"label": "*2", "atom_type": "H0"}, "8": {"label": "*1", "atom_type": "Cs"}, "11": {"label": "*0", "atom_type": "S2s"}}

>  <type>  (16) 
unop_12

>  <geom_source>  (16) 
Heuristics

$$$$

     RDKit          3D

 17 15  0  0  0  0  0  0  0  0999 V2000
   -0.0255   -0.9271   -1.6951 S   0  0  0  0  0  0  0  0  0  0  0  0
   -0.7896   -0.0248   -0.3118 C   0  0  0  0  0  3  0  0  0  0  0  0
   -2.1695   -0.5973   -0.0022 C   0  0  0  0  0  0  0  0  0  0  0  0
    1.1774   -0.4680    1.3397 C   0  0  0  0  0  0  0  0  0  0  0  0
   -0.8946    1.3955   -0.6646 C   0  0  0  0  0  0  0  0  0  0  0  0
    2.3336   -0.1244    0.5115 C   0  0  0  0  0  0  0  0  0  0  0  0
   -0.9804    2.5631   -0.9531 C   0  0  0  0  0  0  0  0  0  0  0  0
    3.2860    0.1587   -0.1710 C   0  0  0  0  0  0  0  0  0  0  0  0
    0.0006   -0.1453    0.7851 H   0  0  0  0  0  0  0  0  0  0  0  0
   -2.6295   -0.0460    0.8456 H   0  0  0  0  0  0  0  0  0  0  0  0
   -2.8348   -0.5208   -0.8894 H   0  0  0  0  0  0  0  0  0  0  0  0
   -2.0778   -1.6650    0.2880 H   0  0  0  0  0  0  0  0  0  0  0  0
    1.1684   -1.5614    1.5276 H   0  0  0  0  0  0  0  0  0  0  0  0
    1.2406    0.0728    2.3064 H   0  0  0  0  0  0  0  0  0  0  0  0
    0.1290   -2.1053   -0.9399 H   0  0  0  0  0  0  0  0  0  0  0  0
   -1.0558    3.5878   -1.2065 H   0  0  0  0  0  0  0  0  0  0  0  0
    4.1221    0.4073   -0.7702 H   0  0  0  0  0  0  0  0  0  0  0  0
  1  2  1  0
  1 15  1  0
  2  3  1  0
  2  5  1  0
  3 10  1  0
  3 11  1  0
  3 12  1  0
  4  6  1  0
  4  9  1  0
  4 13  1  0
  4 14  1  0
  5  7  3  0
  6  8  3  0
  7 16  1  0
  8 17  1  0
M  RAD  1   2   2
M  END
>  <reaction>  (17) 
rxn_1249

>  <mol_properties>  (17) 
{"1": {"label": "*4", "atom_type": "Ct"}, "2": {"label": "*3", "atom_type": "Cs"}, "4": {"label": "*2", "atom_type": "H0"}, "8": {"label": "*1", "atom_type": "Cs"}, "11": {"label": "*0", "atom_type": "S2s"}}

>  <type>  (17) 
unop_13

>  <geom_source>  (17) 
AutoTST

$$$$

     RDKit          3D

 17 15  0  0  0  0  0  0  0  0999 V2000
   -0.2515   -1.8599   -3.2216 C   0  0  0  0  0  0  0  0  0  0  0  0
   -0.2515   -1.8599   -2.0245 C   0  0  0  0  0  0  0  0  0  0  0  0
   -0.2515   -1.8599   -0.5691 C   0  0  0  0  0  0  0  0  0  0  0  0
   -0.2515   -1.8599   -4.2849 H   0  0  0  0  0  0  0  0  0  0  0  0
   -0.1401   -0.6404   -0.1067 H   0  0  0  0  0  0  0  0  0  0  0  0
    0.5822   -2.4485   -0.1837 H   0  0  0  0  0  0  0  0  0  0  0  0
   -1.1781   -2.2876   -0.1837 H   0  0  0  0  0  0  0  0  0  0  0  0
   -0.6641    1.5543   -0.6354 C   0  0  0  0  0  0  0  0  0  0  0  0
   -0.0284    0.5813    0.3565 C   0  0  0  0  0  3  0  0  0  0  0  0
   -0.8996    0.3176    1.4945 C   0  0  0  0  0  0  0  0  0  0  0  0
   -1.6363    0.1283    2.4192 C   0  0  0  0  0  0  0  0  0  0  0  0
    1.6375    1.1157    0.8998 S   0  0  0  0  0  0  0  0  0  0  0  0
   -0.8423    2.5197   -0.1607 H   0  0  0  0  0  0  0  0  0  0  0  0
   -0.0046    1.7021   -1.4896 H   0  0  0  0  0  0  0  0  0  0  0  0
   -1.6213    1.1630   -0.9841 H   0  0  0  0  0  0  0  0  0  0  0  0
   -2.2907   -0.0397    3.2405 H   0  0  0  0  0  0  0  0  0  0  0  0
    1.2257    2.1994    1.5714 H   0  0  0  0  0  0  0  0  0  0  0  0
  1  2  3  0
  1  4  1  0
  2  3  1  0
  3  5  1  0
  3  6  1  0
  3  7  1  0
  8  9  1  0
  8 13  1  0
  8 14  1  0
  8 15  1  0
  9 10  1  0
  9 12  1  0
 10 11  3  0
 11 16  1  0
 12 17  1  0
M  RAD  1   9   2
M  END
>  <reaction>  (18) 
rxn_1249

>  <mol_properties>  (18) 
{"1": {"label": "*4", "atom_type": "Ct"}, "2": {"label": "*3", "atom_type": "Cs"}, "4": {"label": "*2", "atom_type": "H0"}, "8": {"label": "*1", "atom_type": "Cs"}, "11": {"label": "*0", "atom_type": "S2s"}}

>  <type>  (18) 
unop_14

>  <geom_source>  (18) 
gaussian_log

$$$$
