
     RDKit          3D

 15 15  0  0  0  0  0  0  0  0999 V2000
    2.2031   -0.2111   -0.1693 C   0  0  0  0  0  0  0  0  0  0  0  0
    0.7140   -0.0314   -0.0623 C   0  0  0  0  0  0  0  0  0  0  0  0
   -0.0114    0.5491   -1.0982 C   0  0  0  0  0  0  0  0  0  0  0  0
   -1.3882    0.6886   -1.0150 C   0  0  0  0  0  0  0  0  0  0  0  0
   -2.0661    0.2493    0.1118 C   0  0  0  0  0  0  0  0  0  0  0  0
   -1.3551   -0.3278    1.1528 C   0  0  0  0  0  0  0  0  0  0  0  0
    0.0216   -0.4648    1.0642 C   0  0  0  0  0  0  0  0  0  0  0  0
    2.6776   -0.1836    0.8122 H   0  0  0  0  0  0  0  0  0  0  0  0
    2.4446   -1.1749   -0.6249 H   0  0  0  0  0  0  0  0  0  0  0  0
    2.6532    0.5664   -0.7875 H   0  0  0  0  0  0  0  0  0  0  0  0
    0.5104    0.8989   -1.9819 H   0  0  0  0  0  0  0  0  0  0  0  0
   -1.9328    1.1452   -1.8322 H   0  0  0  0  0  0  0  0  0  0  0  0
   -3.1409    0.3597    0.1800 H   0  0  0  0  0  0  0  0  0  0  0  0
   -1.8736   -0.6702    2.0398 H   0  0  0  0  0  0  0  0  0  0  0  0
    0.5695   -0.9141    1.8849 H   0  0  0  0  0  0  0  0  0  0  0  0
  1  2  1  0
  1  8  1  0
  1  9  1  0
  1 10  1  0
  2  3  2  0
  2  7  1  0
  3  4  1  0
  3 11  1  0
  4  5  2  0
  4 12  1  0
  5  6  1  0
  5 13  1  0
  6  7  2  0
  6 14  1  0
  7 15  1  0
M  END
>  <reaction>  (1) 
rxn_1476

>  <mol_properties>  (1) 
{"0": {"label": "donator", "atom_type": "Cs"}, "7": {"label": "d_hydrogen", "atom_type": "H0"}}

>  <type>  (1) 
r1h

$$$$

     RDKit          3D

  5  4  0  0  0  0  0  0  0  0999 V2000
    2.6313   -0.6921   -0.0583 S   0  0  0  0  0  0  0  0  0  0  0  0
    1.1354   -0.3285    0.0803 C   0  0  0  0  0  3  0  0  0  0  0  0
   -0.1320    0.0261    0.1834 C   0  0  0  0  0  0  0  0  0  0  0  0
   -1.3118    0.3357    0.2856 C   0  0  0  0  0  0  0  0  0  0  0  0
   -2.3230    0.6587    0.3557 H   0  0  0  0  0  0  0  0  0  0  0  0
  1  2  2  0
  2  3  1  0
  3  4  3  0
  4  5  1  0
M  RAD  1   2   2
M  END
>  <reaction>  (2) 
rxn_1476

>  <mol_properties>  (2) 
{"1": {"label": "acceptor", "atom_type": "CS"}}

>  <type>  (2) 
r2

$$$$

     RDKit          3D

  6  5  0  0  0  0  0  0  0  0999 V2000
   -1.9761    1.0978   -0.6585 S   0  0  0  0  0  0  0  0  0  0  0  0
   -1.0502    0.0275    0.1158 C   0  0  0  0  0  0  0  0  0  0  0  0
    0.3587   -0.0566   -0.0000 C   0  0  0  0  0  0  0  0  0  0  0  0
    1.5530   -0.1477   -0.0815 C   0  0  0  0  0  0  0  0  0  0  0  0
   -1.4972   -0.7045    0.7881 H   0  0  0  0  0  0  0  0  0  0  0  0
    2.6118   -0.2165   -0.1639 H   0  0  0  0  0  0  0  0  0  0  0  0
  1  2  2  0
  2  3  1  0
  2  5  1  0
  3  4  3  0
  4  6  1  0
M  END
>  <reaction>  (3) 
rxn_1476

>  <mol_properties>  (3) 
{"1": {"label": "acceptor", "atom_type": "CS"}, "5": {"label": "a_hydrogen", "atom_type": "H0"}}

>  <type>  (3) 
r2h

$$$$

     RDKit          3D

 20 19  0  0  0  0  0  0  0  0999 V2000
   -1.0784   -0.9912    3.3234 S   0  0  0  0  0  0  0  0  0  0  0  0
   -0.8426   -0.6865    1.7784 C   0  0  0  0  0  0  0  0  0  0  0  0
   -1.4773   -1.1399    0.6233 C   0  0  0  0  0  0  0  0  0  0  0  0
   -1.9323   -1.4481   -0.4484 C   0  0  0  0  0  0  0  0  0  0  0  0
   -2.3430   -1.7281   -1.3893 H   0  0  0  0  0  0  0  0  0  0  0  0
    1.0967    0.9999    0.9443 C   0  0  0  0  0  0  0  0  0  0  0  0
    0.9473    0.9744   -0.5034 C   0  0  0  0  0  0  0  0  0  0  0  0
    0.0707    1.8526   -1.1515 C   0  0  0  0  0  3  0  0  0  0  0  0
   -0.1311    1.7768   -2.5173 C   0  0  0  0  0  0  0  0  0  0  0  0
    0.5352    0.8193   -3.2705 C   0  0  0  0  0  0  0  0  0  0  0  0
    1.4103   -0.0582   -2.6440 C   0  0  0  0  0  0  0  0  0  0  0  0
    1.6126    0.0169   -1.2782 C   0  0  0  0  0  0  0  0  0  0  0  0
    0.1289    0.1544    1.4177 H   0  0  0  0  0  0  0  0  0  0  0  0
    1.9907    0.5342    1.3504 H   0  0  0  0  0  0  0  0  0  0  0  0
    0.8232    1.9242    1.4463 H   0  0  0  0  0  0  0  0  0  0  0  0
   -0.4567    2.5987   -0.5684 H   0  0  0  0  0  0  0  0  0  0  0  0
   -0.8113    2.4679   -2.9995 H   0  0  0  0  0  0  0  0  0  0  0  0
    0.3785    0.7614   -4.3401 H   0  0  0  0  0  0  0  0  0  0  0  0
    1.9374   -0.8045   -3.2253 H   0  0  0  0  0  0  0  0  0  0  0  0
    2.2928   -0.6745   -0.7944 H   0  0  0  0  0  0  0  0  0  0  0  0
  1  2  2  0
  2  3  1  0
  2 13  1  0
  3  4  3  0
  4  5  1  0
  6  7  2  3
  6 14  1  0
  6 15  1  0
  7  8  1  0
  7 12  1  0
  8  9  1  0
  8 16  1  0
  9 10  2  0
  9 17  1  0
 10 11  1  0
 10 18  1  0
 11 12  2  0
 11 19  1  0
 12 20  1  0
M  RAD  1   8   2
M  END
>  <reaction>  (4) 
rxn_1476

>  <mol_properties>  (4) 
{"0": {"label": "*0", "atom_type": "S2d"}, "1": {"label": "*1", "atom_type": "CS"}, "5": {"label": "*3", "atom_type": "Cd"}, "6": {"label": "*4", "atom_type": "Cd"}, "12": {"label": "*2", "atom_type": "H0"}}

>  <type>  (4) 
ts

$$$$

     RDKit          3D

 20 19  0  0  0  0  0  0  0  0999 V2000
    0.2601   -2.1496    2.6452 S   0  0  0  0  0  0  0  0  0  0  0  0
   -0.5483   -1.1221    1.7001 C   0  0  0  0  0  0  0  0  0  0  0  0
   -1.8618   -0.6554    1.9504 C   0  0  0  0  0  0  0  0  0  0  0  0
   -2.9740   -0.2457    2.1409 C   0  0  0  0  0  0  0  0  0  0  0  0
   -3.9600    0.1175    2.3097 H   0  0  0  0  0  0  0  0  0  0  0  0
    0.6311    1.0106    0.7483 C   0  0  0  0  0  0  0  0  0  0  0  0
    0.6311    1.0106   -0.7555 C   0  0  0  0  0  0  0  0  0  0  0  0
    0.6311    2.2050   -1.4695 C   0  0  0  0  0  3  0  0  0  0  0  0
    0.6615    2.2083   -2.8555 C   0  0  0  0  0  0  0  0  0  0  0  0
    0.6911    1.0113   -3.5545 C   0  0  0  0  0  0  0  0  0  0  0  0
    0.6879   -0.1861   -2.8555 C   0  0  0  0  0  0  0  0  0  0  0  0
    0.6574   -0.1834   -1.4695 C   0  0  0  0  0  0  0  0  0  0  0  0
    0.0412   -0.0561    1.2243 H   0  0  0  0  0  0  0  0  0  0  0  0
    1.6533    1.0219    1.1350 H   0  0  0  0  0  0  0  0  0  0  0  0
    0.1201    1.8885    1.1450 H   0  0  0  0  0  0  0  0  0  0  0  0
    0.6045    3.1460   -0.9317 H   0  0  0  0  0  0  0  0  0  0  0  0
    0.6589    3.1495   -3.3912 H   0  0  0  0  0  0  0  0  0  0  0  0
    0.7122    1.0115   -4.6369 H   0  0  0  0  0  0  0  0  0  0  0  0
    0.7060   -1.1271   -3.3912 H   0  0  0  0  0  0  0  0  0  0  0  0
    0.6516   -1.1249   -0.9317 H   0  0  0  0  0  0  0  0  0  0  0  0
  1  2  2  0
  2  3  1  0
  2 13  1  0
  3  4  3  0
  4  5  1  0
  6  7  2  3
  6 14  1  0
  6 15  1  0
  7  8  1  0
  7 12  1  0
  8  9  1  0
  8 16  1  0
  9 10  2  0
  9 17  1  0
 10 11  1  0
 10 18  1  0
 11 12  2  0
 11 19  1  0
 12 20  1  0
M  RAD  1   8   2
M  END
>  <reaction>  (5) 
rxn_1476

>  <mol_properties>  (5) 
{"0": {"label": "*0", "atom_type": "S2d"}, "1": {"label": "*1", "atom_type": "CS"}, "5": {"label": "*3", "atom_type": "Cd"}, "6": {"label": "*4", "atom_type": "Cd"}, "12": {"label": "*2", "atom_type": "H0"}}

>  <type>  (5) 
unop_1

>  <geom_source>  (5) 
Heuristics

$$$$

     RDKit          3D

 20 19  0  0  0  0  0  0  0  0999 V2000
   -0.5955   -2.3576    0.9672 S   0  0  0  0  0  0  0  0  0  0  0  0
   -0.6239   -0.9716    1.7921 C   0  0  0  0  0  0  0  0  0  0  0  0
   -0.9294   -0.8566    3.1702 C   0  0  0  0  0  0  0  0  0  0  0  0
   -1.1850   -0.7335    4.3367 C   0  0  0  0  0  0  0  0  0  0  0  0
   -1.4116   -0.6244    5.3708 H   0  0  0  0  0  0  0  0  0  0  0  0
    0.5555    1.1612    0.8403 C   0  0  0  0  0  0  0  0  0  0  0  0
    0.5555    1.1612   -0.6634 C   0  0  0  0  0  0  0  0  0  0  0  0
    0.5555    2.3555   -1.3775 C   0  0  0  0  0  3  0  0  0  0  0  0
    0.5859    2.3589   -2.7635 C   0  0  0  0  0  0  0  0  0  0  0  0
    0.6155    1.1618   -3.4625 C   0  0  0  0  0  0  0  0  0  0  0  0
    0.6123   -0.0355   -2.7635 C   0  0  0  0  0  0  0  0  0  0  0  0
    0.5818   -0.0328   -1.3775 C   0  0  0  0  0  0  0  0  0  0  0  0
   -0.0344    0.0945    1.3164 H   0  0  0  0  0  0  0  0  0  0  0  0
    1.5777    1.1724    1.2270 H   0  0  0  0  0  0  0  0  0  0  0  0
    0.0445    2.0391    1.2370 H   0  0  0  0  0  0  0  0  0  0  0  0
    0.5289    3.2966   -0.8397 H   0  0  0  0  0  0  0  0  0  0  0  0
    0.5833    3.3001   -3.2992 H   0  0  0  0  0  0  0  0  0  0  0  0
    0.6366    1.1621   -4.5449 H   0  0  0  0  0  0  0  0  0  0  0  0
    0.6305   -0.9766   -3.2992 H   0  0  0  0  0  0  0  0  0  0  0  0
    0.5760   -0.9743   -0.8397 H   0  0  0  0  0  0  0  0  0  0  0  0
  1  2  2  0
  2  3  1  0
  2 13  1  0
  3  4  3  0
  4  5  1  0
  6  7  2  3
  6 14  1  0
  6 15  1  0
  7  8  1  0
  7 12  1  0
  8  9  1  0
  8 16  1  0
  9 10  2  0
  9 17  1  0
 10 11  1  0
 10 18  1  0
 11 12  2  0
 11 19  1  0
 12 20  1  0
M  RAD  1   8   2
M  END
>  <reaction>  (6) 
rxn_1476

>  <mol_properties>  (6) 
{"0": {"label": "*0", "atom_type": "S2d"}, "1": {"label": "*1", "atom_type": "CS"}, "5": {"label": "*3", "atom_type": "Cd"}, "6": {"label": "*4", "atom_type": "Cd"}, "12": {"label": "*2", "atom_type": "H0"}}

>  <type>  (6) 
unop_2

>  <geom_source>  (6) 
Heuristics

$$$$

     RDKit          3D

 20 19  0  0  0  0  0  0  0  0999 V2000
   -0.0217   -1.7217    3.1928 S   0  0  0  0  0  0  0  0  0  0  0  0
   -0.4742   -1.1027    1.7735 C   0  0  0  0  0  0  0  0  0  0  0  0
   -1.8053   -1.0751    1.2905 C   0  0  0  0  0  0  0  0  0  0  0  0
   -2.9253   -1.0399    0.8596 C   0  0  0  0  0  0  0  0  0  0  0  0
   -3.9181   -1.0087    0.4776 H   0  0  0  0  0  0  0  0  0  0  0  0
    0.7051    1.0300    0.8216 C   0  0  0  0  0  0  0  0  0  0  0  0
    0.7051    1.0300   -0.6821 C   0  0  0  0  0  0  0  0  0  0  0  0
    0.7051    2.2244   -1.3962 C   0  0  0  0  0  3  0  0  0  0  0  0
    0.7356    2.2277   -2.7822 C   0  0  0  0  0  0  0  0  0  0  0  0
    0.7651    1.0307   -3.4812 C   0  0  0  0  0  0  0  0  0  0  0  0
    0.7620   -0.1667   -2.7822 C   0  0  0  0  0  0  0  0  0  0  0  0
    0.7315   -0.1640   -1.3962 C   0  0  0  0  0  0  0  0  0  0  0  0
    0.1153   -0.0367    1.2977 H   0  0  0  0  0  0  0  0  0  0  0  0
    1.7274    1.0413    1.2084 H   0  0  0  0  0  0  0  0  0  0  0  0
    0.1941    1.9079    1.2183 H   0  0  0  0  0  0  0  0  0  0  0  0
    0.6785    3.1655   -0.8584 H   0  0  0  0  0  0  0  0  0  0  0  0
    0.7329    3.1689   -3.3179 H   0  0  0  0  0  0  0  0  0  0  0  0
    0.7863    1.0309   -4.5636 H   0  0  0  0  0  0  0  0  0  0  0  0
    0.7801   -1.1077   -3.3179 H   0  0  0  0  0  0  0  0  0  0  0  0
    0.7256   -1.1054   -0.8584 H   0  0  0  0  0  0  0  0  0  0  0  0
  1  2  2  0
  2  3  1  0
  2 13  1  0
  3  4  3  0
  4  5  1  0
  6  7  2  3
  6 14  1  0
  6 15  1  0
  7  8  1  0
  7 12  1  0
  8  9  1  0
  8 16  1  0
  9 10  2  0
  9 17  1  0
 10 11  1  0
 10 18  1  0
 11 12  2  0
 11 19  1  0
 12 20  1  0
M  RAD  1   8   2
M  END
>  <reaction>  (7) 
rxn_1476

>  <mol_properties>  (7) 
{"0": {"label": "*0", "atom_type": "S2d"}, "1": {"label": "*1", "atom_type": "CS"}, "5": {"label": "*3", "atom_type": "Cd"}, "6": {"label": "*4", "atom_type": "Cd"}, "12": {"label": "*2", "atom_type": "H0"}}

>  <type>  (7) 
unop_3

>  <geom_source>  (7) 
Heuristics

$$$$

     RDKit          3D

 20 19  0  0  0  0  0  0  0  0999 V2000
   -2.0735   -1.3833    1.3851 S   0  0  0  0  0  0  0  0  0  0  0  0
   -0.5286   -1.0789    1.7358 C   0  0  0  0  0  0  0  0  0  0  0  0
    0.1090   -1.4284    2.9511 C   0  0  0  0  0  0  0  0  0  0  0  0
    0.6715   -1.7143    3.9724 C   0  0  0  0  0  0  0  0  0  0  0  0
    1.1701   -1.9676    4.8778 H   0  0  0  0  0  0  0  0  0  0  0  0
    0.6508    1.0539    0.7839 C   0  0  0  0  0  0  0  0  0  0  0  0
    0.6508    1.0539   -0.7198 C   0  0  0  0  0  0  0  0  0  0  0  0
    0.6508    2.2482   -1.4338 C   0  0  0  0  0  3  0  0  0  0  0  0
    0.6812    2.2515   -2.8198 C   0  0  0  0  0  0  0  0  0  0  0  0
    0.7107    1.0545   -3.5189 C   0  0  0  0  0  0  0  0  0  0  0  0
    0.7076   -0.1428   -2.8198 C   0  0  0  0  0  0  0  0  0  0  0  0
    0.6771   -0.1402   -1.4338 C   0  0  0  0  0  0  0  0  0  0  0  0
    0.0609   -0.0129    1.2600 H   0  0  0  0  0  0  0  0  0  0  0  0
    1.6730    1.0651    1.1707 H   0  0  0  0  0  0  0  0  0  0  0  0
    0.1397    1.9318    1.1807 H   0  0  0  0  0  0  0  0  0  0  0  0
    0.6241    3.1893   -0.8960 H   0  0  0  0  0  0  0  0  0  0  0  0
    0.6786    3.1928   -3.3556 H   0  0  0  0  0  0  0  0  0  0  0  0
    0.7319    1.0548   -4.6012 H   0  0  0  0  0  0  0  0  0  0  0  0
    0.7257   -1.0839   -3.3556 H   0  0  0  0  0  0  0  0  0  0  0  0
    0.6712   -1.0816   -0.8960 H   0  0  0  0  0  0  0  0  0  0  0  0
  1  2  2  0
  2  3  1  0
  2 13  1  0
  3  4  3  0
  4  5  1  0
  6  7  2  3
  6 14  1  0
  6 15  1  0
  7  8  1  0
  7 12  1  0
  8  9  1  0
  8 16  1  0
  9 10  2  0
  9 17  1  0
 10 11  1  0
 10 18  1  0
 11 12  2  0
 11 19  1  0
 12 20  1  0
M  RAD  1   8   2
M  END
>  <reaction>  (8) 
rxn_1476

>  <mol_properties>  (8) 
{"0": {"label": "*0", "atom_type": "S2d"}, "1": {"label": "*1", "atom_type": "CS"}, "5": {"label": "*3", "atom_type": "Cd"}, "6": {"label": "*4", "atom_type": "Cd"}, "12": {"label": "*2", "atom_type": "H0"}}

>  <type>  (8) 
unop_4

>  <geom_source>  (8) 
Heuristics

$$$$

     RDKit          3D

 20 19  0  0  0  0  0  0  0  0999 V2000
   -0.6746   -1.1945    3.4457 S   0  0  0  0  0  0  0  0  0  0  0  0
   -0.5513   -0.9714    1.8528 C   0  0  0  0  0  0  0  0  0  0  0  0
   -1.0449   -1.8641    0.8705 C   0  0  0  0  0  0  0  0  0  0  0  0
   -1.4546   -2.6050    0.0192 C   0  0  0  0  0  0  0  0  0  0  0  0
   -1.8177   -3.2617   -0.7354 H   0  0  0  0  0  0  0  0  0  0  0  0
    0.6281    1.1613    0.9010 C   0  0  0  0  0  0  0  0  0  0  0  0
    0.6281    1.1613   -0.6028 C   0  0  0  0  0  0  0  0  0  0  0  0
    0.6281    2.3557   -1.3168 C   0  0  0  0  0  3  0  0  0  0  0  0
    0.6586    2.3590   -2.7028 C   0  0  0  0  0  0  0  0  0  0  0  0
    0.6881    1.1620   -3.4018 C   0  0  0  0  0  0  0  0  0  0  0  0
    0.6850   -0.0354   -2.7028 C   0  0  0  0  0  0  0  0  0  0  0  0
    0.6545   -0.0327   -1.3168 C   0  0  0  0  0  0  0  0  0  0  0  0
    0.0382    0.0946    1.3771 H   0  0  0  0  0  0  0  0  0  0  0  0
    1.6503    1.1726    1.2877 H   0  0  0  0  0  0  0  0  0  0  0  0
    0.1171    2.0392    1.2977 H   0  0  0  0  0  0  0  0  0  0  0  0
    0.6015    3.2968   -0.7790 H   0  0  0  0  0  0  0  0  0  0  0  0
    0.6559    3.3002   -3.2385 H   0  0  0  0  0  0  0  0  0  0  0  0
    0.7093    1.1622   -4.4842 H   0  0  0  0  0  0  0  0  0  0  0  0
    0.7031   -0.9764   -3.2385 H   0  0  0  0  0  0  0  0  0  0  0  0
    0.6486   -0.9741   -0.7790 H   0  0  0  0  0  0  0  0  0  0  0  0
  1  2  2  0
  2  3  1  0
  2 13  1  0
  3  4  3  0
  4  5  1  0
  6  7  2  3
  6 14  1  0
  6 15  1  0
  7  8  1  0
  7 12  1  0
  8  9  1  0
  8 16  1  0
  9 10  2  0
  9 17  1  0
 10 11  1  0
 10 18  1  0
 11 12  2  0
 11 19  1  0
 12 20  1  0
M  RAD  1   8   2
M  END
>  <reaction>  (9) 
rxn_1476

>  <mol_properties>  (9) 
{"0": {"label": "*0", "atom_type": "S2d"}, "1": {"label": "*1", "atom_type": "CS"}, "5": {"label": "*3", "atom_type": "Cd"}, "6": {"label": "*4", "atom_type": "Cd"}, "12": {"label": "*2", "atom_type": "H0"}}

>  <type>  (9) 
unop_5

>  <geom_source>  (9) 
Heuristics

$$$$

     RDKit          3D

 20 19  0  0  0  0  0  0  0  0999 V2000
   -2.1836   -1.0800    1.9902 S   0  0  0  0  0  0  0  0  0  0  0  0
   -0.5980   -1.0873    1.6931 C   0  0  0  0  0  0  0  0  0  0  0  0
    0.3801   -1.6699    2.5353 C   0  0  0  0  0  0  0  0  0  0  0  0
    1.2277   -2.1564    3.2326 C   0  0  0  0  0  0  0  0  0  0  0  0
    1.9790   -2.5876    3.8508 H   0  0  0  0  0  0  0  0  0  0  0  0
    0.5813    1.0455    0.7412 C   0  0  0  0  0  0  0  0  0  0  0  0
    0.5813    1.0455   -0.7625 C   0  0  0  0  0  0  0  0  0  0  0  0
    0.5813    2.2398   -1.4766 C   0  0  0  0  0  3  0  0  0  0  0  0
    0.6118    2.2432   -2.8626 C   0  0  0  0  0  0  0  0  0  0  0  0
    0.6413    1.0462   -3.5616 C   0  0  0  0  0  0  0  0  0  0  0  0
    0.6382   -0.1512   -2.8626 C   0  0  0  0  0  0  0  0  0  0  0  0
    0.6077   -0.1485   -1.4766 C   0  0  0  0  0  0  0  0  0  0  0  0
   -0.0085   -0.0212    1.2173 H   0  0  0  0  0  0  0  0  0  0  0  0
    1.6036    1.0568    1.1280 H   0  0  0  0  0  0  0  0  0  0  0  0
    0.0703    1.9234    1.1379 H   0  0  0  0  0  0  0  0  0  0  0  0
    0.5547    3.1809   -0.9387 H   0  0  0  0  0  0  0  0  0  0  0  0
    0.6091    3.1844   -3.3983 H   0  0  0  0  0  0  0  0  0  0  0  0
    0.6625    1.0464   -4.6439 H   0  0  0  0  0  0  0  0  0  0  0  0
    0.6563   -1.0922   -3.3983 H   0  0  0  0  0  0  0  0  0  0  0  0
    0.6018   -1.0900   -0.9387 H   0  0  0  0  0  0  0  0  0  0  0  0
  1  2  2  0
  2  3  1  0
  2 13  1  0
  3  4  3  0
  4  5  1  0
  6  7  2  3
  6 14  1  0
  6 15  1  0
  7  8  1  0
  7 12  1  0
  8  9  1  0
  8 16  1  0
  9 10  2  0
  9 17  1  0
 10 11  1  0
 10 18  1  0
 11 12  2  0
 11 19  1  0
 12 20  1  0
M  RAD  1   8   2
M  END
>  <reaction>  (10) 
rxn_1476

>  <mol_properties>  (10) 
{"0": {"label": "*0", "atom_type": "S2d"}, "1": {"label": "*1", "atom_type": "CS"}, "5": {"label": "*3", "atom_type": "Cd"}, "6": {"label": "*4", "atom_type": "Cd"}, "12": {"label": "*2", "atom_type": "H0"}}

>  <type>  (10) 
unop_6

>  <geom_source>  (10) 
Heuristics

$$$$

     RDKit          3D

 20 19  0  0  0  0  0  0  0  0999 V2000
   -1.9805   -0.9105    2.6452 S   0  0  0  0  0  0  0  0  0  0  0  0
   -0.6805   -1.0490    1.7001 C   0  0  0  0  0  0  0  0  0  0  0  0
    0.4131   -1.9134    1.9504 C   0  0  0  0  0  0  0  0  0  0  0  0
    1.3514   -2.6376    2.1409 C   0  0  0  0  0  0  0  0  0  0  0  0
    2.1833   -3.2796    2.3097 H   0  0  0  0  0  0  0  0  0  0  0  0
    0.4989    1.0837    0.7483 C   0  0  0  0  0  0  0  0  0  0  0  0
    0.4989    1.0837   -0.7555 C   0  0  0  0  0  0  0  0  0  0  0  0
    0.4989    2.2781   -1.4695 C   0  0  0  0  0  3  0  0  0  0  0  0
    0.5293    2.2814   -2.8555 C   0  0  0  0  0  0  0  0  0  0  0  0
    0.5589    1.0844   -3.5545 C   0  0  0  0  0  0  0  0  0  0  0  0
    0.5557   -0.1130   -2.8555 C   0  0  0  0  0  0  0  0  0  0  0  0
    0.5252   -0.1103   -1.4695 C   0  0  0  0  0  0  0  0  0  0  0  0
   -0.0910    0.0170    1.2243 H   0  0  0  0  0  0  0  0  0  0  0  0
    1.5211    1.0950    1.1350 H   0  0  0  0  0  0  0  0  0  0  0  0
   -0.0121    1.9616    1.1450 H   0  0  0  0  0  0  0  0  0  0  0  0
    0.4723    3.2191   -0.9317 H   0  0  0  0  0  0  0  0  0  0  0  0
    0.5267    3.2226   -3.3912 H   0  0  0  0  0  0  0  0  0  0  0  0
    0.5800    1.0846   -4.6369 H   0  0  0  0  0  0  0  0  0  0  0  0
    0.5739   -1.0540   -3.3912 H   0  0  0  0  0  0  0  0  0  0  0  0
    0.5194   -1.0518   -0.9317 H   0  0  0  0  0  0  0  0  0  0  0  0
  1  2  2  0
  2  3  1  0
  2 13  1  0
  3  4  3  0
  4  5  1  0
  6  7  2  3
  6 14  1  0
  6 15  1  0
  7  8  1  0
  7 12  1  0
  8  9  1  0
  8 16  1  0
  9 10  2  0
  9 17  1  0
 10 11  1  0
 10 18  1  0
 11 12  2  0
 11 19  1  0
 12 20  1  0
M  RAD  1   8   2
M  END
>  <reaction>  (11) 
rxn_1476

>  <mol_properties>  (11) 
{"0": {"label": "*0", "atom_type": "S2d"}, "1": {"label": "*1", "atom_type": "CS"}, "5": {"label": "*3", "atom_type": "Cd"}, "6": {"label": "*4", "atom_type": "Cd"}, "12": {"label": "*2", "atom_type": "H0"}}

>  <type>  (11) 
unop_7

>  <geom_source>  (11) 
Heuristics

$$$$

     RDKit          3D

 20 19  0  0  0  0  0  0  0  0999 V2000
    0.2246   -2.4117    1.9902 S   0  0  0  0  0  0  0  0  0  0  0  0
   -0.6245   -1.0726    1.6931 C   0  0  0  0  0  0  0  0  0  0  0  0
   -1.6380   -0.5539    2.5353 C   0  0  0  0  0  0  0  0  0  0  0  0
   -2.5006   -0.0947    3.2326 C   0  0  0  0  0  0  0  0  0  0  0  0
   -3.2654    0.3124    3.8508 H   0  0  0  0  0  0  0  0  0  0  0  0
    0.5549    1.0601    0.7412 C   0  0  0  0  0  0  0  0  0  0  0  0
    0.5549    1.0601   -0.7625 C   0  0  0  0  0  0  0  0  0  0  0  0
    0.5549    2.2545   -1.4766 C   0  0  0  0  0  3  0  0  0  0  0  0
    0.5853    2.2578   -2.8626 C   0  0  0  0  0  0  0  0  0  0  0  0
    0.6149    1.0608   -3.5616 C   0  0  0  0  0  0  0  0  0  0  0  0
    0.6117   -0.1366   -2.8626 C   0  0  0  0  0  0  0  0  0  0  0  0
    0.5812   -0.1339   -1.4766 C   0  0  0  0  0  0  0  0  0  0  0  0
   -0.0350   -0.0066    1.2173 H   0  0  0  0  0  0  0  0  0  0  0  0
    1.5771    1.0714    1.1280 H   0  0  0  0  0  0  0  0  0  0  0  0
    0.0439    1.9380    1.1379 H   0  0  0  0  0  0  0  0  0  0  0  0
    0.5283    3.1956   -0.9387 H   0  0  0  0  0  0  0  0  0  0  0  0
    0.5827    3.1990   -3.3983 H   0  0  0  0  0  0  0  0  0  0  0  0
    0.6360    1.0610   -4.6439 H   0  0  0  0  0  0  0  0  0  0  0  0
    0.6299   -1.0776   -3.3983 H   0  0  0  0  0  0  0  0  0  0  0  0
    0.5754   -1.0753   -0.9387 H   0  0  0  0  0  0  0  0  0  0  0  0
  1  2  2  0
  2  3  1  0
  2 13  1  0
  3  4  3  0
  4  5  1  0
  6  7  2  3
  6 14  1  0
  6 15  1  0
  7  8  1  0
  7 12  1  0
  8  9  1  0
  8 16  1  0
  9 10  2  0
  9 17  1  0
 10 11  1  0
 10 18  1  0
 11 12  2  0
 11 19  1  0
 12 20  1  0
M  RAD  1   8   2
M  END
>  <reaction>  (12) 
rxn_1476

>  <mol_properties>  (12) 
{"0": {"label": "*0", "atom_type": "S2d"}, "1": {"label": "*1", "atom_type": "CS"}, "5": {"label": "*3", "atom_type": "Cd"}, "6": {"label": "*4", "atom_type": "Cd"}, "12": {"label": "*2", "atom_type": "H0"}}

>  <type>  (12) 
unop_8

>  <geom_source>  (12) 
Heuristics

$$$$

     RDKit          3D

 20 19  0  0  0  0  0  0  0  0999 V2000
   -1.7018   -1.7459    0.9672 S   0  0  0  0  0  0  0  0  0  0  0  0
   -0.5128   -1.0330    1.7921 C   0  0  0  0  0  0  0  0  0  0  0  0
   -0.2530   -1.2307    3.1702 C   0  0  0  0  0  0  0  0  0  0  0  0
   -0.0129   -1.3817    4.3367 C   0  0  0  0  0  0  0  0  0  0  0  0
    0.2000   -1.5156    5.3709 H   0  0  0  0  0  0  0  0  0  0  0  0
    0.6666    1.0997    0.8403 C   0  0  0  0  0  0  0  0  0  0  0  0
    0.6666    1.0997   -0.6634 C   0  0  0  0  0  0  0  0  0  0  0  0
    0.6666    2.2941   -1.3775 C   0  0  0  0  0  3  0  0  0  0  0  0
    0.6970    2.2974   -2.7635 C   0  0  0  0  0  0  0  0  0  0  0  0
    0.7266    1.1004   -3.4625 C   0  0  0  0  0  0  0  0  0  0  0  0
    0.7234   -0.0970   -2.7635 C   0  0  0  0  0  0  0  0  0  0  0  0
    0.6929   -0.0943   -1.3775 C   0  0  0  0  0  0  0  0  0  0  0  0
    0.0767    0.0330    1.3164 H   0  0  0  0  0  0  0  0  0  0  0  0
    1.6888    1.1110    1.2270 H   0  0  0  0  0  0  0  0  0  0  0  0
    0.1556    1.9776    1.2370 H   0  0  0  0  0  0  0  0  0  0  0  0
    0.6400    3.2352   -0.8397 H   0  0  0  0  0  0  0  0  0  0  0  0
    0.6944    3.2386   -3.2992 H   0  0  0  0  0  0  0  0  0  0  0  0
    0.7477    1.1006   -4.5449 H   0  0  0  0  0  0  0  0  0  0  0  0
    0.7416   -1.0380   -3.2992 H   0  0  0  0  0  0  0  0  0  0  0  0
    0.6871   -1.0357   -0.8397 H   0  0  0  0  0  0  0  0  0  0  0  0
  1  2  2  0
  2  3  1  0
  2 13  1  0
  3  4  3  0
  4  5  1  0
  6  7  2  3
  6 14  1  0
  6 15  1  0
  7  8  1  0
  7 12  1  0
  8  9  1  0
  8 16  1  0
  9 10  2  0
  9 17  1  0
 10 11  1  0
 10 18  1  0
 11 12  2  0
 11 19  1  0
 12 20  1  0
M  RAD  1   8   2
M  END
>  <reaction>  (13) 
rxn_1476

>  <mol_properties>  (13) 
{"0": {"label": "*0", "atom_type": "S2d"}, "1": {"label": "*1", "atom_type": "CS"}, "5": {"label": "*3", "atom_type": "Cd"}, "6": {"label": "*4", "atom_type": "Cd"}, "12": {"label": "*2", "atom_type": "H0"}}

>  <type>  (13) 
unop_9

>  <geom_source>  (13) 
Heuristics

$$$$

     RDKit          3D

 20 19  0  0  0  0  0  0  0  0999 V2000
   -0.0908   -2.4797    1.3851 S   0  0  0  0  0  0  0  0  0  0  0  0
   -0.6543   -1.0094    1.7358 C   0  0  0  0  0  0  0  0  0  0  0  0
   -1.2894   -0.6552    2.9511 C   0  0  0  0  0  0  0  0  0  0  0  0
   -1.8305   -0.3307    3.9724 C   0  0  0  0  0  0  0  0  0  0  0  0
   -2.3102   -0.0431    4.8778 H   0  0  0  0  0  0  0  0  0  0  0  0
    0.5250    1.1234    0.7839 C   0  0  0  0  0  0  0  0  0  0  0  0
    0.5250    1.1234   -0.7198 C   0  0  0  0  0  0  0  0  0  0  0  0
    0.5250    2.3177   -1.4338 C   0  0  0  0  0  3  0  0  0  0  0  0
    0.5555    2.3211   -2.8198 C   0  0  0  0  0  0  0  0  0  0  0  0
    0.5850    1.1240   -3.5189 C   0  0  0  0  0  0  0  0  0  0  0  0
    0.5819   -0.0733   -2.8198 C   0  0  0  0  0  0  0  0  0  0  0  0
    0.5514   -0.0706   -1.4338 C   0  0  0  0  0  0  0  0  0  0  0  0
   -0.0648    0.0567    1.2600 H   0  0  0  0  0  0  0  0  0  0  0  0
    1.5473    1.1346    1.1707 H   0  0  0  0  0  0  0  0  0  0  0  0
    0.0140    2.0013    1.1807 H   0  0  0  0  0  0  0  0  0  0  0  0
    0.4984    3.2588   -0.8960 H   0  0  0  0  0  0  0  0  0  0  0  0
    0.5529    3.2623   -3.3556 H   0  0  0  0  0  0  0  0  0  0  0  0
    0.6062    1.1243   -4.6012 H   0  0  0  0  0  0  0  0  0  0  0  0
    0.6000   -1.0144   -3.3556 H   0  0  0  0  0  0  0  0  0  0  0  0
    0.5455   -1.0121   -0.8960 H   0  0  0  0  0  0  0  0  0  0  0  0
  1  2  2  0
  2  3  1  0
  2 13  1  0
  3  4  3  0
  4  5  1  0
  6  7  2  3
  6 14  1  0
  6 15  1  0
  7  8  1  0
  7 12  1  0
  8  9  1  0
  8 16  1  0
  9 10  2  0
  9 17  1  0
 10 11  1  0
 10 18  1  0
 11 12  2  0
 11 19  1  0
 12 20  1  0
M  RAD  1   8   2
M  END
>  <reaction>  (14) 
rxn_1476

>  <mol_properties>  (14) 
{"0": {"label": "*0", "atom_type": "S2d"}, "1": {"label": "*1", "atom_type": "CS"}, "5": {"label": "*3", "atom_type": "Cd"}, "6": {"label": "*4", "atom_type": "Cd"}, "12": {"label": "*2", "atom_type": "H0"}}

>  <type>  (14) 
unop_10

>  <geom_source>  (14) 
Heuristics

$$$$

     RDKit          3D

 20 19  0  0  0  0  0  0  0  0999 V2000
   -1.4682   -0.9218    3.1928 S   0  0  0  0  0  0  0  0  0  0  0  0
   -0.7034   -0.9760    1.7735 C   0  0  0  0  0  0  0  0  0  0  0  0
    0.0276   -2.0887    1.2905 C   0  0  0  0  0  0  0  0  0  0  0  0
    0.6528   -3.0185    0.8596 C   0  0  0  0  0  0  0  0  0  0  0  0
    1.2071   -3.8429    0.4776 H   0  0  0  0  0  0  0  0  0  0  0  0
    0.4760    1.1568    0.8216 C   0  0  0  0  0  0  0  0  0  0  0  0
    0.4760    1.1568   -0.6821 C   0  0  0  0  0  0  0  0  0  0  0  0
    0.4760    2.3511   -1.3962 C   0  0  0  0  0  3  0  0  0  0  0  0
    0.5064    2.3545   -2.7822 C   0  0  0  0  0  0  0  0  0  0  0  0
    0.5359    1.1574   -3.4812 C   0  0  0  0  0  0  0  0  0  0  0  0
    0.5328   -0.0399   -2.7822 C   0  0  0  0  0  0  0  0  0  0  0  0
    0.5023   -0.0372   -1.3962 C   0  0  0  0  0  0  0  0  0  0  0  0
   -0.1139    0.0901    1.2977 H   0  0  0  0  0  0  0  0  0  0  0  0
    1.4982    1.1680    1.2084 H   0  0  0  0  0  0  0  0  0  0  0  0
   -0.0351    2.0347    1.2183 H   0  0  0  0  0  0  0  0  0  0  0  0
    0.4493    3.2922   -0.8584 H   0  0  0  0  0  0  0  0  0  0  0  0
    0.5038    3.2957   -3.3179 H   0  0  0  0  0  0  0  0  0  0  0  0
    0.5571    1.1577   -4.5636 H   0  0  0  0  0  0  0  0  0  0  0  0
    0.5509   -0.9810   -3.3179 H   0  0  0  0  0  0  0  0  0  0  0  0
    0.4964   -0.9787   -0.8584 H   0  0  0  0  0  0  0  0  0  0  0  0
  1  2  2  0
  2  3  1  0
  2 13  1  0
  3  4  3  0
  4  5  1  0
  6  7  2  3
  6 14  1  0
  6 15  1  0
  7  8  1  0
  7 12  1  0
  8  9  1  0
  8 16  1  0
  9 10  2  0
  9 17  1  0
 10 11  1  0
 10 18  1  0
 11 12  2  0
 11 19  1  0
 12 20  1  0
M  RAD  1   8   2
M  END
>  <reaction>  (15) 
rxn_1476

>  <mol_properties>  (15) 
{"0": {"label": "*0", "atom_type": "S2d"}, "1": {"label": "*1", "atom_type": "CS"}, "5": {"label": "*3", "atom_type": "Cd"}, "6": {"label": "*4", "atom_type": "Cd"}, "12": {"label": "*2", "atom_type": "H0"}}

>  <type>  (15) 
unop_11

>  <geom_source>  (15) 
Heuristics

$$$$

     RDKit          3D

 20 19  0  0  0  0  0  0  0  0999 V2000
   -1.1709   -2.0920    0.8197 S   0  0  0  0  0  0  0  0  0  0  0  0
   -0.5578   -0.9833    1.8182 C   0  0  0  0  0  0  0  0  0  0  0  0
   -0.5986   -1.0570    3.2319 C   0  0  0  0  0  0  0  0  0  0  0  0
   -0.6207   -1.0969    4.4316 C   0  0  0  0  0  0  0  0  0  0  0  0
   -0.6402   -1.1323    5.4950 H   0  0  0  0  0  0  0  0  0  0  0  0
    0.6216    1.1495    0.8664 C   0  0  0  0  0  0  0  0  0  0  0  0
    0.6216    1.1495   -0.6374 C   0  0  0  0  0  0  0  0  0  0  0  0
    0.6216    2.3438   -1.3514 C   0  0  0  0  0  3  0  0  0  0  0  0
    0.6520    2.3472   -2.7374 C   0  0  0  0  0  0  0  0  0  0  0  0
    0.6816    1.1502   -3.4364 C   0  0  0  0  0  0  0  0  0  0  0  0
    0.6784   -0.0472   -2.7374 C   0  0  0  0  0  0  0  0  0  0  0  0
    0.6479   -0.0445   -1.3514 C   0  0  0  0  0  0  0  0  0  0  0  0
    0.0317    0.0828    1.3424 H   0  0  0  0  0  0  0  0  0  0  0  0
    1.6438    1.1608    1.2531 H   0  0  0  0  0  0  0  0  0  0  0  0
    0.1106    2.0274    1.2631 H   0  0  0  0  0  0  0  0  0  0  0  0
    0.5950    3.2849   -0.8136 H   0  0  0  0  0  0  0  0  0  0  0  0
    0.6494    3.2884   -3.2731 H   0  0  0  0  0  0  0  0  0  0  0  0
    0.7027    1.1504   -4.5188 H   0  0  0  0  0  0  0  0  0  0  0  0
    0.6965   -0.9882   -3.2731 H   0  0  0  0  0  0  0  0  0  0  0  0
    0.6421   -0.9860   -0.8136 H   0  0  0  0  0  0  0  0  0  0  0  0
  1  2  2  0
  2  3  1  0
  2 13  1  0
  3  4  3  0
  4  5  1  0
  6  7  2  3
  6 14  1  0
  6 15  1  0
  7  8  1  0
  7 12  1  0
  8  9  1  0
  8 16  1  0
  9 10  2  0
  9 17  1  0
 10 11  1  0
 10 18  1  0
 11 12  2  0
 11 19  1  0
 12 20  1  0
M  RAD  1   8   2
M  END
>  <reaction>  (16) 
rxn_1476

>  <mol_properties>  (16) 
{"0": {"label": "*0", "atom_type": "S2d"}, "1": {"label": "*1", "atom_type": "CS"}, "5": {"label": "*3", "atom_type": "Cd"}, "6": {"label": "*4", "atom_type": "Cd"}, "12": {"label": "*2", "atom_type": "H0"}}

>  <type>  (16) 
unop_12

>  <geom_source>  (16) 
Heuristics

$$$$

     RDKit          3D

 20 19  0  0  0  0  0  0  0  0999 V2000
    3.4935   -2.6716    0.8798 S   0  0  0  0  0  0  0  0  0  0  0  0
   -0.6183   -0.2091   -0.5362 C   0  0  0  0  0  0  0  0  0  0  0  0
   -1.3155    0.5573   -1.4823 C   0  0  0  0  0  3  0  0  0  0  0  0
   -1.1925   -0.4556    0.7181 C   0  0  0  0  0  0  0  0  0  0  0  0
   -2.5786    1.0726   -1.1730 C   0  0  0  0  0  0  0  0  0  0  0  0
   -3.1485    0.8247    0.0796 C   0  0  0  0  0  0  0  0  0  0  0  0
   -2.4559    0.0611    1.0245 C   0  0  0  0  0  0  0  0  0  0  0  0
    0.7304   -0.7634   -0.8569 C   0  0  0  0  0  0  0  0  0  0  0  0
    2.8027   -1.2080    0.6668 C   0  0  0  0  0  0  0  0  0  0  0  0
    3.5203   -0.0163    1.0196 C   0  0  0  0  0  0  0  0  0  0  0  0
    4.1222    0.9854    1.3156 C   0  0  0  0  0  0  0  0  0  0  0  0
   -0.8815    0.7542   -2.4549 H   0  0  0  0  0  0  0  0  0  0  0  0
   -3.1153    1.6637   -1.9038 H   0  0  0  0  0  0  0  0  0  0  0  0
   -0.6635   -1.0459    1.4562 H   0  0  0  0  0  0  0  0  0  0  0  0
   -4.1259    1.2238    0.3179 H   0  0  0  0  0  0  0  0  0  0  0  0
   -2.8979   -0.1303    1.9937 H   0  0  0  0  0  0  0  0  0  0  0  0
    1.4411    0.0611   -1.0758 H   0  0  0  0  0  0  0  0  0  0  0  0
    0.6653   -1.4492   -1.7276 H   0  0  0  0  0  0  0  0  0  0  0  0
    1.5672   -1.1190    0.1631 H   0  0  0  0  0  0  0  0  0  0  0  0
    4.6507    1.8647    1.5756 H   0  0  0  0  0  0  0  0  0  0  0  0
  1  9  2  0
  2  8  2  3
  2  3  1  0
  2  4  1  0
  3  5  1  0
  3 12  1  0
  4  7  2  0
  4 14  1  0
  5  6  2  0
  5 13  1  0
  6  7  1  0
  6 15  1  0
  7 16  1  0
  8 17  1  0
  8 18  1  0
  9 10  1  0
  9 19  1  0
 10 11  3  0
 11 20  1  0
M  RAD  1   3   2
M  END
>  <reaction>  (17) 
rxn_1476

>  <mol_properties>  (17) 
{"0": {"label": "*0", "atom_type": "S2d"}, "1": {"label": "*1", "atom_type": "CS"}, "5": {"label": "*3", "atom_type": "Cd"}, "6": {"label": "*4", "atom_type": "Cd"}, "12": {"label": "*2", "atom_type": "H0"}}

>  <type>  (17) 
unop_13

>  <geom_source>  (17) 
AutoTST

$$$$

     RDKit          3D

 20 19  0  0  0  0  0  0  0  0999 V2000
   -0.5956   -2.3576    0.9672 S   0  0  0  0  0  0  0  0  0  0  0  0
   -0.6239   -0.9716    1.7921 C   0  0  0  0  0  0  0  0  0  0  0  0
   -0.9294   -0.8566    3.1702 C   0  0  0  0  0  0  0  0  0  0  0  0
   -1.1850   -0.7336    4.3367 C   0  0  0  0  0  0  0  0  0  0  0  0
   -1.4116   -0.6244    5.3708 H   0  0  0  0  0  0  0  0  0  0  0  0
    0.5555    1.1612    0.8403 C   0  0  0  0  0  0  0  0  0  0  0  0
    0.5555    1.1612   -0.6634 C   0  0  0  0  0  0  0  0  0  0  0  0
    0.5555    2.3555   -1.3775 C   0  0  0  0  0  3  0  0  0  0  0  0
    0.5859    2.3588   -2.7635 C   0  0  0  0  0  0  0  0  0  0  0  0
    0.6155    1.1618   -3.4625 C   0  0  0  0  0  0  0  0  0  0  0  0
    0.6123   -0.0355   -2.7635 C   0  0  0  0  0  0  0  0  0  0  0  0
    0.5818   -0.0328   -1.3775 C   0  0  0  0  0  0  0  0  0  0  0  0
   -0.0344    0.0945    1.3164 H   0  0  0  0  0  0  0  0  0  0  0  0
    1.5777    1.1724    1.2270 H   0  0  0  0  0  0  0  0  0  0  0  0
    0.0445    2.0391    1.2370 H   0  0  0  0  0  0  0  0  0  0  0  0
    0.5289    3.2966   -0.8397 H   0  0  0  0  0  0  0  0  0  0  0  0
    0.5833    3.3001   -3.2992 H   0  0  0  0  0  0  0  0  0  0  0  0
    0.6366    1.1621   -4.5449 H   0  0  0  0  0  0  0  0  0  0  0  0
    0.6304   -0.9766   -3.2992 H   0  0  0  0  0  0  0  0  0  0  0  0
    0.5760   -0.9743   -0.8397 H   0  0  0  0  0  0  0  0  0  0  0  0
  1  2  2  0
  2  3  1  0
  2 13  1  0
  3  4  3  0
  4  5  1  0
  6  7  2  3
  6 14  1  0
  6 15  1  0
  7  8  1  0
  7 12  1  0
  8  9  1  0
  8 16  1  0
  9 10  2  0
  9 17  1  0
 10 11  1  0
 10 18  1  0
 11 12  2  0
 11 19  1  0
 12 20  1  0
M  RAD  1   8   2
M  END
>  <reaction>  (18) 
rxn_1476

>  <mol_properties>  (18) 
{"0": {"label": "*0", "atom_type": "S2d"}, "1": {"label": "*1", "atom_type": "CS"}, "5": {"label": "*3", "atom_type": "Cd"}, "6": {"label": "*4", "atom_type": "Cd"}, "12": {"label": "*2", "atom_type": "H0"}}

>  <type>  (18) 
unop_14

>  <geom_source>  (18) 
gaussian_log

$$$$
