
     RDKit          3D

  7  6  0  0  0  0  0  0  0  0999 V2000
   -0.6468   -0.0443   -0.0231 C   0  0  0  0  0  0  0  0  0  0  0  0
    0.8470    0.0371    0.0688 C   0  0  0  0  0  0  0  0  0  0  0  0
    1.4866   -0.2280    1.0479 O   0  0  0  0  0  0  0  0  0  0  0  0
   -1.0466    0.9363   -0.2943 H   0  0  0  0  0  0  0  0  0  0  0  0
   -0.9229   -0.7318   -0.8269 H   0  0  0  0  0  0  0  0  0  0  0  0
   -1.0759   -0.3772    0.9198 H   0  0  0  0  0  0  0  0  0  0  0  0
    1.3584    0.3712   -0.8589 H   0  0  0  0  0  0  0  0  0  0  0  0
  1  2  1  0
  1  4  1  0
  1  5  1  0
  1  6  1  0
  2  3  2  0
  2  7  1  0
M  END
>  <reaction>  (1) 
rxn_475

>  <mol_properties>  (1) 
{"1": {"label": "donator", "atom_type": "CO"}, "6": {"label": "d_hydrogen", "atom_type": "H0"}}

>  <type>  (1) 
r1h

$$$$

     RDKit          3D

  8  7  0  0  0  0  0  0  0  0999 V2000
   -1.0607    0.1793   -0.1423 C   0  0  0  0  0  0  0  0  0  0  0  0
    0.2796    0.0327    0.4820 C   0  0  0  0  0  3  0  0  0  0  0  0
    0.8817   -1.4663    1.0791 S   0  0  0  0  0  0  0  0  0  0  0  0
   -1.3043    1.2328   -0.2850 H   0  0  0  0  0  0  0  0  0  0  0  0
   -1.8444   -0.2641    0.4799 H   0  0  0  0  0  0  0  0  0  0  0  0
   -1.1164   -0.3100   -1.1237 H   0  0  0  0  0  0  0  0  0  0  0  0
    1.0449    0.7826    0.3391 H   0  0  0  0  0  0  0  0  0  0  0  0
   -0.2993   -2.0726    1.2718 H   0  0  0  0  0  0  0  0  0  0  0  0
  1  2  1  0
  1  4  1  0
  1  5  1  0
  1  6  1  0
  2  3  1  0
  2  7  1  0
  3  8  1  0
M  RAD  1   2   2
M  END
>  <reaction>  (2) 
rxn_475

>  <mol_properties>  (2) 
{"1": {"label": "acceptor", "atom_type": "Cs"}}

>  <type>  (2) 
r2

$$$$

     RDKit          3D

  9  8  0  0  0  0  0  0  0  0999 V2000
   -0.8818   -0.3578    0.1297 C   0  0  0  0  0  0  0  0  0  0  0  0
    0.6153   -0.3021   -0.1188 C   0  0  0  0  0  0  0  0  0  0  0  0
    1.5354   -1.7170    0.5545 S   0  0  0  0  0  0  0  0  0  0  0  0
   -1.1018   -0.3317    1.1984 H   0  0  0  0  0  0  0  0  0  0  0  0
   -1.3114   -1.2723   -0.2799 H   0  0  0  0  0  0  0  0  0  0  0  0
   -1.3767    0.4976   -0.3363 H   0  0  0  0  0  0  0  0  0  0  0  0
    1.0467    0.6194    0.2718 H   0  0  0  0  0  0  0  0  0  0  0  0
    0.8295   -0.3275   -1.1882 H   0  0  0  0  0  0  0  0  0  0  0  0
    1.2306   -1.5077    1.8423 H   0  0  0  0  0  0  0  0  0  0  0  0
  1  2  1  0
  1  4  1  0
  1  5  1  0
  1  6  1  0
  2  3  1  0
  2  7  1  0
  2  8  1  0
  3  9  1  0
M  END
>  <reaction>  (3) 
rxn_475

>  <mol_properties>  (3) 
{"1": {"label": "acceptor", "atom_type": "Cs"}, "8": {"label": "a_hydrogen", "atom_type": "H0"}}

>  <type>  (3) 
r2h

$$$$

     RDKit          3D

 15 13  0  0  0  0  0  0  0  0999 V2000
   -1.7472   -1.0808    0.6488 C   0  0  0  0  0  0  0  0  0  0  0  0
   -0.3423   -0.6367    0.9578 C   0  0  0  0  0  3  0  0  0  0  0  0
    0.8931   -1.7481    0.3229 S   0  0  0  0  0  0  0  0  0  0  0  0
   -2.4570   -0.3087    0.9514 H   0  0  0  0  0  0  0  0  0  0  0  0
   -2.0119   -2.0023    1.1756 H   0  0  0  0  0  0  0  0  0  0  0  0
   -1.8784   -1.2614   -0.4209 H   0  0  0  0  0  0  0  0  0  0  0  0
   -0.1734   -0.3658    1.9979 H   0  0  0  0  0  0  0  0  0  0  0  0
    1.9633   -1.1145    0.8197 H   0  0  0  0  0  0  0  0  0  0  0  0
   -0.2284    1.4316   -1.9107 C   0  0  0  0  0  0  0  0  0  0  0  0
   -0.0278    1.6851   -0.4441 C   0  0  0  0  0  0  0  0  0  0  0  0
    0.2694    2.7145    0.0684 O   0  0  0  0  0  0  0  0  0  0  0  0
    0.3929    0.5848   -2.2084 H   0  0  0  0  0  0  0  0  0  0  0  0
   -1.2681    1.1365   -2.0704 H   0  0  0  0  0  0  0  0  0  0  0  0
    0.0075    2.3155   -2.5033 H   0  0  0  0  0  0  0  0  0  0  0  0
   -0.1887    0.5807    0.2842 H   0  0  0  0  0  0  0  0  0  0  0  0
  1  2  1  0
  1  4  1  0
  1  5  1  0
  1  6  1  0
  2  3  1  0
  2  7  1  0
  3  8  1  0
  9 10  1  0
  9 12  1  0
  9 13  1  0
  9 14  1  0
 10 11  2  0
 10 15  1  0
M  RAD  1   2   2
M  END
>  <reaction>  (4) 
rxn_475

>  <mol_properties>  (4) 
{"1": {"label": "*3", "atom_type": "Cs"}, "2": {"label": "*4", "atom_type": "S2s"}, "9": {"label": "*1", "atom_type": "CO"}, "10": {"label": "*0", "atom_type": "O2d"}, "14": {"label": "*2", "atom_type": "H0"}}

>  <type>  (4) 
ts

$$$$

     RDKit          3D

 15 13  0  0  0  0  0  0  0  0999 V2000
    1.4616   -1.5980    1.0794 C   0  0  0  0  0  0  0  0  0  0  0  0
    0.2311   -1.4136    0.2087 C   0  0  0  0  0  0  0  0  0  0  0  0
   -1.0739   -0.4023    0.9677 S   0  0  0  0  0  0  0  0  0  0  0  0
    2.2203   -2.1773    0.5478 H   0  0  0  0  0  0  0  0  0  0  0  0
    1.2137   -2.1326    1.9981 H   0  0  0  0  0  0  0  0  0  0  0  0
    1.8914   -0.6350    1.3562 H   0  0  0  0  0  0  0  0  0  0  0  0
   -0.1914   -2.3738   -0.0868 H   0  0  0  0  0  0  0  0  0  0  0  0
   -1.3122   -1.2066    2.0124 H   0  0  0  0  0  0  0  0  0  0  0  0
    0.2311    0.9793   -2.4102 C   0  0  0  0  0  0  0  0  0  0  0  0
    0.2311    0.9793   -0.9114 C   0  0  0  0  0  3  0  0  0  0  0  0
    0.2311    1.9649   -0.2284 O   0  0  0  0  0  0  0  0  0  0  0  0
    1.1088    0.4373   -2.7721 H   0  0  0  0  0  0  0  0  0  0  0  0
   -0.6466    0.4373   -2.7721 H   0  0  0  0  0  0  0  0  0  0  0  0
    0.2310    1.9958   -2.7981 H   0  0  0  0  0  0  0  0  0  0  0  0
    0.2311   -0.2279   -0.3464 H   0  0  0  0  0  0  0  0  0  0  0  0
  1  2  1  0
  1  4  1  0
  1  5  1  0
  1  6  1  0
  2  3  1  0
  2  7  1  0
  2 15  1  0
  3  8  1  0
  9 10  1  0
  9 12  1  0
  9 13  1  0
  9 14  1  0
 10 11  2  0
M  RAD  1  10   2
M  END
>  <reaction>  (5) 
rxn_475

>  <mol_properties>  (5) 
{"1": {"label": "*3", "atom_type": "Cs"}, "2": {"label": "*4", "atom_type": "S2s"}, "9": {"label": "*1", "atom_type": "CO"}, "10": {"label": "*0", "atom_type": "O2d"}, "14": {"label": "*2", "atom_type": "H0"}}

>  <type>  (5) 
unop_1

>  <geom_source>  (5) 
Heuristics

$$$$

     RDKit          3D

 15 13  0  0  0  0  0  0  0  0999 V2000
    0.2896   -2.1860   -0.6037 C   0  0  0  0  0  0  0  0  0  0  0  0
   -0.4208   -1.1788    0.2835 C   0  0  0  0  0  0  0  0  0  0  0  0
    0.6013   -0.5268    1.6370 S   0  0  0  0  0  0  0  0  0  0  0  0
   -0.3654   -2.5038   -1.4184 H   0  0  0  0  0  0  0  0  0  0  0  0
    0.5746   -3.0739   -0.0364 H   0  0  0  0  0  0  0  0  0  0  0  0
    1.1949   -1.7568   -1.0338 H   0  0  0  0  0  0  0  0  0  0  0  0
   -1.3368   -1.5967    0.7007 H   0  0  0  0  0  0  0  0  0  0  0  0
    0.8027   -1.6946    2.2621 H   0  0  0  0  0  0  0  0  0  0  0  0
   -0.4208    1.2140   -2.3354 C   0  0  0  0  0  0  0  0  0  0  0  0
   -0.4208    1.2140   -0.8366 C   0  0  0  0  0  3  0  0  0  0  0  0
   -0.4208    2.1997   -0.1535 O   0  0  0  0  0  0  0  0  0  0  0  0
    0.4569    0.6721   -2.6972 H   0  0  0  0  0  0  0  0  0  0  0  0
   -1.2985    0.6721   -2.6972 H   0  0  0  0  0  0  0  0  0  0  0  0
   -0.4208    2.2306   -2.7233 H   0  0  0  0  0  0  0  0  0  0  0  0
   -0.4208    0.0069   -0.2715 H   0  0  0  0  0  0  0  0  0  0  0  0
  1  2  1  0
  1  4  1  0
  1  5  1  0
  1  6  1  0
  2  3  1  0
  2  7  1  0
  2 15  1  0
  3  8  1  0
  9 10  1  0
  9 12  1  0
  9 13  1  0
  9 14  1  0
 10 11  2  0
M  RAD  1  10   2
M  END
>  <reaction>  (6) 
rxn_475

>  <mol_properties>  (6) 
{"1": {"label": "*3", "atom_type": "Cs"}, "2": {"label": "*4", "atom_type": "S2s"}, "9": {"label": "*1", "atom_type": "CO"}, "10": {"label": "*0", "atom_type": "O2d"}, "14": {"label": "*2", "atom_type": "H0"}}

>  <type>  (6) 
unop_2

>  <geom_source>  (6) 
Heuristics

$$$$

     RDKit          3D

 15 13  0  0  0  0  0  0  0  0999 V2000
    1.1634   -1.2073    1.6949 C   0  0  0  0  0  0  0  0  0  0  0  0
    0.4530   -1.2434    0.3531 C   0  0  0  0  0  0  0  0  0  0  0  0
   -1.3238   -0.8727    0.4407 S   0  0  0  0  0  0  0  0  0  0  0  0
    2.2316   -1.3962    1.5648 H   0  0  0  0  0  0  0  0  0  0  0  0
    0.7671   -1.9701    2.3675 H   0  0  0  0  0  0  0  0  0  0  0  0
    1.0389   -0.2370    2.1762 H   0  0  0  0  0  0  0  0  0  0  0  0
    0.5904   -2.2050   -0.1410 H   0  0  0  0  0  0  0  0  0  0  0  0
   -1.6650   -1.9084    1.2192 H   0  0  0  0  0  0  0  0  0  0  0  0
    0.4529    1.1495   -2.2658 C   0  0  0  0  0  0  0  0  0  0  0  0
    0.4529    1.1495   -0.7669 C   0  0  0  0  0  3  0  0  0  0  0  0
    0.4529    2.1351   -0.0839 O   0  0  0  0  0  0  0  0  0  0  0  0
    1.3307    0.6075   -2.6276 H   0  0  0  0  0  0  0  0  0  0  0  0
   -0.4247    0.6075   -2.6276 H   0  0  0  0  0  0  0  0  0  0  0  0
    0.4529    2.1660   -2.6537 H   0  0  0  0  0  0  0  0  0  0  0  0
    0.4529   -0.0577   -0.2019 H   0  0  0  0  0  0  0  0  0  0  0  0
  1  2  1  0
  1  4  1  0
  1  5  1  0
  1  6  1  0
  2  3  1  0
  2  7  1  0
  2 15  1  0
  3  8  1  0
  9 10  1  0
  9 12  1  0
  9 13  1  0
  9 14  1  0
 10 11  2  0
M  RAD  1  10   2
M  END
>  <reaction>  (7) 
rxn_475

>  <mol_properties>  (7) 
{"1": {"label": "*3", "atom_type": "Cs"}, "2": {"label": "*4", "atom_type": "S2s"}, "9": {"label": "*1", "atom_type": "CO"}, "10": {"label": "*0", "atom_type": "O2d"}, "14": {"label": "*2", "atom_type": "H0"}}

>  <type>  (7) 
unop_3

>  <geom_source>  (7) 
Heuristics

$$$$

     RDKit          3D

 15 13  0  0  0  0  0  0  0  0999 V2000
   -1.4986   -1.4867    0.1116 C   0  0  0  0  0  0  0  0  0  0  0  0
   -0.2681   -0.7000    0.5278 C   0  0  0  0  0  0  0  0  0  0  0  0
    1.1971   -1.7248    0.8515 S   0  0  0  0  0  0  0  0  0  0  0  0
   -2.3270   -0.8090   -0.1077 H   0  0  0  0  0  0  0  0  0  0  0  0
   -1.8186   -2.1615    0.9076 H   0  0  0  0  0  0  0  0  0  0  0  0
   -1.2965   -2.0861   -0.7764 H   0  0  0  0  0  0  0  0  0  0  0  0
   -0.4704   -0.0842    1.4039 H   0  0  0  0  0  0  0  0  0  0  0  0
    0.6800   -2.4263    1.8691 H   0  0  0  0  0  0  0  0  0  0  0  0
   -0.2681    1.6929   -2.0911 C   0  0  0  0  0  0  0  0  0  0  0  0
   -0.2681    1.6929   -0.5923 C   0  0  0  0  0  3  0  0  0  0  0  0
   -0.2681    2.6785    0.0908 O   0  0  0  0  0  0  0  0  0  0  0  0
    0.6097    1.1509   -2.4530 H   0  0  0  0  0  0  0  0  0  0  0  0
   -1.1458    1.1509   -2.4530 H   0  0  0  0  0  0  0  0  0  0  0  0
   -0.2681    2.7094   -2.4790 H   0  0  0  0  0  0  0  0  0  0  0  0
   -0.2681    0.4857   -0.0272 H   0  0  0  0  0  0  0  0  0  0  0  0
  1  2  1  0
  1  4  1  0
  1  5  1  0
  1  6  1  0
  2  3  1  0
  2  7  1  0
  2 15  1  0
  3  8  1  0
  9 10  1  0
  9 12  1  0
  9 13  1  0
  9 14  1  0
 10 11  2  0
M  RAD  1  10   2
M  END
>  <reaction>  (8) 
rxn_475

>  <mol_properties>  (8) 
{"1": {"label": "*3", "atom_type": "Cs"}, "2": {"label": "*4", "atom_type": "S2s"}, "9": {"label": "*1", "atom_type": "CO"}, "10": {"label": "*0", "atom_type": "O2d"}, "14": {"label": "*2", "atom_type": "H0"}}

>  <type>  (8) 
unop_4

>  <geom_source>  (8) 
Heuristics

$$$$

     RDKit          3D

 15 13  0  0  0  0  0  0  0  0999 V2000
    0.4524   -0.7698    2.0842 C   0  0  0  0  0  0  0  0  0  0  0  0
    0.4524   -0.8866    0.5700 C   0  0  0  0  0  0  0  0  0  0  0  0
   -1.0213   -1.7000   -0.1145 S   0  0  0  0  0  0  0  0  0  0  0  0
    1.3426   -0.2355    2.4244 H   0  0  0  0  0  0  0  0  0  0  0  0
    0.4534   -1.7558    2.5521 H   0  0  0  0  0  0  0  0  0  0  0  0
   -0.4294   -0.2324    2.4340 H   0  0  0  0  0  0  0  0  0  0  0  0
    1.3416   -1.4063    0.2138 H   0  0  0  0  0  0  0  0  0  0  0  0
   -0.8409   -2.8860    0.4821 H   0  0  0  0  0  0  0  0  0  0  0  0
    0.4524    1.5063   -2.0489 C   0  0  0  0  0  0  0  0  0  0  0  0
    0.4524    1.5063   -0.5501 C   0  0  0  0  0  3  0  0  0  0  0  0
    0.4524    2.4919    0.1330 O   0  0  0  0  0  0  0  0  0  0  0  0
    1.3301    0.9643   -2.4107 H   0  0  0  0  0  0  0  0  0  0  0  0
   -0.4253    0.9643   -2.4107 H   0  0  0  0  0  0  0  0  0  0  0  0
    0.4523    2.5228   -2.4368 H   0  0  0  0  0  0  0  0  0  0  0  0
    0.4524    0.2991    0.0150 H   0  0  0  0  0  0  0  0  0  0  0  0
  1  2  1  0
  1  4  1  0
  1  5  1  0
  1  6  1  0
  2  3  1  0
  2  7  1  0
  2 15  1  0
  3  8  1  0
  9 10  1  0
  9 12  1  0
  9 13  1  0
  9 14  1  0
 10 11  2  0
M  RAD  1  10   2
M  END
>  <reaction>  (9) 
rxn_475

>  <mol_properties>  (9) 
{"1": {"label": "*3", "atom_type": "Cs"}, "2": {"label": "*4", "atom_type": "S2s"}, "9": {"label": "*1", "atom_type": "CO"}, "10": {"label": "*0", "atom_type": "O2d"}, "14": {"label": "*2", "atom_type": "H0"}}

>  <type>  (9) 
unop_5

>  <geom_source>  (9) 
Heuristics

$$$$

     RDKit          3D

 15 13  0  0  0  0  0  0  0  0999 V2000
   -1.5957   -1.1380    0.7928 C   0  0  0  0  0  0  0  0  0  0  0  0
   -0.1749   -0.6524    0.5656 C   0  0  0  0  0  0  0  0  0  0  0  0
    1.0586   -1.9824    0.4572 S   0  0  0  0  0  0  0  0  0  0  0  0
   -2.2888   -0.2935    0.8052 H   0  0  0  0  0  0  0  0  0  0  0  0
   -1.6829   -1.6578    1.7486 H   0  0  0  0  0  0  0  0  0  0  0  0
   -1.9030   -1.8272    0.0059 H   0  0  0  0  0  0  0  0  0  0  0  0
    0.1305    0.0519    1.3391 H   0  0  0  0  0  0  0  0  0  0  0  0
    0.8831   -2.4645    1.6949 H   0  0  0  0  0  0  0  0  0  0  0  0
   -0.1749    1.7404   -2.0533 C   0  0  0  0  0  0  0  0  0  0  0  0
   -0.1749    1.7404   -0.5545 C   0  0  0  0  0  3  0  0  0  0  0  0
   -0.1749    2.7261    0.1285 O   0  0  0  0  0  0  0  0  0  0  0  0
    0.7029    1.1985   -2.4152 H   0  0  0  0  0  0  0  0  0  0  0  0
   -1.0525    1.1985   -2.4152 H   0  0  0  0  0  0  0  0  0  0  0  0
   -0.1749    2.7570   -2.4412 H   0  0  0  0  0  0  0  0  0  0  0  0
   -0.1749    0.5333    0.0105 H   0  0  0  0  0  0  0  0  0  0  0  0
  1  2  1  0
  1  4  1  0
  1  5  1  0
  1  6  1  0
  2  3  1  0
  2  7  1  0
  2 15  1  0
  3  8  1  0
  9 10  1  0
  9 12  1  0
  9 13  1  0
  9 14  1  0
 10 11  2  0
M  RAD  1  10   2
M  END
>  <reaction>  (10) 
rxn_475

>  <mol_properties>  (10) 
{"1": {"label": "*3", "atom_type": "Cs"}, "2": {"label": "*4", "atom_type": "S2s"}, "9": {"label": "*1", "atom_type": "CO"}, "10": {"label": "*0", "atom_type": "O2d"}, "14": {"label": "*2", "atom_type": "H0"}}

>  <type>  (10) 
unop_6

>  <geom_source>  (10) 
Heuristics

$$$$

     RDKit          3D

 15 13  0  0  0  0  0  0  0  0999 V2000
   -1.2890   -0.8105    1.4900 C   0  0  0  0  0  0  0  0  0  0  0  0
   -0.0585   -0.6261    0.6193 C   0  0  0  0  0  0  0  0  0  0  0  0
    0.6843   -2.1802    0.0405 S   0  0  0  0  0  0  0  0  0  0  0  0
   -1.7080    0.1599    1.7666 H   0  0  0  0  0  0  0  0  0  0  0  0
   -1.0407   -1.3434    2.4097 H   0  0  0  0  0  0  0  0  0  0  0  0
   -2.0553   -1.3825    0.9663 H   0  0  0  0  0  0  0  0  0  0  0  0
    0.7033   -0.0384    1.1311 H   0  0  0  0  0  0  0  0  0  0  0  0
    0.9914   -2.6705    1.2490 H   0  0  0  0  0  0  0  0  0  0  0  0
   -0.0585    1.7667   -1.9996 C   0  0  0  0  0  0  0  0  0  0  0  0
   -0.0585    1.7667   -0.5007 C   0  0  0  0  0  3  0  0  0  0  0  0
   -0.0585    2.7523    0.1823 O   0  0  0  0  0  0  0  0  0  0  0  0
    0.8192    1.2248   -2.3614 H   0  0  0  0  0  0  0  0  0  0  0  0
   -0.9362    1.2247   -2.3614 H   0  0  0  0  0  0  0  0  0  0  0  0
   -0.0585    2.7833   -2.3875 H   0  0  0  0  0  0  0  0  0  0  0  0
   -0.0585    0.5596    0.0643 H   0  0  0  0  0  0  0  0  0  0  0  0
  1  2  1  0
  1  4  1  0
  1  5  1  0
  1  6  1  0
  2  3  1  0
  2  7  1  0
  2 15  1  0
  3  8  1  0
  9 10  1  0
  9 12  1  0
  9 13  1  0
  9 14  1  0
 10 11  2  0
M  RAD  1  10   2
M  END
>  <reaction>  (11) 
rxn_475

>  <mol_properties>  (11) 
{"1": {"label": "*3", "atom_type": "Cs"}, "2": {"label": "*4", "atom_type": "S2s"}, "9": {"label": "*1", "atom_type": "CO"}, "10": {"label": "*0", "atom_type": "O2d"}, "14": {"label": "*2", "atom_type": "H0"}}

>  <type>  (11) 
unop_7

>  <geom_source>  (11) 
Heuristics

$$$$

     RDKit          3D

 15 13  0  0  0  0  0  0  0  0999 V2000
    1.3938   -1.9199    0.3851 C   0  0  0  0  0  0  0  0  0  0  0  0
   -0.0271   -1.4344    0.1578 C   0  0  0  0  0  0  0  0  0  0  0  0
   -0.6025   -0.2169    1.3779 S   0  0  0  0  0  0  0  0  0  0  0  0
    1.6893   -2.6142   -0.4051 H   0  0  0  0  0  0  0  0  0  0  0  0
    1.4804   -2.4414    1.3399 H   0  0  0  0  0  0  0  0  0  0  0  0
    2.0948   -1.0849    0.3930 H   0  0  0  0  0  0  0  0  0  0  0  0
   -0.7295   -2.2671    0.1297 H   0  0  0  0  0  0  0  0  0  0  0  0
   -0.5076   -1.0108    2.4530 H   0  0  0  0  0  0  0  0  0  0  0  0
   -0.0271    0.9585   -2.4611 C   0  0  0  0  0  0  0  0  0  0  0  0
   -0.0271    0.9585   -0.9623 C   0  0  0  0  0  3  0  0  0  0  0  0
   -0.0271    1.9441   -0.2792 O   0  0  0  0  0  0  0  0  0  0  0  0
    0.8506    0.4166   -2.8230 H   0  0  0  0  0  0  0  0  0  0  0  0
   -0.9048    0.4165   -2.8230 H   0  0  0  0  0  0  0  0  0  0  0  0
   -0.0272    1.9751   -2.8490 H   0  0  0  0  0  0  0  0  0  0  0  0
   -0.0271   -0.2487   -0.3972 H   0  0  0  0  0  0  0  0  0  0  0  0
  1  2  1  0
  1  4  1  0
  1  5  1  0
  1  6  1  0
  2  3  1  0
  2  7  1  0
  2 15  1  0
  3  8  1  0
  9 10  1  0
  9 12  1  0
  9 13  1  0
  9 14  1  0
 10 11  2  0
M  RAD  1  10   2
M  END
>  <reaction>  (12) 
rxn_475

>  <mol_properties>  (12) 
{"1": {"label": "*3", "atom_type": "Cs"}, "2": {"label": "*4", "atom_type": "S2s"}, "9": {"label": "*1", "atom_type": "CO"}, "10": {"label": "*0", "atom_type": "O2d"}, "14": {"label": "*2", "atom_type": "H0"}}

>  <type>  (12) 
unop_8

>  <geom_source>  (12) 
Heuristics

$$$$

     RDKit          3D

 15 13  0  0  0  0  0  0  0  0999 V2000
   -1.0840   -1.8021   -0.4035 C   0  0  0  0  0  0  0  0  0  0  0  0
   -0.3735   -0.7949    0.4837 C   0  0  0  0  0  0  0  0  0  0  0  0
    1.1922   -1.3937    1.1850 S   0  0  0  0  0  0  0  0  0  0  0  0
   -1.9923   -1.3643   -0.8242 H   0  0  0  0  0  0  0  0  0  0  0  0
   -1.3707   -2.6891    0.1643 H   0  0  0  0  0  0  0  0  0  0  0  0
   -0.4408   -2.1213   -1.2239 H   0  0  0  0  0  0  0  0  0  0  0  0
   -1.0191   -0.4580    1.2945 H   0  0  0  0  0  0  0  0  0  0  0  0
    0.6740   -2.4083    1.8899 H   0  0  0  0  0  0  0  0  0  0  0  0
   -0.3735    1.5980   -2.1352 C   0  0  0  0  0  0  0  0  0  0  0  0
   -0.3735    1.5980   -0.6363 C   0  0  0  0  0  3  0  0  0  0  0  0
   -0.3735    2.5836    0.0467 O   0  0  0  0  0  0  0  0  0  0  0  0
    0.5042    1.0560   -2.4970 H   0  0  0  0  0  0  0  0  0  0  0  0
   -1.2512    1.0560   -2.4970 H   0  0  0  0  0  0  0  0  0  0  0  0
   -0.3736    2.6145   -2.5231 H   0  0  0  0  0  0  0  0  0  0  0  0
   -0.3735    0.3908   -0.0713 H   0  0  0  0  0  0  0  0  0  0  0  0
  1  2  1  0
  1  4  1  0
  1  5  1  0
  1  6  1  0
  2  3  1  0
  2  7  1  0
  2 15  1  0
  3  8  1  0
  9 10  1  0
  9 12  1  0
  9 13  1  0
  9 14  1  0
 10 11  2  0
M  RAD  1  10   2
M  END
>  <reaction>  (13) 
rxn_475

>  <mol_properties>  (13) 
{"1": {"label": "*3", "atom_type": "Cs"}, "2": {"label": "*4", "atom_type": "S2s"}, "9": {"label": "*1", "atom_type": "CO"}, "10": {"label": "*0", "atom_type": "O2d"}, "14": {"label": "*2", "atom_type": "H0"}}

>  <type>  (13) 
unop_9

>  <geom_source>  (13) 
Heuristics

$$$$

     RDKit          3D

 15 13  0  0  0  0  0  0  0  0999 V2000
    0.9684   -2.1367   -0.2273 C   0  0  0  0  0  0  0  0  0  0  0  0
   -0.2622   -1.3500    0.1888 C   0  0  0  0  0  0  0  0  0  0  0  0
   -0.0000   -0.2573    1.6168 S   0  0  0  0  0  0  0  0  0  0  0  0
    0.7534   -2.7382   -1.1138 H   0  0  0  0  0  0  0  0  0  0  0  0
    1.2872   -2.8129    0.5679 H   0  0  0  0  0  0  0  0  0  0  0  0
    1.7998   -1.4691   -0.4546 H   0  0  0  0  0  0  0  0  0  0  0  0
   -1.1021   -2.0119    0.3986 H   0  0  0  0  0  0  0  0  0  0  0  0
    0.3057   -1.2179    2.4993 H   0  0  0  0  0  0  0  0  0  0  0  0
   -0.2622    1.0429   -2.4301 C   0  0  0  0  0  0  0  0  0  0  0  0
   -0.2622    1.0429   -0.9312 C   0  0  0  0  0  3  0  0  0  0  0  0
   -0.2622    2.0285   -0.2482 O   0  0  0  0  0  0  0  0  0  0  0  0
    0.6156    0.5010   -2.7919 H   0  0  0  0  0  0  0  0  0  0  0  0
   -1.1398    0.5009   -2.7919 H   0  0  0  0  0  0  0  0  0  0  0  0
   -0.2622    2.0595   -2.8180 H   0  0  0  0  0  0  0  0  0  0  0  0
   -0.2622   -0.1643   -0.3662 H   0  0  0  0  0  0  0  0  0  0  0  0
  1  2  1  0
  1  4  1  0
  1  5  1  0
  1  6  1  0
  2  3  1  0
  2  7  1  0
  2 15  1  0
  3  8  1  0
  9 10  1  0
  9 12  1  0
  9 13  1  0
  9 14  1  0
 10 11  2  0
M  RAD  1  10   2
M  END
>  <reaction>  (14) 
rxn_475

>  <mol_properties>  (14) 
{"1": {"label": "*3", "atom_type": "Cs"}, "2": {"label": "*4", "atom_type": "S2s"}, "9": {"label": "*1", "atom_type": "CO"}, "10": {"label": "*0", "atom_type": "O2d"}, "14": {"label": "*2", "atom_type": "H0"}}

>  <type>  (14) 
unop_10

>  <geom_source>  (14) 
Heuristics

$$$$

     RDKit          3D

 15 13  0  0  0  0  0  0  0  0999 V2000
   -0.5514   -0.6164    2.0030 C   0  0  0  0  0  0  0  0  0  0  0  0
    0.1590   -0.6526    0.6612 C   0  0  0  0  0  0  0  0  0  0  0  0
   -0.0579   -2.2067   -0.2550 S   0  0  0  0  0  0  0  0  0  0  0  0
   -0.4154    0.3574    2.4793 H   0  0  0  0  0  0  0  0  0  0  0  0
   -0.1538   -1.3779    2.6763 H   0  0  0  0  0  0  0  0  0  0  0  0
   -1.6199   -0.7978    1.8837 H   0  0  0  0  0  0  0  0  0  0  0  0
    1.2245   -0.4527    0.7728 H   0  0  0  0  0  0  0  0  0  0  0  0
    0.5274   -3.0067    0.6464 H   0  0  0  0  0  0  0  0  0  0  0  0
    0.1590    1.7403   -1.9576 C   0  0  0  0  0  0  0  0  0  0  0  0
    0.1590    1.7403   -0.4588 C   0  0  0  0  0  3  0  0  0  0  0  0
    0.1590    2.7259    0.2242 O   0  0  0  0  0  0  0  0  0  0  0  0
    1.0367    1.1984   -2.3195 H   0  0  0  0  0  0  0  0  0  0  0  0
   -0.7187    1.1983   -2.3195 H   0  0  0  0  0  0  0  0  0  0  0  0
    0.1590    2.7569   -2.3456 H   0  0  0  0  0  0  0  0  0  0  0  0
    0.1590    0.5331    0.1062 H   0  0  0  0  0  0  0  0  0  0  0  0
  1  2  1  0
  1  4  1  0
  1  5  1  0
  1  6  1  0
  2  3  1  0
  2  7  1  0
  2 15  1  0
  3  8  1  0
  9 10  1  0
  9 12  1  0
  9 13  1  0
  9 14  1  0
 10 11  2  0
M  RAD  1  10   2
M  END
>  <reaction>  (15) 
rxn_475

>  <mol_properties>  (15) 
{"1": {"label": "*3", "atom_type": "Cs"}, "2": {"label": "*4", "atom_type": "S2s"}, "9": {"label": "*1", "atom_type": "CO"}, "10": {"label": "*0", "atom_type": "O2d"}, "14": {"label": "*2", "atom_type": "H0"}}

>  <type>  (15) 
unop_11

>  <geom_source>  (15) 
Heuristics

$$$$

     RDKit          3D

 15 13  0  0  0  0  0  0  0  0999 V2000
   -0.4524   -2.0543   -0.6601 C   0  0  0  0  0  0  0  0  0  0  0  0
   -0.4524   -0.9664    0.3995 C   0  0  0  0  0  0  0  0  0  0  0  0
    1.0213   -0.9618    1.4626 S   0  0  0  0  0  0  0  0  0  0  0  0
   -1.3426   -1.9733   -1.2883 H   0  0  0  0  0  0  0  0  0  0  0  0
   -0.4534   -3.0453   -0.2027 H   0  0  0  0  0  0  0  0  0  0  0  0
    0.4294   -1.9787   -1.2968 H   0  0  0  0  0  0  0  0  0  0  0  0
   -1.3416   -1.0258    1.0268 H   0  0  0  0  0  0  0  0  0  0  0  0
    0.8409   -2.1796    1.9912 H   0  0  0  0  0  0  0  0  0  0  0  0
   -0.4524    1.4265   -2.2194 C   0  0  0  0  0  0  0  0  0  0  0  0
   -0.4524    1.4265   -0.7205 C   0  0  0  0  0  3  0  0  0  0  0  0
   -0.4524    2.4121   -0.0375 O   0  0  0  0  0  0  0  0  0  0  0  0
    0.4254    0.8845   -2.5812 H   0  0  0  0  0  0  0  0  0  0  0  0
   -1.3301    0.8845   -2.5812 H   0  0  0  0  0  0  0  0  0  0  0  0
   -0.4524    2.4430   -2.6073 H   0  0  0  0  0  0  0  0  0  0  0  0
   -0.4524    0.2193   -0.1555 H   0  0  0  0  0  0  0  0  0  0  0  0
  1  2  1  0
  1  4  1  0
  1  5  1  0
  1  6  1  0
  2  3  1  0
  2  7  1  0
  2 15  1  0
  3  8  1  0
  9 10  1  0
  9 12  1  0
  9 13  1  0
  9 14  1  0
 10 11  2  0
M  RAD  1  10   2
M  END
>  <reaction>  (16) 
rxn_475

>  <mol_properties>  (16) 
{"1": {"label": "*3", "atom_type": "Cs"}, "2": {"label": "*4", "atom_type": "S2s"}, "9": {"label": "*1", "atom_type": "CO"}, "10": {"label": "*0", "atom_type": "O2d"}, "14": {"label": "*2", "atom_type": "H0"}}

>  <type>  (16) 
unop_12

>  <geom_source>  (16) 
Heuristics

$$$$

     RDKit          3D

 15 13  0  0  0  0  0  0  0  0999 V2000
   -1.3780   -1.9148    0.0984 S   0  0  0  0  0  0  0  0  0  0  0  0
    2.0023   -0.6920   -1.6716 O   0  0  0  0  0  0  0  0  0  0  0  0
   -1.0587   -0.2126   -0.4600 C   0  0  0  0  0  3  0  0  0  0  0  0
   -1.8328    0.7827    0.3906 C   0  0  0  0  0  0  0  0  0  0  0  0
    2.4671    0.1952    0.4615 C   0  0  0  0  0  0  0  0  0  0  0  0
    1.5519   -0.2167   -0.6419 C   0  0  0  0  0  0  0  0  0  0  0  0
    0.3118    0.0537   -0.3462 H   0  0  0  0  0  0  0  0  0  0  0  0
   -1.3569   -0.1114   -1.5251 H   0  0  0  0  0  0  0  0  0  0  0  0
   -1.6089    1.8142    0.0473 H   0  0  0  0  0  0  0  0  0  0  0  0
   -2.9247    0.6025    0.2975 H   0  0  0  0  0  0  0  0  0  0  0  0
   -1.5319    0.6872    1.4551 H   0  0  0  0  0  0  0  0  0  0  0  0
    1.8679    0.5996    1.3029 H   0  0  0  0  0  0  0  0  0  0  0  0
    3.0483   -0.6818    0.8158 H   0  0  0  0  0  0  0  0  0  0  0  0
    3.1639    0.9800    0.0994 H   0  0  0  0  0  0  0  0  0  0  0  0
   -2.7213   -1.8858   -0.3236 H   0  0  0  0  0  0  0  0  0  0  0  0
  1  3  1  0
  1 15  1  0
  2  6  2  0
  3  4  1  0
  3  8  1  0
  4  9  1  0
  4 10  1  0
  4 11  1  0
  5  6  1  0
  5 12  1  0
  5 13  1  0
  5 14  1  0
  6  7  1  0
M  RAD  1   3   2
M  END
>  <reaction>  (17) 
rxn_475

>  <mol_properties>  (17) 
{"1": {"label": "*3", "atom_type": "Cs"}, "2": {"label": "*4", "atom_type": "S2s"}, "9": {"label": "*1", "atom_type": "CO"}, "10": {"label": "*0", "atom_type": "O2d"}, "14": {"label": "*2", "atom_type": "H0"}}

>  <type>  (17) 
unop_13

>  <geom_source>  (17) 
AutoTST

$$$$
