
     RDKit          3D

 15 14  0  0  0  0  0  0  0  0999 V2000
   -0.6986    1.3249   -0.1641 C   0  0  0  0  0  0  0  0  0  0  0  0
   -0.2590   -0.0344    0.3671 C   0  0  0  0  0  0  0  0  0  0  0  0
   -0.4734   -0.1429    1.8733 C   0  0  0  0  0  0  0  0  0  0  0  0
   -0.9841   -1.1722   -0.3462 C   0  0  0  0  0  0  0  0  0  0  0  0
   -0.7805   -1.1911   -1.7444 O   0  0  0  0  0  0  0  0  0  0  0  0
   -0.1246    2.1306    0.2976 H   0  0  0  0  0  0  0  0  0  0  0  0
   -1.7557    1.4964    0.0581 H   0  0  0  0  0  0  0  0  0  0  0  0
   -0.5709    1.3852   -1.2449 H   0  0  0  0  0  0  0  0  0  0  0  0
    0.8141   -0.1541    0.1667 H   0  0  0  0  0  0  0  0  0  0  0  0
   -1.5346   -0.0466    2.1192 H   0  0  0  0  0  0  0  0  0  0  0  0
    0.0611    0.6480    2.4019 H   0  0  0  0  0  0  0  0  0  0  0  0
   -0.1249   -1.1023    2.2618 H   0  0  0  0  0  0  0  0  0  0  0  0
   -0.6918   -2.1316    0.1011 H   0  0  0  0  0  0  0  0  0  0  0  0
   -2.0629   -1.0627   -0.2056 H   0  0  0  0  0  0  0  0  0  0  0  0
    0.1528   -1.3298   -1.9125 H   0  0  0  0  0  0  0  0  0  0  0  0
  1  2  1  0
  1  6  1  0
  1  7  1  0
  1  8  1  0
  2  3  1  0
  2  4  1  0
  2  9  1  0
  3 10  1  0
  3 11  1  0
  3 12  1  0
  4  5  1  0
  4 13  1  0
  4 14  1  0
  5 15  1  0
M  END
>  <reaction>  (1) 
rxn_422

>  <mol_properties>  (1) 
{"3": {"label": "donator", "atom_type": "Cs"}, "12": {"label": "d_hydrogen", "atom_type": "H0"}}

>  <type>  (1) 
r1h

$$$$

     RDKit          3D

  8  7  0  0  0  0  0  0  0  0999 V2000
    1.4038   -0.4003    0.0140 C   0  0  0  0  0  0  0  0  0  0  0  0
    0.2804    0.0563    0.4920 C   0  0  0  0  0  3  0  0  0  0  0  0
   -1.0935    0.3323    0.0625 C   0  0  0  0  0  0  0  0  0  0  0  0
    1.4898   -0.7154   -1.0285 H   0  0  0  0  0  0  0  0  0  0  0  0
    2.2990   -0.4891    0.6210 H   0  0  0  0  0  0  0  0  0  0  0  0
   -1.3399    1.3883    0.1900 H   0  0  0  0  0  0  0  0  0  0  0  0
   -1.2285    0.0762   -0.9967 H   0  0  0  0  0  0  0  0  0  0  0  0
   -1.8111   -0.2482    0.6457 H   0  0  0  0  0  0  0  0  0  0  0  0
  1  2  2  3
  1  4  1  0
  1  5  1  0
  2  3  1  0
  3  6  1  0
  3  7  1  0
  3  8  1  0
M  RAD  1   2   2
M  END
>  <reaction>  (2) 
rxn_422

>  <mol_properties>  (2) 
{"1": {"label": "acceptor", "atom_type": "Cd"}}

>  <type>  (2) 
r2

$$$$

     RDKit          3D

  9  8  0  0  0  0  0  0  0  0999 V2000
    1.1303   -0.2933   -0.7510 C   0  0  0  0  0  0  0  0  0  0  0  0
    0.2866    0.4560   -0.0588 C   0  0  0  0  0  0  0  0  0  0  0  0
   -0.9719   -0.0331    0.5823 C   0  0  0  0  0  0  0  0  0  0  0  0
    2.0274    0.1230   -1.1916 H   0  0  0  0  0  0  0  0  0  0  0  0
    0.9532   -1.3530   -0.9023 H   0  0  0  0  0  0  0  0  0  0  0  0
    0.5065    1.5132    0.0659 H   0  0  0  0  0  0  0  0  0  0  0  0
   -0.9526    0.1426    1.6610 H   0  0  0  0  0  0  0  0  0  0  0  0
   -1.1182   -1.1002    0.4106 H   0  0  0  0  0  0  0  0  0  0  0  0
   -1.8412    0.5010    0.1901 H   0  0  0  0  0  0  0  0  0  0  0  0
  1  2  2  3
  1  4  1  0
  1  5  1  0
  2  3  1  0
  2  6  1  0
  3  7  1  0
  3  8  1  0
  3  9  1  0
M  END
>  <reaction>  (3) 
rxn_422

>  <mol_properties>  (3) 
{"0": {"label": "a_hydrogen", "atom_type": "H0"}, "2": {"label": "acceptor", "atom_type": "Cd"}}

>  <type>  (3) 
r2h

$$$$

     RDKit          3D

 23 21  0  0  0  0  0  0  0  0999 V2000
    0.7378    0.2072   -2.7849 C   0  0  0  0  0  0  0  0  0  0  0  0
    0.6740    0.4036   -1.2710 C   0  0  0  0  0  0  0  0  0  0  0  0
    0.8900    1.8652   -0.8925 C   0  0  0  0  0  0  0  0  0  0  0  0
   -0.6408   -0.0911   -0.7002 C   0  0  0  0  0  0  0  0  0  0  0  0
   -0.9474   -1.4244   -0.9563 O   0  0  0  0  0  0  0  0  0  0  0  0
    1.7110    0.5125   -3.1750 H   0  0  0  0  0  0  0  0  0  0  0  0
   -0.0279    0.8105   -3.2799 H   0  0  0  0  0  0  0  0  0  0  0  0
    0.5686   -0.8347   -3.0568 H   0  0  0  0  0  0  0  0  0  0  0  0
    1.4744   -0.1924   -0.8114 H   0  0  0  0  0  0  0  0  0  0  0  0
    0.1106    2.4937   -1.3317 H   0  0  0  0  0  0  0  0  0  0  0  0
    1.8522    2.2240   -1.2613 H   0  0  0  0  0  0  0  0  0  0  0  0
    0.8671    2.0095    0.1886 H   0  0  0  0  0  0  0  0  0  0  0  0
   -0.5531    0.0361    0.5678 H   0  0  0  0  0  0  0  0  0  0  0  0
   -1.4955    0.5132   -1.0104 H   0  0  0  0  0  0  0  0  0  0  0  0
   -0.2330   -1.9708   -0.6195 H   0  0  0  0  0  0  0  0  0  0  0  0
   -1.0708   -1.2311    2.3950 C   0  0  0  0  0  0  0  0  0  0  0  0
   -0.4133   -0.1701    1.9812 C   0  0  0  0  0  3  0  0  0  0  0  0
    0.4471    0.7838    2.7207 C   0  0  0  0  0  0  0  0  0  0  0  0
   -1.0487   -1.5485    3.4374 H   0  0  0  0  0  0  0  0  0  0  0  0
   -1.6701   -1.8252    1.7126 H   0  0  0  0  0  0  0  0  0  0  0  0
    0.0595    1.8024    2.6405 H   0  0  0  0  0  0  0  0  0  0  0  0
    0.5070    0.5239    3.7829 H   0  0  0  0  0  0  0  0  0  0  0  0
    1.4616    0.7933    2.3144 H   0  0  0  0  0  0  0  0  0  0  0  0
  1  2  1  0
  1  6  1  0
  1  7  1  0
  1  8  1  0
  2  3  1  0
  2  4  1  0
  2  9  1  0
  3 10  1  0
  3 11  1  0
  3 12  1  0
  4  5  1  0
  4 13  1  0
  4 14  1  0
  5 15  1  0
 16 17  2  3
 16 19  1  0
 16 20  1  0
 17 18  1  0
 18 21  1  0
 18 22  1  0
 18 23  1  0
M  RAD  1  17   2
M  END
>  <reaction>  (4) 
rxn_422

>  <mol_properties>  (4) 
{"1": {"label": "*0", "atom_type": "Cs"}, "3": {"label": "*1", "atom_type": "Cs"}, "12": {"label": "*2", "atom_type": "H0"}, "15": {"label": "*4", "atom_type": "Cd"}, "16": {"label": "*3", "atom_type": "Cd"}}

>  <type>  (4) 
ts

$$$$

     RDKit          3D

 23 21  0  0  0  0  0  0  0  0999 V2000
    0.7867    0.5372   -2.7649 C   0  0  0  0  0  0  0  0  0  0  0  0
    0.7867    0.5372   -1.2408 C   0  0  0  0  0  0  0  0  0  0  0  0
    0.7867    1.9559   -0.6809 C   0  0  0  0  0  0  0  0  0  0  0  0
   -0.4008   -0.2432   -0.6838 C   0  0  0  0  0  3  0  0  0  0  0  0
   -0.4397   -1.5945   -1.0956 O   0  0  0  0  0  0  0  0  0  0  0  0
    1.6764    1.0337   -3.1569 H   0  0  0  0  0  0  0  0  0  0  0  0
   -0.0896    1.0699   -3.1454 H   0  0  0  0  0  0  0  0  0  0  0  0
    0.7562   -0.4788   -3.1586 H   0  0  0  0  0  0  0  0  0  0  0  0
    1.6995    0.0347   -0.8943 H   0  0  0  0  0  0  0  0  0  0  0  0
   -0.1166    2.4909   -0.9871 H   0  0  0  0  0  0  0  0  0  0  0  0
    1.6452    2.5206   -1.0478 H   0  0  0  0  0  0  0  0  0  0  0  0
    0.8240    1.9583    0.4106 H   0  0  0  0  0  0  0  0  0  0  0  0
   -0.4070   -0.1573    0.6311 H   0  0  0  0  0  0  0  0  0  0  0  0
   -1.3321    0.2028   -1.0436 H   0  0  0  0  0  0  0  0  0  0  0  0
    0.3430   -2.0353   -0.7612 H   0  0  0  0  0  0  0  0  0  0  0  0
   -1.4634    0.4670    2.5315 C   0  0  0  0  0  0  0  0  0  0  0  0
   -0.4131   -0.0723    1.9328 C   0  0  0  0  0  0  0  0  0  0  0  0
    0.2852   -1.3172    2.3765 C   0  0  0  0  0  0  0  0  0  0  0  0
   -1.9006    0.0203    3.4183 H   0  0  0  0  0  0  0  0  0  0  0  0
   -1.9246    1.3730    2.1589 H   0  0  0  0  0  0  0  0  0  0  0  0
    1.3362   -1.1154    2.5985 H   0  0  0  0  0  0  0  0  0  0  0  0
   -0.1797   -1.7387    3.2686 H   0  0  0  0  0  0  0  0  0  0  0  0
    0.2679   -2.0746    1.5886 H   0  0  0  0  0  0  0  0  0  0  0  0
  1  2  1  0
  1  6  1  0
  1  7  1  0
  1  8  1  0
  2  3  1  0
  2  4  1  0
  2  9  1  0
  3 10  1  0
  3 11  1  0
  3 12  1  0
  4  5  1  0
  4 14  1  0
  5 15  1  0
 13 17  1  0
 16 17  2  3
 16 19  1  0
 16 20  1  0
 17 18  1  0
 18 21  1  0
 18 22  1  0
 18 23  1  0
M  RAD  1   4   2
M  END
>  <reaction>  (5) 
rxn_422

>  <mol_properties>  (5) 
{"1": {"label": "*0", "atom_type": "Cs"}, "3": {"label": "*1", "atom_type": "Cs"}, "12": {"label": "*2", "atom_type": "H0"}, "15": {"label": "*4", "atom_type": "Cd"}, "16": {"label": "*3", "atom_type": "Cd"}}

>  <type>  (5) 
unop_1

>  <geom_source>  (5) 
Heuristics

$$$$

     RDKit          3D

 23 21  0  0  0  0  0  0  0  0999 V2000
    0.8073    0.4309   -2.7919 C   0  0  0  0  0  0  0  0  0  0  0  0
    0.8073    0.4309   -1.2677 C   0  0  0  0  0  0  0  0  0  0  0  0
    0.8073    1.8496   -0.7079 C   0  0  0  0  0  0  0  0  0  0  0  0
   -0.3802   -0.3495   -0.7108 C   0  0  0  0  0  3  0  0  0  0  0  0
   -0.4190   -1.7008   -1.1225 O   0  0  0  0  0  0  0  0  0  0  0  0
    1.6970    0.9274   -3.1839 H   0  0  0  0  0  0  0  0  0  0  0  0
   -0.0689    0.9636   -3.1724 H   0  0  0  0  0  0  0  0  0  0  0  0
    0.7769   -0.5851   -3.1855 H   0  0  0  0  0  0  0  0  0  0  0  0
    1.7202   -0.0716   -0.9213 H   0  0  0  0  0  0  0  0  0  0  0  0
   -0.0960    2.3846   -1.0141 H   0  0  0  0  0  0  0  0  0  0  0  0
    1.6659    2.4143   -1.0748 H   0  0  0  0  0  0  0  0  0  0  0  0
    0.8446    1.8520    0.3837 H   0  0  0  0  0  0  0  0  0  0  0  0
   -0.3864   -0.2636    0.6042 H   0  0  0  0  0  0  0  0  0  0  0  0
   -1.3114    0.0964   -1.0705 H   0  0  0  0  0  0  0  0  0  0  0  0
    0.3637   -2.1416   -0.7882 H   0  0  0  0  0  0  0  0  0  0  0  0
    0.1036    0.9081    2.4760 C   0  0  0  0  0  0  0  0  0  0  0  0
   -0.3925   -0.1786    1.9058 C   0  0  0  0  0  0  0  0  0  0  0  0
   -1.2976   -1.1636    2.5727 C   0  0  0  0  0  0  0  0  0  0  0  0
   -0.1255    1.1619    3.5057 H   0  0  0  0  0  0  0  0  0  0  0  0
    0.7558    1.5834    1.9367 H   0  0  0  0  0  0  0  0  0  0  0  0
   -0.8520   -2.1616    2.5753 H   0  0  0  0  0  0  0  0  0  0  0  0
   -1.5066   -0.8780    3.6044 H   0  0  0  0  0  0  0  0  0  0  0  0
   -2.2478   -1.2425    2.0382 H   0  0  0  0  0  0  0  0  0  0  0  0
  1  2  1  0
  1  6  1  0
  1  7  1  0
  1  8  1  0
  2  3  1  0
  2  4  1  0
  2  9  1  0
  3 10  1  0
  3 11  1  0
  3 12  1  0
  4  5  1  0
  4 14  1  0
  5 15  1  0
 13 17  1  0
 16 17  2  3
 16 19  1  0
 16 20  1  0
 17 18  1  0
 18 21  1  0
 18 22  1  0
 18 23  1  0
M  RAD  1   4   2
M  END
>  <reaction>  (6) 
rxn_422

>  <mol_properties>  (6) 
{"1": {"label": "*0", "atom_type": "Cs"}, "3": {"label": "*1", "atom_type": "Cs"}, "12": {"label": "*2", "atom_type": "H0"}, "15": {"label": "*4", "atom_type": "Cd"}, "16": {"label": "*3", "atom_type": "Cd"}}

>  <type>  (6) 
unop_2

>  <geom_source>  (6) 
Heuristics

$$$$

     RDKit          3D

 23 21  0  0  0  0  0  0  0  0999 V2000
    0.7199    0.5193   -2.7791 C   0  0  0  0  0  0  0  0  0  0  0  0
    0.7199    0.5193   -1.2550 C   0  0  0  0  0  0  0  0  0  0  0  0
    0.7199    1.9381   -0.6951 C   0  0  0  0  0  0  0  0  0  0  0  0
   -0.4676   -0.2610   -0.6980 C   0  0  0  0  0  3  0  0  0  0  0  0
   -0.5064   -1.6123   -1.1098 O   0  0  0  0  0  0  0  0  0  0  0  0
    1.6096    1.0159   -3.1711 H   0  0  0  0  0  0  0  0  0  0  0  0
   -0.1564    1.0520   -3.1596 H   0  0  0  0  0  0  0  0  0  0  0  0
    0.6895   -0.4966   -3.1728 H   0  0  0  0  0  0  0  0  0  0  0  0
    1.6327    0.0168   -0.9085 H   0  0  0  0  0  0  0  0  0  0  0  0
   -0.1834    2.4731   -1.0013 H   0  0  0  0  0  0  0  0  0  0  0  0
    1.5784    2.5028   -1.0620 H   0  0  0  0  0  0  0  0  0  0  0  0
    0.7572    1.9405    0.3964 H   0  0  0  0  0  0  0  0  0  0  0  0
   -0.4738   -0.1752    0.6169 H   0  0  0  0  0  0  0  0  0  0  0  0
   -1.3988    0.1849   -1.0578 H   0  0  0  0  0  0  0  0  0  0  0  0
    0.2762   -2.0531   -0.7754 H   0  0  0  0  0  0  0  0  0  0  0  0
   -1.6394   -0.1401    2.5553 C   0  0  0  0  0  0  0  0  0  0  0  0
   -0.4799   -0.0901    1.9186 C   0  0  0  0  0  0  0  0  0  0  0  0
    0.8075   -0.6514    2.4300 C   0  0  0  0  0  0  0  0  0  0  0  0
   -1.7310   -0.6112    3.5283 H   0  0  0  0  0  0  0  0  0  0  0  0
   -2.5386    0.2868    2.1291 H   0  0  0  0  0  0  0  0  0  0  0  0
    1.5654    0.1313    2.5177 H   0  0  0  0  0  0  0  0  0  0  0  0
    0.6791   -1.1165    3.4082 H   0  0  0  0  0  0  0  0  0  0  0  0
    1.2054   -1.4016    1.7417 H   0  0  0  0  0  0  0  0  0  0  0  0
  1  2  1  0
  1  6  1  0
  1  7  1  0
  1  8  1  0
  2  3  1  0
  2  4  1  0
  2  9  1  0
  3 10  1  0
  3 11  1  0
  3 12  1  0
  4  5  1  0
  4 14  1  0
  5 15  1  0
 13 17  1  0
 16 17  2  3
 16 19  1  0
 16 20  1  0
 17 18  1  0
 18 21  1  0
 18 22  1  0
 18 23  1  0
M  RAD  1   4   2
M  END
>  <reaction>  (7) 
rxn_422

>  <mol_properties>  (7) 
{"1": {"label": "*0", "atom_type": "Cs"}, "3": {"label": "*1", "atom_type": "Cs"}, "12": {"label": "*2", "atom_type": "H0"}, "15": {"label": "*4", "atom_type": "Cd"}, "16": {"label": "*3", "atom_type": "Cd"}}

>  <type>  (7) 
unop_3

>  <geom_source>  (7) 
Heuristics

$$$$

     RDKit          3D

 23 21  0  0  0  0  0  0  0  0999 V2000
    0.8062    0.4966   -2.7808 C   0  0  0  0  0  0  0  0  0  0  0  0
    0.8062    0.4966   -1.2566 C   0  0  0  0  0  0  0  0  0  0  0  0
    0.8062    1.9154   -0.6967 C   0  0  0  0  0  0  0  0  0  0  0  0
   -0.3813   -0.2837   -0.6997 C   0  0  0  0  0  3  0  0  0  0  0  0
   -0.4201   -1.6350   -1.1114 O   0  0  0  0  0  0  0  0  0  0  0  0
    1.6959    0.9932   -3.1728 H   0  0  0  0  0  0  0  0  0  0  0  0
   -0.0700    1.0293   -3.1612 H   0  0  0  0  0  0  0  0  0  0  0  0
    0.7758   -0.5193   -3.1744 H   0  0  0  0  0  0  0  0  0  0  0  0
    1.7191   -0.0059   -0.9102 H   0  0  0  0  0  0  0  0  0  0  0  0
   -0.0970    2.4504   -1.0030 H   0  0  0  0  0  0  0  0  0  0  0  0
    1.6648    2.4801   -1.0637 H   0  0  0  0  0  0  0  0  0  0  0  0
    0.8435    1.9178    0.3948 H   0  0  0  0  0  0  0  0  0  0  0  0
   -0.3874   -0.1978    0.6153 H   0  0  0  0  0  0  0  0  0  0  0  0
   -1.3125    0.1622   -1.0594 H   0  0  0  0  0  0  0  0  0  0  0  0
    0.3626   -2.0758   -0.7771 H   0  0  0  0  0  0  0  0  0  0  0  0
    0.6507   -0.5690    2.5905 C   0  0  0  0  0  0  0  0  0  0  0  0
   -0.3936   -0.1128    1.9169 C   0  0  0  0  0  0  0  0  0  0  0  0
   -1.8060   -0.1271    2.4058 C   0  0  0  0  0  0  0  0  0  0  0  0
    0.5416   -0.9995    3.5804 H   0  0  0  0  0  0  0  0  0  0  0  0
    1.6514   -0.5296    2.1791 H   0  0  0  0  0  0  0  0  0  0  0  0
   -2.4458   -0.7002    1.7297 H   0  0  0  0  0  0  0  0  0  0  0  0
   -1.8787   -0.5656    3.4018 H   0  0  0  0  0  0  0  0  0  0  0  0
   -2.2142    0.8861    2.4450 H   0  0  0  0  0  0  0  0  0  0  0  0
  1  2  1  0
  1  6  1  0
  1  7  1  0
  1  8  1  0
  2  3  1  0
  2  4  1  0
  2  9  1  0
  3 10  1  0
  3 11  1  0
  3 12  1  0
  4  5  1  0
  4 14  1  0
  5 15  1  0
 13 17  1  0
 16 17  2  3
 16 19  1  0
 16 20  1  0
 17 18  1  0
 18 21  1  0
 18 22  1  0
 18 23  1  0
M  RAD  1   4   2
M  END
>  <reaction>  (8) 
rxn_422

>  <mol_properties>  (8) 
{"1": {"label": "*0", "atom_type": "Cs"}, "3": {"label": "*1", "atom_type": "Cs"}, "12": {"label": "*2", "atom_type": "H0"}, "15": {"label": "*4", "atom_type": "Cd"}, "16": {"label": "*3", "atom_type": "Cd"}}

>  <type>  (8) 
unop_4

>  <geom_source>  (8) 
Heuristics

$$$$

     RDKit          3D

 23 21  0  0  0  0  0  0  0  0999 V2000
    0.7193    0.4050   -2.7976 C   0  0  0  0  0  0  0  0  0  0  0  0
    0.7193    0.4050   -1.2735 C   0  0  0  0  0  0  0  0  0  0  0  0
    0.7193    1.8237   -0.7136 C   0  0  0  0  0  0  0  0  0  0  0  0
   -0.4682   -0.3754   -0.7166 C   0  0  0  0  0  3  0  0  0  0  0  0
   -0.5070   -1.7266   -1.1283 O   0  0  0  0  0  0  0  0  0  0  0  0
    1.6090    0.9015   -3.1897 H   0  0  0  0  0  0  0  0  0  0  0  0
   -0.1570    0.9377   -3.1781 H   0  0  0  0  0  0  0  0  0  0  0  0
    0.6889   -0.6110   -3.1913 H   0  0  0  0  0  0  0  0  0  0  0  0
    1.6321   -0.0975   -0.9270 H   0  0  0  0  0  0  0  0  0  0  0  0
   -0.1840    2.3587   -1.0198 H   0  0  0  0  0  0  0  0  0  0  0  0
    1.5778    2.3884   -1.0806 H   0  0  0  0  0  0  0  0  0  0  0  0
    0.7566    1.8261    0.3779 H   0  0  0  0  0  0  0  0  0  0  0  0
   -0.4744   -0.2895    0.5984 H   0  0  0  0  0  0  0  0  0  0  0  0
   -1.3994    0.0706   -1.0763 H   0  0  0  0  0  0  0  0  0  0  0  0
    0.2756   -2.1675   -0.7940 H   0  0  0  0  0  0  0  0  0  0  0  0
   -1.4394   -0.8192    2.5746 C   0  0  0  0  0  0  0  0  0  0  0  0
   -0.4805   -0.2045    1.9000 C   0  0  0  0  0  0  0  0  0  0  0  0
    0.6228    0.5979    2.5109 C   0  0  0  0  0  0  0  0  0  0  0  0
   -1.4859   -0.7770    3.6577 H   0  0  0  0  0  0  0  0  0  0  0  0
   -2.2121   -1.3864    2.0710 H   0  0  0  0  0  0  0  0  0  0  0  0
    0.6038    1.6274    2.1443 H   0  0  0  0  0  0  0  0  0  0  0  0
    0.5453    0.6190    3.5986 H   0  0  0  0  0  0  0  0  0  0  0  0
    1.5985    0.1844    2.2432 H   0  0  0  0  0  0  0  0  0  0  0  0
  1  2  1  0
  1  6  1  0
  1  7  1  0
  1  8  1  0
  2  3  1  0
  2  4  1  0
  2  9  1  0
  3 10  1  0
  3 11  1  0
  3 12  1  0
  4  5  1  0
  4 14  1  0
  5 15  1  0
 13 17  1  0
 16 17  2  3
 16 19  1  0
 16 20  1  0
 17 18  1  0
 18 21  1  0
 18 22  1  0
 18 23  1  0
M  RAD  1   4   2
M  END
>  <reaction>  (9) 
rxn_422

>  <mol_properties>  (9) 
{"1": {"label": "*0", "atom_type": "Cs"}, "3": {"label": "*1", "atom_type": "Cs"}, "12": {"label": "*2", "atom_type": "H0"}, "15": {"label": "*4", "atom_type": "Cd"}, "16": {"label": "*3", "atom_type": "Cd"}}

>  <type>  (9) 
unop_5

>  <geom_source>  (9) 
Heuristics

$$$$

     RDKit          3D

 23 21  0  0  0  0  0  0  0  0999 V2000
    0.8470    0.4774   -2.7653 C   0  0  0  0  0  0  0  0  0  0  0  0
    0.8470    0.4774   -1.2412 C   0  0  0  0  0  0  0  0  0  0  0  0
    0.8470    1.8961   -0.6813 C   0  0  0  0  0  0  0  0  0  0  0  0
   -0.3405   -0.3030   -0.6842 C   0  0  0  0  0  3  0  0  0  0  0  0
   -0.3793   -1.6542   -1.0960 O   0  0  0  0  0  0  0  0  0  0  0  0
    1.7367    0.9739   -3.1574 H   0  0  0  0  0  0  0  0  0  0  0  0
   -0.0292    1.0101   -3.1458 H   0  0  0  0  0  0  0  0  0  0  0  0
    0.8166   -0.5386   -3.1590 H   0  0  0  0  0  0  0  0  0  0  0  0
    1.7599   -0.0251   -0.8947 H   0  0  0  0  0  0  0  0  0  0  0  0
   -0.0562    2.4312   -0.9875 H   0  0  0  0  0  0  0  0  0  0  0  0
    1.7056    2.4608   -1.0482 H   0  0  0  0  0  0  0  0  0  0  0  0
    0.8843    1.8986    0.4102 H   0  0  0  0  0  0  0  0  0  0  0  0
   -0.3466   -0.2171    0.6307 H   0  0  0  0  0  0  0  0  0  0  0  0
   -1.2717    0.1430   -1.0440 H   0  0  0  0  0  0  0  0  0  0  0  0
    0.4034   -2.0951   -0.7616 H   0  0  0  0  0  0  0  0  0  0  0  0
    0.3016   -1.0442    2.6339 C   0  0  0  0  0  0  0  0  0  0  0  0
   -0.3528   -0.1321    1.9324 C   0  0  0  0  0  0  0  0  0  0  0  0
   -1.6960    0.4223    2.2824 C   0  0  0  0  0  0  0  0  0  0  0  0
   -0.1137   -1.4633    3.5444 H   0  0  0  0  0  0  0  0  0  0  0  0
    1.2746   -1.4055    2.3255 H   0  0  0  0  0  0  0  0  0  0  0  0
   -2.4150    0.2350    1.4807 H   0  0  0  0  0  0  0  0  0  0  0  0
   -2.0828   -0.0201    3.2012 H   0  0  0  0  0  0  0  0  0  0  0  0
   -1.6465    1.5060    2.4164 H   0  0  0  0  0  0  0  0  0  0  0  0
  1  2  1  0
  1  6  1  0
  1  7  1  0
  1  8  1  0
  2  3  1  0
  2  4  1  0
  2  9  1  0
  3 10  1  0
  3 11  1  0
  3 12  1  0
  4  5  1  0
  4 14  1  0
  5 15  1  0
 13 17  1  0
 16 17  2  3
 16 19  1  0
 16 20  1  0
 17 18  1  0
 18 21  1  0
 18 22  1  0
 18 23  1  0
M  RAD  1   4   2
M  END
>  <reaction>  (10) 
rxn_422

>  <mol_properties>  (10) 
{"1": {"label": "*0", "atom_type": "Cs"}, "3": {"label": "*1", "atom_type": "Cs"}, "12": {"label": "*2", "atom_type": "H0"}, "15": {"label": "*4", "atom_type": "Cd"}, "16": {"label": "*3", "atom_type": "Cd"}}

>  <type>  (10) 
unop_6

>  <geom_source>  (10) 
Heuristics

$$$$

     RDKit          3D

 23 21  0  0  0  0  0  0  0  0999 V2000
    0.8644    0.4243   -2.7571 C   0  0  0  0  0  0  0  0  0  0  0  0
    0.8644    0.4243   -1.2330 C   0  0  0  0  0  0  0  0  0  0  0  0
    0.8644    1.8431   -0.6731 C   0  0  0  0  0  0  0  0  0  0  0  0
   -0.3231   -0.3561   -0.6761 C   0  0  0  0  0  3  0  0  0  0  0  0
   -0.3619   -1.7073   -1.0878 O   0  0  0  0  0  0  0  0  0  0  0  0
    1.7542    0.9209   -3.1492 H   0  0  0  0  0  0  0  0  0  0  0  0
   -0.0118    0.9570   -3.1376 H   0  0  0  0  0  0  0  0  0  0  0  0
    0.8340   -0.5916   -3.1508 H   0  0  0  0  0  0  0  0  0  0  0  0
    1.7773   -0.0782   -0.8866 H   0  0  0  0  0  0  0  0  0  0  0  0
   -0.0388    2.3781   -0.9794 H   0  0  0  0  0  0  0  0  0  0  0  0
    1.7230    2.4077   -1.0401 H   0  0  0  0  0  0  0  0  0  0  0  0
    0.9017    1.8455    0.4184 H   0  0  0  0  0  0  0  0  0  0  0  0
   -0.3292   -0.2702    0.6389 H   0  0  0  0  0  0  0  0  0  0  0  0
   -1.2543    0.0899   -1.0358 H   0  0  0  0  0  0  0  0  0  0  0  0
    0.4208   -2.1482   -0.7535 H   0  0  0  0  0  0  0  0  0  0  0  0
   -0.2470   -1.2976    2.6525 C   0  0  0  0  0  0  0  0  0  0  0  0
   -0.3354   -0.1852    1.9405 C   0  0  0  0  0  0  0  0  0  0  0  0
   -1.2735    0.9441    2.2214 C   0  0  0  0  0  0  0  0  0  0  0  0
   -0.8762   -1.4658    3.5202 H   0  0  0  0  0  0  0  0  0  0  0  0
    0.4558   -2.0803    2.3956 H   0  0  0  0  0  0  0  0  0  0  0  0
   -1.9350    1.1212    1.3695 H   0  0  0  0  0  0  0  0  0  0  0  0
   -1.8895    0.7418    3.0985 H   0  0  0  0  0  0  0  0  0  0  0  0
   -0.7236    1.8729    2.3937 H   0  0  0  0  0  0  0  0  0  0  0  0
  1  2  1  0
  1  6  1  0
  1  7  1  0
  1  8  1  0
  2  3  1  0
  2  4  1  0
  2  9  1  0
  3 10  1  0
  3 11  1  0
  3 12  1  0
  4  5  1  0
  4 14  1  0
  5 15  1  0
 13 17  1  0
 16 17  2  3
 16 19  1  0
 16 20  1  0
 17 18  1  0
 18 21  1  0
 18 22  1  0
 18 23  1  0
M  RAD  1   4   2
M  END
>  <reaction>  (11) 
rxn_422

>  <mol_properties>  (11) 
{"1": {"label": "*0", "atom_type": "Cs"}, "3": {"label": "*1", "atom_type": "Cs"}, "12": {"label": "*2", "atom_type": "H0"}, "15": {"label": "*4", "atom_type": "Cd"}, "16": {"label": "*3", "atom_type": "Cd"}}

>  <type>  (11) 
unop_7

>  <geom_source>  (11) 
Heuristics

$$$$

     RDKit          3D

 23 21  0  0  0  0  0  0  0  0999 V2000
    0.8304    0.5015   -2.7669 C   0  0  0  0  0  0  0  0  0  0  0  0
    0.8304    0.5015   -1.2428 C   0  0  0  0  0  0  0  0  0  0  0  0
    0.8304    1.9203   -0.6829 C   0  0  0  0  0  0  0  0  0  0  0  0
   -0.3571   -0.2788   -0.6859 C   0  0  0  0  0  3  0  0  0  0  0  0
   -0.3959   -1.6301   -1.0976 O   0  0  0  0  0  0  0  0  0  0  0  0
    1.7201    0.9981   -3.1590 H   0  0  0  0  0  0  0  0  0  0  0  0
   -0.0459    1.0342   -3.1474 H   0  0  0  0  0  0  0  0  0  0  0  0
    0.8000   -0.5144   -3.1606 H   0  0  0  0  0  0  0  0  0  0  0  0
    1.7433   -0.0010   -0.8964 H   0  0  0  0  0  0  0  0  0  0  0  0
   -0.0729    2.4553   -0.9892 H   0  0  0  0  0  0  0  0  0  0  0  0
    1.6890    2.4850   -1.0499 H   0  0  0  0  0  0  0  0  0  0  0  0
    0.8677    1.9227    0.4086 H   0  0  0  0  0  0  0  0  0  0  0  0
   -0.3633   -0.1930    0.6291 H   0  0  0  0  0  0  0  0  0  0  0  0
   -1.2883    0.1671   -1.0456 H   0  0  0  0  0  0  0  0  0  0  0  0
    0.3867   -2.0709   -0.7633 H   0  0  0  0  0  0  0  0  0  0  0  0
   -1.0298    0.8873    2.5015 C   0  0  0  0  0  0  0  0  0  0  0  0
   -0.3694   -0.1079    1.9307 C   0  0  0  0  0  0  0  0  0  0  0  0
   -0.3559   -1.5217    2.4157 C   0  0  0  0  0  0  0  0  0  0  0  0
   -1.6270    0.7320    3.3939 H   0  0  0  0  0  0  0  0  0  0  0  0
   -0.9985    1.8921    2.0995 H   0  0  0  0  0  0  0  0  0  0  0  0
    0.6628   -1.8441    2.6461 H   0  0  0  0  0  0  0  0  0  0  0  0
   -0.9652   -1.6415    3.3124 H   0  0  0  0  0  0  0  0  0  0  0  0
   -0.7365   -2.2000    1.6477 H   0  0  0  0  0  0  0  0  0  0  0  0
  1  2  1  0
  1  6  1  0
  1  7  1  0
  1  8  1  0
  2  3  1  0
  2  4  1  0
  2  9  1  0
  3 10  1  0
  3 11  1  0
  3 12  1  0
  4  5  1  0
  4 14  1  0
  5 15  1  0
 13 17  1  0
 16 17  2  3
 16 19  1  0
 16 20  1  0
 17 18  1  0
 18 21  1  0
 18 22  1  0
 18 23  1  0
M  RAD  1   4   2
M  END
>  <reaction>  (12) 
rxn_422

>  <mol_properties>  (12) 
{"1": {"label": "*0", "atom_type": "Cs"}, "3": {"label": "*1", "atom_type": "Cs"}, "12": {"label": "*2", "atom_type": "H0"}, "15": {"label": "*4", "atom_type": "Cd"}, "16": {"label": "*3", "atom_type": "Cd"}}

>  <type>  (12) 
unop_8

>  <geom_source>  (12) 
Heuristics

$$$$

     RDKit          3D

 23 21  0  0  0  0  0  0  0  0999 V2000
    0.7745    0.4784   -2.7951 C   0  0  0  0  0  0  0  0  0  0  0  0
    0.7745    0.4784   -1.2710 C   0  0  0  0  0  0  0  0  0  0  0  0
    0.7745    1.8972   -0.7111 C   0  0  0  0  0  0  0  0  0  0  0  0
   -0.4130   -0.3020   -0.7141 C   0  0  0  0  0  3  0  0  0  0  0  0
   -0.4518   -1.6532   -1.1258 O   0  0  0  0  0  0  0  0  0  0  0  0
    1.6642    0.9750   -3.1872 H   0  0  0  0  0  0  0  0  0  0  0  0
   -0.1017    1.0111   -3.1756 H   0  0  0  0  0  0  0  0  0  0  0  0
    0.7441   -0.5375   -3.1888 H   0  0  0  0  0  0  0  0  0  0  0  0
    1.6874   -0.0241   -0.9245 H   0  0  0  0  0  0  0  0  0  0  0  0
   -0.1288    2.4322   -1.0173 H   0  0  0  0  0  0  0  0  0  0  0  0
    1.6331    2.4619   -1.0781 H   0  0  0  0  0  0  0  0  0  0  0  0
    0.8118    1.8996    0.3804 H   0  0  0  0  0  0  0  0  0  0  0  0
   -0.4192   -0.2161    0.6009 H   0  0  0  0  0  0  0  0  0  0  0  0
   -1.3442    0.1440   -1.0738 H   0  0  0  0  0  0  0  0  0  0  0  0
    0.3309   -2.0941   -0.7915 H   0  0  0  0  0  0  0  0  0  0  0  0
    0.7282    0.0020    2.5382 C   0  0  0  0  0  0  0  0  0  0  0  0
   -0.4253   -0.1311    1.9025 C   0  0  0  0  0  0  0  0  0  0  0  0
   -1.7093   -0.5663    2.5318 C   0  0  0  0  0  0  0  0  0  0  0  0
    0.8169   -0.2052    3.5994 H   0  0  0  0  0  0  0  0  0  0  0  0
    1.6252    0.3223    2.0231 H   0  0  0  0  0  0  0  0  0  0  0  0
   -2.0888   -1.4732    2.0540 H   0  0  0  0  0  0  0  0  0  0  0  0
   -1.5839   -0.7657    3.5967 H   0  0  0  0  0  0  0  0  0  0  0  0
   -2.4798    0.1999    2.4134 H   0  0  0  0  0  0  0  0  0  0  0  0
  1  2  1  0
  1  6  1  0
  1  7  1  0
  1  8  1  0
  2  3  1  0
  2  4  1  0
  2  9  1  0
  3 10  1  0
  3 11  1  0
  3 12  1  0
  4  5  1  0
  4 14  1  0
  5 15  1  0
 13 17  1  0
 16 17  2  3
 16 19  1  0
 16 20  1  0
 17 18  1  0
 18 21  1  0
 18 22  1  0
 18 23  1  0
M  RAD  1   4   2
M  END
>  <reaction>  (13) 
rxn_422

>  <mol_properties>  (13) 
{"1": {"label": "*0", "atom_type": "Cs"}, "3": {"label": "*1", "atom_type": "Cs"}, "12": {"label": "*2", "atom_type": "H0"}, "15": {"label": "*4", "atom_type": "Cd"}, "16": {"label": "*3", "atom_type": "Cd"}}

>  <type>  (13) 
unop_9

>  <geom_source>  (13) 
Heuristics

$$$$

     RDKit          3D

 23 21  0  0  0  0  0  0  0  0999 V2000
    0.8347    0.4553   -2.7779 C   0  0  0  0  0  0  0  0  0  0  0  0
    0.8347    0.4553   -1.2538 C   0  0  0  0  0  0  0  0  0  0  0  0
    0.8347    1.8741   -0.6939 C   0  0  0  0  0  0  0  0  0  0  0  0
   -0.3528   -0.3251   -0.6969 C   0  0  0  0  0  3  0  0  0  0  0  0
   -0.3916   -1.6763   -1.1086 O   0  0  0  0  0  0  0  0  0  0  0  0
    1.7244    0.9519   -3.1700 H   0  0  0  0  0  0  0  0  0  0  0  0
   -0.0415    0.9880   -3.1584 H   0  0  0  0  0  0  0  0  0  0  0  0
    0.8043   -0.5606   -3.1716 H   0  0  0  0  0  0  0  0  0  0  0  0
    1.7476   -0.0472   -0.9073 H   0  0  0  0  0  0  0  0  0  0  0  0
   -0.0686    2.4091   -1.0001 H   0  0  0  0  0  0  0  0  0  0  0  0
    1.6933    2.4388   -1.0609 H   0  0  0  0  0  0  0  0  0  0  0  0
    0.8720    1.8765    0.3976 H   0  0  0  0  0  0  0  0  0  0  0  0
   -0.3590   -0.2392    0.6181 H   0  0  0  0  0  0  0  0  0  0  0  0
   -1.2840    0.1209   -1.0566 H   0  0  0  0  0  0  0  0  0  0  0  0
    0.3911   -2.1171   -0.7743 H   0  0  0  0  0  0  0  0  0  0  0  0
   -0.4594    1.0414    2.4801 C   0  0  0  0  0  0  0  0  0  0  0  0
   -0.3651   -0.1541    1.9197 C   0  0  0  0  0  0  0  0  0  0  0  0
   -0.9150   -1.4197    2.4944 C   0  0  0  0  0  0  0  0  0  0  0  0
   -0.9627    1.1828    3.4308 H   0  0  0  0  0  0  0  0  0  0  0  0
   -0.0383    1.9217    2.0110 H   0  0  0  0  0  0  0  0  0  0  0  0
   -0.1197   -2.1524    2.6533 H   0  0  0  0  0  0  0  0  0  0  0  0
   -1.4132   -1.2410    3.4481 H   0  0  0  0  0  0  0  0  0  0  0  0
   -1.6346   -1.8769    1.8104 H   0  0  0  0  0  0  0  0  0  0  0  0
  1  2  1  0
  1  6  1  0
  1  7  1  0
  1  8  1  0
  2  3  1  0
  2  4  1  0
  2  9  1  0
  3 10  1  0
  3 11  1  0
  3 12  1  0
  4  5  1  0
  4 14  1  0
  5 15  1  0
 13 17  1  0
 16 17  2  3
 16 19  1  0
 16 20  1  0
 17 18  1  0
 18 21  1  0
 18 22  1  0
 18 23  1  0
M  RAD  1   4   2
M  END
>  <reaction>  (14) 
rxn_422

>  <mol_properties>  (14) 
{"1": {"label": "*0", "atom_type": "Cs"}, "3": {"label": "*1", "atom_type": "Cs"}, "12": {"label": "*2", "atom_type": "H0"}, "15": {"label": "*4", "atom_type": "Cd"}, "16": {"label": "*3", "atom_type": "Cd"}}

>  <type>  (14) 
unop_10

>  <geom_source>  (14) 
Heuristics

$$$$

     RDKit          3D

 23 21  0  0  0  0  0  0  0  0999 V2000
    0.8249    0.3670   -2.7686 C   0  0  0  0  0  0  0  0  0  0  0  0
    0.8249    0.3670   -1.2445 C   0  0  0  0  0  0  0  0  0  0  0  0
    0.8249    1.7858   -0.6846 C   0  0  0  0  0  0  0  0  0  0  0  0
   -0.3627   -0.4133   -0.6876 C   0  0  0  0  0  3  0  0  0  0  0  0
   -0.4015   -1.7646   -1.0993 O   0  0  0  0  0  0  0  0  0  0  0  0
    1.7146    0.8636   -3.1607 H   0  0  0  0  0  0  0  0  0  0  0  0
   -0.0514    0.8997   -3.1491 H   0  0  0  0  0  0  0  0  0  0  0  0
    0.7944   -0.6489   -3.1623 H   0  0  0  0  0  0  0  0  0  0  0  0
    1.7377   -0.1355   -0.8980 H   0  0  0  0  0  0  0  0  0  0  0  0
   -0.0784    2.3208   -0.9909 H   0  0  0  0  0  0  0  0  0  0  0  0
    1.6834    2.3505   -1.0516 H   0  0  0  0  0  0  0  0  0  0  0  0
    0.8621    1.7882    0.4069 H   0  0  0  0  0  0  0  0  0  0  0  0
   -0.3688   -0.3275    0.6274 H   0  0  0  0  0  0  0  0  0  0  0  0
   -1.2939    0.0326   -1.0473 H   0  0  0  0  0  0  0  0  0  0  0  0
    0.3812   -2.2054   -0.7650 H   0  0  0  0  0  0  0  0  0  0  0  0
   -0.8771   -1.2461    2.6311 C   0  0  0  0  0  0  0  0  0  0  0  0
   -0.3750   -0.2424    1.9290 C   0  0  0  0  0  0  0  0  0  0  0  0
   -0.4698    1.2016    2.3030 C   0  0  0  0  0  0  0  0  0  0  0  0
   -1.4108   -1.0756    3.5602 H   0  0  0  0  0  0  0  0  0  0  0  0
   -0.7739   -2.2732    2.3047 H   0  0  0  0  0  0  0  0  0  0  0  0
   -0.9824    1.7722    1.5241 H   0  0  0  0  0  0  0  0  0  0  0  0
   -1.0115    1.3360    3.2401 H   0  0  0  0  0  0  0  0  0  0  0  0
    0.5249    1.6407    2.4142 H   0  0  0  0  0  0  0  0  0  0  0  0
  1  2  1  0
  1  6  1  0
  1  7  1  0
  1  8  1  0
  2  3  1  0
  2  4  1  0
  2  9  1  0
  3 10  1  0
  3 11  1  0
  3 12  1  0
  4  5  1  0
  4 14  1  0
  5 15  1  0
 13 17  1  0
 16 17  2  3
 16 19  1  0
 16 20  1  0
 17 18  1  0
 18 21  1  0
 18 22  1  0
 18 23  1  0
M  RAD  1   4   2
M  END
>  <reaction>  (15) 
rxn_422

>  <mol_properties>  (15) 
{"1": {"label": "*0", "atom_type": "Cs"}, "3": {"label": "*1", "atom_type": "Cs"}, "12": {"label": "*2", "atom_type": "H0"}, "15": {"label": "*4", "atom_type": "Cd"}, "16": {"label": "*3", "atom_type": "Cd"}}

>  <type>  (15) 
unop_11

>  <geom_source>  (15) 
Heuristics

$$$$

     RDKit          3D

 23 21  0  0  0  0  0  0  0  0999 V2000
    0.7764    0.4442   -2.7999 C   0  0  0  0  0  0  0  0  0  0  0  0
    0.7764    0.4442   -1.2758 C   0  0  0  0  0  0  0  0  0  0  0  0
    0.7764    1.8630   -0.7159 C   0  0  0  0  0  0  0  0  0  0  0  0
   -0.4111   -0.3362   -0.7188 C   0  0  0  0  0  3  0  0  0  0  0  0
   -0.4499   -1.6874   -1.1306 O   0  0  0  0  0  0  0  0  0  0  0  0
    1.6661    0.9408   -3.1920 H   0  0  0  0  0  0  0  0  0  0  0  0
   -0.0998    0.9769   -3.1804 H   0  0  0  0  0  0  0  0  0  0  0  0
    0.7460   -0.5717   -3.1936 H   0  0  0  0  0  0  0  0  0  0  0  0
    1.6893   -0.0583   -0.9293 H   0  0  0  0  0  0  0  0  0  0  0  0
   -0.1268    2.3980   -1.0221 H   0  0  0  0  0  0  0  0  0  0  0  0
    1.6350    2.4276   -1.0829 H   0  0  0  0  0  0  0  0  0  0  0  0
    0.8137    1.8654    0.3756 H   0  0  0  0  0  0  0  0  0  0  0  0
   -0.4173   -0.2503    0.5961 H   0  0  0  0  0  0  0  0  0  0  0  0
   -1.3423    0.1098   -1.0786 H   0  0  0  0  0  0  0  0  0  0  0  0
    0.3328   -2.1283   -0.7963 H   0  0  0  0  0  0  0  0  0  0  0  0
    0.5295    0.5326    2.4955 C   0  0  0  0  0  0  0  0  0  0  0  0
   -0.4234   -0.1653    1.8977 C   0  0  0  0  0  0  0  0  0  0  0  0
   -1.5328   -0.8821    2.5974 C   0  0  0  0  0  0  0  0  0  0  0  0
    0.5658    0.6316    3.5753 H   0  0  0  0  0  0  0  0  0  0  0  0
    1.3072    1.0299    1.9297 H   0  0  0  0  0  0  0  0  0  0  0  0
   -1.5111   -1.9505    2.3680 H   0  0  0  0  0  0  0  0  0  0  0  0
   -1.4655   -0.7615    3.6793 H   0  0  0  0  0  0  0  0  0  0  0  0
   -2.5058   -0.5075    2.2691 H   0  0  0  0  0  0  0  0  0  0  0  0
  1  2  1  0
  1  6  1  0
  1  7  1  0
  1  8  1  0
  2  3  1  0
  2  4  1  0
  2  9  1  0
  3 10  1  0
  3 11  1  0
  3 12  1  0
  4  5  1  0
  4 14  1  0
  5 15  1  0
 13 17  1  0
 16 17  2  3
 16 19  1  0
 16 20  1  0
 17 18  1  0
 18 21  1  0
 18 22  1  0
 18 23  1  0
M  RAD  1   4   2
M  END
>  <reaction>  (16) 
rxn_422

>  <mol_properties>  (16) 
{"1": {"label": "*0", "atom_type": "Cs"}, "3": {"label": "*1", "atom_type": "Cs"}, "12": {"label": "*2", "atom_type": "H0"}, "15": {"label": "*4", "atom_type": "Cd"}, "16": {"label": "*3", "atom_type": "Cd"}}

>  <type>  (16) 
unop_12

>  <geom_source>  (16) 
Heuristics

$$$$

     RDKit          3D

 23 21  0  0  0  0  0  0  0  0999 V2000
   -0.1849    1.4918    1.0887 O   0  0  0  0  0  0  0  0  0  0  0  0
   -1.3993   -0.0162   -0.3458 C   0  0  0  0  0  0  0  0  0  0  0  0
   -2.7705    0.6453   -0.1604 C   0  0  0  0  0  0  0  0  0  0  0  0
   -1.5575   -1.5034   -0.6702 C   0  0  0  0  0  0  0  0  0  0  0  0
    2.4583   -0.2648   -1.1001 C   0  0  0  0  0  0  0  0  0  0  0  0
    1.9590    0.0038    0.2847 C   0  0  0  0  0  0  0  0  0  0  0  0
   -0.5304    0.1512    0.9042 C   0  0  0  0  0  3  0  0  0  0  0  0
    2.7274    0.6105    1.1914 C   0  0  0  0  0  0  0  0  0  0  0  0
   -0.8832    0.4705   -1.2026 H   0  0  0  0  0  0  0  0  0  0  0  0
   -3.3790    0.5279   -1.0824 H   0  0  0  0  0  0  0  0  0  0  0  0
   -2.6502    1.7319    0.0357 H   0  0  0  0  0  0  0  0  0  0  0  0
   -3.3172    0.1850    0.6907 H   0  0  0  0  0  0  0  0  0  0  0  0
   -0.5600   -1.9681   -0.8242 H   0  0  0  0  0  0  0  0  0  0  0  0
   -2.0763   -2.0336    0.1576 H   0  0  0  0  0  0  0  0  0  0  0  0
   -2.1469   -1.6313   -1.6033 H   0  0  0  0  0  0  0  0  0  0  0  0
    2.7203    0.6909   -1.6013 H   0  0  0  0  0  0  0  0  0  0  0  0
    3.3539   -0.9202   -1.0603 H   0  0  0  0  0  0  0  0  0  0  0  0
    1.6659   -0.7736   -1.6872 H   0  0  0  0  0  0  0  0  0  0  0  0
    0.7962   -0.3482    0.5982 H   0  0  0  0  0  0  0  0  0  0  0  0
   -1.0470   -0.2356    1.8099 H   0  0  0  0  0  0  0  0  0  0  0  0
    2.3432    0.7944    2.1890 H   0  0  0  0  0  0  0  0  0  0  0  0
    3.7374    0.9256    0.9468 H   0  0  0  0  0  0  0  0  0  0  0  0
    0.7407    1.4662    1.4407 H   0  0  0  0  0  0  0  0  0  0  0  0
  1  7  1  0
  1 23  1  0
  2  3  1  0
  2  4  1  0
  2  7  1  0
  2  9  1  0
  3 10  1  0
  3 11  1  0
  3 12  1  0
  4 13  1  0
  4 14  1  0
  4 15  1  0
  5  6  1  0
  5 16  1  0
  5 17  1  0
  5 18  1  0
  6  8  2  3
  6 19  1  0
  7 20  1  0
  8 21  1  0
  8 22  1  0
M  RAD  1   7   2
M  END
>  <reaction>  (17) 
rxn_422

>  <mol_properties>  (17) 
{"1": {"label": "*0", "atom_type": "Cs"}, "3": {"label": "*1", "atom_type": "Cs"}, "12": {"label": "*2", "atom_type": "H0"}, "15": {"label": "*4", "atom_type": "Cd"}, "16": {"label": "*3", "atom_type": "Cd"}}

>  <type>  (17) 
unop_13

>  <geom_source>  (17) 
AutoTST

$$$$
