
     RDKit          3D

 14 13  0  0  0  0  0  0  0  0999 V2000
   -0.7647   -1.2352   -0.0349 C   0  0  0  0  0  0  0  0  0  0  0  0
    0.0570   -0.0126    0.3624 C   0  0  0  0  0  0  0  0  0  0  0  0
    1.4161   -0.0194   -0.3308 C   0  0  0  0  0  0  0  0  0  0  0  0
   -0.7022    1.2765    0.0629 C   0  0  0  0  0  0  0  0  0  0  0  0
   -0.2387   -2.1619    0.2040 H   0  0  0  0  0  0  0  0  0  0  0  0
   -0.9625   -1.2316   -1.1108 H   0  0  0  0  0  0  0  0  0  0  0  0
   -1.7273   -1.2512    0.4806 H   0  0  0  0  0  0  0  0  0  0  0  0
    0.2295   -0.0590    1.4432 H   0  0  0  0  0  0  0  0  0  0  0  0
    1.2933    0.0260   -1.4168 H   0  0  0  0  0  0  0  0  0  0  0  0
    2.0206    0.8381   -0.0279 H   0  0  0  0  0  0  0  0  0  0  0  0
    1.9767   -0.9268   -0.0966 H   0  0  0  0  0  0  0  0  0  0  0  0
   -1.6639    1.3001    0.5799 H   0  0  0  0  0  0  0  0  0  0  0  0
   -0.8977    1.3664   -1.0096 H   0  0  0  0  0  0  0  0  0  0  0  0
   -0.1313    2.1545    0.3722 H   0  0  0  0  0  0  0  0  0  0  0  0
  1  2  1  0
  1  5  1  0
  1  6  1  0
  1  7  1  0
  2  3  1  0
  2  4  1  0
  2  8  1  0
  3  9  1  0
  3 10  1  0
  3 11  1  0
  4 12  1  0
  4 13  1  0
  4 14  1  0
M  END
>  <reaction>  (1) 
rxn_982

>  <mol_properties>  (1) 
{"1": {"label": "donator", "atom_type": "Cs"}, "7": {"label": "d_hydrogen", "atom_type": "H0"}}

>  <type>  (1) 
r1h

$$$$

     RDKit          3D

  9  8  0  0  0  0  0  0  0  0999 V2000
    2.3991   -0.1292   -0.2384 S   0  0  0  0  0  0  0  0  0  0  0  0
    0.7460    0.2807    0.0931 C   0  0  0  0  0  3  0  0  0  0  0  0
   -0.3131   -0.5719   -0.2043 C   0  0  0  0  0  0  0  0  0  0  0  0
   -0.2286   -1.8095   -0.7775 C   0  0  0  0  0  0  0  0  0  0  0  0
    2.9373    1.0009    0.2312 H   0  0  0  0  0  0  0  0  0  0  0  0
    0.5618    1.2421    0.5487 H   0  0  0  0  0  0  0  0  0  0  0  0
   -1.2978   -0.1954    0.0537 H   0  0  0  0  0  0  0  0  0  0  0  0
    0.7207   -2.2479   -1.0607 H   0  0  0  0  0  0  0  0  0  0  0  0
   -1.1177   -2.3938   -0.9670 H   0  0  0  0  0  0  0  0  0  0  0  0
  1  2  1  0
  1  5  1  0
  2  3  1  0
  2  6  1  0
  3  4  2  3
  3  7  1  0
  4  8  1  0
  4  9  1  0
M  RAD  1   2   2
M  END
>  <reaction>  (2) 
rxn_982

>  <mol_properties>  (2) 
{"1": {"label": "acceptor", "atom_type": "Cs"}}

>  <type>  (2) 
r2

$$$$

     RDKit          3D

 10  9  0  0  0  0  0  0  0  0999 V2000
    2.2097   -0.5315    0.2575 S   0  0  0  0  0  0  0  0  0  0  0  0
    0.5401   -0.7188   -0.4494 C   0  0  0  0  0  0  0  0  0  0  0  0
   -0.5263   -0.1678    0.4365 C   0  0  0  0  0  0  0  0  0  0  0  0
   -1.3394    0.8185    0.0912 C   0  0  0  0  0  0  0  0  0  0  0  0
    2.1701    0.8016    0.3806 H   0  0  0  0  0  0  0  0  0  0  0  0
    0.4238   -1.7978   -0.5701 H   0  0  0  0  0  0  0  0  0  0  0  0
    0.5053   -0.2663   -1.4400 H   0  0  0  0  0  0  0  0  0  0  0  0
   -0.6005   -0.6141    1.4236 H   0  0  0  0  0  0  0  0  0  0  0  0
   -2.0960    1.1907    0.7700 H   0  0  0  0  0  0  0  0  0  0  0  0
   -1.2784    1.2877   -0.8850 H   0  0  0  0  0  0  0  0  0  0  0  0
  1  2  1  0
  1  5  1  0
  2  3  1  0
  2  6  1  0
  2  7  1  0
  3  4  2  3
  3  8  1  0
  4  9  1  0
  4 10  1  0
M  END
>  <reaction>  (3) 
rxn_982

>  <mol_properties>  (3) 
{"1": {"label": "acceptor", "atom_type": "Cs"}, "9": {"label": "a_hydrogen", "atom_type": "H0"}}

>  <type>  (3) 
r2h

$$$$

     RDKit          3D

 23 21  0  0  0  0  0  0  0  0999 V2000
    2.2188    0.7315   -0.2528 S   0  0  0  0  0  0  0  0  0  0  0  0
    0.9566   -0.0213    0.7709 C   0  0  0  0  0  0  0  0  0  0  0  0
    0.7707   -1.4645    0.6554 C   0  0  0  0  0  0  0  0  0  0  0  0
    0.3623   -2.2544    1.6498 C   0  0  0  0  0  0  0  0  0  0  0  0
    3.2750    0.0419    0.2062 H   0  0  0  0  0  0  0  0  0  0  0  0
    0.9531    0.3531    1.7932 H   0  0  0  0  0  0  0  0  0  0  0  0
    0.9474   -1.8898   -0.3285 H   0  0  0  0  0  0  0  0  0  0  0  0
    0.1848   -1.8647    2.6461 H   0  0  0  0  0  0  0  0  0  0  0  0
    0.1997   -3.3132    1.4967 H   0  0  0  0  0  0  0  0  0  0  0  0
   -1.5284    0.2011   -1.4383 C   0  0  0  0  0  0  0  0  0  0  0  0
   -1.3204    1.0364   -0.2030 C   0  0  0  0  0  3  0  0  0  0  0  0
   -1.0528    2.4969   -0.4546 C   0  0  0  0  0  0  0  0  0  0  0  0
   -2.2760    0.7453    0.9241 C   0  0  0  0  0  0  0  0  0  0  0  0
   -0.7212    0.3502   -2.1585 H   0  0  0  0  0  0  0  0  0  0  0  0
   -2.4702    0.4674   -1.9333 H   0  0  0  0  0  0  0  0  0  0  0  0
   -1.5757   -0.8617   -1.1909 H   0  0  0  0  0  0  0  0  0  0  0  0
   -0.1402    0.5409    0.2783 H   0  0  0  0  0  0  0  0  0  0  0  0
   -1.9552    2.9941   -0.8319 H   0  0  0  0  0  0  0  0  0  0  0  0
   -0.7533    3.0110    0.4610 H   0  0  0  0  0  0  0  0  0  0  0  0
   -0.2652    2.6368   -1.1974 H   0  0  0  0  0  0  0  0  0  0  0  0
   -2.2905   -0.3204    1.1622 H   0  0  0  0  0  0  0  0  0  0  0  0
   -3.2975    1.0387    0.6523 H   0  0  0  0  0  0  0  0  0  0  0  0
   -2.0058    1.2959    1.8277 H   0  0  0  0  0  0  0  0  0  0  0  0
  1  2  1  0
  1  5  1  0
  2  3  1  0
  2  6  1  0
  2 17  1  0
  3  4  2  3
  3  7  1  0
  4  8  1  0
  4  9  1  0
 10 11  1  0
 10 14  1  0
 10 15  1  0
 10 16  1  0
 11 12  1  0
 11 13  1  0
 12 18  1  0
 12 19  1  0
 12 20  1  0
 13 21  1  0
 13 22  1  0
 13 23  1  0
M  RAD  1  11   2
M  END
>  <reaction>  (4) 
rxn_982

>  <mol_properties>  (4) 
{"0": {"label": "*0", "atom_type": "S2s"}, "1": {"label": "*1", "atom_type": "Cs"}, "9": {"label": "*4", "atom_type": "Cs"}, "10": {"label": "*3", "atom_type": "Cs"}, "16": {"label": "*2", "atom_type": "H0"}}

>  <type>  (4) 
ts

$$$$

     RDKit          3D

 23 21  0  0  0  0  0  0  0  0999 V2000
    1.5604    0.7353    1.2042 S   0  0  0  0  0  0  0  0  0  0  0  0
    0.7098   -0.5469    0.2271 C   0  0  0  0  0  0  0  0  0  0  0  0
    1.6422   -1.5893   -0.2923 C   0  0  0  0  0  0  0  0  0  0  0  0
    1.5610   -2.8747    0.0150 C   0  0  0  0  0  0  0  0  0  0  0  0
    2.0875   -0.0957    2.1128 H   0  0  0  0  0  0  0  0  0  0  0  0
   -0.0914   -0.9906    0.8173 H   0  0  0  0  0  0  0  0  0  0  0  0
    2.4340   -1.2347   -0.9451 H   0  0  0  0  0  0  0  0  0  0  0  0
    0.7856   -3.2521    0.6731 H   0  0  0  0  0  0  0  0  0  0  0  0
    2.2643   -3.5957   -0.3815 H   0  0  0  0  0  0  0  0  0  0  0  0
   -1.4940    0.6280   -2.1065 C   0  0  0  0  0  0  0  0  0  0  0  0
   -1.4940    0.6280   -0.5808 C   0  0  0  0  0  3  0  0  0  0  0  0
   -1.4940    2.0526   -0.0348 C   0  0  0  0  0  0  0  0  0  0  0  0
   -2.6768   -0.1661   -0.0348 C   0  0  0  0  0  0  0  0  0  0  0  0
   -0.6333    1.1702   -2.5036 H   0  0  0  0  0  0  0  0  0  0  0  0
   -2.3980    1.1099   -2.4903 H   0  0  0  0  0  0  0  0  0  0  0  0
   -1.4646   -0.3889   -2.5036 H   0  0  0  0  0  0  0  0  0  0  0  0
   -0.3903    0.0396   -0.1762 H   0  0  0  0  0  0  0  0  0  0  0  0
   -2.3980    2.5834   -0.3474 H   0  0  0  0  0  0  0  0  0  0  0  0
   -1.4645    2.0594    1.0568 H   0  0  0  0  0  0  0  0  0  0  0  0
   -0.6333    2.6174   -0.3990 H   0  0  0  0  0  0  0  0  0  0  0  0
   -2.6661   -1.1955   -0.3991 H   0  0  0  0  0  0  0  0  0  0  0  0
   -3.6214    0.2886   -0.3473 H   0  0  0  0  0  0  0  0  0  0  0  0
   -2.6659   -0.1945    1.0568 H   0  0  0  0  0  0  0  0  0  0  0  0
  1  2  1  0
  1  5  1  0
  2  3  1  0
  2  6  1  0
  2 17  1  0
  3  4  2  3
  3  7  1  0
  4  8  1  0
  4  9  1  0
 10 11  1  0
 10 14  1  0
 10 15  1  0
 10 16  1  0
 11 12  1  0
 11 13  1  0
 12 18  1  0
 12 19  1  0
 12 20  1  0
 13 21  1  0
 13 22  1  0
 13 23  1  0
M  RAD  1  11   2
M  END
>  <reaction>  (5) 
rxn_982

>  <mol_properties>  (5) 
{"0": {"label": "*0", "atom_type": "S2s"}, "1": {"label": "*1", "atom_type": "Cs"}, "9": {"label": "*4", "atom_type": "Cs"}, "10": {"label": "*3", "atom_type": "Cs"}, "16": {"label": "*2", "atom_type": "H0"}}

>  <type>  (5) 
unop_1

>  <geom_source>  (5) 
Heuristics

$$$$

     RDKit          3D

 23 21  0  0  0  0  0  0  0  0999 V2000
    1.9492    0.0063   -0.8331 S   0  0  0  0  0  0  0  0  0  0  0  0
    0.7470   -0.3548    0.4885 C   0  0  0  0  0  0  0  0  0  0  0  0
    0.8444   -1.7568    0.9892 C   0  0  0  0  0  0  0  0  0  0  0  0
    1.1372   -2.0776    2.2401 C   0  0  0  0  0  0  0  0  0  0  0  0
    3.0446   -0.2961   -0.1241 H   0  0  0  0  0  0  0  0  0  0  0  0
    0.8616    0.3643    1.2990 H   0  0  0  0  0  0  0  0  0  0  0  0
    0.6765   -2.5364    0.2524 H   0  0  0  0  0  0  0  0  0  0  0  0
    1.3194   -1.3174    2.9922 H   0  0  0  0  0  0  0  0  0  0  0  0
    1.2030   -3.1103    2.5576 H   0  0  0  0  0  0  0  0  0  0  0  0
   -1.4568    0.8200   -1.8451 C   0  0  0  0  0  0  0  0  0  0  0  0
   -1.4568    0.8200   -0.3194 C   0  0  0  0  0  3  0  0  0  0  0  0
   -1.4568    2.2447    0.2267 C   0  0  0  0  0  0  0  0  0  0  0  0
   -2.6396    0.0260    0.2266 C   0  0  0  0  0  0  0  0  0  0  0  0
   -0.5961    1.3623   -2.2422 H   0  0  0  0  0  0  0  0  0  0  0  0
   -2.3608    1.3020   -2.2289 H   0  0  0  0  0  0  0  0  0  0  0  0
   -1.4274   -0.1968   -2.2422 H   0  0  0  0  0  0  0  0  0  0  0  0
   -0.3531    0.2317    0.0852 H   0  0  0  0  0  0  0  0  0  0  0  0
   -2.3608    2.7755   -0.0860 H   0  0  0  0  0  0  0  0  0  0  0  0
   -1.4273    2.2515    1.3183 H   0  0  0  0  0  0  0  0  0  0  0  0
   -0.5961    2.8095   -0.1376 H   0  0  0  0  0  0  0  0  0  0  0  0
   -2.6289   -1.0034   -0.1377 H   0  0  0  0  0  0  0  0  0  0  0  0
   -3.5842    0.4807   -0.0858 H   0  0  0  0  0  0  0  0  0  0  0  0
   -2.6287   -0.0024    1.3182 H   0  0  0  0  0  0  0  0  0  0  0  0
  1  2  1  0
  1  5  1  0
  2  3  1  0
  2  6  1  0
  2 17  1  0
  3  4  2  3
  3  7  1  0
  4  8  1  0
  4  9  1  0
 10 11  1  0
 10 14  1  0
 10 15  1  0
 10 16  1  0
 11 12  1  0
 11 13  1  0
 12 18  1  0
 12 19  1  0
 12 20  1  0
 13 21  1  0
 13 22  1  0
 13 23  1  0
M  RAD  1  11   2
M  END
>  <reaction>  (6) 
rxn_982

>  <mol_properties>  (6) 
{"0": {"label": "*0", "atom_type": "S2s"}, "1": {"label": "*1", "atom_type": "Cs"}, "9": {"label": "*4", "atom_type": "Cs"}, "10": {"label": "*3", "atom_type": "Cs"}, "16": {"label": "*2", "atom_type": "H0"}}

>  <type>  (6) 
unop_2

>  <geom_source>  (6) 
Heuristics

$$$$

     RDKit          3D

 23 21  0  0  0  0  0  0  0  0999 V2000
    1.0914    0.2323    1.7926 S   0  0  0  0  0  0  0  0  0  0  0  0
    0.7212   -0.5724    0.1996 C   0  0  0  0  0  0  0  0  0  0  0  0
    1.9511   -0.9304   -0.5651 C   0  0  0  0  0  0  0  0  0  0  0  0
    2.2774   -2.1677   -0.9055 C   0  0  0  0  0  0  0  0  0  0  0  0
    1.8330   -0.7642    2.2935 H   0  0  0  0  0  0  0  0  0  0  0  0
    0.0890   -1.4444    0.3641 H   0  0  0  0  0  0  0  0  0  0  0  0
    2.6045   -0.1037   -0.8268 H   0  0  0  0  0  0  0  0  0  0  0  0
    1.6468   -3.0116   -0.6467 H   0  0  0  0  0  0  0  0  0  0  0  0
    3.1844   -2.3814   -1.4563 H   0  0  0  0  0  0  0  0  0  0  0  0
   -1.4826    0.6025   -2.1340 C   0  0  0  0  0  0  0  0  0  0  0  0
   -1.4826    0.6025   -0.6083 C   0  0  0  0  0  3  0  0  0  0  0  0
   -1.4826    2.0271   -0.0622 C   0  0  0  0  0  0  0  0  0  0  0  0
   -2.6654   -0.1916   -0.0622 C   0  0  0  0  0  0  0  0  0  0  0  0
   -0.6219    1.1447   -2.5311 H   0  0  0  0  0  0  0  0  0  0  0  0
   -2.3866    1.0845   -2.5178 H   0  0  0  0  0  0  0  0  0  0  0  0
   -1.4532   -0.4144   -2.5311 H   0  0  0  0  0  0  0  0  0  0  0  0
   -0.3789    0.0141   -0.2037 H   0  0  0  0  0  0  0  0  0  0  0  0
   -2.3866    2.5580   -0.3749 H   0  0  0  0  0  0  0  0  0  0  0  0
   -1.4531    2.0339    1.0294 H   0  0  0  0  0  0  0  0  0  0  0  0
   -0.6219    2.5920   -0.4265 H   0  0  0  0  0  0  0  0  0  0  0  0
   -2.6548   -1.2210   -0.4266 H   0  0  0  0  0  0  0  0  0  0  0  0
   -3.6100    0.2632   -0.3747 H   0  0  0  0  0  0  0  0  0  0  0  0
   -2.6545   -0.2200    1.0294 H   0  0  0  0  0  0  0  0  0  0  0  0
  1  2  1  0
  1  5  1  0
  2  3  1  0
  2  6  1  0
  2 17  1  0
  3  4  2  3
  3  7  1  0
  4  8  1  0
  4  9  1  0
 10 11  1  0
 10 14  1  0
 10 15  1  0
 10 16  1  0
 11 12  1  0
 11 13  1  0
 12 18  1  0
 12 19  1  0
 12 20  1  0
 13 21  1  0
 13 22  1  0
 13 23  1  0
M  RAD  1  11   2
M  END
>  <reaction>  (7) 
rxn_982

>  <mol_properties>  (7) 
{"0": {"label": "*0", "atom_type": "S2s"}, "1": {"label": "*1", "atom_type": "Cs"}, "9": {"label": "*4", "atom_type": "Cs"}, "10": {"label": "*3", "atom_type": "Cs"}, "16": {"label": "*2", "atom_type": "H0"}}

>  <type>  (7) 
unop_3

>  <geom_source>  (7) 
Heuristics

$$$$

     RDKit          3D

 23 21  0  0  0  0  0  0  0  0999 V2000
    1.0854   -1.9031   -0.5310 S   0  0  0  0  0  0  0  0  0  0  0  0
    1.1955   -0.2261    0.1746 C   0  0  0  0  0  0  0  0  0  0  0  0
    0.5445   -0.1197    1.5127 C   0  0  0  0  0  0  0  0  0  0  0  0
    1.1837    0.2163    2.6225 C   0  0  0  0  0  0  0  0  0  0  0  0
    1.7004   -2.5303    0.4800 H   0  0  0  0  0  0  0  0  0  0  0  0
    2.2374    0.0903    0.2146 H   0  0  0  0  0  0  0  0  0  0  0  0
   -0.5148   -0.3562    1.5450 H   0  0  0  0  0  0  0  0  0  0  0  0
    2.2437    0.4469    2.6182 H   0  0  0  0  0  0  0  0  0  0  0  0
    0.6708    0.2751    3.5739 H   0  0  0  0  0  0  0  0  0  0  0  0
   -1.0083    0.9487   -2.1590 C   0  0  0  0  0  0  0  0  0  0  0  0
   -1.0083    0.9487   -0.6333 C   0  0  0  0  0  3  0  0  0  0  0  0
   -1.0083    2.3734   -0.0872 C   0  0  0  0  0  0  0  0  0  0  0  0
   -2.1911    0.1547   -0.0872 C   0  0  0  0  0  0  0  0  0  0  0  0
   -0.1475    1.4910   -2.5560 H   0  0  0  0  0  0  0  0  0  0  0  0
   -1.9122    1.4307   -2.5428 H   0  0  0  0  0  0  0  0  0  0  0  0
   -0.9788   -0.0681   -2.5560 H   0  0  0  0  0  0  0  0  0  0  0  0
    0.0954    0.3604   -0.2287 H   0  0  0  0  0  0  0  0  0  0  0  0
   -1.9122    2.9042   -0.3999 H   0  0  0  0  0  0  0  0  0  0  0  0
   -0.9788    2.3802    1.0044 H   0  0  0  0  0  0  0  0  0  0  0  0
   -0.1476    2.9382   -0.4515 H   0  0  0  0  0  0  0  0  0  0  0  0
   -2.1804   -0.8747   -0.4516 H   0  0  0  0  0  0  0  0  0  0  0  0
   -3.1357    0.6094   -0.3997 H   0  0  0  0  0  0  0  0  0  0  0  0
   -2.1802    0.1263    1.0044 H   0  0  0  0  0  0  0  0  0  0  0  0
  1  2  1  0
  1  5  1  0
  2  3  1  0
  2  6  1  0
  2 17  1  0
  3  4  2  3
  3  7  1  0
  4  8  1  0
  4  9  1  0
 10 11  1  0
 10 14  1  0
 10 15  1  0
 10 16  1  0
 11 12  1  0
 11 13  1  0
 12 18  1  0
 12 19  1  0
 12 20  1  0
 13 21  1  0
 13 22  1  0
 13 23  1  0
M  RAD  1  11   2
M  END
>  <reaction>  (8) 
rxn_982

>  <mol_properties>  (8) 
{"0": {"label": "*0", "atom_type": "S2s"}, "1": {"label": "*1", "atom_type": "Cs"}, "9": {"label": "*4", "atom_type": "Cs"}, "10": {"label": "*3", "atom_type": "Cs"}, "16": {"label": "*2", "atom_type": "H0"}}

>  <type>  (8) 
unop_4

>  <geom_source>  (8) 
Heuristics

$$$$

     RDKit          3D

 23 21  0  0  0  0  0  0  0  0999 V2000
    0.6627   -0.6236    1.9557 S   0  0  0  0  0  0  0  0  0  0  0  0
    0.7728   -0.6823    0.1372 C   0  0  0  0  0  0  0  0  0  0  0  0
    1.9743    0.0270   -0.3909 C   0  0  0  0  0  0  0  0  0  0  0  0
    2.9313   -0.5597   -1.0932 C   0  0  0  0  0  0  0  0  0  0  0  0
    1.8466   -1.2024    2.1948 H   0  0  0  0  0  0  0  0  0  0  0  0
    0.7429   -1.7174   -0.2017 H   0  0  0  0  0  0  0  0  0  0  0  0
    2.0450    1.0836   -0.1511 H   0  0  0  0  0  0  0  0  0  0  0  0
    2.8889   -1.6159   -1.3369 H   0  0  0  0  0  0  0  0  0  0  0  0
    3.7894   -0.0057   -1.4515 H   0  0  0  0  0  0  0  0  0  0  0  0
   -1.4310    0.4926   -2.1964 C   0  0  0  0  0  0  0  0  0  0  0  0
   -1.4310    0.4926   -0.6707 C   0  0  0  0  0  3  0  0  0  0  0  0
   -1.4310    1.9173   -0.1246 C   0  0  0  0  0  0  0  0  0  0  0  0
   -2.6139   -0.3015   -0.1246 C   0  0  0  0  0  0  0  0  0  0  0  0
   -0.5703    1.0349   -2.5935 H   0  0  0  0  0  0  0  0  0  0  0  0
   -2.3350    0.9746   -2.5802 H   0  0  0  0  0  0  0  0  0  0  0  0
   -1.4016   -0.5242   -2.5934 H   0  0  0  0  0  0  0  0  0  0  0  0
   -0.3274   -0.0958   -0.2661 H   0  0  0  0  0  0  0  0  0  0  0  0
   -2.3350    2.4481   -0.4373 H   0  0  0  0  0  0  0  0  0  0  0  0
   -1.4015    1.9240    0.9670 H   0  0  0  0  0  0  0  0  0  0  0  0
   -0.5703    2.4821   -0.4889 H   0  0  0  0  0  0  0  0  0  0  0  0
   -2.6032   -1.3308   -0.4890 H   0  0  0  0  0  0  0  0  0  0  0  0
   -3.5585    0.1533   -0.4371 H   0  0  0  0  0  0  0  0  0  0  0  0
   -2.6030   -0.3299    0.9670 H   0  0  0  0  0  0  0  0  0  0  0  0
  1  2  1  0
  1  5  1  0
  2  3  1  0
  2  6  1  0
  2 17  1  0
  3  4  2  3
  3  7  1  0
  4  8  1  0
  4  9  1  0
 10 11  1  0
 10 14  1  0
 10 15  1  0
 10 16  1  0
 11 12  1  0
 11 13  1  0
 12 18  1  0
 12 19  1  0
 12 20  1  0
 13 21  1  0
 13 22  1  0
 13 23  1  0
M  RAD  1  11   2
M  END
>  <reaction>  (9) 
rxn_982

>  <mol_properties>  (9) 
{"0": {"label": "*0", "atom_type": "S2s"}, "1": {"label": "*1", "atom_type": "Cs"}, "9": {"label": "*4", "atom_type": "Cs"}, "10": {"label": "*3", "atom_type": "Cs"}, "16": {"label": "*2", "atom_type": "H0"}}

>  <type>  (9) 
unop_5

>  <geom_source>  (9) 
Heuristics

$$$$

     RDKit          3D

 23 21  0  0  0  0  0  0  0  0999 V2000
    0.7468   -2.1440    0.1645 S   0  0  0  0  0  0  0  0  0  0  0  0
    1.2086   -0.3860    0.0288 C   0  0  0  0  0  0  0  0  0  0  0  0
    0.8036    0.4104    1.2236 C   0  0  0  0  0  0  0  0  0  0  0  0
    1.6548    1.0535    2.0080 C   0  0  0  0  0  0  0  0  0  0  0  0
    1.4203   -2.3874    1.2964 H   0  0  0  0  0  0  0  0  0  0  0  0
    2.2777   -0.2983   -0.1620 H   0  0  0  0  0  0  0  0  0  0  0  0
   -0.2594    0.4278    1.4441 H   0  0  0  0  0  0  0  0  0  0  0  0
    2.7222    1.0428    1.8150 H   0  0  0  0  0  0  0  0  0  0  0  0
    1.3157    1.6149    2.8691 H   0  0  0  0  0  0  0  0  0  0  0  0
   -0.9952    0.7889   -2.3048 C   0  0  0  0  0  0  0  0  0  0  0  0
   -0.9952    0.7889   -0.7791 C   0  0  0  0  0  3  0  0  0  0  0  0
   -0.9952    2.2136   -0.2330 C   0  0  0  0  0  0  0  0  0  0  0  0
   -2.1780   -0.0052   -0.2330 C   0  0  0  0  0  0  0  0  0  0  0  0
   -0.1345    1.3312   -2.7018 H   0  0  0  0  0  0  0  0  0  0  0  0
   -1.8992    1.2709   -2.6886 H   0  0  0  0  0  0  0  0  0  0  0  0
   -0.9658   -0.2279   -2.7018 H   0  0  0  0  0  0  0  0  0  0  0  0
    0.1085    0.2005   -0.3745 H   0  0  0  0  0  0  0  0  0  0  0  0
   -1.8992    2.7444   -0.5456 H   0  0  0  0  0  0  0  0  0  0  0  0
   -0.9657    2.2204    0.8586 H   0  0  0  0  0  0  0  0  0  0  0  0
   -0.1345    2.7784   -0.5973 H   0  0  0  0  0  0  0  0  0  0  0  0
   -2.1674   -1.0345   -0.5974 H   0  0  0  0  0  0  0  0  0  0  0  0
   -3.1226    0.4496   -0.5455 H   0  0  0  0  0  0  0  0  0  0  0  0
   -2.1671   -0.0336    0.8586 H   0  0  0  0  0  0  0  0  0  0  0  0
  1  2  1  0
  1  5  1  0
  2  3  1  0
  2  6  1  0
  2 17  1  0
  3  4  2  3
  3  7  1  0
  4  8  1  0
  4  9  1  0
 10 11  1  0
 10 14  1  0
 10 15  1  0
 10 16  1  0
 11 12  1  0
 11 13  1  0
 12 18  1  0
 12 19  1  0
 12 20  1  0
 13 21  1  0
 13 22  1  0
 13 23  1  0
M  RAD  1  11   2
M  END
>  <reaction>  (10) 
rxn_982

>  <mol_properties>  (10) 
{"0": {"label": "*0", "atom_type": "S2s"}, "1": {"label": "*1", "atom_type": "Cs"}, "9": {"label": "*4", "atom_type": "Cs"}, "10": {"label": "*3", "atom_type": "Cs"}, "16": {"label": "*2", "atom_type": "H0"}}

>  <type>  (10) 
unop_6

>  <geom_source>  (10) 
Heuristics

$$$$

     RDKit          3D

 23 21  0  0  0  0  0  0  0  0999 V2000
    0.5307   -1.9979    0.9428 S   0  0  0  0  0  0  0  0  0  0  0  0
    1.1211   -0.5770   -0.0343 C   0  0  0  0  0  0  0  0  0  0  0  0
    1.1508    0.6907    0.7516 C   0  0  0  0  0  0  0  0  0  0  0  0
    2.2496    1.3918    0.9849 C   0  0  0  0  0  0  0  0  0  0  0  0
    1.4618   -1.9157    1.9020 H   0  0  0  0  0  0  0  0  0  0  0  0
    2.0984   -0.8020   -0.4604 H   0  0  0  0  0  0  0  0  0  0  0  0
    0.1988    1.0200    1.1569 H   0  0  0  0  0  0  0  0  0  0  0  0
    3.2141    1.0783    0.5998 H   0  0  0  0  0  0  0  0  0  0  0  0
    2.2245    2.3043    1.5665 H   0  0  0  0  0  0  0  0  0  0  0  0
   -1.0826    0.5979   -2.3679 C   0  0  0  0  0  0  0  0  0  0  0  0
   -1.0826    0.5979   -0.8422 C   0  0  0  0  0  3  0  0  0  0  0  0
   -1.0826    2.0225   -0.2961 C   0  0  0  0  0  0  0  0  0  0  0  0
   -2.2655   -0.1962   -0.2961 C   0  0  0  0  0  0  0  0  0  0  0  0
   -0.2219    1.1401   -2.7650 H   0  0  0  0  0  0  0  0  0  0  0  0
   -1.9866    1.0798   -2.7517 H   0  0  0  0  0  0  0  0  0  0  0  0
   -1.0532   -0.4190   -2.7650 H   0  0  0  0  0  0  0  0  0  0  0  0
    0.0210    0.0095   -0.4376 H   0  0  0  0  0  0  0  0  0  0  0  0
   -1.9866    2.5533   -0.6088 H   0  0  0  0  0  0  0  0  0  0  0  0
   -1.0531    2.0293    0.7955 H   0  0  0  0  0  0  0  0  0  0  0  0
   -0.2220    2.5874   -0.6604 H   0  0  0  0  0  0  0  0  0  0  0  0
   -2.2548   -1.2256   -0.6605 H   0  0  0  0  0  0  0  0  0  0  0  0
   -3.2101    0.2586   -0.6086 H   0  0  0  0  0  0  0  0  0  0  0  0
   -2.2546   -0.2246    0.7955 H   0  0  0  0  0  0  0  0  0  0  0  0
  1  2  1  0
  1  5  1  0
  2  3  1  0
  2  6  1  0
  2 17  1  0
  3  4  2  3
  3  7  1  0
  4  8  1  0
  4  9  1  0
 10 11  1  0
 10 14  1  0
 10 15  1  0
 10 16  1  0
 11 12  1  0
 11 13  1  0
 12 18  1  0
 12 19  1  0
 12 20  1  0
 13 21  1  0
 13 22  1  0
 13 23  1  0
M  RAD  1  11   2
M  END
>  <reaction>  (11) 
rxn_982

>  <mol_properties>  (11) 
{"0": {"label": "*0", "atom_type": "S2s"}, "1": {"label": "*1", "atom_type": "Cs"}, "9": {"label": "*4", "atom_type": "Cs"}, "10": {"label": "*3", "atom_type": "Cs"}, "16": {"label": "*2", "atom_type": "H0"}}

>  <type>  (11) 
unop_7

>  <geom_source>  (11) 
Heuristics

$$$$

     RDKit          3D

 23 21  0  0  0  0  0  0  0  0999 V2000
    1.8878    0.8203    0.4332 S   0  0  0  0  0  0  0  0  0  0  0  0
    0.6855   -0.5430    0.2975 C   0  0  0  0  0  0  0  0  0  0  0  0
    1.3394   -1.8759    0.1505 C   0  0  0  0  0  0  0  0  0  0  0  0
    1.1926   -2.8715    1.0110 C   0  0  0  0  0  0  0  0  0  0  0  0
    2.5250    0.3493    1.5130 H   0  0  0  0  0  0  0  0  0  0  0  0
    0.0090   -0.5255    1.1514 H   0  0  0  0  0  0  0  0  0  0  0  0
    1.9816   -1.9962   -0.7167 H   0  0  0  0  0  0  0  0  0  0  0  0
    0.5650   -2.7726    1.8903 H   0  0  0  0  0  0  0  0  0  0  0  0
    1.6920   -3.8209    0.8667 H   0  0  0  0  0  0  0  0  0  0  0  0
   -1.5182    0.6319   -2.0361 C   0  0  0  0  0  0  0  0  0  0  0  0
   -1.5182    0.6319   -0.5104 C   0  0  0  0  0  3  0  0  0  0  0  0
   -1.5182    2.0565    0.0357 C   0  0  0  0  0  0  0  0  0  0  0  0
   -2.7011   -0.1622    0.0357 C   0  0  0  0  0  0  0  0  0  0  0  0
   -0.6575    1.1742   -2.4332 H   0  0  0  0  0  0  0  0  0  0  0  0
   -2.4222    1.1139   -2.4199 H   0  0  0  0  0  0  0  0  0  0  0  0
   -1.4888   -0.3850   -2.4332 H   0  0  0  0  0  0  0  0  0  0  0  0
   -0.4146    0.0435   -0.1058 H   0  0  0  0  0  0  0  0  0  0  0  0
   -2.4222    2.5874   -0.2770 H   0  0  0  0  0  0  0  0  0  0  0  0
   -1.4887    2.0633    1.1273 H   0  0  0  0  0  0  0  0  0  0  0  0
   -0.6576    2.6214   -0.3286 H   0  0  0  0  0  0  0  0  0  0  0  0
   -2.6904   -1.1916   -0.3287 H   0  0  0  0  0  0  0  0  0  0  0  0
   -3.6457    0.2926   -0.2768 H   0  0  0  0  0  0  0  0  0  0  0  0
   -2.6902   -0.1906    1.1273 H   0  0  0  0  0  0  0  0  0  0  0  0
  1  2  1  0
  1  5  1  0
  2  3  1  0
  2  6  1  0
  2 17  1  0
  3  4  2  3
  3  7  1  0
  4  8  1  0
  4  9  1  0
 10 11  1  0
 10 14  1  0
 10 15  1  0
 10 16  1  0
 11 12  1  0
 11 13  1  0
 12 18  1  0
 12 19  1  0
 12 20  1  0
 13 21  1  0
 13 22  1  0
 13 23  1  0
M  RAD  1  11   2
M  END
>  <reaction>  (12) 
rxn_982

>  <mol_properties>  (12) 
{"0": {"label": "*0", "atom_type": "S2s"}, "1": {"label": "*1", "atom_type": "Cs"}, "9": {"label": "*4", "atom_type": "Cs"}, "10": {"label": "*3", "atom_type": "Cs"}, "16": {"label": "*2", "atom_type": "H0"}}

>  <type>  (12) 
unop_8

>  <geom_source>  (12) 
Heuristics

$$$$

     RDKit          3D

 23 21  0  0  0  0  0  0  0  0999 V2000
    1.4510   -1.3546   -0.9721 S   0  0  0  0  0  0  0  0  0  0  0  0
    1.0808   -0.1551    0.3494 C   0  0  0  0  0  0  0  0  0  0  0  0
    0.4522   -0.7895    1.5444 C   0  0  0  0  0  0  0  0  0  0  0  0
    0.9864   -0.7781    2.7559 C   0  0  0  0  0  0  0  0  0  0  0  0
    2.2410   -2.1472   -0.2362 H   0  0  0  0  0  0  0  0  0  0  0  0
    1.9857    0.3884    0.6194 H   0  0  0  0  0  0  0  0  0  0  0  0
   -0.4914   -1.2979    1.3704 H   0  0  0  0  0  0  0  0  0  0  0  0
    1.9329   -0.2862    2.9532 H   0  0  0  0  0  0  0  0  0  0  0  0
    0.4965   -1.2575    3.5937 H   0  0  0  0  0  0  0  0  0  0  0  0
   -1.1230    1.0198   -1.9841 C   0  0  0  0  0  0  0  0  0  0  0  0
   -1.1230    1.0198   -0.4584 C   0  0  0  0  0  3  0  0  0  0  0  0
   -1.1230    2.4444    0.0876 C   0  0  0  0  0  0  0  0  0  0  0  0
   -2.3058    0.2257    0.0876 C   0  0  0  0  0  0  0  0  0  0  0  0
   -0.2623    1.5620   -2.3812 H   0  0  0  0  0  0  0  0  0  0  0  0
   -2.0270    1.5018   -2.3679 H   0  0  0  0  0  0  0  0  0  0  0  0
   -1.0936    0.0029   -2.3812 H   0  0  0  0  0  0  0  0  0  0  0  0
   -0.0193    0.4314   -0.0538 H   0  0  0  0  0  0  0  0  0  0  0  0
   -2.0270    2.9753   -0.2250 H   0  0  0  0  0  0  0  0  0  0  0  0
   -1.0935    2.4512    1.1792 H   0  0  0  0  0  0  0  0  0  0  0  0
   -0.2623    3.0093   -0.2766 H   0  0  0  0  0  0  0  0  0  0  0  0
   -2.2951   -0.8037   -0.2768 H   0  0  0  0  0  0  0  0  0  0  0  0
   -3.2504    0.6805   -0.2249 H   0  0  0  0  0  0  0  0  0  0  0  0
   -2.2949    0.1973    1.1792 H   0  0  0  0  0  0  0  0  0  0  0  0
  1  2  1  0
  1  5  1  0
  2  3  1  0
  2  6  1  0
  2 17  1  0
  3  4  2  3
  3  7  1  0
  4  8  1  0
  4  9  1  0
 10 11  1  0
 10 14  1  0
 10 15  1  0
 10 16  1  0
 11 12  1  0
 11 13  1  0
 12 18  1  0
 12 19  1  0
 12 20  1  0
 13 21  1  0
 13 22  1  0
 13 23  1  0
M  RAD  1  11   2
M  END
>  <reaction>  (13) 
rxn_982

>  <mol_properties>  (13) 
{"0": {"label": "*0", "atom_type": "S2s"}, "1": {"label": "*1", "atom_type": "Cs"}, "9": {"label": "*4", "atom_type": "Cs"}, "10": {"label": "*3", "atom_type": "Cs"}, "16": {"label": "*2", "atom_type": "H0"}}

>  <type>  (13) 
unop_9

>  <geom_source>  (13) 
Heuristics

$$$$

     RDKit          3D

 23 21  0  0  0  0  0  0  0  0999 V2000
    2.0129    0.5407   -0.3015 S   0  0  0  0  0  0  0  0  0  0  0  0
    0.6820   -0.4854    0.4041 C   0  0  0  0  0  0  0  0  0  0  0  0
    1.0904   -1.9074    0.5960 C   0  0  0  0  0  0  0  0  0  0  0  0
    1.1190   -2.5176    1.7708 C   0  0  0  0  0  0  0  0  0  0  0  0
    2.9098    0.3058    0.6651 H   0  0  0  0  0  0  0  0  0  0  0  0
    0.3306   -0.0449    1.3367 H   0  0  0  0  0  0  0  0  0  0  0  0
    1.3932   -2.4392   -0.3010 H   0  0  0  0  0  0  0  0  0  0  0  0
    0.8313   -2.0051    2.6826 H   0  0  0  0  0  0  0  0  0  0  0  0
    1.4284   -3.5507    1.8633 H   0  0  0  0  0  0  0  0  0  0  0  0
   -1.5218    0.6894   -1.9295 C   0  0  0  0  0  0  0  0  0  0  0  0
   -1.5218    0.6894   -0.4037 C   0  0  0  0  0  3  0  0  0  0  0  0
   -1.5218    2.1141    0.1423 C   0  0  0  0  0  0  0  0  0  0  0  0
   -2.7046   -0.1046    0.1423 C   0  0  0  0  0  0  0  0  0  0  0  0
   -0.6611    1.2317   -2.3265 H   0  0  0  0  0  0  0  0  0  0  0  0
   -2.4258    1.1714   -2.3132 H   0  0  0  0  0  0  0  0  0  0  0  0
   -1.4924   -0.3274   -2.3265 H   0  0  0  0  0  0  0  0  0  0  0  0
   -0.4181    0.1010    0.0008 H   0  0  0  0  0  0  0  0  0  0  0  0
   -2.4258    2.6449   -0.1703 H   0  0  0  0  0  0  0  0  0  0  0  0
   -1.4923    2.1209    1.2339 H   0  0  0  0  0  0  0  0  0  0  0  0
   -0.6611    2.6789   -0.2219 H   0  0  0  0  0  0  0  0  0  0  0  0
   -2.6940   -1.1340   -0.2221 H   0  0  0  0  0  0  0  0  0  0  0  0
   -3.6492    0.3501   -0.1702 H   0  0  0  0  0  0  0  0  0  0  0  0
   -2.6937   -0.1331    1.2339 H   0  0  0  0  0  0  0  0  0  0  0  0
  1  2  1  0
  1  5  1  0
  2  3  1  0
  2  6  1  0
  2 17  1  0
  3  4  2  3
  3  7  1  0
  4  8  1  0
  4  9  1  0
 10 11  1  0
 10 14  1  0
 10 15  1  0
 10 16  1  0
 11 12  1  0
 11 13  1  0
 12 18  1  0
 12 19  1  0
 12 20  1  0
 13 21  1  0
 13 22  1  0
 13 23  1  0
M  RAD  1  11   2
M  END
>  <reaction>  (14) 
rxn_982

>  <mol_properties>  (14) 
{"0": {"label": "*0", "atom_type": "S2s"}, "1": {"label": "*1", "atom_type": "Cs"}, "9": {"label": "*4", "atom_type": "Cs"}, "10": {"label": "*3", "atom_type": "Cs"}, "16": {"label": "*2", "atom_type": "H0"}}

>  <type>  (14) 
unop_10

>  <geom_source>  (14) 
Heuristics

$$$$

     RDKit          3D

 23 21  0  0  0  0  0  0  0  0999 V2000
    0.4869   -1.4695    1.6075 S   0  0  0  0  0  0  0  0  0  0  0  0
    0.9487   -0.7135    0.0144 C   0  0  0  0  0  0  0  0  0  0  0  0
    1.5745    0.6312    0.1743 C   0  0  0  0  0  0  0  0  0  0  0  0
    2.8040    0.9271   -0.2185 C   0  0  0  0  0  0  0  0  0  0  0  0
    1.7138   -1.4457    2.1443 H   0  0  0  0  0  0  0  0  0  0  0  0
    1.5982   -1.3894   -0.5409 H   0  0  0  0  0  0  0  0  0  0  0  0
    0.9630    1.3842    0.6621 H   0  0  0  0  0  0  0  0  0  0  0  0
    3.4384    0.1897   -0.6986 H   0  0  0  0  0  0  0  0  0  0  0  0
    3.2195    1.9165   -0.0765 H   0  0  0  0  0  0  0  0  0  0  0  0
   -1.2551    0.4613   -2.3191 C   0  0  0  0  0  0  0  0  0  0  0  0
   -1.2551    0.4613   -0.7934 C   0  0  0  0  0  3  0  0  0  0  0  0
   -1.2551    1.8860   -0.2474 C   0  0  0  0  0  0  0  0  0  0  0  0
   -2.4380   -0.3327   -0.2474 C   0  0  0  0  0  0  0  0  0  0  0  0
   -0.3944    1.0036   -2.7162 H   0  0  0  0  0  0  0  0  0  0  0  0
   -2.1591    0.9433   -2.7029 H   0  0  0  0  0  0  0  0  0  0  0  0
   -1.2257   -0.5555   -2.7162 H   0  0  0  0  0  0  0  0  0  0  0  0
   -0.1515   -0.1271   -0.3888 H   0  0  0  0  0  0  0  0  0  0  0  0
   -2.1591    2.4168   -0.5600 H   0  0  0  0  0  0  0  0  0  0  0  0
   -1.2256    1.8928    0.8442 H   0  0  0  0  0  0  0  0  0  0  0  0
   -0.3944    2.4508   -0.6116 H   0  0  0  0  0  0  0  0  0  0  0  0
   -2.4273   -1.3621   -0.6118 H   0  0  0  0  0  0  0  0  0  0  0  0
   -3.3826    0.1220   -0.5599 H   0  0  0  0  0  0  0  0  0  0  0  0
   -2.4270   -0.3612    0.8442 H   0  0  0  0  0  0  0  0  0  0  0  0
  1  2  1  0
  1  5  1  0
  2  3  1  0
  2  6  1  0
  2 17  1  0
  3  4  2  3
  3  7  1  0
  4  8  1  0
  4  9  1  0
 10 11  1  0
 10 14  1  0
 10 15  1  0
 10 16  1  0
 11 12  1  0
 11 13  1  0
 12 18  1  0
 12 19  1  0
 12 20  1  0
 13 21  1  0
 13 22  1  0
 13 23  1  0
M  RAD  1  11   2
M  END
>  <reaction>  (15) 
rxn_982

>  <mol_properties>  (15) 
{"0": {"label": "*0", "atom_type": "S2s"}, "1": {"label": "*1", "atom_type": "Cs"}, "9": {"label": "*4", "atom_type": "Cs"}, "10": {"label": "*3", "atom_type": "Cs"}, "16": {"label": "*2", "atom_type": "H0"}}

>  <type>  (15) 
unop_11

>  <geom_source>  (15) 
Heuristics

$$$$

     RDKit          3D

 23 21  0  0  0  0  0  0  0  0999 V2000
    1.7510   -0.6632   -1.0709 S   0  0  0  0  0  0  0  0  0  0  0  0
    0.9004   -0.2097    0.4762 C   0  0  0  0  0  0  0  0  0  0  0  0
    0.5868   -1.3924    1.3298 C   0  0  0  0  0  0  0  0  0  0  0  0
    1.0570   -1.5665    2.5553 C   0  0  0  0  0  0  0  0  0  0  0  0
    2.7949   -1.2721   -0.4933 H   0  0  0  0  0  0  0  0  0  0  0  0
    1.4911    0.5264    1.0206 H   0  0  0  0  0  0  0  0  0  0  0  0
   -0.0544   -2.1448    0.8808 H   0  0  0  0  0  0  0  0  0  0  0  0
    1.7076   -0.8346    3.0219 H   0  0  0  0  0  0  0  0  0  0  0  0
    0.8071   -2.4448    3.1366 H   0  0  0  0  0  0  0  0  0  0  0  0
   -1.3034    0.9652   -1.8574 C   0  0  0  0  0  0  0  0  0  0  0  0
   -1.3034    0.9652   -0.3317 C   0  0  0  0  0  3  0  0  0  0  0  0
   -1.3034    2.3898    0.2143 C   0  0  0  0  0  0  0  0  0  0  0  0
   -2.4862    0.1711    0.2143 C   0  0  0  0  0  0  0  0  0  0  0  0
   -0.4427    1.5074   -2.2545 H   0  0  0  0  0  0  0  0  0  0  0  0
   -2.2073    1.4471   -2.2412 H   0  0  0  0  0  0  0  0  0  0  0  0
   -1.2739   -0.0517   -2.2545 H   0  0  0  0  0  0  0  0  0  0  0  0
   -0.1997    0.3768    0.0729 H   0  0  0  0  0  0  0  0  0  0  0  0
   -2.2074    2.9206   -0.0983 H   0  0  0  0  0  0  0  0  0  0  0  0
   -1.2739    2.3966    1.3059 H   0  0  0  0  0  0  0  0  0  0  0  0
   -0.4427    2.9546   -0.1499 H   0  0  0  0  0  0  0  0  0  0  0  0
   -2.4755   -0.8583   -0.1500 H   0  0  0  0  0  0  0  0  0  0  0  0
   -3.4308    0.6258   -0.0982 H   0  0  0  0  0  0  0  0  0  0  0  0
   -2.4753    0.1427    1.3059 H   0  0  0  0  0  0  0  0  0  0  0  0
  1  2  1  0
  1  5  1  0
  2  3  1  0
  2  6  1  0
  2 17  1  0
  3  4  2  3
  3  7  1  0
  4  8  1  0
  4  9  1  0
 10 11  1  0
 10 14  1  0
 10 15  1  0
 10 16  1  0
 11 12  1  0
 11 13  1  0
 12 18  1  0
 12 19  1  0
 12 20  1  0
 13 21  1  0
 13 22  1  0
 13 23  1  0
M  RAD  1  11   2
M  END
>  <reaction>  (16) 
rxn_982

>  <mol_properties>  (16) 
{"0": {"label": "*0", "atom_type": "S2s"}, "1": {"label": "*1", "atom_type": "Cs"}, "9": {"label": "*4", "atom_type": "Cs"}, "10": {"label": "*3", "atom_type": "Cs"}, "16": {"label": "*2", "atom_type": "H0"}}

>  <type>  (16) 
unop_12

>  <geom_source>  (16) 
Heuristics

$$$$

     RDKit          3D

 23 21  0  0  0  0  0  0  0  0999 V2000
    1.4889   -2.4561   -0.6246 S   0  0  0  0  0  0  0  0  0  0  0  0
    1.3708   -0.6414   -0.6688 C   0  0  0  0  0  3  0  0  0  0  0  0
   -1.9106   -1.2039   -0.3037 C   0  0  0  0  0  0  0  0  0  0  0  0
   -1.2096    0.3944    1.5235 C   0  0  0  0  0  0  0  0  0  0  0  0
   -1.3461    1.1931   -0.8699 C   0  0  0  0  0  0  0  0  0  0  0  0
   -1.0481    0.0087    0.0517 C   0  0  0  0  0  0  0  0  0  0  0  0
    2.5722   -0.0155   -0.0246 C   0  0  0  0  0  0  0  0  0  0  0  0
    2.6772    1.3108    0.0778 C   0  0  0  0  0  0  0  0  0  0  0  0
    1.3026   -0.3138   -1.7277 H   0  0  0  0  0  0  0  0  0  0  0  0
    0.2482   -0.2546   -0.0129 H   0  0  0  0  0  0  0  0  0  0  0  0
   -1.6382   -2.0649    0.3423 H   0  0  0  0  0  0  0  0  0  0  0  0
   -1.7354   -1.4967   -1.3604 H   0  0  0  0  0  0  0  0  0  0  0  0
   -2.9887   -0.9725   -0.1650 H   0  0  0  0  0  0  0  0  0  0  0  0
   -2.2585    0.6921    1.7380 H   0  0  0  0  0  0  0  0  0  0  0  0
   -0.9361   -0.4643    2.1722 H   0  0  0  0  0  0  0  0  0  0  0  0
   -0.5344    1.2410    1.7694 H   0  0  0  0  0  0  0  0  0  0  0  0
   -0.6712    2.0408   -0.6274 H   0  0  0  0  0  0  0  0  0  0  0  0
   -1.1700    0.9037   -1.9274 H   0  0  0  0  0  0  0  0  0  0  0  0
   -2.4007    1.5239   -0.7546 H   0  0  0  0  0  0  0  0  0  0  0  0
    3.3691   -0.6393    0.3705 H   0  0  0  0  0  0  0  0  0  0  0  0
    1.8980    1.9637   -0.3043 H   0  0  0  0  0  0  0  0  0  0  0  0
    3.5501    1.7520    0.5480 H   0  0  0  0  0  0  0  0  0  0  0  0
    1.3706   -2.5011    0.7778 H   0  0  0  0  0  0  0  0  0  0  0  0
  1  2  1  0
  1 23  1  0
  2  7  1  0
  2  9  1  0
  3  6  1  0
  3 11  1  0
  3 12  1  0
  3 13  1  0
  4  6  1  0
  4 14  1  0
  4 15  1  0
  4 16  1  0
  5  6  1  0
  5 17  1  0
  5 18  1  0
  5 19  1  0
  6 10  1  0
  7  8  2  3
  7 20  1  0
  8 21  1  0
  8 22  1  0
M  RAD  1   2   2
M  END
>  <reaction>  (17) 
rxn_982

>  <mol_properties>  (17) 
{"0": {"label": "*0", "atom_type": "S2s"}, "1": {"label": "*1", "atom_type": "Cs"}, "9": {"label": "*4", "atom_type": "Cs"}, "10": {"label": "*3", "atom_type": "Cs"}, "16": {"label": "*2", "atom_type": "H0"}}

>  <type>  (17) 
unop_13

>  <geom_source>  (17) 
AutoTST

$$$$

     RDKit          3D

 23 21  0  0  0  0  0  0  0  0999 V2000
    1.9492    0.0063   -0.8331 S   0  0  0  0  0  0  0  0  0  0  0  0
    0.7470   -0.3548    0.4885 C   0  0  0  0  0  0  0  0  0  0  0  0
    0.8444   -1.7568    0.9892 C   0  0  0  0  0  0  0  0  0  0  0  0
    1.1372   -2.0776    2.2401 C   0  0  0  0  0  0  0  0  0  0  0  0
    3.0446   -0.2961   -0.1241 H   0  0  0  0  0  0  0  0  0  0  0  0
    0.8616    0.3643    1.2990 H   0  0  0  0  0  0  0  0  0  0  0  0
    0.6765   -2.5364    0.2524 H   0  0  0  0  0  0  0  0  0  0  0  0
    1.3194   -1.3174    2.9922 H   0  0  0  0  0  0  0  0  0  0  0  0
    1.2030   -3.1103    2.5576 H   0  0  0  0  0  0  0  0  0  0  0  0
   -1.4568    0.8200   -1.8451 C   0  0  0  0  0  0  0  0  0  0  0  0
   -1.4568    0.8200   -0.3194 C   0  0  0  0  0  3  0  0  0  0  0  0
   -1.4568    2.2447    0.2266 C   0  0  0  0  0  0  0  0  0  0  0  0
   -2.6396    0.0260    0.2266 C   0  0  0  0  0  0  0  0  0  0  0  0
   -0.5961    1.3623   -2.2422 H   0  0  0  0  0  0  0  0  0  0  0  0
   -2.3608    1.3020   -2.2289 H   0  0  0  0  0  0  0  0  0  0  0  0
   -1.4274   -0.1968   -2.2422 H   0  0  0  0  0  0  0  0  0  0  0  0
   -0.3531    0.2316    0.0852 H   0  0  0  0  0  0  0  0  0  0  0  0
   -2.3608    2.7755   -0.0860 H   0  0  0  0  0  0  0  0  0  0  0  0
   -1.4273    2.2515    1.3182 H   0  0  0  0  0  0  0  0  0  0  0  0
   -0.5961    2.8095   -0.1376 H   0  0  0  0  0  0  0  0  0  0  0  0
   -2.6290   -1.0034   -0.1377 H   0  0  0  0  0  0  0  0  0  0  0  0
   -3.5842    0.4807   -0.0858 H   0  0  0  0  0  0  0  0  0  0  0  0
   -2.6287   -0.0024    1.3182 H   0  0  0  0  0  0  0  0  0  0  0  0
  1  2  1  0
  1  5  1  0
  2  3  1  0
  2  6  1  0
  2 17  1  0
  3  4  2  3
  3  7  1  0
  4  8  1  0
  4  9  1  0
 10 11  1  0
 10 14  1  0
 10 15  1  0
 10 16  1  0
 11 12  1  0
 11 13  1  0
 12 18  1  0
 12 19  1  0
 12 20  1  0
 13 21  1  0
 13 22  1  0
 13 23  1  0
M  RAD  1  11   2
M  END
>  <reaction>  (18) 
rxn_982

>  <mol_properties>  (18) 
{"0": {"label": "*0", "atom_type": "S2s"}, "1": {"label": "*1", "atom_type": "Cs"}, "9": {"label": "*4", "atom_type": "Cs"}, "10": {"label": "*3", "atom_type": "Cs"}, "16": {"label": "*2", "atom_type": "H0"}}

>  <type>  (18) 
unop_14

>  <geom_source>  (18) 
gaussian_log

$$$$
