
     RDKit          3D

  6  5  0  0  0  0  0  0  0  0999 V2000
   -0.5072   -0.0291   -0.0097 C   0  0  0  0  0  0  0  0  0  0  0  0
    1.1321   -0.1527   -0.7687 S   0  0  0  0  0  0  0  0  0  0  0  0
   -0.6174   -0.7330    0.8127 H   0  0  0  0  0  0  0  0  0  0  0  0
   -0.5863    0.9827    0.3845 H   0  0  0  0  0  0  0  0  0  0  0  0
   -1.2962   -0.1800   -0.7434 H   0  0  0  0  0  0  0  0  0  0  0  0
    1.0312   -1.4237   -1.1764 H   0  0  0  0  0  0  0  0  0  0  0  0
  1  2  1  0
  1  3  1  0
  1  4  1  0
  1  5  1  0
  2  6  1  0
M  END
>  <reaction>  (1) 
rxn_1803

>  <mol_properties>  (1) 
{"0": {"label": "donator", "atom_type": "Cs"}, "2": {"label": "d_hydrogen", "atom_type": "H0"}}

>  <type>  (1) 
r1h

$$$$

     RDKit          3D

 10  9  0  0  0  0  0  0  0  0999 V2000
    1.2930    0.1441    0.3288 C   0  0  0  0  0  0  0  0  0  0  0  0
   -0.0374   -0.1647    0.9100 C   0  0  0  0  0  3  0  0  0  0  0  0
   -1.2664    0.4569    0.3567 C   0  0  0  0  0  0  0  0  0  0  0  0
    1.4384    1.2242    0.2174 H   0  0  0  0  0  0  0  0  0  0  0  0
    2.1077   -0.2477    0.9385 H   0  0  0  0  0  0  0  0  0  0  0  0
    1.4057   -0.2836   -0.6789 H   0  0  0  0  0  0  0  0  0  0  0  0
   -0.1309   -0.9912    1.6030 H   0  0  0  0  0  0  0  0  0  0  0  0
   -1.5005    0.0716   -0.6471 H   0  0  0  0  0  0  0  0  0  0  0  0
   -2.1382    0.2713    0.9849 H   0  0  0  0  0  0  0  0  0  0  0  0
   -1.1497    1.5406    0.2456 H   0  0  0  0  0  0  0  0  0  0  0  0
  1  2  1  0
  1  4  1  0
  1  5  1  0
  1  6  1  0
  2  3  1  0
  2  7  1  0
  3  8  1  0
  3  9  1  0
  3 10  1  0
M  RAD  1   2   2
M  END
>  <reaction>  (2) 
rxn_1803

>  <mol_properties>  (2) 
{"1": {"label": "acceptor", "atom_type": "Cs"}}

>  <type>  (2) 
r2

$$$$

     RDKit          3D

 11 10  0  0  0  0  0  0  0  0999 V2000
   -1.2710    0.1907   -0.2084 C   0  0  0  0  0  0  0  0  0  0  0  0
    0.0202   -0.6130   -0.2928 C   0  0  0  0  0  0  0  0  0  0  0  0
    0.1086   -1.6953    0.7756 C   0  0  0  0  0  0  0  0  0  0  0  0
   -1.3607    0.6851    0.7620 H   0  0  0  0  0  0  0  0  0  0  0  0
   -2.1429   -0.4567   -0.3299 H   0  0  0  0  0  0  0  0  0  0  0  0
   -1.3158    0.9602   -0.9809 H   0  0  0  0  0  0  0  0  0  0  0  0
    0.8757    0.0616   -0.1992 H   0  0  0  0  0  0  0  0  0  0  0  0
    0.0997   -1.0712   -1.2825 H   0  0  0  0  0  0  0  0  0  0  0  0
   -0.7198   -2.4022    0.6850 H   0  0  0  0  0  0  0  0  0  0  0  0
    1.0395   -2.2596    0.6989 H   0  0  0  0  0  0  0  0  0  0  0  0
    0.0624   -1.2603    1.7770 H   0  0  0  0  0  0  0  0  0  0  0  0
  1  2  1  0
  1  4  1  0
  1  5  1  0
  1  6  1  0
  2  3  1  0
  2  7  1  0
  2  8  1  0
  3  9  1  0
  3 10  1  0
  3 11  1  0
M  END
>  <reaction>  (3) 
rxn_1803

>  <mol_properties>  (3) 
{"0": {"label": "a_hydrogen", "atom_type": "H0"}, "2": {"label": "acceptor", "atom_type": "Cs"}}

>  <type>  (3) 
r2h

$$$$

     RDKit          3D

 16 14  0  0  0  0  0  0  0  0999 V2000
   -0.1298   -1.3078    0.1135 C   0  0  0  0  0  3  0  0  0  0  0  0
    0.8197   -1.0801   -1.3677 S   0  0  0  0  0  0  0  0  0  0  0  0
   -0.2156   -0.1449    0.7913 H   0  0  0  0  0  0  0  0  0  0  0  0
   -1.1579   -1.5420   -0.1522 H   0  0  0  0  0  0  0  0  0  0  0  0
    0.2879   -2.0331    0.8072 H   0  0  0  0  0  0  0  0  0  0  0  0
    2.0098   -0.8945   -0.7822 H   0  0  0  0  0  0  0  0  0  0  0  0
   -1.1136    1.8892    0.4218 C   0  0  0  0  0  0  0  0  0  0  0  0
   -0.2591    1.0731    1.3545 C   0  0  0  0  0  0  0  0  0  0  0  0
    1.1820    1.4950    1.4634 C   0  0  0  0  0  0  0  0  0  0  0  0
   -0.6928    1.8864   -0.5873 H   0  0  0  0  0  0  0  0  0  0  0  0
   -2.1316    1.5000    0.3648 H   0  0  0  0  0  0  0  0  0  0  0  0
   -1.1755    2.9334    0.7485 H   0  0  0  0  0  0  0  0  0  0  0  0
   -0.7280    0.8808    2.3204 H   0  0  0  0  0  0  0  0  0  0  0  0
    1.2729    2.4937    1.9052 H   0  0  0  0  0  0  0  0  0  0  0  0
    1.7580    0.8068    2.0853 H   0  0  0  0  0  0  0  0  0  0  0  0
    1.6480    1.5348    0.4751 H   0  0  0  0  0  0  0  0  0  0  0  0
  1  2  1  0
  1  4  1  0
  1  5  1  0
  2  6  1  0
  3  8  1  0
  7  8  1  0
  7 10  1  0
  7 11  1  0
  7 12  1  0
  8  9  1  0
  8 13  1  0
  9 14  1  0
  9 15  1  0
  9 16  1  0
M  RAD  1   1   2
M  END
>  <reaction>  (4) 
rxn_1803

>  <mol_properties>  (4) 
{"0": {"label": "*3", "atom_type": "Cs"}, "1": {"label": "*4", "atom_type": "S2s"}, "2": {"label": "*2", "atom_type": "H0"}, "6": {"label": "*0", "atom_type": "Cs"}, "7": {"label": "*1", "atom_type": "Cs"}}

>  <type>  (4) 
ts

$$$$

     RDKit          3D

 16 14  0  0  0  0  0  0  0  0999 V2000
    0.0860   -1.4193    0.1168 C   0  0  0  0  0  0  0  0  0  0  0  0
    0.0860   -1.4193   -1.6938 S   0  0  0  0  0  0  0  0  0  0  0  0
    0.0860   -0.2035    0.5926 H   0  0  0  0  0  0  0  0  0  0  0  0
   -0.8347   -1.9135    0.4228 H   0  0  0  0  0  0  0  0  0  0  0  0
    0.9303   -1.9793    0.5133 H   0  0  0  0  0  0  0  0  0  0  0  0
    1.2563   -0.7912   -1.8602 H   0  0  0  0  0  0  0  0  0  0  0  0
   -1.1581    1.2290    1.9244 C   0  0  0  0  0  0  0  0  0  0  0  0
    0.0860    1.0185    1.0708 C   0  0  0  0  0  3  0  0  0  0  0  0
    0.7188    2.3297    0.6228 C   0  0  0  0  0  0  0  0  0  0  0  0
   -1.9204    1.7852    1.3735 H   0  0  0  0  0  0  0  0  0  0  0  0
   -1.5966    0.2793    2.2353 H   0  0  0  0  0  0  0  0  0  0  0  0
   -0.9213    1.7994    2.8259 H   0  0  0  0  0  0  0  0  0  0  0  0
    0.8191    0.4342    1.6337 H   0  0  0  0  0  0  0  0  0  0  0  0
    1.0147    2.9348    1.4832 H   0  0  0  0  0  0  0  0  0  0  0  0
    1.6076    2.1585    0.0131 H   0  0  0  0  0  0  0  0  0  0  0  0
    0.0156    2.9207    0.0308 H   0  0  0  0  0  0  0  0  0  0  0  0
  1  2  1  0
  1  3  1  0
  1  4  1  0
  1  5  1  0
  2  6  1  0
  7  8  1  0
  7 10  1  0
  7 11  1  0
  7 12  1  0
  8  9  1  0
  8 13  1  0
  9 14  1  0
  9 15  1  0
  9 16  1  0
M  RAD  1   8   2
M  END
>  <reaction>  (5) 
rxn_1803

>  <mol_properties>  (5) 
{"0": {"label": "*3", "atom_type": "Cs"}, "1": {"label": "*4", "atom_type": "S2s"}, "2": {"label": "*2", "atom_type": "H0"}, "6": {"label": "*0", "atom_type": "Cs"}, "7": {"label": "*1", "atom_type": "Cs"}}

>  <type>  (5) 
unop_1

>  <geom_source>  (5) 
Heuristics

$$$$

     RDKit          3D

 16 14  0  0  0  0  0  0  0  0999 V2000
   -0.0945   -1.4304    0.2469 C   0  0  0  0  0  0  0  0  0  0  0  0
   -0.0945   -1.4304   -1.5638 S   0  0  0  0  0  0  0  0  0  0  0  0
   -0.0945   -0.2146    0.7226 H   0  0  0  0  0  0  0  0  0  0  0  0
   -1.0152   -1.9246    0.5528 H   0  0  0  0  0  0  0  0  0  0  0  0
    0.7498   -1.9904    0.6434 H   0  0  0  0  0  0  0  0  0  0  0  0
    1.0758   -0.8023   -1.7302 H   0  0  0  0  0  0  0  0  0  0  0  0
   -0.8128    1.9329    0.2272 C   0  0  0  0  0  0  0  0  0  0  0  0
   -0.0945    1.0074    1.2008 C   0  0  0  0  0  3  0  0  0  0  0  0
    1.1420    1.6493    1.8168 C   0  0  0  0  0  0  0  0  0  0  0  0
   -0.1538    2.2221   -0.5952 H   0  0  0  0  0  0  0  0  0  0  0  0
   -1.6949    1.4559   -0.2032 H   0  0  0  0  0  0  0  0  0  0  0  0
   -1.1377    2.8490    0.7265 H   0  0  0  0  0  0  0  0  0  0  0  0
   -0.7840    0.7092    1.9955 H   0  0  0  0  0  0  0  0  0  0  0  0
    0.8786    2.5564    2.3662 H   0  0  0  0  0  0  0  0  0  0  0  0
    1.6423    0.9717    2.5107 H   0  0  0  0  0  0  0  0  0  0  0  0
    1.8625    1.9295    1.0446 H   0  0  0  0  0  0  0  0  0  0  0  0
  1  2  1  0
  1  3  1  0
  1  4  1  0
  1  5  1  0
  2  6  1  0
  7  8  1  0
  7 10  1  0
  7 11  1  0
  7 12  1  0
  8  9  1  0
  8 13  1  0
  9 14  1  0
  9 15  1  0
  9 16  1  0
M  RAD  1   8   2
M  END
>  <reaction>  (6) 
rxn_1803

>  <mol_properties>  (6) 
{"0": {"label": "*3", "atom_type": "Cs"}, "1": {"label": "*4", "atom_type": "S2s"}, "2": {"label": "*2", "atom_type": "H0"}, "6": {"label": "*0", "atom_type": "Cs"}, "7": {"label": "*1", "atom_type": "Cs"}}

>  <type>  (6) 
unop_2

>  <geom_source>  (6) 
Heuristics

$$$$

     RDKit          3D

 16 14  0  0  0  0  0  0  0  0999 V2000
    0.1242   -1.3908    0.0897 C   0  0  0  0  0  0  0  0  0  0  0  0
    0.1242   -1.3908   -1.7210 S   0  0  0  0  0  0  0  0  0  0  0  0
    0.1242   -0.1750    0.5655 H   0  0  0  0  0  0  0  0  0  0  0  0
   -0.7964   -1.8850    0.3956 H   0  0  0  0  0  0  0  0  0  0  0  0
    0.9686   -1.9508    0.4862 H   0  0  0  0  0  0  0  0  0  0  0  0
    1.2946   -0.7627   -1.8873 H   0  0  0  0  0  0  0  0  0  0  0  0
   -0.5940    1.0659    2.3869 C   0  0  0  0  0  0  0  0  0  0  0  0
    0.1242    1.0470    1.0437 C   0  0  0  0  0  3  0  0  0  0  0  0
   -0.0098    2.3629    0.2881 C   0  0  0  0  0  0  0  0  0  0  0  0
   -1.6618    1.2573    2.2563 H   0  0  0  0  0  0  0  0  0  0  0  0
   -0.4866    0.1156    2.9126 H   0  0  0  0  0  0  0  0  0  0  0  0
   -0.1950    1.8522    3.0322 H   0  0  0  0  0  0  0  0  0  0  0  0
    1.1832    0.8234    1.2002 H   0  0  0  0  0  0  0  0  0  0  0  0
    0.4076    3.1902    0.8673 H   0  0  0  0  0  0  0  0  0  0  0  0
    0.5106    2.3300   -0.6705 H   0  0  0  0  0  0  0  0  0  0  0  0
   -1.0593    2.5952    0.0913 H   0  0  0  0  0  0  0  0  0  0  0  0
  1  2  1  0
  1  3  1  0
  1  4  1  0
  1  5  1  0
  2  6  1  0
  7  8  1  0
  7 10  1  0
  7 11  1  0
  7 12  1  0
  8  9  1  0
  8 13  1  0
  9 14  1  0
  9 15  1  0
  9 16  1  0
M  RAD  1   8   2
M  END
>  <reaction>  (7) 
rxn_1803

>  <mol_properties>  (7) 
{"0": {"label": "*3", "atom_type": "Cs"}, "1": {"label": "*4", "atom_type": "S2s"}, "2": {"label": "*2", "atom_type": "H0"}, "6": {"label": "*0", "atom_type": "Cs"}, "7": {"label": "*1", "atom_type": "Cs"}}

>  <type>  (7) 
unop_3

>  <geom_source>  (7) 
Heuristics

$$$$

     RDKit          3D

 16 14  0  0  0  0  0  0  0  0999 V2000
   -0.2576   -1.1717    0.0464 C   0  0  0  0  0  0  0  0  0  0  0  0
   -0.2576   -1.1717   -1.7642 S   0  0  0  0  0  0  0  0  0  0  0  0
   -0.2576    0.0441    0.5222 H   0  0  0  0  0  0  0  0  0  0  0  0
   -1.1783   -1.6659    0.3524 H   0  0  0  0  0  0  0  0  0  0  0  0
    0.5868   -1.7317    0.4429 H   0  0  0  0  0  0  0  0  0  0  0  0
    0.9127   -0.5436   -1.9306 H   0  0  0  0  0  0  0  0  0  0  0  0
    0.9864    2.0000    0.5163 C   0  0  0  0  0  0  0  0  0  0  0  0
   -0.2576    1.2661    1.0004 C   0  0  0  0  0  3  0  0  0  0  0  0
   -0.0361    0.5463    2.3245 C   0  0  0  0  0  0  0  0  0  0  0  0
    1.8183    1.3062    0.3729 H   0  0  0  0  0  0  0  0  0  0  0  0
    0.8082    2.5089   -0.4325 H   0  0  0  0  0  0  0  0  0  0  0  0
    1.3051    2.7505    1.2439 H   0  0  0  0  0  0  0  0  0  0  0  0
   -1.0817    1.9771    1.1060 H   0  0  0  0  0  0  0  0  0  0  0  0
    0.2504    1.2509    3.1090 H   0  0  0  0  0  0  0  0  0  0  0  0
   -0.9375    0.0270    2.6545 H   0  0  0  0  0  0  0  0  0  0  0  0
    0.7635   -0.1934    2.2381 H   0  0  0  0  0  0  0  0  0  0  0  0
  1  2  1  0
  1  3  1  0
  1  4  1  0
  1  5  1  0
  2  6  1  0
  7  8  1  0
  7 10  1  0
  7 11  1  0
  7 12  1  0
  8  9  1  0
  8 13  1  0
  9 14  1  0
  9 15  1  0
  9 16  1  0
M  RAD  1   8   2
M  END
>  <reaction>  (8) 
rxn_1803

>  <mol_properties>  (8) 
{"0": {"label": "*3", "atom_type": "Cs"}, "1": {"label": "*4", "atom_type": "S2s"}, "2": {"label": "*2", "atom_type": "H0"}, "6": {"label": "*0", "atom_type": "Cs"}, "7": {"label": "*1", "atom_type": "Cs"}}

>  <type>  (8) 
unop_4

>  <geom_source>  (8) 
Heuristics

$$$$

     RDKit          3D

 16 14  0  0  0  0  0  0  0  0999 V2000
    0.1848   -1.2904    0.0304 C   0  0  0  0  0  0  0  0  0  0  0  0
    0.1848   -1.2904   -1.7802 S   0  0  0  0  0  0  0  0  0  0  0  0
    0.1848   -0.0746    0.5062 H   0  0  0  0  0  0  0  0  0  0  0  0
   -0.7359   -1.7846    0.3364 H   0  0  0  0  0  0  0  0  0  0  0  0
    1.0291   -1.8504    0.4269 H   0  0  0  0  0  0  0  0  0  0  0  0
    1.3551   -0.6623   -1.9466 H   0  0  0  0  0  0  0  0  0  0  0  0
    0.1848    1.0962    2.5068 C   0  0  0  0  0  0  0  0  0  0  0  0
    0.1848    1.1474    0.9844 C   0  0  0  0  0  3  0  0  0  0  0  0
   -1.0075    1.9116    0.4231 C   0  0  0  0  0  0  0  0  0  0  0  0
   -0.7184    0.6082    2.8813 H   0  0  0  0  0  0  0  0  0  0  0  0
    1.0455    0.5452    2.8897 H   0  0  0  0  0  0  0  0  0  0  0  0
    0.2156    2.1025    2.9316 H   0  0  0  0  0  0  0  0  0  0  0  0
    1.1115    1.6116    0.6358 H   0  0  0  0  0  0  0  0  0  0  0  0
   -1.0142    2.9436    0.7821 H   0  0  0  0  0  0  0  0  0  0  0  0
   -0.9900    1.9374   -0.6678 H   0  0  0  0  0  0  0  0  0  0  0  0
   -1.9483    1.4493    0.7318 H   0  0  0  0  0  0  0  0  0  0  0  0
  1  2  1  0
  1  3  1  0
  1  4  1  0
  1  5  1  0
  2  6  1  0
  7  8  1  0
  7 10  1  0
  7 11  1  0
  7 12  1  0
  8  9  1  0
  8 13  1  0
  9 14  1  0
  9 15  1  0
  9 16  1  0
M  RAD  1   8   2
M  END
>  <reaction>  (9) 
rxn_1803

>  <mol_properties>  (9) 
{"0": {"label": "*3", "atom_type": "Cs"}, "1": {"label": "*4", "atom_type": "S2s"}, "2": {"label": "*2", "atom_type": "H0"}, "6": {"label": "*0", "atom_type": "Cs"}, "7": {"label": "*1", "atom_type": "Cs"}}

>  <type>  (9) 
unop_5

>  <geom_source>  (9) 
Heuristics

$$$$

     RDKit          3D

 16 14  0  0  0  0  0  0  0  0999 V2000
   -0.1681   -1.1072   -0.0404 C   0  0  0  0  0  0  0  0  0  0  0  0
   -0.1681   -1.1072   -1.8510 S   0  0  0  0  0  0  0  0  0  0  0  0
   -0.1681    0.1087    0.4354 H   0  0  0  0  0  0  0  0  0  0  0  0
   -1.0888   -1.6013    0.2656 H   0  0  0  0  0  0  0  0  0  0  0  0
    0.6762   -1.6672    0.3561 H   0  0  0  0  0  0  0  0  0  0  0  0
    1.0022   -0.4790   -2.0174 H   0  0  0  0  0  0  0  0  0  0  0  0
    1.2683    1.8029    1.0984 C   0  0  0  0  0  0  0  0  0  0  0  0
   -0.1681    1.3307    0.9136 C   0  0  0  0  0  3  0  0  0  0  0  0
   -0.6648    0.4909    2.0835 C   0  0  0  0  0  0  0  0  0  0  0  0
    1.9486    0.9538    1.1998 H   0  0  0  0  0  0  0  0  0  0  0  0
    1.6057    2.4022    0.2511 H   0  0  0  0  0  0  0  0  0  0  0  0
    1.3661    2.4128    1.9997 H   0  0  0  0  0  0  0  0  0  0  0  0
   -0.8224    2.1973    0.7839 H   0  0  0  0  0  0  0  0  0  0  0  0
   -0.6279    1.0595    3.0159 H   0  0  0  0  0  0  0  0  0  0  0  0
   -1.6945    0.1624    1.9329 H   0  0  0  0  0  0  0  0  0  0  0  0
   -0.0454   -0.3995    2.2160 H   0  0  0  0  0  0  0  0  0  0  0  0
  1  2  1  0
  1  3  1  0
  1  4  1  0
  1  5  1  0
  2  6  1  0
  7  8  1  0
  7 10  1  0
  7 11  1  0
  7 12  1  0
  8  9  1  0
  8 13  1  0
  9 14  1  0
  9 15  1  0
  9 16  1  0
M  RAD  1   8   2
M  END
>  <reaction>  (10) 
rxn_1803

>  <mol_properties>  (10) 
{"0": {"label": "*3", "atom_type": "Cs"}, "1": {"label": "*4", "atom_type": "S2s"}, "2": {"label": "*2", "atom_type": "H0"}, "6": {"label": "*0", "atom_type": "Cs"}, "7": {"label": "*1", "atom_type": "Cs"}}

>  <type>  (10) 
unop_6

>  <geom_source>  (10) 
Heuristics

$$$$

     RDKit          3D

 16 14  0  0  0  0  0  0  0  0999 V2000
   -0.0285   -1.0903   -0.0834 C   0  0  0  0  0  0  0  0  0  0  0  0
   -0.0285   -1.0903   -1.8940 S   0  0  0  0  0  0  0  0  0  0  0  0
   -0.0285    0.1256    0.3924 H   0  0  0  0  0  0  0  0  0  0  0  0
   -0.9491   -1.5844    0.2226 H   0  0  0  0  0  0  0  0  0  0  0  0
    0.8159   -1.6503    0.3131 H   0  0  0  0  0  0  0  0  0  0  0  0
    1.1419   -0.4621   -2.0604 H   0  0  0  0  0  0  0  0  0  0  0  0
    1.2156    1.5580    1.7242 C   0  0  0  0  0  0  0  0  0  0  0  0
   -0.0285    1.3476    0.8706 C   0  0  0  0  0  3  0  0  0  0  0  0
   -1.1562    0.6661    1.6350 C   0  0  0  0  0  0  0  0  0  0  0  0
    1.6030    0.6047    2.0918 H   0  0  0  0  0  0  0  0  0  0  0  0
    2.0114    2.0470    1.1598 H   0  0  0  0  0  0  0  0  0  0  0  0
    0.9916    2.1800    2.5943 H   0  0  0  0  0  0  0  0  0  0  0  0
   -0.3769    2.3121    0.4910 H   0  0  0  0  0  0  0  0  0  0  0  0
   -1.4548    1.2599    2.5023 H   0  0  0  0  0  0  0  0  0  0  0  0
   -2.0377    0.5241    1.0075 H   0  0  0  0  0  0  0  0  0  0  0  0
   -0.8435   -0.3154    1.9998 H   0  0  0  0  0  0  0  0  0  0  0  0
  1  2  1  0
  1  3  1  0
  1  4  1  0
  1  5  1  0
  2  6  1  0
  7  8  1  0
  7 10  1  0
  7 11  1  0
  7 12  1  0
  8  9  1  0
  8 13  1  0
  9 14  1  0
  9 15  1  0
  9 16  1  0
M  RAD  1   8   2
M  END
>  <reaction>  (11) 
rxn_1803

>  <mol_properties>  (11) 
{"0": {"label": "*3", "atom_type": "Cs"}, "1": {"label": "*4", "atom_type": "S2s"}, "2": {"label": "*2", "atom_type": "H0"}, "6": {"label": "*0", "atom_type": "Cs"}, "7": {"label": "*1", "atom_type": "Cs"}}

>  <type>  (11) 
unop_7

>  <geom_source>  (11) 
Heuristics

$$$$

     RDKit          3D

 16 14  0  0  0  0  0  0  0  0999 V2000
    0.0615   -1.4361    0.1597 C   0  0  0  0  0  0  0  0  0  0  0  0
    0.0615   -1.4361   -1.6509 S   0  0  0  0  0  0  0  0  0  0  0  0
    0.0615   -0.2203    0.6355 H   0  0  0  0  0  0  0  0  0  0  0  0
   -0.8591   -1.9302    0.4657 H   0  0  0  0  0  0  0  0  0  0  0  0
    0.9059   -1.9961    0.5562 H   0  0  0  0  0  0  0  0  0  0  0  0
    1.2318   -0.8079   -1.8173 H   0  0  0  0  0  0  0  0  0  0  0  0
   -1.3749    1.4740    1.2985 C   0  0  0  0  0  0  0  0  0  0  0  0
    0.0615    1.0018    1.1137 C   0  0  0  0  0  3  0  0  0  0  0  0
    1.0571    2.1540    1.0716 C   0  0  0  0  0  0  0  0  0  0  0  0
   -1.6773    2.1339    0.4818 H   0  0  0  0  0  0  0  0  0  0  0  0
   -2.0725    0.6352    1.3262 H   0  0  0  0  0  0  0  0  0  0  0  0
   -1.4857    2.0323    2.2313 H   0  0  0  0  0  0  0  0  0  0  0  0
    0.3280    0.3200    1.9262 H   0  0  0  0  0  0  0  0  0  0  0  0
    1.0230    2.7337    1.9972 H   0  0  0  0  0  0  0  0  0  0  0  0
    2.0795    1.7961    0.9388 H   0  0  0  0  0  0  0  0  0  0  0  0
    0.8313    2.8353    0.2477 H   0  0  0  0  0  0  0  0  0  0  0  0
  1  2  1  0
  1  3  1  0
  1  4  1  0
  1  5  1  0
  2  6  1  0
  7  8  1  0
  7 10  1  0
  7 11  1  0
  7 12  1  0
  8  9  1  0
  8 13  1  0
  9 14  1  0
  9 15  1  0
  9 16  1  0
M  RAD  1   8   2
M  END
>  <reaction>  (12) 
rxn_1803

>  <mol_properties>  (12) 
{"0": {"label": "*3", "atom_type": "Cs"}, "1": {"label": "*4", "atom_type": "S2s"}, "2": {"label": "*2", "atom_type": "H0"}, "6": {"label": "*0", "atom_type": "Cs"}, "7": {"label": "*1", "atom_type": "Cs"}}

>  <type>  (12) 
unop_8

>  <geom_source>  (12) 
Heuristics

$$$$

     RDKit          3D

 16 14  0  0  0  0  0  0  0  0999 V2000
   -0.2741   -1.2675    0.1477 C   0  0  0  0  0  0  0  0  0  0  0  0
   -0.2741   -1.2675   -1.6629 S   0  0  0  0  0  0  0  0  0  0  0  0
   -0.2741   -0.0516    0.6235 H   0  0  0  0  0  0  0  0  0  0  0  0
   -1.1948   -1.7616    0.4537 H   0  0  0  0  0  0  0  0  0  0  0  0
    0.5702   -1.8275    0.5442 H   0  0  0  0  0  0  0  0  0  0  0  0
    0.8962   -0.6393   -1.8293 H   0  0  0  0  0  0  0  0  0  0  0  0
    0.4441    2.0959    0.1280 C   0  0  0  0  0  0  0  0  0  0  0  0
   -0.2741    1.1704    1.1017 C   0  0  0  0  0  3  0  0  0  0  0  0
    0.5753    0.8253    2.3182 C   0  0  0  0  0  0  0  0  0  0  0  0
    1.3654    1.6374   -0.2395 H   0  0  0  0  0  0  0  0  0  0  0  0
   -0.1797    2.3314   -0.7359 H   0  0  0  0  0  0  0  0  0  0  0  0
    0.7150    3.0375    0.6117 H   0  0  0  0  0  0  0  0  0  0  0  0
   -1.2060    1.6393    1.4296 H   0  0  0  0  0  0  0  0  0  0  0  0
    0.8504    1.7269    2.8710 H   0  0  0  0  0  0  0  0  0  0  0  0
    0.0443    0.1622    3.0032 H   0  0  0  0  0  0  0  0  0  0  0  0
    1.5007    0.3268    2.0198 H   0  0  0  0  0  0  0  0  0  0  0  0
  1  2  1  0
  1  3  1  0
  1  4  1  0
  1  5  1  0
  2  6  1  0
  7  8  1  0
  7 10  1  0
  7 11  1  0
  7 12  1  0
  8  9  1  0
  8 13  1  0
  9 14  1  0
  9 15  1  0
  9 16  1  0
M  RAD  1   8   2
M  END
>  <reaction>  (13) 
rxn_1803

>  <mol_properties>  (13) 
{"0": {"label": "*3", "atom_type": "Cs"}, "1": {"label": "*4", "atom_type": "S2s"}, "2": {"label": "*2", "atom_type": "H0"}, "6": {"label": "*0", "atom_type": "Cs"}, "7": {"label": "*1", "atom_type": "Cs"}}

>  <type>  (13) 
unop_9

>  <geom_source>  (13) 
Heuristics

$$$$

     RDKit          3D

 16 14  0  0  0  0  0  0  0  0999 V2000
    0.0062   -1.4465    0.2136 C   0  0  0  0  0  0  0  0  0  0  0  0
    0.0062   -1.4465   -1.5971 S   0  0  0  0  0  0  0  0  0  0  0  0
    0.0062   -0.2307    0.6894 H   0  0  0  0  0  0  0  0  0  0  0  0
   -0.9145   -1.9406    0.5195 H   0  0  0  0  0  0  0  0  0  0  0  0
    0.8506   -2.0065    0.6101 H   0  0  0  0  0  0  0  0  0  0  0  0
    1.1765   -0.8184   -1.7634 H   0  0  0  0  0  0  0  0  0  0  0  0
   -1.2378    1.7253    0.6835 C   0  0  0  0  0  0  0  0  0  0  0  0
    0.0062    0.9913    1.1676 C   0  0  0  0  0  3  0  0  0  0  0  0
    1.1604    1.9354    1.4793 C   0  0  0  0  0  0  0  0  0  0  0  0
   -1.0276    2.2919   -0.2269 H   0  0  0  0  0  0  0  0  0  0  0  0
   -2.0527    1.0329    0.4656 H   0  0  0  0  0  0  0  0  0  0  0  0
   -1.5921    2.4326    1.4373 H   0  0  0  0  0  0  0  0  0  0  0  0
   -0.2389    0.4090    2.0601 H   0  0  0  0  0  0  0  0  0  0  0  0
    0.8816    2.6494    2.2581 H   0  0  0  0  0  0  0  0  0  0  0  0
    2.0415    1.3917    1.8241 H   0  0  0  0  0  0  0  0  0  0  0  0
    1.4461    2.5087    0.5940 H   0  0  0  0  0  0  0  0  0  0  0  0
  1  2  1  0
  1  3  1  0
  1  4  1  0
  1  5  1  0
  2  6  1  0
  7  8  1  0
  7 10  1  0
  7 11  1  0
  7 12  1  0
  8  9  1  0
  8 13  1  0
  9 14  1  0
  9 15  1  0
  9 16  1  0
M  RAD  1   8   2
M  END
>  <reaction>  (14) 
rxn_1803

>  <mol_properties>  (14) 
{"0": {"label": "*3", "atom_type": "Cs"}, "1": {"label": "*4", "atom_type": "S2s"}, "2": {"label": "*2", "atom_type": "H0"}, "6": {"label": "*0", "atom_type": "Cs"}, "7": {"label": "*1", "atom_type": "Cs"}}

>  <type>  (14) 
unop_10

>  <geom_source>  (14) 
Heuristics

$$$$

     RDKit          3D

 16 14  0  0  0  0  0  0  0  0999 V2000
    0.1227   -1.1469   -0.0587 C   0  0  0  0  0  0  0  0  0  0  0  0
    0.1227   -1.1469   -1.8694 S   0  0  0  0  0  0  0  0  0  0  0  0
    0.1227    0.0689    0.4171 H   0  0  0  0  0  0  0  0  0  0  0  0
   -0.7980   -1.6411    0.2472 H   0  0  0  0  0  0  0  0  0  0  0  0
    0.9671   -1.7069    0.3378 H   0  0  0  0  0  0  0  0  0  0  0  0
    1.2930   -0.5188   -2.0358 H   0  0  0  0  0  0  0  0  0  0  0  0
    0.8409    1.3098    2.2385 C   0  0  0  0  0  0  0  0  0  0  0  0
    0.1227    1.2909    0.8953 C   0  0  0  0  0  3  0  0  0  0  0  0
   -1.3853    1.1297    1.0385 C   0  0  0  0  0  0  0  0  0  0  0  0
    0.6649    0.3822    2.7887 H   0  0  0  0  0  0  0  0  0  0  0  0
    1.9190    1.4258    2.1154 H   0  0  0  0  0  0  0  0  0  0  0  0
    0.4844    2.1344    2.8605 H   0  0  0  0  0  0  0  0  0  0  0  0
    0.3401    2.2154    0.3532 H   0  0  0  0  0  0  0  0  0  0  0  0
   -1.8120    1.9487    1.6227 H   0  0  0  0  0  0  0  0  0  0  0  0
   -1.8816    1.1185    0.0666 H   0  0  0  0  0  0  0  0  0  0  0  0
   -1.6315    0.1965    1.5508 H   0  0  0  0  0  0  0  0  0  0  0  0
  1  2  1  0
  1  3  1  0
  1  4  1  0
  1  5  1  0
  2  6  1  0
  7  8  1  0
  7 10  1  0
  7 11  1  0
  7 12  1  0
  8  9  1  0
  8 13  1  0
  9 14  1  0
  9 15  1  0
  9 16  1  0
M  RAD  1   8   2
M  END
>  <reaction>  (15) 
rxn_1803

>  <mol_properties>  (15) 
{"0": {"label": "*3", "atom_type": "Cs"}, "1": {"label": "*4", "atom_type": "S2s"}, "2": {"label": "*2", "atom_type": "H0"}, "6": {"label": "*0", "atom_type": "Cs"}, "7": {"label": "*1", "atom_type": "Cs"}}

>  <type>  (15) 
unop_11

>  <geom_source>  (15) 
Heuristics

$$$$

     RDKit          3D

 16 14  0  0  0  0  0  0  0  0999 V2000
   -0.2090   -1.3669    0.2258 C   0  0  0  0  0  0  0  0  0  0  0  0
   -0.2090   -1.3669   -1.5849 S   0  0  0  0  0  0  0  0  0  0  0  0
   -0.2090   -0.1510    0.7016 H   0  0  0  0  0  0  0  0  0  0  0  0
   -1.1297   -1.8610    0.5317 H   0  0  0  0  0  0  0  0  0  0  0  0
    0.6354   -1.9269    0.6223 H   0  0  0  0  0  0  0  0  0  0  0  0
    0.9613   -0.7387   -1.7513 H   0  0  0  0  0  0  0  0  0  0  0  0
   -0.2090    2.0666    0.0268 C   0  0  0  0  0  0  0  0  0  0  0  0
   -0.2090    1.0710    1.1797 C   0  0  0  0  0  3  0  0  0  0  0  0
    0.9833    1.2512    2.1106 C   0  0  0  0  0  0  0  0  0  0  0  0
    0.6942    1.9624   -0.5793 H   0  0  0  0  0  0  0  0  0  0  0  0
   -1.0697    1.9219   -0.6282 H   0  0  0  0  0  0  0  0  0  0  0  0
   -0.2399    3.0940    0.3979 H   0  0  0  0  0  0  0  0  0  0  0  0
   -1.1357    1.1753    1.7508 H   0  0  0  0  0  0  0  0  0  0  0  0
    0.9900    2.2528    2.5474 H   0  0  0  0  0  0  0  0  0  0  0  0
    0.9657    0.5298    2.9293 H   0  0  0  0  0  0  0  0  0  0  0  0
    1.9240    1.1213    1.5701 H   0  0  0  0  0  0  0  0  0  0  0  0
  1  2  1  0
  1  3  1  0
  1  4  1  0
  1  5  1  0
  2  6  1  0
  7  8  1  0
  7 10  1  0
  7 11  1  0
  7 12  1  0
  8  9  1  0
  8 13  1  0
  9 14  1  0
  9 15  1  0
  9 16  1  0
M  RAD  1   8   2
M  END
>  <reaction>  (16) 
rxn_1803

>  <mol_properties>  (16) 
{"0": {"label": "*3", "atom_type": "Cs"}, "1": {"label": "*4", "atom_type": "S2s"}, "2": {"label": "*2", "atom_type": "H0"}, "6": {"label": "*0", "atom_type": "Cs"}, "7": {"label": "*1", "atom_type": "Cs"}}

>  <type>  (16) 
unop_12

>  <geom_source>  (16) 
Heuristics

$$$$

     RDKit          3D

 16 14  0  0  0  0  0  0  0  0999 V2000
    2.9894    0.9153   -0.4348 S   0  0  0  0  0  0  0  0  0  0  0  0
   -0.7546   -0.2382   -0.1163 C   0  0  0  0  0  0  0  0  0  0  0  0
   -1.5148    1.0692    0.0773 C   0  0  0  0  0  0  0  0  0  0  0  0
   -0.6829   -1.0364    1.1808 C   0  0  0  0  0  0  0  0  0  0  0  0
    1.7484   -0.3586   -0.7930 C   0  0  0  0  0  3  0  0  0  0  0  0
   -1.2617   -0.8470   -0.8956 H   0  0  0  0  0  0  0  0  0  0  0  0
    0.4826    0.0340   -0.5295 H   0  0  0  0  0  0  0  0  0  0  0  0
   -1.0060    1.7002    0.8365 H   0  0  0  0  0  0  0  0  0  0  0  0
   -1.5441    1.6244   -0.8834 H   0  0  0  0  0  0  0  0  0  0  0  0
   -2.5567    0.8660    0.4046 H   0  0  0  0  0  0  0  0  0  0  0  0
   -0.1564   -0.4502    1.9636 H   0  0  0  0  0  0  0  0  0  0  0  0
   -0.1212   -1.9774    1.0043 H   0  0  0  0  0  0  0  0  0  0  0  0
   -1.7045   -1.2912    1.5352 H   0  0  0  0  0  0  0  0  0  0  0  0
    1.7564   -0.5913   -1.8779 H   0  0  0  0  0  0  0  0  0  0  0  0
    1.9854   -1.2770   -0.2176 H   0  0  0  0  0  0  0  0  0  0  0  0
    2.3408    1.8583   -1.2541 H   0  0  0  0  0  0  0  0  0  0  0  0
  1  5  1  0
  1 16  1  0
  2  3  1  0
  2  4  1  0
  2  6  1  0
  2  7  1  0
  3  8  1  0
  3  9  1  0
  3 10  1  0
  4 11  1  0
  4 12  1  0
  4 13  1  0
  5 14  1  0
  5 15  1  0
M  RAD  1   5   2
M  END
>  <reaction>  (17) 
rxn_1803

>  <mol_properties>  (17) 
{"0": {"label": "*3", "atom_type": "Cs"}, "1": {"label": "*4", "atom_type": "S2s"}, "2": {"label": "*2", "atom_type": "H0"}, "6": {"label": "*0", "atom_type": "Cs"}, "7": {"label": "*1", "atom_type": "Cs"}}

>  <type>  (17) 
unop_13

>  <geom_source>  (17) 
AutoTST

$$$$
