
     RDKit          3D

  9  8  0  0  0  0  0  0  0  0999 V2000
    1.1303   -0.2933   -0.7510 C   0  0  0  0  0  0  0  0  0  0  0  0
    0.2866    0.4560   -0.0588 C   0  0  0  0  0  0  0  0  0  0  0  0
   -0.9719   -0.0331    0.5823 C   0  0  0  0  0  0  0  0  0  0  0  0
    2.0274    0.1230   -1.1916 H   0  0  0  0  0  0  0  0  0  0  0  0
    0.9532   -1.3530   -0.9023 H   0  0  0  0  0  0  0  0  0  0  0  0
    0.5065    1.5132    0.0659 H   0  0  0  0  0  0  0  0  0  0  0  0
   -0.9526    0.1426    1.6610 H   0  0  0  0  0  0  0  0  0  0  0  0
   -1.1182   -1.1002    0.4106 H   0  0  0  0  0  0  0  0  0  0  0  0
   -1.8412    0.5010    0.1901 H   0  0  0  0  0  0  0  0  0  0  0  0
  1  2  2  3
  1  4  1  0
  1  5  1  0
  2  3  1  0
  2  6  1  0
  3  7  1  0
  3  8  1  0
  3  9  1  0
M  END
>  <reaction>  (1) 
rxn_16

>  <mol_properties>  (1) 
{"2": {"label": "donator", "atom_type": "Cs"}, "6": {"label": "d_hydrogen", "atom_type": "H0"}}

>  <type>  (1) 
r1h

$$$$

     RDKit          3D

 14 13  0  0  0  0  0  0  0  0999 V2000
    0.2521    0.4906   -1.4015 C   0  0  0  0  0  3  0  0  0  0  0  0
   -0.0866    0.3929    0.0443 C   0  0  0  0  0  0  0  0  0  0  0  0
    0.6293   -0.7656    0.7333 C   0  0  0  0  0  0  0  0  0  0  0  0
    0.1728    1.7296    0.7547 C   0  0  0  0  0  0  0  0  0  0  0  0
    1.5347    2.0949    0.7702 O   0  0  0  0  0  0  0  0  0  0  0  0
    0.7767   -0.3051   -1.9138 H   0  0  0  0  0  0  0  0  0  0  0  0
   -0.1241    1.3153   -1.9956 H   0  0  0  0  0  0  0  0  0  0  0  0
   -1.1732    0.2277    0.1303 H   0  0  0  0  0  0  0  0  0  0  0  0
    1.7087   -0.6089    0.7251 H   0  0  0  0  0  0  0  0  0  0  0  0
    0.3122   -0.8555    1.7736 H   0  0  0  0  0  0  0  0  0  0  0  0
    0.4148   -1.7097    0.2299 H   0  0  0  0  0  0  0  0  0  0  0  0
   -0.4359    2.5125    0.2826 H   0  0  0  0  0  0  0  0  0  0  0  0
   -0.1321    1.6566    1.8001 H   0  0  0  0  0  0  0  0  0  0  0  0
    1.8520    2.0832   -0.1363 H   0  0  0  0  0  0  0  0  0  0  0  0
  1  2  1  0
  1  6  1  0
  1  7  1  0
  2  3  1  0
  2  4  1  0
  2  8  1  0
  3  9  1  0
  3 10  1  0
  3 11  1  0
  4  5  1  0
  4 12  1  0
  4 13  1  0
  5 14  1  0
M  RAD  1   1   2
M  END
>  <reaction>  (2) 
rxn_16

>  <mol_properties>  (2) 
{"0": {"label": "acceptor", "atom_type": "Cs"}}

>  <type>  (2) 
r2

$$$$

     RDKit          3D

 15 14  0  0  0  0  0  0  0  0999 V2000
   -0.6986    1.3248   -0.1642 C   0  0  0  0  0  0  0  0  0  0  0  0
   -0.2590   -0.0343    0.3671 C   0  0  0  0  0  0  0  0  0  0  0  0
   -0.4735   -0.1428    1.8733 C   0  0  0  0  0  0  0  0  0  0  0  0
   -0.9840   -1.1723   -0.3462 C   0  0  0  0  0  0  0  0  0  0  0  0
   -0.7804   -1.1913   -1.7444 O   0  0  0  0  0  0  0  0  0  0  0  0
   -0.1247    2.1306    0.2975 H   0  0  0  0  0  0  0  0  0  0  0  0
   -1.7558    1.4964    0.0579 H   0  0  0  0  0  0  0  0  0  0  0  0
   -0.5709    1.3851   -1.2450 H   0  0  0  0  0  0  0  0  0  0  0  0
    0.8141   -0.1541    0.1668 H   0  0  0  0  0  0  0  0  0  0  0  0
   -1.5347   -0.0466    2.1192 H   0  0  0  0  0  0  0  0  0  0  0  0
    0.0609    0.6482    2.4019 H   0  0  0  0  0  0  0  0  0  0  0  0
   -0.1250   -1.1021    2.2619 H   0  0  0  0  0  0  0  0  0  0  0  0
   -0.6916   -2.1316    0.1012 H   0  0  0  0  0  0  0  0  0  0  0  0
   -2.0628   -1.0629   -0.2056 H   0  0  0  0  0  0  0  0  0  0  0  0
    0.1530   -1.3299   -1.9124 H   0  0  0  0  0  0  0  0  0  0  0  0
  1  2  1  0
  1  6  1  0
  1  7  1  0
  1  8  1  0
  2  3  1  0
  2  4  1  0
  2  9  1  0
  3 10  1  0
  3 11  1  0
  3 12  1  0
  4  5  1  0
  4 13  1  0
  4 14  1  0
  5 15  1  0
M  END
>  <reaction>  (3) 
rxn_16

>  <mol_properties>  (3) 
{"0": {"label": "a_hydrogen", "atom_type": "H0"}, "1": {"label": "acceptor", "atom_type": "Cs"}}

>  <type>  (3) 
r2h

$$$$

     RDKit          3D

 23 21  0  0  0  0  0  0  0  0999 V2000
    1.5114    0.2901   -2.9361 C   0  0  0  0  0  0  0  0  0  0  0  0
    1.6648   -0.0375   -1.6529 C   0  0  0  0  0  0  0  0  0  0  0  0
    1.7793    0.9116   -0.5468 C   0  0  0  0  0  0  0  0  0  0  0  0
    1.4003   -0.4651   -3.7034 H   0  0  0  0  0  0  0  0  0  0  0  0
    1.5021    1.3262   -3.2568 H   0  0  0  0  0  0  0  0  0  0  0  0
    1.6681   -1.0919   -1.3878 H   0  0  0  0  0  0  0  0  0  0  0  0
    0.6270    1.0769    0.0110 H   0  0  0  0  0  0  0  0  0  0  0  0
    2.0379    1.9261   -0.8460 H   0  0  0  0  0  0  0  0  0  0  0  0
    2.3817    0.5689    0.2919 H   0  0  0  0  0  0  0  0  0  0  0  0
   -0.5686    1.3573    0.7281 C   0  0  0  0  0  3  0  0  0  0  0  0
   -1.4031    0.1055    0.7065 C   0  0  1  0  0  0  0  0  0  0  0  0
   -1.9193   -0.2166   -0.6936 C   0  0  0  0  0  0  0  0  0  0  0  0
   -0.6426   -1.0901    1.2800 C   0  0  0  0  0  0  0  0  0  0  0  0
   -0.1513   -0.8771    2.5872 O   0  0  0  0  0  0  0  0  0  0  0  0
   -0.1618    1.6298    1.6981 H   0  0  0  0  0  0  0  0  0  0  0  0
   -0.9809    2.2034    0.1825 H   0  0  0  0  0  0  0  0  0  0  0  0
   -2.2772    0.2691    1.3580 H   0  0  0  0  0  0  0  0  0  0  0  0
   -2.5411   -1.1144   -0.6903 H   0  0  0  0  0  0  0  0  0  0  0  0
   -2.5207    0.6067   -1.0823 H   0  0  0  0  0  0  0  0  0  0  0  0
   -1.0903   -0.3762   -1.3860 H   0  0  0  0  0  0  0  0  0  0  0  0
   -1.2843   -1.9799    1.2442 H   0  0  0  0  0  0  0  0  0  0  0  0
    0.2345   -1.2952    0.6628 H   0  0  0  0  0  0  0  0  0  0  0  0
   -0.8972   -0.7526    3.1762 H   0  0  0  0  0  0  0  0  0  0  0  0
  1  2  2  3
  1  4  1  0
  1  5  1  0
  2  3  1  0
  2  6  1  0
  3  7  1  0
  3  8  1  0
  3  9  1  0
 10 11  1  0
 10 15  1  0
 10 16  1  0
 11 12  1  0
 11 13  1  0
 11 17  1  1
 12 18  1  0
 12 19  1  0
 12 20  1  0
 13 14  1  0
 13 21  1  0
 13 22  1  0
 14 23  1  0
M  RAD  1  10   2
M  END
>  <reaction>  (4) 
rxn_16

>  <mol_properties>  (4) 
{"1": {"label": "*0", "atom_type": "Cd"}, "2": {"label": "*1", "atom_type": "Cs"}, "6": {"label": "*2", "atom_type": "H0"}, "9": {"label": "*3", "atom_type": "Cs"}, "10": {"label": "*4", "atom_type": "Cs"}}

>  <type>  (4) 
ts

$$$$

     RDKit          3D

 23 21  0  0  0  0  0  0  0  0999 V2000
    0.7449   -1.1452   -3.6333 C   0  0  0  0  0  0  0  0  0  0  0  0
    0.7449   -1.1452   -2.3096 C   0  0  0  0  0  0  0  0  0  0  0  0
    0.7449    0.0770   -1.4491 C   0  0  0  0  0  0  0  0  0  0  0  0
    0.7449   -2.0679   -4.1998 H   0  0  0  0  0  0  0  0  0  0  0  0
    0.7449   -0.2196   -4.1993 H   0  0  0  0  0  0  0  0  0  0  0  0
    0.7449   -2.0979   -1.7861 H   0  0  0  0  0  0  0  0  0  0  0  0
   -0.3084    0.0975   -0.6676 H   0  0  0  0  0  0  0  0  0  0  0  0
    0.7449    0.9874   -2.0497 H   0  0  0  0  0  0  0  0  0  0  0  0
    1.6226    0.0941   -0.7978 H   0  0  0  0  0  0  0  0  0  0  0  0
   -1.3623    0.1181    0.1144 C   0  0  0  0  0  3  0  0  0  0  0  0
   -0.9366    0.1351    1.5777 C   0  0  0  0  0  0  0  0  0  0  0  0
   -0.9833   -1.2608    2.1907 C   0  0  0  0  0  0  0  0  0  0  0  0
    0.4582    0.7316    1.7450 C   0  0  0  0  0  0  0  0  0  0  0  0
    0.5735    2.0565    1.2672 O   0  0  0  0  0  0  0  0  0  0  0  0
   -1.2980    1.1131   -0.3259 H   0  0  0  0  0  0  0  0  0  0  0  0
   -2.3877   -0.2415    0.0086 H   0  0  0  0  0  0  0  0  0  0  0  0
   -1.6345    0.7746    2.1342 H   0  0  0  0  0  0  0  0  0  0  0  0
   -0.7141   -1.2453    3.2490 H   0  0  0  0  0  0  0  0  0  0  0  0
   -1.9818   -1.6922    2.1040 H   0  0  0  0  0  0  0  0  0  0  0  0
   -0.2878   -1.9305    1.6772 H   0  0  0  0  0  0  0  0  0  0  0  0
    0.7590    0.6723    2.7995 H   0  0  0  0  0  0  0  0  0  0  0  0
    1.1780    0.1450    1.1677 H   0  0  0  0  0  0  0  0  0  0  0  0
   -0.0131    2.6151    1.7796 H   0  0  0  0  0  0  0  0  0  0  0  0
  1  2  2  3
  1  4  1  0
  1  5  1  0
  2  3  1  0
  2  6  1  0
  3  7  1  0
  3  8  1  0
  3  9  1  0
 10 11  1  0
 10 15  1  0
 10 16  1  0
 11 12  1  0
 11 13  1  0
 11 17  1  0
 12 18  1  0
 12 19  1  0
 12 20  1  0
 13 14  1  0
 13 21  1  0
 13 22  1  0
 14 23  1  0
M  RAD  1  10   2
M  END
>  <reaction>  (5) 
rxn_16

>  <mol_properties>  (5) 
{"1": {"label": "*0", "atom_type": "Cd"}, "2": {"label": "*1", "atom_type": "Cs"}, "6": {"label": "*2", "atom_type": "H0"}, "9": {"label": "*3", "atom_type": "Cs"}, "10": {"label": "*4", "atom_type": "Cs"}}

>  <type>  (5) 
unop_1

>  <geom_source>  (5) 
Heuristics

$$$$

     RDKit          3D

 23 21  0  0  0  0  0  0  0  0999 V2000
    1.2522    0.0169   -3.1178 C   0  0  0  0  0  0  0  0  0  0  0  0
    1.2522    0.0169   -1.7941 C   0  0  0  0  0  0  0  0  0  0  0  0
    1.2522    1.2390   -0.9336 C   0  0  0  0  0  0  0  0  0  0  0  0
    1.2522   -0.9059   -3.6843 H   0  0  0  0  0  0  0  0  0  0  0  0
    1.2522    0.9425   -3.6838 H   0  0  0  0  0  0  0  0  0  0  0  0
    1.2522   -0.9358   -1.2706 H   0  0  0  0  0  0  0  0  0  0  0  0
    0.1989    1.2596   -0.1521 H   0  0  0  0  0  0  0  0  0  0  0  0
    1.2522    2.1495   -1.5342 H   0  0  0  0  0  0  0  0  0  0  0  0
    2.1299    1.2561   -0.2824 H   0  0  0  0  0  0  0  0  0  0  0  0
   -0.8550    1.2801    0.6299 C   0  0  0  0  0  3  0  0  0  0  0  0
   -1.2936   -0.1403    0.9661 C   0  0  0  0  0  0  0  0  0  0  0  0
   -2.0345   -0.7881   -0.1991 C   0  0  0  0  0  0  0  0  0  0  0  0
   -0.1063   -1.0074    1.3759 C   0  0  0  0  0  0  0  0  0  0  0  0
    0.5980   -0.5173    2.4986 O   0  0  0  0  0  0  0  0  0  0  0  0
   -0.3002    1.7266    1.4551 H   0  0  0  0  0  0  0  0  0  0  0  0
   -1.7158    1.9141    0.4085 H   0  0  0  0  0  0  0  0  0  0  0  0
   -1.9786   -0.0977    1.8233 H   0  0  0  0  0  0  0  0  0  0  0  0
   -2.3818   -1.7925    0.0527 H   0  0  0  0  0  0  0  0  0  0  0  0
   -2.9033   -0.1945   -0.4879 H   0  0  0  0  0  0  0  0  0  0  0  0
   -1.3826   -0.8678   -1.0736 H   0  0  0  0  0  0  0  0  0  0  0  0
   -0.4464   -2.0369    1.5507 H   0  0  0  0  0  0  0  0  0  0  0  0
    0.6215   -1.0391    0.5605 H   0  0  0  0  0  0  0  0  0  0  0  0
    0.0040   -0.5146    3.2509 H   0  0  0  0  0  0  0  0  0  0  0  0
  1  2  2  3
  1  4  1  0
  1  5  1  0
  2  3  1  0
  2  6  1  0
  3  7  1  0
  3  8  1  0
  3  9  1  0
 10 11  1  0
 10 15  1  0
 10 16  1  0
 11 12  1  0
 11 13  1  0
 11 17  1  0
 12 18  1  0
 12 19  1  0
 12 20  1  0
 13 14  1  0
 13 21  1  0
 13 22  1  0
 14 23  1  0
M  RAD  1  10   2
M  END
>  <reaction>  (6) 
rxn_16

>  <mol_properties>  (6) 
{"1": {"label": "*0", "atom_type": "Cd"}, "2": {"label": "*1", "atom_type": "Cs"}, "6": {"label": "*2", "atom_type": "H0"}, "9": {"label": "*3", "atom_type": "Cs"}, "10": {"label": "*4", "atom_type": "Cs"}}

>  <type>  (6) 
unop_2

>  <geom_source>  (6) 
Heuristics

$$$$

     RDKit          3D

 23 21  0  0  0  0  0  0  0  0999 V2000
    0.9299   -1.6729   -3.4336 C   0  0  0  0  0  0  0  0  0  0  0  0
    0.9299   -1.6729   -2.1098 C   0  0  0  0  0  0  0  0  0  0  0  0
    0.9299   -0.4507   -1.2493 C   0  0  0  0  0  0  0  0  0  0  0  0
    0.9299   -2.5956   -4.0001 H   0  0  0  0  0  0  0  0  0  0  0  0
    0.9299   -0.7473   -3.9996 H   0  0  0  0  0  0  0  0  0  0  0  0
    0.9299   -2.6255   -1.5863 H   0  0  0  0  0  0  0  0  0  0  0  0
   -0.1233   -0.4302   -0.4679 H   0  0  0  0  0  0  0  0  0  0  0  0
    0.9299    0.4597   -1.8499 H   0  0  0  0  0  0  0  0  0  0  0  0
    1.8076   -0.4336   -0.5981 H   0  0  0  0  0  0  0  0  0  0  0  0
   -1.1773   -0.4096    0.3141 C   0  0  0  0  0  3  0  0  0  0  0  0
   -0.8592    0.3206    1.6136 C   0  0  0  0  0  0  0  0  0  0  0  0
   -0.2615   -0.6216    2.6534 C   0  0  0  0  0  0  0  0  0  0  0  0
    0.0819    1.4981    1.3747 C   0  0  0  0  0  0  0  0  0  0  0  0
   -0.4264    2.4617    0.4748 O   0  0  0  0  0  0  0  0  0  0  0  0
   -1.5759    0.2748   -0.4347 H   0  0  0  0  0  0  0  0  0  0  0  0
   -1.9070   -1.2046    0.4796 H   0  0  0  0  0  0  0  0  0  0  0  0
   -1.7947    0.7271    2.0205 H   0  0  0  0  0  0  0  0  0  0  0  0
   -0.0671   -0.1085    3.5977 H   0  0  0  0  0  0  0  0  0  0  0  0
   -0.9343   -1.4563    2.8567 H   0  0  0  0  0  0  0  0  0  0  0  0
    0.6846   -1.0386    2.2969 H   0  0  0  0  0  0  0  0  0  0  0  0
    0.3396    1.9631    2.3356 H   0  0  0  0  0  0  0  0  0  0  0  0
    1.0122    1.1373    0.9278 H   0  0  0  0  0  0  0  0  0  0  0  0
   -1.2240    2.8366    0.8515 H   0  0  0  0  0  0  0  0  0  0  0  0
  1  2  2  3
  1  4  1  0
  1  5  1  0
  2  3  1  0
  2  6  1  0
  3  7  1  0
  3  8  1  0
  3  9  1  0
 10 11  1  0
 10 15  1  0
 10 16  1  0
 11 12  1  0
 11 13  1  0
 11 17  1  0
 12 18  1  0
 12 19  1  0
 12 20  1  0
 13 14  1  0
 13 21  1  0
 13 22  1  0
 14 23  1  0
M  RAD  1  10   2
M  END
>  <reaction>  (7) 
rxn_16

>  <mol_properties>  (7) 
{"1": {"label": "*0", "atom_type": "Cd"}, "2": {"label": "*1", "atom_type": "Cs"}, "6": {"label": "*2", "atom_type": "H0"}, "9": {"label": "*3", "atom_type": "Cs"}, "10": {"label": "*4", "atom_type": "Cs"}}

>  <type>  (7) 
unop_3

>  <geom_source>  (7) 
Heuristics

$$$$

     RDKit          3D

 23 21  0  0  0  0  0  0  0  0999 V2000
    2.1726   -0.5830   -2.3486 C   0  0  0  0  0  0  0  0  0  0  0  0
    2.1726   -0.5830   -1.0248 C   0  0  0  0  0  0  0  0  0  0  0  0
    2.1726    0.6392   -0.1643 C   0  0  0  0  0  0  0  0  0  0  0  0
    2.1726   -1.5057   -2.9151 H   0  0  0  0  0  0  0  0  0  0  0  0
    2.1726    0.3426   -2.9146 H   0  0  0  0  0  0  0  0  0  0  0  0
    2.1726   -1.5356   -0.5013 H   0  0  0  0  0  0  0  0  0  0  0  0
    1.1194    0.6597    0.6172 H   0  0  0  0  0  0  0  0  0  0  0  0
    2.1726    1.5496   -0.7649 H   0  0  0  0  0  0  0  0  0  0  0  0
    3.0503    0.6563    0.4869 H   0  0  0  0  0  0  0  0  0  0  0  0
    0.0654    0.6803    1.3991 C   0  0  0  0  0  3  0  0  0  0  0  0
   -1.2119    0.6799    0.5676 C   0  0  0  0  0  0  0  0  0  0  0  0
   -0.9860    1.3035   -0.8059 C   0  0  0  0  0  0  0  0  0  0  0  0
   -1.7759   -0.7300    0.4137 C   0  0  0  0  0  0  0  0  0  0  0  0
   -2.0835   -1.3588    1.6412 O   0  0  0  0  0  0  0  0  0  0  0  0
   -0.0952    0.2064    2.3675 H   0  0  0  0  0  0  0  0  0  0  0  0
    0.4236    1.6978    1.5670 H   0  0  0  0  0  0  0  0  0  0  0  0
   -1.9676    1.2788    1.0930 H   0  0  0  0  0  0  0  0  0  0  0  0
   -1.9084    1.3378   -1.3895 H   0  0  0  0  0  0  0  0  0  0  0  0
   -0.6079    2.3230   -0.7145 H   0  0  0  0  0  0  0  0  0  0  0  0
   -0.2503    0.7275   -1.3743 H   0  0  0  0  0  0  0  0  0  0  0  0
   -2.6579   -0.7034   -0.2399 H   0  0  0  0  0  0  0  0  0  0  0  0
   -1.0323   -1.3702   -0.0687 H   0  0  0  0  0  0  0  0  0  0  0  0
   -2.7676   -0.8498    2.0790 H   0  0  0  0  0  0  0  0  0  0  0  0
  1  2  2  3
  1  4  1  0
  1  5  1  0
  2  3  1  0
  2  6  1  0
  3  7  1  0
  3  8  1  0
  3  9  1  0
 10 11  1  0
 10 15  1  0
 10 16  1  0
 11 12  1  0
 11 13  1  0
 11 17  1  0
 12 18  1  0
 12 19  1  0
 12 20  1  0
 13 14  1  0
 13 21  1  0
 13 22  1  0
 14 23  1  0
M  RAD  1  10   2
M  END
>  <reaction>  (8) 
rxn_16

>  <mol_properties>  (8) 
{"1": {"label": "*0", "atom_type": "Cd"}, "2": {"label": "*1", "atom_type": "Cs"}, "6": {"label": "*2", "atom_type": "H0"}, "9": {"label": "*3", "atom_type": "Cs"}, "10": {"label": "*4", "atom_type": "Cs"}}

>  <type>  (8) 
unop_4

>  <geom_source>  (8) 
Heuristics

$$$$

     RDKit          3D

 23 21  0  0  0  0  0  0  0  0999 V2000
    1.3835   -1.9609   -3.0495 C   0  0  0  0  0  0  0  0  0  0  0  0
    1.3835   -1.9609   -1.7257 C   0  0  0  0  0  0  0  0  0  0  0  0
    1.3835   -0.7387   -0.8652 C   0  0  0  0  0  0  0  0  0  0  0  0
    1.3835   -2.8836   -3.6159 H   0  0  0  0  0  0  0  0  0  0  0  0
    1.3835   -1.0353   -3.6155 H   0  0  0  0  0  0  0  0  0  0  0  0
    1.3835   -2.9135   -1.2022 H   0  0  0  0  0  0  0  0  0  0  0  0
    0.3302   -0.7182   -0.0837 H   0  0  0  0  0  0  0  0  0  0  0  0
    1.3835    0.1717   -1.4658 H   0  0  0  0  0  0  0  0  0  0  0  0
    2.2612   -0.7216   -0.2140 H   0  0  0  0  0  0  0  0  0  0  0  0
   -0.7238   -0.6976    0.6982 C   0  0  0  0  0  3  0  0  0  0  0  0
   -0.7127    0.5524    1.5702 C   0  0  0  0  0  0  0  0  0  0  0  0
    0.5449    0.6238    2.4304 C   0  0  0  0  0  0  0  0  0  0  0  0
   -0.8418    1.8193    0.7292 C   0  0  0  0  0  0  0  0  0  0  0  0
   -2.0204    1.8704   -0.0487 O   0  0  0  0  0  0  0  0  0  0  0  0
   -1.6099   -0.7276    0.0644 H   0  0  0  0  0  0  0  0  0  0  0  0
   -0.7047   -1.6021    1.3093 H   0  0  0  0  0  0  0  0  0  0  0  0
   -1.5817    0.5149    2.2405 H   0  0  0  0  0  0  0  0  0  0  0  0
    0.5375    1.4996    3.0829 H   0  0  0  0  0  0  0  0  0  0  0  0
    0.6389   -0.2631    3.0591 H   0  0  0  0  0  0  0  0  0  0  0  0
    1.4384    0.6805    1.8025 H   0  0  0  0  0  0  0  0  0  0  0  0
   -0.7682    2.7011    1.3796 H   0  0  0  0  0  0  0  0  0  0  0  0
   -0.0143    1.8706    0.0165 H   0  0  0  0  0  0  0  0  0  0  0  0
   -2.7741    1.8717    0.5435 H   0  0  0  0  0  0  0  0  0  0  0  0
  1  2  2  3
  1  4  1  0
  1  5  1  0
  2  3  1  0
  2  6  1  0
  3  7  1  0
  3  8  1  0
  3  9  1  0
 10 11  1  0
 10 15  1  0
 10 16  1  0
 11 12  1  0
 11 13  1  0
 11 17  1  0
 12 18  1  0
 12 19  1  0
 12 20  1  0
 13 14  1  0
 13 21  1  0
 13 22  1  0
 14 23  1  0
M  RAD  1  10   2
M  END
>  <reaction>  (9) 
rxn_16

>  <mol_properties>  (9) 
{"1": {"label": "*0", "atom_type": "Cd"}, "2": {"label": "*1", "atom_type": "Cs"}, "6": {"label": "*2", "atom_type": "H0"}, "9": {"label": "*3", "atom_type": "Cs"}, "10": {"label": "*4", "atom_type": "Cs"}}

>  <type>  (9) 
unop_5

>  <geom_source>  (9) 
Heuristics

$$$$

     RDKit          3D

 23 21  0  0  0  0  0  0  0  0999 V2000
    2.2361   -1.0718   -2.3266 C   0  0  0  0  0  0  0  0  0  0  0  0
    2.2361   -1.0718   -1.0028 C   0  0  0  0  0  0  0  0  0  0  0  0
    2.2361    0.1504   -0.1423 C   0  0  0  0  0  0  0  0  0  0  0  0
    2.2361   -1.9945   -2.8931 H   0  0  0  0  0  0  0  0  0  0  0  0
    2.2361   -0.1462   -2.8926 H   0  0  0  0  0  0  0  0  0  0  0  0
    2.2361   -2.0244   -0.4793 H   0  0  0  0  0  0  0  0  0  0  0  0
    1.1829    0.1709    0.6391 H   0  0  0  0  0  0  0  0  0  0  0  0
    2.2361    1.0608   -0.7429 H   0  0  0  0  0  0  0  0  0  0  0  0
    3.1138    0.1675    0.5089 H   0  0  0  0  0  0  0  0  0  0  0  0
    0.1289    0.1915    1.4211 C   0  0  0  0  0  3  0  0  0  0  0  0
   -1.0279    0.9066    0.7331 C   0  0  0  0  0  0  0  0  0  0  0  0
   -0.5390    1.7933   -0.4075 C   0  0  0  0  0  0  0  0  0  0  0  0
   -2.0662   -0.0847    0.2148 C   0  0  0  0  0  0  0  0  0  0  0  0
   -2.6277   -0.9019    1.2216 O   0  0  0  0  0  0  0  0  0  0  0  0
   -0.2296   -0.4634    2.2153 H   0  0  0  0  0  0  0  0  0  0  0  0
    0.8309    0.9072    1.8532 H   0  0  0  0  0  0  0  0  0  0  0  0
   -1.5277    1.5472    1.4718 H   0  0  0  0  0  0  0  0  0  0  0  0
   -1.3623    2.3351   -0.8781 H   0  0  0  0  0  0  0  0  0  0  0  0
    0.1849    2.5270   -0.0492 H   0  0  0  0  0  0  0  0  0  0  0  0
   -0.0478    1.1932   -1.1787 H   0  0  0  0  0  0  0  0  0  0  0  0
   -2.8523    0.4570   -0.3280 H   0  0  0  0  0  0  0  0  0  0  0  0
   -1.5944   -0.7704   -0.4943 H   0  0  0  0  0  0  0  0  0  0  0  0
   -3.0910   -0.3396    1.8444 H   0  0  0  0  0  0  0  0  0  0  0  0
  1  2  2  3
  1  4  1  0
  1  5  1  0
  2  3  1  0
  2  6  1  0
  3  7  1  0
  3  8  1  0
  3  9  1  0
 10 11  1  0
 10 15  1  0
 10 16  1  0
 11 12  1  0
 11 13  1  0
 11 17  1  0
 12 18  1  0
 12 19  1  0
 12 20  1  0
 13 14  1  0
 13 21  1  0
 13 22  1  0
 14 23  1  0
M  RAD  1  10   2
M  END
>  <reaction>  (10) 
rxn_16

>  <mol_properties>  (10) 
{"1": {"label": "*0", "atom_type": "Cd"}, "2": {"label": "*1", "atom_type": "Cs"}, "6": {"label": "*2", "atom_type": "H0"}, "9": {"label": "*3", "atom_type": "Cs"}, "10": {"label": "*4", "atom_type": "Cs"}}

>  <type>  (10) 
unop_6

>  <geom_source>  (10) 
Heuristics

$$$$

     RDKit          3D

 23 21  0  0  0  0  0  0  0  0999 V2000
    2.1263   -1.5212   -2.4652 C   0  0  0  0  0  0  0  0  0  0  0  0
    2.1263   -1.5212   -1.1414 C   0  0  0  0  0  0  0  0  0  0  0  0
    2.1263   -0.2990   -0.2809 C   0  0  0  0  0  0  0  0  0  0  0  0
    2.1263   -2.4439   -3.0317 H   0  0  0  0  0  0  0  0  0  0  0  0
    2.1263   -0.5956   -3.0312 H   0  0  0  0  0  0  0  0  0  0  0  0
    2.1263   -2.4738   -0.6179 H   0  0  0  0  0  0  0  0  0  0  0  0
    1.0731   -0.2785    0.5005 H   0  0  0  0  0  0  0  0  0  0  0  0
    2.1263    0.6115   -0.8815 H   0  0  0  0  0  0  0  0  0  0  0  0
    3.0040   -0.2819    0.3703 H   0  0  0  0  0  0  0  0  0  0  0  0
    0.0191   -0.2579    1.2825 C   0  0  0  0  0  3  0  0  0  0  0  0
   -0.8213    0.9834    1.0071 C   0  0  0  0  0  0  0  0  0  0  0  0
   -0.0126    2.0591    0.2894 C   0  0  0  0  0  0  0  0  0  0  0  0
   -2.0696    0.6425    0.1977 C   0  0  0  0  0  0  0  0  0  0  0  0
   -2.9175   -0.2980    0.8251 O   0  0  0  0  0  0  0  0  0  0  0  0
   -0.5723   -1.0339    1.7683 H   0  0  0  0  0  0  0  0  0  0  0  0
    0.8710   -0.0204    1.9226 H   0  0  0  0  0  0  0  0  0  0  0  0
   -1.1572    1.3947    1.9683 H   0  0  0  0  0  0  0  0  0  0  0  0
   -0.6023    2.9634    0.1239 H   0  0  0  0  0  0  0  0  0  0  0  0
    0.8705    2.3349    0.8678 H   0  0  0  0  0  0  0  0  0  0  0  0
    0.3293    1.6984   -0.6848 H   0  0  0  0  0  0  0  0  0  0  0  0
   -2.6189    1.5642   -0.0360 H   0  0  0  0  0  0  0  0  0  0  0  0
   -1.7760    0.1886   -0.7527 H   0  0  0  0  0  0  0  0  0  0  0  0
   -3.2338    0.0807    1.6468 H   0  0  0  0  0  0  0  0  0  0  0  0
  1  2  2  3
  1  4  1  0
  1  5  1  0
  2  3  1  0
  2  6  1  0
  3  7  1  0
  3  8  1  0
  3  9  1  0
 10 11  1  0
 10 15  1  0
 10 16  1  0
 11 12  1  0
 11 13  1  0
 11 17  1  0
 12 18  1  0
 12 19  1  0
 12 20  1  0
 13 14  1  0
 13 21  1  0
 13 22  1  0
 14 23  1  0
M  RAD  1  10   2
M  END
>  <reaction>  (11) 
rxn_16

>  <mol_properties>  (11) 
{"1": {"label": "*0", "atom_type": "Cd"}, "2": {"label": "*1", "atom_type": "Cs"}, "6": {"label": "*2", "atom_type": "H0"}, "9": {"label": "*3", "atom_type": "Cs"}, "10": {"label": "*4", "atom_type": "Cs"}}

>  <type>  (11) 
unop_7

>  <geom_source>  (11) 
Heuristics

$$$$

     RDKit          3D

 23 21  0  0  0  0  0  0  0  0999 V2000
    0.7778   -0.6166   -3.6041 C   0  0  0  0  0  0  0  0  0  0  0  0
    0.7778   -0.6166   -2.2803 C   0  0  0  0  0  0  0  0  0  0  0  0
    0.7778    0.6056   -1.4198 C   0  0  0  0  0  0  0  0  0  0  0  0
    0.7778   -1.5393   -4.1705 H   0  0  0  0  0  0  0  0  0  0  0  0
    0.7778    0.3090   -4.1701 H   0  0  0  0  0  0  0  0  0  0  0  0
    0.7778   -1.5692   -1.7568 H   0  0  0  0  0  0  0  0  0  0  0  0
   -0.2755    0.6261   -0.6383 H   0  0  0  0  0  0  0  0  0  0  0  0
    0.7778    1.5160   -2.0204 H   0  0  0  0  0  0  0  0  0  0  0  0
    1.6555    0.6227   -0.7686 H   0  0  0  0  0  0  0  0  0  0  0  0
   -1.3294    0.6467    0.1436 C   0  0  0  0  0  3  0  0  0  0  0  0
   -1.0241   -0.0518    1.4634 C   0  0  0  0  0  0  0  0  0  0  0  0
   -1.5209   -1.4939    1.4617 C   0  0  0  0  0  0  0  0  0  0  0  0
    0.4682   -0.0148    1.7809 C   0  0  0  0  0  0  0  0  0  0  0  0
    0.9999    1.2911    1.8737 O   0  0  0  0  0  0  0  0  0  0  0  0
   -0.9454    1.6668    0.1401 H   0  0  0  0  0  0  0  0  0  0  0  0
   -2.4047    0.6810   -0.0422 H   0  0  0  0  0  0  0  0  0  0  0  0
   -1.5430    0.4858    2.2681 H   0  0  0  0  0  0  0  0  0  0  0  0
   -1.3362   -1.9849    2.4196 H   0  0  0  0  0  0  0  0  0  0  0  0
   -2.5930   -1.5374    1.2629 H   0  0  0  0  0  0  0  0  0  0  0  0
   -1.0164   -2.0743    0.6842 H   0  0  0  0  0  0  0  0  0  0  0  0
    0.6616   -0.5784    2.7034 H   0  0  0  0  0  0  0  0  0  0  0  0
    1.0249   -0.5047    0.9774 H   0  0  0  0  0  0  0  0  0  0  0  0
    0.5668    1.7434    2.5993 H   0  0  0  0  0  0  0  0  0  0  0  0
  1  2  2  3
  1  4  1  0
  1  5  1  0
  2  3  1  0
  2  6  1  0
  3  7  1  0
  3  8  1  0
  3  9  1  0
 10 11  1  0
 10 15  1  0
 10 16  1  0
 11 12  1  0
 11 13  1  0
 11 17  1  0
 12 18  1  0
 12 19  1  0
 12 20  1  0
 13 14  1  0
 13 21  1  0
 13 22  1  0
 14 23  1  0
M  RAD  1  10   2
M  END
>  <reaction>  (12) 
rxn_16

>  <mol_properties>  (12) 
{"1": {"label": "*0", "atom_type": "Cd"}, "2": {"label": "*1", "atom_type": "Cs"}, "6": {"label": "*2", "atom_type": "H0"}, "9": {"label": "*3", "atom_type": "Cs"}, "10": {"label": "*4", "atom_type": "Cs"}}

>  <type>  (12) 
unop_8

>  <geom_source>  (12) 
Heuristics

$$$$

     RDKit          3D

 23 21  0  0  0  0  0  0  0  0999 V2000
    1.9407   -0.1791   -2.5292 C   0  0  0  0  0  0  0  0  0  0  0  0
    1.9407   -0.1791   -1.2054 C   0  0  0  0  0  0  0  0  0  0  0  0
    1.9407    1.0431   -0.3449 C   0  0  0  0  0  0  0  0  0  0  0  0
    1.9407   -1.1018   -3.0956 H   0  0  0  0  0  0  0  0  0  0  0  0
    1.9407    0.7465   -3.0952 H   0  0  0  0  0  0  0  0  0  0  0  0
    1.9407   -1.1317   -0.6819 H   0  0  0  0  0  0  0  0  0  0  0  0
    0.8874    1.0637    0.4366 H   0  0  0  0  0  0  0  0  0  0  0  0
    1.9407    1.9536   -0.9455 H   0  0  0  0  0  0  0  0  0  0  0  0
    2.8184    1.0602    0.3063 H   0  0  0  0  0  0  0  0  0  0  0  0
   -0.1665    1.0842    1.2186 C   0  0  0  0  0  3  0  0  0  0  0  0
   -1.3361    0.3706    0.5509 C   0  0  0  0  0  0  0  0  0  0  0  0
   -1.4182    0.7005   -0.9360 C   0  0  0  0  0  0  0  0  0  0  0  0
   -1.2510   -1.1407    0.7458 C   0  0  0  0  0  0  0  0  0  0  0  0
   -1.2431   -1.5420    2.1007 O   0  0  0  0  0  0  0  0  0  0  0  0
   -0.0953    0.8209    2.2739 H   0  0  0  0  0  0  0  0  0  0  0  0
   -0.2712    2.1680    1.1386 H   0  0  0  0  0  0  0  0  0  0  0  0
   -2.2660    0.7097    1.0264 H   0  0  0  0  0  0  0  0  0  0  0  0
   -2.2773    0.2195   -1.4086 H   0  0  0  0  0  0  0  0  0  0  0  0
   -1.5070    1.7767   -1.0929 H   0  0  0  0  0  0  0  0  0  0  0  0
   -0.5169    0.3636   -1.4557 H   0  0  0  0  0  0  0  0  0  0  0  0
   -2.0713   -1.6279    0.2020 H   0  0  0  0  0  0  0  0  0  0  0  0
   -0.3139   -1.5115    0.3217 H   0  0  0  0  0  0  0  0  0  0  0  0
   -2.0714   -1.2729    2.5009 H   0  0  0  0  0  0  0  0  0  0  0  0
  1  2  2  3
  1  4  1  0
  1  5  1  0
  2  3  1  0
  2  6  1  0
  3  7  1  0
  3  8  1  0
  3  9  1  0
 10 11  1  0
 10 15  1  0
 10 16  1  0
 11 12  1  0
 11 13  1  0
 11 17  1  0
 12 18  1  0
 12 19  1  0
 12 20  1  0
 13 14  1  0
 13 21  1  0
 13 22  1  0
 14 23  1  0
M  RAD  1  10   2
M  END
>  <reaction>  (13) 
rxn_16

>  <mol_properties>  (13) 
{"1": {"label": "*0", "atom_type": "Cd"}, "2": {"label": "*1", "atom_type": "Cs"}, "6": {"label": "*2", "atom_type": "H0"}, "9": {"label": "*3", "atom_type": "Cs"}, "10": {"label": "*4", "atom_type": "Cs"}}

>  <type>  (13) 
unop_9

>  <geom_source>  (13) 
Heuristics

$$$$

     RDKit          3D

 23 21  0  0  0  0  0  0  0  0999 V2000
    0.9635   -0.2086   -3.4055 C   0  0  0  0  0  0  0  0  0  0  0  0
    0.9635   -0.2086   -2.0817 C   0  0  0  0  0  0  0  0  0  0  0  0
    0.9635    1.0136   -1.2212 C   0  0  0  0  0  0  0  0  0  0  0  0
    0.9635   -1.1313   -3.9719 H   0  0  0  0  0  0  0  0  0  0  0  0
    0.9635    0.7170   -3.9715 H   0  0  0  0  0  0  0  0  0  0  0  0
    0.9635   -1.1612   -1.5582 H   0  0  0  0  0  0  0  0  0  0  0  0
   -0.0898    1.0341   -0.4397 H   0  0  0  0  0  0  0  0  0  0  0  0
    0.9635    1.9241   -1.8218 H   0  0  0  0  0  0  0  0  0  0  0  0
    1.8412    1.0307   -0.5700 H   0  0  0  0  0  0  0  0  0  0  0  0
   -1.1437    1.0547    0.3423 C   0  0  0  0  0  3  0  0  0  0  0  0
   -1.1548   -0.1700    1.2495 C   0  0  0  0  0  0  0  0  0  0  0  0
   -1.9050   -1.3338    0.6099 C   0  0  0  0  0  0  0  0  0  0  0  0
    0.2616   -0.6024    1.6186 C   0  0  0  0  0  0  0  0  0  0  0  0
    1.0082    0.3960    2.2838 O   0  0  0  0  0  0  0  0  0  0  0  0
   -0.5807    1.8726    0.7918 H   0  0  0  0  0  0  0  0  0  0  0  0
   -2.1587    1.4028    0.1411 H   0  0  0  0  0  0  0  0  0  0  0  0
   -1.6694    0.0948    2.1827 H   0  0  0  0  0  0  0  0  0  0  0  0
   -1.9459   -2.2002    1.2736 H   0  0  0  0  0  0  0  0  0  0  0  0
   -2.9295   -1.0500    0.3640 H   0  0  0  0  0  0  0  0  0  0  0  0
   -1.4159   -1.6442   -0.3177 H   0  0  0  0  0  0  0  0  0  0  0  0
    0.2204   -1.5206    2.2196 H   0  0  0  0  0  0  0  0  0  0  0  0
    0.8216   -0.8339    0.7085 H   0  0  0  0  0  0  0  0  0  0  0  0
    0.5720    0.5981    3.1130 H   0  0  0  0  0  0  0  0  0  0  0  0
  1  2  2  3
  1  4  1  0
  1  5  1  0
  2  3  1  0
  2  6  1  0
  3  7  1  0
  3  8  1  0
  3  9  1  0
 10 11  1  0
 10 15  1  0
 10 16  1  0
 11 12  1  0
 11 13  1  0
 11 17  1  0
 12 18  1  0
 12 19  1  0
 12 20  1  0
 13 14  1  0
 13 21  1  0
 13 22  1  0
 14 23  1  0
M  RAD  1  10   2
M  END
>  <reaction>  (14) 
rxn_16

>  <mol_properties>  (14) 
{"1": {"label": "*0", "atom_type": "Cd"}, "2": {"label": "*1", "atom_type": "Cs"}, "6": {"label": "*2", "atom_type": "H0"}, "9": {"label": "*3", "atom_type": "Cs"}, "10": {"label": "*4", "atom_type": "Cs"}}

>  <type>  (14) 
unop_10

>  <geom_source>  (14) 
Heuristics

$$$$

     RDKit          3D

 23 21  0  0  0  0  0  0  0  0999 V2000
    1.8512   -1.8463   -2.7133 C   0  0  0  0  0  0  0  0  0  0  0  0
    1.8512   -1.8463   -1.3895 C   0  0  0  0  0  0  0  0  0  0  0  0
    1.8512   -0.6241   -0.5290 C   0  0  0  0  0  0  0  0  0  0  0  0
    1.8512   -2.7690   -3.2798 H   0  0  0  0  0  0  0  0  0  0  0  0
    1.8512   -0.9207   -3.2793 H   0  0  0  0  0  0  0  0  0  0  0  0
    1.8512   -2.7989   -0.8660 H   0  0  0  0  0  0  0  0  0  0  0  0
    0.7979   -0.6036    0.2524 H   0  0  0  0  0  0  0  0  0  0  0  0
    1.8512    0.2863   -1.1296 H   0  0  0  0  0  0  0  0  0  0  0  0
    2.7289   -0.6070    0.1222 H   0  0  0  0  0  0  0  0  0  0  0  0
   -0.2560   -0.5830    1.0344 C   0  0  0  0  0  3  0  0  0  0  0  0
   -0.6690    0.8540    1.3300 C   0  0  0  0  0  0  0  0  0  0  0  0
    0.5323    1.7938    1.3260 C   0  0  0  0  0  0  0  0  0  0  0  0
   -1.7198    1.3466    0.3387 C   0  0  0  0  0  0  0  0  0  0  0  0
   -2.9019    0.5724    0.3281 O   0  0  0  0  0  0  0  0  0  0  0  0
   -1.1222   -1.2442    1.0089 H   0  0  0  0  0  0  0  0  0  0  0  0
    0.4404   -0.9539    1.7890 H   0  0  0  0  0  0  0  0  0  0  0  0
   -1.1224    0.8856    2.3296 H   0  0  0  0  0  0  0  0  0  0  0  0
    0.2437    2.8176    1.5739 H   0  0  0  0  0  0  0  0  0  0  0  0
    1.2827    1.4715    2.0496 H   0  0  0  0  0  0  0  0  0  0  0  0
    1.0070    1.8081    0.3410 H   0  0  0  0  0  0  0  0  0  0  0  0
   -1.9491    2.4014    0.5405 H   0  0  0  0  0  0  0  0  0  0  0  0
   -1.3191    1.2891   -0.6769 H   0  0  0  0  0  0  0  0  0  0  0  0
   -3.3103    0.6317    1.1932 H   0  0  0  0  0  0  0  0  0  0  0  0
  1  2  2  3
  1  4  1  0
  1  5  1  0
  2  3  1  0
  2  6  1  0
  3  7  1  0
  3  8  1  0
  3  9  1  0
 10 11  1  0
 10 15  1  0
 10 16  1  0
 11 12  1  0
 11 13  1  0
 11 17  1  0
 12 18  1  0
 12 19  1  0
 12 20  1  0
 13 14  1  0
 13 21  1  0
 13 22  1  0
 14 23  1  0
M  RAD  1  10   2
M  END
>  <reaction>  (15) 
rxn_16

>  <mol_properties>  (15) 
{"1": {"label": "*0", "atom_type": "Cd"}, "2": {"label": "*1", "atom_type": "Cs"}, "6": {"label": "*2", "atom_type": "H0"}, "9": {"label": "*3", "atom_type": "Cs"}, "10": {"label": "*4", "atom_type": "Cs"}}

>  <type>  (15) 
unop_11

>  <geom_source>  (15) 
Heuristics

$$$$

     RDKit          3D

 23 21  0  0  0  0  0  0  0  0999 V2000
    1.6010    0.0322   -2.8086 C   0  0  0  0  0  0  0  0  0  0  0  0
    1.6010    0.0322   -1.4849 C   0  0  0  0  0  0  0  0  0  0  0  0
    1.6010    1.2544   -0.6244 C   0  0  0  0  0  0  0  0  0  0  0  0
    1.6010   -0.8905   -3.3751 H   0  0  0  0  0  0  0  0  0  0  0  0
    1.6010    0.9578   -3.3746 H   0  0  0  0  0  0  0  0  0  0  0  0
    1.6010   -0.9204   -0.9614 H   0  0  0  0  0  0  0  0  0  0  0  0
    0.5478    1.2750    0.1571 H   0  0  0  0  0  0  0  0  0  0  0  0
    1.6010    2.1649   -1.2250 H   0  0  0  0  0  0  0  0  0  0  0  0
    2.4787    1.2715    0.0268 H   0  0  0  0  0  0  0  0  0  0  0  0
   -0.5062    1.2955    0.9391 C   0  0  0  0  0  3  0  0  0  0  0  0
   -1.3688    0.0622    0.6988 C   0  0  0  0  0  0  0  0  0  0  0  0
   -1.8294   -0.0249   -0.7526 C   0  0  0  0  0  0  0  0  0  0  0  0
   -0.6333   -1.2167    1.0900 C   0  0  0  0  0  0  0  0  0  0  0  0
   -0.2316   -1.2526    2.4444 O   0  0  0  0  0  0  0  0  0  0  0  0
   -0.1556    1.3359    1.9703 H   0  0  0  0  0  0  0  0  0  0  0  0
   -1.0626    2.2105    0.7267 H   0  0  0  0  0  0  0  0  0  0  0  0
   -2.2609    0.1339    1.3352 H   0  0  0  0  0  0  0  0  0  0  0  0
   -2.4779   -0.8878   -0.9185 H   0  0  0  0  0  0  0  0  0  0  0  0
   -2.3814    0.8710   -1.0415 H   0  0  0  0  0  0  0  0  0  0  0  0
   -0.9713   -0.1157   -1.4243 H   0  0  0  0  0  0  0  0  0  0  0  0
   -1.2565   -2.0877    0.8474 H   0  0  0  0  0  0  0  0  0  0  0  0
    0.2870   -1.3020    0.5059 H   0  0  0  0  0  0  0  0  0  0  0  0
   -1.0165   -1.2238    2.9937 H   0  0  0  0  0  0  0  0  0  0  0  0
  1  2  2  3
  1  4  1  0
  1  5  1  0
  2  3  1  0
  2  6  1  0
  3  7  1  0
  3  8  1  0
  3  9  1  0
 10 11  1  0
 10 15  1  0
 10 16  1  0
 11 12  1  0
 11 13  1  0
 11 17  1  0
 12 18  1  0
 12 19  1  0
 12 20  1  0
 13 14  1  0
 13 21  1  0
 13 22  1  0
 14 23  1  0
M  RAD  1  10   2
M  END
>  <reaction>  (16) 
rxn_16

>  <mol_properties>  (16) 
{"1": {"label": "*0", "atom_type": "Cd"}, "2": {"label": "*1", "atom_type": "Cs"}, "6": {"label": "*2", "atom_type": "H0"}, "9": {"label": "*3", "atom_type": "Cs"}, "10": {"label": "*4", "atom_type": "Cs"}}

>  <type>  (16) 
unop_12

>  <geom_source>  (16) 
Heuristics

$$$$

     RDKit          3D

 23 21  0  0  0  0  0  0  0  0999 V2000
   -2.0973    2.2548   -0.1990 O   0  0  0  0  0  0  0  0  0  0  0  0
   -1.5177   -0.0796   -0.4703 C   0  0  0  0  0  0  0  0  0  0  0  0
   -1.3275    1.2134    0.3415 C   0  0  0  0  0  0  0  0  0  0  0  0
   -0.5347   -1.1544    0.0059 C   0  0  0  0  0  0  0  0  0  0  0  0
   -2.9590   -0.5965   -0.3683 C   0  0  0  0  0  0  0  0  0  0  0  0
    3.2717    0.2912    0.4247 C   0  0  0  0  0  0  0  0  0  0  0  0
    1.9418   -0.3899    0.3729 C   0  0  0  0  0  0  0  0  0  0  0  0
    4.0943    0.2647   -0.6250 C   0  0  0  0  0  3  0  0  0  0  0  0
   -1.2967    0.1374   -1.5387 H   0  0  0  0  0  0  0  0  0  0  0  0
   -1.5787    1.0439    1.4152 H   0  0  0  0  0  0  0  0  0  0  0  0
   -0.2607    1.5208    0.2968 H   0  0  0  0  0  0  0  0  0  0  0  0
   -0.6472   -2.0759   -0.6045 H   0  0  0  0  0  0  0  0  0  0  0  0
   -0.7144   -1.4059    1.0735 H   0  0  0  0  0  0  0  0  0  0  0  0
    0.6595   -0.7398   -0.1240 H   0  0  0  0  0  0  0  0  0  0  0  0
   -3.0702   -1.5386   -0.9466 H   0  0  0  0  0  0  0  0  0  0  0  0
   -3.2318   -0.7922    0.6910 H   0  0  0  0  0  0  0  0  0  0  0  0
   -3.6676    0.1459   -0.7922 H   0  0  0  0  0  0  0  0  0  0  0  0
    3.5658    0.8245    1.3238 H   0  0  0  0  0  0  0  0  0  0  0  0
    2.0801   -1.4839    0.2411 H   0  0  0  0  0  0  0  0  0  0  0  0
    1.3836   -0.2036    1.3141 H   0  0  0  0  0  0  0  0  0  0  0  0
    5.0541    0.7686   -0.5757 H   0  0  0  0  0  0  0  0  0  0  0  0
    3.8188   -0.2567   -1.5371 H   0  0  0  0  0  0  0  0  0  0  0  0
   -2.9663    2.2518    0.2808 H   0  0  0  0  0  0  0  0  0  0  0  0
  1  3  1  0
  1 23  1  0
  2  4  1  0
  2  5  1  0
  2  3  1  0
  2  9  1  0
  3 10  1  0
  3 11  1  0
  4 12  1  0
  4 13  1  0
  4 14  1  0
  5 15  1  0
  5 16  1  0
  5 17  1  0
  6  7  2  3
  6  8  1  0
  6 18  1  0
  7 19  1  0
  7 20  1  0
  8 21  1  0
  8 22  1  0
M  RAD  1   8   2
M  END
>  <reaction>  (17) 
rxn_16

>  <mol_properties>  (17) 
{"1": {"label": "*0", "atom_type": "Cd"}, "2": {"label": "*1", "atom_type": "Cs"}, "6": {"label": "*2", "atom_type": "H0"}, "9": {"label": "*3", "atom_type": "Cs"}, "10": {"label": "*4", "atom_type": "Cs"}}

>  <type>  (17) 
unop_13

>  <geom_source>  (17) 
AutoTST

$$$$

     RDKit          3D

 23 21  0  0  0  0  0  0  0  0999 V2000
    1.2522    0.0169   -3.1178 C   0  0  0  0  0  0  0  0  0  0  0  0
    1.2522    0.0169   -1.7941 C   0  0  0  0  0  0  0  0  0  0  0  0
    1.2522    1.2390   -0.9336 C   0  0  0  0  0  0  0  0  0  0  0  0
    1.2522   -0.9059   -3.6843 H   0  0  0  0  0  0  0  0  0  0  0  0
    1.2522    0.9425   -3.6839 H   0  0  0  0  0  0  0  0  0  0  0  0
    1.2522   -0.9358   -1.2706 H   0  0  0  0  0  0  0  0  0  0  0  0
    0.1989    1.2596   -0.1521 H   0  0  0  0  0  0  0  0  0  0  0  0
    1.2522    2.1495   -1.5342 H   0  0  0  0  0  0  0  0  0  0  0  0
    2.1299    1.2562   -0.2824 H   0  0  0  0  0  0  0  0  0  0  0  0
   -0.8550    1.2801    0.6299 C   0  0  0  0  0  3  0  0  0  0  0  0
   -1.2936   -0.1403    0.9661 C   0  0  0  0  0  0  0  0  0  0  0  0
   -2.0345   -0.7881   -0.1991 C   0  0  0  0  0  0  0  0  0  0  0  0
   -0.1063   -1.0074    1.3759 C   0  0  0  0  0  0  0  0  0  0  0  0
    0.5980   -0.5173    2.4986 O   0  0  0  0  0  0  0  0  0  0  0  0
   -0.3002    1.7266    1.4550 H   0  0  0  0  0  0  0  0  0  0  0  0
   -1.7158    1.9141    0.4085 H   0  0  0  0  0  0  0  0  0  0  0  0
   -1.9786   -0.0977    1.8233 H   0  0  0  0  0  0  0  0  0  0  0  0
   -2.3818   -1.7925    0.0527 H   0  0  0  0  0  0  0  0  0  0  0  0
   -2.9033   -0.1945   -0.4879 H   0  0  0  0  0  0  0  0  0  0  0  0
   -1.3826   -0.8678   -1.0736 H   0  0  0  0  0  0  0  0  0  0  0  0
   -0.4464   -2.0369    1.5507 H   0  0  0  0  0  0  0  0  0  0  0  0
    0.6215   -1.0391    0.5605 H   0  0  0  0  0  0  0  0  0  0  0  0
    0.0040   -0.5146    3.2509 H   0  0  0  0  0  0  0  0  0  0  0  0
  1  2  2  3
  1  4  1  0
  1  5  1  0
  2  3  1  0
  2  6  1  0
  3  7  1  0
  3  8  1  0
  3  9  1  0
 10 11  1  0
 10 15  1  0
 10 16  1  0
 11 12  1  0
 11 13  1  0
 11 17  1  0
 12 18  1  0
 12 19  1  0
 12 20  1  0
 13 14  1  0
 13 21  1  0
 13 22  1  0
 14 23  1  0
M  RAD  1  10   2
M  END
>  <reaction>  (18) 
rxn_16

>  <mol_properties>  (18) 
{"1": {"label": "*0", "atom_type": "Cd"}, "2": {"label": "*1", "atom_type": "Cs"}, "6": {"label": "*2", "atom_type": "H0"}, "9": {"label": "*3", "atom_type": "Cs"}, "10": {"label": "*4", "atom_type": "Cs"}}

>  <type>  (18) 
unop_14

>  <geom_source>  (18) 
gaussian_log

$$$$
