
     RDKit          3D

 12 11  0  0  0  0  0  0  0  0999 V2000
    1.9877    0.1011    0.4814 C   0  0  0  0  0  0  0  0  0  0  0  0
    0.8179    0.5502    0.0525 C   0  0  0  0  0  0  0  0  0  0  0  0
   -0.2939   -0.2692   -0.5320 C   0  0  0  0  0  0  0  0  0  0  0  0
   -0.0292   -1.7631   -0.6328 C   0  0  0  0  0  0  0  0  0  0  0  0
    2.2522   -0.9490    0.4436 H   0  0  0  0  0  0  0  0  0  0  0  0
    2.7295    0.7757    0.8896 H   0  0  0  0  0  0  0  0  0  0  0  0
    0.6162    1.6164    0.1190 H   0  0  0  0  0  0  0  0  0  0  0  0
   -0.5268    0.1319   -1.5245 H   0  0  0  0  0  0  0  0  0  0  0  0
   -1.1959   -0.0938    0.0644 H   0  0  0  0  0  0  0  0  0  0  0  0
    0.1590   -2.1992    0.3502 H   0  0  0  0  0  0  0  0  0  0  0  0
    0.8382   -1.9701   -1.2626 H   0  0  0  0  0  0  0  0  0  0  0  0
   -0.8879   -2.2759   -1.0672 H   0  0  0  0  0  0  0  0  0  0  0  0
  1  2  2  3
  1  5  1  0
  1  6  1  0
  2  3  1  0
  2  7  1  0
  3  4  1  0
  3  8  1  0
  3  9  1  0
  4 10  1  0
  4 11  1  0
  4 12  1  0
M  END
>  <reaction>  (1) 
rxn_1045

>  <mol_properties>  (1) 
{"2": {"label": "donator", "atom_type": "Cs"}, "7": {"label": "d_hydrogen", "atom_type": "H0"}}

>  <type>  (1) 
r1h

$$$$

     RDKit          3D

 15 14  0  0  0  0  0  0  0  0999 V2000
    2.4381    0.5770   -0.2356 C   0  0  0  0  0  0  0  0  0  0  0  0
    1.4430   -0.3367   -0.1409 C   0  0  0  0  0  0  0  0  0  0  0  0
    0.0521   -0.0957   -0.0045 C   0  0  0  0  0  3  0  0  0  0  0  0
   -0.5167    1.2867    0.0548 C   0  0  0  0  0  0  0  0  0  0  0  0
   -0.8226   -1.2147    0.0778 C   0  0  0  0  0  0  0  0  0  0  0  0
   -2.1666   -1.1669    0.2092 C   0  0  0  0  0  0  0  0  0  0  0  0
    3.4666    0.2585   -0.3369 H   0  0  0  0  0  0  0  0  0  0  0  0
    2.2594    1.6438   -0.2152 H   0  0  0  0  0  0  0  0  0  0  0  0
    1.7306   -1.3845   -0.1719 H   0  0  0  0  0  0  0  0  0  0  0  0
   -1.2300    1.4469   -0.7583 H   0  0  0  0  0  0  0  0  0  0  0  0
    0.2481    2.0557   -0.0178 H   0  0  0  0  0  0  0  0  0  0  0  0
   -1.0592    1.4421    0.9914 H   0  0  0  0  0  0  0  0  0  0  0  0
   -0.3519   -2.1929    0.0292 H   0  0  0  0  0  0  0  0  0  0  0  0
   -2.7080   -0.2310    0.2646 H   0  0  0  0  0  0  0  0  0  0  0  0
   -2.7513   -2.0751    0.2638 H   0  0  0  0  0  0  0  0  0  0  0  0
  1  2  2  3
  1  7  1  0
  1  8  1  0
  2  3  1  0
  2  9  1  0
  3  4  1  0
  3  5  1  0
  4 10  1  0
  4 11  1  0
  4 12  1  0
  5  6  2  3
  5 13  1  0
  6 14  1  0
  6 15  1  0
M  RAD  1   3   2
M  END
>  <reaction>  (2) 
rxn_1045

>  <mol_properties>  (2) 
{"2": {"label": "acceptor", "atom_type": "Cs"}}

>  <type>  (2) 
r2

$$$$

     RDKit          3D

 16 15  0  0  0  0  0  0  0  0999 V2000
    1.7961   -0.3807    1.6176 C   0  0  0  0  0  0  0  0  0  0  0  0
    0.8562   -0.8708    0.8256 C   0  0  0  0  0  0  0  0  0  0  0  0
    0.0895   -0.0826   -0.2048 C   0  0  0  0  0  0  0  0  0  0  0  0
   -1.4061   -0.1111    0.0982 C   0  0  0  0  0  0  0  0  0  0  0  0
    0.4476   -0.5902   -1.5797 C   0  0  0  0  0  0  0  0  0  0  0  0
   -0.3793   -1.1113   -2.4728 C   0  0  0  0  0  0  0  0  0  0  0  0
    2.3110   -1.0032    2.3386 H   0  0  0  0  0  0  0  0  0  0  0  0
    2.0846    0.6643    1.5737 H   0  0  0  0  0  0  0  0  0  0  0  0
    0.5921   -1.9241    0.8925 H   0  0  0  0  0  0  0  0  0  0  0  0
    0.4358    0.9557   -0.1462 H   0  0  0  0  0  0  0  0  0  0  0  0
   -1.5968    0.3080    1.0865 H   0  0  0  0  0  0  0  0  0  0  0  0
   -1.9674    0.4693   -0.6359 H   0  0  0  0  0  0  0  0  0  0  0  0
   -1.7902   -1.1338    0.0883 H   0  0  0  0  0  0  0  0  0  0  0  0
    1.5049   -0.5197   -1.8214 H   0  0  0  0  0  0  0  0  0  0  0  0
   -1.4421   -1.2131   -2.2889 H   0  0  0  0  0  0  0  0  0  0  0  0
   -0.0162   -1.4558   -3.4328 H   0  0  0  0  0  0  0  0  0  0  0  0
  1  2  2  3
  1  7  1  0
  1  8  1  0
  2  3  1  0
  2  9  1  0
  3  4  1  0
  3  5  1  0
  3 10  1  0
  4 11  1  0
  4 12  1  0
  4 13  1  0
  5  6  2  3
  5 14  1  0
  6 15  1  0
  6 16  1  0
M  END
>  <reaction>  (3) 
rxn_1045

>  <mol_properties>  (3) 
{"2": {"label": "acceptor", "atom_type": "Cs"}, "15": {"label": "a_hydrogen", "atom_type": "H0"}}

>  <type>  (3) 
r2h

$$$$

     RDKit          3D

 27 25  0  0  0  0  0  0  0  0999 V2000
   -0.1745   -1.4214    2.8716 C   0  0  0  0  0  0  0  0  0  0  0  0
   -0.1856   -0.2905    2.1696 C   0  0  0  0  0  0  0  0  0  0  0  0
    0.5447   -0.0147    0.9188 C   0  0  0  0  0  0  0  0  0  0  0  0
    1.5743   -1.0286    0.4809 C   0  0  0  0  0  0  0  0  0  0  0  0
    0.8755    1.4055    0.7179 C   0  0  0  0  0  0  0  0  0  0  0  0
    1.8565    1.8993   -0.0369 C   0  0  0  0  0  0  0  0  0  0  0  0
   -0.7759   -1.5239    3.7653 H   0  0  0  0  0  0  0  0  0  0  0  0
    0.4369   -2.2713    2.5952 H   0  0  0  0  0  0  0  0  0  0  0  0
   -0.8167    0.5230    2.5201 H   0  0  0  0  0  0  0  0  0  0  0  0
    1.8928   -0.8370   -0.5442 H   0  0  0  0  0  0  0  0  0  0  0  0
    1.1622   -2.0380    0.5088 H   0  0  0  0  0  0  0  0  0  0  0  0
    2.4555   -0.9993    1.1267 H   0  0  0  0  0  0  0  0  0  0  0  0
    0.2151    2.1079    1.2207 H   0  0  0  0  0  0  0  0  0  0  0  0
    2.5565    1.2667   -0.5676 H   0  0  0  0  0  0  0  0  0  0  0  0
    1.9906    2.9683   -0.1387 H   0  0  0  0  0  0  0  0  0  0  0  0
   -0.1485    0.3209   -3.0973 C   0  0  0  0  0  0  0  0  0  0  0  0
   -0.5131   -0.6079   -2.1995 C   0  0  0  0  0  0  0  0  0  0  0  0
   -1.3128   -0.3818   -1.0191 C   0  0  0  0  0  3  0  0  0  0  0  0
   -2.1055    0.8863   -0.8682 C   0  0  0  0  0  0  0  0  0  0  0  0
   -0.4727    1.3513   -3.0219 H   0  0  0  0  0  0  0  0  0  0  0  0
    0.4834    0.0659   -3.9376 H   0  0  0  0  0  0  0  0  0  0  0  0
   -0.1483   -1.6220   -2.3366 H   0  0  0  0  0  0  0  0  0  0  0  0
   -0.3703   -0.2053    0.0082 H   0  0  0  0  0  0  0  0  0  0  0  0
   -1.7894   -1.2732   -0.6162 H   0  0  0  0  0  0  0  0  0  0  0  0
   -2.8929    0.9548   -1.6245 H   0  0  0  0  0  0  0  0  0  0  0  0
   -1.4674    1.7665   -0.9737 H   0  0  0  0  0  0  0  0  0  0  0  0
   -2.5766    0.9311    0.1146 H   0  0  0  0  0  0  0  0  0  0  0  0
  1  2  2  3
  1  7  1  0
  1  8  1  0
  2  3  1  0
  2  9  1  0
  3  4  1  0
  3  5  1  0
  3 23  1  0
  4 10  1  0
  4 11  1  0
  4 12  1  0
  5  6  2  3
  5 13  1  0
  6 14  1  0
  6 15  1  0
 16 17  2  3
 16 20  1  0
 16 21  1  0
 17 18  1  0
 17 22  1  0
 18 19  1  0
 18 24  1  0
 19 25  1  0
 19 26  1  0
 19 27  1  0
M  RAD  1  18   2
M  END
>  <reaction>  (4) 
rxn_1045

>  <mol_properties>  (4) 
{"1": {"label": "*0", "atom_type": "Cd"}, "2": {"label": "*1", "atom_type": "Cs"}, "16": {"label": "*4", "atom_type": "Cd"}, "17": {"label": "*3", "atom_type": "Cs"}, "22": {"label": "*2", "atom_type": "H0"}}

>  <type>  (4) 
ts

$$$$

     RDKit          3D

 27 25  0  0  0  0  0  0  0  0999 V2000
    1.7136    1.7197   -0.5614 C   0  0  0  0  0  0  0  0  0  0  0  0
    1.4787    1.1872    0.6270 C   0  0  0  0  0  0  0  0  0  0  0  0
    0.6232   -0.0268    0.8820 C   0  0  0  0  0  3  0  0  0  0  0  0
   -0.5458    0.3209    1.7995 C   0  0  0  0  0  0  0  0  0  0  0  0
    1.4959   -1.1451    1.3958 C   0  0  0  0  0  0  0  0  0  0  0  0
    1.3864   -1.7653    2.5604 C   0  0  0  0  0  0  0  0  0  0  0  0
    2.3403    2.5952   -0.6762 H   0  0  0  0  0  0  0  0  0  0  0  0
    1.2852    1.2984   -1.4647 H   0  0  0  0  0  0  0  0  0  0  0  0
    1.9258    1.6322    1.5134 H   0  0  0  0  0  0  0  0  0  0  0  0
   -1.1785   -0.5501    1.9779 H   0  0  0  0  0  0  0  0  0  0  0  0
   -1.1570    1.1031    1.3485 H   0  0  0  0  0  0  0  0  0  0  0  0
   -0.1921    0.6875    2.7659 H   0  0  0  0  0  0  0  0  0  0  0  0
    2.2966   -1.4344    0.7201 H   0  0  0  0  0  0  0  0  0  0  0  0
    0.6132   -1.5187    3.2781 H   0  0  0  0  0  0  0  0  0  0  0  0
    2.0746   -2.5537    2.8378 H   0  0  0  0  0  0  0  0  0  0  0  0
   -1.4639   -1.0681   -2.9278 C   0  0  0  0  0  0  0  0  0  0  0  0
   -1.4639   -1.0681   -1.6034 C   0  0  0  0  0  0  0  0  0  0  0  0
   -1.4639    0.1364   -0.7100 C   0  0  0  0  0  0  0  0  0  0  0  0
   -1.4639    1.4821   -1.4177 C   0  0  0  0  0  0  0  0  0  0  0  0
   -1.4639   -0.1512   -3.5052 H   0  0  0  0  0  0  0  0  0  0  0  0
   -1.4639   -1.9955   -3.4864 H   0  0  0  0  0  0  0  0  0  0  0  0
   -1.4639   -2.0238   -1.0852 H   0  0  0  0  0  0  0  0  0  0  0  0
   -0.4206    0.0548    0.0858 H   0  0  0  0  0  0  0  0  0  0  0  0
   -2.3333    0.0684   -0.0468 H   0  0  0  0  0  0  0  0  0  0  0  0
   -2.3463    1.5972   -2.0501 H   0  0  0  0  0  0  0  0  0  0  0  0
   -0.5814    1.5971   -2.0501 H   0  0  0  0  0  0  0  0  0  0  0  0
   -1.4639    2.2965   -0.6924 H   0  0  0  0  0  0  0  0  0  0  0  0
  1  2  2  3
  1  7  1  0
  1  8  1  0
  2  3  1  0
  2  9  1  0
  3  4  1  0
  3  5  1  0
  4 10  1  0
  4 11  1  0
  4 12  1  0
  5  6  2  3
  5 13  1  0
  6 14  1  0
  6 15  1  0
 16 17  2  3
 16 20  1  0
 16 21  1  0
 17 18  1  0
 17 22  1  0
 18 19  1  0
 18 23  1  0
 18 24  1  0
 19 25  1  0
 19 26  1  0
 19 27  1  0
M  RAD  1   3   2
M  END
>  <reaction>  (5) 
rxn_1045

>  <mol_properties>  (5) 
{"1": {"label": "*0", "atom_type": "Cd"}, "2": {"label": "*1", "atom_type": "Cs"}, "16": {"label": "*4", "atom_type": "Cd"}, "17": {"label": "*3", "atom_type": "Cs"}, "22": {"label": "*2", "atom_type": "H0"}}

>  <type>  (5) 
unop_1

>  <geom_source>  (5) 
Heuristics

$$$$

     RDKit          3D

 27 25  0  0  0  0  0  0  0  0999 V2000
    1.5027   -1.4092   -0.8856 C   0  0  0  0  0  0  0  0  0  0  0  0
    1.7039   -0.6204    0.1576 C   0  0  0  0  0  0  0  0  0  0  0  0
    0.6284    0.1276    0.9022 C   0  0  0  0  0  3  0  0  0  0  0  0
    0.8814    1.6317    0.8470 C   0  0  0  0  0  0  0  0  0  0  0  0
    0.5217   -0.4265    2.3014 C   0  0  0  0  0  0  0  0  0  0  0  0
    0.7031    0.2366    3.4329 C   0  0  0  0  0  0  0  0  0  0  0  0
    2.3218   -1.9198   -1.3763 H   0  0  0  0  0  0  0  0  0  0  0  0
    0.5085   -1.5723   -1.2881 H   0  0  0  0  0  0  0  0  0  0  0  0
    2.7132   -0.4802    0.5389 H   0  0  0  0  0  0  0  0  0  0  0  0
    0.0990    2.1818    1.3723 H   0  0  0  0  0  0  0  0  0  0  0  0
    0.9037    1.9707   -0.1890 H   0  0  0  0  0  0  0  0  0  0  0  0
    1.8407    1.8865    1.3035 H   0  0  0  0  0  0  0  0  0  0  0  0
    0.2858   -1.4866    2.3461 H   0  0  0  0  0  0  0  0  0  0  0  0
    0.9450    1.2924    3.4537 H   0  0  0  0  0  0  0  0  0  0  0  0
    0.6114   -0.2608    4.3902 H   0  0  0  0  0  0  0  0  0  0  0  0
   -1.4587   -0.9137   -2.9075 C   0  0  0  0  0  0  0  0  0  0  0  0
   -1.4587   -0.9137   -1.5832 C   0  0  0  0  0  0  0  0  0  0  0  0
   -1.4587    0.2908   -0.6897 C   0  0  0  0  0  0  0  0  0  0  0  0
   -1.4587    1.6365   -1.3974 C   0  0  0  0  0  0  0  0  0  0  0  0
   -1.4587    0.0032   -3.4849 H   0  0  0  0  0  0  0  0  0  0  0  0
   -1.4587   -1.8411   -3.4662 H   0  0  0  0  0  0  0  0  0  0  0  0
   -1.4587   -1.8694   -1.0650 H   0  0  0  0  0  0  0  0  0  0  0  0
   -0.4154    0.2092    0.1060 H   0  0  0  0  0  0  0  0  0  0  0  0
   -2.3281    0.2228   -0.0266 H   0  0  0  0  0  0  0  0  0  0  0  0
   -2.3411    1.7516   -2.0298 H   0  0  0  0  0  0  0  0  0  0  0  0
   -0.5763    1.7516   -2.0298 H   0  0  0  0  0  0  0  0  0  0  0  0
   -1.4587    2.4509   -0.6721 H   0  0  0  0  0  0  0  0  0  0  0  0
  1  2  2  3
  1  7  1  0
  1  8  1  0
  2  3  1  0
  2  9  1  0
  3  4  1  0
  3  5  1  0
  4 10  1  0
  4 11  1  0
  4 12  1  0
  5  6  2  3
  5 13  1  0
  6 14  1  0
  6 15  1  0
 16 17  2  3
 16 20  1  0
 16 21  1  0
 17 18  1  0
 17 22  1  0
 18 19  1  0
 18 23  1  0
 18 24  1  0
 19 25  1  0
 19 26  1  0
 19 27  1  0
M  RAD  1   3   2
M  END
>  <reaction>  (6) 
rxn_1045

>  <mol_properties>  (6) 
{"1": {"label": "*0", "atom_type": "Cd"}, "2": {"label": "*1", "atom_type": "Cs"}, "16": {"label": "*4", "atom_type": "Cd"}, "17": {"label": "*3", "atom_type": "Cs"}, "22": {"label": "*2", "atom_type": "H0"}}

>  <type>  (6) 
unop_2

>  <geom_source>  (6) 
Heuristics

$$$$

     RDKit          3D

 27 25  0  0  0  0  0  0  0  0999 V2000
    0.8669    2.4341    0.4331 C   0  0  0  0  0  0  0  0  0  0  0  0
    1.0454    1.3823    1.2160 C   0  0  0  0  0  0  0  0  0  0  0  0
    0.6163   -0.0254    0.8921 C   0  0  0  0  0  3  0  0  0  0  0  0
   -0.3736   -0.5400    1.9336 C   0  0  0  0  0  0  0  0  0  0  0  0
    1.8427   -0.8892    0.7307 C   0  0  0  0  0  0  0  0  0  0  0  0
    2.1569   -1.9609    1.4418 C   0  0  0  0  0  0  0  0  0  0  0  0
    1.2007    3.4216    0.7259 H   0  0  0  0  0  0  0  0  0  0  0  0
    0.3781    2.3449   -0.5313 H   0  0  0  0  0  0  0  0  0  0  0  0
    1.5420    1.5049    2.1762 H   0  0  0  0  0  0  0  0  0  0  0  0
   -0.7002   -1.5543    1.6985 H   0  0  0  0  0  0  0  0  0  0  0  0
   -1.2521    0.1049    1.9671 H   0  0  0  0  0  0  0  0  0  0  0  0
    0.0732   -0.5494    2.9304 H   0  0  0  0  0  0  0  0  0  0  0  0
    2.5238   -0.5581   -0.0489 H   0  0  0  0  0  0  0  0  0  0  0  0
    1.5220   -2.3370    2.2349 H   0  0  0  0  0  0  0  0  0  0  0  0
    3.0715   -2.5076    1.2497 H   0  0  0  0  0  0  0  0  0  0  0  0
   -1.4708   -1.0667   -2.9176 C   0  0  0  0  0  0  0  0  0  0  0  0
   -1.4708   -1.0667   -1.5933 C   0  0  0  0  0  0  0  0  0  0  0  0
   -1.4708    0.1378   -0.6998 C   0  0  0  0  0  0  0  0  0  0  0  0
   -1.4708    1.4835   -1.4075 C   0  0  0  0  0  0  0  0  0  0  0  0
   -1.4708   -0.1498   -3.4950 H   0  0  0  0  0  0  0  0  0  0  0  0
   -1.4708   -1.9941   -3.4763 H   0  0  0  0  0  0  0  0  0  0  0  0
   -1.4708   -2.0224   -1.0751 H   0  0  0  0  0  0  0  0  0  0  0  0
   -0.4275    0.0562    0.0960 H   0  0  0  0  0  0  0  0  0  0  0  0
   -2.3401    0.0698   -0.0367 H   0  0  0  0  0  0  0  0  0  0  0  0
   -2.3532    1.5986   -2.0399 H   0  0  0  0  0  0  0  0  0  0  0  0
   -0.5883    1.5985   -2.0399 H   0  0  0  0  0  0  0  0  0  0  0  0
   -1.4708    2.2979   -0.6822 H   0  0  0  0  0  0  0  0  0  0  0  0
  1  2  2  3
  1  7  1  0
  1  8  1  0
  2  3  1  0
  2  9  1  0
  3  4  1  0
  3  5  1  0
  4 10  1  0
  4 11  1  0
  4 12  1  0
  5  6  2  3
  5 13  1  0
  6 14  1  0
  6 15  1  0
 16 17  2  3
 16 20  1  0
 16 21  1  0
 17 18  1  0
 17 22  1  0
 18 19  1  0
 18 23  1  0
 18 24  1  0
 19 25  1  0
 19 26  1  0
 19 27  1  0
M  RAD  1   3   2
M  END
>  <reaction>  (7) 
rxn_1045

>  <mol_properties>  (7) 
{"1": {"label": "*0", "atom_type": "Cd"}, "2": {"label": "*1", "atom_type": "Cs"}, "16": {"label": "*4", "atom_type": "Cd"}, "17": {"label": "*3", "atom_type": "Cs"}, "22": {"label": "*2", "atom_type": "H0"}}

>  <type>  (7) 
unop_3

>  <geom_source>  (7) 
Heuristics

$$$$

     RDKit          3D

 27 25  0  0  0  0  0  0  0  0999 V2000
    0.1355   -2.3535    1.1416 C   0  0  0  0  0  0  0  0  0  0  0  0
    0.7436   -1.2542    1.5573 C   0  0  0  0  0  0  0  0  0  0  0  0
    0.8861    0.0156    0.7585 C   0  0  0  0  0  3  0  0  0  0  0  0
    2.3586    0.3552    0.5447 C   0  0  0  0  0  0  0  0  0  0  0  0
    0.0941    1.1107    1.4291 C   0  0  0  0  0  0  0  0  0  0  0  0
    0.5648    2.2549    1.9004 C   0  0  0  0  0  0  0  0  0  0  0  0
    0.0671   -3.2345    1.7673 H   0  0  0  0  0  0  0  0  0  0  0  0
   -0.3163   -2.4122    0.1569 H   0  0  0  0  0  0  0  0  0  0  0  0
    1.1841   -1.2267    2.5517 H   0  0  0  0  0  0  0  0  0  0  0  0
    2.4705    1.2664   -0.0452 H   0  0  0  0  0  0  0  0  0  0  0  0
    2.8588   -0.4584    0.0188 H   0  0  0  0  0  0  0  0  0  0  0  0
    2.8710    0.5027    1.4982 H   0  0  0  0  0  0  0  0  0  0  0  0
   -0.9664    0.8966    1.5330 H   0  0  0  0  0  0  0  0  0  0  0  0
    1.6121    2.5233    1.8315 H   0  0  0  0  0  0  0  0  0  0  0  0
   -0.0916    2.9732    2.3752 H   0  0  0  0  0  0  0  0  0  0  0  0
   -1.2010   -1.0257   -3.0512 C   0  0  0  0  0  0  0  0  0  0  0  0
   -1.2010   -1.0257   -1.7269 C   0  0  0  0  0  0  0  0  0  0  0  0
   -1.2010    0.1788   -0.8334 C   0  0  0  0  0  0  0  0  0  0  0  0
   -1.2010    1.5245   -1.5411 C   0  0  0  0  0  0  0  0  0  0  0  0
   -1.2010   -0.1088   -3.6287 H   0  0  0  0  0  0  0  0  0  0  0  0
   -1.2010   -1.9531   -3.6099 H   0  0  0  0  0  0  0  0  0  0  0  0
   -1.2010   -1.9815   -1.2087 H   0  0  0  0  0  0  0  0  0  0  0  0
   -0.1578    0.0972   -0.0377 H   0  0  0  0  0  0  0  0  0  0  0  0
   -2.0704    0.1108   -0.1703 H   0  0  0  0  0  0  0  0  0  0  0  0
   -2.0835    1.6395   -2.1735 H   0  0  0  0  0  0  0  0  0  0  0  0
   -0.3186    1.6395   -2.1735 H   0  0  0  0  0  0  0  0  0  0  0  0
   -1.2010    2.3389   -0.8158 H   0  0  0  0  0  0  0  0  0  0  0  0
  1  2  2  3
  1  7  1  0
  1  8  1  0
  2  3  1  0
  2  9  1  0
  3  4  1  0
  3  5  1  0
  4 10  1  0
  4 11  1  0
  4 12  1  0
  5  6  2  3
  5 13  1  0
  6 14  1  0
  6 15  1  0
 16 17  2  3
 16 20  1  0
 16 21  1  0
 17 18  1  0
 17 22  1  0
 18 19  1  0
 18 23  1  0
 18 24  1  0
 19 25  1  0
 19 26  1  0
 19 27  1  0
M  RAD  1   3   2
M  END
>  <reaction>  (8) 
rxn_1045

>  <mol_properties>  (8) 
{"1": {"label": "*0", "atom_type": "Cd"}, "2": {"label": "*1", "atom_type": "Cs"}, "16": {"label": "*4", "atom_type": "Cd"}, "17": {"label": "*3", "atom_type": "Cs"}, "22": {"label": "*2", "atom_type": "H0"}}

>  <type>  (8) 
unop_4

>  <geom_source>  (8) 
Heuristics

$$$$

     RDKit          3D

 27 25  0  0  0  0  0  0  0  0999 V2000
   -0.2976    2.0974    1.7817 C   0  0  0  0  0  0  0  0  0  0  0  0
    0.5954    1.1226    1.8386 C   0  0  0  0  0  0  0  0  0  0  0  0
    0.6122   -0.0941    0.9498 C   0  0  0  0  0  3  0  0  0  0  0  0
    0.4887   -1.3692    1.7796 C   0  0  0  0  0  0  0  0  0  0  0  0
    1.8398   -0.0475    0.0741 C   0  0  0  0  0  0  0  0  0  0  0  0
    2.8160   -0.9408    0.0288 C   0  0  0  0  0  0  0  0  0  0  0  0
   -0.2524    2.9472    2.4511 H   0  0  0  0  0  0  0  0  0  0  0  0
   -1.1092    2.0798    1.0619 H   0  0  0  0  0  0  0  0  0  0  0  0
    1.3990    1.1717    2.5704 H   0  0  0  0  0  0  0  0  0  0  0  0
    0.4860   -2.2548    1.1419 H   0  0  0  0  0  0  0  0  0  0  0  0
   -0.4386   -1.3555    2.3529 H   0  0  0  0  0  0  0  0  0  0  0  0
    1.3176   -1.4613    2.4853 H   0  0  0  0  0  0  0  0  0  0  0  0
    1.9037    0.8327   -0.5604 H   0  0  0  0  0  0  0  0  0  0  0  0
    2.8121   -1.8352    0.6401 H   0  0  0  0  0  0  0  0  0  0  0  0
    3.6625   -0.8069   -0.6327 H   0  0  0  0  0  0  0  0  0  0  0  0
   -1.4749   -1.1355   -2.8599 C   0  0  0  0  0  0  0  0  0  0  0  0
   -1.4749   -1.1355   -1.5356 C   0  0  0  0  0  0  0  0  0  0  0  0
   -1.4749    0.0690   -0.6421 C   0  0  0  0  0  0  0  0  0  0  0  0
   -1.4749    1.4148   -1.3498 C   0  0  0  0  0  0  0  0  0  0  0  0
   -1.4749   -0.2186   -3.4373 H   0  0  0  0  0  0  0  0  0  0  0  0
   -1.4749   -2.0628   -3.4186 H   0  0  0  0  0  0  0  0  0  0  0  0
   -1.4749   -2.0912   -1.0174 H   0  0  0  0  0  0  0  0  0  0  0  0
   -0.4316   -0.0125    0.1536 H   0  0  0  0  0  0  0  0  0  0  0  0
   -2.3443    0.0011    0.0210 H   0  0  0  0  0  0  0  0  0  0  0  0
   -2.3573    1.5298   -1.9822 H   0  0  0  0  0  0  0  0  0  0  0  0
   -0.5925    1.5298   -1.9822 H   0  0  0  0  0  0  0  0  0  0  0  0
   -1.4749    2.2292   -0.6245 H   0  0  0  0  0  0  0  0  0  0  0  0
  1  2  2  3
  1  7  1  0
  1  8  1  0
  2  3  1  0
  2  9  1  0
  3  4  1  0
  3  5  1  0
  4 10  1  0
  4 11  1  0
  4 12  1  0
  5  6  2  3
  5 13  1  0
  6 14  1  0
  6 15  1  0
 16 17  2  3
 16 20  1  0
 16 21  1  0
 17 18  1  0
 17 22  1  0
 18 19  1  0
 18 23  1  0
 18 24  1  0
 19 25  1  0
 19 26  1  0
 19 27  1  0
M  RAD  1   3   2
M  END
>  <reaction>  (9) 
rxn_1045

>  <mol_properties>  (9) 
{"1": {"label": "*0", "atom_type": "Cd"}, "2": {"label": "*1", "atom_type": "Cs"}, "16": {"label": "*4", "atom_type": "Cd"}, "17": {"label": "*3", "atom_type": "Cs"}, "22": {"label": "*2", "atom_type": "H0"}}

>  <type>  (9) 
unop_5

>  <geom_source>  (9) 
Heuristics

$$$$

     RDKit          3D

 27 25  0  0  0  0  0  0  0  0999 V2000
   -0.4013   -1.8681    2.0502 C   0  0  0  0  0  0  0  0  0  0  0  0
    0.4478   -0.8534    2.0286 C   0  0  0  0  0  0  0  0  0  0  0  0
    0.8829   -0.1101    0.7922 C   0  0  0  0  0  3  0  0  0  0  0  0
    2.3938   -0.2157    0.6039 C   0  0  0  0  0  0  0  0  0  0  0  0
    0.3702    1.3070    0.8635 C   0  0  0  0  0  0  0  0  0  0  0  0
    1.0963    2.4141    0.8598 C   0  0  0  0  0  0  0  0  0  0  0  0
   -0.6735   -2.3597    2.9758 H   0  0  0  0  0  0  0  0  0  0  0  0
   -0.8553   -2.2454    1.1399 H   0  0  0  0  0  0  0  0  0  0  0  0
    0.8834   -0.4971    2.9596 H   0  0  0  0  0  0  0  0  0  0  0  0
    2.7155    0.3085   -0.2976 H   0  0  0  0  0  0  0  0  0  0  0  0
    2.6890   -1.2616    0.5171 H   0  0  0  0  0  0  0  0  0  0  0  0
    2.9275    0.2135    1.4551 H   0  0  0  0  0  0  0  0  0  0  0  0
   -0.7109    1.3884    0.9411 H   0  0  0  0  0  0  0  0  0  0  0  0
    2.1773    2.3982    0.7898 H   0  0  0  0  0  0  0  0  0  0  0  0
    0.6269    3.3876    0.9245 H   0  0  0  0  0  0  0  0  0  0  0  0
   -1.2042   -1.1514   -3.0176 C   0  0  0  0  0  0  0  0  0  0  0  0
   -1.2042   -1.1514   -1.6932 C   0  0  0  0  0  0  0  0  0  0  0  0
   -1.2042    0.0531   -0.7998 C   0  0  0  0  0  0  0  0  0  0  0  0
   -1.2042    1.3988   -1.5075 C   0  0  0  0  0  0  0  0  0  0  0  0
   -1.2042   -0.2345   -3.5950 H   0  0  0  0  0  0  0  0  0  0  0  0
   -1.2042   -2.0788   -3.5763 H   0  0  0  0  0  0  0  0  0  0  0  0
   -1.2042   -2.1071   -1.1750 H   0  0  0  0  0  0  0  0  0  0  0  0
   -0.1609   -0.0285   -0.0040 H   0  0  0  0  0  0  0  0  0  0  0  0
   -2.0736   -0.0149   -0.1366 H   0  0  0  0  0  0  0  0  0  0  0  0
   -2.0866    1.5138   -2.1399 H   0  0  0  0  0  0  0  0  0  0  0  0
   -0.3217    1.5138   -2.1399 H   0  0  0  0  0  0  0  0  0  0  0  0
   -1.2042    2.2132   -0.7822 H   0  0  0  0  0  0  0  0  0  0  0  0
  1  2  2  3
  1  7  1  0
  1  8  1  0
  2  3  1  0
  2  9  1  0
  3  4  1  0
  3  5  1  0
  4 10  1  0
  4 11  1  0
  4 12  1  0
  5  6  2  3
  5 13  1  0
  6 14  1  0
  6 15  1  0
 16 17  2  3
 16 20  1  0
 16 21  1  0
 17 18  1  0
 17 22  1  0
 18 19  1  0
 18 23  1  0
 18 24  1  0
 19 25  1  0
 19 26  1  0
 19 27  1  0
M  RAD  1   3   2
M  END
>  <reaction>  (10) 
rxn_1045

>  <mol_properties>  (10) 
{"1": {"label": "*0", "atom_type": "Cd"}, "2": {"label": "*1", "atom_type": "Cs"}, "16": {"label": "*4", "atom_type": "Cd"}, "17": {"label": "*3", "atom_type": "Cs"}, "22": {"label": "*2", "atom_type": "H0"}}

>  <type>  (10) 
unop_6

>  <geom_source>  (10) 
Heuristics

$$$$

     RDKit          3D

 27 25  0  0  0  0  0  0  0  0999 V2000
   -0.8092   -0.8229    2.6804 C   0  0  0  0  0  0  0  0  0  0  0  0
    0.3009   -0.2224    2.2828 C   0  0  0  0  0  0  0  0  0  0  0  0
    0.8166   -0.1972    0.8672 C   0  0  0  0  0  3  0  0  0  0  0  0
    2.1982   -0.8405    0.7856 C   0  0  0  0  0  0  0  0  0  0  0  0
    0.7668    1.2193    0.3500 C   0  0  0  0  0  0  0  0  0  0  0  0
    1.7901    1.9457   -0.0720 C   0  0  0  0  0  0  0  0  0  0  0  0
   -1.1249   -0.8026    3.7159 H   0  0  0  0  0  0  0  0  0  0  0  0
   -1.4436   -1.3590    1.9823 H   0  0  0  0  0  0  0  0  0  0  0  0
    0.9136    0.3095    3.0076 H   0  0  0  0  0  0  0  0  0  0  0  0
    2.5730   -0.8389   -0.2393 H   0  0  0  0  0  0  0  0  0  0  0  0
    2.1526   -1.8728    1.1333 H   0  0  0  0  0  0  0  0  0  0  0  0
    2.9180   -0.3077    1.4113 H   0  0  0  0  0  0  0  0  0  0  0  0
   -0.2256    1.6624    0.3538 H   0  0  0  0  0  0  0  0  0  0  0  0
    2.8031    1.5622   -0.0948 H   0  0  0  0  0  0  0  0  0  0  0  0
    1.6465    2.9620   -0.4166 H   0  0  0  0  0  0  0  0  0  0  0  0
   -1.2705   -1.2385   -2.9426 C   0  0  0  0  0  0  0  0  0  0  0  0
   -1.2705   -1.2385   -1.6182 C   0  0  0  0  0  0  0  0  0  0  0  0
   -1.2705   -0.0340   -0.7248 C   0  0  0  0  0  0  0  0  0  0  0  0
   -1.2705    1.3118   -1.4325 C   0  0  0  0  0  0  0  0  0  0  0  0
   -1.2705   -0.3216   -3.5200 H   0  0  0  0  0  0  0  0  0  0  0  0
   -1.2705   -2.1658   -3.5012 H   0  0  0  0  0  0  0  0  0  0  0  0
   -1.2705   -2.1942   -1.1000 H   0  0  0  0  0  0  0  0  0  0  0  0
   -0.2272   -0.1156    0.0710 H   0  0  0  0  0  0  0  0  0  0  0  0
   -2.1399   -0.1020   -0.0616 H   0  0  0  0  0  0  0  0  0  0  0  0
   -2.1530    1.4268   -2.0649 H   0  0  0  0  0  0  0  0  0  0  0  0
   -0.3881    1.4268   -2.0649 H   0  0  0  0  0  0  0  0  0  0  0  0
   -1.2705    2.1261   -0.7072 H   0  0  0  0  0  0  0  0  0  0  0  0
  1  2  2  3
  1  7  1  0
  1  8  1  0
  2  3  1  0
  2  9  1  0
  3  4  1  0
  3  5  1  0
  4 10  1  0
  4 11  1  0
  4 12  1  0
  5  6  2  3
  5 13  1  0
  6 14  1  0
  6 15  1  0
 16 17  2  3
 16 20  1  0
 16 21  1  0
 17 18  1  0
 17 22  1  0
 18 19  1  0
 18 23  1  0
 18 24  1  0
 19 25  1  0
 19 26  1  0
 19 27  1  0
M  RAD  1   3   2
M  END
>  <reaction>  (11) 
rxn_1045

>  <mol_properties>  (11) 
{"1": {"label": "*0", "atom_type": "Cd"}, "2": {"label": "*1", "atom_type": "Cs"}, "16": {"label": "*4", "atom_type": "Cd"}, "17": {"label": "*3", "atom_type": "Cs"}, "22": {"label": "*2", "atom_type": "H0"}}

>  <type>  (11) 
unop_7

>  <geom_source>  (11) 
Heuristics

$$$$

     RDKit          3D

 27 25  0  0  0  0  0  0  0  0999 V2000
    2.0264    0.5914   -1.0776 C   0  0  0  0  0  0  0  0  0  0  0  0
    1.7535    0.6755    0.2145 C   0  0  0  0  0  0  0  0  0  0  0  0
    0.6054   -0.0121    0.9071 C   0  0  0  0  0  3  0  0  0  0  0  0
   -0.3217    1.0109    1.5579 C   0  0  0  0  0  0  0  0  0  0  0  0
    1.1531   -1.0414    1.8646 C   0  0  0  0  0  0  0  0  0  0  0  0
    0.9716   -1.0809    3.1755 C   0  0  0  0  0  0  0  0  0  0  0  0
    2.8700    1.1117   -1.5136 H   0  0  0  0  0  0  0  0  0  0  0  0
    1.4133   -0.0019   -1.7478 H   0  0  0  0  0  0  0  0  0  0  0  0
    2.3899    1.2768    0.8604 H   0  0  0  0  0  0  0  0  0  0  0  0
   -1.1639    0.5215    2.0500 H   0  0  0  0  0  0  0  0  0  0  0  0
   -0.7138    1.6946    0.8046 H   0  0  0  0  0  0  0  0  0  0  0  0
    0.2099    1.6047    2.3050 H   0  0  0  0  0  0  0  0  0  0  0  0
    1.7687   -1.8051    1.3965 H   0  0  0  0  0  0  0  0  0  0  0  0
    0.3733   -0.3459    3.7003 H   0  0  0  0  0  0  0  0  0  0  0  0
    1.4194   -1.8627    3.7759 H   0  0  0  0  0  0  0  0  0  0  0  0
   -1.4817   -1.0534   -2.9026 C   0  0  0  0  0  0  0  0  0  0  0  0
   -1.4817   -1.0534   -1.5782 C   0  0  0  0  0  0  0  0  0  0  0  0
   -1.4817    0.1511   -0.6848 C   0  0  0  0  0  0  0  0  0  0  0  0
   -1.4817    1.4969   -1.3925 C   0  0  0  0  0  0  0  0  0  0  0  0
   -1.4817   -0.1365   -3.4800 H   0  0  0  0  0  0  0  0  0  0  0  0
   -1.4817   -1.9807   -3.4613 H   0  0  0  0  0  0  0  0  0  0  0  0
   -1.4817   -2.0091   -1.0601 H   0  0  0  0  0  0  0  0  0  0  0  0
   -0.4384    0.0695    0.1110 H   0  0  0  0  0  0  0  0  0  0  0  0
   -2.3511    0.0831   -0.0217 H   0  0  0  0  0  0  0  0  0  0  0  0
   -2.3641    1.6119   -2.0249 H   0  0  0  0  0  0  0  0  0  0  0  0
   -0.5992    1.6119   -2.0249 H   0  0  0  0  0  0  0  0  0  0  0  0
   -1.4817    2.3112   -0.6672 H   0  0  0  0  0  0  0  0  0  0  0  0
  1  2  2  3
  1  7  1  0
  1  8  1  0
  2  3  1  0
  2  9  1  0
  3  4  1  0
  3  5  1  0
  4 10  1  0
  4 11  1  0
  4 12  1  0
  5  6  2  3
  5 13  1  0
  6 14  1  0
  6 15  1  0
 16 17  2  3
 16 20  1  0
 16 21  1  0
 17 18  1  0
 17 22  1  0
 18 19  1  0
 18 23  1  0
 18 24  1  0
 19 25  1  0
 19 26  1  0
 19 27  1  0
M  RAD  1   3   2
M  END
>  <reaction>  (12) 
rxn_1045

>  <mol_properties>  (12) 
{"1": {"label": "*0", "atom_type": "Cd"}, "2": {"label": "*1", "atom_type": "Cs"}, "16": {"label": "*4", "atom_type": "Cd"}, "17": {"label": "*3", "atom_type": "Cs"}, "22": {"label": "*2", "atom_type": "H0"}}

>  <type>  (12) 
unop_8

>  <geom_source>  (12) 
Heuristics

$$$$

     RDKit          3D

 27 25  0  0  0  0  0  0  0  0999 V2000
    0.6376   -2.3247    0.2540 C   0  0  0  0  0  0  0  0  0  0  0  0
    1.1066   -1.3359    0.9978 C   0  0  0  0  0  0  0  0  0  0  0  0
    0.8227    0.1276    0.7778 C   0  0  0  0  0  3  0  0  0  0  0  0
    2.1174    0.8957    0.5265 C   0  0  0  0  0  0  0  0  0  0  0  0
    0.0125    0.6518    1.9376 C   0  0  0  0  0  0  0  0  0  0  0  0
    0.3544    1.6243    2.7684 C   0  0  0  0  0  0  0  0  0  0  0  0
    0.8799   -3.3583    0.4671 H   0  0  0  0  0  0  0  0  0  0  0  0
   -0.0068   -2.1353   -0.5981 H   0  0  0  0  0  0  0  0  0  0  0  0
    1.7482   -1.5598    1.8473 H   0  0  0  0  0  0  0  0  0  0  0  0
    1.9191    1.9545    0.3523 H   0  0  0  0  0  0  0  0  0  0  0  0
    2.6287    0.4932   -0.3483 H   0  0  0  0  0  0  0  0  0  0  0  0
    2.7959    0.8129    1.3788 H   0  0  0  0  0  0  0  0  0  0  0  0
   -0.9370    0.1442    2.0859 H   0  0  0  0  0  0  0  0  0  0  0  0
    1.2891    2.1641    2.6757 H   0  0  0  0  0  0  0  0  0  0  0  0
   -0.2998    1.9194    3.5789 H   0  0  0  0  0  0  0  0  0  0  0  0
   -1.2644   -0.9137   -3.0319 C   0  0  0  0  0  0  0  0  0  0  0  0
   -1.2644   -0.9137   -1.7075 C   0  0  0  0  0  0  0  0  0  0  0  0
   -1.2644    0.2908   -0.8141 C   0  0  0  0  0  0  0  0  0  0  0  0
   -1.2644    1.6365   -1.5218 C   0  0  0  0  0  0  0  0  0  0  0  0
   -1.2644    0.0032   -3.6093 H   0  0  0  0  0  0  0  0  0  0  0  0
   -1.2644   -1.8411   -3.5906 H   0  0  0  0  0  0  0  0  0  0  0  0
   -1.2644   -1.8695   -1.1894 H   0  0  0  0  0  0  0  0  0  0  0  0
   -0.2211    0.2092   -0.0183 H   0  0  0  0  0  0  0  0  0  0  0  0
   -2.1338    0.2228   -0.1510 H   0  0  0  0  0  0  0  0  0  0  0  0
   -2.1468    1.7515   -2.1542 H   0  0  0  0  0  0  0  0  0  0  0  0
   -0.3820    1.7515   -2.1542 H   0  0  0  0  0  0  0  0  0  0  0  0
   -1.2644    2.4509   -0.7965 H   0  0  0  0  0  0  0  0  0  0  0  0
  1  2  2  3
  1  7  1  0
  1  8  1  0
  2  3  1  0
  2  9  1  0
  3  4  1  0
  3  5  1  0
  4 10  1  0
  4 11  1  0
  4 12  1  0
  5  6  2  3
  5 13  1  0
  6 14  1  0
  6 15  1  0
 16 17  2  3
 16 20  1  0
 16 21  1  0
 17 18  1  0
 17 22  1  0
 18 19  1  0
 18 23  1  0
 18 24  1  0
 19 25  1  0
 19 26  1  0
 19 27  1  0
M  RAD  1   3   2
M  END
>  <reaction>  (13) 
rxn_1045

>  <mol_properties>  (13) 
{"1": {"label": "*0", "atom_type": "Cd"}, "2": {"label": "*1", "atom_type": "Cs"}, "16": {"label": "*4", "atom_type": "Cd"}, "17": {"label": "*3", "atom_type": "Cs"}, "22": {"label": "*2", "atom_type": "H0"}}

>  <type>  (13) 
unop_9

>  <geom_source>  (13) 
Heuristics

$$$$

     RDKit          3D

 27 25  0  0  0  0  0  0  0  0999 V2000
    1.8958   -0.5389   -1.1463 C   0  0  0  0  0  0  0  0  0  0  0  0
    1.8241    0.0163    0.0527 C   0  0  0  0  0  0  0  0  0  0  0  0
    0.5955    0.0468    0.9246 C   0  0  0  0  0  3  0  0  0  0  0  0
    0.1784    1.4854    1.2175 C   0  0  0  0  0  0  0  0  0  0  0  0
    0.8467   -0.7835    2.1590 C   0  0  0  0  0  0  0  0  0  0  0  0
    0.8177   -0.3658    3.4150 C   0  0  0  0  0  0  0  0  0  0  0  0
    2.8125   -0.5268   -1.7225 H   0  0  0  0  0  0  0  0  0  0  0  0
    1.0372   -1.0261   -1.5963 H   0  0  0  0  0  0  0  0  0  0  0  0
    2.7043    0.4945    0.4773 H   0  0  0  0  0  0  0  0  0  0  0  0
   -0.7194    1.5164    1.8372 H   0  0  0  0  0  0  0  0  0  0  0  0
   -0.0285    2.0132    0.2862 H   0  0  0  0  0  0  0  0  0  0  0  0
    0.9707    2.0263    1.7402 H   0  0  0  0  0  0  0  0  0  0  0  0
    1.0893   -1.8235    1.9570 H   0  0  0  0  0  0  0  0  0  0  0  0
    0.5876    0.6592    3.6799 H   0  0  0  0  0  0  0  0  0  0  0  0
    1.0232   -1.0455    4.2323 H   0  0  0  0  0  0  0  0  0  0  0  0
   -1.4916   -0.9945   -2.8851 C   0  0  0  0  0  0  0  0  0  0  0  0
   -1.4916   -0.9945   -1.5608 C   0  0  0  0  0  0  0  0  0  0  0  0
   -1.4916    0.2100   -0.6673 C   0  0  0  0  0  0  0  0  0  0  0  0
   -1.4916    1.5558   -1.3750 C   0  0  0  0  0  0  0  0  0  0  0  0
   -1.4916   -0.0776   -3.4626 H   0  0  0  0  0  0  0  0  0  0  0  0
   -1.4916   -1.9218   -3.4438 H   0  0  0  0  0  0  0  0  0  0  0  0
   -1.4916   -1.9502   -1.0426 H   0  0  0  0  0  0  0  0  0  0  0  0
   -0.4484    0.1284    0.1284 H   0  0  0  0  0  0  0  0  0  0  0  0
   -2.3610    0.1420   -0.0042 H   0  0  0  0  0  0  0  0  0  0  0  0
   -2.3741    1.6708   -2.0075 H   0  0  0  0  0  0  0  0  0  0  0  0
   -0.6092    1.6708   -2.0075 H   0  0  0  0  0  0  0  0  0  0  0  0
   -1.4916    2.3701   -0.6497 H   0  0  0  0  0  0  0  0  0  0  0  0
  1  2  2  3
  1  7  1  0
  1  8  1  0
  2  3  1  0
  2  9  1  0
  3  4  1  0
  3  5  1  0
  4 10  1  0
  4 11  1  0
  4 12  1  0
  5  6  2  3
  5 13  1  0
  6 14  1  0
  6 15  1  0
 16 17  2  3
 16 20  1  0
 16 21  1  0
 17 18  1  0
 17 22  1  0
 18 19  1  0
 18 23  1  0
 18 24  1  0
 19 25  1  0
 19 26  1  0
 19 27  1  0
M  RAD  1   3   2
M  END
>  <reaction>  (14) 
rxn_1045

>  <mol_properties>  (14) 
{"1": {"label": "*0", "atom_type": "Cd"}, "2": {"label": "*1", "atom_type": "Cs"}, "16": {"label": "*4", "atom_type": "Cd"}, "17": {"label": "*3", "atom_type": "Cs"}, "22": {"label": "*2", "atom_type": "H0"}}

>  <type>  (14) 
unop_10

>  <geom_source>  (14) 
Heuristics

$$$$

     RDKit          3D

 27 25  0  0  0  0  0  0  0  0999 V2000
   -0.8887    0.6564    2.6943 C   0  0  0  0  0  0  0  0  0  0  0  0
    0.3414    0.4951    2.2343 C   0  0  0  0  0  0  0  0  0  0  0  0
    0.7040   -0.1971    0.9459 C   0  0  0  0  0  3  0  0  0  0  0  0
    1.6062   -1.3983    1.2151 C   0  0  0  0  0  0  0  0  0  0  0  0
    1.2939    0.8131   -0.0069 C   0  0  0  0  0  0  0  0  0  0  0  0
    2.5057    0.7873   -0.5396 C   0  0  0  0  0  0  0  0  0  0  0  0
   -1.0815    1.1656    3.6302 H   0  0  0  0  0  0  0  0  0  0  0  0
   -1.7498    0.2828    2.1501 H   0  0  0  0  0  0  0  0  0  0  0  0
    1.1834    0.8843    2.8028 H   0  0  0  0  0  0  0  0  0  0  0  0
    1.8621   -1.9138    0.2879 H   0  0  0  0  0  0  0  0  0  0  0  0
    1.1024   -2.1059    1.8739 H   0  0  0  0  0  0  0  0  0  0  0  0
    2.5355   -1.0916    1.7008 H   0  0  0  0  0  0  0  0  0  0  0  0
    0.6329    1.6422   -0.2457 H   0  0  0  0  0  0  0  0  0  0  0  0
    3.2116   -0.0089   -0.3361 H   0  0  0  0  0  0  0  0  0  0  0  0
    2.8360    1.5715   -1.2089 H   0  0  0  0  0  0  0  0  0  0  0  0
   -1.3831   -1.2384   -2.8639 C   0  0  0  0  0  0  0  0  0  0  0  0
   -1.3831   -1.2384   -1.5395 C   0  0  0  0  0  0  0  0  0  0  0  0
   -1.3831   -0.0339   -0.6461 C   0  0  0  0  0  0  0  0  0  0  0  0
   -1.3831    1.3118   -1.3538 C   0  0  0  0  0  0  0  0  0  0  0  0
   -1.3831   -0.3215   -3.4413 H   0  0  0  0  0  0  0  0  0  0  0  0
   -1.3831   -2.1658   -3.4226 H   0  0  0  0  0  0  0  0  0  0  0  0
   -1.3831   -2.1942   -1.0213 H   0  0  0  0  0  0  0  0  0  0  0  0
   -0.3398   -0.1155    0.1497 H   0  0  0  0  0  0  0  0  0  0  0  0
   -2.2525   -0.1019    0.0171 H   0  0  0  0  0  0  0  0  0  0  0  0
   -2.2655    1.4268   -1.9862 H   0  0  0  0  0  0  0  0  0  0  0  0
   -0.5007    1.4268   -1.9862 H   0  0  0  0  0  0  0  0  0  0  0  0
   -1.3831    2.1262   -0.6285 H   0  0  0  0  0  0  0  0  0  0  0  0
  1  2  2  3
  1  7  1  0
  1  8  1  0
  2  3  1  0
  2  9  1  0
  3  4  1  0
  3  5  1  0
  4 10  1  0
  4 11  1  0
  4 12  1  0
  5  6  2  3
  5 13  1  0
  6 14  1  0
  6 15  1  0
 16 17  2  3
 16 20  1  0
 16 21  1  0
 17 18  1  0
 17 22  1  0
 18 19  1  0
 18 23  1  0
 18 24  1  0
 19 25  1  0
 19 26  1  0
 19 27  1  0
M  RAD  1   3   2
M  END
>  <reaction>  (15) 
rxn_1045

>  <mol_properties>  (15) 
{"1": {"label": "*0", "atom_type": "Cd"}, "2": {"label": "*1", "atom_type": "Cs"}, "16": {"label": "*4", "atom_type": "Cd"}, "17": {"label": "*3", "atom_type": "Cs"}, "22": {"label": "*2", "atom_type": "H0"}}

>  <type>  (15) 
unop_11

>  <geom_source>  (15) 
Heuristics

$$$$

     RDKit          3D

 27 25  0  0  0  0  0  0  0  0999 V2000
    1.0643   -1.9766   -0.4215 C   0  0  0  0  0  0  0  0  0  0  0  0
    1.4468   -1.1016    0.4945 C   0  0  0  0  0  0  0  0  0  0  0  0
    0.7171    0.1709    0.8395 C   0  0  0  0  0  3  0  0  0  0  0  0
    1.6077    1.3859    0.5949 C   0  0  0  0  0  0  0  0  0  0  0  0
    0.1898    0.0695    2.2494 C   0  0  0  0  0  0  0  0  0  0  0  0
    0.4876    0.8632    3.2664 C   0  0  0  0  0  0  0  0  0  0  0  0
    1.6355   -2.8746   -0.6207 H   0  0  0  0  0  0  0  0  0  0  0  0
    0.1639   -1.8252   -1.0075 H   0  0  0  0  0  0  0  0  0  0  0  0
    2.3535   -1.2844    1.0673 H   0  0  0  0  0  0  0  0  0  0  0  0
    1.0817    2.3129    0.8292 H   0  0  0  0  0  0  0  0  0  0  0  0
    1.9165    1.4206   -0.4501 H   0  0  0  0  0  0  0  0  0  0  0  0
    2.5099    1.3428    1.2095 H   0  0  0  0  0  0  0  0  0  0  0  0
   -0.4899   -0.7625    2.4142 H   0  0  0  0  0  0  0  0  0  0  0  0
    1.1619    1.7052    3.1665 H   0  0  0  0  0  0  0  0  0  0  0  0
    0.0585    0.6967    4.2464 H   0  0  0  0  0  0  0  0  0  0  0  0
   -1.3700   -0.8704   -2.9702 C   0  0  0  0  0  0  0  0  0  0  0  0
   -1.3700   -0.8704   -1.6459 C   0  0  0  0  0  0  0  0  0  0  0  0
   -1.3700    0.3341   -0.7524 C   0  0  0  0  0  0  0  0  0  0  0  0
   -1.3700    1.6798   -1.4601 C   0  0  0  0  0  0  0  0  0  0  0  0
   -1.3700    0.0465   -3.5477 H   0  0  0  0  0  0  0  0  0  0  0  0
   -1.3700   -1.7977   -3.5289 H   0  0  0  0  0  0  0  0  0  0  0  0
   -1.3700   -1.8261   -1.1277 H   0  0  0  0  0  0  0  0  0  0  0  0
   -0.3268    0.2525    0.0433 H   0  0  0  0  0  0  0  0  0  0  0  0
   -2.2394    0.2661   -0.0893 H   0  0  0  0  0  0  0  0  0  0  0  0
   -2.2525    1.7949   -2.0926 H   0  0  0  0  0  0  0  0  0  0  0  0
   -0.4876    1.7949   -2.0926 H   0  0  0  0  0  0  0  0  0  0  0  0
   -1.3700    2.4942   -0.7348 H   0  0  0  0  0  0  0  0  0  0  0  0
  1  2  2  3
  1  7  1  0
  1  8  1  0
  2  3  1  0
  2  9  1  0
  3  4  1  0
  3  5  1  0
  4 10  1  0
  4 11  1  0
  4 12  1  0
  5  6  2  3
  5 13  1  0
  6 14  1  0
  6 15  1  0
 16 17  2  3
 16 20  1  0
 16 21  1  0
 17 18  1  0
 17 22  1  0
 18 19  1  0
 18 23  1  0
 18 24  1  0
 19 25  1  0
 19 26  1  0
 19 27  1  0
M  RAD  1   3   2
M  END
>  <reaction>  (16) 
rxn_1045

>  <mol_properties>  (16) 
{"1": {"label": "*0", "atom_type": "Cd"}, "2": {"label": "*1", "atom_type": "Cs"}, "16": {"label": "*4", "atom_type": "Cd"}, "17": {"label": "*3", "atom_type": "Cs"}, "22": {"label": "*2", "atom_type": "H0"}}

>  <type>  (16) 
unop_12

>  <geom_source>  (16) 
Heuristics

$$$$

     RDKit          3D

 27 25  0  0  0  0  0  0  0  0999 V2000
   -1.0330   -0.1148   -0.1452 C   0  0  0  0  0  0  0  0  0  0  0  0
   -2.0473   -0.5336   -1.2170 C   0  0  0  0  0  0  0  0  0  0  0  0
    2.4043    0.0530   -1.9391 C   0  0  0  0  0  0  0  0  0  0  0  0
   -1.0319   -1.0348    1.0548 C   0  0  0  0  0  0  0  0  0  0  0  0
   -1.1694    1.3361    0.2584 C   0  0  0  0  0  0  0  0  0  0  0  0
    1.5317   -0.1186   -0.7017 C   0  0  0  0  0  3  0  0  0  0  0  0
    2.1712    0.4712    0.5218 C   0  0  0  0  0  0  0  0  0  0  0  0
   -2.1259   -1.3212    1.7704 C   0  0  0  0  0  0  0  0  0  0  0  0
   -2.3115    1.8799    0.6951 C   0  0  0  0  0  0  0  0  0  0  0  0
    3.2363   -0.0911    1.1001 C   0  0  0  0  0  0  0  0  0  0  0  0
    0.1417   -0.2301   -0.6915 H   0  0  0  0  0  0  0  0  0  0  0  0
   -1.9470    0.1241   -2.1064 H   0  0  0  0  0  0  0  0  0  0  0  0
   -3.0901   -0.4685   -0.8432 H   0  0  0  0  0  0  0  0  0  0  0  0
   -1.8483   -1.5793   -1.5342 H   0  0  0  0  0  0  0  0  0  0  0  0
    1.8623   -0.3370   -2.8255 H   0  0  0  0  0  0  0  0  0  0  0  0
    3.3558   -0.5086   -1.8263 H   0  0  0  0  0  0  0  0  0  0  0  0
    2.6260    1.1288   -2.1035 H   0  0  0  0  0  0  0  0  0  0  0  0
   -0.0892   -1.4858    1.3500 H   0  0  0  0  0  0  0  0  0  0  0  0
   -0.2895    1.9688    0.1896 H   0  0  0  0  0  0  0  0  0  0  0  0
    1.2846   -1.1899   -0.5384 H   0  0  0  0  0  0  0  0  0  0  0  0
    1.7328    1.3613    0.9611 H   0  0  0  0  0  0  0  0  0  0  0  0
   -2.0532   -1.9890    2.6226 H   0  0  0  0  0  0  0  0  0  0  0  0
   -3.0963   -0.9108    1.5178 H   0  0  0  0  0  0  0  0  0  0  0  0
   -3.2246    1.3021    0.7745 H   0  0  0  0  0  0  0  0  0  0  0  0
   -2.3384    2.9291    0.9706 H   0  0  0  0  0  0  0  0  0  0  0  0
    3.6666    0.3519    1.9923 H   0  0  0  0  0  0  0  0  0  0  0  0
    3.6823   -0.9934    0.6928 H   0  0  0  0  0  0  0  0  0  0  0  0
  1  2  1  0
  1  4  1  0
  1  5  1  0
  1 11  1  0
  2 12  1  0
  2 13  1  0
  2 14  1  0
  3  6  1  0
  3 15  1  0
  3 16  1  0
  3 17  1  0
  4  8  2  3
  4 18  1  0
  5  9  2  3
  5 19  1  0
  6  7  1  0
  6 20  1  0
  7 10  2  3
  7 21  1  0
  8 22  1  0
  8 23  1  0
  9 24  1  0
  9 25  1  0
 10 26  1  0
 10 27  1  0
M  RAD  1   6   2
M  END
>  <reaction>  (17) 
rxn_1045

>  <mol_properties>  (17) 
{"1": {"label": "*0", "atom_type": "Cd"}, "2": {"label": "*1", "atom_type": "Cs"}, "16": {"label": "*4", "atom_type": "Cd"}, "17": {"label": "*3", "atom_type": "Cs"}, "22": {"label": "*2", "atom_type": "H0"}}

>  <type>  (17) 
unop_13

>  <geom_source>  (17) 
AutoTST

$$$$
