
     RDKit          3D

 13 12  0  0  0  0  0  0  0  0999 V2000
    2.2975   -0.6134    0.7685 C   0  0  0  0  0  0  0  0  0  0  0  0
    1.1676   -0.5248    0.3802 C   0  0  0  0  0  0  0  0  0  0  0  0
   -0.2109   -0.3926   -0.0948 C   0  0  0  0  0  0  0  0  0  0  0  0
   -0.2501    0.2584   -1.4808 C   0  0  0  0  0  0  0  0  0  0  0  0
   -1.0633    0.3831    0.9141 C   0  0  0  0  0  0  0  0  0  0  0  0
    3.2999   -0.6974    1.1133 H   0  0  0  0  0  0  0  0  0  0  0  0
   -0.6209   -1.4038   -0.1814 H   0  0  0  0  0  0  0  0  0  0  0  0
    0.3402   -0.3102   -2.1992 H   0  0  0  0  0  0  0  0  0  0  0  0
    0.1511    1.2724   -1.4369 H   0  0  0  0  0  0  0  0  0  0  0  0
   -1.2791    0.3109   -1.8407 H   0  0  0  0  0  0  0  0  0  0  0  0
   -0.6861    1.4008    1.0287 H   0  0  0  0  0  0  0  0  0  0  0  0
   -1.0492   -0.0971    1.8924 H   0  0  0  0  0  0  0  0  0  0  0  0
   -2.0971    0.4363    0.5680 H   0  0  0  0  0  0  0  0  0  0  0  0
  1  2  3  0
  1  6  1  0
  2  3  1  0
  3  4  1  0
  3  5  1  0
  3  7  1  0
  4  8  1  0
  4  9  1  0
  4 10  1  0
  5 11  1  0
  5 12  1  0
  5 13  1  0
M  END
>  <reaction>  (1) 
rxn_1309

>  <mol_properties>  (1) 
{"2": {"label": "donator", "atom_type": "Cs"}, "6": {"label": "d_hydrogen", "atom_type": "H0"}}

>  <type>  (1) 
r1h

$$$$

     RDKit          3D

 12 11  0  0  0  0  0  0  0  0999 V2000
   -2.3791    0.4612   -0.5870 C   0  0  0  0  0  0  0  0  0  0  0  0
   -1.3422   -0.3138   -0.1893 C   0  0  0  0  0  0  0  0  0  0  0  0
   -1.4723   -1.6058    0.3589 C   0  0  0  0  0  3  0  0  0  0  0  0
   -0.3798   -2.3973    0.7671 C   0  0  0  0  0  0  0  0  0  0  0  0
   -0.4849   -3.6397    1.2956 C   0  0  0  0  0  0  0  0  0  0  0  0
   -2.2205    1.4472   -1.0017 H   0  0  0  0  0  0  0  0  0  0  0  0
   -3.4026    0.1153   -0.5011 H   0  0  0  0  0  0  0  0  0  0  0  0
   -0.3330    0.0765   -0.2952 H   0  0  0  0  0  0  0  0  0  0  0  0
   -2.4723   -2.0151    0.4735 H   0  0  0  0  0  0  0  0  0  0  0  0
    0.6117   -1.9687    0.6436 H   0  0  0  0  0  0  0  0  0  0  0  0
    0.3893   -4.2030    1.5920 H   0  0  0  0  0  0  0  0  0  0  0  0
   -1.4516   -4.1084    1.4378 H   0  0  0  0  0  0  0  0  0  0  0  0
  1  2  2  3
  1  6  1  0
  1  7  1  0
  2  3  1  0
  2  8  1  0
  3  4  1  0
  3  9  1  0
  4  5  2  3
  4 10  1  0
  5 11  1  0
  5 12  1  0
M  RAD  1   3   2
M  END
>  <reaction>  (2) 
rxn_1309

>  <mol_properties>  (2) 
{"2": {"label": "acceptor", "atom_type": "Cs"}}

>  <type>  (2) 
r2

$$$$

     RDKit          3D

 13 12  0  0  0  0  0  0  0  0999 V2000
    3.0977   -0.3549   -0.5105 C   0  0  0  0  0  0  0  0  0  0  0  0
    2.0556    0.4221   -0.2627 C   0  0  0  0  0  0  0  0  0  0  0  0
    0.6313   -0.0354   -0.2366 C   0  0  0  0  0  0  0  0  0  0  0  0
   -0.2567    0.6038   -1.2694 C   0  0  0  0  0  0  0  0  0  0  0  0
    0.1459    1.3456   -2.2891 C   0  0  0  0  0  0  0  0  0  0  0  0
    4.1081    0.0344   -0.5074 H   0  0  0  0  0  0  0  0  0  0  0  0
    2.9777   -1.4116   -0.7243 H   0  0  0  0  0  0  0  0  0  0  0  0
    2.2171    1.4781   -0.0618 H   0  0  0  0  0  0  0  0  0  0  0  0
    0.5865   -1.1233   -0.3540 H   0  0  0  0  0  0  0  0  0  0  0  0
    0.2065    0.1743    0.7521 H   0  0  0  0  0  0  0  0  0  0  0  0
   -1.3190    0.4126   -1.1445 H   0  0  0  0  0  0  0  0  0  0  0  0
    1.1948    1.5564   -2.4628 H   0  0  0  0  0  0  0  0  0  0  0  0
   -0.5644    1.7621   -2.9918 H   0  0  0  0  0  0  0  0  0  0  0  0
  1  2  2  3
  1  6  1  0
  1  7  1  0
  2  3  1  0
  2  8  1  0
  3  4  1  0
  3  9  1  0
  3 10  1  0
  4  5  2  3
  4 11  1  0
  5 12  1  0
  5 13  1  0
M  END
>  <reaction>  (3) 
rxn_1309

>  <mol_properties>  (3) 
{"0": {"label": "a_hydrogen", "atom_type": "H0"}, "3": {"label": "acceptor", "atom_type": "Cs"}}

>  <type>  (3) 
r2h

$$$$

     RDKit          3D

 25 23  0  0  0  0  0  0  0  0999 V2000
   -2.5721    1.5353   -1.4823 C   0  0  0  0  0  0  0  0  0  0  0  0
   -1.5059    1.5172   -0.9232 C   0  0  0  0  0  0  0  0  0  0  0  0
   -0.2608    1.4284   -0.2393 C   0  0  0  0  0  3  0  0  0  0  0  0
   -0.1036    2.3105    0.9775 C   0  0  0  0  0  0  0  0  0  0  0  0
    0.9638    1.2869   -1.1125 C   0  0  0  0  0  0  0  0  0  0  0  0
   -3.5087    1.5702   -1.9842 H   0  0  0  0  0  0  0  0  0  0  0  0
   -0.3138    0.1567    0.3261 H   0  0  0  0  0  0  0  0  0  0  0  0
   -0.9971    2.2861    1.6013 H   0  0  0  0  0  0  0  0  0  0  0  0
    0.0746    3.3496    0.6831 H   0  0  0  0  0  0  0  0  0  0  0  0
    0.7487    1.9766    1.5727 H   0  0  0  0  0  0  0  0  0  0  0  0
    1.1922    2.2290   -1.6201 H   0  0  0  0  0  0  0  0  0  0  0  0
    0.8164    0.5179   -1.8713 H   0  0  0  0  0  0  0  0  0  0  0  0
    1.8276    1.0153   -0.5020 H   0  0  0  0  0  0  0  0  0  0  0  0
    1.4357   -0.9005    2.6482 C   0  0  0  0  0  0  0  0  0  0  0  0
    1.0829   -1.1749    1.3932 C   0  0  0  0  0  0  0  0  0  0  0  0
   -0.2744   -1.0388    0.8626 C   0  0  0  0  0  0  0  0  0  0  0  0
   -0.7348   -1.8883   -0.2440 C   0  0  0  0  0  0  0  0  0  0  0  0
   -0.0096   -2.7549   -0.9493 C   0  0  0  0  0  0  0  0  0  0  0  0
    2.4635   -0.9821    2.9768 H   0  0  0  0  0  0  0  0  0  0  0  0
    0.7034   -0.5935    3.3871 H   0  0  0  0  0  0  0  0  0  0  0  0
    1.8554   -1.4753    0.6915 H   0  0  0  0  0  0  0  0  0  0  0  0
   -1.0309   -0.8886    1.6337 H   0  0  0  0  0  0  0  0  0  0  0  0
   -1.7741   -1.7409   -0.5224 H   0  0  0  0  0  0  0  0  0  0  0  0
   -0.4489   -3.3000   -1.7743 H   0  0  0  0  0  0  0  0  0  0  0  0
    1.0291   -2.9648   -0.7254 H   0  0  0  0  0  0  0  0  0  0  0  0
  1  2  3  0
  1  6  1  0
  2  3  1  0
  3  4  1  0
  3  5  1  0
  4  8  1  0
  4  9  1  0
  4 10  1  0
  5 11  1  0
  5 12  1  0
  5 13  1  0
  7 16  1  0
 14 15  2  3
 14 19  1  0
 14 20  1  0
 15 16  1  0
 15 21  1  0
 16 17  1  0
 16 22  1  0
 17 18  2  3
 17 23  1  0
 18 24  1  0
 18 25  1  0
M  RAD  1   3   2
M  END
>  <reaction>  (4) 
rxn_1309

>  <mol_properties>  (4) 
{"1": {"label": "*4", "atom_type": "Ct"}, "2": {"label": "*3", "atom_type": "Cs"}, "6": {"label": "*2", "atom_type": "H0"}, "14": {"label": "*0", "atom_type": "Cd"}, "15": {"label": "*1", "atom_type": "Cs"}}

>  <type>  (4) 
ts

$$$$

     RDKit          3D

 25 23  0  0  0  0  0  0  0  0999 V2000
   -0.1561    1.4708   -3.0285 C   0  0  0  0  0  0  0  0  0  0  0  0
   -0.1561    1.4708   -1.8304 C   0  0  0  0  0  0  0  0  0  0  0  0
   -0.1561    1.4947   -0.3666 C   0  0  0  0  0  0  0  0  0  0  0  0
   -1.4222    2.1712    0.1678 C   0  0  0  0  0  0  0  0  0  0  0  0
    1.1100    2.1711    0.1678 C   0  0  0  0  0  0  0  0  0  0  0  0
   -0.1561    1.4708   -4.0918 H   0  0  0  0  0  0  0  0  0  0  0  0
   -0.1561    0.2461    0.0413 H   0  0  0  0  0  0  0  0  0  0  0  0
   -2.3193    1.6719   -0.1982 H   0  0  0  0  0  0  0  0  0  0  0  0
   -1.4595    3.2147   -0.1498 H   0  0  0  0  0  0  0  0  0  0  0  0
   -1.4295    2.1432    1.2588 H   0  0  0  0  0  0  0  0  0  0  0  0
    1.1474    3.2147   -0.1498 H   0  0  0  0  0  0  0  0  0  0  0  0
    2.0071    1.6718   -0.1982 H   0  0  0  0  0  0  0  0  0  0  0  0
    1.1174    2.1431    1.2588 H   0  0  0  0  0  0  0  0  0  0  0  0
    1.1937   -0.9463    2.5557 C   0  0  0  0  0  0  0  0  0  0  0  0
    1.0688   -1.2487    1.2736 C   0  0  0  0  0  0  0  0  0  0  0  0
   -0.1561   -1.0045    0.4498 C   0  0  0  0  0  3  0  0  0  0  0  0
   -0.8028   -2.2450   -0.1040 C   0  0  0  0  0  0  0  0  0  0  0  0
   -0.5133   -3.4909    0.2365 C   0  0  0  0  0  0  0  0  0  0  0  0
    2.1112   -1.1409    3.0970 H   0  0  0  0  0  0  0  0  0  0  0  0
    0.3813   -0.4902    3.1114 H   0  0  0  0  0  0  0  0  0  0  0  0
    1.9032   -1.7132    0.7543 H   0  0  0  0  0  0  0  0  0  0  0  0
   -0.8960   -0.4500    1.0366 H   0  0  0  0  0  0  0  0  0  0  0  0
   -1.5807   -2.0681   -0.8416 H   0  0  0  0  0  0  0  0  0  0  0  0
   -1.0359   -4.3278   -0.2091 H   0  0  0  0  0  0  0  0  0  0  0  0
    0.2469   -3.7192    0.9747 H   0  0  0  0  0  0  0  0  0  0  0  0
  1  2  3  0
  1  6  1  0
  2  3  1  0
  3  4  1  0
  3  5  1  0
  3  7  1  0
  4  8  1  0
  4  9  1  0
  4 10  1  0
  5 11  1  0
  5 12  1  0
  5 13  1  0
 14 15  2  3
 14 19  1  0
 14 20  1  0
 15 16  1  0
 15 21  1  0
 16 17  1  0
 16 22  1  0
 17 18  2  3
 17 23  1  0
 18 24  1  0
 18 25  1  0
M  RAD  1  16   2
M  END
>  <reaction>  (5) 
rxn_1309

>  <mol_properties>  (5) 
{"1": {"label": "*4", "atom_type": "Ct"}, "2": {"label": "*3", "atom_type": "Cs"}, "6": {"label": "*2", "atom_type": "H0"}, "14": {"label": "*0", "atom_type": "Cd"}, "15": {"label": "*1", "atom_type": "Cs"}}

>  <type>  (5) 
unop_1

>  <geom_source>  (5) 
Heuristics

$$$$

     RDKit          3D

 25 23  0  0  0  0  0  0  0  0999 V2000
    0.0153    1.5497   -2.7182 C   0  0  0  0  0  0  0  0  0  0  0  0
    0.0153    1.5497   -1.5201 C   0  0  0  0  0  0  0  0  0  0  0  0
    0.0153    1.5736   -0.0563 C   0  0  0  0  0  0  0  0  0  0  0  0
   -1.2509    2.2501    0.4781 C   0  0  0  0  0  0  0  0  0  0  0  0
    1.2814    2.2500    0.4781 C   0  0  0  0  0  0  0  0  0  0  0  0
    0.0153    1.5497   -3.7815 H   0  0  0  0  0  0  0  0  0  0  0  0
    0.0152    0.3249    0.3516 H   0  0  0  0  0  0  0  0  0  0  0  0
   -2.1479    1.7508    0.1121 H   0  0  0  0  0  0  0  0  0  0  0  0
   -1.2882    3.2936    0.1605 H   0  0  0  0  0  0  0  0  0  0  0  0
   -1.2582    2.2221    1.5691 H   0  0  0  0  0  0  0  0  0  0  0  0
    1.3188    3.2935    0.1605 H   0  0  0  0  0  0  0  0  0  0  0  0
    2.1784    1.7507    0.1121 H   0  0  0  0  0  0  0  0  0  0  0  0
    1.2887    2.2220    1.5691 H   0  0  0  0  0  0  0  0  0  0  0  0
    1.9568   -2.2301   -0.1282 C   0  0  0  0  0  0  0  0  0  0  0  0
    0.7224   -1.7698   -0.2528 C   0  0  0  0  0  0  0  0  0  0  0  0
    0.0152   -0.9256    0.7601 C   0  0  0  0  0  3  0  0  0  0  0  0
   -1.2212   -1.5484    1.3493 C   0  0  0  0  0  0  0  0  0  0  0  0
   -1.5994   -2.8091    1.2084 C   0  0  0  0  0  0  0  0  0  0  0  0
    2.4180   -2.8312   -0.9017 H   0  0  0  0  0  0  0  0  0  0  0  0
    2.5528   -2.0201    0.7535 H   0  0  0  0  0  0  0  0  0  0  0  0
    0.1545   -2.0098   -1.1480 H   0  0  0  0  0  0  0  0  0  0  0  0
    0.7018   -0.6628    1.5718 H   0  0  0  0  0  0  0  0  0  0  0  0
   -1.8334   -0.8789    1.9471 H   0  0  0  0  0  0  0  0  0  0  0  0
   -2.5043   -3.1765    1.6754 H   0  0  0  0  0  0  0  0  0  0  0  0
   -1.0179   -3.5186    0.6310 H   0  0  0  0  0  0  0  0  0  0  0  0
  1  2  3  0
  1  6  1  0
  2  3  1  0
  3  4  1  0
  3  5  1  0
  3  7  1  0
  4  8  1  0
  4  9  1  0
  4 10  1  0
  5 11  1  0
  5 12  1  0
  5 13  1  0
 14 15  2  3
 14 19  1  0
 14 20  1  0
 15 16  1  0
 15 21  1  0
 16 17  1  0
 16 22  1  0
 17 18  2  3
 17 23  1  0
 18 24  1  0
 18 25  1  0
M  RAD  1  16   2
M  END
>  <reaction>  (6) 
rxn_1309

>  <mol_properties>  (6) 
{"1": {"label": "*4", "atom_type": "Ct"}, "2": {"label": "*3", "atom_type": "Cs"}, "6": {"label": "*2", "atom_type": "H0"}, "14": {"label": "*0", "atom_type": "Cd"}, "15": {"label": "*1", "atom_type": "Cs"}}

>  <type>  (6) 
unop_2

>  <geom_source>  (6) 
Heuristics

$$$$

     RDKit          3D

 25 23  0  0  0  0  0  0  0  0999 V2000
   -0.1517    1.4550   -3.0568 C   0  0  0  0  0  0  0  0  0  0  0  0
   -0.1517    1.4550   -1.8587 C   0  0  0  0  0  0  0  0  0  0  0  0
   -0.1517    1.4789   -0.3949 C   0  0  0  0  0  0  0  0  0  0  0  0
   -1.4178    2.1554    0.1394 C   0  0  0  0  0  0  0  0  0  0  0  0
    1.1144    2.1553    0.1394 C   0  0  0  0  0  0  0  0  0  0  0  0
   -0.1517    1.4550   -4.1201 H   0  0  0  0  0  0  0  0  0  0  0  0
   -0.1517    0.2302    0.0130 H   0  0  0  0  0  0  0  0  0  0  0  0
   -2.3149    1.6561   -0.2265 H   0  0  0  0  0  0  0  0  0  0  0  0
   -1.4552    3.1989   -0.1781 H   0  0  0  0  0  0  0  0  0  0  0  0
   -1.4252    2.1274    1.2305 H   0  0  0  0  0  0  0  0  0  0  0  0
    1.1518    3.1988   -0.1781 H   0  0  0  0  0  0  0  0  0  0  0  0
    2.0115    1.6560   -0.2265 H   0  0  0  0  0  0  0  0  0  0  0  0
    1.1218    2.1273    1.2305 H   0  0  0  0  0  0  0  0  0  0  0  0
   -0.0339   -1.0444    2.9207 C   0  0  0  0  0  0  0  0  0  0  0  0
    0.5555   -1.1038    1.7374 C   0  0  0  0  0  0  0  0  0  0  0  0
   -0.1517   -1.0203    0.4215 C   0  0  0  0  0  3  0  0  0  0  0  0
   -0.0284   -2.2469   -0.4410 C   0  0  0  0  0  0  0  0  0  0  0  0
    0.4541   -3.4194   -0.0608 C   0  0  0  0  0  0  0  0  0  0  0  0
    0.5347   -1.1027    3.8403 H   0  0  0  0  0  0  0  0  0  0  0  0
   -1.1091   -0.9332    3.0125 H   0  0  0  0  0  0  0  0  0  0  0  0
    1.6346   -1.2246    1.6876 H   0  0  0  0  0  0  0  0  0  0  0  0
   -1.2133   -0.8038    0.5813 H   0  0  0  0  0  0  0  0  0  0  0  0
   -0.3851   -2.1301   -1.4607 H   0  0  0  0  0  0  0  0  0  0  0  0
    0.4994   -4.2545   -0.7482 H   0  0  0  0  0  0  0  0  0  0  0  0
    0.8124   -3.5895    0.9479 H   0  0  0  0  0  0  0  0  0  0  0  0
  1  2  3  0
  1  6  1  0
  2  3  1  0
  3  4  1  0
  3  5  1  0
  3  7  1  0
  4  8  1  0
  4  9  1  0
  4 10  1  0
  5 11  1  0
  5 12  1  0
  5 13  1  0
 14 15  2  3
 14 19  1  0
 14 20  1  0
 15 16  1  0
 15 21  1  0
 16 17  1  0
 16 22  1  0
 17 18  2  3
 17 23  1  0
 18 24  1  0
 18 25  1  0
M  RAD  1  16   2
M  END
>  <reaction>  (7) 
rxn_1309

>  <mol_properties>  (7) 
{"1": {"label": "*4", "atom_type": "Ct"}, "2": {"label": "*3", "atom_type": "Cs"}, "6": {"label": "*2", "atom_type": "H0"}, "14": {"label": "*0", "atom_type": "Cd"}, "15": {"label": "*1", "atom_type": "Cs"}}

>  <type>  (7) 
unop_3

>  <geom_source>  (7) 
Heuristics

$$$$

     RDKit          3D

 25 23  0  0  0  0  0  0  0  0999 V2000
    0.3972    1.2310   -3.0293 C   0  0  0  0  0  0  0  0  0  0  0  0
    0.3972    1.2310   -1.8312 C   0  0  0  0  0  0  0  0  0  0  0  0
    0.3972    1.2549   -0.3674 C   0  0  0  0  0  0  0  0  0  0  0  0
   -0.8689    1.9314    0.1669 C   0  0  0  0  0  0  0  0  0  0  0  0
    1.6633    1.9314    0.1669 C   0  0  0  0  0  0  0  0  0  0  0  0
    0.3972    1.2310   -4.0927 H   0  0  0  0  0  0  0  0  0  0  0  0
    0.3972    0.0063    0.0404 H   0  0  0  0  0  0  0  0  0  0  0  0
   -1.7660    1.4321   -0.1990 H   0  0  0  0  0  0  0  0  0  0  0  0
   -0.9063    2.9749   -0.1506 H   0  0  0  0  0  0  0  0  0  0  0  0
   -0.8763    1.9034    1.2580 H   0  0  0  0  0  0  0  0  0  0  0  0
    1.7007    2.9749   -0.1506 H   0  0  0  0  0  0  0  0  0  0  0  0
    2.5604    1.4320   -0.1990 H   0  0  0  0  0  0  0  0  0  0  0  0
    1.6706    1.9034    1.2580 H   0  0  0  0  0  0  0  0  0  0  0  0
   -0.9281   -3.2247   -0.3139 C   0  0  0  0  0  0  0  0  0  0  0  0
   -0.8278   -1.9277   -0.0718 C   0  0  0  0  0  0  0  0  0  0  0  0
    0.3971   -1.2442    0.4489 C   0  0  0  0  0  3  0  0  0  0  0  0
    0.2297   -0.5826    1.7898 C   0  0  0  0  0  0  0  0  0  0  0  0
   -0.8024   -0.7289    2.6056 C   0  0  0  0  0  0  0  0  0  0  0  0
   -1.8416   -3.6602   -0.6990 H   0  0  0  0  0  0  0  0  0  0  0  0
   -0.0972   -3.8994   -0.1369 H   0  0  0  0  0  0  0  0  0  0  0  0
   -1.6862   -1.2861   -0.2539 H   0  0  0  0  0  0  0  0  0  0  0  0
    1.2265   -1.9571    0.5058 H   0  0  0  0  0  0  0  0  0  0  0  0
    1.0520    0.0604    2.0914 H   0  0  0  0  0  0  0  0  0  0  0  0
   -0.8374   -0.2184    3.5595 H   0  0  0  0  0  0  0  0  0  0  0  0
   -1.6421   -1.3670    2.3552 H   0  0  0  0  0  0  0  0  0  0  0  0
  1  2  3  0
  1  6  1  0
  2  3  1  0
  3  4  1  0
  3  5  1  0
  3  7  1  0
  4  8  1  0
  4  9  1  0
  4 10  1  0
  5 11  1  0
  5 12  1  0
  5 13  1  0
 14 15  2  3
 14 19  1  0
 14 20  1  0
 15 16  1  0
 15 21  1  0
 16 17  1  0
 16 22  1  0
 17 18  2  3
 17 23  1  0
 18 24  1  0
 18 25  1  0
M  RAD  1  16   2
M  END
>  <reaction>  (8) 
rxn_1309

>  <mol_properties>  (8) 
{"1": {"label": "*4", "atom_type": "Ct"}, "2": {"label": "*3", "atom_type": "Cs"}, "6": {"label": "*2", "atom_type": "H0"}, "14": {"label": "*0", "atom_type": "Cd"}, "15": {"label": "*1", "atom_type": "Cs"}}

>  <type>  (8) 
unop_4

>  <geom_source>  (8) 
Heuristics

$$$$

     RDKit          3D

 25 23  0  0  0  0  0  0  0  0999 V2000
   -0.2272    1.3641   -3.1143 C   0  0  0  0  0  0  0  0  0  0  0  0
   -0.2272    1.3641   -1.9162 C   0  0  0  0  0  0  0  0  0  0  0  0
   -0.2272    1.3880   -0.4524 C   0  0  0  0  0  0  0  0  0  0  0  0
   -1.4933    2.0645    0.0820 C   0  0  0  0  0  0  0  0  0  0  0  0
    1.0389    2.0645    0.0820 C   0  0  0  0  0  0  0  0  0  0  0  0
   -0.2272    1.3641   -4.1776 H   0  0  0  0  0  0  0  0  0  0  0  0
   -0.2273    0.1394   -0.0445 H   0  0  0  0  0  0  0  0  0  0  0  0
   -2.3904    1.5652   -0.2840 H   0  0  0  0  0  0  0  0  0  0  0  0
   -1.5307    3.1080   -0.2356 H   0  0  0  0  0  0  0  0  0  0  0  0
   -1.5007    2.0365    1.1730 H   0  0  0  0  0  0  0  0  0  0  0  0
    1.0763    3.1080   -0.2356 H   0  0  0  0  0  0  0  0  0  0  0  0
    1.9359    1.5651   -0.2840 H   0  0  0  0  0  0  0  0  0  0  0  0
    1.0462    2.0365    1.1730 H   0  0  0  0  0  0  0  0  0  0  0  0
   -1.1562   -1.7071    2.6095 C   0  0  0  0  0  0  0  0  0  0  0  0
   -0.2273   -1.1358    1.8600 C   0  0  0  0  0  0  0  0  0  0  0  0
   -0.2273   -1.1111    0.3640 C   0  0  0  0  0  3  0  0  0  0  0  0
    0.9392   -1.8106   -0.2794 C   0  0  0  0  0  0  0  0  0  0  0  0
    1.8128   -2.5919    0.3357 C   0  0  0  0  0  0  0  0  0  0  0  0
   -1.1047   -1.6844    3.6909 H   0  0  0  0  0  0  0  0  0  0  0  0
   -2.0049   -2.2180    2.1674 H   0  0  0  0  0  0  0  0  0  0  0  0
    0.6126   -0.6413    2.3413 H   0  0  0  0  0  0  0  0  0  0  0  0
   -1.1568   -1.5475   -0.0164 H   0  0  0  0  0  0  0  0  0  0  0  0
    1.0408   -1.6469   -1.3487 H   0  0  0  0  0  0  0  0  0  0  0  0
    2.6213   -3.0632   -0.2087 H   0  0  0  0  0  0  0  0  0  0  0  0
    1.7483   -2.7947    1.3985 H   0  0  0  0  0  0  0  0  0  0  0  0
  1  2  3  0
  1  6  1  0
  2  3  1  0
  3  4  1  0
  3  5  1  0
  3  7  1  0
  4  8  1  0
  4  9  1  0
  4 10  1  0
  5 11  1  0
  5 12  1  0
  5 13  1  0
 14 15  2  3
 14 19  1  0
 14 20  1  0
 15 16  1  0
 15 21  1  0
 16 17  1  0
 16 22  1  0
 17 18  2  3
 17 23  1  0
 18 24  1  0
 18 25  1  0
M  RAD  1  16   2
M  END
>  <reaction>  (9) 
rxn_1309

>  <mol_properties>  (9) 
{"1": {"label": "*4", "atom_type": "Ct"}, "2": {"label": "*3", "atom_type": "Cs"}, "6": {"label": "*2", "atom_type": "H0"}, "14": {"label": "*0", "atom_type": "Cd"}, "15": {"label": "*1", "atom_type": "Cs"}}

>  <type>  (9) 
unop_5

>  <geom_source>  (9) 
Heuristics

$$$$

     RDKit          3D

 25 23  0  0  0  0  0  0  0  0999 V2000
    0.2744    1.1327   -3.1961 C   0  0  0  0  0  0  0  0  0  0  0  0
    0.2744    1.1327   -1.9980 C   0  0  0  0  0  0  0  0  0  0  0  0
    0.2744    1.1567   -0.5342 C   0  0  0  0  0  0  0  0  0  0  0  0
   -0.9917    1.8332    0.0001 C   0  0  0  0  0  0  0  0  0  0  0  0
    1.5405    1.8331    0.0001 C   0  0  0  0  0  0  0  0  0  0  0  0
    0.2744    1.1327   -4.2594 H   0  0  0  0  0  0  0  0  0  0  0  0
    0.2744   -0.0920   -0.1263 H   0  0  0  0  0  0  0  0  0  0  0  0
   -1.8888    1.3339   -0.3658 H   0  0  0  0  0  0  0  0  0  0  0  0
   -1.0291    2.8767   -0.3174 H   0  0  0  0  0  0  0  0  0  0  0  0
   -0.9991    1.8052    1.0912 H   0  0  0  0  0  0  0  0  0  0  0  0
    1.5779    2.8766   -0.3174 H   0  0  0  0  0  0  0  0  0  0  0  0
    2.4376    1.3338   -0.3658 H   0  0  0  0  0  0  0  0  0  0  0  0
    1.5479    1.8051    1.0912 H   0  0  0  0  0  0  0  0  0  0  0  0
   -1.5255   -3.0720    0.4541 C   0  0  0  0  0  0  0  0  0  0  0  0
   -1.1401   -1.8063    0.4337 C   0  0  0  0  0  0  0  0  0  0  0  0
    0.2744   -1.3425    0.2821 C   0  0  0  0  0  3  0  0  0  0  0  0
    0.8137   -0.5666    1.4530 C   0  0  0  0  0  0  0  0  0  0  0  0
    0.2375   -0.4477    2.6388 C   0  0  0  0  0  0  0  0  0  0  0  0
   -2.5681   -3.3452    0.5588 H   0  0  0  0  0  0  0  0  0  0  0  0
   -0.8105   -3.8829    0.3647 H   0  0  0  0  0  0  0  0  0  0  0  0
   -1.8866   -1.0227    0.5351 H   0  0  0  0  0  0  0  0  0  0  0  0
    0.9296   -2.1990    0.0916 H   0  0  0  0  0  0  0  0  0  0  0  0
    1.7690   -0.0786    1.2807 H   0  0  0  0  0  0  0  0  0  0  0  0
    0.7015    0.1266    3.4304 H   0  0  0  0  0  0  0  0  0  0  0  0
   -0.7099   -0.9239    2.8635 H   0  0  0  0  0  0  0  0  0  0  0  0
  1  2  3  0
  1  6  1  0
  2  3  1  0
  3  4  1  0
  3  5  1  0
  3  7  1  0
  4  8  1  0
  4  9  1  0
  4 10  1  0
  5 11  1  0
  5 12  1  0
  5 13  1  0
 14 15  2  3
 14 19  1  0
 14 20  1  0
 15 16  1  0
 15 21  1  0
 16 17  1  0
 16 22  1  0
 17 18  2  3
 17 23  1  0
 18 24  1  0
 18 25  1  0
M  RAD  1  16   2
M  END
>  <reaction>  (10) 
rxn_1309

>  <mol_properties>  (10) 
{"1": {"label": "*4", "atom_type": "Ct"}, "2": {"label": "*3", "atom_type": "Cs"}, "6": {"label": "*2", "atom_type": "H0"}, "14": {"label": "*0", "atom_type": "Cd"}, "15": {"label": "*1", "atom_type": "Cs"}}

>  <type>  (10) 
unop_6

>  <geom_source>  (10) 
Heuristics

$$$$

     RDKit          3D

 25 23  0  0  0  0  0  0  0  0999 V2000
    0.0591    1.1056   -3.2811 C   0  0  0  0  0  0  0  0  0  0  0  0
    0.0591    1.1056   -2.0830 C   0  0  0  0  0  0  0  0  0  0  0  0
    0.0591    1.1295   -0.6192 C   0  0  0  0  0  0  0  0  0  0  0  0
   -1.2070    1.8060   -0.0848 C   0  0  0  0  0  0  0  0  0  0  0  0
    1.3252    1.8059   -0.0848 C   0  0  0  0  0  0  0  0  0  0  0  0
    0.0591    1.1056   -4.3444 H   0  0  0  0  0  0  0  0  0  0  0  0
    0.0591   -0.1191   -0.2113 H   0  0  0  0  0  0  0  0  0  0  0  0
   -2.1041    1.3067   -0.4507 H   0  0  0  0  0  0  0  0  0  0  0  0
   -1.2444    2.8495   -0.4023 H   0  0  0  0  0  0  0  0  0  0  0  0
   -1.2144    1.7780    1.0062 H   0  0  0  0  0  0  0  0  0  0  0  0
    1.3626    2.8495   -0.4023 H   0  0  0  0  0  0  0  0  0  0  0  0
    2.2223    1.3066   -0.4507 H   0  0  0  0  0  0  0  0  0  0  0  0
    1.3325    1.7779    1.0062 H   0  0  0  0  0  0  0  0  0  0  0  0
   -1.6875   -2.8041    1.2707 C   0  0  0  0  0  0  0  0  0  0  0  0
   -1.1659   -1.6139    1.0210 C   0  0  0  0  0  0  0  0  0  0  0  0
    0.0590   -1.3696    0.1972 C   0  0  0  0  0  3  0  0  0  0  0  0
    1.2038   -0.7358    0.9399 C   0  0  0  0  0  0  0  0  0  0  0  0
    1.2874   -0.5777    2.2514 C   0  0  0  0  0  0  0  0  0  0  0  0
   -2.5829   -2.9160    1.8692 H   0  0  0  0  0  0  0  0  0  0  0  0
   -1.2375   -3.7119    0.8831 H   0  0  0  0  0  0  0  0  0  0  0  0
   -1.6417   -0.7286    1.4352 H   0  0  0  0  0  0  0  0  0  0  0  0
    0.4020   -2.3090   -0.2492 H   0  0  0  0  0  0  0  0  0  0  0  0
    2.0252   -0.3955    0.3153 H   0  0  0  0  0  0  0  0  0  0  0  0
    2.1552   -0.1155    2.7044 H   0  0  0  0  0  0  0  0  0  0  0  0
    0.4996   -0.9097    2.9179 H   0  0  0  0  0  0  0  0  0  0  0  0
  1  2  3  0
  1  6  1  0
  2  3  1  0
  3  4  1  0
  3  5  1  0
  3  7  1  0
  4  8  1  0
  4  9  1  0
  4 10  1  0
  5 11  1  0
  5 12  1  0
  5 13  1  0
 14 15  2  3
 14 19  1  0
 14 20  1  0
 15 16  1  0
 15 21  1  0
 16 17  1  0
 16 22  1  0
 17 18  2  3
 17 23  1  0
 18 24  1  0
 18 25  1  0
M  RAD  1  16   2
M  END
>  <reaction>  (11) 
rxn_1309

>  <mol_properties>  (11) 
{"1": {"label": "*4", "atom_type": "Ct"}, "2": {"label": "*3", "atom_type": "Cs"}, "6": {"label": "*2", "atom_type": "H0"}, "14": {"label": "*0", "atom_type": "Cd"}, "15": {"label": "*1", "atom_type": "Cs"}}

>  <type>  (11) 
unop_7

>  <geom_source>  (11) 
Heuristics

$$$$

     RDKit          3D

 25 23  0  0  0  0  0  0  0  0999 V2000
   -0.1815    1.4987   -2.9430 C   0  0  0  0  0  0  0  0  0  0  0  0
   -0.1815    1.4987   -1.7449 C   0  0  0  0  0  0  0  0  0  0  0  0
   -0.1815    1.5226   -0.2811 C   0  0  0  0  0  0  0  0  0  0  0  0
   -1.4476    2.1991    0.2532 C   0  0  0  0  0  0  0  0  0  0  0  0
    1.0847    2.1990    0.2532 C   0  0  0  0  0  0  0  0  0  0  0  0
   -0.1815    1.4987   -4.0064 H   0  0  0  0  0  0  0  0  0  0  0  0
   -0.1815    0.2740    0.1267 H   0  0  0  0  0  0  0  0  0  0  0  0
   -2.3446    1.6998   -0.1127 H   0  0  0  0  0  0  0  0  0  0  0  0
   -1.4849    3.2426   -0.0643 H   0  0  0  0  0  0  0  0  0  0  0  0
   -1.4549    2.1711    1.3443 H   0  0  0  0  0  0  0  0  0  0  0  0
    1.1220    3.2426   -0.0643 H   0  0  0  0  0  0  0  0  0  0  0  0
    1.9817    1.6997   -0.1127 H   0  0  0  0  0  0  0  0  0  0  0  0
    1.0920    2.1710    1.3443 H   0  0  0  0  0  0  0  0  0  0  0  0
    1.9980   -1.2105    1.7416 C   0  0  0  0  0  0  0  0  0  0  0  0
    1.2329   -1.4404    0.6868 C   0  0  0  0  0  0  0  0  0  0  0  0
   -0.1815   -0.9766    0.5352 C   0  0  0  0  0  3  0  0  0  0  0  0
   -1.1976   -2.0788    0.4070 C   0  0  0  0  0  0  0  0  0  0  0  0
   -0.9786   -3.3668    0.6198 C   0  0  0  0  0  0  0  0  0  0  0  0
    3.0195   -1.5665    1.7890 H   0  0  0  0  0  0  0  0  0  0  0  0
    1.6299   -0.6548    2.5975 H   0  0  0  0  0  0  0  0  0  0  0  0
    1.6362   -2.0092   -0.1472 H   0  0  0  0  0  0  0  0  0  0  0  0
   -0.4568   -0.3363    1.3799 H   0  0  0  0  0  0  0  0  0  0  0  0
   -2.1945   -1.7545    0.1215 H   0  0  0  0  0  0  0  0  0  0  0  0
   -1.7730   -4.0941    0.5111 H   0  0  0  0  0  0  0  0  0  0  0  0
   -0.0047   -3.7390    0.9164 H   0  0  0  0  0  0  0  0  0  0  0  0
  1  2  3  0
  1  6  1  0
  2  3  1  0
  3  4  1  0
  3  5  1  0
  3  7  1  0
  4  8  1  0
  4  9  1  0
  4 10  1  0
  5 11  1  0
  5 12  1  0
  5 13  1  0
 14 15  2  3
 14 19  1  0
 14 20  1  0
 15 16  1  0
 15 21  1  0
 16 17  1  0
 16 22  1  0
 17 18  2  3
 17 23  1  0
 18 24  1  0
 18 25  1  0
M  RAD  1  16   2
M  END
>  <reaction>  (12) 
rxn_1309

>  <mol_properties>  (12) 
{"1": {"label": "*4", "atom_type": "Ct"}, "2": {"label": "*3", "atom_type": "Cs"}, "6": {"label": "*2", "atom_type": "H0"}, "14": {"label": "*0", "atom_type": "Cd"}, "15": {"label": "*1", "atom_type": "Cs"}}

>  <type>  (12) 
unop_8

>  <geom_source>  (12) 
Heuristics

$$$$

     RDKit          3D

 25 23  0  0  0  0  0  0  0  0999 V2000
    0.3819    1.3678   -2.8439 C   0  0  0  0  0  0  0  0  0  0  0  0
    0.3819    1.3678   -1.6458 C   0  0  0  0  0  0  0  0  0  0  0  0
    0.3819    1.3918   -0.1820 C   0  0  0  0  0  0  0  0  0  0  0  0
   -0.8842    2.0682    0.3523 C   0  0  0  0  0  0  0  0  0  0  0  0
    1.6481    2.0682    0.3523 C   0  0  0  0  0  0  0  0  0  0  0  0
    0.3819    1.3678   -3.9073 H   0  0  0  0  0  0  0  0  0  0  0  0
    0.3819    0.1431    0.2258 H   0  0  0  0  0  0  0  0  0  0  0  0
   -1.7812    1.5689   -0.0136 H   0  0  0  0  0  0  0  0  0  0  0  0
   -0.9215    3.1118    0.0348 H   0  0  0  0  0  0  0  0  0  0  0  0
   -0.8915    2.0402    1.4434 H   0  0  0  0  0  0  0  0  0  0  0  0
    1.6854    3.1117    0.0348 H   0  0  0  0  0  0  0  0  0  0  0  0
    2.5451    1.5689   -0.0136 H   0  0  0  0  0  0  0  0  0  0  0  0
    1.6554    2.0402    1.4434 H   0  0  0  0  0  0  0  0  0  0  0  0
    0.0635   -3.1550   -0.7680 C   0  0  0  0  0  0  0  0  0  0  0  0
   -0.3253   -1.9516   -0.3785 C   0  0  0  0  0  0  0  0  0  0  0  0
    0.3819   -1.1074    0.6343 C   0  0  0  0  0  3  0  0  0  0  0  0
   -0.4201   -0.7971    1.8690 C   0  0  0  0  0  0  0  0  0  0  0  0
   -1.5687   -1.3587    2.2116 C   0  0  0  0  0  0  0  0  0  0  0  0
   -0.4877   -3.7150   -1.5130 H   0  0  0  0  0  0  0  0  0  0  0  0
    0.9506   -3.6241   -0.3559 H   0  0  0  0  0  0  0  0  0  0  0  0
   -1.2252   -1.5197   -0.8091 H   0  0  0  0  0  0  0  0  0  0  0  0
    1.3197   -1.5883    0.9316 H   0  0  0  0  0  0  0  0  0  0  0  0
    0.0145   -0.0462    2.5231 H   0  0  0  0  0  0  0  0  0  0  0  0
   -2.0765   -1.0794    3.1259 H   0  0  0  0  0  0  0  0  0  0  0  0
   -2.0374   -2.1198    1.5985 H   0  0  0  0  0  0  0  0  0  0  0  0
  1  2  3  0
  1  6  1  0
  2  3  1  0
  3  4  1  0
  3  5  1  0
  3  7  1  0
  4  8  1  0
  4  9  1  0
  4 10  1  0
  5 11  1  0
  5 12  1  0
  5 13  1  0
 14 15  2  3
 14 19  1  0
 14 20  1  0
 15 16  1  0
 15 21  1  0
 16 17  1  0
 16 22  1  0
 17 18  2  3
 17 23  1  0
 18 24  1  0
 18 25  1  0
M  RAD  1  16   2
M  END
>  <reaction>  (13) 
rxn_1309

>  <mol_properties>  (13) 
{"1": {"label": "*4", "atom_type": "Ct"}, "2": {"label": "*3", "atom_type": "Cs"}, "6": {"label": "*2", "atom_type": "H0"}, "14": {"label": "*0", "atom_type": "Cd"}, "15": {"label": "*1", "atom_type": "Cs"}}

>  <type>  (13) 
unop_9

>  <geom_source>  (13) 
Heuristics

$$$$

     RDKit          3D

 25 23  0  0  0  0  0  0  0  0999 V2000
   -0.1363    1.5371   -2.8176 C   0  0  0  0  0  0  0  0  0  0  0  0
   -0.1363    1.5371   -1.6195 C   0  0  0  0  0  0  0  0  0  0  0  0
   -0.1363    1.5611   -0.1557 C   0  0  0  0  0  0  0  0  0  0  0  0
   -1.4024    2.2375    0.3786 C   0  0  0  0  0  0  0  0  0  0  0  0
    1.1298    2.2375    0.3786 C   0  0  0  0  0  0  0  0  0  0  0  0
   -0.1363    1.5371   -3.8809 H   0  0  0  0  0  0  0  0  0  0  0  0
   -0.1363    0.3124    0.2522 H   0  0  0  0  0  0  0  0  0  0  0  0
   -2.2995    1.7382    0.0127 H   0  0  0  0  0  0  0  0  0  0  0  0
   -1.4398    3.2810    0.0611 H   0  0  0  0  0  0  0  0  0  0  0  0
   -1.4098    2.2095    1.4697 H   0  0  0  0  0  0  0  0  0  0  0  0
    1.1672    3.2810    0.0611 H   0  0  0  0  0  0  0  0  0  0  0  0
    2.0269    1.7382    0.0127 H   0  0  0  0  0  0  0  0  0  0  0  0
    1.1371    2.2095    1.4697 H   0  0  0  0  0  0  0  0  0  0  0  0
    2.2549   -1.6674    0.7633 C   0  0  0  0  0  0  0  0  0  0  0  0
    1.0886   -1.6216    0.1399 C   0  0  0  0  0  0  0  0  0  0  0  0
   -0.1364   -0.9381    0.6607 C   0  0  0  0  0  3  0  0  0  0  0  0
   -1.3076   -1.8477    0.9147 C   0  0  0  0  0  0  0  0  0  0  0  0
   -1.2783   -3.1711    0.9165 C   0  0  0  0  0  0  0  0  0  0  0  0
    3.1093   -2.1722    0.3302 H   0  0  0  0  0  0  0  0  0  0  0  0
    2.3982   -1.1987    1.7311 H   0  0  0  0  0  0  0  0  0  0  0  0
    0.9830   -2.1114   -0.8247 H   0  0  0  0  0  0  0  0  0  0  0  0
    0.1011   -0.3987    1.5836 H   0  0  0  0  0  0  0  0  0  0  0  0
   -2.2466   -1.3417    1.1216 H   0  0  0  0  0  0  0  0  0  0  0  0
   -2.1711   -3.7495    1.1172 H   0  0  0  0  0  0  0  0  0  0  0  0
   -0.3645   -3.7222    0.7263 H   0  0  0  0  0  0  0  0  0  0  0  0
  1  2  3  0
  1  6  1  0
  2  3  1  0
  3  4  1  0
  3  5  1  0
  3  7  1  0
  4  8  1  0
  4  9  1  0
  4 10  1  0
  5 11  1  0
  5 12  1  0
  5 13  1  0
 14 15  2  3
 14 19  1  0
 14 20  1  0
 15 16  1  0
 15 21  1  0
 16 17  1  0
 16 22  1  0
 17 18  2  3
 17 23  1  0
 18 24  1  0
 18 25  1  0
M  RAD  1  16   2
M  END
>  <reaction>  (14) 
rxn_1309

>  <mol_properties>  (14) 
{"1": {"label": "*4", "atom_type": "Ct"}, "2": {"label": "*3", "atom_type": "Cs"}, "6": {"label": "*2", "atom_type": "H0"}, "14": {"label": "*0", "atom_type": "Cd"}, "15": {"label": "*1", "atom_type": "Cs"}}

>  <type>  (14) 
unop_10

>  <geom_source>  (14) 
Heuristics

$$$$

     RDKit          3D

 25 23  0  0  0  0  0  0  0  0999 V2000
   -0.1632    1.1855   -3.2432 C   0  0  0  0  0  0  0  0  0  0  0  0
   -0.1632    1.1855   -2.0451 C   0  0  0  0  0  0  0  0  0  0  0  0
   -0.1632    1.2094   -0.5813 C   0  0  0  0  0  0  0  0  0  0  0  0
   -1.4293    1.8859   -0.0470 C   0  0  0  0  0  0  0  0  0  0  0  0
    1.1029    1.8858   -0.0470 C   0  0  0  0  0  0  0  0  0  0  0  0
   -0.1632    1.1855   -4.3065 H   0  0  0  0  0  0  0  0  0  0  0  0
   -0.1633   -0.0392   -0.1734 H   0  0  0  0  0  0  0  0  0  0  0  0
   -2.3264    1.3866   -0.4129 H   0  0  0  0  0  0  0  0  0  0  0  0
   -1.4667    2.9294   -0.3645 H   0  0  0  0  0  0  0  0  0  0  0  0
   -1.4367    1.8579    1.0441 H   0  0  0  0  0  0  0  0  0  0  0  0
    1.1403    2.9294   -0.3645 H   0  0  0  0  0  0  0  0  0  0  0  0
    1.9999    1.3865   -0.4129 H   0  0  0  0  0  0  0  0  0  0  0  0
    1.1102    1.8578    1.0441 H   0  0  0  0  0  0  0  0  0  0  0  0
   -1.5687   -2.4153    1.9724 C   0  0  0  0  0  0  0  0  0  0  0  0
   -0.8705   -1.3732    1.5510 C   0  0  0  0  0  0  0  0  0  0  0  0
   -0.1633   -1.2898    0.2351 C   0  0  0  0  0  3  0  0  0  0  0  0
    1.3302   -1.1333    0.3293 C   0  0  0  0  0  0  0  0  0  0  0  0
    2.0586   -1.2697    1.4260 C   0  0  0  0  0  0  0  0  0  0  0  0
   -2.0659   -2.4126    2.9343 H   0  0  0  0  0  0  0  0  0  0  0  0
   -1.6699   -3.3106    1.3682 H   0  0  0  0  0  0  0  0  0  0  0  0
   -0.7855   -0.4981    2.1901 H   0  0  0  0  0  0  0  0  0  0  0  0
   -0.3902   -2.1756   -0.3674 H   0  0  0  0  0  0  0  0  0  0  0  0
    1.8278   -0.8959   -0.6070 H   0  0  0  0  0  0  0  0  0  0  0  0
    3.1338   -1.1462    1.4017 H   0  0  0  0  0  0  0  0  0  0  0  0
    1.6109   -1.5163    2.3819 H   0  0  0  0  0  0  0  0  0  0  0  0
  1  2  3  0
  1  6  1  0
  2  3  1  0
  3  4  1  0
  3  5  1  0
  3  7  1  0
  4  8  1  0
  4  9  1  0
  4 10  1  0
  5 11  1  0
  5 12  1  0
  5 13  1  0
 14 15  2  3
 14 19  1  0
 14 20  1  0
 15 16  1  0
 15 21  1  0
 16 17  1  0
 16 22  1  0
 17 18  2  3
 17 23  1  0
 18 24  1  0
 18 25  1  0
M  RAD  1  16   2
M  END
>  <reaction>  (15) 
rxn_1309

>  <mol_properties>  (15) 
{"1": {"label": "*4", "atom_type": "Ct"}, "2": {"label": "*3", "atom_type": "Cs"}, "6": {"label": "*2", "atom_type": "H0"}, "14": {"label": "*0", "atom_type": "Cd"}, "15": {"label": "*1", "atom_type": "Cs"}}

>  <type>  (15) 
unop_11

>  <geom_source>  (15) 
Heuristics

$$$$

     RDKit          3D

 25 23  0  0  0  0  0  0  0  0999 V2000
    0.2273    1.4928   -2.7202 C   0  0  0  0  0  0  0  0  0  0  0  0
    0.2273    1.4928   -1.5221 C   0  0  0  0  0  0  0  0  0  0  0  0
    0.2273    1.5168   -0.0583 C   0  0  0  0  0  0  0  0  0  0  0  0
   -1.0388    2.1932    0.4760 C   0  0  0  0  0  0  0  0  0  0  0  0
    1.4934    2.1932    0.4760 C   0  0  0  0  0  0  0  0  0  0  0  0
    0.2273    1.4928   -3.7835 H   0  0  0  0  0  0  0  0  0  0  0  0
    0.2273    0.2681    0.3496 H   0  0  0  0  0  0  0  0  0  0  0  0
   -1.9359    1.6939    0.1101 H   0  0  0  0  0  0  0  0  0  0  0  0
   -1.0762    3.2367    0.1585 H   0  0  0  0  0  0  0  0  0  0  0  0
   -1.0462    2.1652    1.5671 H   0  0  0  0  0  0  0  0  0  0  0  0
    1.5308    3.2367    0.1585 H   0  0  0  0  0  0  0  0  0  0  0  0
    2.3904    1.6939    0.1101 H   0  0  0  0  0  0  0  0  0  0  0  0
    1.5007    2.1652    1.5671 H   0  0  0  0  0  0  0  0  0  0  0  0
    1.1561   -2.7891   -0.7026 C   0  0  0  0  0  0  0  0  0  0  0  0
    0.2272   -1.8855   -0.4349 C   0  0  0  0  0  0  0  0  0  0  0  0
    0.2272   -0.9824    0.7581 C   0  0  0  0  0  3  0  0  0  0  0  0
   -0.9392   -1.1672    1.6903 C   0  0  0  0  0  0  0  0  0  0  0  0
   -1.8129   -2.1609    1.6550 C   0  0  0  0  0  0  0  0  0  0  0  0
    1.1046   -3.4091   -1.5888 H   0  0  0  0  0  0  0  0  0  0  0  0
    2.0048   -2.9405   -0.0442 H   0  0  0  0  0  0  0  0  0  0  0  0
   -0.6127   -1.7704   -1.1153 H   0  0  0  0  0  0  0  0  0  0  0  0
    1.1568   -1.1101    1.3227 H   0  0  0  0  0  0  0  0  0  0  0  0
   -1.0409   -0.4038    2.4568 H   0  0  0  0  0  0  0  0  0  0  0  0
   -2.6213   -2.2199    2.3726 H   0  0  0  0  0  0  0  0  0  0  0  0
   -1.7484   -2.9520    0.9169 H   0  0  0  0  0  0  0  0  0  0  0  0
  1  2  3  0
  1  6  1  0
  2  3  1  0
  3  4  1  0
  3  5  1  0
  3  7  1  0
  4  8  1  0
  4  9  1  0
  4 10  1  0
  5 11  1  0
  5 12  1  0
  5 13  1  0
 14 15  2  3
 14 19  1  0
 14 20  1  0
 15 16  1  0
 15 21  1  0
 16 17  1  0
 16 22  1  0
 17 18  2  3
 17 23  1  0
 18 24  1  0
 18 25  1  0
M  RAD  1  16   2
M  END
>  <reaction>  (16) 
rxn_1309

>  <mol_properties>  (16) 
{"1": {"label": "*4", "atom_type": "Ct"}, "2": {"label": "*3", "atom_type": "Cs"}, "6": {"label": "*2", "atom_type": "H0"}, "14": {"label": "*0", "atom_type": "Cd"}, "15": {"label": "*1", "atom_type": "Cs"}}

>  <type>  (16) 
unop_12

>  <geom_source>  (16) 
Heuristics

$$$$

     RDKit          3D

 25 23  0  0  0  0  0  0  0  0999 V2000
    1.0330   -0.1078    0.0573 C   0  0  0  0  0  3  0  0  0  0  0  0
   -1.8092   -1.2814   -1.1439 C   0  0  0  0  0  0  0  0  0  0  0  0
   -2.1664   -0.5519    1.2487 C   0  0  0  0  0  0  0  0  0  0  0  0
   -1.5879   -0.1745   -0.1142 C   0  0  0  0  0  0  0  0  0  0  0  0
    1.8336    0.3318   -1.1349 C   0  0  0  0  0  0  0  0  0  0  0  0
    1.4297    0.6635    1.2834 C   0  0  0  0  0  0  0  0  0  0  0  0
    3.0650   -0.1308   -1.3687 C   0  0  0  0  0  0  0  0  0  0  0  0
    2.5007    0.3325    2.0105 C   0  0  0  0  0  0  0  0  0  0  0  0
   -2.1637    1.0935   -0.5867 C   0  0  0  0  0  0  0  0  0  0  0  0
   -2.6349    2.1335   -0.9741 C   0  0  0  0  0  0  0  0  0  0  0  0
    1.1307   -1.2032    0.2238 H   0  0  0  0  0  0  0  0  0  0  0  0
   -0.3344    0.1658   -0.2086 H   0  0  0  0  0  0  0  0  0  0  0  0
   -2.8948   -1.4631   -1.3004 H   0  0  0  0  0  0  0  0  0  0  0  0
   -1.3314   -2.2214   -0.7961 H   0  0  0  0  0  0  0  0  0  0  0  0
   -1.3454   -0.9963   -2.1121 H   0  0  0  0  0  0  0  0  0  0  0  0
   -1.6912   -1.4865    1.6146 H   0  0  0  0  0  0  0  0  0  0  0  0
   -3.2653   -0.7063    1.1817 H   0  0  0  0  0  0  0  0  0  0  0  0
   -1.9570    0.2529    1.9852 H   0  0  0  0  0  0  0  0  0  0  0  0
    1.3922    1.0409   -1.8284 H   0  0  0  0  0  0  0  0  0  0  0  0
    0.8216    1.5094    1.5884 H   0  0  0  0  0  0  0  0  0  0  0  0
    3.5298   -0.8496   -0.7013 H   0  0  0  0  0  0  0  0  0  0  0  0
    3.6145    0.2067   -2.2413 H   0  0  0  0  0  0  0  0  0  0  0  0
    3.1223   -0.5149    1.7393 H   0  0  0  0  0  0  0  0  0  0  0  0
    2.7573    0.9107    2.8921 H   0  0  0  0  0  0  0  0  0  0  0  0
   -3.0487    3.0463   -1.3142 H   0  0  0  0  0  0  0  0  0  0  0  0
  1  5  1  0
  1  6  1  0
  1 11  1  0
  2  4  1  0
  2 13  1  0
  2 14  1  0
  2 15  1  0
  3  4  1  0
  3 16  1  0
  3 17  1  0
  3 18  1  0
  4  9  1  0
  4 12  1  0
  5  7  2  3
  5 19  1  0
  6  8  2  3
  6 20  1  0
  7 21  1  0
  7 22  1  0
  8 23  1  0
  8 24  1  0
  9 10  3  0
 10 25  1  0
M  RAD  1   1   2
M  END
>  <reaction>  (17) 
rxn_1309

>  <mol_properties>  (17) 
{"1": {"label": "*4", "atom_type": "Ct"}, "2": {"label": "*3", "atom_type": "Cs"}, "6": {"label": "*2", "atom_type": "H0"}, "14": {"label": "*0", "atom_type": "Cd"}, "15": {"label": "*1", "atom_type": "Cs"}}

>  <type>  (17) 
unop_13

>  <geom_source>  (17) 
AutoTST

$$$$
