
     RDKit          3D

 10  9  0  0  0  0  0  0  0  0999 V2000
   -1.1508    0.0666    0.2839 C   0  0  0  0  0  0  0  0  0  0  0  0
    0.1022   -0.3749   -0.4771 C   0  0  0  0  0  0  0  0  0  0  0  0
    1.3428    0.1620    0.1542 C   0  0  0  0  0  0  0  0  0  0  0  0
    2.5613   -0.6971    0.7526 S   0  0  0  0  0  0  0  0  0  0  0  0
   -1.2137    1.1546    0.3481 H   0  0  0  0  0  0  0  0  0  0  0  0
   -2.0472   -0.2935   -0.2212 H   0  0  0  0  0  0  0  0  0  0  0  0
   -1.1467   -0.3334    1.2987 H   0  0  0  0  0  0  0  0  0  0  0  0
    0.1602   -1.4616   -0.5369 H   0  0  0  0  0  0  0  0  0  0  0  0
    0.0536    0.0174   -1.4997 H   0  0  0  0  0  0  0  0  0  0  0  0
    1.3824    1.2528    0.2110 H   0  0  0  0  0  0  0  0  0  0  0  0
  1  2  1  0
  1  5  1  0
  1  6  1  0
  1  7  1  0
  2  3  1  0
  2  8  1  0
  2  9  1  0
  3  4  2  0
  3 10  1  0
M  END
>  <reaction>  (1) 
rxn_1998

>  <mol_properties>  (1) 
{"1": {"label": "donator", "atom_type": "Cs"}, "7": {"label": "d_hydrogen", "atom_type": "H0"}}

>  <type>  (1) 
r1h

$$$$

     RDKit          3D

 13 12  0  0  0  0  0  0  0  0999 V2000
   -1.3649   -0.5967   -0.3477 C   0  0  0  0  0  0  0  0  0  0  0  0
   -0.1601   -0.2776    0.4669 C   0  0  0  0  0  3  0  0  0  0  0  0
    1.1241   -0.9571    0.1414 C   0  0  0  0  0  0  0  0  0  0  0  0
   -0.1188    1.0130    1.2082 C   0  0  0  0  0  0  0  0  0  0  0  0
   -1.4265   -1.6632   -0.5770 H   0  0  0  0  0  0  0  0  0  0  0  0
   -2.2858   -0.3004    0.1602 H   0  0  0  0  0  0  0  0  0  0  0  0
   -1.3532   -0.0668   -1.3139 H   0  0  0  0  0  0  0  0  0  0  0  0
    1.6174   -0.4963   -0.7297 H   0  0  0  0  0  0  0  0  0  0  0  0
    0.9723   -2.0104   -0.1064 H   0  0  0  0  0  0  0  0  0  0  0  0
    1.8338   -0.8977    0.9701 H   0  0  0  0  0  0  0  0  0  0  0  0
   -1.0851    1.2507    1.6593 H   0  0  0  0  0  0  0  0  0  0  0  0
    0.6358    1.0009    1.9983 H   0  0  0  0  0  0  0  0  0  0  0  0
    0.1343    1.8546    0.5434 H   0  0  0  0  0  0  0  0  0  0  0  0
  1  2  1  0
  1  5  1  0
  1  6  1  0
  1  7  1  0
  2  3  1  0
  2  4  1  0
  3  8  1  0
  3  9  1  0
  3 10  1  0
  4 11  1  0
  4 12  1  0
  4 13  1  0
M  RAD  1   2   2
M  END
>  <reaction>  (2) 
rxn_1998

>  <mol_properties>  (2) 
{"1": {"label": "acceptor", "atom_type": "Cs"}}

>  <type>  (2) 
r2

$$$$

     RDKit          3D

 14 13  0  0  0  0  0  0  0  0999 V2000
   -0.7647   -1.2352   -0.0349 C   0  0  0  0  0  0  0  0  0  0  0  0
    0.0570   -0.0126    0.3624 C   0  0  0  0  0  0  0  0  0  0  0  0
    1.4161   -0.0194   -0.3307 C   0  0  0  0  0  0  0  0  0  0  0  0
   -0.7022    1.2765    0.0630 C   0  0  0  0  0  0  0  0  0  0  0  0
   -0.2387   -2.1618    0.2040 H   0  0  0  0  0  0  0  0  0  0  0  0
   -0.9624   -1.2315   -1.1108 H   0  0  0  0  0  0  0  0  0  0  0  0
   -1.7273   -1.2512    0.4805 H   0  0  0  0  0  0  0  0  0  0  0  0
    0.2295   -0.0590    1.4432 H   0  0  0  0  0  0  0  0  0  0  0  0
    1.2933    0.0259   -1.4168 H   0  0  0  0  0  0  0  0  0  0  0  0
    2.0206    0.8381   -0.0279 H   0  0  0  0  0  0  0  0  0  0  0  0
    1.9767   -0.9268   -0.0965 H   0  0  0  0  0  0  0  0  0  0  0  0
   -1.6638    1.3002    0.5800 H   0  0  0  0  0  0  0  0  0  0  0  0
   -0.8979    1.3663   -1.0096 H   0  0  0  0  0  0  0  0  0  0  0  0
   -0.1313    2.1545    0.3721 H   0  0  0  0  0  0  0  0  0  0  0  0
  1  2  1  0
  1  5  1  0
  1  6  1  0
  1  7  1  0
  2  3  1  0
  2  4  1  0
  2  8  1  0
  3  9  1  0
  3 10  1  0
  3 11  1  0
  4 12  1  0
  4 13  1  0
  4 14  1  0
M  END
>  <reaction>  (3) 
rxn_1998

>  <mol_properties>  (3) 
{"0": {"label": "a_hydrogen", "atom_type": "H0"}, "2": {"label": "acceptor", "atom_type": "Cs"}}

>  <type>  (3) 
r2h

$$$$

     RDKit          3D

 23 21  0  0  0  0  0  0  0  0999 V2000
    0.4628    0.1571   -2.3636 C   0  0  0  0  0  0  0  0  0  0  0  0
    1.2116   -0.0749   -1.0727 C   0  0  0  0  0  0  0  0  0  0  0  0
    1.6336    1.0578   -0.2770 C   0  0  0  0  0  0  0  0  0  0  0  0
    1.0388    2.5761   -0.3342 S   0  0  0  0  0  0  0  0  0  0  0  0
    1.1170    0.6047   -3.1147 H   0  0  0  0  0  0  0  0  0  0  0  0
    0.0823   -0.7857   -2.7596 H   0  0  0  0  0  0  0  0  0  0  0  0
   -0.3729    0.8393   -2.2115 H   0  0  0  0  0  0  0  0  0  0  0  0
    0.3924   -0.6578   -0.3295 H   0  0  0  0  0  0  0  0  0  0  0  0
    1.9886   -0.8384   -1.1450 H   0  0  0  0  0  0  0  0  0  0  0  0
    2.3935    0.8275    0.4708 H   0  0  0  0  0  0  0  0  0  0  0  0
   -1.8575   -0.4592    0.1217 C   0  0  0  0  0  0  0  0  0  0  0  0
   -0.6648   -1.2997    0.4711 C   0  0  0  0  0  3  0  0  0  0  0  0
   -0.0923   -1.0750    1.8393 C   0  0  0  0  0  0  0  0  0  0  0  0
   -0.6737   -2.7150   -0.0259 C   0  0  0  0  0  0  0  0  0  0  0  0
   -1.6542    0.6013    0.2846 H   0  0  0  0  0  0  0  0  0  0  0  0
   -2.1556   -0.5971   -0.9186 H   0  0  0  0  0  0  0  0  0  0  0  0
   -2.7146   -0.7317    0.7509 H   0  0  0  0  0  0  0  0  0  0  0  0
   -0.7896   -1.4249    2.6105 H   0  0  0  0  0  0  0  0  0  0  0  0
    0.0878   -0.0130    2.0215 H   0  0  0  0  0  0  0  0  0  0  0  0
    0.8470   -1.6147    1.9757 H   0  0  0  0  0  0  0  0  0  0  0  0
   -0.9346   -2.7648   -1.0848 H   0  0  0  0  0  0  0  0  0  0  0  0
    0.2963   -3.1956    0.1157 H   0  0  0  0  0  0  0  0  0  0  0  0
   -1.4162   -3.3101    0.5213 H   0  0  0  0  0  0  0  0  0  0  0  0
  1  2  1  0
  1  5  1  0
  1  6  1  0
  1  7  1  0
  2  3  1  0
  2  8  1  0
  2  9  1  0
  3  4  2  0
  3 10  1  0
 11 12  1  0
 11 15  1  0
 11 16  1  0
 11 17  1  0
 12 13  1  0
 12 14  1  0
 13 18  1  0
 13 19  1  0
 13 20  1  0
 14 21  1  0
 14 22  1  0
 14 23  1  0
M  RAD  1  12   2
M  END
>  <reaction>  (4) 
rxn_1998

>  <mol_properties>  (4) 
{"1": {"label": "*1", "atom_type": "Cs"}, "2": {"label": "*0", "atom_type": "CS"}, "7": {"label": "*2", "atom_type": "H0"}, "10": {"label": "*4", "atom_type": "Cs"}, "11": {"label": "*3", "atom_type": "Cs"}}

>  <type>  (4) 
ts

$$$$

     RDKit          3D

 23 21  0  0  0  0  0  0  0  0999 V2000
    1.2664   -0.0395   -2.3136 C   0  0  0  0  0  0  0  0  0  0  0  0
    1.2664   -0.0395   -0.7826 C   0  0  0  0  0  0  0  0  0  0  0  0
    1.2664    1.3487   -0.2359 C   0  0  0  0  0  0  0  0  0  0  0  0
    0.1469    2.0043    0.7117 S   0  0  0  0  0  0  0  0  0  0  0  0
    2.1216    0.5106   -2.7107 H   0  0  0  0  0  0  0  0  0  0  0  0
    1.3172   -1.0604   -2.6923 H   0  0  0  0  0  0  0  0  0  0  0  0
    0.3569    0.4228   -2.6993 H   0  0  0  0  0  0  0  0  0  0  0  0
    0.2387   -0.6989   -0.3139 H   0  0  0  0  0  0  0  0  0  0  0  0
    2.1768   -0.5362   -0.4271 H   0  0  0  0  0  0  0  0  0  0  0  0
    2.1219    1.9539   -0.5462 H   0  0  0  0  0  0  0  0  0  0  0  0
   -0.2654   -2.5160    1.0031 C   0  0  0  0  0  0  0  0  0  0  0  0
   -0.7942   -1.3616    0.1572 C   0  0  0  0  0  3  0  0  0  0  0  0
   -2.2025   -1.6568   -0.3501 C   0  0  0  0  0  0  0  0  0  0  0  0
   -0.7585   -0.0514    0.9380 C   0  0  0  0  0  0  0  0  0  0  0  0
   -0.2611   -3.4515    0.4397 H   0  0  0  0  0  0  0  0  0  0  0  0
    0.7537   -2.3234    1.3450 H   0  0  0  0  0  0  0  0  0  0  0  0
   -0.8922   -2.6621    1.8877 H   0  0  0  0  0  0  0  0  0  0  0  0
   -2.8957   -1.7734    0.4881 H   0  0  0  0  0  0  0  0  0  0  0  0
   -2.2288   -2.5787   -0.9348 H   0  0  0  0  0  0  0  0  0  0  0  0
   -2.5754   -0.8468   -0.9805 H   0  0  0  0  0  0  0  0  0  0  0  0
    0.2528    0.1802    1.2789 H   0  0  0  0  0  0  0  0  0  0  0  0
   -1.1085    0.7840    0.3280 H   0  0  0  0  0  0  0  0  0  0  0  0
   -1.4021   -0.1128    1.8204 H   0  0  0  0  0  0  0  0  0  0  0  0
  1  2  1  0
  1  5  1  0
  1  6  1  0
  1  7  1  0
  2  3  1  0
  2  8  1  0
  2  9  1  0
  3  4  2  0
  3 10  1  0
 11 12  1  0
 11 15  1  0
 11 16  1  0
 11 17  1  0
 12 13  1  0
 12 14  1  0
 13 18  1  0
 13 19  1  0
 13 20  1  0
 14 21  1  0
 14 22  1  0
 14 23  1  0
M  RAD  1  12   2
M  END
>  <reaction>  (5) 
rxn_1998

>  <mol_properties>  (5) 
{"1": {"label": "*1", "atom_type": "Cs"}, "2": {"label": "*0", "atom_type": "CS"}, "7": {"label": "*2", "atom_type": "H0"}, "10": {"label": "*4", "atom_type": "Cs"}, "11": {"label": "*3", "atom_type": "Cs"}}

>  <type>  (5) 
unop_1

>  <geom_source>  (5) 
Heuristics

$$$$

     RDKit          3D

 23 21  0  0  0  0  0  0  0  0999 V2000
    1.2608    0.0590   -2.2582 C   0  0  0  0  0  0  0  0  0  0  0  0
    1.2608    0.0590   -0.7272 C   0  0  0  0  0  0  0  0  0  0  0  0
    1.2608    1.4472   -0.1805 C   0  0  0  0  0  0  0  0  0  0  0  0
    0.1412    2.1029    0.7671 S   0  0  0  0  0  0  0  0  0  0  0  0
    2.1160    0.6092   -2.6554 H   0  0  0  0  0  0  0  0  0  0  0  0
    1.3116   -0.9619   -2.6369 H   0  0  0  0  0  0  0  0  0  0  0  0
    0.3513    0.5214   -2.6439 H   0  0  0  0  0  0  0  0  0  0  0  0
    0.2331   -0.6003   -0.2585 H   0  0  0  0  0  0  0  0  0  0  0  0
    2.1711   -0.4377   -0.3717 H   0  0  0  0  0  0  0  0  0  0  0  0
    2.1162    2.0525   -0.4908 H   0  0  0  0  0  0  0  0  0  0  0  0
   -1.1560   -2.3540   -0.7928 C   0  0  0  0  0  0  0  0  0  0  0  0
   -0.7998   -1.2631    0.2125 C   0  0  0  0  0  3  0  0  0  0  0  0
   -2.0539   -0.5580    0.7204 C   0  0  0  0  0  0  0  0  0  0  0  0
    0.0134   -1.8326    1.3710 C   0  0  0  0  0  0  0  0  0  0  0  0
   -1.7132   -1.9472   -1.6393 H   0  0  0  0  0  0  0  0  0  0  0  0
   -0.2605   -2.8429   -1.1821 H   0  0  0  0  0  0  0  0  0  0  0  0
   -1.7774   -3.1215   -0.3222 H   0  0  0  0  0  0  0  0  0  0  0  0
   -2.7061   -1.2639    1.2429 H   0  0  0  0  0  0  0  0  0  0  0  0
   -2.6254   -0.1228   -0.1021 H   0  0  0  0  0  0  0  0  0  0  0  0
   -1.8036    0.2436    1.4185 H   0  0  0  0  0  0  0  0  0  0  0  0
    0.9275   -2.3132    1.0160 H   0  0  0  0  0  0  0  0  0  0  0  0
    0.2965   -1.0511    2.0794 H   0  0  0  0  0  0  0  0  0  0  0  0
   -0.5677   -2.5823    1.9159 H   0  0  0  0  0  0  0  0  0  0  0  0
  1  2  1  0
  1  5  1  0
  1  6  1  0
  1  7  1  0
  2  3  1  0
  2  8  1  0
  2  9  1  0
  3  4  2  0
  3 10  1  0
 11 12  1  0
 11 15  1  0
 11 16  1  0
 11 17  1  0
 12 13  1  0
 12 14  1  0
 13 18  1  0
 13 19  1  0
 13 20  1  0
 14 21  1  0
 14 22  1  0
 14 23  1  0
M  RAD  1  12   2
M  END
>  <reaction>  (6) 
rxn_1998

>  <mol_properties>  (6) 
{"1": {"label": "*1", "atom_type": "Cs"}, "2": {"label": "*0", "atom_type": "CS"}, "7": {"label": "*2", "atom_type": "H0"}, "10": {"label": "*4", "atom_type": "Cs"}, "11": {"label": "*3", "atom_type": "Cs"}}

>  <type>  (6) 
unop_2

>  <geom_source>  (6) 
Heuristics

$$$$

     RDKit          3D

 23 21  0  0  0  0  0  0  0  0999 V2000
    1.3054   -0.0382   -2.2720 C   0  0  0  0  0  0  0  0  0  0  0  0
    1.3054   -0.0382   -0.7409 C   0  0  0  0  0  0  0  0  0  0  0  0
    1.3054    1.3500   -0.1942 C   0  0  0  0  0  0  0  0  0  0  0  0
    0.1859    2.0057    0.7533 S   0  0  0  0  0  0  0  0  0  0  0  0
    2.1606    0.5120   -2.6691 H   0  0  0  0  0  0  0  0  0  0  0  0
    1.3563   -1.0591   -2.6507 H   0  0  0  0  0  0  0  0  0  0  0  0
    0.3959    0.4242   -2.6576 H   0  0  0  0  0  0  0  0  0  0  0  0
    0.2778   -0.6975   -0.2723 H   0  0  0  0  0  0  0  0  0  0  0  0
    2.2158   -0.5349   -0.3855 H   0  0  0  0  0  0  0  0  0  0  0  0
    2.1609    1.9553   -0.5046 H   0  0  0  0  0  0  0  0  0  0  0  0
   -0.3530   -1.9646    1.5407 C   0  0  0  0  0  0  0  0  0  0  0  0
   -0.7551   -1.3603    0.1988 C   0  0  0  0  0  3  0  0  0  0  0  0
   -1.7033   -2.2875   -0.5555 C   0  0  0  0  0  0  0  0  0  0  0  0
   -1.3760    0.0208    0.3860 C   0  0  0  0  0  0  0  0  0  0  0  0
    0.1187   -2.9409    1.4111 H   0  0  0  0  0  0  0  0  0  0  0  0
    0.3487   -1.3189    2.0727 H   0  0  0  0  0  0  0  0  0  0  0  0
   -1.2311   -2.1005    2.1790 H   0  0  0  0  0  0  0  0  0  0  0  0
   -2.6277   -2.4345    0.0108 H   0  0  0  0  0  0  0  0  0  0  0  0
   -1.2529   -3.2689   -0.7184 H   0  0  0  0  0  0  0  0  0  0  0  0
   -1.9718   -1.8738   -1.5298 H   0  0  0  0  0  0  0  0  0  0  0  0
   -0.6904    0.6980    0.8996 H   0  0  0  0  0  0  0  0  0  0  0  0
   -1.6393    0.4711   -0.5734 H   0  0  0  0  0  0  0  0  0  0  0  0
   -2.2891   -0.0469    0.9846 H   0  0  0  0  0  0  0  0  0  0  0  0
  1  2  1  0
  1  5  1  0
  1  6  1  0
  1  7  1  0
  2  3  1  0
  2  8  1  0
  2  9  1  0
  3  4  2  0
  3 10  1  0
 11 12  1  0
 11 15  1  0
 11 16  1  0
 11 17  1  0
 12 13  1  0
 12 14  1  0
 13 18  1  0
 13 19  1  0
 13 20  1  0
 14 21  1  0
 14 22  1  0
 14 23  1  0
M  RAD  1  12   2
M  END
>  <reaction>  (7) 
rxn_1998

>  <mol_properties>  (7) 
{"1": {"label": "*1", "atom_type": "Cs"}, "2": {"label": "*0", "atom_type": "CS"}, "7": {"label": "*2", "atom_type": "H0"}, "10": {"label": "*4", "atom_type": "Cs"}, "11": {"label": "*3", "atom_type": "Cs"}}

>  <type>  (7) 
unop_3

>  <geom_source>  (7) 
Heuristics

$$$$

     RDKit          3D

 23 21  0  0  0  0  0  0  0  0999 V2000
    1.2855   -0.0368   -2.2964 C   0  0  0  0  0  0  0  0  0  0  0  0
    1.2855   -0.0368   -0.7653 C   0  0  0  0  0  0  0  0  0  0  0  0
    1.2855    1.3514   -0.2187 C   0  0  0  0  0  0  0  0  0  0  0  0
    0.1660    2.0071    0.7289 S   0  0  0  0  0  0  0  0  0  0  0  0
    2.1407    0.5134   -2.6935 H   0  0  0  0  0  0  0  0  0  0  0  0
    1.3363   -1.0577   -2.6751 H   0  0  0  0  0  0  0  0  0  0  0  0
    0.3760    0.4256   -2.6821 H   0  0  0  0  0  0  0  0  0  0  0  0
    0.2579   -0.6962   -0.2967 H   0  0  0  0  0  0  0  0  0  0  0  0
    2.1959   -0.5335   -0.4099 H   0  0  0  0  0  0  0  0  0  0  0  0
    2.1410    1.9566   -0.5290 H   0  0  0  0  0  0  0  0  0  0  0  0
   -2.0419   -0.6780   -0.3350 C   0  0  0  0  0  0  0  0  0  0  0  0
   -0.7751   -1.3589    0.1744 C   0  0  0  0  0  3  0  0  0  0  0  0
   -0.2845   -0.7057    1.4630 C   0  0  0  0  0  0  0  0  0  0  0  0
   -1.0009   -2.8548    0.3721 C   0  0  0  0  0  0  0  0  0  0  0  0
   -1.8782    0.3880   -0.5064 H   0  0  0  0  0  0  0  0  0  0  0  0
   -2.3817   -1.1222   -1.2729 H   0  0  0  0  0  0  0  0  0  0  0  0
   -2.8512   -0.7783    0.3942 H   0  0  0  0  0  0  0  0  0  0  0  0
   -1.0335   -0.8070    2.2538 H   0  0  0  0  0  0  0  0  0  0  0  0
   -0.0930    0.3598    1.3200 H   0  0  0  0  0  0  0  0  0  0  0  0
    0.6385   -1.1698    1.8170 H   0  0  0  0  0  0  0  0  0  0  0  0
   -1.3242   -3.3334   -0.5547 H   0  0  0  0  0  0  0  0  0  0  0  0
   -0.0893   -3.3529    0.7088 H   0  0  0  0  0  0  0  0  0  0  0  0
   -1.7745   -3.0299    1.1255 H   0  0  0  0  0  0  0  0  0  0  0  0
  1  2  1  0
  1  5  1  0
  1  6  1  0
  1  7  1  0
  2  3  1  0
  2  8  1  0
  2  9  1  0
  3  4  2  0
  3 10  1  0
 11 12  1  0
 11 15  1  0
 11 16  1  0
 11 17  1  0
 12 13  1  0
 12 14  1  0
 13 18  1  0
 13 19  1  0
 13 20  1  0
 14 21  1  0
 14 22  1  0
 14 23  1  0
M  RAD  1  12   2
M  END
>  <reaction>  (8) 
rxn_1998

>  <mol_properties>  (8) 
{"1": {"label": "*1", "atom_type": "Cs"}, "2": {"label": "*0", "atom_type": "CS"}, "7": {"label": "*2", "atom_type": "H0"}, "10": {"label": "*4", "atom_type": "Cs"}, "11": {"label": "*3", "atom_type": "Cs"}}

>  <type>  (8) 
unop_4

>  <geom_source>  (8) 
Heuristics

$$$$

     RDKit          3D

 23 21  0  0  0  0  0  0  0  0999 V2000
    1.2982    0.0294   -2.2394 C   0  0  0  0  0  0  0  0  0  0  0  0
    1.2982    0.0294   -0.7083 C   0  0  0  0  0  0  0  0  0  0  0  0
    1.2982    1.4176   -0.1616 C   0  0  0  0  0  0  0  0  0  0  0  0
    0.1786    2.0733    0.7859 S   0  0  0  0  0  0  0  0  0  0  0  0
    2.1534    0.5796   -2.6365 H   0  0  0  0  0  0  0  0  0  0  0  0
    1.3490   -0.9915   -2.6180 H   0  0  0  0  0  0  0  0  0  0  0  0
    0.3887    0.4918   -2.6250 H   0  0  0  0  0  0  0  0  0  0  0  0
    0.2705   -0.6299   -0.2397 H   0  0  0  0  0  0  0  0  0  0  0  0
    2.2085   -0.4673   -0.3529 H   0  0  0  0  0  0  0  0  0  0  0  0
    2.1536    2.0229   -0.4720 H   0  0  0  0  0  0  0  0  0  0  0  0
   -0.6936   -1.2485    1.7549 C   0  0  0  0  0  0  0  0  0  0  0  0
   -0.7624   -1.2927    0.2314 C   0  0  0  0  0  3  0  0  0  0  0  0
   -0.6714   -2.7280   -0.2779 C   0  0  0  0  0  0  0  0  0  0  0  0
   -2.0292   -0.6118   -0.2780 C   0  0  0  0  0  0  0  0  0  0  0  0
    0.2253   -1.7085    2.1243 H   0  0  0  0  0  0  0  0  0  0  0  0
   -0.7289   -0.2215    2.1244 H   0  0  0  0  0  0  0  0  0  0  0  0
   -1.5372   -1.7899    2.1930 H   0  0  0  0  0  0  0  0  0  0  0  0
   -1.5143   -3.3201    0.0904 H   0  0  0  0  0  0  0  0  0  0  0  0
    0.2479   -3.2114    0.0593 H   0  0  0  0  0  0  0  0  0  0  0  0
   -0.6907   -2.7640   -1.3692 H   0  0  0  0  0  0  0  0  0  0  0  0
   -2.0855    0.4253    0.0593 H   0  0  0  0  0  0  0  0  0  0  0  0
   -2.0700   -0.6144   -1.3692 H   0  0  0  0  0  0  0  0  0  0  0  0
   -2.9187   -1.1312    0.0904 H   0  0  0  0  0  0  0  0  0  0  0  0
  1  2  1  0
  1  5  1  0
  1  6  1  0
  1  7  1  0
  2  3  1  0
  2  8  1  0
  2  9  1  0
  3  4  2  0
  3 10  1  0
 11 12  1  0
 11 15  1  0
 11 16  1  0
 11 17  1  0
 12 13  1  0
 12 14  1  0
 13 18  1  0
 13 19  1  0
 13 20  1  0
 14 21  1  0
 14 22  1  0
 14 23  1  0
M  RAD  1  12   2
M  END
>  <reaction>  (9) 
rxn_1998

>  <mol_properties>  (9) 
{"1": {"label": "*1", "atom_type": "Cs"}, "2": {"label": "*0", "atom_type": "CS"}, "7": {"label": "*2", "atom_type": "H0"}, "10": {"label": "*4", "atom_type": "Cs"}, "11": {"label": "*3", "atom_type": "Cs"}}

>  <type>  (9) 
unop_5

>  <geom_source>  (9) 
Heuristics

$$$$

     RDKit          3D

 23 21  0  0  0  0  0  0  0  0999 V2000
    1.2471   -0.0163   -2.3217 C   0  0  0  0  0  0  0  0  0  0  0  0
    1.2471   -0.0163   -0.7906 C   0  0  0  0  0  0  0  0  0  0  0  0
    1.2471    1.3719   -0.2439 C   0  0  0  0  0  0  0  0  0  0  0  0
    0.1275    2.0276    0.7036 S   0  0  0  0  0  0  0  0  0  0  0  0
    2.1023    0.5338   -2.7188 H   0  0  0  0  0  0  0  0  0  0  0  0
    1.2979   -1.0372   -2.7003 H   0  0  0  0  0  0  0  0  0  0  0  0
    0.3376    0.4461   -2.7073 H   0  0  0  0  0  0  0  0  0  0  0  0
    0.2194   -0.6757   -0.3220 H   0  0  0  0  0  0  0  0  0  0  0  0
    2.1574   -0.5130   -0.4352 H   0  0  0  0  0  0  0  0  0  0  0  0
    2.1025    1.9771   -0.5543 H   0  0  0  0  0  0  0  0  0  0  0  0
   -1.9664   -0.3534    0.3174 C   0  0  0  0  0  0  0  0  0  0  0  0
   -0.8135   -1.3384    0.1491 C   0  0  0  0  0  3  0  0  0  0  0  0
    0.1736   -1.2267    1.3071 C   0  0  0  0  0  0  0  0  0  0  0  0
   -1.3315   -2.7666    0.0090 C   0  0  0  0  0  0  0  0  0  0  0  0
   -1.6035    0.6741    0.3888 H   0  0  0  0  0  0  0  0  0  0  0  0
   -2.6613   -0.4081   -0.5233 H   0  0  0  0  0  0  0  0  0  0  0  0
   -2.5286   -0.5729    1.2298 H   0  0  0  0  0  0  0  0  0  0  0  0
   -0.3152   -1.4761    2.2535 H   0  0  0  0  0  0  0  0  0  0  0  0
    0.5703   -0.2130    1.3942 H   0  0  0  0  0  0  0  0  0  0  0  0
    1.0164   -1.9088    1.1776 H   0  0  0  0  0  0  0  0  0  0  0  0
   -2.0163   -2.8595   -0.8365 H   0  0  0  0  0  0  0  0  0  0  0  0
   -0.5125   -3.4732   -0.1410 H   0  0  0  0  0  0  0  0  0  0  0  0
   -1.8720   -3.0690    0.9108 H   0  0  0  0  0  0  0  0  0  0  0  0
  1  2  1  0
  1  5  1  0
  1  6  1  0
  1  7  1  0
  2  3  1  0
  2  8  1  0
  2  9  1  0
  3  4  2  0
  3 10  1  0
 11 12  1  0
 11 15  1  0
 11 16  1  0
 11 17  1  0
 12 13  1  0
 12 14  1  0
 13 18  1  0
 13 19  1  0
 13 20  1  0
 14 21  1  0
 14 22  1  0
 14 23  1  0
M  RAD  1  12   2
M  END
>  <reaction>  (10) 
rxn_1998

>  <mol_properties>  (10) 
{"1": {"label": "*1", "atom_type": "Cs"}, "2": {"label": "*0", "atom_type": "CS"}, "7": {"label": "*2", "atom_type": "H0"}, "10": {"label": "*4", "atom_type": "Cs"}, "11": {"label": "*3", "atom_type": "Cs"}}

>  <type>  (10) 
unop_6

>  <geom_source>  (10) 
Heuristics

$$$$

     RDKit          3D

 23 21  0  0  0  0  0  0  0  0999 V2000
    1.2222    0.0293   -2.3136 C   0  0  0  0  0  0  0  0  0  0  0  0
    1.2222    0.0293   -0.7826 C   0  0  0  0  0  0  0  0  0  0  0  0
    1.2222    1.4175   -0.2359 C   0  0  0  0  0  0  0  0  0  0  0  0
    0.1027    2.0732    0.7117 S   0  0  0  0  0  0  0  0  0  0  0  0
    2.0774    0.5794   -2.7107 H   0  0  0  0  0  0  0  0  0  0  0  0
    1.2731   -0.9916   -2.6923 H   0  0  0  0  0  0  0  0  0  0  0  0
    0.3128    0.4917   -2.6993 H   0  0  0  0  0  0  0  0  0  0  0  0
    0.1946   -0.6301   -0.3139 H   0  0  0  0  0  0  0  0  0  0  0  0
    2.1326   -0.4674   -0.4271 H   0  0  0  0  0  0  0  0  0  0  0  0
    2.0777    2.0227   -0.5462 H   0  0  0  0  0  0  0  0  0  0  0  0
   -1.6673   -0.3310    1.0030 C   0  0  0  0  0  0  0  0  0  0  0  0
   -0.8383   -1.2928    0.1571 C   0  0  0  0  0  3  0  0  0  0  0  0
    0.3676   -1.8064    0.9380 C   0  0  0  0  0  0  0  0  0  0  0  0
   -1.6935   -2.4500   -0.3501 C   0  0  0  0  0  0  0  0  0  0  0  0
   -1.0675    0.5151    1.3449 H   0  0  0  0  0  0  0  0  0  0  0  0
   -2.5160    0.0627    0.4398 H   0  0  0  0  0  0  0  0  0  0  0  0
   -2.0613   -0.8399    1.8877 H   0  0  0  0  0  0  0  0  0  0  0  0
    0.0435   -2.3658    1.8205 H   0  0  0  0  0  0  0  0  0  0  0  0
    0.9996   -0.9836    1.2789 H   0  0  0  0  0  0  0  0  0  0  0  0
    0.9812   -2.4727    0.3281 H   0  0  0  0  0  0  0  0  0  0  0  0
   -2.5425   -2.0898   -0.9348 H   0  0  0  0  0  0  0  0  0  0  0  0
   -1.1125   -3.1265   -0.9805 H   0  0  0  0  0  0  0  0  0  0  0  0
   -2.0884   -3.0316    0.4881 H   0  0  0  0  0  0  0  0  0  0  0  0
  1  2  1  0
  1  5  1  0
  1  6  1  0
  1  7  1  0
  2  3  1  0
  2  8  1  0
  2  9  1  0
  3  4  2  0
  3 10  1  0
 11 12  1  0
 11 15  1  0
 11 16  1  0
 11 17  1  0
 12 13  1  0
 12 14  1  0
 13 18  1  0
 13 19  1  0
 13 20  1  0
 14 21  1  0
 14 22  1  0
 14 23  1  0
M  RAD  1  12   2
M  END
>  <reaction>  (11) 
rxn_1998

>  <mol_properties>  (11) 
{"1": {"label": "*1", "atom_type": "Cs"}, "2": {"label": "*0", "atom_type": "CS"}, "7": {"label": "*2", "atom_type": "H0"}, "10": {"label": "*4", "atom_type": "Cs"}, "11": {"label": "*3", "atom_type": "Cs"}}

>  <type>  (11) 
unop_7

>  <geom_source>  (11) 
Heuristics

$$$$

     RDKit          3D

 23 21  0  0  0  0  0  0  0  0999 V2000
    1.2353    0.0020   -2.3217 C   0  0  0  0  0  0  0  0  0  0  0  0
    1.2353    0.0020   -0.7906 C   0  0  0  0  0  0  0  0  0  0  0  0
    1.2353    1.3902   -0.2439 C   0  0  0  0  0  0  0  0  0  0  0  0
    0.1158    2.0459    0.7036 S   0  0  0  0  0  0  0  0  0  0  0  0
    2.0905    0.5522   -2.7188 H   0  0  0  0  0  0  0  0  0  0  0  0
    1.2861   -1.0189   -2.7003 H   0  0  0  0  0  0  0  0  0  0  0  0
    0.3258    0.4644   -2.7073 H   0  0  0  0  0  0  0  0  0  0  0  0
    0.2076   -0.6573   -0.3220 H   0  0  0  0  0  0  0  0  0  0  0  0
    2.1457   -0.4947   -0.4352 H   0  0  0  0  0  0  0  0  0  0  0  0
    2.0908    1.9955   -0.5543 H   0  0  0  0  0  0  0  0  0  0  0  0
   -0.4104   -2.7786    0.3174 C   0  0  0  0  0  0  0  0  0  0  0  0
   -0.8253   -1.3201    0.1491 C   0  0  0  0  0  3  0  0  0  0  0  0
   -2.3395   -1.1958    0.0090 C   0  0  0  0  0  0  0  0  0  0  0  0
   -0.3124   -0.4693    1.3071 C   0  0  0  0  0  0  0  0  0  0  0  0
   -0.7496   -3.3874   -0.5233 H   0  0  0  0  0  0  0  0  0  0  0  0
    0.6749   -2.8770    0.3889 H   0  0  0  0  0  0  0  0  0  0  0  0
   -0.8443   -3.1982    1.2297 H   0  0  0  0  0  0  0  0  0  0  0  0
   -2.8396   -1.5611    0.9108 H   0  0  0  0  0  0  0  0  0  0  0  0
   -2.7092   -1.7795   -0.8366 H   0  0  0  0  0  0  0  0  0  0  0  0
   -2.6404   -0.1568   -0.1410 H   0  0  0  0  0  0  0  0  0  0  0  0
    0.7744   -0.5311    1.3942 H   0  0  0  0  0  0  0  0  0  0  0  0
   -0.5812    0.5811    1.1776 H   0  0  0  0  0  0  0  0  0  0  0  0
   -0.7428   -0.8097    2.2534 H   0  0  0  0  0  0  0  0  0  0  0  0
  1  2  1  0
  1  5  1  0
  1  6  1  0
  1  7  1  0
  2  3  1  0
  2  8  1  0
  2  9  1  0
  3  4  2  0
  3 10  1  0
 11 12  1  0
 11 15  1  0
 11 16  1  0
 11 17  1  0
 12 13  1  0
 12 14  1  0
 13 18  1  0
 13 19  1  0
 13 20  1  0
 14 21  1  0
 14 22  1  0
 14 23  1  0
M  RAD  1  12   2
M  END
>  <reaction>  (12) 
rxn_1998

>  <mol_properties>  (12) 
{"1": {"label": "*1", "atom_type": "Cs"}, "2": {"label": "*0", "atom_type": "CS"}, "7": {"label": "*2", "atom_type": "H0"}, "10": {"label": "*4", "atom_type": "Cs"}, "11": {"label": "*3", "atom_type": "Cs"}}

>  <type>  (12) 
unop_8

>  <geom_source>  (12) 
Heuristics

$$$$

     RDKit          3D

 23 21  0  0  0  0  0  0  0  0999 V2000
    1.3095   -0.0169   -2.2582 C   0  0  0  0  0  0  0  0  0  0  0  0
    1.3095   -0.0169   -0.7272 C   0  0  0  0  0  0  0  0  0  0  0  0
    1.3095    1.3712   -0.1805 C   0  0  0  0  0  0  0  0  0  0  0  0
    0.1900    2.0269    0.7670 S   0  0  0  0  0  0  0  0  0  0  0  0
    2.1647    0.5332   -2.6554 H   0  0  0  0  0  0  0  0  0  0  0  0
    1.3603   -1.0379   -2.6369 H   0  0  0  0  0  0  0  0  0  0  0  0
    0.4000    0.4454   -2.6439 H   0  0  0  0  0  0  0  0  0  0  0  0
    0.2818   -0.6763   -0.2585 H   0  0  0  0  0  0  0  0  0  0  0  0
    2.2198   -0.5137   -0.3717 H   0  0  0  0  0  0  0  0  0  0  0  0
    2.1649    1.9765   -0.4908 H   0  0  0  0  0  0  0  0  0  0  0  0
   -1.8912   -1.2082   -0.7928 C   0  0  0  0  0  0  0  0  0  0  0  0
   -0.7511   -1.3390    0.2125 C   0  0  0  0  0  3  0  0  0  0  0  0
   -0.9299   -0.3624    1.3710 C   0  0  0  0  0  0  0  0  0  0  0  0
   -0.6328   -2.7729    0.7204 C   0  0  0  0  0  0  0  0  0  0  0  0
   -1.9624   -0.1904   -1.1822 H   0  0  0  0  0  0  0  0  0  0  0  0
   -1.7537   -1.8843   -1.6393 H   0  0  0  0  0  0  0  0  0  0  0  0
   -2.8479   -1.4531   -0.3222 H   0  0  0  0  0  0  0  0  0  0  0  0
   -1.8536   -0.5782    1.9159 H   0  0  0  0  0  0  0  0  0  0  0  0
   -0.9858    0.6688    1.0159 H   0  0  0  0  0  0  0  0  0  0  0  0
   -0.1016   -0.4307    2.0794 H   0  0  0  0  0  0  0  0  0  0  0  0
   -0.4753   -3.4737   -0.1021 H   0  0  0  0  0  0  0  0  0  0  0  0
    0.2002   -2.8793    1.4185 H   0  0  0  0  0  0  0  0  0  0  0  0
   -1.5463   -3.0715    1.2430 H   0  0  0  0  0  0  0  0  0  0  0  0
  1  2  1  0
  1  5  1  0
  1  6  1  0
  1  7  1  0
  2  3  1  0
  2  8  1  0
  2  9  1  0
  3  4  2  0
  3 10  1  0
 11 12  1  0
 11 15  1  0
 11 16  1  0
 11 17  1  0
 12 13  1  0
 12 14  1  0
 13 18  1  0
 13 19  1  0
 13 20  1  0
 14 21  1  0
 14 22  1  0
 14 23  1  0
M  RAD  1  12   2
M  END
>  <reaction>  (13) 
rxn_1998

>  <mol_properties>  (13) 
{"1": {"label": "*1", "atom_type": "Cs"}, "2": {"label": "*0", "atom_type": "CS"}, "7": {"label": "*2", "atom_type": "H0"}, "10": {"label": "*4", "atom_type": "Cs"}, "11": {"label": "*3", "atom_type": "Cs"}}

>  <type>  (13) 
unop_9

>  <geom_source>  (13) 
Heuristics

$$$$

     RDKit          3D

 23 21  0  0  0  0  0  0  0  0999 V2000
    1.2327    0.0455   -2.2964 C   0  0  0  0  0  0  0  0  0  0  0  0
    1.2327    0.0455   -0.7653 C   0  0  0  0  0  0  0  0  0  0  0  0
    1.2327    1.4337   -0.2186 C   0  0  0  0  0  0  0  0  0  0  0  0
    0.1132    2.0894    0.7289 S   0  0  0  0  0  0  0  0  0  0  0  0
    2.0879    0.5957   -2.6935 H   0  0  0  0  0  0  0  0  0  0  0  0
    1.2835   -0.9754   -2.6751 H   0  0  0  0  0  0  0  0  0  0  0  0
    0.3232    0.5079   -2.6821 H   0  0  0  0  0  0  0  0  0  0  0  0
    0.2050   -0.6139   -0.2967 H   0  0  0  0  0  0  0  0  0  0  0  0
    2.1431   -0.4512   -0.4099 H   0  0  0  0  0  0  0  0  0  0  0  0
    2.0882    2.0390   -0.5290 H   0  0  0  0  0  0  0  0  0  0  0  0
   -0.7369   -2.7119   -0.3350 C   0  0  0  0  0  0  0  0  0  0  0  0
   -0.8279   -1.2766    0.1744 C   0  0  0  0  0  3  0  0  0  0  0  0
   -2.2818   -0.8585    0.3720 C   0  0  0  0  0  0  0  0  0  0  0  0
   -0.0297   -1.1028    1.4630 C   0  0  0  0  0  0  0  0  0  0  0  0
   -1.2822   -2.8356   -1.2729 H   0  0  0  0  0  0  0  0  0  0  0  0
    0.3003   -3.0074   -0.5063 H   0  0  0  0  0  0  0  0  0  0  0  0
   -1.1654   -3.4057    0.3942 H   0  0  0  0  0  0  0  0  0  0  0  0
   -2.7634   -1.4887    1.1254 H   0  0  0  0  0  0  0  0  0  0  0  0
   -2.8516   -0.9529   -0.5547 H   0  0  0  0  0  0  0  0  0  0  0  0
   -2.3547    0.1778    0.7088 H   0  0  0  0  0  0  0  0  0  0  0  0
    1.0187   -1.3728    1.3201 H   0  0  0  0  0  0  0  0  0  0  0  0
   -0.0670   -0.0704    1.8169 H   0  0  0  0  0  0  0  0  0  0  0  0
   -0.4339   -1.7415    2.2539 H   0  0  0  0  0  0  0  0  0  0  0  0
  1  2  1  0
  1  5  1  0
  1  6  1  0
  1  7  1  0
  2  3  1  0
  2  8  1  0
  2  9  1  0
  3  4  2  0
  3 10  1  0
 11 12  1  0
 11 15  1  0
 11 16  1  0
 11 17  1  0
 12 13  1  0
 12 14  1  0
 13 18  1  0
 13 19  1  0
 13 20  1  0
 14 21  1  0
 14 22  1  0
 14 23  1  0
M  RAD  1  12   2
M  END
>  <reaction>  (14) 
rxn_1998

>  <mol_properties>  (14) 
{"1": {"label": "*1", "atom_type": "Cs"}, "2": {"label": "*0", "atom_type": "CS"}, "7": {"label": "*2", "atom_type": "H0"}, "10": {"label": "*4", "atom_type": "Cs"}, "11": {"label": "*3", "atom_type": "Cs"}}

>  <type>  (14) 
unop_10

>  <geom_source>  (14) 
Heuristics

$$$$

     RDKit          3D

 23 21  0  0  0  0  0  0  0  0999 V2000
    1.2398    0.0642   -2.2720 C   0  0  0  0  0  0  0  0  0  0  0  0
    1.2398    0.0642   -0.7409 C   0  0  0  0  0  0  0  0  0  0  0  0
    1.2398    1.4524   -0.1942 C   0  0  0  0  0  0  0  0  0  0  0  0
    0.1202    2.1081    0.7533 S   0  0  0  0  0  0  0  0  0  0  0  0
    2.0950    0.6144   -2.6691 H   0  0  0  0  0  0  0  0  0  0  0  0
    1.2906   -0.9567   -2.6507 H   0  0  0  0  0  0  0  0  0  0  0  0
    0.3303    0.5266   -2.6576 H   0  0  0  0  0  0  0  0  0  0  0  0
    0.2121   -0.5952   -0.2723 H   0  0  0  0  0  0  0  0  0  0  0  0
    2.1501   -0.4325   -0.3855 H   0  0  0  0  0  0  0  0  0  0  0  0
    2.0952    2.0576   -0.5046 H   0  0  0  0  0  0  0  0  0  0  0  0
   -1.2026   -0.6405    1.5407 C   0  0  0  0  0  0  0  0  0  0  0  0
   -0.8208   -1.2579    0.1988 C   0  0  0  0  0  3  0  0  0  0  0  0
    0.1758   -2.3978    0.3860 C   0  0  0  0  0  0  0  0  0  0  0  0
   -2.0588   -1.7334   -0.5555 C   0  0  0  0  0  0  0  0  0  0  0  0
   -0.3231   -0.2717    2.0726 H   0  0  0  0  0  0  0  0  0  0  0  0
   -1.8935    0.1952    1.4111 H   0  0  0  0  0  0  0  0  0  0  0  0
   -1.6920   -1.3821    2.1790 H   0  0  0  0  0  0  0  0  0  0  0  0
   -0.2662   -3.1997    0.9847 H   0  0  0  0  0  0  0  0  0  0  0  0
    1.0772   -2.0568    0.8997 H   0  0  0  0  0  0  0  0  0  0  0  0
    0.4755   -2.8249   -0.5734 H   0  0  0  0  0  0  0  0  0  0  0  0
   -2.7632   -0.9150   -0.7184 H   0  0  0  0  0  0  0  0  0  0  0  0
   -1.7946   -2.1499   -1.5298 H   0  0  0  0  0  0  0  0  0  0  0  0
   -2.5777   -2.5124    0.0108 H   0  0  0  0  0  0  0  0  0  0  0  0
  1  2  1  0
  1  5  1  0
  1  6  1  0
  1  7  1  0
  2  3  1  0
  2  8  1  0
  2  9  1  0
  3  4  2  0
  3 10  1  0
 11 12  1  0
 11 15  1  0
 11 16  1  0
 11 17  1  0
 12 13  1  0
 12 14  1  0
 13 18  1  0
 13 19  1  0
 13 20  1  0
 14 21  1  0
 14 22  1  0
 14 23  1  0
M  RAD  1  12   2
M  END
>  <reaction>  (15) 
rxn_1998

>  <mol_properties>  (15) 
{"1": {"label": "*1", "atom_type": "Cs"}, "2": {"label": "*0", "atom_type": "CS"}, "7": {"label": "*2", "atom_type": "H0"}, "10": {"label": "*4", "atom_type": "Cs"}, "11": {"label": "*3", "atom_type": "Cs"}}

>  <type>  (15) 
unop_11

>  <geom_source>  (15) 
Heuristics

$$$$

     RDKit          3D

 23 21  0  0  0  0  0  0  0  0999 V2000
    1.2982    0.0294   -2.2394 C   0  0  0  0  0  0  0  0  0  0  0  0
    1.2982    0.0294   -0.7083 C   0  0  0  0  0  0  0  0  0  0  0  0
    1.2982    1.4176   -0.1616 C   0  0  0  0  0  0  0  0  0  0  0  0
    0.1787    2.0733    0.7859 S   0  0  0  0  0  0  0  0  0  0  0  0
    2.1534    0.5796   -2.6365 H   0  0  0  0  0  0  0  0  0  0  0  0
    1.3490   -0.9915   -2.6180 H   0  0  0  0  0  0  0  0  0  0  0  0
    0.3887    0.4918   -2.6250 H   0  0  0  0  0  0  0  0  0  0  0  0
    0.2705   -0.6299   -0.2397 H   0  0  0  0  0  0  0  0  0  0  0  0
    2.2085   -0.4673   -0.3529 H   0  0  0  0  0  0  0  0  0  0  0  0
    2.1536    2.0229   -0.4720 H   0  0  0  0  0  0  0  0  0  0  0  0
   -1.5692   -1.8103   -0.9556 C   0  0  0  0  0  0  0  0  0  0  0  0
   -0.7624   -1.2927    0.2314 C   0  0  0  0  0  3  0  0  0  0  0  0
   -1.5914   -0.3309    1.0773 C   0  0  0  0  0  0  0  0  0  0  0  0
   -0.2336   -2.4470    1.0773 C   0  0  0  0  0  0  0  0  0  0  0  0
   -1.9259   -0.9896   -1.5814 H   0  0  0  0  0  0  0  0  0  0  0  0
   -0.9719   -2.4767   -1.5813 H   0  0  0  0  0  0  0  0  0  0  0  0
   -2.4430   -2.3709   -0.6105 H   0  0  0  0  0  0  0  0  0  0  0  0
   -2.4659   -0.8407    1.4921 H   0  0  0  0  0  0  0  0  0  0  0  0
   -1.9484    0.5133    0.4836 H   0  0  0  0  0  0  0  0  0  0  0  0
   -1.0099    0.0658    1.9122 H   0  0  0  0  0  0  0  0  0  0  0  0
    0.3850   -3.1235    0.4837 H   0  0  0  0  0  0  0  0  0  0  0  0
    0.3693   -2.0838    1.9122 H   0  0  0  0  0  0  0  0  0  0  0  0
   -1.0614   -3.0295    1.4922 H   0  0  0  0  0  0  0  0  0  0  0  0
  1  2  1  0
  1  5  1  0
  1  6  1  0
  1  7  1  0
  2  3  1  0
  2  8  1  0
  2  9  1  0
  3  4  2  0
  3 10  1  0
 11 12  1  0
 11 15  1  0
 11 16  1  0
 11 17  1  0
 12 13  1  0
 12 14  1  0
 13 18  1  0
 13 19  1  0
 13 20  1  0
 14 21  1  0
 14 22  1  0
 14 23  1  0
M  RAD  1  12   2
M  END
>  <reaction>  (16) 
rxn_1998

>  <mol_properties>  (16) 
{"1": {"label": "*1", "atom_type": "Cs"}, "2": {"label": "*0", "atom_type": "CS"}, "7": {"label": "*2", "atom_type": "H0"}, "10": {"label": "*4", "atom_type": "Cs"}, "11": {"label": "*3", "atom_type": "Cs"}}

>  <type>  (16) 
unop_12

>  <geom_source>  (16) 
Heuristics

$$$$

     RDKit          3D

 23 21  0  0  0  0  0  0  0  0999 V2000
    2.8456    2.1967    0.9240 S   0  0  0  0  0  1  0  0  0  0  0  0
   -1.0772   -0.0297   -0.1256 C   0  0  0  0  0  0  0  0  0  0  0  0
   -1.4306   -1.2477   -0.9842 C   0  0  0  0  0  0  0  0  0  0  0  0
   -1.9209    1.1821   -0.5324 C   0  0  0  0  0  0  0  0  0  0  0  0
   -1.2635   -0.3438    1.3617 C   0  0  0  0  0  0  0  0  0  0  0  0
    2.6163   -0.7014   -0.5370 C   0  0  0  0  0  0  0  0  0  0  0  0
    1.5205    0.1968    0.0259 C   0  0  0  0  0  0  0  0  0  0  0  0
    2.0115    1.0501    1.1598 C   0  0  0  0  0  0  0  0  0  0  0  0
    0.1864    0.2630   -0.3284 H   0  0  0  0  0  0  0  0  0  0  0  0
   -0.7873   -2.1092   -0.7057 H   0  0  0  0  0  0  0  0  0  0  0  0
   -1.2565   -1.0204   -2.0573 H   0  0  0  0  0  0  0  0  0  0  0  0
   -2.4957   -1.5325   -0.8439 H   0  0  0  0  0  0  0  0  0  0  0  0
   -3.0025    0.9787   -0.3770 H   0  0  0  0  0  0  0  0  0  0  0  0
   -1.7495    1.4230   -1.6030 H   0  0  0  0  0  0  0  0  0  0  0  0
   -1.6303    2.0680    0.0710 H   0  0  0  0  0  0  0  0  0  0  0  0
   -0.9691    0.5336    1.9758 H   0  0  0  0  0  0  0  0  0  0  0  0
   -2.3229   -0.5984    1.5806 H   0  0  0  0  0  0  0  0  0  0  0  0
   -0.6192   -1.2003    1.6534 H   0  0  0  0  0  0  0  0  0  0  0  0
    3.4227   -0.0901   -0.9950 H   0  0  0  0  0  0  0  0  0  0  0  0
    3.0432   -1.3340    0.2698 H   0  0  0  0  0  0  0  0  0  0  0  0
    2.1831   -1.3629   -1.3155 H   0  0  0  0  0  0  0  0  0  0  0  0
    1.0609    0.8149   -0.7764 H   0  0  0  0  0  0  0  0  0  0  0  0
    1.6348    0.8637    2.1593 H   0  0  0  0  0  0  0  0  0  0  0  0
  1  8  1  0
  2  3  1  0
  2  4  1  0
  2  5  1  0
  2  9  1  0
  3 10  1  0
  3 11  1  0
  3 12  1  0
  4 13  1  0
  4 14  1  0
  4 15  1  0
  5 16  1  0
  5 17  1  0
  5 18  1  0
  6  7  1  0
  6 19  1  0
  6 20  1  0
  6 21  1  0
  7  8  2  3
  7 22  1  0
  8 23  1  0
M  RAD  1   1   2
M  END
>  <reaction>  (17) 
rxn_1998

>  <mol_properties>  (17) 
{"1": {"label": "*1", "atom_type": "Cs"}, "2": {"label": "*0", "atom_type": "CS"}, "7": {"label": "*2", "atom_type": "H0"}, "10": {"label": "*4", "atom_type": "Cs"}, "11": {"label": "*3", "atom_type": "Cs"}}

>  <type>  (17) 
unop_13

>  <geom_source>  (17) 
AutoTST

$$$$
