
     RDKit          3D

 12 11  0  0  0  0  0  0  0  0999 V2000
    1.9877    0.1011    0.4814 C   0  0  0  0  0  0  0  0  0  0  0  0
    0.8179    0.5502    0.0525 C   0  0  0  0  0  0  0  0  0  0  0  0
   -0.2939   -0.2692   -0.5320 C   0  0  0  0  0  0  0  0  0  0  0  0
   -0.0292   -1.7631   -0.6328 C   0  0  0  0  0  0  0  0  0  0  0  0
    2.2522   -0.9490    0.4436 H   0  0  0  0  0  0  0  0  0  0  0  0
    2.7295    0.7757    0.8896 H   0  0  0  0  0  0  0  0  0  0  0  0
    0.6162    1.6164    0.1190 H   0  0  0  0  0  0  0  0  0  0  0  0
   -0.5268    0.1319   -1.5245 H   0  0  0  0  0  0  0  0  0  0  0  0
   -1.1959   -0.0938    0.0644 H   0  0  0  0  0  0  0  0  0  0  0  0
    0.1590   -2.1992    0.3502 H   0  0  0  0  0  0  0  0  0  0  0  0
    0.8382   -1.9701   -1.2626 H   0  0  0  0  0  0  0  0  0  0  0  0
   -0.8879   -2.2759   -1.0672 H   0  0  0  0  0  0  0  0  0  0  0  0
  1  2  2  3
  1  5  1  0
  1  6  1  0
  2  3  1  0
  2  7  1  0
  3  4  1  0
  3  8  1  0
  3  9  1  0
  4 10  1  0
  4 11  1  0
  4 12  1  0
M  END
>  <reaction>  (1) 
rxn_1056

>  <mol_properties>  (1) 
{"2": {"label": "donator", "atom_type": "Cs"}, "7": {"label": "d_hydrogen", "atom_type": "H0"}}

>  <type>  (1) 
r1h

$$$$

     RDKit          3D

  9  8  0  0  0  0  0  0  0  0999 V2000
    1.8963   -0.1405   -0.2150 C   0  0  0  0  0  0  0  0  0  0  0  0
    0.6340    0.1486   -0.2254 C   0  0  0  0  0  3  0  0  0  0  0  0
   -0.6770    0.4501   -0.2373 C   0  0  0  0  0  0  0  0  0  0  0  0
   -1.6600   -0.2303    0.4662 C   0  0  0  0  0  0  0  0  0  0  0  0
    2.3274   -0.8354   -0.9313 H   0  0  0  0  0  0  0  0  0  0  0  0
    2.5751    0.2988    0.5117 H   0  0  0  0  0  0  0  0  0  0  0  0
   -0.9723    1.2966   -0.8520 H   0  0  0  0  0  0  0  0  0  0  0  0
   -2.6934    0.0777    0.4015 H   0  0  0  0  0  0  0  0  0  0  0  0
   -1.4140   -1.0782    1.0904 H   0  0  0  0  0  0  0  0  0  0  0  0
  1  2  2  3
  1  5  1  0
  1  6  1  0
  2  3  1  0
  3  4  2  3
  3  7  1  0
  4  8  1  0
  4  9  1  0
M  RAD  1   2   2
M  END
>  <reaction>  (2) 
rxn_1056

>  <mol_properties>  (2) 
{"1": {"label": "acceptor", "atom_type": "Cd"}}

>  <type>  (2) 
r2

$$$$

     RDKit          3D

 10  9  0  0  0  0  0  0  0  0999 V2000
    1.8334    0.0847   -0.1062 C   0  0  0  0  0  0  0  0  0  0  0  0
    0.5993   -0.4071   -0.0750 C   0  0  0  0  0  0  0  0  0  0  0  0
   -0.5993    0.4071    0.0750 C   0  0  0  0  0  0  0  0  0  0  0  0
   -1.8334   -0.0847    0.1062 C   0  0  0  0  0  0  0  0  0  0  0  0
    2.0179    1.1498   -0.0189 H   0  0  0  0  0  0  0  0  0  0  0  0
    2.6972   -0.5572   -0.2194 H   0  0  0  0  0  0  0  0  0  0  0  0
    0.4465   -1.4793   -0.1649 H   0  0  0  0  0  0  0  0  0  0  0  0
   -0.4465    1.4793    0.1649 H   0  0  0  0  0  0  0  0  0  0  0  0
   -2.0179   -1.1498    0.0189 H   0  0  0  0  0  0  0  0  0  0  0  0
   -2.6972    0.5572    0.2194 H   0  0  0  0  0  0  0  0  0  0  0  0
  1  2  2  3
  1  5  1  0
  1  6  1  0
  2  3  1  0
  2  7  1  0
  3  4  2  3
  3  8  1  0
  4  9  1  0
  4 10  1  0
M  END
>  <reaction>  (3) 
rxn_1056

>  <mol_properties>  (3) 
{"1": {"label": "acceptor", "atom_type": "Cd"}, "9": {"label": "a_hydrogen", "atom_type": "H0"}}

>  <type>  (3) 
r2h

$$$$

     RDKit          3D

 21 19  0  0  0  0  0  0  0  0999 V2000
    0.5862    0.8057    2.6165 C   0  0  0  0  0  0  0  0  0  0  0  0
    0.7689    0.1954    1.4636 C   0  0  0  0  0  3  0  0  0  0  0  0
    1.8926   -0.5481    0.9450 C   0  0  0  0  0  0  0  0  0  0  0  0
    1.9008   -1.1859   -0.2217 C   0  0  0  0  0  0  0  0  0  0  0  0
   -0.3313    1.3382    2.8414 H   0  0  0  0  0  0  0  0  0  0  0  0
    1.3502    0.7963    3.3927 H   0  0  0  0  0  0  0  0  0  0  0  0
    2.7826   -0.5682    1.5749 H   0  0  0  0  0  0  0  0  0  0  0  0
    2.7763   -1.7272   -0.5559 H   0  0  0  0  0  0  0  0  0  0  0  0
    1.0308   -1.1932   -0.8680 H   0  0  0  0  0  0  0  0  0  0  0  0
   -1.6321   -1.0335   -2.0922 C   0  0  0  0  0  0  0  0  0  0  0  0
   -1.7819   -0.6136   -0.8387 C   0  0  0  0  0  0  0  0  0  0  0  0
   -1.2667    0.6480   -0.2760 C   0  0  0  0  0  0  0  0  0  0  0  0
   -0.6511    1.6496   -1.2245 C   0  0  0  0  0  0  0  0  0  0  0  0
   -1.1251   -0.4376   -2.8421 H   0  0  0  0  0  0  0  0  0  0  0  0
   -2.0260   -1.9895   -2.4121 H   0  0  0  0  0  0  0  0  0  0  0  0
   -2.3059   -1.2568   -0.1369 H   0  0  0  0  0  0  0  0  0  0  0  0
   -0.3629    0.3412    0.5184 H   0  0  0  0  0  0  0  0  0  0  0  0
   -1.9884    1.1039    0.4053 H   0  0  0  0  0  0  0  0  0  0  0  0
   -1.3771    1.9944   -1.9655 H   0  0  0  0  0  0  0  0  0  0  0  0
    0.1957    1.2172   -1.7614 H   0  0  0  0  0  0  0  0  0  0  0  0
   -0.2846    2.5181   -0.6768 H   0  0  0  0  0  0  0  0  0  0  0  0
  1  2  2  3
  1  5  1  0
  1  6  1  0
  2  3  1  0
  3  4  2  3
  3  7  1  0
  4  8  1  0
  4  9  1  0
 10 11  2  3
 10 14  1  0
 10 15  1  0
 11 12  1  0
 11 16  1  0
 12 13  1  0
 12 17  1  0
 12 18  1  0
 13 19  1  0
 13 20  1  0
 13 21  1  0
M  RAD  1   2   2
M  END
>  <reaction>  (4) 
rxn_1056

>  <mol_properties>  (4) 
{"1": {"label": "*3", "atom_type": "Cd"}, "2": {"label": "*4", "atom_type": "Cd"}, "10": {"label": "*0", "atom_type": "Cd"}, "11": {"label": "*1", "atom_type": "Cs"}, "16": {"label": "*2", "atom_type": "H0"}}

>  <type>  (4) 
ts

$$$$

     RDKit          3D

 21 19  0  0  0  0  0  0  0  0999 V2000
    0.4105   -0.7817    2.4555 C   0  0  0  0  0  0  0  0  0  0  0  0
    0.8232   -0.2424    1.3133 C   0  0  0  0  0  0  0  0  0  0  0  0
    1.7897    0.8443    1.2270 C   0  0  0  0  0  0  0  0  0  0  0  0
    2.2024    1.3835    0.0847 C   0  0  0  0  0  0  0  0  0  0  0  0
   -0.3100   -1.5888    2.4740 H   0  0  0  0  0  0  0  0  0  0  0  0
    0.7829   -0.4302    3.4115 H   0  0  0  0  0  0  0  0  0  0  0  0
    2.1812    1.2182    2.1692 H   0  0  0  0  0  0  0  0  0  0  0  0
    2.9229    2.1907    0.0662 H   0  0  0  0  0  0  0  0  0  0  0  0
    1.8300    1.0320   -0.8713 H   0  0  0  0  0  0  0  0  0  0  0  0
   -1.2548   -1.2844   -2.4896 C   0  0  0  0  0  0  0  0  0  0  0  0
   -1.2548   -1.2844   -1.1653 C   0  0  0  0  0  0  0  0  0  0  0  0
   -1.2548   -0.0799   -0.2718 C   0  0  0  0  0  3  0  0  0  0  0  0
   -1.2548    1.2658   -0.9795 C   0  0  0  0  0  0  0  0  0  0  0  0
   -1.2548   -0.3675   -3.0670 H   0  0  0  0  0  0  0  0  0  0  0  0
   -1.2548   -2.2118   -3.0483 H   0  0  0  0  0  0  0  0  0  0  0  0
   -1.2548   -2.2402   -0.6471 H   0  0  0  0  0  0  0  0  0  0  0  0
   -0.2116   -0.1615    0.5240 H   0  0  0  0  0  0  0  0  0  0  0  0
   -2.1242   -0.1479    0.3913 H   0  0  0  0  0  0  0  0  0  0  0  0
   -2.1373    1.3808   -1.6119 H   0  0  0  0  0  0  0  0  0  0  0  0
   -0.3724    1.3808   -1.6119 H   0  0  0  0  0  0  0  0  0  0  0  0
   -1.2548    2.0802   -0.2542 H   0  0  0  0  0  0  0  0  0  0  0  0
  1  2  2  3
  1  5  1  0
  1  6  1  0
  2  3  1  0
  2 17  1  0
  3  4  2  3
  3  7  1  0
  4  8  1  0
  4  9  1  0
 10 11  2  3
 10 14  1  0
 10 15  1  0
 11 12  1  0
 11 16  1  0
 12 13  1  0
 12 18  1  0
 13 19  1  0
 13 20  1  0
 13 21  1  0
M  RAD  1  12   2
M  END
>  <reaction>  (5) 
rxn_1056

>  <mol_properties>  (5) 
{"1": {"label": "*3", "atom_type": "Cd"}, "2": {"label": "*4", "atom_type": "Cd"}, "10": {"label": "*0", "atom_type": "Cd"}, "11": {"label": "*1", "atom_type": "Cs"}, "16": {"label": "*2", "atom_type": "H0"}}

>  <type>  (5) 
unop_1

>  <geom_source>  (5) 
Heuristics

$$$$

     RDKit          3D

 21 19  0  0  0  0  0  0  0  0999 V2000
    0.8030    1.0207    2.4722 C   0  0  0  0  0  0  0  0  0  0  0  0
    0.7687    0.2003    1.4273 C   0  0  0  0  0  0  0  0  0  0  0  0
    1.9348   -0.4933    0.8967 C   0  0  0  0  0  0  0  0  0  0  0  0
    1.9005   -1.3137   -0.1481 C   0  0  0  0  0  0  0  0  0  0  0  0
   -0.0885    1.5161    2.8338 H   0  0  0  0  0  0  0  0  0  0  0  0
    1.7286    1.2225    3.0000 H   0  0  0  0  0  0  0  0  0  0  0  0
    2.8777   -0.3109    1.4051 H   0  0  0  0  0  0  0  0  0  0  0  0
    2.7920   -1.8091   -0.5098 H   0  0  0  0  0  0  0  0  0  0  0  0
    0.9749   -1.5155   -0.6759 H   0  0  0  0  0  0  0  0  0  0  0  0
   -1.3094   -0.8417   -2.3755 C   0  0  0  0  0  0  0  0  0  0  0  0
   -1.3094   -0.8417   -1.0512 C   0  0  0  0  0  0  0  0  0  0  0  0
   -1.3094    0.3628   -0.1577 C   0  0  0  0  0  3  0  0  0  0  0  0
   -1.3094    1.7085   -0.8655 C   0  0  0  0  0  0  0  0  0  0  0  0
   -1.3094    0.0752   -2.9530 H   0  0  0  0  0  0  0  0  0  0  0  0
   -1.3094   -1.7690   -2.9342 H   0  0  0  0  0  0  0  0  0  0  0  0
   -1.3094   -1.7974   -0.5330 H   0  0  0  0  0  0  0  0  0  0  0  0
   -0.2661    0.2812    0.6380 H   0  0  0  0  0  0  0  0  0  0  0  0
   -2.1788    0.2948    0.5054 H   0  0  0  0  0  0  0  0  0  0  0  0
   -2.1918    1.8236   -1.4979 H   0  0  0  0  0  0  0  0  0  0  0  0
   -0.4270    1.8236   -1.4979 H   0  0  0  0  0  0  0  0  0  0  0  0
   -1.3094    2.5229   -0.1401 H   0  0  0  0  0  0  0  0  0  0  0  0
  1  2  2  3
  1  5  1  0
  1  6  1  0
  2  3  1  0
  2 17  1  0
  3  4  2  3
  3  7  1  0
  4  8  1  0
  4  9  1  0
 10 11  2  3
 10 14  1  0
 10 15  1  0
 11 12  1  0
 11 16  1  0
 12 13  1  0
 12 18  1  0
 13 19  1  0
 13 20  1  0
 13 21  1  0
M  RAD  1  12   2
M  END
>  <reaction>  (6) 
rxn_1056

>  <mol_properties>  (6) 
{"1": {"label": "*3", "atom_type": "Cd"}, "2": {"label": "*4", "atom_type": "Cd"}, "10": {"label": "*0", "atom_type": "Cd"}, "11": {"label": "*1", "atom_type": "Cs"}, "16": {"label": "*2", "atom_type": "H0"}}

>  <type>  (6) 
unop_2

>  <geom_source>  (6) 
Heuristics

$$$$

     RDKit          3D

 21 19  0  0  0  0  0  0  0  0999 V2000
    0.9027   -1.3892    1.9183 C   0  0  0  0  0  0  0  0  0  0  0  0
    0.9186   -0.2826    1.1827 C   0  0  0  0  0  0  0  0  0  0  0  0
    1.4982    0.9799    1.6216 C   0  0  0  0  0  0  0  0  0  0  0  0
    1.5141    2.0865    0.8861 C   0  0  0  0  0  0  0  0  0  0  0  0
    0.4611   -2.3070    1.5527 H   0  0  0  0  0  0  0  0  0  0  0  0
    1.3333   -1.4106    2.9134 H   0  0  0  0  0  0  0  0  0  0  0  0
    1.9377    0.9897    2.6154 H   0  0  0  0  0  0  0  0  0  0  0  0
    1.9557    3.0042    1.2516 H   0  0  0  0  0  0  0  0  0  0  0  0
    1.0835    2.1079   -0.1090 H   0  0  0  0  0  0  0  0  0  0  0  0
   -1.1595   -1.3246   -2.6202 C   0  0  0  0  0  0  0  0  0  0  0  0
   -1.1595   -1.3246   -1.2958 C   0  0  0  0  0  0  0  0  0  0  0  0
   -1.1595   -0.1201   -0.4024 C   0  0  0  0  0  3  0  0  0  0  0  0
   -1.1595    1.2256   -1.1101 C   0  0  0  0  0  0  0  0  0  0  0  0
   -1.1595   -0.4077   -3.1976 H   0  0  0  0  0  0  0  0  0  0  0  0
   -1.1595   -2.2519   -3.1789 H   0  0  0  0  0  0  0  0  0  0  0  0
   -1.1595   -2.2803   -0.7777 H   0  0  0  0  0  0  0  0  0  0  0  0
   -0.1162   -0.2017    0.3934 H   0  0  0  0  0  0  0  0  0  0  0  0
   -2.0289   -0.1881    0.2608 H   0  0  0  0  0  0  0  0  0  0  0  0
   -2.0419    1.3407   -1.7425 H   0  0  0  0  0  0  0  0  0  0  0  0
   -0.2770    1.3407   -1.7425 H   0  0  0  0  0  0  0  0  0  0  0  0
   -1.1595    2.0400   -0.3848 H   0  0  0  0  0  0  0  0  0  0  0  0
  1  2  2  3
  1  5  1  0
  1  6  1  0
  2  3  1  0
  2 17  1  0
  3  4  2  3
  3  7  1  0
  4  8  1  0
  4  9  1  0
 10 11  2  3
 10 14  1  0
 10 15  1  0
 11 12  1  0
 11 16  1  0
 12 13  1  0
 12 18  1  0
 13 19  1  0
 13 20  1  0
 13 21  1  0
M  RAD  1  12   2
M  END
>  <reaction>  (7) 
rxn_1056

>  <mol_properties>  (7) 
{"1": {"label": "*3", "atom_type": "Cd"}, "2": {"label": "*4", "atom_type": "Cd"}, "10": {"label": "*0", "atom_type": "Cd"}, "11": {"label": "*1", "atom_type": "Cs"}, "16": {"label": "*2", "atom_type": "H0"}}

>  <type>  (7) 
unop_3

>  <geom_source>  (7) 
Heuristics

$$$$

     RDKit          3D

 21 19  0  0  0  0  0  0  0  0999 V2000
    1.5333    1.5119    1.3985 C   0  0  0  0  0  0  0  0  0  0  0  0
    1.0467    0.3180    1.0762 C   0  0  0  0  0  0  0  0  0  0  0  0
    1.1076   -0.8491    1.9461 C   0  0  0  0  0  0  0  0  0  0  0  0
    0.6211   -2.0430    1.6238 C   0  0  0  0  0  0  0  0  0  0  0  0
    1.4666    2.3531    0.7212 H   0  0  0  0  0  0  0  0  0  0  0  0
    2.0153    1.6846    2.3544 H   0  0  0  0  0  0  0  0  0  0  0  0
    1.5854   -0.7071    2.9117 H   0  0  0  0  0  0  0  0  0  0  0  0
    0.6878   -2.8843    2.3011 H   0  0  0  0  0  0  0  0  0  0  0  0
    0.1390   -2.2157    0.6679 H   0  0  0  0  0  0  0  0  0  0  0  0
   -1.0314   -0.7241   -2.7266 C   0  0  0  0  0  0  0  0  0  0  0  0
   -1.0314   -0.7241   -1.4023 C   0  0  0  0  0  0  0  0  0  0  0  0
   -1.0314    0.4804   -0.5088 C   0  0  0  0  0  3  0  0  0  0  0  0
   -1.0314    1.8262   -1.2166 C   0  0  0  0  0  0  0  0  0  0  0  0
   -1.0314    0.1928   -3.3041 H   0  0  0  0  0  0  0  0  0  0  0  0
   -1.0314   -1.6514   -3.2853 H   0  0  0  0  0  0  0  0  0  0  0  0
   -1.0314   -1.6798   -0.8841 H   0  0  0  0  0  0  0  0  0  0  0  0
    0.0119    0.3989    0.2869 H   0  0  0  0  0  0  0  0  0  0  0  0
   -1.9007    0.4125    0.1543 H   0  0  0  0  0  0  0  0  0  0  0  0
   -1.9138    1.9412   -1.8490 H   0  0  0  0  0  0  0  0  0  0  0  0
   -0.1489    1.9412   -1.8490 H   0  0  0  0  0  0  0  0  0  0  0  0
   -1.0314    2.6405   -0.4912 H   0  0  0  0  0  0  0  0  0  0  0  0
  1  2  2  3
  1  5  1  0
  1  6  1  0
  2  3  1  0
  2 17  1  0
  3  4  2  3
  3  7  1  0
  4  8  1  0
  4  9  1  0
 10 11  2  3
 10 14  1  0
 10 15  1  0
 11 12  1  0
 11 16  1  0
 12 13  1  0
 12 18  1  0
 13 19  1  0
 13 20  1  0
 13 21  1  0
M  RAD  1  12   2
M  END
>  <reaction>  (8) 
rxn_1056

>  <mol_properties>  (8) 
{"1": {"label": "*3", "atom_type": "Cd"}, "2": {"label": "*4", "atom_type": "Cd"}, "10": {"label": "*0", "atom_type": "Cd"}, "11": {"label": "*1", "atom_type": "Cs"}, "16": {"label": "*2", "atom_type": "H0"}}

>  <type>  (8) 
unop_4

>  <geom_source>  (8) 
Heuristics

$$$$

     RDKit          3D

 21 19  0  0  0  0  0  0  0  0999 V2000
    1.8355   -1.2796    0.9604 C   0  0  0  0  0  0  0  0  0  0  0  0
    1.0149   -0.2390    1.0588 C   0  0  0  0  0  0  0  0  0  0  0  0
    1.1899    0.8502    2.0104 C   0  0  0  0  0  0  0  0  0  0  0  0
    0.3693    1.8908    2.1088 C   0  0  0  0  0  0  0  0  0  0  0  0
    1.6679   -2.0678    0.2382 H   0  0  0  0  0  0  0  0  0  0  0  0
    2.7042   -1.3749    1.6027 H   0  0  0  0  0  0  0  0  0  0  0  0
    2.0523    0.7828    2.6681 H   0  0  0  0  0  0  0  0  0  0  0  0
    0.5369    2.6790    2.8310 H   0  0  0  0  0  0  0  0  0  0  0  0
   -0.4993    1.9861    1.4665 H   0  0  0  0  0  0  0  0  0  0  0  0
   -1.0632   -1.2810   -2.7440 C   0  0  0  0  0  0  0  0  0  0  0  0
   -1.0632   -1.2810   -1.4197 C   0  0  0  0  0  0  0  0  0  0  0  0
   -1.0632   -0.0765   -0.5262 C   0  0  0  0  0  3  0  0  0  0  0  0
   -1.0632    1.2693   -1.2339 C   0  0  0  0  0  0  0  0  0  0  0  0
   -1.0632   -0.3641   -3.3215 H   0  0  0  0  0  0  0  0  0  0  0  0
   -1.0632   -2.2083   -3.3027 H   0  0  0  0  0  0  0  0  0  0  0  0
   -1.0632   -2.2367   -0.9015 H   0  0  0  0  0  0  0  0  0  0  0  0
   -0.0199   -0.1580    0.2695 H   0  0  0  0  0  0  0  0  0  0  0  0
   -1.9326   -0.1445    0.1369 H   0  0  0  0  0  0  0  0  0  0  0  0
   -1.9456    1.3843   -1.8664 H   0  0  0  0  0  0  0  0  0  0  0  0
   -0.1807    1.3843   -1.8664 H   0  0  0  0  0  0  0  0  0  0  0  0
   -1.0632    2.0836   -0.5086 H   0  0  0  0  0  0  0  0  0  0  0  0
  1  2  2  3
  1  5  1  0
  1  6  1  0
  2  3  1  0
  2 17  1  0
  3  4  2  3
  3  7  1  0
  4  8  1  0
  4  9  1  0
 10 11  2  3
 10 14  1  0
 10 15  1  0
 11 12  1  0
 11 16  1  0
 12 13  1  0
 12 18  1  0
 13 19  1  0
 13 20  1  0
 13 21  1  0
M  RAD  1  12   2
M  END
>  <reaction>  (9) 
rxn_1056

>  <mol_properties>  (9) 
{"1": {"label": "*3", "atom_type": "Cd"}, "2": {"label": "*4", "atom_type": "Cd"}, "10": {"label": "*0", "atom_type": "Cd"}, "11": {"label": "*1", "atom_type": "Cs"}, "16": {"label": "*2", "atom_type": "H0"}}

>  <type>  (9) 
unop_5

>  <geom_source>  (9) 
Heuristics

$$$$

     RDKit          3D

 21 19  0  0  0  0  0  0  0  0999 V2000
    1.8306    1.3069    0.8435 C   0  0  0  0  0  0  0  0  0  0  0  0
    1.1125    0.1969    0.9787 C   0  0  0  0  0  0  0  0  0  0  0  0
    0.9079   -0.4925    2.2457 C   0  0  0  0  0  0  0  0  0  0  0  0
    0.1898   -1.6025    2.3809 C   0  0  0  0  0  0  0  0  0  0  0  0
    1.9570    1.7870   -0.1179 H   0  0  0  0  0  0  0  0  0  0  0  0
    2.3161    1.7711    1.6949 H   0  0  0  0  0  0  0  0  0  0  0  0
    1.3824   -0.0508    3.1178 H   0  0  0  0  0  0  0  0  0  0  0  0
    0.0634   -2.0826    3.3424 H   0  0  0  0  0  0  0  0  0  0  0  0
   -0.2956   -2.0667    1.5295 H   0  0  0  0  0  0  0  0  0  0  0  0
   -0.9655   -0.8452   -2.8241 C   0  0  0  0  0  0  0  0  0  0  0  0
   -0.9655   -0.8452   -1.4998 C   0  0  0  0  0  0  0  0  0  0  0  0
   -0.9655    0.3593   -0.6063 C   0  0  0  0  0  3  0  0  0  0  0  0
   -0.9655    1.7051   -1.3141 C   0  0  0  0  0  0  0  0  0  0  0  0
   -0.9655    0.0718   -3.4016 H   0  0  0  0  0  0  0  0  0  0  0  0
   -0.9655   -1.7725   -3.3828 H   0  0  0  0  0  0  0  0  0  0  0  0
   -0.9655   -1.8009   -0.9816 H   0  0  0  0  0  0  0  0  0  0  0  0
    0.0777    0.2778    0.1894 H   0  0  0  0  0  0  0  0  0  0  0  0
   -1.8349    0.2914    0.0568 H   0  0  0  0  0  0  0  0  0  0  0  0
   -1.8480    1.8201   -1.9465 H   0  0  0  0  0  0  0  0  0  0  0  0
   -0.0831    1.8201   -1.9465 H   0  0  0  0  0  0  0  0  0  0  0  0
   -0.9655    2.5195   -0.5887 H   0  0  0  0  0  0  0  0  0  0  0  0
  1  2  2  3
  1  5  1  0
  1  6  1  0
  2  3  1  0
  2 17  1  0
  3  4  2  3
  3  7  1  0
  4  8  1  0
  4  9  1  0
 10 11  2  3
 10 14  1  0
 10 15  1  0
 11 12  1  0
 11 16  1  0
 12 13  1  0
 12 18  1  0
 13 19  1  0
 13 20  1  0
 13 21  1  0
M  RAD  1  12   2
M  END
>  <reaction>  (10) 
rxn_1056

>  <mol_properties>  (10) 
{"1": {"label": "*3", "atom_type": "Cd"}, "2": {"label": "*4", "atom_type": "Cd"}, "10": {"label": "*0", "atom_type": "Cd"}, "11": {"label": "*1", "atom_type": "Cs"}, "16": {"label": "*2", "atom_type": "H0"}}

>  <type>  (10) 
unop_6

>  <geom_source>  (10) 
Heuristics

$$$$

     RDKit          3D

 21 19  0  0  0  0  0  0  0  0999 V2000
    2.1048    0.7496    0.3913 C   0  0  0  0  0  0  0  0  0  0  0  0
    1.1291    0.0340    0.9406 C   0  0  0  0  0  0  0  0  0  0  0  0
    0.8513   -0.0037    2.3703 C   0  0  0  0  0  0  0  0  0  0  0  0
   -0.1244   -0.7193    2.9197 C   0  0  0  0  0  0  0  0  0  0  0  0
    2.2763    0.7487   -0.6772 H   0  0  0  0  0  0  0  0  0  0  0  0
    2.7647    1.3610    0.9968 H   0  0  0  0  0  0  0  0  0  0  0  0
    1.4964    0.5993    3.0035 H   0  0  0  0  0  0  0  0  0  0  0  0
   -0.2960   -0.7185    3.9881 H   0  0  0  0  0  0  0  0  0  0  0  0
   -0.7844   -1.3308    2.3141 H   0  0  0  0  0  0  0  0  0  0  0  0
   -0.9490   -1.0081   -2.8622 C   0  0  0  0  0  0  0  0  0  0  0  0
   -0.9490   -1.0081   -1.5379 C   0  0  0  0  0  0  0  0  0  0  0  0
   -0.9490    0.1964   -0.6444 C   0  0  0  0  0  3  0  0  0  0  0  0
   -0.9490    1.5422   -1.3521 C   0  0  0  0  0  0  0  0  0  0  0  0
   -0.9490   -0.0911   -3.4397 H   0  0  0  0  0  0  0  0  0  0  0  0
   -0.9490   -1.9354   -3.4209 H   0  0  0  0  0  0  0  0  0  0  0  0
   -0.9490   -1.9638   -1.0197 H   0  0  0  0  0  0  0  0  0  0  0  0
    0.0943    0.1149    0.1513 H   0  0  0  0  0  0  0  0  0  0  0  0
   -1.8184    0.1285    0.0187 H   0  0  0  0  0  0  0  0  0  0  0  0
   -1.8315    1.6572   -1.9845 H   0  0  0  0  0  0  0  0  0  0  0  0
   -0.0666    1.6572   -1.9845 H   0  0  0  0  0  0  0  0  0  0  0  0
   -0.9490    2.3566   -0.6268 H   0  0  0  0  0  0  0  0  0  0  0  0
  1  2  2  3
  1  5  1  0
  1  6  1  0
  2  3  1  0
  2 17  1  0
  3  4  2  3
  3  7  1  0
  4  8  1  0
  4  9  1  0
 10 11  2  3
 10 14  1  0
 10 15  1  0
 11 12  1  0
 11 16  1  0
 12 13  1  0
 12 18  1  0
 13 19  1  0
 13 20  1  0
 13 21  1  0
M  RAD  1  12   2
M  END
>  <reaction>  (11) 
rxn_1056

>  <mol_properties>  (11) 
{"1": {"label": "*3", "atom_type": "Cd"}, "2": {"label": "*4", "atom_type": "Cd"}, "10": {"label": "*0", "atom_type": "Cd"}, "11": {"label": "*1", "atom_type": "Cs"}, "16": {"label": "*2", "atom_type": "H0"}}

>  <type>  (11) 
unop_7

>  <geom_source>  (11) 
Heuristics

$$$$

     RDKit          3D

 21 19  0  0  0  0  0  0  0  0999 V2000
    0.3312   -0.0483    2.6704 C   0  0  0  0  0  0  0  0  0  0  0  0
    0.7556   -0.1257    1.4136 C   0  0  0  0  0  0  0  0  0  0  0  0
    1.9876    0.4833    0.9301 C   0  0  0  0  0  0  0  0  0  0  0  0
    2.4121    0.4060   -0.3267 C   0  0  0  0  0  0  0  0  0  0  0  0
   -0.5916   -0.5164    2.9873 H   0  0  0  0  0  0  0  0  0  0  0  0
    0.8968    0.4884    3.4242 H   0  0  0  0  0  0  0  0  0  0  0  0
    2.5766    1.0284    1.6629 H   0  0  0  0  0  0  0  0  0  0  0  0
    3.3348    0.8740   -0.6436 H   0  0  0  0  0  0  0  0  0  0  0  0
    1.8465   -0.1307   -1.0805 H   0  0  0  0  0  0  0  0  0  0  0  0
   -1.3224   -1.1677   -2.3893 C   0  0  0  0  0  0  0  0  0  0  0  0
   -1.3224   -1.1677   -1.0650 C   0  0  0  0  0  0  0  0  0  0  0  0
   -1.3224    0.0368   -0.1715 C   0  0  0  0  0  3  0  0  0  0  0  0
   -1.3224    1.3825   -0.8792 C   0  0  0  0  0  0  0  0  0  0  0  0
   -1.3224   -0.2508   -2.9667 H   0  0  0  0  0  0  0  0  0  0  0  0
   -1.3224   -2.0950   -2.9480 H   0  0  0  0  0  0  0  0  0  0  0  0
   -1.3224   -2.1234   -0.5468 H   0  0  0  0  0  0  0  0  0  0  0  0
   -0.2792   -0.0448    0.6243 H   0  0  0  0  0  0  0  0  0  0  0  0
   -2.1918   -0.0312    0.4916 H   0  0  0  0  0  0  0  0  0  0  0  0
   -2.2049    1.4976   -1.5116 H   0  0  0  0  0  0  0  0  0  0  0  0
   -0.4400    1.4976   -1.5116 H   0  0  0  0  0  0  0  0  0  0  0  0
   -1.3224    2.1969   -0.1539 H   0  0  0  0  0  0  0  0  0  0  0  0
  1  2  2  3
  1  5  1  0
  1  6  1  0
  2  3  1  0
  2 17  1  0
  3  4  2  3
  3  7  1  0
  4  8  1  0
  4  9  1  0
 10 11  2  3
 10 14  1  0
 10 15  1  0
 11 12  1  0
 11 16  1  0
 12 13  1  0
 12 18  1  0
 13 19  1  0
 13 20  1  0
 13 21  1  0
M  RAD  1  12   2
M  END
>  <reaction>  (12) 
rxn_1056

>  <mol_properties>  (12) 
{"1": {"label": "*3", "atom_type": "Cd"}, "2": {"label": "*4", "atom_type": "Cd"}, "10": {"label": "*0", "atom_type": "Cd"}, "11": {"label": "*1", "atom_type": "Cs"}, "16": {"label": "*2", "atom_type": "H0"}}

>  <type>  (12) 
unop_8

>  <geom_source>  (12) 
Heuristics

$$$$

     RDKit          3D

 21 19  0  0  0  0  0  0  0  0999 V2000
    1.2849    1.4563    1.8850 C   0  0  0  0  0  0  0  0  0  0  0  0
    0.9493    0.3636    1.2072 C   0  0  0  0  0  0  0  0  0  0  0  0
    1.3971   -0.9792    1.5518 C   0  0  0  0  0  0  0  0  0  0  0  0
    1.0616   -2.0719    0.8741 C   0  0  0  0  0  0  0  0  0  0  0  0
    0.9292    2.4359    1.5938 H   0  0  0  0  0  0  0  0  0  0  0  0
    1.9289    1.4035    2.7560 H   0  0  0  0  0  0  0  0  0  0  0  0
    2.0442   -1.0642    2.4207 H   0  0  0  0  0  0  0  0  0  0  0  0
    1.4172   -3.0515    1.1652 H   0  0  0  0  0  0  0  0  0  0  0  0
    0.4176   -2.0191    0.0031 H   0  0  0  0  0  0  0  0  0  0  0  0
   -1.1287   -0.6784   -2.5957 C   0  0  0  0  0  0  0  0  0  0  0  0
   -1.1287   -0.6784   -1.2713 C   0  0  0  0  0  0  0  0  0  0  0  0
   -1.1287    0.5261   -0.3779 C   0  0  0  0  0  3  0  0  0  0  0  0
   -1.1287    1.8718   -1.0856 C   0  0  0  0  0  0  0  0  0  0  0  0
   -1.1287    0.2385   -3.1731 H   0  0  0  0  0  0  0  0  0  0  0  0
   -1.1287   -1.6058   -3.1543 H   0  0  0  0  0  0  0  0  0  0  0  0
   -1.1287   -1.6342   -0.7531 H   0  0  0  0  0  0  0  0  0  0  0  0
   -0.0855    0.4445    0.4179 H   0  0  0  0  0  0  0  0  0  0  0  0
   -1.9981    0.4581    0.2853 H   0  0  0  0  0  0  0  0  0  0  0  0
   -2.0112    1.9868   -1.7180 H   0  0  0  0  0  0  0  0  0  0  0  0
   -0.2463    1.9868   -1.7180 H   0  0  0  0  0  0  0  0  0  0  0  0
   -1.1287    2.6862   -0.3603 H   0  0  0  0  0  0  0  0  0  0  0  0
  1  2  2  3
  1  5  1  0
  1  6  1  0
  2  3  1  0
  2 17  1  0
  3  4  2  3
  3  7  1  0
  4  8  1  0
  4  9  1  0
 10 11  2  3
 10 14  1  0
 10 15  1  0
 11 12  1  0
 11 16  1  0
 12 13  1  0
 12 18  1  0
 13 19  1  0
 13 20  1  0
 13 21  1  0
M  RAD  1  12   2
M  END
>  <reaction>  (13) 
rxn_1056

>  <mol_properties>  (13) 
{"1": {"label": "*3", "atom_type": "Cd"}, "2": {"label": "*4", "atom_type": "Cd"}, "10": {"label": "*0", "atom_type": "Cd"}, "11": {"label": "*1", "atom_type": "Cs"}, "16": {"label": "*2", "atom_type": "H0"}}

>  <type>  (13) 
unop_9

>  <geom_source>  (13) 
Heuristics

$$$$

     RDKit          3D

 21 19  0  0  0  0  0  0  0  0999 V2000
    0.5113    0.5883    2.6436 C   0  0  0  0  0  0  0  0  0  0  0  0
    0.7354    0.0366    1.4556 C   0  0  0  0  0  0  0  0  0  0  0  0
    2.0404   -0.0061    0.8095 C   0  0  0  0  0  0  0  0  0  0  0  0
    2.2645   -0.5578   -0.3785 C   0  0  0  0  0  0  0  0  0  0  0  0
   -0.4755    0.5979    3.0874 H   0  0  0  0  0  0  0  0  0  0  0  0
    1.3124    1.0493    3.2109 H   0  0  0  0  0  0  0  0  0  0  0  0
    2.8638    0.4483    1.3541 H   0  0  0  0  0  0  0  0  0  0  0  0
    3.2513   -0.5674   -0.8223 H   0  0  0  0  0  0  0  0  0  0  0  0
    1.4634   -1.0188   -0.9457 H   0  0  0  0  0  0  0  0  0  0  0  0
   -1.3427   -1.0055   -2.3473 C   0  0  0  0  0  0  0  0  0  0  0  0
   -1.3427   -1.0055   -1.0229 C   0  0  0  0  0  0  0  0  0  0  0  0
   -1.3427    0.1990   -0.1295 C   0  0  0  0  0  3  0  0  0  0  0  0
   -1.3427    1.5448   -0.8372 C   0  0  0  0  0  0  0  0  0  0  0  0
   -1.3427   -0.0886   -2.9247 H   0  0  0  0  0  0  0  0  0  0  0  0
   -1.3427   -1.9328   -2.9060 H   0  0  0  0  0  0  0  0  0  0  0  0
   -1.3427   -1.9612   -0.5048 H   0  0  0  0  0  0  0  0  0  0  0  0
   -0.2994    0.1175    0.6663 H   0  0  0  0  0  0  0  0  0  0  0  0
   -2.2121    0.1311    0.5336 H   0  0  0  0  0  0  0  0  0  0  0  0
   -2.2252    1.6598   -1.4696 H   0  0  0  0  0  0  0  0  0  0  0  0
   -0.4603    1.6598   -1.4696 H   0  0  0  0  0  0  0  0  0  0  0  0
   -1.3427    2.3591   -0.1119 H   0  0  0  0  0  0  0  0  0  0  0  0
  1  2  2  3
  1  5  1  0
  1  6  1  0
  2  3  1  0
  2 17  1  0
  3  4  2  3
  3  7  1  0
  4  8  1  0
  4  9  1  0
 10 11  2  3
 10 14  1  0
 10 15  1  0
 11 12  1  0
 11 16  1  0
 12 13  1  0
 12 18  1  0
 13 19  1  0
 13 20  1  0
 13 21  1  0
M  RAD  1  12   2
M  END
>  <reaction>  (14) 
rxn_1056

>  <mol_properties>  (14) 
{"1": {"label": "*3", "atom_type": "Cd"}, "2": {"label": "*4", "atom_type": "Cd"}, "10": {"label": "*0", "atom_type": "Cd"}, "11": {"label": "*1", "atom_type": "Cs"}, "16": {"label": "*2", "atom_type": "H0"}}

>  <type>  (14) 
unop_10

>  <geom_source>  (14) 
Heuristics

$$$$

     RDKit          3D

 21 19  0  0  0  0  0  0  0  0999 V2000
    2.2349   -0.1853    0.2952 C   0  0  0  0  0  0  0  0  0  0  0  0
    1.0923   -0.1257    0.9711 C   0  0  0  0  0  0  0  0  0  0  0  0
    0.9535    0.4876    2.2853 C   0  0  0  0  0  0  0  0  0  0  0  0
   -0.1891    0.5472    2.9612 C   0  0  0  0  0  0  0  0  0  0  0  0
    2.2934   -0.6509   -0.6799 H   0  0  0  0  0  0  0  0  0  0  0  0
    3.1508    0.2320    0.6989 H   0  0  0  0  0  0  0  0  0  0  0  0
    1.8549    0.9149    2.7163 H   0  0  0  0  0  0  0  0  0  0  0  0
   -0.2477    1.0129    3.9362 H   0  0  0  0  0  0  0  0  0  0  0  0
   -1.1050    0.1299    2.5575 H   0  0  0  0  0  0  0  0  0  0  0  0
   -0.9858   -1.1677   -2.8318 C   0  0  0  0  0  0  0  0  0  0  0  0
   -0.9858   -1.1677   -1.5074 C   0  0  0  0  0  0  0  0  0  0  0  0
   -0.9858    0.0368   -0.6140 C   0  0  0  0  0  3  0  0  0  0  0  0
   -0.9858    1.3826   -1.3217 C   0  0  0  0  0  0  0  0  0  0  0  0
   -0.9858   -0.2508   -3.4092 H   0  0  0  0  0  0  0  0  0  0  0  0
   -0.9858   -2.0950   -3.3904 H   0  0  0  0  0  0  0  0  0  0  0  0
   -0.9858   -2.1234   -0.9892 H   0  0  0  0  0  0  0  0  0  0  0  0
    0.0575   -0.0447    0.1818 H   0  0  0  0  0  0  0  0  0  0  0  0
   -1.8552   -0.0311    0.0492 H   0  0  0  0  0  0  0  0  0  0  0  0
   -1.8682    1.4976   -1.9541 H   0  0  0  0  0  0  0  0  0  0  0  0
   -0.1034    1.4976   -1.9541 H   0  0  0  0  0  0  0  0  0  0  0  0
   -0.9858    2.1969   -0.5964 H   0  0  0  0  0  0  0  0  0  0  0  0
  1  2  2  3
  1  5  1  0
  1  6  1  0
  2  3  1  0
  2 17  1  0
  3  4  2  3
  3  7  1  0
  4  8  1  0
  4  9  1  0
 10 11  2  3
 10 14  1  0
 10 15  1  0
 11 12  1  0
 11 16  1  0
 12 13  1  0
 12 18  1  0
 13 19  1  0
 13 20  1  0
 13 21  1  0
M  RAD  1  12   2
M  END
>  <reaction>  (15) 
rxn_1056

>  <mol_properties>  (15) 
{"1": {"label": "*3", "atom_type": "Cd"}, "2": {"label": "*4", "atom_type": "Cd"}, "10": {"label": "*0", "atom_type": "Cd"}, "11": {"label": "*1", "atom_type": "Cs"}, "16": {"label": "*2", "atom_type": "H0"}}

>  <type>  (15) 
unop_11

>  <geom_source>  (15) 
Heuristics

$$$$

     RDKit          3D

 21 19  0  0  0  0  0  0  0  0999 V2000
    1.0681    1.2797    2.2289 C   0  0  0  0  0  0  0  0  0  0  0  0
    0.8472    0.3205    1.3361 C   0  0  0  0  0  0  0  0  0  0  0  0
    1.6995   -0.8490    1.1682 C   0  0  0  0  0  0  0  0  0  0  0  0
    1.4785   -1.8082    0.2753 C   0  0  0  0  0  0  0  0  0  0  0  0
    0.4084    2.1326    2.3201 H   0  0  0  0  0  0  0  0  0  0  0  0
    1.9199    1.2404    2.8990 H   0  0  0  0  0  0  0  0  0  0  0  0
    2.5618   -0.9164    1.8259 H   0  0  0  0  0  0  0  0  0  0  0  0
    2.1382   -2.6611    0.1842 H   0  0  0  0  0  0  0  0  0  0  0  0
    0.6267   -1.7689   -0.3947 H   0  0  0  0  0  0  0  0  0  0  0  0
   -1.2309   -0.7215   -2.4667 C   0  0  0  0  0  0  0  0  0  0  0  0
   -1.2309   -0.7215   -1.1424 C   0  0  0  0  0  0  0  0  0  0  0  0
   -1.2309    0.4830   -0.2489 C   0  0  0  0  0  3  0  0  0  0  0  0
   -1.2309    1.8287   -0.9566 C   0  0  0  0  0  0  0  0  0  0  0  0
   -1.2309    0.1954   -3.0442 H   0  0  0  0  0  0  0  0  0  0  0  0
   -1.2309   -1.6489   -3.0254 H   0  0  0  0  0  0  0  0  0  0  0  0
   -1.2309   -1.6772   -0.6242 H   0  0  0  0  0  0  0  0  0  0  0  0
   -0.1877    0.4014    0.5468 H   0  0  0  0  0  0  0  0  0  0  0  0
   -2.1003    0.4150    0.4142 H   0  0  0  0  0  0  0  0  0  0  0  0
   -2.1134    1.9437   -1.5891 H   0  0  0  0  0  0  0  0  0  0  0  0
   -0.3485    1.9437   -1.5891 H   0  0  0  0  0  0  0  0  0  0  0  0
   -1.2309    2.6431   -0.2313 H   0  0  0  0  0  0  0  0  0  0  0  0
  1  2  2  3
  1  5  1  0
  1  6  1  0
  2  3  1  0
  2 17  1  0
  3  4  2  3
  3  7  1  0
  4  8  1  0
  4  9  1  0
 10 11  2  3
 10 14  1  0
 10 15  1  0
 11 12  1  0
 11 16  1  0
 12 13  1  0
 12 18  1  0
 13 19  1  0
 13 20  1  0
 13 21  1  0
M  RAD  1  12   2
M  END
>  <reaction>  (16) 
rxn_1056

>  <mol_properties>  (16) 
{"1": {"label": "*3", "atom_type": "Cd"}, "2": {"label": "*4", "atom_type": "Cd"}, "10": {"label": "*0", "atom_type": "Cd"}, "11": {"label": "*1", "atom_type": "Cs"}, "16": {"label": "*2", "atom_type": "H0"}}

>  <type>  (16) 
unop_12

>  <geom_source>  (16) 
Heuristics

$$$$

     RDKit          3D

 21 19  0  0  0  0  0  0  0  0999 V2000
    2.0727   -1.2904    1.2220 C   0  0  0  0  0  0  0  0  0  0  0  0
    0.9779   -0.6843    0.3557 C   0  0  0  0  0  3  0  0  0  0  0  0
    1.5556   -0.0483   -0.8701 C   0  0  0  0  0  0  0  0  0  0  0  0
   -2.3287    0.2309   -0.5430 C   0  0  0  0  0  0  0  0  0  0  0  0
   -1.3443    0.4910    0.5181 C   0  0  0  0  0  0  0  0  0  0  0  0
   -1.9488   -0.2183   -1.7351 C   0  0  0  0  0  0  0  0  0  0  0  0
   -1.7205    0.9403    1.7113 C   0  0  0  0  0  0  0  0  0  0  0  0
    1.4587    1.2675   -1.0616 C   0  0  0  0  0  0  0  0  0  0  0  0
    1.6167   -1.7363    2.1303 H   0  0  0  0  0  0  0  0  0  0  0  0
    2.6130   -2.0848    0.6639 H   0  0  0  0  0  0  0  0  0  0  0  0
    2.7910   -0.5033    1.5351 H   0  0  0  0  0  0  0  0  0  0  0  0
    0.2473   -1.4672    0.0609 H   0  0  0  0  0  0  0  0  0  0  0  0
   -3.3823    0.4056   -0.3583 H   0  0  0  0  0  0  0  0  0  0  0  0
   -0.1811    0.2975    0.3123 H   0  0  0  0  0  0  0  0  0  0  0  0
    2.0650   -0.6642   -1.6056 H   0  0  0  0  0  0  0  0  0  0  0  0
   -2.6879   -0.4039   -2.5037 H   0  0  0  0  0  0  0  0  0  0  0  0
   -0.9055   -0.4051   -1.9583 H   0  0  0  0  0  0  0  0  0  0  0  0
   -0.9777    1.1242    2.4761 H   0  0  0  0  0  0  0  0  0  0  0  0
   -2.7629    1.1281    1.9377 H   0  0  0  0  0  0  0  0  0  0  0  0
    1.8844    1.7196   -1.9515 H   0  0  0  0  0  0  0  0  0  0  0  0
    0.9574    1.9013   -0.3361 H   0  0  0  0  0  0  0  0  0  0  0  0
  1  2  1  0
  1  9  1  0
  1 10  1  0
  1 11  1  0
  2  3  1  0
  2 12  1  0
  3  8  2  3
  3 15  1  0
  4  6  2  3
  4  5  1  0
  4 13  1  0
  5  7  2  3
  5 14  1  0
  6 16  1  0
  6 17  1  0
  7 18  1  0
  7 19  1  0
  8 20  1  0
  8 21  1  0
M  RAD  1   2   2
M  END
>  <reaction>  (17) 
rxn_1056

>  <mol_properties>  (17) 
{"1": {"label": "*3", "atom_type": "Cd"}, "2": {"label": "*4", "atom_type": "Cd"}, "10": {"label": "*0", "atom_type": "Cd"}, "11": {"label": "*1", "atom_type": "Cs"}, "16": {"label": "*2", "atom_type": "H0"}}

>  <type>  (17) 
unop_13

>  <geom_source>  (17) 
AutoTST

$$$$
