
     RDKit          3D

 12 11  0  0  0  0  0  0  0  0999 V2000
    2.1696    0.6854    1.1310 C   0  0  0  0  0  0  0  0  0  0  0  0
    1.2518    0.4145    0.4134 C   0  0  0  0  0  0  0  0  0  0  0  0
    0.1391    0.0443   -0.4683 C   0  0  0  0  0  0  0  0  0  0  0  0
   -0.2054   -1.4492   -0.3339 C   0  0  0  0  0  0  0  0  0  0  0  0
   -1.0375    0.8853   -0.2222 C   0  0  0  0  0  0  0  0  0  0  0  0
   -2.0160    1.5463   -0.0311 C   0  0  0  0  0  0  0  0  0  0  0  0
    2.9819    0.9356    1.7702 H   0  0  0  0  0  0  0  0  0  0  0  0
    0.4629    0.2285   -1.4981 H   0  0  0  0  0  0  0  0  0  0  0  0
   -0.5327   -1.6703    0.6812 H   0  0  0  0  0  0  0  0  0  0  0  0
    0.6727   -2.0535   -0.5593 H   0  0  0  0  0  0  0  0  0  0  0  0
   -1.0064   -1.7081   -1.0256 H   0  0  0  0  0  0  0  0  0  0  0  0
   -2.8802    2.1413    0.1426 H   0  0  0  0  0  0  0  0  0  0  0  0
  1  2  3  0
  1  7  1  0
  2  3  1  0
  3  4  1  0
  3  5  1  0
  3  8  1  0
  4  9  1  0
  4 10  1  0
  4 11  1  0
  5  6  3  0
  6 12  1  0
M  END
>  <reaction>  (1) 
rxn_1396

>  <mol_properties>  (1) 
{"2": {"label": "donator", "atom_type": "Cs"}, "7": {"label": "d_hydrogen", "atom_type": "H0"}}

>  <type>  (1) 
r1h

$$$$

     RDKit          3D

 14 13  0  0  0  0  0  0  0  0999 V2000
    1.0767   -1.6838    1.2931 C   0  0  0  0  0  0  0  0  0  0  0  0
    1.0020   -0.3665    0.9163 C   0  0  0  0  0  0  0  0  0  0  0  0
    1.3965    0.7260    1.6806 C   0  0  0  0  0  3  0  0  0  0  0  0
    1.2666    2.1197    1.1619 C   0  0  0  0  0  0  0  0  0  0  0  0
    1.9670    0.5479    3.0536 C   0  0  0  0  0  0  0  0  0  0  0  0
    0.7448   -2.4705    0.6300 H   0  0  0  0  0  0  0  0  0  0  0  0
    1.4663   -1.9826    2.2578 H   0  0  0  0  0  0  0  0  0  0  0  0
    0.5980   -0.1511   -0.0695 H   0  0  0  0  0  0  0  0  0  0  0  0
    0.6296    2.7241    1.8172 H   0  0  0  0  0  0  0  0  0  0  0  0
    2.2410    2.6200    1.1341 H   0  0  0  0  0  0  0  0  0  0  0  0
    0.8426    2.1448    0.1579 H   0  0  0  0  0  0  0  0  0  0  0  0
    2.8745   -0.0634    3.0328 H   0  0  0  0  0  0  0  0  0  0  0  0
    1.2599    0.0408    3.7173 H   0  0  0  0  0  0  0  0  0  0  0  0
    2.2205    1.5071    3.5054 H   0  0  0  0  0  0  0  0  0  0  0  0
  1  2  2  3
  1  6  1  0
  1  7  1  0
  2  3  1  0
  2  8  1  0
  3  4  1  0
  3  5  1  0
  4  9  1  0
  4 10  1  0
  4 11  1  0
  5 12  1  0
  5 13  1  0
  5 14  1  0
M  RAD  1   3   2
M  END
>  <reaction>  (2) 
rxn_1396

>  <mol_properties>  (2) 
{"2": {"label": "acceptor", "atom_type": "Cs"}}

>  <type>  (2) 
r2

$$$$

     RDKit          3D

 15 14  0  0  0  0  0  0  0  0999 V2000
    2.1256    0.4849   -0.6284 C   0  0  0  0  0  0  0  0  0  0  0  0
    1.1128    0.2141    0.1794 C   0  0  0  0  0  0  0  0  0  0  0  0
   -0.3017   -0.0425   -0.2513 C   0  0  0  0  0  0  0  0  0  0  0  0
   -1.2427    1.0075    0.3423 C   0  0  0  0  0  0  0  0  0  0  0  0
   -0.7381   -1.4526    0.1504 C   0  0  0  0  0  0  0  0  0  0  0  0
    3.1243    0.6602   -0.2486 H   0  0  0  0  0  0  0  0  0  0  0  0
    1.9908    0.5411   -1.7036 H   0  0  0  0  0  0  0  0  0  0  0  0
    1.2888    0.1665    1.2533 H   0  0  0  0  0  0  0  0  0  0  0  0
   -0.3426    0.0343   -1.3424 H   0  0  0  0  0  0  0  0  0  0  0  0
   -0.9570    2.0133    0.0315 H   0  0  0  0  0  0  0  0  0  0  0  0
   -1.2189    0.9728    1.4350 H   0  0  0  0  0  0  0  0  0  0  0  0
   -2.2723    0.8287    0.0254 H   0  0  0  0  0  0  0  0  0  0  0  0
   -0.6964   -1.5744    1.2363 H   0  0  0  0  0  0  0  0  0  0  0  0
   -0.0911   -2.2079   -0.2978 H   0  0  0  0  0  0  0  0  0  0  0  0
   -1.7646   -1.6461   -0.1677 H   0  0  0  0  0  0  0  0  0  0  0  0
  1  2  2  3
  1  6  1  0
  1  7  1  0
  2  3  1  0
  2  8  1  0
  3  4  1  0
  3  5  1  0
  3  9  1  0
  4 10  1  0
  4 11  1  0
  4 12  1  0
  5 13  1  0
  5 14  1  0
  5 15  1  0
M  END
>  <reaction>  (3) 
rxn_1396

>  <mol_properties>  (3) 
{"0": {"label": "a_hydrogen", "atom_type": "H0"}, "3": {"label": "acceptor", "atom_type": "Cs"}}

>  <type>  (3) 
r2h

$$$$

     RDKit          3D

 26 24  0  0  0  0  0  0  0  0999 V2000
   -1.0467   -1.3116   -2.4779 C   0  0  0  0  0  0  0  0  0  0  0  0
   -1.1736   -0.7984   -1.3999 C   0  0  0  0  0  0  0  0  0  0  0  0
   -1.2434   -0.1445   -0.1241 C   0  0  0  0  0  0  0  0  0  0  0  0
   -1.7004    1.3062   -0.1580 C   0  0  0  0  0  0  0  0  0  0  0  0
   -1.7660   -0.9397    0.9496 C   0  0  0  0  0  0  0  0  0  0  0  0
   -2.1590   -1.5789    1.8874 C   0  0  0  0  0  0  0  0  0  0  0  0
   -0.9614   -1.7752   -3.4309 H   0  0  0  0  0  0  0  0  0  0  0  0
    0.0608   -0.0054    0.1842 H   0  0  0  0  0  0  0  0  0  0  0  0
   -2.7392    1.3793   -0.4851 H   0  0  0  0  0  0  0  0  0  0  0  0
   -1.0752    1.8733   -0.8481 H   0  0  0  0  0  0  0  0  0  0  0  0
   -1.6188    1.7448    0.8363 H   0  0  0  0  0  0  0  0  0  0  0  0
   -2.5254   -2.1529    2.7040 H   0  0  0  0  0  0  0  0  0  0  0  0
    2.1709    2.2222   -0.5320 C   0  0  0  0  0  0  0  0  0  0  0  0
    1.9026    0.9130   -0.5513 C   0  0  0  0  0  0  0  0  0  0  0  0
    1.3562    0.1173    0.5435 C   0  0  0  0  0  3  0  0  0  0  0  0
    1.2435    0.7555    1.9046 C   0  0  0  0  0  0  0  0  0  0  0  0
    1.7554   -1.3396    0.5556 C   0  0  0  0  0  0  0  0  0  0  0  0
    2.5483    2.7242   -1.4131 H   0  0  0  0  0  0  0  0  0  0  0  0
    2.0369    2.8277    0.3559 H   0  0  0  0  0  0  0  0  0  0  0  0
    2.0693    0.3681   -1.4770 H   0  0  0  0  0  0  0  0  0  0  0  0
    0.6462    0.1283    2.5683 H   0  0  0  0  0  0  0  0  0  0  0  0
    2.2329    0.8807    2.3568 H   0  0  0  0  0  0  0  0  0  0  0  0
    0.7725    1.7382    1.8572 H   0  0  0  0  0  0  0  0  0  0  0  0
    2.7776   -1.4565    0.9306 H   0  0  0  0  0  0  0  0  0  0  0  0
    1.7110   -1.7687   -0.4466 H   0  0  0  0  0  0  0  0  0  0  0  0
    1.0928   -1.9175    1.2027 H   0  0  0  0  0  0  0  0  0  0  0  0
  1  2  3  0
  1  7  1  0
  2  3  1  0
  3  4  1  0
  3  5  1  0
  3  8  1  0
  4  9  1  0
  4 10  1  0
  4 11  1  0
  5  6  3  0
  6 12  1  0
 13 14  2  3
 13 18  1  0
 13 19  1  0
 14 15  1  0
 14 20  1  0
 15 16  1  0
 15 17  1  0
 16 21  1  0
 16 22  1  0
 16 23  1  0
 17 24  1  0
 17 25  1  0
 17 26  1  0
M  RAD  1  15   2
M  END
>  <reaction>  (4) 
rxn_1396

>  <mol_properties>  (4) 
{"1": {"label": "*0", "atom_type": "Ct"}, "2": {"label": "*1", "atom_type": "Cs"}, "7": {"label": "*2", "atom_type": "H0"}, "13": {"label": "*4", "atom_type": "Cd"}, "14": {"label": "*3", "atom_type": "Cs"}}

>  <type>  (4) 
ts

$$$$

     RDKit          3D

 26 24  0  0  0  0  0  0  0  0999 V2000
   -1.0212   -0.0343   -3.0246 C   0  0  0  0  0  0  0  0  0  0  0  0
   -1.0212   -0.0343   -1.8284 C   0  0  0  0  0  0  0  0  0  0  0  0
   -1.0212    0.0057   -0.3619 C   0  0  0  0  0  3  0  0  0  0  0  0
   -1.6592    1.3049    0.1601 C   0  0  0  0  0  0  0  0  0  0  0  0
   -1.6830   -1.1755    0.2029 C   0  0  0  0  0  0  0  0  0  0  0  0
   -2.2313   -2.1208    0.6894 C   0  0  0  0  0  0  0  0  0  0  0  0
   -1.0212   -0.0343   -4.0880 H   0  0  0  0  0  0  0  0  0  0  0  0
    0.2324   -0.0215    0.0313 H   0  0  0  0  0  0  0  0  0  0  0  0
   -2.7025    1.3622   -0.1476 H   0  0  0  0  0  0  0  0  0  0  0  0
   -1.1266    2.1664   -0.2415 H   0  0  0  0  0  0  0  0  0  0  0  0
   -1.6120    1.3294    1.2483 H   0  0  0  0  0  0  0  0  0  0  0  0
   -2.7187   -2.9612    1.1219 H   0  0  0  0  0  0  0  0  0  0  0  0
    1.2742    2.4032    0.9294 C   0  0  0  0  0  0  0  0  0  0  0  0
    1.7527    1.2016    1.2099 C   0  0  0  0  0  0  0  0  0  0  0  0
    1.4854   -0.0488    0.4242 C   0  0  0  0  0  0  0  0  0  0  0  0
    0.7710   -1.0862    1.2924 C   0  0  0  0  0  0  0  0  0  0  0  0
    2.7886   -0.6172   -0.1404 C   0  0  0  0  0  0  0  0  0  0  0  0
    1.5085    3.2653    1.5414 H   0  0  0  0  0  0  0  0  0  0  0  0
    0.6281    2.5680    0.0735 H   0  0  0  0  0  0  0  0  0  0  0  0
    2.3984    1.0771    2.0783 H   0  0  0  0  0  0  0  0  0  0  0  0
    0.5680   -1.9951    0.7222 H   0  0  0  0  0  0  0  0  0  0  0  0
    1.3893   -1.3618    2.1511 H   0  0  0  0  0  0  0  0  0  0  0  0
   -0.1761   -0.6987    1.6704 H   0  0  0  0  0  0  0  0  0  0  0  0
    3.4783   -0.8763    0.6676 H   0  0  0  0  0  0  0  0  0  0  0  0
    3.2859    0.1061   -0.7882 H   0  0  0  0  0  0  0  0  0  0  0  0
    2.5976   -1.5233   -0.7192 H   0  0  0  0  0  0  0  0  0  0  0  0
  1  2  3  0
  1  7  1  0
  2  3  1  0
  3  4  1  0
  3  5  1  0
  4  9  1  0
  4 10  1  0
  4 11  1  0
  5  6  3  0
  6 12  1  0
  8 15  1  0
 13 14  2  3
 13 18  1  0
 13 19  1  0
 14 15  1  0
 14 20  1  0
 15 16  1  0
 15 17  1  0
 16 21  1  0
 16 22  1  0
 16 23  1  0
 17 24  1  0
 17 25  1  0
 17 26  1  0
M  RAD  1   3   2
M  END
>  <reaction>  (5) 
rxn_1396

>  <mol_properties>  (5) 
{"1": {"label": "*0", "atom_type": "Ct"}, "2": {"label": "*1", "atom_type": "Cs"}, "7": {"label": "*2", "atom_type": "H0"}, "13": {"label": "*4", "atom_type": "Cd"}, "14": {"label": "*3", "atom_type": "Cs"}}

>  <type>  (5) 
unop_1

>  <geom_source>  (5) 
Heuristics

$$$$

     RDKit          3D

 26 24  0  0  0  0  0  0  0  0999 V2000
   -1.1198    0.0320   -2.7290 C   0  0  0  0  0  0  0  0  0  0  0  0
   -1.1198    0.0320   -1.5328 C   0  0  0  0  0  0  0  0  0  0  0  0
   -1.1198    0.0721   -0.0663 C   0  0  0  0  0  3  0  0  0  0  0  0
   -1.7578    1.3713    0.4557 C   0  0  0  0  0  0  0  0  0  0  0  0
   -1.7816   -1.1091    0.4985 C   0  0  0  0  0  0  0  0  0  0  0  0
   -2.3299   -2.0544    0.9850 C   0  0  0  0  0  0  0  0  0  0  0  0
   -1.1198    0.0320   -3.7925 H   0  0  0  0  0  0  0  0  0  0  0  0
    0.1338    0.0449    0.3269 H   0  0  0  0  0  0  0  0  0  0  0  0
   -2.8011    1.4286    0.1480 H   0  0  0  0  0  0  0  0  0  0  0  0
   -1.2252    2.2328    0.0541 H   0  0  0  0  0  0  0  0  0  0  0  0
   -1.7106    1.3958    1.5439 H   0  0  0  0  0  0  0  0  0  0  0  0
   -2.8173   -2.8948    1.4175 H   0  0  0  0  0  0  0  0  0  0  0  0
    1.8469    0.8867   -1.5921 C   0  0  0  0  0  0  0  0  0  0  0  0
    2.2200    0.6776   -0.3396 C   0  0  0  0  0  0  0  0  0  0  0  0
    1.3868    0.0176    0.7198 C   0  0  0  0  0  0  0  0  0  0  0  0
    1.1243    0.9842    1.8762 C   0  0  0  0  0  0  0  0  0  0  0  0
    2.0670   -1.2576    1.2211 C   0  0  0  0  0  0  0  0  0  0  0  0
    2.5010    1.3706   -2.3067 H   0  0  0  0  0  0  0  0  0  0  0  0
    0.8692    0.5798   -1.9488 H   0  0  0  0  0  0  0  0  0  0  0  0
    3.2099    1.0005   -0.0200 H   0  0  0  0  0  0  0  0  0  0  0  0
    0.5120    0.5101    2.6462 H   0  0  0  0  0  0  0  0  0  0  0  0
    2.0644    1.2938    2.3409 H   0  0  0  0  0  0  0  0  0  0  0  0
    0.6085    1.8811    1.5306 H   0  0  0  0  0  0  0  0  0  0  0  0
    3.0405   -1.0274    1.6626 H   0  0  0  0  0  0  0  0  0  0  0  0
    2.2261   -1.9656    0.4065 H   0  0  0  0  0  0  0  0  0  0  0  0
    1.4603   -1.7450    1.9872 H   0  0  0  0  0  0  0  0  0  0  0  0
  1  2  3  0
  1  7  1  0
  2  3  1  0
  3  4  1  0
  3  5  1  0
  4  9  1  0
  4 10  1  0
  4 11  1  0
  5  6  3  0
  6 12  1  0
  8 15  1  0
 13 14  2  3
 13 18  1  0
 13 19  1  0
 14 15  1  0
 14 20  1  0
 15 16  1  0
 15 17  1  0
 16 21  1  0
 16 22  1  0
 16 23  1  0
 17 24  1  0
 17 25  1  0
 17 26  1  0
M  RAD  1   3   2
M  END
>  <reaction>  (6) 
rxn_1396

>  <mol_properties>  (6) 
{"1": {"label": "*0", "atom_type": "Ct"}, "2": {"label": "*1", "atom_type": "Cs"}, "7": {"label": "*2", "atom_type": "H0"}, "13": {"label": "*4", "atom_type": "Cd"}, "14": {"label": "*3", "atom_type": "Cs"}}

>  <type>  (6) 
unop_2

>  <geom_source>  (6) 
Heuristics

$$$$

     RDKit          3D

 26 24  0  0  0  0  0  0  0  0999 V2000
   -1.0036    0.0479   -3.0902 C   0  0  0  0  0  0  0  0  0  0  0  0
   -1.0036    0.0479   -1.8940 C   0  0  0  0  0  0  0  0  0  0  0  0
   -1.0036    0.0879   -0.4275 C   0  0  0  0  0  3  0  0  0  0  0  0
   -1.6416    1.3872    0.0945 C   0  0  0  0  0  0  0  0  0  0  0  0
   -1.6654   -1.0933    0.1373 C   0  0  0  0  0  0  0  0  0  0  0  0
   -2.2137   -2.0386    0.6238 C   0  0  0  0  0  0  0  0  0  0  0  0
   -1.0036    0.0479   -4.1536 H   0  0  0  0  0  0  0  0  0  0  0  0
    0.2500    0.0607   -0.0343 H   0  0  0  0  0  0  0  0  0  0  0  0
   -2.6849    1.4444   -0.2132 H   0  0  0  0  0  0  0  0  0  0  0  0
   -1.1090    2.2486   -0.3071 H   0  0  0  0  0  0  0  0  0  0  0  0
   -1.5944    1.4116    1.1827 H   0  0  0  0  0  0  0  0  0  0  0  0
   -2.7011   -2.8790    1.0563 H   0  0  0  0  0  0  0  0  0  0  0  0
    0.7907    1.7537    2.0454 C   0  0  0  0  0  0  0  0  0  0  0  0
    1.5987    0.7802    1.6568 C   0  0  0  0  0  0  0  0  0  0  0  0
    1.5030    0.0335    0.3586 C   0  0  0  0  0  0  0  0  0  0  0  0
    1.2533   -1.4544    0.6120 C   0  0  0  0  0  0  0  0  0  0  0  0
    2.7705    0.2379   -0.4733 C   0  0  0  0  0  0  0  0  0  0  0  0
    0.9177    2.2512    2.9988 H   0  0  0  0  0  0  0  0  0  0  0  0
   -0.0305    2.0892    1.4206 H   0  0  0  0  0  0  0  0  0  0  0  0
    2.4118    0.4720    2.3128 H   0  0  0  0  0  0  0  0  0  0  0  0
    1.1757   -2.0005   -0.3305 H   0  0  0  0  0  0  0  0  0  0  0  0
    2.0762   -1.8915    1.1843 H   0  0  0  0  0  0  0  0  0  0  0  0
    0.3323   -1.6089    1.1757 H   0  0  0  0  0  0  0  0  0  0  0  0
    3.6470   -0.1392    0.0606 H   0  0  0  0  0  0  0  0  0  0  0  0
    2.9355    1.2949   -0.6865 H   0  0  0  0  0  0  0  0  0  0  0  0
    2.7019   -0.2980   -1.4222 H   0  0  0  0  0  0  0  0  0  0  0  0
  1  2  3  0
  1  7  1  0
  2  3  1  0
  3  4  1  0
  3  5  1  0
  4  9  1  0
  4 10  1  0
  4 11  1  0
  5  6  3  0
  6 12  1  0
  8 15  1  0
 13 14  2  3
 13 18  1  0
 13 19  1  0
 14 15  1  0
 14 20  1  0
 15 16  1  0
 15 17  1  0
 16 21  1  0
 16 22  1  0
 16 23  1  0
 17 24  1  0
 17 25  1  0
 17 26  1  0
M  RAD  1   3   2
M  END
>  <reaction>  (7) 
rxn_1396

>  <mol_properties>  (7) 
{"1": {"label": "*0", "atom_type": "Ct"}, "2": {"label": "*1", "atom_type": "Cs"}, "7": {"label": "*2", "atom_type": "H0"}, "13": {"label": "*4", "atom_type": "Cd"}, "14": {"label": "*3", "atom_type": "Cs"}}

>  <type>  (7) 
unop_3

>  <geom_source>  (7) 
Heuristics

$$$$

     RDKit          3D

 26 24  0  0  0  0  0  0  0  0999 V2000
   -1.0787    0.3490   -2.8241 C   0  0  0  0  0  0  0  0  0  0  0  0
   -1.0787    0.3490   -1.6279 C   0  0  0  0  0  0  0  0  0  0  0  0
   -1.0787    0.3891   -0.1614 C   0  0  0  0  0  3  0  0  0  0  0  0
   -1.7167    1.6883    0.3606 C   0  0  0  0  0  0  0  0  0  0  0  0
   -1.7406   -0.7922    0.4034 C   0  0  0  0  0  0  0  0  0  0  0  0
   -2.2888   -1.7375    0.8899 C   0  0  0  0  0  0  0  0  0  0  0  0
   -1.0787    0.3490   -3.8875 H   0  0  0  0  0  0  0  0  0  0  0  0
    0.1749    0.3618    0.2318 H   0  0  0  0  0  0  0  0  0  0  0  0
   -2.7600    1.7455    0.0529 H   0  0  0  0  0  0  0  0  0  0  0  0
   -1.1841    2.5497   -0.0410 H   0  0  0  0  0  0  0  0  0  0  0  0
   -1.6696    1.7127    1.4489 H   0  0  0  0  0  0  0  0  0  0  0  0
   -2.7762   -2.5779    1.3224 H   0  0  0  0  0  0  0  0  0  0  0  0
    1.7210   -1.5525   -1.0078 C   0  0  0  0  0  0  0  0  0  0  0  0
    2.0462   -0.9350    0.1168 C   0  0  0  0  0  0  0  0  0  0  0  0
    1.4278    0.3346    0.6247 C   0  0  0  0  0  0  0  0  0  0  0  0
    2.4813    1.4384    0.7352 C   0  0  0  0  0  0  0  0  0  0  0  0
    0.7456    0.0976    1.9733 C   0  0  0  0  0  0  0  0  0  0  0  0
    2.2097   -2.4687   -1.3149 H   0  0  0  0  0  0  0  0  0  0  0  0
    0.9507   -1.1614   -1.6642 H   0  0  0  0  0  0  0  0  0  0  0  0
    2.8250   -1.3594    0.7490 H   0  0  0  0  0  0  0  0  0  0  0  0
    2.0340    2.3663    1.0976 H   0  0  0  0  0  0  0  0  0  0  0  0
    3.2689    1.1508    1.4372 H   0  0  0  0  0  0  0  0  0  0  0  0
    2.9477    1.6359   -0.2310 H   0  0  0  0  0  0  0  0  0  0  0  0
    1.4717   -0.2374    2.7191 H   0  0  0  0  0  0  0  0  0  0  0  0
   -0.0306   -0.6647    1.8936 H   0  0  0  0  0  0  0  0  0  0  0  0
    0.2879    1.0175    2.3432 H   0  0  0  0  0  0  0  0  0  0  0  0
  1  2  3  0
  1  7  1  0
  2  3  1  0
  3  4  1  0
  3  5  1  0
  4  9  1  0
  4 10  1  0
  4 11  1  0
  5  6  3  0
  6 12  1  0
  8 15  1  0
 13 14  2  3
 13 18  1  0
 13 19  1  0
 14 15  1  0
 14 20  1  0
 15 16  1  0
 15 17  1  0
 16 21  1  0
 16 22  1  0
 16 23  1  0
 17 24  1  0
 17 25  1  0
 17 26  1  0
M  RAD  1   3   2
M  END
>  <reaction>  (8) 
rxn_1396

>  <mol_properties>  (8) 
{"1": {"label": "*0", "atom_type": "Ct"}, "2": {"label": "*1", "atom_type": "Cs"}, "7": {"label": "*2", "atom_type": "H0"}, "13": {"label": "*4", "atom_type": "Cd"}, "14": {"label": "*3", "atom_type": "Cs"}}

>  <type>  (8) 
unop_4

>  <geom_source>  (8) 
Heuristics

$$$$

     RDKit          3D

 26 24  0  0  0  0  0  0  0  0999 V2000
   -1.0000    0.1384   -3.1107 C   0  0  0  0  0  0  0  0  0  0  0  0
   -1.0000    0.1384   -1.9146 C   0  0  0  0  0  0  0  0  0  0  0  0
   -1.0000    0.1784   -0.4480 C   0  0  0  0  0  3  0  0  0  0  0  0
   -1.6380    1.4776    0.0740 C   0  0  0  0  0  0  0  0  0  0  0  0
   -1.6618   -1.0028    0.1168 C   0  0  0  0  0  0  0  0  0  0  0  0
   -2.2101   -1.9481    0.6033 C   0  0  0  0  0  0  0  0  0  0  0  0
   -1.0000    0.1384   -4.1742 H   0  0  0  0  0  0  0  0  0  0  0  0
    0.2536    0.1512   -0.0549 H   0  0  0  0  0  0  0  0  0  0  0  0
   -2.6813    1.5349   -0.2338 H   0  0  0  0  0  0  0  0  0  0  0  0
   -1.1054    2.3391   -0.3277 H   0  0  0  0  0  0  0  0  0  0  0  0
   -1.5908    1.5021    1.1622 H   0  0  0  0  0  0  0  0  0  0  0  0
   -2.6975   -2.7885    1.0358 H   0  0  0  0  0  0  0  0  0  0  0  0
    0.4558    0.2181    2.6182 C   0  0  0  0  0  0  0  0  0  0  0  0
    1.5236    0.1644    1.8381 C   0  0  0  0  0  0  0  0  0  0  0  0
    1.5065    0.1239    0.3381 C   0  0  0  0  0  0  0  0  0  0  0  0
    2.1446   -1.1697   -0.1716 C   0  0  0  0  0  0  0  0  0  0  0  0
    2.2209    1.3468   -0.2404 C   0  0  0  0  0  0  0  0  0  0  0  0
    0.5411    0.2450    3.6973 H   0  0  0  0  0  0  0  0  0  0  0  0
   -0.5464    0.2371    2.2029 H   0  0  0  0  0  0  0  0  0  0  0  0
    2.5129    0.1469    2.2935 H   0  0  0  0  0  0  0  0  0  0  0  0
    2.1277   -1.2065   -1.2628 H   0  0  0  0  0  0  0  0  0  0  0  0
    3.1880   -1.2372    0.1486 H   0  0  0  0  0  0  0  0  0  0  0  0
    1.6183   -2.0456    0.2102 H   0  0  0  0  0  0  0  0  0  0  0  0
    3.2669    1.3685    0.0774 H   0  0  0  0  0  0  0  0  0  0  0  0
    1.7492    2.2725    0.0923 H   0  0  0  0  0  0  0  0  0  0  0  0
    2.2044    1.3251   -1.3320 H   0  0  0  0  0  0  0  0  0  0  0  0
  1  2  3  0
  1  7  1  0
  2  3  1  0
  3  4  1  0
  3  5  1  0
  4  9  1  0
  4 10  1  0
  4 11  1  0
  5  6  3  0
  6 12  1  0
  8 15  1  0
 13 14  2  3
 13 18  1  0
 13 19  1  0
 14 15  1  0
 14 20  1  0
 15 16  1  0
 15 17  1  0
 16 21  1  0
 16 22  1  0
 16 23  1  0
 17 24  1  0
 17 25  1  0
 17 26  1  0
M  RAD  1   3   2
M  END
>  <reaction>  (9) 
rxn_1396

>  <mol_properties>  (9) 
{"1": {"label": "*0", "atom_type": "Ct"}, "2": {"label": "*1", "atom_type": "Cs"}, "7": {"label": "*2", "atom_type": "H0"}, "13": {"label": "*4", "atom_type": "Cd"}, "14": {"label": "*3", "atom_type": "Cs"}}

>  <type>  (9) 
unop_5

>  <geom_source>  (9) 
Heuristics

$$$$

     RDKit          3D

 26 24  0  0  0  0  0  0  0  0999 V2000
   -1.0406    0.3633   -2.9347 C   0  0  0  0  0  0  0  0  0  0  0  0
   -1.0406    0.3633   -1.7386 C   0  0  0  0  0  0  0  0  0  0  0  0
   -1.0406    0.4034   -0.2720 C   0  0  0  0  0  3  0  0  0  0  0  0
   -1.6786    1.7026    0.2500 C   0  0  0  0  0  0  0  0  0  0  0  0
   -1.7024   -0.7779    0.2927 C   0  0  0  0  0  0  0  0  0  0  0  0
   -2.2506   -1.7232    0.7792 C   0  0  0  0  0  0  0  0  0  0  0  0
   -1.0406    0.3633   -3.9982 H   0  0  0  0  0  0  0  0  0  0  0  0
    0.2130    0.3761    0.1211 H   0  0  0  0  0  0  0  0  0  0  0  0
   -2.7219    1.7598   -0.0578 H   0  0  0  0  0  0  0  0  0  0  0  0
   -1.1460    2.5640   -0.1517 H   0  0  0  0  0  0  0  0  0  0  0  0
   -1.6314    1.7270    1.3382 H   0  0  0  0  0  0  0  0  0  0  0  0
   -2.7381   -2.5636    1.2118 H   0  0  0  0  0  0  0  0  0  0  0  0
    1.5006   -2.0893   -0.0912 C   0  0  0  0  0  0  0  0  0  0  0  0
    1.8656   -1.0867    0.6919 C   0  0  0  0  0  0  0  0  0  0  0  0
    1.4660    0.3489    0.5140 C   0  0  0  0  0  0  0  0  0  0  0  0
    2.6988    1.2250    0.2841 C   0  0  0  0  0  0  0  0  0  0  0  0
    0.6694    0.8386    1.7248 C   0  0  0  0  0  0  0  0  0  0  0  0
    1.8270   -3.1046    0.0961 H   0  0  0  0  0  0  0  0  0  0  0  0
    0.8593   -1.9290   -0.9516 H   0  0  0  0  0  0  0  0  0  0  0  0
    2.5106   -1.2884    1.5462 H   0  0  0  0  0  0  0  0  0  0  0  0
    2.4118    2.2697    0.1469 H   0  0  0  0  0  0  0  0  0  0  0  0
    3.3736    1.1742    1.1430 H   0  0  0  0  0  0  0  0  0  0  0  0
    3.2527    0.9019   -0.5983 H   0  0  0  0  0  0  0  0  0  0  0  0
    1.2723    0.7740    2.6347 H   0  0  0  0  0  0  0  0  0  0  0  0
   -0.2295    0.2387    1.8738 H   0  0  0  0  0  0  0  0  0  0  0  0
    0.3703    1.8809    1.5962 H   0  0  0  0  0  0  0  0  0  0  0  0
  1  2  3  0
  1  7  1  0
  2  3  1  0
  3  4  1  0
  3  5  1  0
  4  9  1  0
  4 10  1  0
  4 11  1  0
  5  6  3  0
  6 12  1  0
  8 15  1  0
 13 14  2  3
 13 18  1  0
 13 19  1  0
 14 15  1  0
 14 20  1  0
 15 16  1  0
 15 17  1  0
 16 21  1  0
 16 22  1  0
 16 23  1  0
 17 24  1  0
 17 25  1  0
 17 26  1  0
M  RAD  1   3   2
M  END
>  <reaction>  (10) 
rxn_1396

>  <mol_properties>  (10) 
{"1": {"label": "*0", "atom_type": "Ct"}, "2": {"label": "*1", "atom_type": "Cs"}, "7": {"label": "*2", "atom_type": "H0"}, "13": {"label": "*4", "atom_type": "Cd"}, "14": {"label": "*3", "atom_type": "Cs"}}

>  <type>  (10) 
unop_6

>  <geom_source>  (10) 
Heuristics

$$$$

     RDKit          3D

 26 24  0  0  0  0  0  0  0  0999 V2000
   -1.0106    0.3165   -3.0342 C   0  0  0  0  0  0  0  0  0  0  0  0
   -1.0106    0.3165   -1.8380 C   0  0  0  0  0  0  0  0  0  0  0  0
   -1.0106    0.3565   -0.3715 C   0  0  0  0  0  3  0  0  0  0  0  0
   -1.6486    1.6558    0.1505 C   0  0  0  0  0  0  0  0  0  0  0  0
   -1.6724   -0.8247    0.1933 C   0  0  0  0  0  0  0  0  0  0  0  0
   -2.2206   -1.7700    0.6798 C   0  0  0  0  0  0  0  0  0  0  0  0
   -1.0106    0.3165   -4.0976 H   0  0  0  0  0  0  0  0  0  0  0  0
    0.2430    0.3293    0.0217 H   0  0  0  0  0  0  0  0  0  0  0  0
   -2.6918    1.7130   -0.1572 H   0  0  0  0  0  0  0  0  0  0  0  0
   -1.1160    2.5172   -0.2511 H   0  0  0  0  0  0  0  0  0  0  0  0
   -1.6014    1.6802    1.2388 H   0  0  0  0  0  0  0  0  0  0  0  0
   -2.7081   -2.6104    1.1123 H   0  0  0  0  0  0  0  0  0  0  0  0
    1.1377   -2.1014    1.0525 C   0  0  0  0  0  0  0  0  0  0  0  0
    1.6885   -0.9174    1.2678 C   0  0  0  0  0  0  0  0  0  0  0  0
    1.4960    0.3021    0.4146 C   0  0  0  0  0  0  0  0  0  0  0  0
    2.8303    0.7590   -0.1780 C   0  0  0  0  0  0  0  0  0  0  0  0
    0.8472    1.4267    1.2237 C   0  0  0  0  0  0  0  0  0  0  0  0
    1.3204   -2.9414    1.7110 H   0  0  0  0  0  0  0  0  0  0  0  0
    0.4814   -2.2732    0.2058 H   0  0  0  0  0  0  0  0  0  0  0  0
    2.3420   -0.7850    2.1292 H   0  0  0  0  0  0  0  0  0  0  0  0
    2.6935    1.6421   -0.8057 H   0  0  0  0  0  0  0  0  0  0  0  0
    3.5357    1.0195    0.6158 H   0  0  0  0  0  0  0  0  0  0  0  0
    3.2818   -0.0273   -0.7845 H   0  0  0  0  0  0  0  0  0  0  0  0
    1.4824    1.7108    2.0671 H   0  0  0  0  0  0  0  0  0  0  0  0
   -0.1210    1.1183    1.6208 H   0  0  0  0  0  0  0  0  0  0  0  0
    0.6985    2.3137    0.6045 H   0  0  0  0  0  0  0  0  0  0  0  0
  1  2  3  0
  1  7  1  0
  2  3  1  0
  3  4  1  0
  3  5  1  0
  4  9  1  0
  4 10  1  0
  4 11  1  0
  5  6  3  0
  6 12  1  0
  8 15  1  0
 13 14  2  3
 13 18  1  0
 13 19  1  0
 14 15  1  0
 14 20  1  0
 15 16  1  0
 15 17  1  0
 16 21  1  0
 16 22  1  0
 16 23  1  0
 17 24  1  0
 17 25  1  0
 17 26  1  0
M  RAD  1   3   2
M  END
>  <reaction>  (11) 
rxn_1396

>  <mol_properties>  (11) 
{"1": {"label": "*0", "atom_type": "Ct"}, "2": {"label": "*1", "atom_type": "Cs"}, "7": {"label": "*2", "atom_type": "H0"}, "13": {"label": "*4", "atom_type": "Cd"}, "14": {"label": "*3", "atom_type": "Cs"}}

>  <type>  (11) 
unop_7

>  <geom_source>  (11) 
Heuristics

$$$$

     RDKit          3D

 26 24  0  0  0  0  0  0  0  0999 V2000
   -1.0538   -0.0738   -2.9228 C   0  0  0  0  0  0  0  0  0  0  0  0
   -1.0538   -0.0738   -1.7266 C   0  0  0  0  0  0  0  0  0  0  0  0
   -1.0538   -0.0337   -0.2601 C   0  0  0  0  0  3  0  0  0  0  0  0
   -1.6918    1.2655    0.2619 C   0  0  0  0  0  0  0  0  0  0  0  0
   -1.7157   -1.2149    0.3047 C   0  0  0  0  0  0  0  0  0  0  0  0
   -2.2639   -2.1602    0.7912 C   0  0  0  0  0  0  0  0  0  0  0  0
   -1.0538   -0.0738   -3.9863 H   0  0  0  0  0  0  0  0  0  0  0  0
    0.1998   -0.0609    0.1330 H   0  0  0  0  0  0  0  0  0  0  0  0
   -2.7351    1.3228   -0.0459 H   0  0  0  0  0  0  0  0  0  0  0  0
   -1.1592    2.1269   -0.1397 H   0  0  0  0  0  0  0  0  0  0  0  0
   -1.6447    1.2899    1.3501 H   0  0  0  0  0  0  0  0  0  0  0  0
   -2.7513   -3.0006    1.2237 H   0  0  0  0  0  0  0  0  0  0  0  0
    1.6338    2.3067   -0.2113 C   0  0  0  0  0  0  0  0  0  0  0  0
    1.9388    1.3281    0.6259 C   0  0  0  0  0  0  0  0  0  0  0  0
    1.4527   -0.0882    0.5260 C   0  0  0  0  0  0  0  0  0  0  0  0
    0.6300   -0.4620    1.7604 C   0  0  0  0  0  0  0  0  0  0  0  0
    2.6299   -1.0486    0.3462 C   0  0  0  0  0  0  0  0  0  0  0  0
    2.0213    3.3092   -0.0791 H   0  0  0  0  0  0  0  0  0  0  0  0
    0.9826    2.1389   -1.0628 H   0  0  0  0  0  0  0  0  0  0  0  0
    2.5962    1.5368    1.4690 H   0  0  0  0  0  0  0  0  0  0  0  0
    0.2681   -1.4898    1.6883 H   0  0  0  0  0  0  0  0  0  0  0  0
    1.2372   -0.3845    2.6664 H   0  0  0  0  0  0  0  0  0  0  0  0
   -0.2307    0.1984    1.8749 H   0  0  0  0  0  0  0  0  0  0  0  0
    3.3079   -0.9919    1.2022 H   0  0  0  0  0  0  0  0  0  0  0  0
    3.2009   -0.8081   -0.5516 H   0  0  0  0  0  0  0  0  0  0  0  0
    2.2800   -2.0798    0.2658 H   0  0  0  0  0  0  0  0  0  0  0  0
  1  2  3  0
  1  7  1  0
  2  3  1  0
  3  4  1  0
  3  5  1  0
  4  9  1  0
  4 10  1  0
  4 11  1  0
  5  6  3  0
  6 12  1  0
  8 15  1  0
 13 14  2  3
 13 18  1  0
 13 19  1  0
 14 15  1  0
 14 20  1  0
 15 16  1  0
 15 17  1  0
 16 21  1  0
 16 22  1  0
 16 23  1  0
 17 24  1  0
 17 25  1  0
 17 26  1  0
M  RAD  1   3   2
M  END
>  <reaction>  (12) 
rxn_1396

>  <mol_properties>  (12) 
{"1": {"label": "*0", "atom_type": "Ct"}, "2": {"label": "*1", "atom_type": "Cs"}, "7": {"label": "*2", "atom_type": "H0"}, "13": {"label": "*4", "atom_type": "Cd"}, "14": {"label": "*3", "atom_type": "Cs"}}

>  <type>  (12) 
unop_8

>  <geom_source>  (12) 
Heuristics

$$$$

     RDKit          3D

 26 24  0  0  0  0  0  0  0  0999 V2000
   -1.1125    0.2724   -2.7356 C   0  0  0  0  0  0  0  0  0  0  0  0
   -1.1125    0.2724   -1.5394 C   0  0  0  0  0  0  0  0  0  0  0  0
   -1.1125    0.3125   -0.0729 C   0  0  0  0  0  3  0  0  0  0  0  0
   -1.7505    1.6117    0.4491 C   0  0  0  0  0  0  0  0  0  0  0  0
   -1.7744   -0.8688    0.4919 C   0  0  0  0  0  0  0  0  0  0  0  0
   -2.3226   -1.8141    0.9784 C   0  0  0  0  0  0  0  0  0  0  0  0
   -1.1125    0.2724   -3.7990 H   0  0  0  0  0  0  0  0  0  0  0  0
    0.1411    0.2852    0.3203 H   0  0  0  0  0  0  0  0  0  0  0  0
   -2.7938    1.6689    0.1414 H   0  0  0  0  0  0  0  0  0  0  0  0
   -1.2179    2.4731    0.0475 H   0  0  0  0  0  0  0  0  0  0  0  0
   -1.7034    1.6361    1.5374 H   0  0  0  0  0  0  0  0  0  0  0  0
   -2.8100   -2.6545    1.4109 H   0  0  0  0  0  0  0  0  0  0  0  0
    1.7970   -0.7622   -1.5471 C   0  0  0  0  0  0  0  0  0  0  0  0
    2.1840   -0.5080   -0.3073 C   0  0  0  0  0  0  0  0  0  0  0  0
    1.3940    0.2580    0.7132 C   0  0  0  0  0  0  0  0  0  0  0  0
    2.1510    1.5152    1.1454 C   0  0  0  0  0  0  0  0  0  0  0  0
    1.0755   -0.6263    1.9202 C   0  0  0  0  0  0  0  0  0  0  0  0
    2.4194   -1.3230   -2.2331 H   0  0  0  0  0  0  0  0  0  0  0  0
    0.8390   -0.4166   -1.9215 H   0  0  0  0  0  0  0  0  0  0  0  0
    3.1532   -0.8723    0.0312 H   0  0  0  0  0  0  0  0  0  0  0  0
    1.5762    2.0795    1.8827 H   0  0  0  0  0  0  0  0  0  0  0  0
    3.1095    1.2509    1.6003 H   0  0  0  0  0  0  0  0  0  0  0  0
    2.3513    2.1667    0.2936 H   0  0  0  0  0  0  0  0  0  0  0  0
    1.9959   -0.9665    2.4026 H   0  0  0  0  0  0  0  0  0  0  0  0
    0.5058   -1.5080    1.6232 H   0  0  0  0  0  0  0  0  0  0  0  0
    0.4943   -0.0749    2.6622 H   0  0  0  0  0  0  0  0  0  0  0  0
  1  2  3  0
  1  7  1  0
  2  3  1  0
  3  4  1  0
  3  5  1  0
  4  9  1  0
  4 10  1  0
  4 11  1  0
  5  6  3  0
  6 12  1  0
  8 15  1  0
 13 14  2  3
 13 18  1  0
 13 19  1  0
 14 15  1  0
 14 20  1  0
 15 16  1  0
 15 17  1  0
 16 21  1  0
 16 22  1  0
 16 23  1  0
 17 24  1  0
 17 25  1  0
 17 26  1  0
M  RAD  1   3   2
M  END
>  <reaction>  (13) 
rxn_1396

>  <mol_properties>  (13) 
{"1": {"label": "*0", "atom_type": "Ct"}, "2": {"label": "*1", "atom_type": "Cs"}, "7": {"label": "*2", "atom_type": "H0"}, "13": {"label": "*4", "atom_type": "Cd"}, "14": {"label": "*3", "atom_type": "Cs"}}

>  <type>  (13) 
unop_9

>  <geom_source>  (13) 
Heuristics

$$$$

     RDKit          3D

 26 24  0  0  0  0  0  0  0  0999 V2000
   -1.0908   -0.0512   -2.8131 C   0  0  0  0  0  0  0  0  0  0  0  0
   -1.0908   -0.0512   -1.6170 C   0  0  0  0  0  0  0  0  0  0  0  0
   -1.0908   -0.0111   -0.1504 C   0  0  0  0  0  3  0  0  0  0  0  0
   -1.7289    1.2881    0.3716 C   0  0  0  0  0  0  0  0  0  0  0  0
   -1.7527   -1.1924    0.4144 C   0  0  0  0  0  0  0  0  0  0  0  0
   -2.3009   -2.1376    0.9009 C   0  0  0  0  0  0  0  0  0  0  0  0
   -1.0908   -0.0512   -3.8766 H   0  0  0  0  0  0  0  0  0  0  0  0
    0.1628   -0.0384    0.2427 H   0  0  0  0  0  0  0  0  0  0  0  0
   -2.7721    1.3453    0.0638 H   0  0  0  0  0  0  0  0  0  0  0  0
   -1.1963    2.1495   -0.0301 H   0  0  0  0  0  0  0  0  0  0  0  0
   -1.6817    1.3125    1.4598 H   0  0  0  0  0  0  0  0  0  0  0  0
   -2.7883   -2.9781    1.3334 H   0  0  0  0  0  0  0  0  0  0  0  0
    1.8198    1.7084   -1.0969 C   0  0  0  0  0  0  0  0  0  0  0  0
    2.1089    1.1346    0.0602 C   0  0  0  0  0  0  0  0  0  0  0  0
    1.4157   -0.0656    0.6357 C   0  0  0  0  0  0  0  0  0  0  0  0
    0.7513    0.2855    1.9682 C   0  0  0  0  0  0  0  0  0  0  0  0
    2.4007   -1.2234    0.8079 C   0  0  0  0  0  0  0  0  0  0  0  0
    2.3625    2.5752   -1.4527 H   0  0  0  0  0  0  0  0  0  0  0  0
    1.0261    1.3294   -1.7323 H   0  0  0  0  0  0  0  0  0  0  0  0
    2.9130    1.5450    0.6696 H   0  0  0  0  0  0  0  0  0  0  0  0
    0.2394   -0.5835    2.3869 H   0  0  0  0  0  0  0  0  0  0  0  0
    1.4976    0.6161    2.6958 H   0  0  0  0  0  0  0  0  0  0  0  0
    0.0225    1.0879    1.8457 H   0  0  0  0  0  0  0  0  0  0  0  0
    3.2053   -0.9462    1.4945 H   0  0  0  0  0  0  0  0  0  0  0  0
    2.8527   -1.5012   -0.1453 H   0  0  0  0  0  0  0  0  0  0  0  0
    1.8987   -2.1014    1.2197 H   0  0  0  0  0  0  0  0  0  0  0  0
  1  2  3  0
  1  7  1  0
  2  3  1  0
  3  4  1  0
  3  5  1  0
  4  9  1  0
  4 10  1  0
  4 11  1  0
  5  6  3  0
  6 12  1  0
  8 15  1  0
 13 14  2  3
 13 18  1  0
 13 19  1  0
 14 15  1  0
 14 20  1  0
 15 16  1  0
 15 17  1  0
 16 21  1  0
 16 22  1  0
 16 23  1  0
 17 24  1  0
 17 25  1  0
 17 26  1  0
M  RAD  1   3   2
M  END
>  <reaction>  (14) 
rxn_1396

>  <mol_properties>  (14) 
{"1": {"label": "*0", "atom_type": "Ct"}, "2": {"label": "*1", "atom_type": "Cs"}, "7": {"label": "*2", "atom_type": "H0"}, "13": {"label": "*4", "atom_type": "Cd"}, "14": {"label": "*3", "atom_type": "Cs"}}

>  <type>  (14) 
unop_10

>  <geom_source>  (14) 
Heuristics

$$$$

     RDKit          3D

 26 24  0  0  0  0  0  0  0  0999 V2000
   -0.9981    0.2299   -3.0952 C   0  0  0  0  0  0  0  0  0  0  0  0
   -0.9981    0.2299   -1.8990 C   0  0  0  0  0  0  0  0  0  0  0  0
   -0.9981    0.2700   -0.4324 C   0  0  0  0  0  3  0  0  0  0  0  0
   -1.6361    1.5692    0.0896 C   0  0  0  0  0  0  0  0  0  0  0  0
   -1.6599   -0.9113    0.1323 C   0  0  0  0  0  0  0  0  0  0  0  0
   -2.2081   -1.8566    0.6188 C   0  0  0  0  0  0  0  0  0  0  0  0
   -0.9981    0.2299   -4.1586 H   0  0  0  0  0  0  0  0  0  0  0  0
    0.2555    0.2427   -0.0393 H   0  0  0  0  0  0  0  0  0  0  0  0
   -2.6793    1.6264   -0.2182 H   0  0  0  0  0  0  0  0  0  0  0  0
   -1.1035    2.4306   -0.3121 H   0  0  0  0  0  0  0  0  0  0  0  0
   -1.5889    1.5936    1.1778 H   0  0  0  0  0  0  0  0  0  0  0  0
   -2.6956   -2.6970    1.0513 H   0  0  0  0  0  0  0  0  0  0  0  0
    0.6962   -1.3640    2.1306 C   0  0  0  0  0  0  0  0  0  0  0  0
    1.5610   -0.4637    1.6908 C   0  0  0  0  0  0  0  0  0  0  0  0
    1.5085    0.2155    0.3536 C   0  0  0  0  0  0  0  0  0  0  0  0
    2.7599   -0.1104   -0.4638 C   0  0  0  0  0  0  0  0  0  0  0  0
    1.3498    1.7273    0.5250 C   0  0  0  0  0  0  0  0  0  0  0  0
    0.7945   -1.8155    3.1099 H   0  0  0  0  0  0  0  0  0  0  0  0
   -0.1448   -1.6827    1.5236 H   0  0  0  0  0  0  0  0  0  0  0  0
    2.3923   -0.1699    2.3304 H   0  0  0  0  0  0  0  0  0  0  0  0
    2.7224    0.3761   -1.4407 H   0  0  0  0  0  0  0  0  0  0  0  0
    3.6586    0.2416    0.0502 H   0  0  0  0  0  0  0  0  0  0  0  0
    2.8604   -1.1855   -0.6187 H   0  0  0  0  0  0  0  0  0  0  0  0
    2.1985    2.1443    1.0740 H   0  0  0  0  0  0  0  0  0  0  0  0
    0.4407    1.9678    1.0780 H   0  0  0  0  0  0  0  0  0  0  0  0
    1.3038    2.2248   -0.4460 H   0  0  0  0  0  0  0  0  0  0  0  0
  1  2  3  0
  1  7  1  0
  2  3  1  0
  3  4  1  0
  3  5  1  0
  4  9  1  0
  4 10  1  0
  4 11  1  0
  5  6  3  0
  6 12  1  0
  8 15  1  0
 13 14  2  3
 13 18  1  0
 13 19  1  0
 14 15  1  0
 14 20  1  0
 15 16  1  0
 15 17  1  0
 16 21  1  0
 16 22  1  0
 16 23  1  0
 17 24  1  0
 17 25  1  0
 17 26  1  0
M  RAD  1   3   2
M  END
>  <reaction>  (15) 
rxn_1396

>  <mol_properties>  (15) 
{"1": {"label": "*0", "atom_type": "Ct"}, "2": {"label": "*1", "atom_type": "Cs"}, "7": {"label": "*2", "atom_type": "H0"}, "13": {"label": "*4", "atom_type": "Cd"}, "14": {"label": "*3", "atom_type": "Cs"}}

>  <type>  (15) 
unop_11

>  <geom_source>  (15) 
Heuristics

$$$$

     RDKit          3D

 26 24  0  0  0  0  0  0  0  0999 V2000
   -1.1287    0.1535   -2.6993 C   0  0  0  0  0  0  0  0  0  0  0  0
   -1.1287    0.1535   -1.5031 C   0  0  0  0  0  0  0  0  0  0  0  0
   -1.1287    0.1936   -0.0366 C   0  0  0  0  0  3  0  0  0  0  0  0
   -1.7667    1.4928    0.4854 C   0  0  0  0  0  0  0  0  0  0  0  0
   -1.7906   -0.9877    0.5282 C   0  0  0  0  0  0  0  0  0  0  0  0
   -2.3388   -1.9330    1.0147 C   0  0  0  0  0  0  0  0  0  0  0  0
   -1.1287    0.1535   -3.7627 H   0  0  0  0  0  0  0  0  0  0  0  0
    0.1249    0.1663    0.3566 H   0  0  0  0  0  0  0  0  0  0  0  0
   -2.8100    1.5500    0.1777 H   0  0  0  0  0  0  0  0  0  0  0  0
   -1.2341    2.3542    0.0838 H   0  0  0  0  0  0  0  0  0  0  0  0
   -1.7196    1.5172    1.5737 H   0  0  0  0  0  0  0  0  0  0  0  0
   -2.8262   -2.7734    1.4472 H   0  0  0  0  0  0  0  0  0  0  0  0
    1.8139    0.0583   -1.7234 C   0  0  0  0  0  0  0  0  0  0  0  0
    2.2465    0.0794   -0.4728 C   0  0  0  0  0  0  0  0  0  0  0  0
    1.3778    0.1391    0.7495 C   0  0  0  0  0  0  0  0  0  0  0  0
    1.6614    1.4127    1.5482 C   0  0  0  0  0  0  0  0  0  0  0  0
    1.5851   -1.1038    1.6170 C   0  0  0  0  0  0  0  0  0  0  0  0
    2.4988    0.0147   -2.5610 H   0  0  0  0  0  0  0  0  0  0  0  0
    0.7541    0.0841   -1.9548 H   0  0  0  0  0  0  0  0  0  0  0  0
    3.3185    0.0521   -0.2817 H   0  0  0  0  0  0  0  0  0  0  0  0
    1.0261    1.4637    2.4349 H   0  0  0  0  0  0  0  0  0  0  0  0
    2.7025    1.4349    1.8817 H   0  0  0  0  0  0  0  0  0  0  0  0
    1.4824    2.3039    0.9452 H   0  0  0  0  0  0  0  0  0  0  0  0
    2.6236   -1.1707    1.9529 H   0  0  0  0  0  0  0  0  0  0  0  0
    1.3515   -2.0142    1.0631 H   0  0  0  0  0  0  0  0  0  0  0  0
    0.9494   -1.0679    2.5041 H   0  0  0  0  0  0  0  0  0  0  0  0
  1  2  3  0
  1  7  1  0
  2  3  1  0
  3  4  1  0
  3  5  1  0
  4  9  1  0
  4 10  1  0
  4 11  1  0
  5  6  3  0
  6 12  1  0
  8 15  1  0
 13 14  2  3
 13 18  1  0
 13 19  1  0
 14 15  1  0
 14 20  1  0
 15 16  1  0
 15 17  1  0
 16 21  1  0
 16 22  1  0
 16 23  1  0
 17 24  1  0
 17 25  1  0
 17 26  1  0
M  RAD  1   3   2
M  END
>  <reaction>  (16) 
rxn_1396

>  <mol_properties>  (16) 
{"1": {"label": "*0", "atom_type": "Ct"}, "2": {"label": "*1", "atom_type": "Cs"}, "7": {"label": "*2", "atom_type": "H0"}, "13": {"label": "*4", "atom_type": "Cd"}, "14": {"label": "*3", "atom_type": "Cs"}}

>  <type>  (16) 
unop_12

>  <geom_source>  (16) 
Heuristics

$$$$

     RDKit          3D

 26 24  0  0  0  0  0  0  0  0999 V2000
   -1.1407   -0.0072   -0.2389 C   0  0  0  0  0  0  0  0  0  0  0  0
   -1.1536    0.1546   -1.7616 C   0  0  0  0  0  0  0  0  0  0  0  0
   -1.7068   -1.3743    0.1590 C   0  0  0  0  0  0  0  0  0  0  0  0
    2.1339   -0.9682   -1.1852 C   0  0  0  0  0  0  0  0  0  0  0  0
   -1.9224    1.1051    0.4181 C   0  0  0  0  0  0  0  0  0  0  0  0
    1.4203   -0.2548   -0.0405 C   0  0  0  0  0  3  0  0  0  0  0  0
   -1.8095    1.3564    1.7254 C   0  0  0  0  0  0  0  0  0  0  0  0
    1.8430   -0.8002    1.2552 C   0  0  0  0  0  0  0  0  0  0  0  0
    1.6878    1.1880   -0.0805 C   0  0  0  0  0  0  0  0  0  0  0  0
    2.1890   -1.2493    2.3195 C   0  0  0  0  0  0  0  0  0  0  0  0
    1.9062    2.3734   -0.1144 C   0  0  0  0  0  0  0  0  0  0  0  0
    0.1237    0.0620    0.1648 H   0  0  0  0  0  0  0  0  0  0  0  0
   -2.1905    0.0890   -2.1568 H   0  0  0  0  0  0  0  0  0  0  0  0
   -0.7218    1.1390   -2.0419 H   0  0  0  0  0  0  0  0  0  0  0  0
   -0.5372   -0.6395   -2.2339 H   0  0  0  0  0  0  0  0  0  0  0  0
   -1.6406   -1.5128    1.2588 H   0  0  0  0  0  0  0  0  0  0  0  0
   -1.1200   -2.1845   -0.3233 H   0  0  0  0  0  0  0  0  0  0  0  0
   -2.7701   -1.4642   -0.1523 H   0  0  0  0  0  0  0  0  0  0  0  0
    3.2354   -0.8331   -1.1120 H   0  0  0  0  0  0  0  0  0  0  0  0
    1.8998   -2.0538   -1.1581 H   0  0  0  0  0  0  0  0  0  0  0  0
    1.7835   -0.5642   -2.1589 H   0  0  0  0  0  0  0  0  0  0  0  0
   -2.5714    1.7395   -0.1801 H   0  0  0  0  0  0  0  0  0  0  0  0
   -1.1575    0.7592    2.3557 H   0  0  0  0  0  0  0  0  0  0  0  0
   -2.3714    2.1699    2.1726 H   0  0  0  0  0  0  0  0  0  0  0  0
    2.4929   -1.6435    3.2534 H   0  0  0  0  0  0  0  0  0  0  0  0
    2.0981    3.4137   -0.1442 H   0  0  0  0  0  0  0  0  0  0  0  0
  1  2  1  0
  1  3  1  0
  1  5  1  0
  1 12  1  0
  2 13  1  0
  2 14  1  0
  2 15  1  0
  3 16  1  0
  3 17  1  0
  3 18  1  0
  4  6  1  0
  4 19  1  0
  4 20  1  0
  4 21  1  0
  5  7  2  3
  5 22  1  0
  6  8  1  0
  6  9  1  0
  7 23  1  0
  7 24  1  0
  8 10  3  0
  9 11  3  0
 10 25  1  0
 11 26  1  0
M  RAD  1   6   2
M  END
>  <reaction>  (17) 
rxn_1396

>  <mol_properties>  (17) 
{"1": {"label": "*0", "atom_type": "Ct"}, "2": {"label": "*1", "atom_type": "Cs"}, "7": {"label": "*2", "atom_type": "H0"}, "13": {"label": "*4", "atom_type": "Cd"}, "14": {"label": "*3", "atom_type": "Cs"}}

>  <type>  (17) 
unop_13

>  <geom_source>  (17) 
AutoTST

$$$$
