
     RDKit          3D

  5  4  0  0  0  0  0  0  0  0999 V2000
    0.0000    0.0000    0.0000 C   0  0  0  0  0  0  0  0  0  0  0  0
   -0.6486   -0.7720   -0.4113 H   0  0  0  0  0  0  0  0  0  0  0  0
   -0.3482    0.9787   -0.3267 H   0  0  0  0  0  0  0  0  0  0  0  0
   -0.0223   -0.0487    1.0876 H   0  0  0  0  0  0  0  0  0  0  0  0
    1.0191   -0.1580   -0.3496 H   0  0  0  0  0  0  0  0  0  0  0  0
  1  2  1  0
  1  3  1  0
  1  4  1  0
  1  5  1  0
M  END
>  <reaction>  (1) 
rxn_837

>  <mol_properties>  (1) 
{"0": {"label": "donator", "atom_type": "Cs"}, "1": {"label": "d_hydrogen", "atom_type": "H0"}}

>  <type>  (1) 
r1h

$$$$

     RDKit          3D

  8  7  0  0  0  0  0  0  0  0999 V2000
   -2.2129    0.4855    0.7390 C   0  0  0  0  0  0  0  0  0  0  0  0
   -1.2226    0.0526    0.1974 C   0  0  0  0  0  0  0  0  0  0  0  0
   -0.1006   -0.4575   -0.4419 C   0  0  0  0  0  3  0  0  0  0  0  0
    1.1960   -0.1737   -0.0342 C   0  0  0  0  0  0  0  0  0  0  0  0
    2.3329    0.0603    0.3036 C   0  0  0  0  0  0  0  0  0  0  0  0
   -3.0803    0.8696    1.2198 H   0  0  0  0  0  0  0  0  0  0  0  0
   -0.2433   -1.1067   -1.2980 H   0  0  0  0  0  0  0  0  0  0  0  0
    3.3308    0.2700    0.6058 H   0  0  0  0  0  0  0  0  0  0  0  0
  1  2  3  0
  1  6  1  0
  2  3  1  0
  3  4  1  0
  3  7  1  0
  4  5  3  0
  5  8  1  0
M  RAD  1   3   2
M  END
>  <reaction>  (2) 
rxn_837

>  <mol_properties>  (2) 
{"2": {"label": "acceptor", "atom_type": "Cs"}}

>  <type>  (2) 
r2

$$$$

     RDKit          3D

  9  8  0  0  0  0  0  0  0  0999 V2000
   -2.1022   -0.6873    0.3932 C   0  0  0  0  0  0  0  0  0  0  0  0
   -1.2072   -0.1086   -0.1482 C   0  0  0  0  0  0  0  0  0  0  0  0
   -0.1242    0.6105   -0.8193 C   0  0  0  0  0  0  0  0  0  0  0  0
    1.2067    0.1106   -0.4741 C   0  0  0  0  0  0  0  0  0  0  0  0
    2.3005   -0.2875   -0.2012 C   0  0  0  0  0  0  0  0  0  0  0  0
   -2.8942   -1.2059    0.8778 H   0  0  0  0  0  0  0  0  0  0  0  0
   -0.1862    1.6723   -0.5649 H   0  0  0  0  0  0  0  0  0  0  0  0
   -0.2641    0.5418   -1.9017 H   0  0  0  0  0  0  0  0  0  0  0  0
    3.2709   -0.6459    0.0455 H   0  0  0  0  0  0  0  0  0  0  0  0
  1  2  3  0
  1  6  1  0
  2  3  1  0
  3  4  1  0
  3  7  1  0
  3  8  1  0
  4  5  3  0
  5  9  1  0
M  END
>  <reaction>  (3) 
rxn_837

>  <mol_properties>  (3) 
{"2": {"label": "acceptor", "atom_type": "Cs"}, "8": {"label": "a_hydrogen", "atom_type": "H0"}}

>  <type>  (3) 
r2h

$$$$

     RDKit          3D

 13 11  0  0  0  0  0  0  0  0999 V2000
    1.5612    0.5160    1.8252 C   0  0  0  0  0  0  0  0  0  0  0  0
    0.8929    0.4934    0.8309 C   0  0  0  0  0  0  0  0  0  0  0  0
    0.1222    0.4128   -0.3858 C   0  0  0  0  0  0  0  0  0  0  0  0
   -1.3086    0.5230   -0.2394 C   0  0  0  0  0  0  0  0  0  0  0  0
   -2.5026    0.5700   -0.1499 C   0  0  0  0  0  0  0  0  0  0  0  0
    2.1449    0.5509    2.7134 H   0  0  0  0  0  0  0  0  0  0  0  0
    0.5069    1.0796   -1.1587 H   0  0  0  0  0  0  0  0  0  0  0  0
   -3.5606    0.6268   -0.0599 H   0  0  0  0  0  0  0  0  0  0  0  0
    0.5881   -2.0686   -1.4059 C   0  0  0  0  0  3  0  0  0  0  0  0
    0.3422   -0.7213   -0.8698 H   0  0  0  0  0  0  0  0  0  0  0  0
    1.5974   -2.2648   -1.0627 H   0  0  0  0  0  0  0  0  0  0  0  0
   -0.1957   -2.6318   -0.9123 H   0  0  0  0  0  0  0  0  0  0  0  0
    0.4685   -1.9369   -2.4753 H   0  0  0  0  0  0  0  0  0  0  0  0
  1  2  3  0
  1  6  1  0
  2  3  1  0
  3  4  1  0
  3  7  1  0
  3 10  1  0
  4  5  3  0
  5  8  1  0
  9 11  1  0
  9 12  1  0
  9 13  1  0
M  RAD  1   9   2
M  END
>  <reaction>  (4) 
rxn_837

>  <mol_properties>  (4) 
{"1": {"label": "*0", "atom_type": "Ct"}, "2": {"label": "*1", "atom_type": "Cs"}, "8": {"label": "*3", "atom_type": "Cs"}, "9": {"label": "*2", "atom_type": "H0"}, "10": {"label": "*4", "atom_type": "H0"}}

>  <type>  (4) 
ts

$$$$

     RDKit          3D

 13 11  0  0  0  0  0  0  0  0999 V2000
   -1.9165    0.2382    1.4907 C   0  0  0  0  0  0  0  0  0  0  0  0
   -0.9386    0.0562    0.8275 C   0  0  0  0  0  0  0  0  0  0  0  0
    0.2580   -0.1665    0.0159 C   0  0  0  0  0  3  0  0  0  0  0  0
    0.8735    1.0710   -0.4638 C   0  0  0  0  0  0  0  0  0  0  0  0
    1.3765    2.0822   -0.8557 C   0  0  0  0  0  0  0  0  0  0  0  0
   -2.7864    0.4002    2.0807 H   0  0  0  0  0  0  0  0  0  0  0  0
    0.9905   -0.7281    0.6026 H   0  0  0  0  0  0  0  0  0  0  0  0
    1.8239    2.9818   -1.2045 H   0  0  0  0  0  0  0  0  0  0  0  0
    0.2580   -2.6358   -0.8571 C   0  0  0  0  0  0  0  0  0  0  0  0
    0.2580   -1.4038   -0.4215 H   0  0  0  0  0  0  0  0  0  0  0  0
    1.1472   -3.1491   -0.4941 H   0  0  0  0  0  0  0  0  0  0  0  0
   -0.6311   -3.1491   -0.4941 H   0  0  0  0  0  0  0  0  0  0  0  0
    0.2580   -2.6358   -1.9460 H   0  0  0  0  0  0  0  0  0  0  0  0
  1  2  3  0
  1  6  1  0
  2  3  1  0
  3  4  1  0
  3  7  1  0
  4  5  3  0
  5  8  1  0
  9 10  1  0
  9 11  1  0
  9 12  1  0
  9 13  1  0
M  RAD  1   3   2
M  END
>  <reaction>  (5) 
rxn_837

>  <mol_properties>  (5) 
{"1": {"label": "*0", "atom_type": "Ct"}, "2": {"label": "*1", "atom_type": "Cs"}, "8": {"label": "*3", "atom_type": "Cs"}, "9": {"label": "*2", "atom_type": "H0"}, "10": {"label": "*4", "atom_type": "H0"}}

>  <type>  (5) 
unop_1

>  <geom_source>  (5) 
Heuristics

$$$$

     RDKit          3D

 13 11  0  0  0  0  0  0  0  0999 V2000
   -1.4758    1.3702   -1.4146 C   0  0  0  0  0  0  0  0  0  0  0  0
   -0.9112    0.6740   -0.6235 C   0  0  0  0  0  0  0  0  0  0  0  0
   -0.2203   -0.1780    0.3446 C   0  0  0  0  0  3  0  0  0  0  0  0
    0.9687    0.4470    0.9242 C   0  0  0  0  0  0  0  0  0  0  0  0
    1.9403    0.9577    1.3979 C   0  0  0  0  0  0  0  0  0  0  0  0
   -1.9781    1.9895   -2.1183 H   0  0  0  0  0  0  0  0  0  0  0  0
   -0.9134   -0.4447    1.1473 H   0  0  0  0  0  0  0  0  0  0  0  0
    2.8046    1.4120    1.8193 H   0  0  0  0  0  0  0  0  0  0  0  0
   -0.2203   -2.6472   -0.5284 C   0  0  0  0  0  0  0  0  0  0  0  0
   -0.2203   -1.4152   -0.0929 H   0  0  0  0  0  0  0  0  0  0  0  0
    0.6688   -3.1605   -0.1655 H   0  0  0  0  0  0  0  0  0  0  0  0
   -1.1094   -3.1605   -0.1655 H   0  0  0  0  0  0  0  0  0  0  0  0
   -0.2203   -2.6472   -1.6174 H   0  0  0  0  0  0  0  0  0  0  0  0
  1  2  3  0
  1  6  1  0
  2  3  1  0
  3  4  1  0
  3  7  1  0
  4  5  3  0
  5  8  1  0
  9 10  1  0
  9 11  1  0
  9 12  1  0
  9 13  1  0
M  RAD  1   3   2
M  END
>  <reaction>  (6) 
rxn_837

>  <mol_properties>  (6) 
{"1": {"label": "*0", "atom_type": "Ct"}, "2": {"label": "*1", "atom_type": "Cs"}, "8": {"label": "*3", "atom_type": "Cs"}, "9": {"label": "*2", "atom_type": "H0"}, "10": {"label": "*4", "atom_type": "H0"}}

>  <type>  (6) 
unop_2

>  <geom_source>  (6) 
Heuristics

$$$$

     RDKit          3D

 13 11  0  0  0  0  0  0  0  0999 V2000
   -0.8942    0.0072    2.2804 C   0  0  0  0  0  0  0  0  0  0  0  0
   -0.3296   -0.0371    1.2276 C   0  0  0  0  0  0  0  0  0  0  0  0
    0.3613   -0.0912   -0.0609 C   0  0  0  0  0  3  0  0  0  0  0  0
    0.2376    1.1415   -0.8389 C   0  0  0  0  0  0  0  0  0  0  0  0
    0.1365    2.1489   -1.4747 C   0  0  0  0  0  0  0  0  0  0  0  0
   -1.3965    0.0465    3.2170 H   0  0  0  0  0  0  0  0  0  0  0  0
    1.4204   -0.3045    0.1082 H   0  0  0  0  0  0  0  0  0  0  0  0
    0.0466    3.0450   -2.0403 H   0  0  0  0  0  0  0  0  0  0  0  0
    0.3613   -2.5605   -0.9339 C   0  0  0  0  0  0  0  0  0  0  0  0
    0.3613   -1.3285   -0.4983 H   0  0  0  0  0  0  0  0  0  0  0  0
    1.2504   -3.0738   -0.5709 H   0  0  0  0  0  0  0  0  0  0  0  0
   -0.5278   -3.0738   -0.5709 H   0  0  0  0  0  0  0  0  0  0  0  0
    0.3613   -2.5605   -2.0228 H   0  0  0  0  0  0  0  0  0  0  0  0
  1  2  3  0
  1  6  1  0
  2  3  1  0
  3  4  1  0
  3  7  1  0
  4  5  3  0
  5  8  1  0
  9 10  1  0
  9 11  1  0
  9 12  1  0
  9 13  1  0
M  RAD  1   3   2
M  END
>  <reaction>  (7) 
rxn_837

>  <mol_properties>  (7) 
{"1": {"label": "*0", "atom_type": "Ct"}, "2": {"label": "*1", "atom_type": "Cs"}, "8": {"label": "*3", "atom_type": "Cs"}, "9": {"label": "*2", "atom_type": "H0"}, "10": {"label": "*4", "atom_type": "H0"}}

>  <type>  (7) 
unop_3

>  <geom_source>  (7) 
Heuristics

$$$$

     RDKit          3D

 13 11  0  0  0  0  0  0  0  0999 V2000
    1.5452    1.7168   -1.0872 C   0  0  0  0  0  0  0  0  0  0  0  0
    0.5673    1.1584   -0.6858 C   0  0  0  0  0  0  0  0  0  0  0  0
   -0.6294    0.4751   -0.1945 C   0  0  0  0  0  3  0  0  0  0  0  0
   -0.4354   -0.1782    1.1001 C   0  0  0  0  0  0  0  0  0  0  0  0
   -0.2769   -0.7120    2.1580 C   0  0  0  0  0  0  0  0  0  0  0  0
    2.4151    2.2136   -1.4442 H   0  0  0  0  0  0  0  0  0  0  0  0
   -1.4473    1.1964   -0.1139 H   0  0  0  0  0  0  0  0  0  0  0  0
   -0.1359   -1.1868    3.0991 H   0  0  0  0  0  0  0  0  0  0  0  0
   -0.6294   -1.9942   -1.0675 C   0  0  0  0  0  0  0  0  0  0  0  0
   -0.6294   -0.7622   -0.6320 H   0  0  0  0  0  0  0  0  0  0  0  0
    0.2598   -2.5075   -0.7046 H   0  0  0  0  0  0  0  0  0  0  0  0
   -1.5185   -2.5075   -0.7046 H   0  0  0  0  0  0  0  0  0  0  0  0
   -0.6294   -1.9942   -2.1565 H   0  0  0  0  0  0  0  0  0  0  0  0
  1  2  3  0
  1  6  1  0
  2  3  1  0
  3  4  1  0
  3  7  1  0
  4  5  3  0
  5  8  1  0
  9 10  1  0
  9 11  1  0
  9 12  1  0
  9 13  1  0
M  RAD  1   3   2
M  END
>  <reaction>  (8) 
rxn_837

>  <mol_properties>  (8) 
{"1": {"label": "*0", "atom_type": "Ct"}, "2": {"label": "*1", "atom_type": "Cs"}, "8": {"label": "*3", "atom_type": "Cs"}, "9": {"label": "*2", "atom_type": "H0"}, "10": {"label": "*4", "atom_type": "H0"}}

>  <type>  (8) 
unop_4

>  <geom_source>  (8) 
Heuristics

$$$$

     RDKit          3D

 13 11  0  0  0  0  0  0  0  0999 V2000
    0.5122    0.1536    2.4317 C   0  0  0  0  0  0  0  0  0  0  0  0
    0.5122    0.1598    1.2363 C   0  0  0  0  0  0  0  0  0  0  0  0
    0.5122    0.1674   -0.2267 C   0  0  0  0  0  3  0  0  0  0  0  0
   -0.6268    0.8812   -0.8042 C   0  0  0  0  0  0  0  0  0  0  0  0
   -1.5575    1.4645   -1.2761 C   0  0  0  0  0  0  0  0  0  0  0  0
    0.5122    0.1481    3.4952 H   0  0  0  0  0  0  0  0  0  0  0  0
    1.4400    0.6230   -0.5836 H   0  0  0  0  0  0  0  0  0  0  0  0
   -2.3855    1.9835   -1.6959 H   0  0  0  0  0  0  0  0  0  0  0  0
    0.5122   -2.3019   -1.0997 C   0  0  0  0  0  0  0  0  0  0  0  0
    0.5122   -1.0699   -0.6642 H   0  0  0  0  0  0  0  0  0  0  0  0
    1.4013   -2.8152   -0.7367 H   0  0  0  0  0  0  0  0  0  0  0  0
   -0.3769   -2.8152   -0.7367 H   0  0  0  0  0  0  0  0  0  0  0  0
    0.5122   -2.3019   -2.1887 H   0  0  0  0  0  0  0  0  0  0  0  0
  1  2  3  0
  1  6  1  0
  2  3  1  0
  3  4  1  0
  3  7  1  0
  4  5  3  0
  5  8  1  0
  9 10  1  0
  9 11  1  0
  9 12  1  0
  9 13  1  0
M  RAD  1   3   2
M  END
>  <reaction>  (9) 
rxn_837

>  <mol_properties>  (9) 
{"1": {"label": "*0", "atom_type": "Ct"}, "2": {"label": "*1", "atom_type": "Cs"}, "8": {"label": "*3", "atom_type": "Cs"}, "9": {"label": "*2", "atom_type": "H0"}, "10": {"label": "*4", "atom_type": "H0"}}

>  <type>  (9) 
unop_5

>  <geom_source>  (9) 
Heuristics

$$$$

     RDKit          3D

 13 11  0  0  0  0  0  0  0  0999 V2000
    2.1116    1.4554   -0.1299 C   0  0  0  0  0  0  0  0  0  0  0  0
    0.9824    1.0852   -0.2608 C   0  0  0  0  0  0  0  0  0  0  0  0
   -0.3994    0.6321   -0.4210 C   0  0  0  0  0  3  0  0  0  0  0  0
   -0.8951   -0.1363    0.7210 C   0  0  0  0  0  0  0  0  0  0  0  0
   -1.3002   -0.7642    1.6542 C   0  0  0  0  0  0  0  0  0  0  0  0
    3.1161    1.7847   -0.0135 H   0  0  0  0  0  0  0  0  0  0  0  0
   -1.0461    1.5000   -0.5779 H   0  0  0  0  0  0  0  0  0  0  0  0
   -1.6606   -1.3228    2.4843 H   0  0  0  0  0  0  0  0  0  0  0  0
   -0.3994   -1.8371   -1.2940 C   0  0  0  0  0  0  0  0  0  0  0  0
   -0.3994   -0.6051   -0.8584 H   0  0  0  0  0  0  0  0  0  0  0  0
    0.4897   -2.3504   -0.9310 H   0  0  0  0  0  0  0  0  0  0  0  0
   -1.2885   -2.3504   -0.9310 H   0  0  0  0  0  0  0  0  0  0  0  0
   -0.3994   -1.8371   -2.3829 H   0  0  0  0  0  0  0  0  0  0  0  0
  1  2  3  0
  1  6  1  0
  2  3  1  0
  3  4  1  0
  3  7  1  0
  4  5  3  0
  5  8  1  0
  9 10  1  0
  9 11  1  0
  9 12  1  0
  9 13  1  0
M  RAD  1   3   2
M  END
>  <reaction>  (10) 
rxn_837

>  <mol_properties>  (10) 
{"1": {"label": "*0", "atom_type": "Ct"}, "2": {"label": "*1", "atom_type": "Cs"}, "8": {"label": "*3", "atom_type": "Cs"}, "9": {"label": "*2", "atom_type": "H0"}, "10": {"label": "*4", "atom_type": "H0"}}

>  <type>  (10) 
unop_6

>  <geom_source>  (10) 
Heuristics

$$$$

     RDKit          3D

 13 11  0  0  0  0  0  0  0  0999 V2000
    2.1327    1.0759    0.9421 C   0  0  0  0  0  0  0  0  0  0  0  0
    1.1548    0.8939    0.2790 C   0  0  0  0  0  0  0  0  0  0  0  0
   -0.0419    0.6711   -0.5326 C   0  0  0  0  0  3  0  0  0  0  0  0
   -1.1380    0.0458    0.2076 C   0  0  0  0  0  0  0  0  0  0  0  0
   -2.0337   -0.4651    0.8125 C   0  0  0  0  0  0  0  0  0  0  0  0
    3.0026    1.2378    1.5321 H   0  0  0  0  0  0  0  0  0  0  0  0
   -0.3828    1.6271   -0.9398 H   0  0  0  0  0  0  0  0  0  0  0  0
   -2.8305   -0.9197    1.3506 H   0  0  0  0  0  0  0  0  0  0  0  0
   -0.0419   -1.7981   -1.4056 C   0  0  0  0  0  0  0  0  0  0  0  0
   -0.0419   -0.5661   -0.9701 H   0  0  0  0  0  0  0  0  0  0  0  0
    0.8472   -2.3114   -1.0426 H   0  0  0  0  0  0  0  0  0  0  0  0
   -0.9310   -2.3114   -1.0426 H   0  0  0  0  0  0  0  0  0  0  0  0
   -0.0419   -1.7981   -2.4946 H   0  0  0  0  0  0  0  0  0  0  0  0
  1  2  3  0
  1  6  1  0
  2  3  1  0
  3  4  1  0
  3  7  1  0
  4  5  3  0
  5  8  1  0
  9 10  1  0
  9 11  1  0
  9 12  1  0
  9 13  1  0
M  RAD  1   3   2
M  END
>  <reaction>  (11) 
rxn_837

>  <mol_properties>  (11) 
{"1": {"label": "*0", "atom_type": "Ct"}, "2": {"label": "*1", "atom_type": "Cs"}, "8": {"label": "*3", "atom_type": "Cs"}, "9": {"label": "*2", "atom_type": "H0"}, "10": {"label": "*4", "atom_type": "H0"}}

>  <type>  (11) 
unop_7

>  <geom_source>  (11) 
Heuristics

$$$$

     RDKit          3D

 13 11  0  0  0  0  0  0  0  0999 V2000
   -2.3228    0.6169    0.4192 C   0  0  0  0  0  0  0  0  0  0  0  0
   -1.1937    0.2467    0.2884 C   0  0  0  0  0  0  0  0  0  0  0  0
    0.1882   -0.2064    0.1282 C   0  0  0  0  0  3  0  0  0  0  0  0
    1.1537    0.8899    0.0490 C   0  0  0  0  0  0  0  0  0  0  0  0
    1.9427    1.7857   -0.0158 C   0  0  0  0  0  0  0  0  0  0  0  0
   -3.3273    0.9462    0.5357 H   0  0  0  0  0  0  0  0  0  0  0  0
    0.4521   -0.8576    0.9661 H   0  0  0  0  0  0  0  0  0  0  0  0
    2.6446    2.5826   -0.0733 H   0  0  0  0  0  0  0  0  0  0  0  0
    0.1882   -2.6756   -0.7448 C   0  0  0  0  0  0  0  0  0  0  0  0
    0.1882   -1.4436   -0.3093 H   0  0  0  0  0  0  0  0  0  0  0  0
    1.0773   -3.1889   -0.3818 H   0  0  0  0  0  0  0  0  0  0  0  0
   -0.7010   -3.1889   -0.3818 H   0  0  0  0  0  0  0  0  0  0  0  0
    0.1882   -2.6756   -1.8338 H   0  0  0  0  0  0  0  0  0  0  0  0
  1  2  3  0
  1  6  1  0
  2  3  1  0
  3  4  1  0
  3  7  1  0
  4  5  3  0
  5  8  1  0
  9 10  1  0
  9 11  1  0
  9 12  1  0
  9 13  1  0
M  RAD  1   3   2
M  END
>  <reaction>  (12) 
rxn_837

>  <mol_properties>  (12) 
{"1": {"label": "*0", "atom_type": "Ct"}, "2": {"label": "*1", "atom_type": "Cs"}, "8": {"label": "*3", "atom_type": "Cs"}, "9": {"label": "*2", "atom_type": "H0"}, "10": {"label": "*4", "atom_type": "H0"}}

>  <type>  (12) 
unop_8

>  <geom_source>  (12) 
Heuristics

$$$$

     RDKit          3D

 13 11  0  0  0  0  0  0  0  0999 V2000
    0.5805    1.7865   -1.6872 C   0  0  0  0  0  0  0  0  0  0  0  0
    0.0159    1.0903   -0.8962 C   0  0  0  0  0  0  0  0  0  0  0  0
   -0.6750    0.2383    0.0719 C   0  0  0  0  0  3  0  0  0  0  0  0
    0.1271   -0.0625    1.2579 C   0  0  0  0  0  0  0  0  0  0  0  0
    0.7825   -0.3083    2.2270 C   0  0  0  0  0  0  0  0  0  0  0  0
    1.0827    2.4058   -2.3909 H   0  0  0  0  0  0  0  0  0  0  0  0
   -1.6040    0.7258    0.3807 H   0  0  0  0  0  0  0  0  0  0  0  0
    1.3655   -0.5270    3.0891 H   0  0  0  0  0  0  0  0  0  0  0  0
   -0.6750   -2.2309   -0.8011 C   0  0  0  0  0  0  0  0  0  0  0  0
   -0.6750   -0.9989   -0.3655 H   0  0  0  0  0  0  0  0  0  0  0  0
    0.2141   -2.7442   -0.4381 H   0  0  0  0  0  0  0  0  0  0  0  0
   -1.5641   -2.7442   -0.4381 H   0  0  0  0  0  0  0  0  0  0  0  0
   -0.6750   -2.2309   -1.8900 H   0  0  0  0  0  0  0  0  0  0  0  0
  1  2  3  0
  1  6  1  0
  2  3  1  0
  3  4  1  0
  3  7  1  0
  4  5  3  0
  5  8  1  0
  9 10  1  0
  9 11  1  0
  9 12  1  0
  9 13  1  0
M  RAD  1   3   2
M  END
>  <reaction>  (13) 
rxn_837

>  <mol_properties>  (13) 
{"1": {"label": "*0", "atom_type": "Ct"}, "2": {"label": "*1", "atom_type": "Cs"}, "8": {"label": "*3", "atom_type": "Cs"}, "9": {"label": "*2", "atom_type": "H0"}, "10": {"label": "*4", "atom_type": "H0"}}

>  <type>  (13) 
unop_9

>  <geom_source>  (13) 
Heuristics

$$$$

     RDKit          3D

 13 11  0  0  0  0  0  0  0  0999 V2000
   -2.1341    1.0156   -0.6280 C   0  0  0  0  0  0  0  0  0  0  0  0
   -1.1562    0.4572   -0.2266 C   0  0  0  0  0  0  0  0  0  0  0  0
    0.0405   -0.2261    0.2647 C   0  0  0  0  0  3  0  0  0  0  0  0
    1.1561    0.6799    0.5381 C   0  0  0  0  0  0  0  0  0  0  0  0
    2.0677    1.4203    0.7616 C   0  0  0  0  0  0  0  0  0  0  0  0
   -3.0040    1.5124   -0.9850 H   0  0  0  0  0  0  0  0  0  0  0  0
   -0.2084   -0.7750    1.1772 H   0  0  0  0  0  0  0  0  0  0  0  0
    2.8787    2.0790    0.9603 H   0  0  0  0  0  0  0  0  0  0  0  0
    0.0405   -2.6953   -0.6083 C   0  0  0  0  0  0  0  0  0  0  0  0
    0.0405   -1.4634   -0.1728 H   0  0  0  0  0  0  0  0  0  0  0  0
    0.9296   -3.2087   -0.2454 H   0  0  0  0  0  0  0  0  0  0  0  0
   -0.8486   -3.2087   -0.2454 H   0  0  0  0  0  0  0  0  0  0  0  0
    0.0405   -2.6953   -1.6973 H   0  0  0  0  0  0  0  0  0  0  0  0
  1  2  3  0
  1  6  1  0
  2  3  1  0
  3  4  1  0
  3  7  1  0
  4  5  3  0
  5  8  1  0
  9 10  1  0
  9 11  1  0
  9 12  1  0
  9 13  1  0
M  RAD  1   3   2
M  END
>  <reaction>  (14) 
rxn_837

>  <mol_properties>  (14) 
{"1": {"label": "*0", "atom_type": "Ct"}, "2": {"label": "*1", "atom_type": "Cs"}, "8": {"label": "*3", "atom_type": "Cs"}, "9": {"label": "*2", "atom_type": "H0"}, "10": {"label": "*4", "atom_type": "H0"}}

>  <type>  (14) 
unop_10

>  <geom_source>  (14) 
Heuristics

$$$$

     RDKit          3D

 13 11  0  0  0  0  0  0  0  0999 V2000
    1.6021    0.6266    1.8748 C   0  0  0  0  0  0  0  0  0  0  0  0
    1.0375    0.5823    0.8219 C   0  0  0  0  0  0  0  0  0  0  0  0
    0.3466    0.5282   -0.4665 C   0  0  0  0  0  3  0  0  0  0  0  0
   -1.1039    0.3835   -0.3425 C   0  0  0  0  0  0  0  0  0  0  0  0
   -2.2892    0.2653   -0.2411 C   0  0  0  0  0  0  0  0  0  0  0  0
    2.1044    0.6659    2.8114 H   0  0  0  0  0  0  0  0  0  0  0  0
    0.5699    1.4370   -1.0323 H   0  0  0  0  0  0  0  0  0  0  0  0
   -3.3437    0.1602   -0.1510 H   0  0  0  0  0  0  0  0  0  0  0  0
    0.3466   -1.9411   -1.3395 C   0  0  0  0  0  0  0  0  0  0  0  0
    0.3466   -0.7091   -0.9039 H   0  0  0  0  0  0  0  0  0  0  0  0
    1.2357   -2.4544   -0.9765 H   0  0  0  0  0  0  0  0  0  0  0  0
   -0.5425   -2.4544   -0.9765 H   0  0  0  0  0  0  0  0  0  0  0  0
    0.3466   -1.9411   -2.4284 H   0  0  0  0  0  0  0  0  0  0  0  0
  1  2  3  0
  1  6  1  0
  2  3  1  0
  3  4  1  0
  3  7  1  0
  4  5  3  0
  5  8  1  0
  9 10  1  0
  9 11  1  0
  9 12  1  0
  9 13  1  0
M  RAD  1   3   2
M  END
>  <reaction>  (15) 
rxn_837

>  <mol_properties>  (15) 
{"1": {"label": "*0", "atom_type": "Ct"}, "2": {"label": "*1", "atom_type": "Cs"}, "8": {"label": "*3", "atom_type": "Cs"}, "9": {"label": "*2", "atom_type": "H0"}, "10": {"label": "*4", "atom_type": "H0"}}

>  <type>  (15) 
unop_11

>  <geom_source>  (15) 
Heuristics

$$$$

     RDKit          3D

 13 11  0  0  0  0  0  0  0  0999 V2000
   -0.5122    1.6479   -1.7948 C   0  0  0  0  0  0  0  0  0  0  0  0
   -0.5122    0.9013   -0.8611 C   0  0  0  0  0  0  0  0  0  0  0  0
   -0.5122   -0.0123    0.2815 C   0  0  0  0  0  3  0  0  0  0  0  0
    0.6268    0.1799    1.1794 C   0  0  0  0  0  0  0  0  0  0  0  0
    1.5575    0.3370    1.9130 C   0  0  0  0  0  0  0  0  0  0  0  0
   -0.5122    2.3121   -2.6254 H   0  0  0  0  0  0  0  0  0  0  0  0
   -1.4400    0.1178    0.8455 H   0  0  0  0  0  0  0  0  0  0  0  0
    2.3855    0.4768    2.5657 H   0  0  0  0  0  0  0  0  0  0  0  0
   -0.5122   -2.4816   -0.5915 C   0  0  0  0  0  0  0  0  0  0  0  0
   -0.5122   -1.2496   -0.1559 H   0  0  0  0  0  0  0  0  0  0  0  0
    0.3769   -2.9949   -0.2285 H   0  0  0  0  0  0  0  0  0  0  0  0
   -1.4013   -2.9949   -0.2285 H   0  0  0  0  0  0  0  0  0  0  0  0
   -0.5122   -2.4816   -1.6804 H   0  0  0  0  0  0  0  0  0  0  0  0
  1  2  3  0
  1  6  1  0
  2  3  1  0
  3  4  1  0
  3  7  1  0
  4  5  3  0
  5  8  1  0
  9 10  1  0
  9 11  1  0
  9 12  1  0
  9 13  1  0
M  RAD  1   3   2
M  END
>  <reaction>  (16) 
rxn_837

>  <mol_properties>  (16) 
{"1": {"label": "*0", "atom_type": "Ct"}, "2": {"label": "*1", "atom_type": "Cs"}, "8": {"label": "*3", "atom_type": "Cs"}, "9": {"label": "*2", "atom_type": "H0"}, "10": {"label": "*4", "atom_type": "H0"}}

>  <type>  (16) 
unop_12

>  <geom_source>  (16) 
Heuristics

$$$$

     RDKit          3D

 13 11  0  0  0  0  0  0  0  0999 V2000
    0.3987    0.0244    0.4734 C   0  0  0  0  0  3  0  0  0  0  0  0
   -2.1449   -0.4262   -0.0095 C   0  0  0  0  0  0  0  0  0  0  0  0
    1.3297   -0.9530   -0.0938 C   0  0  0  0  0  0  0  0  0  0  0  0
    0.8568    1.3803    0.1648 C   0  0  0  0  0  0  0  0  0  0  0  0
    2.0950   -1.7594   -0.5604 C   0  0  0  0  0  0  0  0  0  0  0  0
    1.2321    2.4977   -0.0886 C   0  0  0  0  0  0  0  0  0  0  0  0
    0.3497   -0.1075    1.5740 H   0  0  0  0  0  0  0  0  0  0  0  0
   -0.9222   -0.1802   -0.0962 H   0  0  0  0  0  0  0  0  0  0  0  0
   -2.3058   -1.5122   -0.1693 H   0  0  0  0  0  0  0  0  0  0  0  0
   -2.6284   -0.1165    0.9397 H   0  0  0  0  0  0  0  0  0  0  0  0
   -2.5889    0.1414   -0.8530 H   0  0  0  0  0  0  0  0  0  0  0  0
    2.7668   -2.4672   -0.9700 H   0  0  0  0  0  0  0  0  0  0  0  0
    1.5617    3.4785   -0.3111 H   0  0  0  0  0  0  0  0  0  0  0  0
  1  3  1  0
  1  4  1  0
  1  7  1  0
  2  8  1  0
  2  9  1  0
  2 10  1  0
  2 11  1  0
  3  5  3  0
  4  6  3  0
  5 12  1  0
  6 13  1  0
M  RAD  1   1   2
M  END
>  <reaction>  (17) 
rxn_837

>  <mol_properties>  (17) 
{"1": {"label": "*0", "atom_type": "Ct"}, "2": {"label": "*1", "atom_type": "Cs"}, "8": {"label": "*3", "atom_type": "Cs"}, "9": {"label": "*2", "atom_type": "H0"}, "10": {"label": "*4", "atom_type": "H0"}}

>  <type>  (17) 
unop_13

>  <geom_source>  (17) 
AutoTST

$$$$
