
     RDKit          3D

  9  8  0  0  0  0  0  0  0  0999 V2000
    1.1303   -0.2933   -0.7510 C   0  0  0  0  0  0  0  0  0  0  0  0
    0.2866    0.4560   -0.0588 C   0  0  0  0  0  0  0  0  0  0  0  0
   -0.9719   -0.0331    0.5823 C   0  0  0  0  0  0  0  0  0  0  0  0
    2.0274    0.1230   -1.1916 H   0  0  0  0  0  0  0  0  0  0  0  0
    0.9532   -1.3530   -0.9023 H   0  0  0  0  0  0  0  0  0  0  0  0
    0.5065    1.5132    0.0659 H   0  0  0  0  0  0  0  0  0  0  0  0
   -0.9526    0.1426    1.6610 H   0  0  0  0  0  0  0  0  0  0  0  0
   -1.1182   -1.1002    0.4106 H   0  0  0  0  0  0  0  0  0  0  0  0
   -1.8412    0.5010    0.1901 H   0  0  0  0  0  0  0  0  0  0  0  0
  1  2  2  3
  1  4  1  0
  1  5  1  0
  2  3  1  0
  2  6  1  0
  3  7  1  0
  3  8  1  0
  3  9  1  0
M  END
>  <reaction>  (1) 
rxn_347

>  <mol_properties>  (1) 
{"1": {"label": "donator", "atom_type": "Cd"}, "5": {"label": "d_hydrogen", "atom_type": "H0"}}

>  <type>  (1) 
r1h

$$$$

     RDKit          3D

  4  3  0  0  0  0  0  0  0  0999 V2000
    0.0000    0.0000    0.0000 C   0  0  0  0  0  3  0  0  0  0  0  0
    1.0638   -0.1747    0.0540 H   0  0  0  0  0  0  0  0  0  0  0  0
   -0.6833   -0.8351   -0.0280 H   0  0  0  0  0  0  0  0  0  0  0  0
   -0.3805    1.0098   -0.0260 H   0  0  0  0  0  0  0  0  0  0  0  0
  1  2  1  0
  1  3  1  0
  1  4  1  0
M  RAD  1   1   2
M  END
>  <reaction>  (2) 
rxn_347

>  <mol_properties>  (2) 
{"0": {"label": "acceptor", "atom_type": "Cs"}}

>  <type>  (2) 
r2

$$$$

     RDKit          3D

  5  4  0  0  0  0  0  0  0  0999 V2000
    0.0000    0.0000    0.0000 C   0  0  0  0  0  0  0  0  0  0  0  0
   -0.6486   -0.7720   -0.4113 H   0  0  0  0  0  0  0  0  0  0  0  0
   -0.3482    0.9787   -0.3267 H   0  0  0  0  0  0  0  0  0  0  0  0
   -0.0223   -0.0487    1.0876 H   0  0  0  0  0  0  0  0  0  0  0  0
    1.0191   -0.1580   -0.3496 H   0  0  0  0  0  0  0  0  0  0  0  0
  1  2  1  0
  1  3  1  0
  1  4  1  0
  1  5  1  0
M  END
>  <reaction>  (3) 
rxn_347

>  <mol_properties>  (3) 
{"0": {"label": "acceptor", "atom_type": "Cs"}, "4": {"label": "a_hydrogen", "atom_type": "H0"}}

>  <type>  (3) 
r2h

$$$$

     RDKit          3D

 13 11  0  0  0  0  0  0  0  0999 V2000
   -0.0132   -1.9639    1.0243 C   0  0  0  0  0  0  0  0  0  0  0  0
    1.0100   -2.0927    1.3658 H   0  0  0  0  0  0  0  0  0  0  0  0
   -0.3071   -2.6844    0.2663 H   0  0  0  0  0  0  0  0  0  0  0  0
   -0.7311   -1.8759    1.8349 H   0  0  0  0  0  0  0  0  0  0  0  0
   -0.4135    0.3179   -1.5155 C   0  0  0  0  0  0  0  0  0  0  0  0
   -0.0642    0.3837   -0.2494 C   0  0  0  0  0  3  0  0  0  0  0  0
    0.3072    1.5470    0.5915 C   0  0  0  0  0  0  0  0  0  0  0  0
   -0.6585   -0.6264   -1.9888 H   0  0  0  0  0  0  0  0  0  0  0  0
   -0.4703    1.2089   -2.1380 H   0  0  0  0  0  0  0  0  0  0  0  0
   -0.0345   -0.7834    0.4000 H   0  0  0  0  0  0  0  0  0  0  0  0
   -0.3679    1.6398    1.4455 H   0  0  0  0  0  0  0  0  0  0  0  0
    0.2689    2.4782    0.0192 H   0  0  0  0  0  0  0  0  0  0  0  0
    1.3172    1.4300    0.9915 H   0  0  0  0  0  0  0  0  0  0  0  0
  1  2  1  0
  1  3  1  0
  1  4  1  0
  1 10  1  0
  5  6  2  3
  5  8  1  0
  5  9  1  0
  6  7  1  0
  7 11  1  0
  7 12  1  0
  7 13  1  0
M  RAD  1   6   2
M  END
>  <reaction>  (4) 
rxn_347

>  <mol_properties>  (4) 
{"0": {"label": "*1", "atom_type": "Cs"}, "1": {"label": "*0", "atom_type": "H0"}, "4": {"label": "*4", "atom_type": "Cd"}, "5": {"label": "*3", "atom_type": "Cd"}, "9": {"label": "*2", "atom_type": "H0"}}

>  <type>  (4) 
ts

$$$$

     RDKit          3D

 13 11  0  0  0  0  0  0  0  0999 V2000
    0.0025   -1.9957    1.0023 C   0  0  0  0  0  3  0  0  0  0  0  0
    0.8916   -2.0666    1.6270 H   0  0  0  0  0  0  0  0  0  0  0  0
   -0.3877   -2.9943    0.8117 H   0  0  0  0  0  0  0  0  0  0  0  0
   -0.6367   -1.4069    1.6585 H   0  0  0  0  0  0  0  0  0  0  0  0
    0.0025    0.2926   -1.5790 C   0  0  0  0  0  0  0  0  0  0  0  0
    0.0025    0.2926   -0.2552 C   0  0  0  0  0  0  0  0  0  0  0  0
    0.0025    1.5148    0.6053 C   0  0  0  0  0  0  0  0  0  0  0  0
    0.0025   -0.6301   -2.1455 H   0  0  0  0  0  0  0  0  0  0  0  0
    0.0025    1.2182   -2.1450 H   0  0  0  0  0  0  0  0  0  0  0  0
    0.0025   -0.8506    0.3730 H   0  0  0  0  0  0  0  0  0  0  0  0
   -0.8752    1.5319    1.2565 H   0  0  0  0  0  0  0  0  0  0  0  0
    0.0025    2.4252    0.0047 H   0  0  0  0  0  0  0  0  0  0  0  0
    0.8802    1.5319    1.2565 H   0  0  0  0  0  0  0  0  0  0  0  0
  1  2  1  0
  1  3  1  0
  1  4  1  0
  5  6  2  3
  5  8  1  0
  5  9  1  0
  6  7  1  0
  6 10  1  0
  7 11  1  0
  7 12  1  0
  7 13  1  0
M  RAD  1   1   2
M  END
>  <reaction>  (5) 
rxn_347

>  <mol_properties>  (5) 
{"0": {"label": "*1", "atom_type": "Cs"}, "1": {"label": "*0", "atom_type": "H0"}, "4": {"label": "*4", "atom_type": "Cd"}, "5": {"label": "*3", "atom_type": "Cd"}, "9": {"label": "*2", "atom_type": "H0"}}

>  <type>  (5) 
unop_1

>  <geom_source>  (5) 
Heuristics

$$$$

     RDKit          3D

 13 11  0  0  0  0  0  0  0  0999 V2000
    0.0017   -1.9966    1.0115 C   0  0  0  0  0  3  0  0  0  0  0  0
    0.5151   -2.7429    0.4072 H   0  0  0  0  0  0  0  0  0  0  0  0
   -0.8895   -2.4386    1.4543 H   0  0  0  0  0  0  0  0  0  0  0  0
    0.2809   -1.2389    1.7421 H   0  0  0  0  0  0  0  0  0  0  0  0
    0.0017    0.2917   -1.5698 C   0  0  0  0  0  0  0  0  0  0  0  0
    0.0017    0.2917   -0.2460 C   0  0  0  0  0  0  0  0  0  0  0  0
    0.0017    1.5139    0.6145 C   0  0  0  0  0  0  0  0  0  0  0  0
    0.0017   -0.6310   -2.1362 H   0  0  0  0  0  0  0  0  0  0  0  0
    0.0017    1.2173   -2.1358 H   0  0  0  0  0  0  0  0  0  0  0  0
    0.0017   -0.8514    0.3822 H   0  0  0  0  0  0  0  0  0  0  0  0
   -0.8760    1.5310    1.2657 H   0  0  0  0  0  0  0  0  0  0  0  0
    0.0017    2.4243    0.0139 H   0  0  0  0  0  0  0  0  0  0  0  0
    0.8795    1.5310    1.2657 H   0  0  0  0  0  0  0  0  0  0  0  0
  1  2  1  0
  1  3  1  0
  1  4  1  0
  5  6  2  3
  5  8  1  0
  5  9  1  0
  6  7  1  0
  6 10  1  0
  7 11  1  0
  7 12  1  0
  7 13  1  0
M  RAD  1   1   2
M  END
>  <reaction>  (6) 
rxn_347

>  <mol_properties>  (6) 
{"0": {"label": "*1", "atom_type": "Cs"}, "1": {"label": "*0", "atom_type": "H0"}, "4": {"label": "*4", "atom_type": "Cd"}, "5": {"label": "*3", "atom_type": "Cd"}, "9": {"label": "*2", "atom_type": "H0"}}

>  <type>  (6) 
unop_2

>  <geom_source>  (6) 
Heuristics

$$$$

     RDKit          3D

 13 11  0  0  0  0  0  0  0  0999 V2000
    0.0050   -1.9919    1.0029 C   0  0  0  0  0  3  0  0  0  0  0  0
    0.5183   -1.8818    1.9569 H   0  0  0  0  0  0  0  0  0  0  0  0
    0.1611   -2.9997    0.6210 H   0  0  0  0  0  0  0  0  0  0  0  0
   -0.9485   -1.7902    1.4885 H   0  0  0  0  0  0  0  0  0  0  0  0
    0.0050    0.2964   -1.5784 C   0  0  0  0  0  0  0  0  0  0  0  0
    0.0050    0.2964   -0.2546 C   0  0  0  0  0  0  0  0  0  0  0  0
    0.0050    1.5186    0.6059 C   0  0  0  0  0  0  0  0  0  0  0  0
    0.0050   -0.6263   -2.1449 H   0  0  0  0  0  0  0  0  0  0  0  0
    0.0050    1.2220   -2.1444 H   0  0  0  0  0  0  0  0  0  0  0  0
    0.0050   -0.8468    0.3736 H   0  0  0  0  0  0  0  0  0  0  0  0
   -0.8727    1.5357    1.2571 H   0  0  0  0  0  0  0  0  0  0  0  0
    0.0050    2.4290    0.0053 H   0  0  0  0  0  0  0  0  0  0  0  0
    0.8827    1.5357    1.2571 H   0  0  0  0  0  0  0  0  0  0  0  0
  1  2  1  0
  1  3  1  0
  1  4  1  0
  5  6  2  3
  5  8  1  0
  5  9  1  0
  6  7  1  0
  6 10  1  0
  7 11  1  0
  7 12  1  0
  7 13  1  0
M  RAD  1   1   2
M  END
>  <reaction>  (7) 
rxn_347

>  <mol_properties>  (7) 
{"0": {"label": "*1", "atom_type": "Cs"}, "1": {"label": "*0", "atom_type": "H0"}, "4": {"label": "*4", "atom_type": "Cd"}, "5": {"label": "*3", "atom_type": "Cd"}, "9": {"label": "*2", "atom_type": "H0"}}

>  <type>  (7) 
unop_3

>  <geom_source>  (7) 
Heuristics

$$$$

     RDKit          3D

 13 11  0  0  0  0  0  0  0  0999 V2000
    0.0023   -1.9983    1.0076 C   0  0  0  0  0  3  0  0  0  0  0  0
   -0.8868   -2.5636    0.7326 H   0  0  0  0  0  0  0  0  0  0  0  0
   -0.2236   -1.3582    1.8591 H   0  0  0  0  0  0  0  0  0  0  0  0
    0.9875   -2.4089    1.2233 H   0  0  0  0  0  0  0  0  0  0  0  0
    0.0023    0.2900   -1.5737 C   0  0  0  0  0  0  0  0  0  0  0  0
    0.0023    0.2900   -0.2500 C   0  0  0  0  0  0  0  0  0  0  0  0
    0.0023    1.5122    0.6106 C   0  0  0  0  0  0  0  0  0  0  0  0
    0.0023   -0.6327   -2.1402 H   0  0  0  0  0  0  0  0  0  0  0  0
    0.0023    1.2156   -2.1397 H   0  0  0  0  0  0  0  0  0  0  0  0
    0.0023   -0.8531    0.3783 H   0  0  0  0  0  0  0  0  0  0  0  0
   -0.8754    1.5293    1.2618 H   0  0  0  0  0  0  0  0  0  0  0  0
    0.0023    2.4227    0.0100 H   0  0  0  0  0  0  0  0  0  0  0  0
    0.8800    1.5293    1.2618 H   0  0  0  0  0  0  0  0  0  0  0  0
  1  2  1  0
  1  3  1  0
  1  4  1  0
  5  6  2  3
  5  8  1  0
  5  9  1  0
  6  7  1  0
  6 10  1  0
  7 11  1  0
  7 12  1  0
  7 13  1  0
M  RAD  1   1   2
M  END
>  <reaction>  (8) 
rxn_347

>  <mol_properties>  (8) 
{"0": {"label": "*1", "atom_type": "Cs"}, "1": {"label": "*0", "atom_type": "H0"}, "4": {"label": "*4", "atom_type": "Cd"}, "5": {"label": "*3", "atom_type": "Cd"}, "9": {"label": "*2", "atom_type": "H0"}}

>  <type>  (8) 
unop_4

>  <geom_source>  (8) 
Heuristics

$$$$

     RDKit          3D

 13 11  0  0  0  0  0  0  0  0999 V2000
    0.0008   -1.9878    1.0047 C   0  0  0  0  0  3  0  0  0  0  0  0
    0.0008   -1.8115    2.0792 H   0  0  0  0  0  0  0  0  0  0  0  0
    0.8899   -2.5532    0.7296 H   0  0  0  0  0  0  0  0  0  0  0  0
   -0.9315   -2.5276    1.1635 H   0  0  0  0  0  0  0  0  0  0  0  0
    0.0008    0.3005   -1.5766 C   0  0  0  0  0  0  0  0  0  0  0  0
    0.0008    0.3005   -0.2529 C   0  0  0  0  0  0  0  0  0  0  0  0
    0.0008    1.5227    0.6076 C   0  0  0  0  0  0  0  0  0  0  0  0
    0.0008   -0.6222   -2.1431 H   0  0  0  0  0  0  0  0  0  0  0  0
    0.0008    1.2261   -2.1426 H   0  0  0  0  0  0  0  0  0  0  0  0
    0.0008   -0.8426    0.3753 H   0  0  0  0  0  0  0  0  0  0  0  0
   -0.8769    1.5398    1.2588 H   0  0  0  0  0  0  0  0  0  0  0  0
    0.0008    2.4331    0.0070 H   0  0  0  0  0  0  0  0  0  0  0  0
    0.8785    1.5398    1.2588 H   0  0  0  0  0  0  0  0  0  0  0  0
  1  2  1  0
  1  3  1  0
  1  4  1  0
  5  6  2  3
  5  8  1  0
  5  9  1  0
  6  7  1  0
  6 10  1  0
  7 11  1  0
  7 12  1  0
  7 13  1  0
M  RAD  1   1   2
M  END
>  <reaction>  (9) 
rxn_347

>  <mol_properties>  (9) 
{"0": {"label": "*1", "atom_type": "Cs"}, "1": {"label": "*0", "atom_type": "H0"}, "4": {"label": "*4", "atom_type": "Cd"}, "5": {"label": "*3", "atom_type": "Cd"}, "9": {"label": "*2", "atom_type": "H0"}}

>  <type>  (9) 
unop_5

>  <geom_source>  (9) 
Heuristics

$$$$

     RDKit          3D

 13 11  0  0  0  0  0  0  0  0999 V2000
    0.0006   -1.9968    1.0046 C   0  0  0  0  0  3  0  0  0  0  0  0
   -1.0261   -2.3149    1.1794 H   0  0  0  0  0  0  0  0  0  0  0  0
    0.2889   -1.2689    1.7614 H   0  0  0  0  0  0  0  0  0  0  0  0
    0.7069   -2.8250    1.0363 H   0  0  0  0  0  0  0  0  0  0  0  0
    0.0006    0.2915   -1.5767 C   0  0  0  0  0  0  0  0  0  0  0  0
    0.0006    0.2915   -0.2530 C   0  0  0  0  0  0  0  0  0  0  0  0
    0.0006    1.5137    0.6075 C   0  0  0  0  0  0  0  0  0  0  0  0
    0.0006   -0.6312   -2.1432 H   0  0  0  0  0  0  0  0  0  0  0  0
    0.0006    1.2171   -2.1427 H   0  0  0  0  0  0  0  0  0  0  0  0
    0.0006   -0.8517    0.3752 H   0  0  0  0  0  0  0  0  0  0  0  0
   -0.8771    1.5308    1.2588 H   0  0  0  0  0  0  0  0  0  0  0  0
    0.0006    2.4241    0.0069 H   0  0  0  0  0  0  0  0  0  0  0  0
    0.8783    1.5308    1.2588 H   0  0  0  0  0  0  0  0  0  0  0  0
  1  2  1  0
  1  3  1  0
  1  4  1  0
  5  6  2  3
  5  8  1  0
  5  9  1  0
  6  7  1  0
  6 10  1  0
  7 11  1  0
  7 12  1  0
  7 13  1  0
M  RAD  1   1   2
M  END
>  <reaction>  (10) 
rxn_347

>  <mol_properties>  (10) 
{"0": {"label": "*1", "atom_type": "Cs"}, "1": {"label": "*0", "atom_type": "H0"}, "4": {"label": "*4", "atom_type": "Cd"}, "5": {"label": "*3", "atom_type": "Cd"}, "9": {"label": "*2", "atom_type": "H0"}}

>  <type>  (10) 
unop_6

>  <geom_source>  (10) 
Heuristics

$$$$

     RDKit          3D

 13 11  0  0  0  0  0  0  0  0999 V2000
   -0.0023   -1.9948    1.0027 C   0  0  0  0  0  3  0  0  0  0  0  0
   -0.8914   -2.0657    1.6274 H   0  0  0  0  0  0  0  0  0  0  0  0
    0.7540   -1.4011    1.5138 H   0  0  0  0  0  0  0  0  0  0  0  0
    0.2589   -3.0498    0.9345 H   0  0  0  0  0  0  0  0  0  0  0  0
   -0.0023    0.2935   -1.5786 C   0  0  0  0  0  0  0  0  0  0  0  0
   -0.0023    0.2935   -0.2548 C   0  0  0  0  0  0  0  0  0  0  0  0
   -0.0023    1.5157    0.6057 C   0  0  0  0  0  0  0  0  0  0  0  0
   -0.0023   -0.6292   -2.1451 H   0  0  0  0  0  0  0  0  0  0  0  0
   -0.0023    1.2191   -2.1446 H   0  0  0  0  0  0  0  0  0  0  0  0
   -0.0023   -0.8496    0.3734 H   0  0  0  0  0  0  0  0  0  0  0  0
   -0.8800    1.5328    1.2569 H   0  0  0  0  0  0  0  0  0  0  0  0
   -0.0023    2.4261    0.0051 H   0  0  0  0  0  0  0  0  0  0  0  0
    0.8754    1.5328    1.2569 H   0  0  0  0  0  0  0  0  0  0  0  0
  1  2  1  0
  1  3  1  0
  1  4  1  0
  5  6  2  3
  5  8  1  0
  5  9  1  0
  6  7  1  0
  6 10  1  0
  7 11  1  0
  7 12  1  0
  7 13  1  0
M  RAD  1   1   2
M  END
>  <reaction>  (11) 
rxn_347

>  <mol_properties>  (11) 
{"0": {"label": "*1", "atom_type": "Cs"}, "1": {"label": "*0", "atom_type": "H0"}, "4": {"label": "*4", "atom_type": "Cd"}, "5": {"label": "*3", "atom_type": "Cd"}, "9": {"label": "*2", "atom_type": "H0"}}

>  <type>  (11) 
unop_7

>  <geom_source>  (11) 
Heuristics

$$$$

     RDKit          3D

 13 11  0  0  0  0  0  0  0  0999 V2000
   -0.0005   -1.9964    1.0048 C   0  0  0  0  0  3  0  0  0  0  0  0
    1.0262   -2.3146    1.1796 H   0  0  0  0  0  0  0  0  0  0  0  0
   -0.6623   -2.8594    1.0604 H   0  0  0  0  0  0  0  0  0  0  0  0
   -0.3384   -1.2557    1.7279 H   0  0  0  0  0  0  0  0  0  0  0  0
   -0.0005    0.2919   -1.5766 C   0  0  0  0  0  0  0  0  0  0  0  0
   -0.0005    0.2919   -0.2528 C   0  0  0  0  0  0  0  0  0  0  0  0
   -0.0005    1.5141    0.6077 C   0  0  0  0  0  0  0  0  0  0  0  0
   -0.0005   -0.6308   -2.1430 H   0  0  0  0  0  0  0  0  0  0  0  0
   -0.0005    1.2175   -2.1426 H   0  0  0  0  0  0  0  0  0  0  0  0
   -0.0005   -0.8513    0.3754 H   0  0  0  0  0  0  0  0  0  0  0  0
   -0.8782    1.5312    1.2589 H   0  0  0  0  0  0  0  0  0  0  0  0
   -0.0005    2.4245    0.0071 H   0  0  0  0  0  0  0  0  0  0  0  0
    0.8772    1.5312    1.2589 H   0  0  0  0  0  0  0  0  0  0  0  0
  1  2  1  0
  1  3  1  0
  1  4  1  0
  5  6  2  3
  5  8  1  0
  5  9  1  0
  6  7  1  0
  6 10  1  0
  7 11  1  0
  7 12  1  0
  7 13  1  0
M  RAD  1   1   2
M  END
>  <reaction>  (12) 
rxn_347

>  <mol_properties>  (12) 
{"0": {"label": "*1", "atom_type": "Cs"}, "1": {"label": "*0", "atom_type": "H0"}, "4": {"label": "*4", "atom_type": "Cd"}, "5": {"label": "*3", "atom_type": "Cd"}, "9": {"label": "*2", "atom_type": "H0"}}

>  <type>  (12) 
unop_8

>  <geom_source>  (12) 
Heuristics

$$$$

     RDKit          3D

 13 11  0  0  0  0  0  0  0  0999 V2000
    0.0034   -1.9992    1.0104 C   0  0  0  0  0  3  0  0  0  0  0  0
   -0.5099   -2.7455    0.4060 H   0  0  0  0  0  0  0  0  0  0  0  0
   -0.6608   -1.6527    1.8007 H   0  0  0  0  0  0  0  0  0  0  0  0
    0.9890   -1.8826    1.4584 H   0  0  0  0  0  0  0  0  0  0  0  0
    0.0034    0.2891   -1.5709 C   0  0  0  0  0  0  0  0  0  0  0  0
    0.0034    0.2891   -0.2472 C   0  0  0  0  0  0  0  0  0  0  0  0
    0.0034    1.5113    0.6134 C   0  0  0  0  0  0  0  0  0  0  0  0
    0.0034   -0.6336   -2.1374 H   0  0  0  0  0  0  0  0  0  0  0  0
    0.0034    1.2147   -2.1369 H   0  0  0  0  0  0  0  0  0  0  0  0
    0.0034   -0.8540    0.3811 H   0  0  0  0  0  0  0  0  0  0  0  0
   -0.8743    1.5284    1.2646 H   0  0  0  0  0  0  0  0  0  0  0  0
    0.0034    2.4217    0.0128 H   0  0  0  0  0  0  0  0  0  0  0  0
    0.8811    1.5284    1.2646 H   0  0  0  0  0  0  0  0  0  0  0  0
  1  2  1  0
  1  3  1  0
  1  4  1  0
  5  6  2  3
  5  8  1  0
  5  9  1  0
  6  7  1  0
  6 10  1  0
  7 11  1  0
  7 12  1  0
  7 13  1  0
M  RAD  1   1   2
M  END
>  <reaction>  (13) 
rxn_347

>  <mol_properties>  (13) 
{"0": {"label": "*1", "atom_type": "Cs"}, "1": {"label": "*0", "atom_type": "H0"}, "4": {"label": "*4", "atom_type": "Cd"}, "5": {"label": "*3", "atom_type": "Cd"}, "9": {"label": "*2", "atom_type": "H0"}}

>  <type>  (13) 
unop_9

>  <geom_source>  (13) 
Heuristics

$$$$

     RDKit          3D

 13 11  0  0  0  0  0  0  0  0999 V2000
   -0.0006   -1.9961    1.0086 C   0  0  0  0  0  3  0  0  0  0  0  0
    0.8885   -2.5614    0.7335 H   0  0  0  0  0  0  0  0  0  0  0  0
   -0.8009   -2.6849    1.2745 H   0  0  0  0  0  0  0  0  0  0  0  0
   -0.0574   -1.2044    1.7541 H   0  0  0  0  0  0  0  0  0  0  0  0
   -0.0006    0.2923   -1.5727 C   0  0  0  0  0  0  0  0  0  0  0  0
   -0.0006    0.2923   -0.2490 C   0  0  0  0  0  0  0  0  0  0  0  0
   -0.0006    1.5145    0.6115 C   0  0  0  0  0  0  0  0  0  0  0  0
   -0.0006   -0.6304   -2.1392 H   0  0  0  0  0  0  0  0  0  0  0  0
   -0.0006    1.2179   -2.1387 H   0  0  0  0  0  0  0  0  0  0  0  0
   -0.0006   -0.8509    0.3793 H   0  0  0  0  0  0  0  0  0  0  0  0
   -0.8783    1.5316    1.2628 H   0  0  0  0  0  0  0  0  0  0  0  0
   -0.0006    2.4249    0.0109 H   0  0  0  0  0  0  0  0  0  0  0  0
    0.8771    1.5316    1.2628 H   0  0  0  0  0  0  0  0  0  0  0  0
  1  2  1  0
  1  3  1  0
  1  4  1  0
  5  6  2  3
  5  8  1  0
  5  9  1  0
  6  7  1  0
  6 10  1  0
  7 11  1  0
  7 12  1  0
  7 13  1  0
M  RAD  1   1   2
M  END
>  <reaction>  (14) 
rxn_347

>  <mol_properties>  (14) 
{"0": {"label": "*1", "atom_type": "Cs"}, "1": {"label": "*0", "atom_type": "H0"}, "4": {"label": "*4", "atom_type": "Cd"}, "5": {"label": "*3", "atom_type": "Cd"}, "9": {"label": "*2", "atom_type": "H0"}}

>  <type>  (14) 
unop_10

>  <geom_source>  (14) 
Heuristics

$$$$

     RDKit          3D

 13 11  0  0  0  0  0  0  0  0999 V2000
   -0.0040   -1.9909    1.0034 C   0  0  0  0  0  3  0  0  0  0  0  0
   -0.5173   -1.8808    1.9574 H   0  0  0  0  0  0  0  0  0  0  0  0
    1.0618   -1.8164    1.1424 H   0  0  0  0  0  0  0  0  0  0  0  0
   -0.3307   -3.0279    0.9430 H   0  0  0  0  0  0  0  0  0  0  0  0
   -0.0040    0.2974   -1.5780 C   0  0  0  0  0  0  0  0  0  0  0  0
   -0.0040    0.2974   -0.2542 C   0  0  0  0  0  0  0  0  0  0  0  0
   -0.0040    1.5196    0.6063 C   0  0  0  0  0  0  0  0  0  0  0  0
   -0.0040   -0.6253   -2.1444 H   0  0  0  0  0  0  0  0  0  0  0  0
   -0.0040    1.2230   -2.1440 H   0  0  0  0  0  0  0  0  0  0  0  0
   -0.0040   -0.8458    0.3740 H   0  0  0  0  0  0  0  0  0  0  0  0
   -0.8817    1.5367    1.2575 H   0  0  0  0  0  0  0  0  0  0  0  0
   -0.0040    2.4300    0.0057 H   0  0  0  0  0  0  0  0  0  0  0  0
    0.8737    1.5367    1.2575 H   0  0  0  0  0  0  0  0  0  0  0  0
  1  2  1  0
  1  3  1  0
  1  4  1  0
  5  6  2  3
  5  8  1  0
  5  9  1  0
  6  7  1  0
  6 10  1  0
  7 11  1  0
  7 12  1  0
  7 13  1  0
M  RAD  1   1   2
M  END
>  <reaction>  (15) 
rxn_347

>  <mol_properties>  (15) 
{"0": {"label": "*1", "atom_type": "Cs"}, "1": {"label": "*0", "atom_type": "H0"}, "4": {"label": "*4", "atom_type": "Cd"}, "5": {"label": "*3", "atom_type": "Cd"}, "9": {"label": "*2", "atom_type": "H0"}}

>  <type>  (15) 
unop_11

>  <geom_source>  (15) 
Heuristics

$$$$

     RDKit          3D

 13 11  0  0  0  0  0  0  0  0999 V2000
    0.0036   -1.9984    1.0121 C   0  0  0  0  0  3  0  0  0  0  0  0
    0.0036   -2.8110    0.2871 H   0  0  0  0  0  0  0  0  0  0  0  0
   -0.8855   -2.0693    1.6367 H   0  0  0  0  0  0  0  0  0  0  0  0
    0.6890   -1.4453    1.6525 H   0  0  0  0  0  0  0  0  0  0  0  0
    0.0036    0.2899   -1.5693 C   0  0  0  0  0  0  0  0  0  0  0  0
    0.0036    0.2899   -0.2455 C   0  0  0  0  0  0  0  0  0  0  0  0
    0.0036    1.5121    0.6150 C   0  0  0  0  0  0  0  0  0  0  0  0
    0.0036   -0.6328   -2.1357 H   0  0  0  0  0  0  0  0  0  0  0  0
    0.0036    1.2155   -2.1353 H   0  0  0  0  0  0  0  0  0  0  0  0
    0.0036   -0.8532    0.3827 H   0  0  0  0  0  0  0  0  0  0  0  0
   -0.8741    1.5292    1.2662 H   0  0  0  0  0  0  0  0  0  0  0  0
    0.0036    2.4226    0.0144 H   0  0  0  0  0  0  0  0  0  0  0  0
    0.8813    1.5292    1.2662 H   0  0  0  0  0  0  0  0  0  0  0  0
  1  2  1  0
  1  3  1  0
  1  4  1  0
  5  6  2  3
  5  8  1  0
  5  9  1  0
  6  7  1  0
  6 10  1  0
  7 11  1  0
  7 12  1  0
  7 13  1  0
M  RAD  1   1   2
M  END
>  <reaction>  (16) 
rxn_347

>  <mol_properties>  (16) 
{"0": {"label": "*1", "atom_type": "Cs"}, "1": {"label": "*0", "atom_type": "H0"}, "4": {"label": "*4", "atom_type": "Cd"}, "5": {"label": "*3", "atom_type": "Cd"}, "9": {"label": "*2", "atom_type": "H0"}}

>  <type>  (16) 
unop_12

>  <geom_source>  (16) 
Heuristics

$$$$

     RDKit          3D

 13 11  0  0  0  0  0  0  0  0999 V2000
   -1.5062   -0.9169   -0.0462 C   0  0  0  0  0  0  0  0  0  0  0  0
    2.0092   -0.1364   -0.4191 C   0  0  0  0  0  0  0  0  0  0  0  0
   -0.7821    1.3546    0.6043 C   0  0  0  0  0  0  0  0  0  0  0  0
   -0.5384    0.2228   -0.0573 C   0  0  0  0  0  3  0  0  0  0  0  0
   -2.4785   -0.5943   -0.4748 H   0  0  0  0  0  0  0  0  0  0  0  0
   -1.0987   -1.7469   -0.6591 H   0  0  0  0  0  0  0  0  0  0  0  0
   -1.6589   -1.2760    0.9935 H   0  0  0  0  0  0  0  0  0  0  0  0
    2.4411   -0.7316   -1.2497 H   0  0  0  0  0  0  0  0  0  0  0  0
    2.3325   -0.5664    0.5511 H   0  0  0  0  0  0  0  0  0  0  0  0
    2.3613    0.9130   -0.4942 H   0  0  0  0  0  0  0  0  0  0  0  0
    0.6734   -0.1654   -0.4969 H   0  0  0  0  0  0  0  0  0  0  0  0
   -0.0573    2.1605    0.5738 H   0  0  0  0  0  0  0  0  0  0  0  0
   -1.6973    1.4830    1.1747 H   0  0  0  0  0  0  0  0  0  0  0  0
  1  4  1  0
  1  5  1  0
  1  6  1  0
  1  7  1  0
  2  8  1  0
  2  9  1  0
  2 10  1  0
  2 11  1  0
  3  4  2  3
  3 12  1  0
  3 13  1  0
M  RAD  1   4   2
M  END
>  <reaction>  (17) 
rxn_347

>  <mol_properties>  (17) 
{"0": {"label": "*1", "atom_type": "Cs"}, "1": {"label": "*0", "atom_type": "H0"}, "4": {"label": "*4", "atom_type": "Cd"}, "5": {"label": "*3", "atom_type": "Cd"}, "9": {"label": "*2", "atom_type": "H0"}}

>  <type>  (17) 
unop_13

>  <geom_source>  (17) 
AutoTST

$$$$
