
     RDKit          3D

  9  8  0  0  0  0  0  0  0  0999 V2000
    1.1303   -0.2933   -0.7510 C   0  0  0  0  0  0  0  0  0  0  0  0
    0.2866    0.4560   -0.0588 C   0  0  0  0  0  0  0  0  0  0  0  0
   -0.9719   -0.0331    0.5823 C   0  0  0  0  0  0  0  0  0  0  0  0
    2.0274    0.1230   -1.1916 H   0  0  0  0  0  0  0  0  0  0  0  0
    0.9532   -1.3530   -0.9023 H   0  0  0  0  0  0  0  0  0  0  0  0
    0.5065    1.5132    0.0659 H   0  0  0  0  0  0  0  0  0  0  0  0
   -0.9526    0.1426    1.6610 H   0  0  0  0  0  0  0  0  0  0  0  0
   -1.1182   -1.1002    0.4106 H   0  0  0  0  0  0  0  0  0  0  0  0
   -1.8412    0.5010    0.1901 H   0  0  0  0  0  0  0  0  0  0  0  0
  1  2  2  3
  1  4  1  0
  1  5  1  0
  2  3  1  0
  2  6  1  0
  3  7  1  0
  3  8  1  0
  3  9  1  0
M  END
>  <reaction>  (1) 
rxn_998

>  <mol_properties>  (1) 
{"2": {"label": "donator", "atom_type": "Cs"}, "6": {"label": "d_hydrogen", "atom_type": "H0"}}

>  <type>  (1) 
r1h

$$$$

     RDKit          3D

 10  9  0  0  0  0  0  0  0  0999 V2000
    1.2930    0.1441    0.3288 C   0  0  0  0  0  0  0  0  0  0  0  0
   -0.0374   -0.1647    0.9100 C   0  0  0  0  0  3  0  0  0  0  0  0
   -1.2664    0.4569    0.3567 C   0  0  0  0  0  0  0  0  0  0  0  0
    1.4384    1.2242    0.2174 H   0  0  0  0  0  0  0  0  0  0  0  0
    2.1077   -0.2477    0.9385 H   0  0  0  0  0  0  0  0  0  0  0  0
    1.4057   -0.2836   -0.6789 H   0  0  0  0  0  0  0  0  0  0  0  0
   -0.1309   -0.9912    1.6030 H   0  0  0  0  0  0  0  0  0  0  0  0
   -1.5005    0.0716   -0.6471 H   0  0  0  0  0  0  0  0  0  0  0  0
   -2.1382    0.2713    0.9849 H   0  0  0  0  0  0  0  0  0  0  0  0
   -1.1497    1.5406    0.2456 H   0  0  0  0  0  0  0  0  0  0  0  0
  1  2  1  0
  1  4  1  0
  1  5  1  0
  1  6  1  0
  2  3  1  0
  2  7  1  0
  3  8  1  0
  3  9  1  0
  3 10  1  0
M  RAD  1   2   2
M  END
>  <reaction>  (2) 
rxn_998

>  <mol_properties>  (2) 
{"1": {"label": "acceptor", "atom_type": "Cs"}}

>  <type>  (2) 
r2

$$$$

     RDKit          3D

 11 10  0  0  0  0  0  0  0  0999 V2000
   -1.2710    0.1907   -0.2084 C   0  0  0  0  0  0  0  0  0  0  0  0
    0.0202   -0.6130   -0.2928 C   0  0  0  0  0  0  0  0  0  0  0  0
    0.1086   -1.6953    0.7756 C   0  0  0  0  0  0  0  0  0  0  0  0
   -1.3607    0.6851    0.7620 H   0  0  0  0  0  0  0  0  0  0  0  0
   -2.1429   -0.4567   -0.3299 H   0  0  0  0  0  0  0  0  0  0  0  0
   -1.3158    0.9602   -0.9809 H   0  0  0  0  0  0  0  0  0  0  0  0
    0.8757    0.0616   -0.1992 H   0  0  0  0  0  0  0  0  0  0  0  0
    0.0997   -1.0712   -1.2825 H   0  0  0  0  0  0  0  0  0  0  0  0
   -0.7198   -2.4022    0.6850 H   0  0  0  0  0  0  0  0  0  0  0  0
    1.0395   -2.2596    0.6989 H   0  0  0  0  0  0  0  0  0  0  0  0
    0.0624   -1.2603    1.7770 H   0  0  0  0  0  0  0  0  0  0  0  0
  1  2  1  0
  1  4  1  0
  1  5  1  0
  1  6  1  0
  2  3  1  0
  2  7  1  0
  2  8  1  0
  3  9  1  0
  3 10  1  0
  3 11  1  0
M  END
>  <reaction>  (3) 
rxn_998

>  <mol_properties>  (3) 
{"0": {"label": "a_hydrogen", "atom_type": "H0"}, "2": {"label": "acceptor", "atom_type": "Cs"}}

>  <type>  (3) 
r2h

$$$$

     RDKit          3D

 19 17  0  0  0  0  0  0  0  0999 V2000
    0.8331   -0.2589   -2.2709 C   0  0  0  0  0  0  0  0  0  0  0  0
    1.2219   -0.7032   -1.0729 C   0  0  0  0  0  0  0  0  0  0  0  0
    1.5613    0.1407    0.0669 C   0  0  0  0  0  0  0  0  0  0  0  0
    0.5549   -0.9401   -3.0644 H   0  0  0  0  0  0  0  0  0  0  0  0
    0.7945    0.8022   -2.4931 H   0  0  0  0  0  0  0  0  0  0  0  0
    1.2434   -1.7766   -0.9037 H   0  0  0  0  0  0  0  0  0  0  0  0
    0.4789    0.2821    0.7814 H   0  0  0  0  0  0  0  0  0  0  0  0
    1.8086    1.1711   -0.1830 H   0  0  0  0  0  0  0  0  0  0  0  0
    2.2634   -0.2924    0.7757 H   0  0  0  0  0  0  0  0  0  0  0  0
   -1.3362   -0.9583    1.3375 C   0  0  0  0  0  0  0  0  0  0  0  0
   -0.7726    0.4331    1.3758 C   0  0  0  0  0  3  0  0  0  0  0  0
   -1.4515    1.4536    0.5071 C   0  0  0  0  0  0  0  0  0  0  0  0
   -1.3559   -1.3369    0.3116 H   0  0  0  0  0  0  0  0  0  0  0  0
   -0.7474   -1.6490    1.9436 H   0  0  0  0  0  0  0  0  0  0  0  0
   -2.3660   -0.9819    1.7124 H   0  0  0  0  0  0  0  0  0  0  0  0
   -0.5210    0.7888    2.3746 H   0  0  0  0  0  0  0  0  0  0  0  0
   -2.4872    1.6220    0.8247 H   0  0  0  0  0  0  0  0  0  0  0  0
   -0.9361    2.4150    0.5372 H   0  0  0  0  0  0  0  0  0  0  0  0
   -1.4799    1.1146   -0.5320 H   0  0  0  0  0  0  0  0  0  0  0  0
  1  2  2  3
  1  4  1  0
  1  5  1  0
  2  3  1  0
  2  6  1  0
  3  7  1  0
  3  8  1  0
  3  9  1  0
 10 11  1  0
 10 13  1  0
 10 14  1  0
 10 15  1  0
 11 12  1  0
 11 16  1  0
 12 17  1  0
 12 18  1  0
 12 19  1  0
M  RAD  1  11   2
M  END
>  <reaction>  (4) 
rxn_998

>  <mol_properties>  (4) 
{"1": {"label": "*0", "atom_type": "Cd"}, "2": {"label": "*1", "atom_type": "Cs"}, "6": {"label": "*2", "atom_type": "H0"}, "9": {"label": "*4", "atom_type": "Cs"}, "10": {"label": "*3", "atom_type": "Cs"}}

>  <type>  (4) 
ts

$$$$

     RDKit          3D

 19 17  0  0  0  0  0  0  0  0999 V2000
    1.2521   -0.7865   -2.7218 C   0  0  0  0  0  0  0  0  0  0  0  0
    1.2521   -0.7865   -1.3980 C   0  0  0  0  0  0  0  0  0  0  0  0
    1.2521    0.4357   -0.5375 C   0  0  0  0  0  0  0  0  0  0  0  0
    1.2521   -1.7092   -3.2882 H   0  0  0  0  0  0  0  0  0  0  0  0
    1.2521    0.1391   -3.2878 H   0  0  0  0  0  0  0  0  0  0  0  0
    1.2521   -1.7391   -0.8745 H   0  0  0  0  0  0  0  0  0  0  0  0
    0.1988    0.4563    0.2440 H   0  0  0  0  0  0  0  0  0  0  0  0
    1.2521    1.3462   -1.1381 H   0  0  0  0  0  0  0  0  0  0  0  0
    2.1298    0.4528    0.1137 H   0  0  0  0  0  0  0  0  0  0  0  0
   -0.4060    0.4935    2.4814 C   0  0  0  0  0  0  0  0  0  0  0  0
   -0.8549    0.4768    1.0258 C   0  0  0  0  0  3  0  0  0  0  0  0
   -2.3017    0.0286    0.8630 C   0  0  0  0  0  0  0  0  0  0  0  0
   -0.4896   -0.5006    2.9273 H   0  0  0  0  0  0  0  0  0  0  0  0
    0.6318    0.8168    2.5775 H   0  0  0  0  0  0  0  0  0  0  0  0
   -1.0244    1.1729    3.0731 H   0  0  0  0  0  0  0  0  0  0  0  0
   -0.7323    1.4747    0.5956 H   0  0  0  0  0  0  0  0  0  0  0  0
   -2.9797    0.6934    1.4037 H   0  0  0  0  0  0  0  0  0  0  0  0
   -2.6044    0.0232   -0.1854 H   0  0  0  0  0  0  0  0  0  0  0  0
   -2.4449   -0.9801    1.2580 H   0  0  0  0  0  0  0  0  0  0  0  0
  1  2  2  3
  1  4  1  0
  1  5  1  0
  2  3  1  0
  2  6  1  0
  3  7  1  0
  3  8  1  0
  3  9  1  0
 10 11  1  0
 10 13  1  0
 10 14  1  0
 10 15  1  0
 11 12  1  0
 11 16  1  0
 12 17  1  0
 12 18  1  0
 12 19  1  0
M  RAD  1  11   2
M  END
>  <reaction>  (5) 
rxn_998

>  <mol_properties>  (5) 
{"1": {"label": "*0", "atom_type": "Cd"}, "2": {"label": "*1", "atom_type": "Cs"}, "6": {"label": "*2", "atom_type": "H0"}, "9": {"label": "*4", "atom_type": "Cs"}, "10": {"label": "*3", "atom_type": "Cs"}}

>  <type>  (5) 
unop_1

>  <geom_source>  (5) 
Heuristics

$$$$

     RDKit          3D

 19 17  0  0  0  0  0  0  0  0999 V2000
    1.3600   -0.7650   -2.5104 C   0  0  0  0  0  0  0  0  0  0  0  0
    1.3600   -0.7650   -1.1866 C   0  0  0  0  0  0  0  0  0  0  0  0
    1.3600    0.4572   -0.3261 C   0  0  0  0  0  0  0  0  0  0  0  0
    1.3600   -1.6877   -3.0769 H   0  0  0  0  0  0  0  0  0  0  0  0
    1.3600    0.1606   -3.0764 H   0  0  0  0  0  0  0  0  0  0  0  0
    1.3600   -1.7176   -0.6631 H   0  0  0  0  0  0  0  0  0  0  0  0
    0.3068    0.4777    0.4553 H   0  0  0  0  0  0  0  0  0  0  0  0
    1.3600    1.3676   -0.9267 H   0  0  0  0  0  0  0  0  0  0  0  0
    2.2377    0.4743    0.3251 H   0  0  0  0  0  0  0  0  0  0  0  0
   -1.1670   -0.9301    1.5597 C   0  0  0  0  0  0  0  0  0  0  0  0
   -0.7470    0.4983    1.2372 C   0  0  0  0  0  3  0  0  0  0  0  0
   -1.9360    1.4180    0.9905 C   0  0  0  0  0  0  0  0  0  0  0  0
   -1.7460   -1.3616    0.7396 H   0  0  0  0  0  0  0  0  0  0  0  0
   -0.3024   -1.5730    1.7330 H   0  0  0  0  0  0  0  0  0  0  0  0
   -1.7917   -0.9606    2.4557 H   0  0  0  0  0  0  0  0  0  0  0  0
   -0.1443    0.8948    2.0590 H   0  0  0  0  0  0  0  0  0  0  0  0
   -2.5850    1.4614    1.8686 H   0  0  0  0  0  0  0  0  0  0  0  0
   -1.6153    2.4356    0.7613 H   0  0  0  0  0  0  0  0  0  0  0  0
   -2.5392    1.0604    0.1525 H   0  0  0  0  0  0  0  0  0  0  0  0
  1  2  2  3
  1  4  1  0
  1  5  1  0
  2  3  1  0
  2  6  1  0
  3  7  1  0
  3  8  1  0
  3  9  1  0
 10 11  1  0
 10 13  1  0
 10 14  1  0
 10 15  1  0
 11 12  1  0
 11 16  1  0
 12 17  1  0
 12 18  1  0
 12 19  1  0
M  RAD  1  11   2
M  END
>  <reaction>  (6) 
rxn_998

>  <mol_properties>  (6) 
{"1": {"label": "*0", "atom_type": "Cd"}, "2": {"label": "*1", "atom_type": "Cs"}, "6": {"label": "*2", "atom_type": "H0"}, "9": {"label": "*4", "atom_type": "Cs"}, "10": {"label": "*3", "atom_type": "Cs"}}

>  <type>  (6) 
unop_2

>  <geom_source>  (6) 
Heuristics

$$$$

     RDKit          3D

 19 17  0  0  0  0  0  0  0  0999 V2000
    1.2052   -0.7991   -2.7548 C   0  0  0  0  0  0  0  0  0  0  0  0
    1.2052   -0.7991   -1.4310 C   0  0  0  0  0  0  0  0  0  0  0  0
    1.2052    0.4231   -0.5705 C   0  0  0  0  0  0  0  0  0  0  0  0
    1.2052   -1.7218   -3.3213 H   0  0  0  0  0  0  0  0  0  0  0  0
    1.2052    0.1265   -3.3208 H   0  0  0  0  0  0  0  0  0  0  0  0
    1.2052   -1.7517   -0.9075 H   0  0  0  0  0  0  0  0  0  0  0  0
    0.1519    0.4436    0.2109 H   0  0  0  0  0  0  0  0  0  0  0  0
    1.2052    1.3336   -1.1711 H   0  0  0  0  0  0  0  0  0  0  0  0
    2.0829    0.4402    0.0807 H   0  0  0  0  0  0  0  0  0  0  0  0
   -0.5612    1.1978    2.2836 C   0  0  0  0  0  0  0  0  0  0  0  0
   -0.9018    0.4642    0.9927 C   0  0  0  0  0  3  0  0  0  0  0  0
   -1.9578   -0.6153    1.1925 C   0  0  0  0  0  0  0  0  0  0  0  0
   -0.1783    0.5053    3.0371 H   0  0  0  0  0  0  0  0  0  0  0  0
    0.1962    1.9664    2.1204 H   0  0  0  0  0  0  0  0  0  0  0  0
   -1.4461    1.6835    2.7020 H   0  0  0  0  0  0  0  0  0  0  0  0
   -1.2527    1.1831    0.2472 H   0  0  0  0  0  0  0  0  0  0  0  0
   -2.8867   -0.1868    1.5766 H   0  0  0  0  0  0  0  0  0  0  0  0
   -2.1882   -1.1291    0.2577 H   0  0  0  0  0  0  0  0  0  0  0  0
   -1.6189   -1.3650    1.9117 H   0  0  0  0  0  0  0  0  0  0  0  0
  1  2  2  3
  1  4  1  0
  1  5  1  0
  2  3  1  0
  2  6  1  0
  3  7  1  0
  3  8  1  0
  3  9  1  0
 10 11  1  0
 10 13  1  0
 10 14  1  0
 10 15  1  0
 11 12  1  0
 11 16  1  0
 12 17  1  0
 12 18  1  0
 12 19  1  0
M  RAD  1  11   2
M  END
>  <reaction>  (7) 
rxn_998

>  <mol_properties>  (7) 
{"1": {"label": "*0", "atom_type": "Cd"}, "2": {"label": "*1", "atom_type": "Cs"}, "6": {"label": "*2", "atom_type": "H0"}, "9": {"label": "*4", "atom_type": "Cs"}, "10": {"label": "*3", "atom_type": "Cs"}}

>  <type>  (7) 
unop_3

>  <geom_source>  (7) 
Heuristics

$$$$

     RDKit          3D

 19 17  0  0  0  0  0  0  0  0999 V2000
    1.2132   -1.1097   -2.3978 C   0  0  0  0  0  0  0  0  0  0  0  0
    1.2132   -1.1097   -1.0740 C   0  0  0  0  0  0  0  0  0  0  0  0
    1.2132    0.1125   -0.2135 C   0  0  0  0  0  0  0  0  0  0  0  0
    1.2132   -2.0324   -2.9643 H   0  0  0  0  0  0  0  0  0  0  0  0
    1.2132   -0.1841   -2.9638 H   0  0  0  0  0  0  0  0  0  0  0  0
    1.2132   -2.0623   -0.5505 H   0  0  0  0  0  0  0  0  0  0  0  0
    0.1599    0.1330    0.5679 H   0  0  0  0  0  0  0  0  0  0  0  0
    1.2132    1.0229   -0.8141 H   0  0  0  0  0  0  0  0  0  0  0  0
    2.0909    0.1296    0.4377 H   0  0  0  0  0  0  0  0  0  0  0  0
   -2.1570    0.1527    0.4983 C   0  0  0  0  0  0  0  0  0  0  0  0
   -0.8938    0.1536    1.3497 C   0  0  0  0  0  3  0  0  0  0  0  0
   -0.3992    1.5596    1.6643 C   0  0  0  0  0  0  0  0  0  0  0  0
   -1.9853    0.6569   -0.4558 H   0  0  0  0  0  0  0  0  0  0  0  0
   -2.4955   -0.8623    0.2838 H   0  0  0  0  0  0  0  0  0  0  0  0
   -2.9706    0.6766    1.0060 H   0  0  0  0  0  0  0  0  0  0  0  0
   -1.0839   -0.3828    2.2835 H   0  0  0  0  0  0  0  0  0  0  0  0
   -1.1573    2.1278    2.2086 H   0  0  0  0  0  0  0  0  0  0  0  0
    0.5055    1.5395    2.2743 H   0  0  0  0  0  0  0  0  0  0  0  0
   -0.1721    2.1081    0.7469 H   0  0  0  0  0  0  0  0  0  0  0  0
  1  2  2  3
  1  4  1  0
  1  5  1  0
  2  3  1  0
  2  6  1  0
  3  7  1  0
  3  8  1  0
  3  9  1  0
 10 11  1  0
 10 13  1  0
 10 14  1  0
 10 15  1  0
 11 12  1  0
 11 16  1  0
 12 17  1  0
 12 18  1  0
 12 19  1  0
M  RAD  1  11   2
M  END
>  <reaction>  (8) 
rxn_998

>  <mol_properties>  (8) 
{"1": {"label": "*0", "atom_type": "Cd"}, "2": {"label": "*1", "atom_type": "Cs"}, "6": {"label": "*2", "atom_type": "H0"}, "9": {"label": "*4", "atom_type": "Cs"}, "10": {"label": "*3", "atom_type": "Cs"}}

>  <type>  (8) 
unop_4

>  <geom_source>  (8) 
Heuristics

$$$$

     RDKit          3D

 19 17  0  0  0  0  0  0  0  0999 V2000
    1.0802   -0.8512   -2.7927 C   0  0  0  0  0  0  0  0  0  0  0  0
    1.0802   -0.8512   -1.4689 C   0  0  0  0  0  0  0  0  0  0  0  0
    1.0802    0.3710   -0.6084 C   0  0  0  0  0  0  0  0  0  0  0  0
    1.0802   -1.7739   -3.3592 H   0  0  0  0  0  0  0  0  0  0  0  0
    1.0802    0.0744   -3.3587 H   0  0  0  0  0  0  0  0  0  0  0  0
    1.0802   -1.8038   -0.9454 H   0  0  0  0  0  0  0  0  0  0  0  0
    0.0270    0.3915    0.1730 H   0  0  0  0  0  0  0  0  0  0  0  0
    1.0802    1.2814   -1.2090 H   0  0  0  0  0  0  0  0  0  0  0  0
    1.9579    0.3881    0.0428 H   0  0  0  0  0  0  0  0  0  0  0  0
   -0.9948    1.6682    1.8160 C   0  0  0  0  0  0  0  0  0  0  0  0
   -1.0267    0.4121    0.9549 C   0  0  0  0  0  3  0  0  0  0  0  0
   -1.0689   -0.8659    1.7828 C   0  0  0  0  0  0  0  0  0  0  0  0
   -0.1164    1.6740    2.4660 H   0  0  0  0  0  0  0  0  0  0  0  0
   -0.9648    2.5724    1.2057 H   0  0  0  0  0  0  0  0  0  0  0  0
   -1.8786    1.7256    2.4561 H   0  0  0  0  0  0  0  0  0  0  0  0
   -1.8969    0.4462    0.2935 H   0  0  0  0  0  0  0  0  0  0  0  0
   -1.9550   -0.8884    2.4218 H   0  0  0  0  0  0  0  0  0  0  0  0
   -1.0913   -1.7540    1.1489 H   0  0  0  0  0  0  0  0  0  0  0  0
   -0.1929   -0.9400    2.4317 H   0  0  0  0  0  0  0  0  0  0  0  0
  1  2  2  3
  1  4  1  0
  1  5  1  0
  2  3  1  0
  2  6  1  0
  3  7  1  0
  3  8  1  0
  3  9  1  0
 10 11  1  0
 10 13  1  0
 10 14  1  0
 10 15  1  0
 11 12  1  0
 11 16  1  0
 12 17  1  0
 12 18  1  0
 12 19  1  0
M  RAD  1  11   2
M  END
>  <reaction>  (9) 
rxn_998

>  <mol_properties>  (9) 
{"1": {"label": "*0", "atom_type": "Cd"}, "2": {"label": "*1", "atom_type": "Cs"}, "6": {"label": "*2", "atom_type": "H0"}, "9": {"label": "*4", "atom_type": "Cs"}, "10": {"label": "*3", "atom_type": "Cs"}}

>  <type>  (9) 
unop_5

>  <geom_source>  (9) 
Heuristics

$$$$

     RDKit          3D

 19 17  0  0  0  0  0  0  0  0999 V2000
    1.1056   -1.1589   -2.4903 C   0  0  0  0  0  0  0  0  0  0  0  0
    1.1056   -1.1589   -1.1666 C   0  0  0  0  0  0  0  0  0  0  0  0
    1.1056    0.0632   -0.3060 C   0  0  0  0  0  0  0  0  0  0  0  0
    1.1056   -2.0817   -3.0568 H   0  0  0  0  0  0  0  0  0  0  0  0
    1.1056   -0.2333   -3.0563 H   0  0  0  0  0  0  0  0  0  0  0  0
    1.1056   -2.1116   -0.6430 H   0  0  0  0  0  0  0  0  0  0  0  0
    0.0523    0.0838    0.4754 H   0  0  0  0  0  0  0  0  0  0  0  0
    1.1056    0.9737   -0.9066 H   0  0  0  0  0  0  0  0  0  0  0  0
    1.9833    0.0804    0.3452 H   0  0  0  0  0  0  0  0  0  0  0  0
   -2.1435    0.8228    0.5501 C   0  0  0  0  0  0  0  0  0  0  0  0
   -1.0014    0.1043    1.2572 C   0  0  0  0  0  3  0  0  0  0  0  0
   -0.0351    1.0657    1.9373 C   0  0  0  0  0  0  0  0  0  0  0  0
   -1.7629    1.4985   -0.2197 H   0  0  0  0  0  0  0  0  0  0  0  0
   -2.8243    0.1182    0.0695 H   0  0  0  0  0  0  0  0  0  0  0  0
   -2.7247    1.4215    1.2557 H   0  0  0  0  0  0  0  0  0  0  0  0
   -1.4103   -0.5867    1.9996 H   0  0  0  0  0  0  0  0  0  0  0  0
   -0.5499    1.6720    2.6866 H   0  0  0  0  0  0  0  0  0  0  0  0
    0.7752    0.5329    2.4378 H   0  0  0  0  0  0  0  0  0  0  0  0
    0.4120    1.7490    1.2112 H   0  0  0  0  0  0  0  0  0  0  0  0
  1  2  2  3
  1  4  1  0
  1  5  1  0
  2  3  1  0
  2  6  1  0
  3  7  1  0
  3  8  1  0
  3  9  1  0
 10 11  1  0
 10 13  1  0
 10 14  1  0
 10 15  1  0
 11 12  1  0
 11 16  1  0
 12 17  1  0
 12 18  1  0
 12 19  1  0
M  RAD  1  11   2
M  END
>  <reaction>  (10) 
rxn_998

>  <mol_properties>  (10) 
{"1": {"label": "*0", "atom_type": "Cd"}, "2": {"label": "*1", "atom_type": "Cs"}, "6": {"label": "*2", "atom_type": "H0"}, "9": {"label": "*4", "atom_type": "Cs"}, "10": {"label": "*3", "atom_type": "Cs"}}

>  <type>  (10) 
unop_6

>  <geom_source>  (10) 
Heuristics

$$$$

     RDKit          3D

 19 17  0  0  0  0  0  0  0  0999 V2000
    1.0139   -1.1279   -2.6145 C   0  0  0  0  0  0  0  0  0  0  0  0
    1.0139   -1.1279   -1.2908 C   0  0  0  0  0  0  0  0  0  0  0  0
    1.0139    0.0942   -0.4302 C   0  0  0  0  0  0  0  0  0  0  0  0
    1.0139   -2.0507   -3.1810 H   0  0  0  0  0  0  0  0  0  0  0  0
    1.0139   -0.2023   -3.1805 H   0  0  0  0  0  0  0  0  0  0  0  0
    1.0139   -2.0806   -0.7672 H   0  0  0  0  0  0  0  0  0  0  0  0
   -0.0393    0.1148    0.3512 H   0  0  0  0  0  0  0  0  0  0  0  0
    1.0139    1.0047   -1.0308 H   0  0  0  0  0  0  0  0  0  0  0  0
    1.8916    0.1113    0.2210 H   0  0  0  0  0  0  0  0  0  0  0  0
   -1.9171    1.3827    0.8407 C   0  0  0  0  0  0  0  0  0  0  0  0
   -1.0930    0.1353    1.1330 C   0  0  0  0  0  3  0  0  0  0  0  0
    0.0634    0.4063    2.0869 C   0  0  0  0  0  0  0  0  0  0  0  0
   -1.2991    2.1619    0.3878 H   0  0  0  0  0  0  0  0  0  0  0  0
   -2.7398    1.1687    0.1564 H   0  0  0  0  0  0  0  0  0  0  0  0
   -2.3438    1.7931    1.7591 H   0  0  0  0  0  0  0  0  0  0  0  0
   -1.7405   -0.6377    1.5562 H   0  0  0  0  0  0  0  0  0  0  0  0
   -0.3009    0.7859    3.0446 H   0  0  0  0  0  0  0  0  0  0  0  0
    0.6413   -0.4982    2.2839 H   0  0  0  0  0  0  0  0  0  0  0  0
    0.7437    1.1547    1.6732 H   0  0  0  0  0  0  0  0  0  0  0  0
  1  2  2  3
  1  4  1  0
  1  5  1  0
  2  3  1  0
  2  6  1  0
  3  7  1  0
  3  8  1  0
  3  9  1  0
 10 11  1  0
 10 13  1  0
 10 14  1  0
 10 15  1  0
 11 12  1  0
 11 16  1  0
 12 17  1  0
 12 18  1  0
 12 19  1  0
M  RAD  1  11   2
M  END
>  <reaction>  (11) 
rxn_998

>  <mol_properties>  (11) 
{"1": {"label": "*0", "atom_type": "Cd"}, "2": {"label": "*1", "atom_type": "Cs"}, "6": {"label": "*2", "atom_type": "H0"}, "9": {"label": "*4", "atom_type": "Cs"}, "10": {"label": "*3", "atom_type": "Cs"}}

>  <type>  (11) 
unop_7

>  <geom_source>  (11) 
Heuristics

$$$$

     RDKit          3D

 19 17  0  0  0  0  0  0  0  0999 V2000
    1.2805   -0.7565   -2.6842 C   0  0  0  0  0  0  0  0  0  0  0  0
    1.2805   -0.7565   -1.3605 C   0  0  0  0  0  0  0  0  0  0  0  0
    1.2805    0.4656   -0.4999 C   0  0  0  0  0  0  0  0  0  0  0  0
    1.2805   -1.6793   -3.2507 H   0  0  0  0  0  0  0  0  0  0  0  0
    1.2805    0.1691   -3.2502 H   0  0  0  0  0  0  0  0  0  0  0  0
    1.2805   -1.7092   -0.8369 H   0  0  0  0  0  0  0  0  0  0  0  0
    0.2273    0.4862    0.2815 H   0  0  0  0  0  0  0  0  0  0  0  0
    1.2805    1.3761   -1.1005 H   0  0  0  0  0  0  0  0  0  0  0  0
    2.1582    0.4828    0.1513 H   0  0  0  0  0  0  0  0  0  0  0  0
   -0.4987   -0.1959    2.3746 C   0  0  0  0  0  0  0  0  0  0  0  0
   -0.8265    0.5067    1.0633 C   0  0  0  0  0  3  0  0  0  0  0  0
   -2.3254    0.6168    0.8153 C   0  0  0  0  0  0  0  0  0  0  0  0
   -0.9045   -1.2104    2.3862 H   0  0  0  0  0  0  0  0  0  0  0  0
    0.5786   -0.2650    2.5343 H   0  0  0  0  0  0  0  0  0  0  0  0
   -0.9292    0.3408    3.2236 H   0  0  0  0  0  0  0  0  0  0  0  0
   -0.3835    1.5065    1.0654 H   0  0  0  0  0  0  0  0  0  0  0  0
   -2.8135    1.1791    1.6151 H   0  0  0  0  0  0  0  0  0  0  0  0
   -2.5400    1.1224   -0.1277 H   0  0  0  0  0  0  0  0  0  0  0  0
   -2.7888   -0.3721    0.7778 H   0  0  0  0  0  0  0  0  0  0  0  0
  1  2  2  3
  1  4  1  0
  1  5  1  0
  2  3  1  0
  2  6  1  0
  3  7  1  0
  3  8  1  0
  3  9  1  0
 10 11  1  0
 10 13  1  0
 10 14  1  0
 10 15  1  0
 11 12  1  0
 11 16  1  0
 12 17  1  0
 12 18  1  0
 12 19  1  0
M  RAD  1  11   2
M  END
>  <reaction>  (12) 
rxn_998

>  <mol_properties>  (12) 
{"1": {"label": "*0", "atom_type": "Cd"}, "2": {"label": "*1", "atom_type": "Cs"}, "6": {"label": "*2", "atom_type": "H0"}, "9": {"label": "*4", "atom_type": "Cs"}, "10": {"label": "*3", "atom_type": "Cs"}}

>  <type>  (12) 
unop_8

>  <geom_source>  (12) 
Heuristics

$$$$

     RDKit          3D

 19 17  0  0  0  0  0  0  0  0999 V2000
    1.3094   -0.9992   -2.3648 C   0  0  0  0  0  0  0  0  0  0  0  0
    1.3094   -0.9992   -1.0411 C   0  0  0  0  0  0  0  0  0  0  0  0
    1.3094    0.2230   -0.1806 C   0  0  0  0  0  0  0  0  0  0  0  0
    1.3094   -1.9219   -2.9313 H   0  0  0  0  0  0  0  0  0  0  0  0
    1.3094   -0.0736   -2.9308 H   0  0  0  0  0  0  0  0  0  0  0  0
    1.3094   -1.9518   -0.5176 H   0  0  0  0  0  0  0  0  0  0  0  0
    0.2561    0.2435    0.6009 H   0  0  0  0  0  0  0  0  0  0  0  0
    1.3094    1.1334   -0.7812 H   0  0  0  0  0  0  0  0  0  0  0  0
    2.1871    0.2401    0.4707 H   0  0  0  0  0  0  0  0  0  0  0  0
   -1.9525   -0.4537    0.6961 C   0  0  0  0  0  0  0  0  0  0  0  0
   -0.7976    0.2641    1.3827 C   0  0  0  0  0  3  0  0  0  0  0  0
   -0.9454    1.7798    1.3485 C   0  0  0  0  0  0  0  0  0  0  0  0
   -2.0270   -0.1589   -0.3535 H   0  0  0  0  0  0  0  0  0  0  0  0
   -1.8289   -1.5374    0.7309 H   0  0  0  0  0  0  0  0  0  0  0  0
   -2.9040   -0.2099    1.1749 H   0  0  0  0  0  0  0  0  0  0  0  0
   -0.7264   -0.0714    2.4211 H   0  0  0  0  0  0  0  0  0  0  0  0
   -1.8651    2.0940    1.8479 H   0  0  0  0  0  0  0  0  0  0  0  0
   -0.1095    2.2757    1.8447 H   0  0  0  0  0  0  0  0  0  0  0  0
   -0.9881    2.1450    0.3195 H   0  0  0  0  0  0  0  0  0  0  0  0
  1  2  2  3
  1  4  1  0
  1  5  1  0
  2  3  1  0
  2  6  1  0
  3  7  1  0
  3  8  1  0
  3  9  1  0
 10 11  1  0
 10 13  1  0
 10 14  1  0
 10 15  1  0
 11 12  1  0
 11 16  1  0
 12 17  1  0
 12 18  1  0
 12 19  1  0
M  RAD  1  11   2
M  END
>  <reaction>  (13) 
rxn_998

>  <mol_properties>  (13) 
{"1": {"label": "*0", "atom_type": "Cd"}, "2": {"label": "*1", "atom_type": "Cs"}, "6": {"label": "*2", "atom_type": "H0"}, "9": {"label": "*4", "atom_type": "Cs"}, "10": {"label": "*3", "atom_type": "Cs"}}

>  <type>  (13) 
unop_9

>  <geom_source>  (13) 
Heuristics

$$$$

     RDKit          3D

 19 17  0  0  0  0  0  0  0  0999 V2000
    1.3199   -0.7355   -2.6138 C   0  0  0  0  0  0  0  0  0  0  0  0
    1.3199   -0.7355   -1.2901 C   0  0  0  0  0  0  0  0  0  0  0  0
    1.3199    0.4867   -0.4296 C   0  0  0  0  0  0  0  0  0  0  0  0
    1.3199   -1.6582   -3.1803 H   0  0  0  0  0  0  0  0  0  0  0  0
    1.3199    0.1901   -3.1798 H   0  0  0  0  0  0  0  0  0  0  0  0
    1.3199   -1.6881   -0.7666 H   0  0  0  0  0  0  0  0  0  0  0  0
    0.2667    0.5072    0.3519 H   0  0  0  0  0  0  0  0  0  0  0  0
    1.3199    1.3971   -1.0302 H   0  0  0  0  0  0  0  0  0  0  0  0
    2.1976    0.5038    0.2216 H   0  0  0  0  0  0  0  0  0  0  0  0
   -0.7774   -0.7038    2.0302 C   0  0  0  0  0  0  0  0  0  0  0  0
   -0.7871    0.5277    1.1337 C   0  0  0  0  0  3  0  0  0  0  0  0
   -2.1912    1.0675    0.8934 C   0  0  0  0  0  0  0  0  0  0  0  0
   -1.3645   -1.5128    1.5890 H   0  0  0  0  0  0  0  0  0  0  0  0
    0.2362   -1.0753    2.1905 H   0  0  0  0  0  0  0  0  0  0  0  0
   -1.2098   -0.4785    3.0081 H   0  0  0  0  0  0  0  0  0  0  0  0
   -0.1684    1.3097    1.5827 H   0  0  0  0  0  0  0  0  0  0  0  0
   -2.6681    1.3486    1.8354 H   0  0  0  0  0  0  0  0  0  0  0  0
   -2.1775    1.9486    0.2497 H   0  0  0  0  0  0  0  0  0  0  0  0
   -2.8228    0.3142    0.4163 H   0  0  0  0  0  0  0  0  0  0  0  0
  1  2  2  3
  1  4  1  0
  1  5  1  0
  2  3  1  0
  2  6  1  0
  3  7  1  0
  3  8  1  0
  3  9  1  0
 10 11  1  0
 10 13  1  0
 10 14  1  0
 10 15  1  0
 11 12  1  0
 11 16  1  0
 12 17  1  0
 12 18  1  0
 12 19  1  0
M  RAD  1  11   2
M  END
>  <reaction>  (14) 
rxn_998

>  <mol_properties>  (14) 
{"1": {"label": "*0", "atom_type": "Cd"}, "2": {"label": "*1", "atom_type": "Cs"}, "6": {"label": "*2", "atom_type": "H0"}, "9": {"label": "*4", "atom_type": "Cs"}, "10": {"label": "*3", "atom_type": "Cs"}}

>  <type>  (14) 
unop_10

>  <geom_source>  (14) 
Heuristics

$$$$

     RDKit          3D

 19 17  0  0  0  0  0  0  0  0999 V2000
    0.9831   -1.0081   -2.7379 C   0  0  0  0  0  0  0  0  0  0  0  0
    0.9831   -1.0081   -1.4141 C   0  0  0  0  0  0  0  0  0  0  0  0
    0.9831    0.2140   -0.5536 C   0  0  0  0  0  0  0  0  0  0  0  0
    0.9831   -1.9309   -3.3044 H   0  0  0  0  0  0  0  0  0  0  0  0
    0.9831   -0.0825   -3.3039 H   0  0  0  0  0  0  0  0  0  0  0  0
    0.9831   -1.9608   -0.8906 H   0  0  0  0  0  0  0  0  0  0  0  0
   -0.0702    0.2346    0.2278 H   0  0  0  0  0  0  0  0  0  0  0  0
    0.9831    1.1245   -1.1542 H   0  0  0  0  0  0  0  0  0  0  0  0
    1.8608    0.2312    0.0976 H   0  0  0  0  0  0  0  0  0  0  0  0
   -1.5182    1.6993    1.2913 C   0  0  0  0  0  0  0  0  0  0  0  0
   -1.1239    0.2551    1.0097 C   0  0  0  0  0  3  0  0  0  0  0  0
   -0.2151   -0.3254    2.0855 C   0  0  0  0  0  0  0  0  0  0  0  0
   -0.6356    2.3408    1.3508 H   0  0  0  0  0  0  0  0  0  0  0  0
   -2.1685    2.0972    0.5105 H   0  0  0  0  0  0  0  0  0  0  0  0
   -2.0493    1.7808    2.2428 H   0  0  0  0  0  0  0  0  0  0  0  0
   -2.0252   -0.3583    0.9246 H   0  0  0  0  0  0  0  0  0  0  0  0
   -0.7051   -0.3078    3.0621 H   0  0  0  0  0  0  0  0  0  0  0  0
    0.0562   -1.3595    1.8664 H   0  0  0  0  0  0  0  0  0  0  0  0
    0.7086    0.2522    2.1700 H   0  0  0  0  0  0  0  0  0  0  0  0
  1  2  2  3
  1  4  1  0
  1  5  1  0
  2  3  1  0
  2  6  1  0
  3  7  1  0
  3  8  1  0
  3  9  1  0
 10 11  1  0
 10 13  1  0
 10 14  1  0
 10 15  1  0
 11 12  1  0
 11 16  1  0
 12 17  1  0
 12 18  1  0
 12 19  1  0
M  RAD  1  11   2
M  END
>  <reaction>  (15) 
rxn_998

>  <mol_properties>  (15) 
{"1": {"label": "*0", "atom_type": "Cd"}, "2": {"label": "*1", "atom_type": "Cs"}, "6": {"label": "*2", "atom_type": "H0"}, "9": {"label": "*4", "atom_type": "Cs"}, "10": {"label": "*3", "atom_type": "Cs"}}

>  <type>  (15) 
unop_11

>  <geom_source>  (15) 
Heuristics

$$$$

     RDKit          3D

 19 17  0  0  0  0  0  0  0  0999 V2000
    1.3644   -0.8645   -2.4093 C   0  0  0  0  0  0  0  0  0  0  0  0
    1.3644   -0.8645   -1.0856 C   0  0  0  0  0  0  0  0  0  0  0  0
    1.3644    0.3576   -0.2251 C   0  0  0  0  0  0  0  0  0  0  0  0
    1.3644   -1.7873   -2.9758 H   0  0  0  0  0  0  0  0  0  0  0  0
    1.3644    0.0611   -2.9753 H   0  0  0  0  0  0  0  0  0  0  0  0
    1.3644   -1.8172   -0.5621 H   0  0  0  0  0  0  0  0  0  0  0  0
    0.3112    0.3782    0.5564 H   0  0  0  0  0  0  0  0  0  0  0  0
    1.3644    1.2681   -0.8257 H   0  0  0  0  0  0  0  0  0  0  0  0
    2.2421    0.3748    0.4262 H   0  0  0  0  0  0  0  0  0  0  0  0
   -1.5889   -0.8415    1.0812 C   0  0  0  0  0  0  0  0  0  0  0  0
   -0.7426    0.3987    1.3382 C   0  0  0  0  0  3  0  0  0  0  0  0
   -1.5148    1.6926    1.1145 C   0  0  0  0  0  0  0  0  0  0  0  0
   -1.9566   -0.8573    0.0524 H   0  0  0  0  0  0  0  0  0  0  0  0
   -1.0189   -1.7574    1.2465 H   0  0  0  0  0  0  0  0  0  0  0  0
   -2.4587   -0.8648    1.7423 H   0  0  0  0  0  0  0  0  0  0  0  0
   -0.3626    0.3742    2.3633 H   0  0  0  0  0  0  0  0  0  0  0  0
   -2.3823    1.7493    1.7766 H   0  0  0  0  0  0  0  0  0  0  0  0
   -0.8925    2.5690    1.3033 H   0  0  0  0  0  0  0  0  0  0  0  0
   -1.8802    1.7568    0.0867 H   0  0  0  0  0  0  0  0  0  0  0  0
  1  2  2  3
  1  4  1  0
  1  5  1  0
  2  3  1  0
  2  6  1  0
  3  7  1  0
  3  8  1  0
  3  9  1  0
 10 11  1  0
 10 13  1  0
 10 14  1  0
 10 15  1  0
 11 12  1  0
 11 16  1  0
 12 17  1  0
 12 18  1  0
 12 19  1  0
M  RAD  1  11   2
M  END
>  <reaction>  (16) 
rxn_998

>  <mol_properties>  (16) 
{"1": {"label": "*0", "atom_type": "Cd"}, "2": {"label": "*1", "atom_type": "Cs"}, "6": {"label": "*2", "atom_type": "H0"}, "9": {"label": "*4", "atom_type": "Cs"}, "10": {"label": "*3", "atom_type": "Cs"}}

>  <type>  (16) 
unop_12

>  <geom_source>  (16) 
Heuristics

$$$$

     RDKit          3D

 19 17  0  0  0  0  0  0  0  0999 V2000
   -1.1421    0.0659    0.5511 C   0  0  0  0  0  0  0  0  0  0  0  0
   -1.6817   -0.8099   -0.5744 C   0  0  0  0  0  0  0  0  0  0  0  0
   -1.3069    1.5473    0.2297 C   0  0  0  0  0  0  0  0  0  0  0  0
    1.9118    0.0378    0.1235 C   0  0  0  0  0  0  0  0  0  0  0  0
    1.1825   -1.1022    0.7588 C   0  0  0  0  0  0  0  0  0  0  0  0
    2.3054   -0.0273   -1.1493 C   0  0  0  0  0  3  0  0  0  0  0  0
   -1.6843   -0.1690    1.4923 H   0  0  0  0  0  0  0  0  0  0  0  0
    0.1168   -0.1936    0.7249 H   0  0  0  0  0  0  0  0  0  0  0  0
   -1.5431   -1.8789   -0.3092 H   0  0  0  0  0  0  0  0  0  0  0  0
   -2.7650   -0.6178   -0.7284 H   0  0  0  0  0  0  0  0  0  0  0  0
   -1.1329   -0.6042   -1.5179 H   0  0  0  0  0  0  0  0  0  0  0  0
   -0.7501    1.8036   -0.6965 H   0  0  0  0  0  0  0  0  0  0  0  0
   -2.3811    1.7966    0.0952 H   0  0  0  0  0  0  0  0  0  0  0  0
   -0.9019    2.1538    1.0666 H   0  0  0  0  0  0  0  0  0  0  0  0
    2.1122    0.9347    0.7021 H   0  0  0  0  0  0  0  0  0  0  0  0
    1.8329   -2.0019    0.7852 H   0  0  0  0  0  0  0  0  0  0  0  0
    0.8888   -0.8339    1.7952 H   0  0  0  0  0  0  0  0  0  0  0  0
    2.1102   -0.9112   -1.7495 H   0  0  0  0  0  0  0  0  0  0  0  0
    2.8285    0.8101   -1.5995 H   0  0  0  0  0  0  0  0  0  0  0  0
  1  2  1  0
  1  3  1  0
  1  7  1  0
  1  8  1  0
  2  9  1  0
  2 10  1  0
  2 11  1  0
  3 12  1  0
  3 13  1  0
  3 14  1  0
  4  5  2  3
  4  6  1  0
  4 15  1  0
  5 16  1  0
  5 17  1  0
  6 18  1  0
  6 19  1  0
M  RAD  1   6   2
M  END
>  <reaction>  (17) 
rxn_998

>  <mol_properties>  (17) 
{"1": {"label": "*0", "atom_type": "Cd"}, "2": {"label": "*1", "atom_type": "Cs"}, "6": {"label": "*2", "atom_type": "H0"}, "9": {"label": "*4", "atom_type": "Cs"}, "10": {"label": "*3", "atom_type": "Cs"}}

>  <type>  (17) 
unop_13

>  <geom_source>  (17) 
AutoTST

$$$$
