
     RDKit          3D

  7  6  0  0  0  0  0  0  0  0999 V2000
    1.2985   -0.0065   -0.2721 C   0  0  0  0  0  0  0  0  0  0  0  0
    0.0000    0.0000   -0.2926 C   0  0  0  0  0  0  0  0  0  0  0  0
   -1.2985    0.0065   -0.3130 C   0  0  0  0  0  0  0  0  0  0  0  0
    1.8444   -0.7551    0.2895 H   0  0  0  0  0  0  0  0  0  0  0  0
    1.8693    0.7364   -0.8162 H   0  0  0  0  0  0  0  0  0  0  0  0
   -1.8658    0.5623    0.4239 H   0  0  0  0  0  0  0  0  0  0  0  0
   -1.8479   -0.5437   -1.0675 H   0  0  0  0  0  0  0  0  0  0  0  0
  1  2  2  0
  1  4  1  0
  1  5  1  0
  2  3  2  0
  3  6  1  0
  3  7  1  0
M  END
>  <reaction>  (1) 
rxn_1826

>  <mol_properties>  (1) 
{"0": {"label": "donator", "atom_type": "Cd"}, "3": {"label": "d_hydrogen", "atom_type": "H0"}}

>  <type>  (1) 
r1h

$$$$

     RDKit          3D

 10  9  0  0  0  0  0  0  0  0999 V2000
   -1.2648    0.1959    0.8197 C   0  0  0  0  0  0  0  0  0  0  0  0
   -0.2805    0.0995   -0.3030 C   0  0  0  0  0  3  0  0  0  0  0  0
   -0.0444    1.1347   -1.1797 C   0  0  0  0  0  0  0  0  0  0  0  0
    0.1640    2.0467   -1.9525 C   0  0  0  0  0  0  0  0  0  0  0  0
    0.5686   -1.4168   -0.4488 S   0  0  0  0  0  0  0  0  0  0  0  0
   -2.0466   -0.5638    0.7258 H   0  0  0  0  0  0  0  0  0  0  0  0
   -0.7765    0.0454    1.7871 H   0  0  0  0  0  0  0  0  0  0  0  0
   -1.7371    1.1762    0.8222 H   0  0  0  0  0  0  0  0  0  0  0  0
    0.3433    2.8484   -2.6273 H   0  0  0  0  0  0  0  0  0  0  0  0
    1.3075   -1.0953   -1.5176 H   0  0  0  0  0  0  0  0  0  0  0  0
  1  2  1  0
  1  6  1  0
  1  7  1  0
  1  8  1  0
  2  3  1  0
  2  5  1  0
  3  4  3  0
  4  9  1  0
  5 10  1  0
M  RAD  1   2   2
M  END
>  <reaction>  (2) 
rxn_1826

>  <mol_properties>  (2) 
{"1": {"label": "acceptor", "atom_type": "Cs"}}

>  <type>  (2) 
r2

$$$$

     RDKit          3D

 11 10  0  0  0  0  0  0  0  0999 V2000
   -1.2582   -0.5130    0.2160 C   0  0  0  0  0  0  0  0  0  0  0  0
   -0.1109    0.0509   -0.6210 C   0  0  0  0  0  0  0  0  0  0  0  0
    1.1862   -0.2025   -0.0072 C   0  0  0  0  0  0  0  0  0  0  0  0
    2.2351   -0.4206    0.5274 C   0  0  0  0  0  0  0  0  0  0  0  0
   -0.3298    1.8272   -1.0120 S   0  0  0  0  0  0  0  0  0  0  0  0
   -1.2875   -0.0327    1.1945 H   0  0  0  0  0  0  0  0  0  0  0  0
   -2.2088   -0.3391   -0.2866 H   0  0  0  0  0  0  0  0  0  0  0  0
   -1.1220   -1.5854    0.3655 H   0  0  0  0  0  0  0  0  0  0  0  0
   -0.1222   -0.4181   -1.6078 H   0  0  0  0  0  0  0  0  0  0  0  0
    3.1729   -0.6098    0.9920 H   0  0  0  0  0  0  0  0  0  0  0  0
   -0.1942    2.2663    0.2466 H   0  0  0  0  0  0  0  0  0  0  0  0
  1  2  1  0
  1  6  1  0
  1  7  1  0
  1  8  1  0
  2  3  1  0
  2  5  1  0
  2  9  1  0
  3  4  3  0
  4 10  1  0
  5 11  1  0
M  END
>  <reaction>  (3) 
rxn_1826

>  <mol_properties>  (3) 
{"1": {"label": "acceptor", "atom_type": "Cs"}, "10": {"label": "a_hydrogen", "atom_type": "H0"}}

>  <type>  (3) 
r2h

$$$$

     RDKit          3D

 17 15  0  0  0  0  0  0  0  0999 V2000
    0.8138   -0.6303    1.9030 C   0  0  0  0  0  0  0  0  0  0  0  0
   -0.2342   -0.1177    0.9329 C   0  0  0  0  0  0  0  0  0  0  0  0
   -1.3087    0.6274    1.5192 C   0  0  0  0  0  0  0  0  0  0  0  0
   -2.1844    1.3033    1.9853 C   0  0  0  0  0  0  0  0  0  0  0  0
   -0.7354   -1.4008   -0.2163 S   0  0  0  0  0  0  0  0  0  0  0  0
    0.3944   -1.3813    2.5753 H   0  0  0  0  0  0  0  0  0  0  0  0
    1.6476   -1.0715    1.3554 H   0  0  0  0  0  0  0  0  0  0  0  0
    1.1917    0.1964    2.5043 H   0  0  0  0  0  0  0  0  0  0  0  0
   -2.9664    1.8891    2.4052 H   0  0  0  0  0  0  0  0  0  0  0  0
   -1.6670   -0.6807   -0.8540 H   0  0  0  0  0  0  0  0  0  0  0  0
    1.1505    1.6043   -0.5846 C   0  0  0  0  0  0  0  0  0  0  0  0
    1.4021    1.1542   -1.7407 C   0  0  0  0  0  0  0  0  0  0  0  0
    1.6055    0.5893   -2.9173 C   0  0  0  0  0  3  0  0  0  0  0  0
    0.4028    0.7320    0.2018 H   0  0  0  0  0  0  0  0  0  0  0  0
    1.3623    2.5174   -0.0541 H   0  0  0  0  0  0  0  0  0  0  0  0
    0.9066    0.7337   -3.7314 H   0  0  0  0  0  0  0  0  0  0  0  0
    2.4838   -0.0167   -3.0989 H   0  0  0  0  0  0  0  0  0  0  0  0
  1  2  1  0
  1  6  1  0
  1  7  1  0
  1  8  1  0
  2  3  1  0
  2  5  1  0
  2 14  1  0
  3  4  3  0
  4  9  1  0
  5 10  1  0
 11 12  3  0
 11 15  1  0
 12 13  1  0
 13 16  1  0
 13 17  1  0
M  RAD  1  13   2
M  END
>  <reaction>  (4) 
rxn_1826

>  <mol_properties>  (4) 
{"1": {"label": "*1", "atom_type": "Cs"}, "4": {"label": "*0", "atom_type": "S2s"}, "10": {"label": "*3", "atom_type": "Ct"}, "11": {"label": "*4", "atom_type": "Ct"}, "13": {"label": "*2", "atom_type": "H0"}}

>  <type>  (4) 
ts

$$$$

     RDKit          3D

 17 15  0  0  0  0  0  0  0  0999 V2000
    0.9215   -1.3789    1.5452 C   0  0  0  0  0  0  0  0  0  0  0  0
   -0.0477   -0.5877    0.6681 C   0  0  0  0  0  3  0  0  0  0  0  0
   -0.4149    0.6855    1.2743 C   0  0  0  0  0  0  0  0  0  0  0  0
   -0.7017    1.7207    1.8034 C   0  0  0  0  0  0  0  0  0  0  0  0
   -1.5298   -1.5580    0.2017 S   0  0  0  0  0  0  0  0  0  0  0  0
    0.4578   -1.6219    2.5017 H   0  0  0  0  0  0  0  0  0  0  0  0
    1.2037   -2.3065    1.0487 H   0  0  0  0  0  0  0  0  0  0  0  0
    1.8185   -0.7888    1.7402 H   0  0  0  0  0  0  0  0  0  0  0  0
   -0.9564    2.6401    2.2733 H   0  0  0  0  0  0  0  0  0  0  0  0
   -2.0415   -1.6365    1.4375 H   0  0  0  0  0  0  0  0  0  0  0  0
    1.2852    1.2098   -0.6779 C   0  0  0  0  0  0  0  0  0  0  0  0
    1.2852    1.2098   -1.9765 C   0  0  0  0  0  0  0  0  0  0  0  0
    1.2852    1.2098   -3.2752 C   0  0  0  0  0  0  0  0  0  0  0  0
    0.6216    0.3149   -0.0078 H   0  0  0  0  0  0  0  0  0  0  0  0
    1.8383    1.9556   -0.1195 H   0  0  0  0  0  0  0  0  0  0  0  0
    0.5395    1.7628   -3.8336 H   0  0  0  0  0  0  0  0  0  0  0  0
    2.0310    0.6568   -3.8336 H   0  0  0  0  0  0  0  0  0  0  0  0
  1  2  1  0
  1  6  1  0
  1  7  1  0
  1  8  1  0
  2  3  1  0
  2  5  1  0
  3  4  3  0
  4  9  1  0
  5 10  1  0
 11 12  2  0
 11 14  1  0
 11 15  1  0
 12 13  2  0
 13 16  1  0
 13 17  1  0
M  RAD  1   2   2
M  END
>  <reaction>  (5) 
rxn_1826

>  <mol_properties>  (5) 
{"1": {"label": "*1", "atom_type": "Cs"}, "4": {"label": "*0", "atom_type": "S2s"}, "10": {"label": "*3", "atom_type": "Ct"}, "11": {"label": "*4", "atom_type": "Ct"}, "13": {"label": "*2", "atom_type": "H0"}}

>  <type>  (5) 
unop_1

>  <geom_source>  (5) 
Heuristics

$$$$

     RDKit          3D

 17 15  0  0  0  0  0  0  0  0999 V2000
   -0.3375   -1.8030   -0.3519 C   0  0  0  0  0  0  0  0  0  0  0  0
   -0.2772   -0.5102    0.4603 C   0  0  0  0  0  3  0  0  0  0  0  0
    0.7223   -0.5784    1.5184 C   0  0  0  0  0  0  0  0  0  0  0  0
    1.5464   -0.6700    2.3823 C   0  0  0  0  0  0  0  0  0  0  0  0
   -1.9133   -0.0130    1.1175 S   0  0  0  0  0  0  0  0  0  0  0  0
   -0.6275   -2.6394    0.2847 H   0  0  0  0  0  0  0  0  0  0  0  0
   -1.0670   -1.7067   -1.1552 H   0  0  0  0  0  0  0  0  0  0  0  0
    0.6416   -2.0230   -0.7806 H   0  0  0  0  0  0  0  0  0  0  0  0
    2.2783   -0.7513    3.1495 H   0  0  0  0  0  0  0  0  0  0  0  0
   -2.0434   -1.0424    1.9652 H   0  0  0  0  0  0  0  0  0  0  0  0
    1.0557    1.2873   -0.8856 C   0  0  0  0  0  0  0  0  0  0  0  0
    1.0557    1.2873   -2.1843 C   0  0  0  0  0  0  0  0  0  0  0  0
    1.0557    1.2873   -3.4830 C   0  0  0  0  0  0  0  0  0  0  0  0
    0.3921    0.3924   -0.2155 H   0  0  0  0  0  0  0  0  0  0  0  0
    1.6087    2.0331   -0.3272 H   0  0  0  0  0  0  0  0  0  0  0  0
    0.3099    1.8403   -4.0414 H   0  0  0  0  0  0  0  0  0  0  0  0
    1.8015    0.7343   -4.0414 H   0  0  0  0  0  0  0  0  0  0  0  0
  1  2  1  0
  1  6  1  0
  1  7  1  0
  1  8  1  0
  2  3  1  0
  2  5  1  0
  3  4  3  0
  4  9  1  0
  5 10  1  0
 11 12  2  0
 11 14  1  0
 11 15  1  0
 12 13  2  0
 13 16  1  0
 13 17  1  0
M  RAD  1   2   2
M  END
>  <reaction>  (6) 
rxn_1826

>  <mol_properties>  (6) 
{"1": {"label": "*1", "atom_type": "Cs"}, "4": {"label": "*0", "atom_type": "S2s"}, "10": {"label": "*3", "atom_type": "Ct"}, "11": {"label": "*4", "atom_type": "Ct"}, "13": {"label": "*2", "atom_type": "H0"}}

>  <type>  (6) 
unop_2

>  <geom_source>  (6) 
Heuristics

$$$$

     RDKit          3D

 17 15  0  0  0  0  0  0  0  0999 V2000
    0.6757   -0.6949    2.1588 C   0  0  0  0  0  0  0  0  0  0  0  0
   -0.0313   -0.4370    0.8290 C   0  0  0  0  0  3  0  0  0  0  0  0
   -1.0536    0.5947    0.9473 C   0  0  0  0  0  0  0  0  0  0  0  0
   -1.8906    1.4405    1.0804 C   0  0  0  0  0  0  0  0  0  0  0  0
   -0.7086   -1.9664    0.0820 S   0  0  0  0  0  0  0  0  0  0  0  0
   -0.0340   -1.0563    2.9036 H   0  0  0  0  0  0  0  0  0  0  0  0
    1.4563   -1.4435    2.0286 H   0  0  0  0  0  0  0  0  0  0  0  0
    1.1223    0.2283    2.5317 H   0  0  0  0  0  0  0  0  0  0  0  0
   -2.6340    2.1917    1.1986 H   0  0  0  0  0  0  0  0  0  0  0  0
   -1.6376   -2.1834    1.0227 H   0  0  0  0  0  0  0  0  0  0  0  0
    1.3016    1.3605   -0.5169 C   0  0  0  0  0  0  0  0  0  0  0  0
    1.3016    1.3605   -1.8156 C   0  0  0  0  0  0  0  0  0  0  0  0
    1.3016    1.3605   -3.1143 C   0  0  0  0  0  0  0  0  0  0  0  0
    0.6380    0.4656    0.1532 H   0  0  0  0  0  0  0  0  0  0  0  0
    1.8546    2.1063    0.0415 H   0  0  0  0  0  0  0  0  0  0  0  0
    0.5558    1.9135   -3.6727 H   0  0  0  0  0  0  0  0  0  0  0  0
    2.0474    0.8075   -3.6727 H   0  0  0  0  0  0  0  0  0  0  0  0
  1  2  1  0
  1  6  1  0
  1  7  1  0
  1  8  1  0
  2  3  1  0
  2  5  1  0
  3  4  3  0
  4  9  1  0
  5 10  1  0
 11 12  2  0
 11 14  1  0
 11 15  1  0
 12 13  2  0
 13 16  1  0
 13 17  1  0
M  RAD  1   2   2
M  END
>  <reaction>  (7) 
rxn_1826

>  <mol_properties>  (7) 
{"1": {"label": "*1", "atom_type": "Cs"}, "4": {"label": "*0", "atom_type": "S2s"}, "10": {"label": "*3", "atom_type": "Ct"}, "11": {"label": "*4", "atom_type": "Ct"}, "13": {"label": "*2", "atom_type": "H0"}}

>  <type>  (7) 
unop_3

>  <geom_source>  (7) 
Heuristics

$$$$

     RDKit          3D

 17 15  0  0  0  0  0  0  0  0999 V2000
   -1.9530   -0.4127    0.0752 C   0  0  0  0  0  0  0  0  0  0  0  0
   -0.4713   -0.5129    0.4348 C   0  0  0  0  0  3  0  0  0  0  0  0
   -0.0981   -1.8639    0.8333 C   0  0  0  0  0  0  0  0  0  0  0  0
    0.1736   -2.9826    1.1626 C   0  0  0  0  0  0  0  0  0  0  0  0
    0.0340    0.7188    1.6932 S   0  0  0  0  0  0  0  0  0  0  0  0
   -2.5718   -0.6550    0.9397 H   0  0  0  0  0  0  0  0  0  0  0  0
   -2.1912    0.5986   -0.2520 H   0  0  0  0  0  0  0  0  0  0  0  0
   -2.1934   -1.1149   -0.7249 H   0  0  0  0  0  0  0  0  0  0  0  0
    0.4149   -3.9762    1.4551 H   0  0  0  0  0  0  0  0  0  0  0  0
   -0.6837    0.1970    2.6972 H   0  0  0  0  0  0  0  0  0  0  0  0
    0.8616    1.2846   -0.9112 C   0  0  0  0  0  0  0  0  0  0  0  0
    0.8616    1.2846   -2.2099 C   0  0  0  0  0  0  0  0  0  0  0  0
    0.8616    1.2846   -3.5085 C   0  0  0  0  0  0  0  0  0  0  0  0
    0.1980    0.3897   -0.2411 H   0  0  0  0  0  0  0  0  0  0  0  0
    1.4146    2.0304   -0.3528 H   0  0  0  0  0  0  0  0  0  0  0  0
    0.1159    1.8376   -4.0670 H   0  0  0  0  0  0  0  0  0  0  0  0
    1.6074    0.7316   -4.0670 H   0  0  0  0  0  0  0  0  0  0  0  0
  1  2  1  0
  1  6  1  0
  1  7  1  0
  1  8  1  0
  2  3  1  0
  2  5  1  0
  3  4  3  0
  4  9  1  0
  5 10  1  0
 11 12  2  0
 11 14  1  0
 11 15  1  0
 12 13  2  0
 13 16  1  0
 13 17  1  0
M  RAD  1   2   2
M  END
>  <reaction>  (8) 
rxn_1826

>  <mol_properties>  (8) 
{"1": {"label": "*1", "atom_type": "Cs"}, "4": {"label": "*0", "atom_type": "S2s"}, "10": {"label": "*3", "atom_type": "Ct"}, "11": {"label": "*4", "atom_type": "Ct"}, "13": {"label": "*2", "atom_type": "H0"}}

>  <type>  (8) 
unop_4

>  <geom_source>  (8) 
Heuristics

$$$$

     RDKit          3D

 17 15  0  0  0  0  0  0  0  0999 V2000
   -0.0482    0.0444    2.4036 C   0  0  0  0  0  0  0  0  0  0  0  0
   -0.2350   -0.2076    0.9081 C   0  0  0  0  0  3  0  0  0  0  0  0
   -1.6358   -0.1306    0.5141 C   0  0  0  0  0  0  0  0  0  0  0  0
   -2.7961   -0.0677    0.2251 C   0  0  0  0  0  0  0  0  0  0  0  0
    0.5291   -1.7785    0.3566 S   0  0  0  0  0  0  0  0  0  0  0  0
   -0.5685   -0.7168    2.9858 H   0  0  0  0  0  0  0  0  0  0  0  0
    1.0104    0.0156    2.6586 H   0  0  0  0  0  0  0  0  0  0  0  0
   -0.4562    1.0198    2.6737 H   0  0  0  0  0  0  0  0  0  0  0  0
   -3.8266   -0.0118   -0.0315 H   0  0  0  0  0  0  0  0  0  0  0  0
   -0.3024   -2.5841    1.0309 H   0  0  0  0  0  0  0  0  0  0  0  0
    1.0979    1.5899   -0.4378 C   0  0  0  0  0  0  0  0  0  0  0  0
    1.0979    1.5899   -1.7365 C   0  0  0  0  0  0  0  0  0  0  0  0
    1.0979    1.5899   -3.0352 C   0  0  0  0  0  0  0  0  0  0  0  0
    0.4343    0.6950    0.2323 H   0  0  0  0  0  0  0  0  0  0  0  0
    1.6509    2.3357    0.1206 H   0  0  0  0  0  0  0  0  0  0  0  0
    0.3521    2.1429   -3.5936 H   0  0  0  0  0  0  0  0  0  0  0  0
    1.8437    1.0369   -3.5936 H   0  0  0  0  0  0  0  0  0  0  0  0
  1  2  1  0
  1  6  1  0
  1  7  1  0
  1  8  1  0
  2  3  1  0
  2  5  1  0
  3  4  3  0
  4  9  1  0
  5 10  1  0
 11 12  2  0
 11 14  1  0
 11 15  1  0
 12 13  2  0
 13 16  1  0
 13 17  1  0
M  RAD  1   2   2
M  END
>  <reaction>  (9) 
rxn_1826

>  <mol_properties>  (9) 
{"1": {"label": "*1", "atom_type": "Cs"}, "4": {"label": "*0", "atom_type": "S2s"}, "10": {"label": "*3", "atom_type": "Ct"}, "11": {"label": "*4", "atom_type": "Ct"}, "13": {"label": "*2", "atom_type": "H0"}}

>  <type>  (9) 
unop_5

>  <geom_source>  (9) 
Heuristics

$$$$

     RDKit          3D

 17 15  0  0  0  0  0  0  0  0999 V2000
   -2.0089    0.0868    0.7509 C   0  0  0  0  0  0  0  0  0  0  0  0
   -0.5934   -0.4272    0.4921 C   0  0  0  0  0  3  0  0  0  0  0  0
   -0.5139   -1.8785    0.5966 C   0  0  0  0  0  0  0  0  0  0  0  0
   -0.4815   -3.0712    0.6971 C   0  0  0  0  0  0  0  0  0  0  0  0
    0.6582    0.3888    1.5521 S   0  0  0  0  0  0  0  0  0  0  0  0
   -2.3246   -0.1613    1.7647 H   0  0  0  0  0  0  0  0  0  0  0  0
   -2.0420    1.1689    0.6301 H   0  0  0  0  0  0  0  0  0  0  0  0
   -2.7092   -0.3740    0.0523 H   0  0  0  0  0  0  0  0  0  0  0  0
   -0.4526   -4.1305    0.7864 H   0  0  0  0  0  0  0  0  0  0  0  0
    0.2224   -0.1287    2.7086 H   0  0  0  0  0  0  0  0  0  0  0  0
    0.7395    1.3703   -0.8538 C   0  0  0  0  0  0  0  0  0  0  0  0
    0.7395    1.3703   -2.1525 C   0  0  0  0  0  0  0  0  0  0  0  0
    0.7395    1.3703   -3.4512 C   0  0  0  0  0  0  0  0  0  0  0  0
    0.0759    0.4754   -0.1837 H   0  0  0  0  0  0  0  0  0  0  0  0
    1.2925    2.1160   -0.2954 H   0  0  0  0  0  0  0  0  0  0  0  0
   -0.0063    1.9233   -4.0096 H   0  0  0  0  0  0  0  0  0  0  0  0
    1.4853    0.8173   -4.0096 H   0  0  0  0  0  0  0  0  0  0  0  0
  1  2  1  0
  1  6  1  0
  1  7  1  0
  1  8  1  0
  2  3  1  0
  2  5  1  0
  3  4  3  0
  4  9  1  0
  5 10  1  0
 11 12  2  0
 11 14  1  0
 11 15  1  0
 12 13  2  0
 13 16  1  0
 13 17  1  0
M  RAD  1   2   2
M  END
>  <reaction>  (10) 
rxn_1826

>  <mol_properties>  (10) 
{"1": {"label": "*1", "atom_type": "Cs"}, "4": {"label": "*0", "atom_type": "S2s"}, "10": {"label": "*3", "atom_type": "Ct"}, "11": {"label": "*4", "atom_type": "Ct"}, "13": {"label": "*2", "atom_type": "H0"}}

>  <type>  (10) 
unop_6

>  <geom_source>  (10) 
Heuristics

$$$$

     RDKit          3D

 17 15  0  0  0  0  0  0  0  0999 V2000
   -1.6797    0.4026    1.4982 C   0  0  0  0  0  0  0  0  0  0  0  0
   -0.6410   -0.2950    0.6211 C   0  0  0  0  0  3  0  0  0  0  0  0
   -0.9800   -1.6921    0.3829 C   0  0  0  0  0  0  0  0  0  0  0  0
   -1.2836   -2.8378    0.2128 C   0  0  0  0  0  0  0  0  0  0  0  0
    1.0626   -0.1221    1.2721 S   0  0  0  0  0  0  0  0  0  0  0  0
   -1.7271   -0.0689    2.4803 H   0  0  0  0  0  0  0  0  0  0  0  0
   -1.4166    1.4517    1.6273 H   0  0  0  0  0  0  0  0  0  0  0  0
   -2.6667    0.3339    1.0379 H   0  0  0  0  0  0  0  0  0  0  0  0
   -1.5534   -3.8553    0.0618 H   0  0  0  0  0  0  0  0  0  0  0  0
    0.8688   -0.8620    2.3722 H   0  0  0  0  0  0  0  0  0  0  0  0
    0.6919    1.5025   -0.7248 C   0  0  0  0  0  0  0  0  0  0  0  0
    0.6919    1.5025   -2.0235 C   0  0  0  0  0  0  0  0  0  0  0  0
    0.6919    1.5025   -3.3222 C   0  0  0  0  0  0  0  0  0  0  0  0
    0.0283    0.6076   -0.0547 H   0  0  0  0  0  0  0  0  0  0  0  0
    1.2449    2.2482   -0.1664 H   0  0  0  0  0  0  0  0  0  0  0  0
   -0.0539    2.0555   -3.8806 H   0  0  0  0  0  0  0  0  0  0  0  0
    1.4376    0.9495   -3.8806 H   0  0  0  0  0  0  0  0  0  0  0  0
  1  2  1  0
  1  6  1  0
  1  7  1  0
  1  8  1  0
  2  3  1  0
  2  5  1  0
  3  4  3  0
  4  9  1  0
  5 10  1  0
 11 12  2  0
 11 14  1  0
 11 15  1  0
 12 13  2  0
 13 16  1  0
 13 17  1  0
M  RAD  1   2   2
M  END
>  <reaction>  (11) 
rxn_1826

>  <mol_properties>  (11) 
{"1": {"label": "*1", "atom_type": "Cs"}, "4": {"label": "*0", "atom_type": "S2s"}, "10": {"label": "*3", "atom_type": "Ct"}, "11": {"label": "*4", "atom_type": "Ct"}, "13": {"label": "*2", "atom_type": "H0"}}

>  <type>  (11) 
unop_7

>  <geom_source>  (11) 
Heuristics

$$$$

     RDKit          3D

 17 15  0  0  0  0  0  0  0  0999 V2000
    0.7587   -1.8179    0.7979 C   0  0  0  0  0  0  0  0  0  0  0  0
   -0.1443   -0.6128    0.5391 C   0  0  0  0  0  3  0  0  0  0  0  0
    0.1009    0.4649    1.4889 C   0  0  0  0  0  0  0  0  0  0  0  0
    0.3220    1.3276    2.2892 C   0  0  0  0  0  0  0  0  0  0  0  0
   -1.9195   -1.0611    0.4807 S   0  0  0  0  0  0  0  0  0  0  0  0
    0.5629   -2.2352    1.7861 H   0  0  0  0  0  0  0  0  0  0  0  0
    0.5762   -2.5895    0.0510 H   0  0  0  0  0  0  0  0  0  0  0  0
    1.8070   -1.5176    0.7552 H   0  0  0  0  0  0  0  0  0  0  0  0
    0.5184    2.0939    2.9999 H   0  0  0  0  0  0  0  0  0  0  0  0
   -2.0220   -1.3998    1.7730 H   0  0  0  0  0  0  0  0  0  0  0  0
    1.1886    1.1847   -0.8068 C   0  0  0  0  0  0  0  0  0  0  0  0
    1.1886    1.1847   -2.1055 C   0  0  0  0  0  0  0  0  0  0  0  0
    1.1886    1.1847   -3.4041 C   0  0  0  0  0  0  0  0  0  0  0  0
    0.5250    0.2898   -0.1367 H   0  0  0  0  0  0  0  0  0  0  0  0
    1.7416    1.9305   -0.2484 H   0  0  0  0  0  0  0  0  0  0  0  0
    0.4428    1.7377   -3.9626 H   0  0  0  0  0  0  0  0  0  0  0  0
    1.9344    0.6317   -3.9626 H   0  0  0  0  0  0  0  0  0  0  0  0
  1  2  1  0
  1  6  1  0
  1  7  1  0
  1  8  1  0
  2  3  1  0
  2  5  1  0
  3  4  3  0
  4  9  1  0
  5 10  1  0
 11 12  2  0
 11 14  1  0
 11 15  1  0
 12 13  2  0
 13 16  1  0
 13 17  1  0
M  RAD  1   2   2
M  END
>  <reaction>  (12) 
rxn_1826

>  <mol_properties>  (12) 
{"1": {"label": "*1", "atom_type": "Cs"}, "4": {"label": "*0", "atom_type": "S2s"}, "10": {"label": "*3", "atom_type": "Ct"}, "11": {"label": "*4", "atom_type": "Ct"}, "13": {"label": "*2", "atom_type": "H0"}}

>  <type>  (12) 
unop_8

>  <geom_source>  (12) 
Heuristics

$$$$

     RDKit          3D

 17 15  0  0  0  0  0  0  0  0999 V2000
   -1.5708   -0.9617   -0.3753 C   0  0  0  0  0  0  0  0  0  0  0  0
   -0.3513   -0.5285    0.4370 C   0  0  0  0  0  3  0  0  0  0  0  0
    0.3075   -1.6607    1.0754 C   0  0  0  0  0  0  0  0  0  0  0  0
    0.8204   -2.6115    1.5918 C   0  0  0  0  0  0  0  0  0  0  0  0
   -0.7426    0.7878    1.6495 S   0  0  0  0  0  0  0  0  0  0  0  0
   -2.3177   -1.4195    0.2740 H   0  0  0  0  0  0  0  0  0  0  0  0
   -2.0182   -0.0992   -0.8676 H   0  0  0  0  0  0  0  0  0  0  0  0
   -1.2785   -1.6941   -1.1296 H   0  0  0  0  0  0  0  0  0  0  0  0
    1.2758   -3.4559    2.0505 H   0  0  0  0  0  0  0  0  0  0  0  0
   -1.5269    0.0320    2.4298 H   0  0  0  0  0  0  0  0  0  0  0  0
    0.9816    1.2690   -0.9090 C   0  0  0  0  0  0  0  0  0  0  0  0
    0.9816    1.2690   -2.2076 C   0  0  0  0  0  0  0  0  0  0  0  0
    0.9816    1.2690   -3.5063 C   0  0  0  0  0  0  0  0  0  0  0  0
    0.3180    0.3741   -0.2389 H   0  0  0  0  0  0  0  0  0  0  0  0
    1.5347    2.0148   -0.3506 H   0  0  0  0  0  0  0  0  0  0  0  0
    0.2359    1.8220   -4.0647 H   0  0  0  0  0  0  0  0  0  0  0  0
    1.7274    0.7160   -4.0647 H   0  0  0  0  0  0  0  0  0  0  0  0
  1  2  1  0
  1  6  1  0
  1  7  1  0
  1  8  1  0
  2  3  1  0
  2  5  1  0
  3  4  3  0
  4  9  1  0
  5 10  1  0
 11 12  2  0
 11 14  1  0
 11 15  1  0
 12 13  2  0
 13 16  1  0
 13 17  1  0
M  RAD  1   2   2
M  END
>  <reaction>  (13) 
rxn_1826

>  <mol_properties>  (13) 
{"1": {"label": "*1", "atom_type": "Cs"}, "4": {"label": "*0", "atom_type": "S2s"}, "10": {"label": "*3", "atom_type": "Ct"}, "11": {"label": "*4", "atom_type": "Ct"}, "13": {"label": "*2", "atom_type": "H0"}}

>  <type>  (13) 
unop_9

>  <geom_source>  (13) 
Heuristics

$$$$

     RDKit          3D

 17 15  0  0  0  0  0  0  0  0999 V2000
    0.2914   -1.9537    0.1145 C   0  0  0  0  0  0  0  0  0  0  0  0
   -0.2347   -0.5650    0.4741 C   0  0  0  0  0  3  0  0  0  0  0  0
    0.5065    0.0285    1.5794 C   0  0  0  0  0  0  0  0  0  0  0  0
    1.1310    0.4841    2.4939 C   0  0  0  0  0  0  0  0  0  0  0  0
   -2.0379   -0.5557    0.7972 S   0  0  0  0  0  0  0  0  0  0  0  0
    0.1745   -2.6352    0.9576 H   0  0  0  0  0  0  0  0  0  0  0  0
   -0.2588   -2.3537   -0.7363 H   0  0  0  0  0  0  0  0  0  0  0  0
    1.3519   -1.8998   -0.1370 H   0  0  0  0  0  0  0  0  0  0  0  0
    1.6855    0.8887    3.3061 H   0  0  0  0  0  0  0  0  0  0  0  0
   -1.9846   -1.2930    1.9147 H   0  0  0  0  0  0  0  0  0  0  0  0
    1.0982    1.2325   -0.8719 C   0  0  0  0  0  0  0  0  0  0  0  0
    1.0982    1.2325   -2.1706 C   0  0  0  0  0  0  0  0  0  0  0  0
    1.0982    1.2325   -3.4692 C   0  0  0  0  0  0  0  0  0  0  0  0
    0.4346    0.3376   -0.2018 H   0  0  0  0  0  0  0  0  0  0  0  0
    1.6512    1.9783   -0.3135 H   0  0  0  0  0  0  0  0  0  0  0  0
    0.3524    1.7856   -4.0276 H   0  0  0  0  0  0  0  0  0  0  0  0
    1.8439    0.6795   -4.0276 H   0  0  0  0  0  0  0  0  0  0  0  0
  1  2  1  0
  1  6  1  0
  1  7  1  0
  1  8  1  0
  2  3  1  0
  2  5  1  0
  3  4  3  0
  4  9  1  0
  5 10  1  0
 11 12  2  0
 11 14  1  0
 11 15  1  0
 12 13  2  0
 13 16  1  0
 13 17  1  0
M  RAD  1   2   2
M  END
>  <reaction>  (14) 
rxn_1826

>  <mol_properties>  (14) 
{"1": {"label": "*1", "atom_type": "Cs"}, "4": {"label": "*0", "atom_type": "S2s"}, "10": {"label": "*3", "atom_type": "Ct"}, "11": {"label": "*4", "atom_type": "Ct"}, "13": {"label": "*2", "atom_type": "H0"}}

>  <type>  (14) 
unop_10

>  <geom_source>  (14) 
Heuristics

$$$$

     RDKit          3D

 17 15  0  0  0  0  0  0  0  0999 V2000
   -0.9856    0.4281    2.1240 C   0  0  0  0  0  0  0  0  0  0  0  0
   -0.5335   -0.1736    0.7943 C   0  0  0  0  0  3  0  0  0  0  0  0
   -1.4865   -1.1529    0.2880 C   0  0  0  0  0  0  0  0  0  0  0  0
   -2.2861   -1.9571   -0.0960 C   0  0  0  0  0  0  0  0  0  0  0  0
    1.1598   -0.8680    0.8737 S   0  0  0  0  0  0  0  0  0  0  0  0
   -1.0576   -0.3469    2.8877 H   0  0  0  0  0  0  0  0  0  0  0  0
   -0.2714    1.1803    2.4566 H   0  0  0  0  0  0  0  0  0  0  0  0
   -1.9679    0.8902    2.0123 H   0  0  0  0  0  0  0  0  0  0  0  0
   -2.9963   -2.6714   -0.4371 H   0  0  0  0  0  0  0  0  0  0  0  0
    0.8627   -1.8683    1.7142 H   0  0  0  0  0  0  0  0  0  0  0  0
    0.7994    1.6239   -0.5517 C   0  0  0  0  0  0  0  0  0  0  0  0
    0.7994    1.6239   -1.8503 C   0  0  0  0  0  0  0  0  0  0  0  0
    0.7994    1.6239   -3.1490 C   0  0  0  0  0  0  0  0  0  0  0  0
    0.1358    0.7290    0.1184 H   0  0  0  0  0  0  0  0  0  0  0  0
    1.3524    2.3696    0.0067 H   0  0  0  0  0  0  0  0  0  0  0  0
    0.0537    2.1769   -3.7074 H   0  0  0  0  0  0  0  0  0  0  0  0
    1.5452    1.0709   -3.7074 H   0  0  0  0  0  0  0  0  0  0  0  0
  1  2  1  0
  1  6  1  0
  1  7  1  0
  1  8  1  0
  2  3  1  0
  2  5  1  0
  3  4  3  0
  4  9  1  0
  5 10  1  0
 11 12  2  0
 11 14  1  0
 11 15  1  0
 12 13  2  0
 13 16  1  0
 13 17  1  0
M  RAD  1   2   2
M  END
>  <reaction>  (15) 
rxn_1826

>  <mol_properties>  (15) 
{"1": {"label": "*1", "atom_type": "Cs"}, "4": {"label": "*0", "atom_type": "S2s"}, "10": {"label": "*3", "atom_type": "Ct"}, "11": {"label": "*4", "atom_type": "Ct"}, "13": {"label": "*2", "atom_type": "H0"}}

>  <type>  (15) 
unop_11

>  <geom_source>  (15) 
Heuristics

$$$$

     RDKit          3D

 17 15  0  0  0  0  0  0  0  0999 V2000
   -0.9917   -1.4467   -0.5220 C   0  0  0  0  0  0  0  0  0  0  0  0
   -0.2924   -0.5036    0.4559 C   0  0  0  0  0  3  0  0  0  0  0  0
    0.6399   -1.2124    1.3231 C   0  0  0  0  0  0  0  0  0  0  0  0
    1.3918   -1.8260    2.0244 C   0  0  0  0  0  0  0  0  0  0  0  0
   -1.4720    0.5070    1.4270 S   0  0  0  0  0  0  0  0  0  0  0  0
   -1.5837   -2.1855    0.0190 H   0  0  0  0  0  0  0  0  0  0  0  0
   -1.6531   -0.8823   -1.1781 H   0  0  0  0  0  0  0  0  0  0  0  0
   -0.2530   -1.9762   -1.1260 H   0  0  0  0  0  0  0  0  0  0  0  0
    2.0597   -2.3709    2.6472 H   0  0  0  0  0  0  0  0  0  0  0  0
   -1.9946   -0.5136    2.1202 H   0  0  0  0  0  0  0  0  0  0  0  0
    1.0405    1.2939   -0.8900 C   0  0  0  0  0  0  0  0  0  0  0  0
    1.0405    1.2939   -2.1887 C   0  0  0  0  0  0  0  0  0  0  0  0
    1.0405    1.2939   -3.4873 C   0  0  0  0  0  0  0  0  0  0  0  0
    0.3769    0.3990   -0.2199 H   0  0  0  0  0  0  0  0  0  0  0  0
    1.5935    2.0396   -0.3316 H   0  0  0  0  0  0  0  0  0  0  0  0
    0.2948    1.8469   -4.0458 H   0  0  0  0  0  0  0  0  0  0  0  0
    1.7863    0.7409   -4.0458 H   0  0  0  0  0  0  0  0  0  0  0  0
  1  2  1  0
  1  6  1  0
  1  7  1  0
  1  8  1  0
  2  3  1  0
  2  5  1  0
  3  4  3  0
  4  9  1  0
  5 10  1  0
 11 12  2  0
 11 14  1  0
 11 15  1  0
 12 13  2  0
 13 16  1  0
 13 17  1  0
M  RAD  1   2   2
M  END
>  <reaction>  (16) 
rxn_1826

>  <mol_properties>  (16) 
{"1": {"label": "*1", "atom_type": "Cs"}, "4": {"label": "*0", "atom_type": "S2s"}, "10": {"label": "*3", "atom_type": "Ct"}, "11": {"label": "*4", "atom_type": "Ct"}, "13": {"label": "*2", "atom_type": "H0"}}

>  <type>  (16) 
unop_12

>  <geom_source>  (16) 
Heuristics

$$$$

     RDKit          3D

 17 15  0  0  0  0  0  0  0  0999 V2000
    0.2333    0.3806    1.6738 S   0  0  0  0  0  0  0  0  0  0  0  0
   -0.9066    0.1024    0.2830 C   0  0  0  0  0  3  0  0  0  0  0  0
   -1.6058   -1.2454    0.4310 C   0  0  0  0  0  0  0  0  0  0  0  0
    3.2307   -0.2637   -0.2101 C   0  0  0  0  0  0  0  0  0  0  0  0
   -1.8936    1.1874    0.2466 C   0  0  0  0  0  0  0  0  0  0  0  0
    2.1063   -0.0278   -0.8240 C   0  0  0  0  0  0  0  0  0  0  0  0
   -2.7046    2.0792    0.2151 C   0  0  0  0  0  0  0  0  0  0  0  0
    0.9820    0.2080   -1.4379 C   0  0  0  0  0  0  0  0  0  0  0  0
   -0.1831    0.1145   -0.9058 H   0  0  0  0  0  0  0  0  0  0  0  0
   -2.2966   -1.4120   -0.4230 H   0  0  0  0  0  0  0  0  0  0  0  0
   -2.1837   -1.2864    1.3797 H   0  0  0  0  0  0  0  0  0  0  0  0
   -0.8533   -2.0616    0.4321 H   0  0  0  0  0  0  0  0  0  0  0  0
    3.7870   -1.1651   -0.4280 H   0  0  0  0  0  0  0  0  0  0  0  0
    3.6084    0.4423    0.5168 H   0  0  0  0  0  0  0  0  0  0  0  0
    1.1131   -0.6350    1.2532 H   0  0  0  0  0  0  0  0  0  0  0  0
   -3.4164    2.8618    0.1876 H   0  0  0  0  0  0  0  0  0  0  0  0
    0.9830    0.7208   -2.3899 H   0  0  0  0  0  0  0  0  0  0  0  0
  1  2  1  0
  1 15  1  0
  2  3  1  0
  2  5  1  0
  3 10  1  0
  3 11  1  0
  3 12  1  0
  4  6  2  0
  4 13  1  0
  4 14  1  0
  5  7  3  0
  6  8  2  0
  7 16  1  0
  8  9  1  0
  8 17  1  0
M  RAD  1   2   2
M  END
>  <reaction>  (17) 
rxn_1826

>  <mol_properties>  (17) 
{"1": {"label": "*1", "atom_type": "Cs"}, "4": {"label": "*0", "atom_type": "S2s"}, "10": {"label": "*3", "atom_type": "Ct"}, "11": {"label": "*4", "atom_type": "Ct"}, "13": {"label": "*2", "atom_type": "H0"}}

>  <type>  (17) 
unop_13

>  <geom_source>  (17) 
AutoTST

$$$$
