
     RDKit          3D

  8  7  0  0  0  0  0  0  0  0999 V2000
    1.9029    0.9046   -0.2050 C   0  0  0  0  0  0  0  0  0  0  0  0
    0.8517    0.4283    0.1217 C   0  0  0  0  0  0  0  0  0  0  0  0
   -0.3908   -0.1311    0.5404 C   0  0  0  0  0  0  0  0  0  0  0  0
   -1.2847   -0.6576   -0.2899 C   0  0  0  0  0  0  0  0  0  0  0  0
    2.8335    1.3255   -0.5014 H   0  0  0  0  0  0  0  0  0  0  0  0
   -0.5867   -0.1096    1.6074 H   0  0  0  0  0  0  0  0  0  0  0  0
   -2.2126   -1.0686    0.0850 H   0  0  0  0  0  0  0  0  0  0  0  0
   -1.1134   -0.6914   -1.3582 H   0  0  0  0  0  0  0  0  0  0  0  0
  1  2  3  0
  1  5  1  0
  2  3  1  0
  3  4  2  3
  3  6  1  0
  4  7  1  0
  4  8  1  0
M  END
>  <reaction>  (1) 
rxn_1794

>  <mol_properties>  (1) 
{"2": {"label": "donator", "atom_type": "Cd"}, "5": {"label": "d_hydrogen", "atom_type": "H0"}}

>  <type>  (1) 
r1h

$$$$

     RDKit          3D

  7  6  0  0  0  0  0  0  0  0999 V2000
   -0.6904   -0.9066   -0.0346 C   0  0  0  0  0  0  0  0  0  0  0  0
    0.1413    0.0254   -0.6161 C   0  0  0  0  0  0  0  0  0  0  0  0
    0.4603    0.1105   -1.9267 C   0  0  0  0  0  3  0  0  0  0  0  0
    0.8318    0.2180   -3.4201 S   0  0  0  0  0  0  0  0  0  0  0  0
   -0.8731   -0.8770    1.0287 H   0  0  0  0  0  0  0  0  0  0  0  0
   -1.1718   -1.6767   -0.6199 H   0  0  0  0  0  0  0  0  0  0  0  0
    0.6090    0.7866    0.0044 H   0  0  0  0  0  0  0  0  0  0  0  0
  1  2  2  3
  1  5  1  0
  1  6  1  0
  2  3  1  0
  2  7  1  0
  3  4  2  0
M  RAD  1   3   2
M  END
>  <reaction>  (2) 
rxn_1794

>  <mol_properties>  (2) 
{"2": {"label": "acceptor", "atom_type": "CS"}}

>  <type>  (2) 
r2

$$$$

     RDKit          3D

  8  7  0  0  0  0  0  0  0  0999 V2000
   -1.1617    0.0338    0.5053 C   0  0  0  0  0  0  0  0  0  0  0  0
   -0.1023    0.4503   -0.1863 C   0  0  0  0  0  0  0  0  0  0  0  0
    1.0978   -0.3557   -0.3104 C   0  0  0  0  0  0  0  0  0  0  0  0
    2.4251    0.0667   -1.1256 S   0  0  0  0  0  0  0  0  0  0  0  0
   -1.1653   -0.9292    1.0039 H   0  0  0  0  0  0  0  0  0  0  0  0
   -2.0546    0.6389    0.5948 H   0  0  0  0  0  0  0  0  0  0  0  0
   -0.0991    1.4132   -0.6847 H   0  0  0  0  0  0  0  0  0  0  0  0
    1.0601   -1.3180    0.2032 H   0  0  0  0  0  0  0  0  0  0  0  0
  1  2  2  3
  1  5  1  0
  1  6  1  0
  2  3  1  0
  2  7  1  0
  3  4  2  0
  3  8  1  0
M  END
>  <reaction>  (3) 
rxn_1794

>  <mol_properties>  (3) 
{"0": {"label": "a_hydrogen", "atom_type": "H0"}, "3": {"label": "acceptor", "atom_type": "CS"}}

>  <type>  (3) 
r2h

$$$$

     RDKit          3D

 15 13  0  0  0  0  0  0  0  0999 V2000
   -0.0357   -1.6891   -3.0990 C   0  0  0  0  0  0  0  0  0  0  0  0
   -0.0279   -1.7091   -1.8935 C   0  0  0  0  0  0  0  0  0  0  0  0
   -0.0171   -1.6011   -0.5046 C   0  0  0  0  0  3  0  0  0  0  0  0
   -0.0222   -2.4882    0.4700 C   0  0  0  0  0  0  0  0  0  0  0  0
   -0.0431   -1.7108   -4.1623 H   0  0  0  0  0  0  0  0  0  0  0  0
    0.0033   -0.3016    0.0282 H   0  0  0  0  0  0  0  0  0  0  0  0
   -0.0110   -2.1654    1.5066 H   0  0  0  0  0  0  0  0  0  0  0  0
   -0.0374   -3.5569    0.2761 H   0  0  0  0  0  0  0  0  0  0  0  0
    0.0219    1.8974   -1.4719 C   0  0  0  0  0  0  0  0  0  0  0  0
    0.0319    1.9807   -0.1416 C   0  0  0  0  0  0  0  0  0  0  0  0
    0.0223    0.8084    0.7042 C   0  0  0  0  0  0  0  0  0  0  0  0
    0.0317    0.7120    2.2940 S   0  0  0  0  0  0  0  0  0  0  0  0
    0.0294    2.7906   -2.0839 H   0  0  0  0  0  0  0  0  0  0  0  0
    0.0060    0.9427   -1.9838 H   0  0  0  0  0  0  0  0  0  0  0  0
    0.0478    2.9458    0.3561 H   0  0  0  0  0  0  0  0  0  0  0  0
  1  2  3  0
  1  5  1  0
  2  3  1  0
  3  4  2  3
  4  7  1  0
  4  8  1  0
  6 11  1  0
  9 10  2  3
  9 13  1  0
  9 14  1  0
 10 11  1  0
 10 15  1  0
 11 12  2  0
M  RAD  1   3   2
M  END
>  <reaction>  (4) 
rxn_1794

>  <mol_properties>  (4) 
{"1": {"label": "*4", "atom_type": "Ct"}, "2": {"label": "*3", "atom_type": "Cd"}, "5": {"label": "*2", "atom_type": "H0"}, "10": {"label": "*1", "atom_type": "CS"}, "11": {"label": "*0", "atom_type": "S2d"}}

>  <type>  (4) 
ts

$$$$

     RDKit          3D

 15 13  0  0  0  0  0  0  0  0999 V2000
    0.0009   -1.3992   -3.1655 C   0  0  0  0  0  0  0  0  0  0  0  0
    0.0009   -1.3992   -1.9661 C   0  0  0  0  0  0  0  0  0  0  0  0
    0.0009   -1.3675   -0.5410 C   0  0  0  0  0  0  0  0  0  0  0  0
    0.0009   -2.4530    0.2253 C   0  0  0  0  0  0  0  0  0  0  0  0
    0.0009   -1.3992   -4.2290 H   0  0  0  0  0  0  0  0  0  0  0  0
    0.0008   -0.1848    0.0037 H   0  0  0  0  0  0  0  0  0  0  0  0
    0.0009   -2.3684    1.3039 H   0  0  0  0  0  0  0  0  0  0  0  0
    0.0009   -3.4474   -0.2024 H   0  0  0  0  0  0  0  0  0  0  0  0
   -2.3755    0.9198    1.0697 C   0  0  0  0  0  0  0  0  0  0  0  0
   -1.1390    1.2845    1.4047 C   0  0  0  0  0  0  0  0  0  0  0  0
    0.0008    1.0049    0.5515 C   0  0  0  0  0  3  0  0  0  0  0  0
    1.5297    1.4079    0.8754 S   0  0  0  0  0  0  0  0  0  0  0  0
   -3.2223    1.1307    1.7098 H   0  0  0  0  0  0  0  0  0  0  0  0
   -2.5760    0.3974    0.1409 H   0  0  0  0  0  0  0  0  0  0  0  0
   -0.9388    1.8068    2.3335 H   0  0  0  0  0  0  0  0  0  0  0  0
  1  2  3  0
  1  5  1  0
  2  3  1  0
  3  4  2  3
  3  6  1  0
  4  7  1  0
  4  8  1  0
  9 10  2  3
  9 13  1  0
  9 14  1  0
 10 11  1  0
 10 15  1  0
 11 12  2  0
M  RAD  1  11   2
M  END
>  <reaction>  (5) 
rxn_1794

>  <mol_properties>  (5) 
{"1": {"label": "*4", "atom_type": "Ct"}, "2": {"label": "*3", "atom_type": "Cd"}, "5": {"label": "*2", "atom_type": "H0"}, "10": {"label": "*1", "atom_type": "CS"}, "11": {"label": "*0", "atom_type": "S2d"}}

>  <type>  (5) 
unop_1

>  <geom_source>  (5) 
Heuristics

$$$$

     RDKit          3D

 15 13  0  0  0  0  0  0  0  0999 V2000
    0.0889   -1.5132   -3.0121 C   0  0  0  0  0  0  0  0  0  0  0  0
    0.0889   -1.5132   -1.8127 C   0  0  0  0  0  0  0  0  0  0  0  0
    0.0889   -1.4814   -0.3876 C   0  0  0  0  0  0  0  0  0  0  0  0
    0.0889   -2.5670    0.3787 C   0  0  0  0  0  0  0  0  0  0  0  0
    0.0889   -1.5132   -4.0756 H   0  0  0  0  0  0  0  0  0  0  0  0
    0.0889   -0.2988    0.1571 H   0  0  0  0  0  0  0  0  0  0  0  0
    0.0889   -2.4823    1.4573 H   0  0  0  0  0  0  0  0  0  0  0  0
    0.0890   -3.5614   -0.0490 H   0  0  0  0  0  0  0  0  0  0  0  0
   -0.8149    1.7729   -1.3754 C   0  0  0  0  0  0  0  0  0  0  0  0
   -0.5692    1.9225   -0.0749 C   0  0  0  0  0  0  0  0  0  0  0  0
    0.0889    0.8910    0.7049 C   0  0  0  0  0  3  0  0  0  0  0  0
    0.4263    0.9849    2.2804 S   0  0  0  0  0  0  0  0  0  0  0  0
   -1.3062    2.5455   -1.9526 H   0  0  0  0  0  0  0  0  0  0  0  0
   -0.5300    0.8686   -1.9017 H   0  0  0  0  0  0  0  0  0  0  0  0
   -0.8543    2.8268    0.4510 H   0  0  0  0  0  0  0  0  0  0  0  0
  1  2  3  0
  1  5  1  0
  2  3  1  0
  3  4  2  3
  3  6  1  0
  4  7  1  0
  4  8  1  0
  9 10  2  3
  9 13  1  0
  9 14  1  0
 10 11  1  0
 10 15  1  0
 11 12  2  0
M  RAD  1  11   2
M  END
>  <reaction>  (6) 
rxn_1794

>  <mol_properties>  (6) 
{"1": {"label": "*4", "atom_type": "Ct"}, "2": {"label": "*3", "atom_type": "Cd"}, "5": {"label": "*2", "atom_type": "H0"}, "10": {"label": "*1", "atom_type": "CS"}, "11": {"label": "*0", "atom_type": "S2d"}}

>  <type>  (6) 
unop_2

>  <geom_source>  (6) 
Heuristics

$$$$

     RDKit          3D

 15 13  0  0  0  0  0  0  0  0999 V2000
   -0.0593   -1.4368   -3.1331 C   0  0  0  0  0  0  0  0  0  0  0  0
   -0.0593   -1.4368   -1.9337 C   0  0  0  0  0  0  0  0  0  0  0  0
   -0.0593   -1.4050   -0.5085 C   0  0  0  0  0  0  0  0  0  0  0  0
   -0.0593   -2.4906    0.2578 C   0  0  0  0  0  0  0  0  0  0  0  0
   -0.0593   -1.4368   -4.1965 H   0  0  0  0  0  0  0  0  0  0  0  0
   -0.0594   -0.2224    0.0361 H   0  0  0  0  0  0  0  0  0  0  0  0
   -0.0593   -2.4059    1.3364 H   0  0  0  0  0  0  0  0  0  0  0  0
   -0.0593   -3.4850   -0.1699 H   0  0  0  0  0  0  0  0  0  0  0  0
   -1.7483    0.2622    2.1879 C   0  0  0  0  0  0  0  0  0  0  0  0
   -0.7175    1.0454    1.8748 C   0  0  0  0  0  0  0  0  0  0  0  0
   -0.0594    0.9674    0.5840 C   0  0  0  0  0  3  0  0  0  0  0  0
    1.1925    1.8734    0.1187 S   0  0  0  0  0  0  0  0  0  0  0  0
   -2.2357    0.3244    3.1523 H   0  0  0  0  0  0  0  0  0  0  0  0
   -2.1355   -0.4667    1.4847 H   0  0  0  0  0  0  0  0  0  0  0  0
   -0.3306    1.7742    2.5782 H   0  0  0  0  0  0  0  0  0  0  0  0
  1  2  3  0
  1  5  1  0
  2  3  1  0
  3  4  2  3
  3  6  1  0
  4  7  1  0
  4  8  1  0
  9 10  2  3
  9 13  1  0
  9 14  1  0
 10 11  1  0
 10 15  1  0
 11 12  2  0
M  RAD  1  11   2
M  END
>  <reaction>  (7) 
rxn_1794

>  <mol_properties>  (7) 
{"1": {"label": "*4", "atom_type": "Ct"}, "2": {"label": "*3", "atom_type": "Cd"}, "5": {"label": "*2", "atom_type": "H0"}, "10": {"label": "*1", "atom_type": "CS"}, "11": {"label": "*0", "atom_type": "S2d"}}

>  <type>  (7) 
unop_3

>  <geom_source>  (7) 
Heuristics

$$$$

     RDKit          3D

 15 13  0  0  0  0  0  0  0  0999 V2000
   -0.1199   -1.4604   -3.0798 C   0  0  0  0  0  0  0  0  0  0  0  0
   -0.1199   -1.4604   -1.8804 C   0  0  0  0  0  0  0  0  0  0  0  0
   -0.1199   -1.4286   -0.4553 C   0  0  0  0  0  0  0  0  0  0  0  0
   -0.1199   -2.5142    0.3110 C   0  0  0  0  0  0  0  0  0  0  0  0
   -0.1199   -1.4604   -4.1433 H   0  0  0  0  0  0  0  0  0  0  0  0
   -0.1199   -0.2459    0.0893 H   0  0  0  0  0  0  0  0  0  0  0  0
   -0.1199   -2.4295    1.3896 H   0  0  0  0  0  0  0  0  0  0  0  0
   -0.1198   -3.5085   -0.1167 H   0  0  0  0  0  0  0  0  0  0  0  0
    1.6258    1.6849   -0.8879 C   0  0  0  0  0  0  0  0  0  0  0  0
    1.0199    1.7739    0.2949 C   0  0  0  0  0  0  0  0  0  0  0  0
   -0.1199    0.9438    0.6372 C   0  0  0  0  0  3  0  0  0  0  0  0
   -0.9143    0.9829    2.0415 S   0  0  0  0  0  0  0  0  0  0  0  0
    2.4757    2.3064   -1.1382 H   0  0  0  0  0  0  0  0  0  0  0  0
    1.2867    0.9841   -1.6427 H   0  0  0  0  0  0  0  0  0  0  0  0
    1.3592    2.4747    1.0494 H   0  0  0  0  0  0  0  0  0  0  0  0
  1  2  3  0
  1  5  1  0
  2  3  1  0
  3  4  2  3
  3  6  1  0
  4  7  1  0
  4  8  1  0
  9 10  2  3
  9 13  1  0
  9 14  1  0
 10 11  1  0
 10 15  1  0
 11 12  2  0
M  RAD  1  11   2
M  END
>  <reaction>  (8) 
rxn_1794

>  <mol_properties>  (8) 
{"1": {"label": "*4", "atom_type": "Ct"}, "2": {"label": "*3", "atom_type": "Cd"}, "5": {"label": "*2", "atom_type": "H0"}, "10": {"label": "*1", "atom_type": "CS"}, "11": {"label": "*0", "atom_type": "S2d"}}

>  <type>  (8) 
unop_4

>  <geom_source>  (8) 
Heuristics

$$$$

     RDKit          3D

 15 13  0  0  0  0  0  0  0  0999 V2000
    0.0000   -1.4869   -3.0916 C   0  0  0  0  0  0  0  0  0  0  0  0
    0.0000   -1.4869   -1.8922 C   0  0  0  0  0  0  0  0  0  0  0  0
    0.0000   -1.4551   -0.4670 C   0  0  0  0  0  0  0  0  0  0  0  0
    0.0000   -2.5407    0.2993 C   0  0  0  0  0  0  0  0  0  0  0  0
    0.0000   -1.4869   -4.1550 H   0  0  0  0  0  0  0  0  0  0  0  0
    0.0000   -0.2724    0.0776 H   0  0  0  0  0  0  0  0  0  0  0  0
    0.0000   -2.4560    1.3779 H   0  0  0  0  0  0  0  0  0  0  0  0
    0.0001   -3.5351   -0.1284 H   0  0  0  0  0  0  0  0  0  0  0  0
    0.0000   -0.2070    2.7838 C   0  0  0  0  0  0  0  0  0  0  0  0
   -0.0000    0.9216    2.0764 C   0  0  0  0  0  0  0  0  0  0  0  0
   -0.0000    0.9173    0.6255 C   0  0  0  0  0  3  0  0  0  0  0  0
   -0.0000    2.2315   -0.3114 S   0  0  0  0  0  0  0  0  0  0  0  0
    0.0000   -0.1983    3.8661 H   0  0  0  0  0  0  0  0  0  0  0  0
    0.0000   -1.1762    2.2974 H   0  0  0  0  0  0  0  0  0  0  0  0
   -0.0000    1.8905    2.5631 H   0  0  0  0  0  0  0  0  0  0  0  0
  1  2  3  0
  1  5  1  0
  2  3  1  0
  3  4  2  3
  3  6  1  0
  4  7  1  0
  4  8  1  0
  9 10  2  3
  9 13  1  0
  9 14  1  0
 10 11  1  0
 10 15  1  0
 11 12  2  0
M  RAD  1  11   2
M  END
>  <reaction>  (9) 
rxn_1794

>  <mol_properties>  (9) 
{"1": {"label": "*4", "atom_type": "Ct"}, "2": {"label": "*3", "atom_type": "Cd"}, "5": {"label": "*2", "atom_type": "H0"}, "10": {"label": "*1", "atom_type": "CS"}, "11": {"label": "*0", "atom_type": "S2d"}}

>  <type>  (9) 
unop_5

>  <geom_source>  (9) 
Heuristics

$$$$

     RDKit          3D

 15 13  0  0  0  0  0  0  0  0999 V2000
   -0.0812   -1.4132   -3.1428 C   0  0  0  0  0  0  0  0  0  0  0  0
   -0.0812   -1.4132   -1.9434 C   0  0  0  0  0  0  0  0  0  0  0  0
   -0.0812   -1.3814   -0.5183 C   0  0  0  0  0  0  0  0  0  0  0  0
   -0.0812   -2.4670    0.2480 C   0  0  0  0  0  0  0  0  0  0  0  0
   -0.0812   -1.4132   -4.2063 H   0  0  0  0  0  0  0  0  0  0  0  0
   -0.0812   -0.1988    0.0264 H   0  0  0  0  0  0  0  0  0  0  0  0
   -0.0812   -2.3823    1.3267 H   0  0  0  0  0  0  0  0  0  0  0  0
   -0.0811   -3.4614   -0.1797 H   0  0  0  0  0  0  0  0  0  0  0  0
    2.2377    1.4068   -0.0359 C   0  0  0  0  0  0  0  0  0  0  0  0
    1.2349    1.5458    0.8297 C   0  0  0  0  0  0  0  0  0  0  0  0
   -0.0812    0.9910    0.5742 C   0  0  0  0  0  3  0  0  0  0  0  0
   -1.3516    1.1096    1.5625 S   0  0  0  0  0  0  0  0  0  0  0  0
    3.2176    1.8226    0.1595 H   0  0  0  0  0  0  0  0  0  0  0  0
    2.1056    0.8704   -0.9689 H   0  0  0  0  0  0  0  0  0  0  0  0
    1.3674    2.0822    1.7626 H   0  0  0  0  0  0  0  0  0  0  0  0
  1  2  3  0
  1  5  1  0
  2  3  1  0
  3  4  2  3
  3  6  1  0
  4  7  1  0
  4  8  1  0
  9 10  2  3
  9 13  1  0
  9 14  1  0
 10 11  1  0
 10 15  1  0
 11 12  2  0
M  RAD  1  11   2
M  END
>  <reaction>  (10) 
rxn_1794

>  <mol_properties>  (10) 
{"1": {"label": "*4", "atom_type": "Ct"}, "2": {"label": "*3", "atom_type": "Cd"}, "5": {"label": "*2", "atom_type": "H0"}, "10": {"label": "*1", "atom_type": "CS"}, "11": {"label": "*0", "atom_type": "S2d"}}

>  <type>  (10) 
unop_6

>  <geom_source>  (10) 
Heuristics

$$$$

     RDKit          3D

 15 13  0  0  0  0  0  0  0  0999 V2000
   -0.0008   -1.3992   -3.1655 C   0  0  0  0  0  0  0  0  0  0  0  0
   -0.0008   -1.3992   -1.9661 C   0  0  0  0  0  0  0  0  0  0  0  0
   -0.0008   -1.3675   -0.5410 C   0  0  0  0  0  0  0  0  0  0  0  0
   -0.0008   -2.4530    0.2253 C   0  0  0  0  0  0  0  0  0  0  0  0
   -0.0008   -1.3992   -4.2290 H   0  0  0  0  0  0  0  0  0  0  0  0
   -0.0008   -0.1848    0.0037 H   0  0  0  0  0  0  0  0  0  0  0  0
   -0.0008   -2.3684    1.3039 H   0  0  0  0  0  0  0  0  0  0  0  0
   -0.0008   -3.4474   -0.2024 H   0  0  0  0  0  0  0  0  0  0  0  0
    2.3754    0.9199    1.0697 C   0  0  0  0  0  0  0  0  0  0  0  0
    1.1389    1.2845    1.4047 C   0  0  0  0  0  0  0  0  0  0  0  0
   -0.0009    1.0049    0.5515 C   0  0  0  0  0  3  0  0  0  0  0  0
   -1.5298    1.4078    0.8754 S   0  0  0  0  0  0  0  0  0  0  0  0
    3.2223    1.1309    1.7098 H   0  0  0  0  0  0  0  0  0  0  0  0
    2.5760    0.3975    0.1409 H   0  0  0  0  0  0  0  0  0  0  0  0
    0.9387    1.8068    2.3335 H   0  0  0  0  0  0  0  0  0  0  0  0
  1  2  3  0
  1  5  1  0
  2  3  1  0
  3  4  2  3
  3  6  1  0
  4  7  1  0
  4  8  1  0
  9 10  2  3
  9 13  1  0
  9 14  1  0
 10 11  1  0
 10 15  1  0
 11 12  2  0
M  RAD  1  11   2
M  END
>  <reaction>  (11) 
rxn_1794

>  <mol_properties>  (11) 
{"1": {"label": "*4", "atom_type": "Ct"}, "2": {"label": "*3", "atom_type": "Cd"}, "5": {"label": "*2", "atom_type": "H0"}, "10": {"label": "*1", "atom_type": "CS"}, "11": {"label": "*0", "atom_type": "S2d"}}

>  <type>  (11) 
unop_7

>  <geom_source>  (11) 
Heuristics

$$$$

     RDKit          3D

 15 13  0  0  0  0  0  0  0  0999 V2000
    0.0812   -1.4132   -3.1428 C   0  0  0  0  0  0  0  0  0  0  0  0
    0.0812   -1.4132   -1.9434 C   0  0  0  0  0  0  0  0  0  0  0  0
    0.0812   -1.3814   -0.5183 C   0  0  0  0  0  0  0  0  0  0  0  0
    0.0813   -2.4670    0.2480 C   0  0  0  0  0  0  0  0  0  0  0  0
    0.0812   -1.4132   -4.2063 H   0  0  0  0  0  0  0  0  0  0  0  0
    0.0812   -0.1988    0.0264 H   0  0  0  0  0  0  0  0  0  0  0  0
    0.0813   -2.3823    1.3267 H   0  0  0  0  0  0  0  0  0  0  0  0
    0.0813   -3.4614   -0.1797 H   0  0  0  0  0  0  0  0  0  0  0  0
   -2.2377    1.4067   -0.0359 C   0  0  0  0  0  0  0  0  0  0  0  0
   -1.2350    1.5457    0.8297 C   0  0  0  0  0  0  0  0  0  0  0  0
    0.0812    0.9910    0.5742 C   0  0  0  0  0  3  0  0  0  0  0  0
    1.3516    1.1097    1.5625 S   0  0  0  0  0  0  0  0  0  0  0  0
   -3.2177    1.8225    0.1595 H   0  0  0  0  0  0  0  0  0  0  0  0
   -2.1056    0.8703   -0.9689 H   0  0  0  0  0  0  0  0  0  0  0  0
   -1.3674    2.0822    1.7626 H   0  0  0  0  0  0  0  0  0  0  0  0
  1  2  3  0
  1  5  1  0
  2  3  1  0
  3  4  2  3
  3  6  1  0
  4  7  1  0
  4  8  1  0
  9 10  2  3
  9 13  1  0
  9 14  1  0
 10 11  1  0
 10 15  1  0
 11 12  2  0
M  RAD  1  11   2
M  END
>  <reaction>  (12) 
rxn_1794

>  <mol_properties>  (12) 
{"1": {"label": "*4", "atom_type": "Ct"}, "2": {"label": "*3", "atom_type": "Cd"}, "5": {"label": "*2", "atom_type": "H0"}, "10": {"label": "*1", "atom_type": "CS"}, "11": {"label": "*0", "atom_type": "S2d"}}

>  <type>  (12) 
unop_8

>  <geom_source>  (12) 
Heuristics

$$$$

     RDKit          3D

 15 13  0  0  0  0  0  0  0  0999 V2000
   -0.0889   -1.5132   -3.0121 C   0  0  0  0  0  0  0  0  0  0  0  0
   -0.0889   -1.5132   -1.8127 C   0  0  0  0  0  0  0  0  0  0  0  0
   -0.0889   -1.4814   -0.3876 C   0  0  0  0  0  0  0  0  0  0  0  0
   -0.0888   -2.5670    0.3787 C   0  0  0  0  0  0  0  0  0  0  0  0
   -0.0889   -1.5132   -4.0756 H   0  0  0  0  0  0  0  0  0  0  0  0
   -0.0889   -0.2988    0.1571 H   0  0  0  0  0  0  0  0  0  0  0  0
   -0.0888   -2.4823    1.4573 H   0  0  0  0  0  0  0  0  0  0  0  0
   -0.0888   -3.5614   -0.0490 H   0  0  0  0  0  0  0  0  0  0  0  0
    0.8149    1.7729   -1.3754 C   0  0  0  0  0  0  0  0  0  0  0  0
    0.5692    1.9225   -0.0749 C   0  0  0  0  0  0  0  0  0  0  0  0
   -0.0889    0.8910    0.7049 C   0  0  0  0  0  3  0  0  0  0  0  0
   -0.4263    0.9849    2.2804 S   0  0  0  0  0  0  0  0  0  0  0  0
    1.3061    2.5455   -1.9526 H   0  0  0  0  0  0  0  0  0  0  0  0
    0.5300    0.8686   -1.9017 H   0  0  0  0  0  0  0  0  0  0  0  0
    0.8542    2.8268    0.4510 H   0  0  0  0  0  0  0  0  0  0  0  0
  1  2  3  0
  1  5  1  0
  2  3  1  0
  3  4  2  3
  3  6  1  0
  4  7  1  0
  4  8  1  0
  9 10  2  3
  9 13  1  0
  9 14  1  0
 10 11  1  0
 10 15  1  0
 11 12  2  0
M  RAD  1  11   2
M  END
>  <reaction>  (13) 
rxn_1794

>  <mol_properties>  (13) 
{"1": {"label": "*4", "atom_type": "Ct"}, "2": {"label": "*3", "atom_type": "Cd"}, "5": {"label": "*2", "atom_type": "H0"}, "10": {"label": "*1", "atom_type": "CS"}, "11": {"label": "*0", "atom_type": "S2d"}}

>  <type>  (13) 
unop_9

>  <geom_source>  (13) 
Heuristics

$$$$

     RDKit          3D

 15 13  0  0  0  0  0  0  0  0999 V2000
    0.1199   -1.4604   -3.0798 C   0  0  0  0  0  0  0  0  0  0  0  0
    0.1199   -1.4604   -1.8804 C   0  0  0  0  0  0  0  0  0  0  0  0
    0.1199   -1.4286   -0.4553 C   0  0  0  0  0  0  0  0  0  0  0  0
    0.1200   -2.5142    0.3110 C   0  0  0  0  0  0  0  0  0  0  0  0
    0.1199   -1.4604   -4.1433 H   0  0  0  0  0  0  0  0  0  0  0  0
    0.1199   -0.2459    0.0893 H   0  0  0  0  0  0  0  0  0  0  0  0
    0.1200   -2.4295    1.3896 H   0  0  0  0  0  0  0  0  0  0  0  0
    0.1200   -3.5085   -0.1167 H   0  0  0  0  0  0  0  0  0  0  0  0
   -1.6258    1.6848   -0.8879 C   0  0  0  0  0  0  0  0  0  0  0  0
   -1.0199    1.7738    0.2949 C   0  0  0  0  0  0  0  0  0  0  0  0
    0.1199    0.9438    0.6372 C   0  0  0  0  0  3  0  0  0  0  0  0
    0.9143    0.9829    2.0415 S   0  0  0  0  0  0  0  0  0  0  0  0
   -2.4758    2.3063   -1.1382 H   0  0  0  0  0  0  0  0  0  0  0  0
   -1.2867    0.9840   -1.6427 H   0  0  0  0  0  0  0  0  0  0  0  0
   -1.3593    2.4747    1.0494 H   0  0  0  0  0  0  0  0  0  0  0  0
  1  2  3  0
  1  5  1  0
  2  3  1  0
  3  4  2  3
  3  6  1  0
  4  7  1  0
  4  8  1  0
  9 10  2  3
  9 13  1  0
  9 14  1  0
 10 11  1  0
 10 15  1  0
 11 12  2  0
M  RAD  1  11   2
M  END
>  <reaction>  (14) 
rxn_1794

>  <mol_properties>  (14) 
{"1": {"label": "*4", "atom_type": "Ct"}, "2": {"label": "*3", "atom_type": "Cd"}, "5": {"label": "*2", "atom_type": "H0"}, "10": {"label": "*1", "atom_type": "CS"}, "11": {"label": "*0", "atom_type": "S2d"}}

>  <type>  (14) 
unop_10

>  <geom_source>  (14) 
Heuristics

$$$$

     RDKit          3D

 15 13  0  0  0  0  0  0  0  0999 V2000
    0.0594   -1.4368   -3.1331 C   0  0  0  0  0  0  0  0  0  0  0  0
    0.0594   -1.4368   -1.9337 C   0  0  0  0  0  0  0  0  0  0  0  0
    0.0594   -1.4050   -0.5085 C   0  0  0  0  0  0  0  0  0  0  0  0
    0.0594   -2.4906    0.2578 C   0  0  0  0  0  0  0  0  0  0  0  0
    0.0594   -1.4368   -4.1965 H   0  0  0  0  0  0  0  0  0  0  0  0
    0.0594   -0.2224    0.0361 H   0  0  0  0  0  0  0  0  0  0  0  0
    0.0594   -2.4059    1.3364 H   0  0  0  0  0  0  0  0  0  0  0  0
    0.0594   -3.4850   -0.1699 H   0  0  0  0  0  0  0  0  0  0  0  0
    1.7483    0.2623    2.1879 C   0  0  0  0  0  0  0  0  0  0  0  0
    0.7174    1.0454    1.8748 C   0  0  0  0  0  0  0  0  0  0  0  0
    0.0593    0.9674    0.5840 C   0  0  0  0  0  3  0  0  0  0  0  0
   -1.1926    1.8734    0.1187 S   0  0  0  0  0  0  0  0  0  0  0  0
    2.2357    0.3245    3.1523 H   0  0  0  0  0  0  0  0  0  0  0  0
    2.1355   -0.4666    1.4847 H   0  0  0  0  0  0  0  0  0  0  0  0
    0.3306    1.7742    2.5782 H   0  0  0  0  0  0  0  0  0  0  0  0
  1  2  3  0
  1  5  1  0
  2  3  1  0
  3  4  2  3
  3  6  1  0
  4  7  1  0
  4  8  1  0
  9 10  2  3
  9 13  1  0
  9 14  1  0
 10 11  1  0
 10 15  1  0
 11 12  2  0
M  RAD  1  11   2
M  END
>  <reaction>  (15) 
rxn_1794

>  <mol_properties>  (15) 
{"1": {"label": "*4", "atom_type": "Ct"}, "2": {"label": "*3", "atom_type": "Cd"}, "5": {"label": "*2", "atom_type": "H0"}, "10": {"label": "*1", "atom_type": "CS"}, "11": {"label": "*0", "atom_type": "S2d"}}

>  <type>  (15) 
unop_11

>  <geom_source>  (15) 
Heuristics

$$$$

     RDKit          3D

 15 13  0  0  0  0  0  0  0  0999 V2000
    0.0000   -1.5372   -2.9824 C   0  0  0  0  0  0  0  0  0  0  0  0
    0.0000   -1.5372   -1.7830 C   0  0  0  0  0  0  0  0  0  0  0  0
    0.0000   -1.5054   -0.3578 C   0  0  0  0  0  0  0  0  0  0  0  0
    0.0001   -2.5910    0.4085 C   0  0  0  0  0  0  0  0  0  0  0  0
    0.0000   -1.5372   -4.0458 H   0  0  0  0  0  0  0  0  0  0  0  0
    0.0000   -0.3227    0.1868 H   0  0  0  0  0  0  0  0  0  0  0  0
    0.0000   -2.5063    1.4871 H   0  0  0  0  0  0  0  0  0  0  0  0
    0.0001   -3.5854   -0.0192 H   0  0  0  0  0  0  0  0  0  0  0  0
   -0.0000    1.7761   -1.5228 C   0  0  0  0  0  0  0  0  0  0  0  0
   -0.0000    1.9723   -0.2054 C   0  0  0  0  0  0  0  0  0  0  0  0
   -0.0000    0.8670    0.7347 C   0  0  0  0  0  3  0  0  0  0  0  0
   -0.0000    1.0095    2.3423 S   0  0  0  0  0  0  0  0  0  0  0  0
   -0.0001    2.6042   -2.2197 H   0  0  0  0  0  0  0  0  0  0  0  0
   -0.0000    0.7765   -1.9430 H   0  0  0  0  0  0  0  0  0  0  0  0
   -0.0001    2.9720    0.2145 H   0  0  0  0  0  0  0  0  0  0  0  0
  1  2  3  0
  1  5  1  0
  2  3  1  0
  3  4  2  3
  3  6  1  0
  4  7  1  0
  4  8  1  0
  9 10  2  3
  9 13  1  0
  9 14  1  0
 10 11  1  0
 10 15  1  0
 11 12  2  0
M  RAD  1  11   2
M  END
>  <reaction>  (16) 
rxn_1794

>  <mol_properties>  (16) 
{"1": {"label": "*4", "atom_type": "Ct"}, "2": {"label": "*3", "atom_type": "Cd"}, "5": {"label": "*2", "atom_type": "H0"}, "10": {"label": "*1", "atom_type": "CS"}, "11": {"label": "*0", "atom_type": "S2d"}}

>  <type>  (16) 
unop_12

>  <geom_source>  (16) 
Heuristics

$$$$

     RDKit          3D

 15 13  0  0  0  0  0  0  0  0999 V2000
    0.2817    1.0217   -2.1605 S   0  0  0  0  0  0  0  0  0  0  0  0
    2.2431    0.0041   -0.6250 C   0  0  0  0  0  0  0  0  0  0  0  0
    2.7070   -0.5033    0.5121 C   0  0  0  0  0  0  0  0  0  0  0  0
    0.8377    0.3991   -0.7557 C   0  0  0  0  0  3  0  0  0  0  0  0
   -1.6761   -1.2456    1.0255 C   0  0  0  0  0  0  0  0  0  0  0  0
   -1.2430   -0.0258    0.7330 C   0  0  0  0  0  0  0  0  0  0  0  0
   -2.0595    0.8941   -0.0120 C   0  0  0  0  0  0  0  0  0  0  0  0
   -2.7432    1.6660   -0.6365 C   0  0  0  0  0  0  0  0  0  0  0  0
    2.9167    0.1258   -1.4648 H   0  0  0  0  0  0  0  0  0  0  0  0
    2.0612   -0.6385    1.3711 H   0  0  0  0  0  0  0  0  0  0  0  0
    3.7476   -0.7898    0.5914 H   0  0  0  0  0  0  0  0  0  0  0  0
   -0.0319    0.2493    0.3074 H   0  0  0  0  0  0  0  0  0  0  0  0
   -1.0412   -1.9171    1.5871 H   0  0  0  0  0  0  0  0  0  0  0  0
   -2.6566   -1.5837    0.7118 H   0  0  0  0  0  0  0  0  0  0  0  0
   -3.3436    2.3436   -1.1848 H   0  0  0  0  0  0  0  0  0  0  0  0
  1  4  2  0
  2  3  2  3
  2  4  1  0
  2  9  1  0
  3 10  1  0
  3 11  1  0
  5  6  2  3
  5 13  1  0
  5 14  1  0
  6  7  1  0
  6 12  1  0
  7  8  3  0
  8 15  1  0
M  RAD  1   4   2
M  END
>  <reaction>  (17) 
rxn_1794

>  <mol_properties>  (17) 
{"1": {"label": "*4", "atom_type": "Ct"}, "2": {"label": "*3", "atom_type": "Cd"}, "5": {"label": "*2", "atom_type": "H0"}, "10": {"label": "*1", "atom_type": "CS"}, "11": {"label": "*0", "atom_type": "S2d"}}

>  <type>  (17) 
unop_13

>  <geom_source>  (17) 
AutoTST

$$$$
