
     RDKit          3D

  9  8  0  0  0  0  0  0  0  0999 V2000
   -0.8818   -0.3578    0.1297 C   0  0  0  0  0  0  0  0  0  0  0  0
    0.6153   -0.3021   -0.1188 C   0  0  0  0  0  0  0  0  0  0  0  0
    1.5354   -1.7170    0.5545 S   0  0  0  0  0  0  0  0  0  0  0  0
   -1.1018   -0.3317    1.1984 H   0  0  0  0  0  0  0  0  0  0  0  0
   -1.3114   -1.2723   -0.2799 H   0  0  0  0  0  0  0  0  0  0  0  0
   -1.3767    0.4976   -0.3363 H   0  0  0  0  0  0  0  0  0  0  0  0
    1.0467    0.6194    0.2718 H   0  0  0  0  0  0  0  0  0  0  0  0
    0.8295   -0.3275   -1.1882 H   0  0  0  0  0  0  0  0  0  0  0  0
    1.2306   -1.5077    1.8423 H   0  0  0  0  0  0  0  0  0  0  0  0
  1  2  1  0
  1  4  1  0
  1  5  1  0
  1  6  1  0
  2  3  1  0
  2  7  1  0
  2  8  1  0
  3  9  1  0
M  END
>  <reaction>  (1) 
rxn_1879

>  <mol_properties>  (1) 
{"1": {"label": "donator", "atom_type": "Cs"}, "6": {"label": "d_hydrogen", "atom_type": "H0"}}

>  <type>  (1) 
r1h

$$$$

     RDKit          3D

 17 17  0  0  0  0  0  0  0  0999 V2000
    2.7069    0.2860   -0.1817 C   0  0  0  0  0  0  0  0  0  0  0  0
    1.6304   -0.7245    0.0085 C   0  0  0  0  0  0  0  0  0  0  0  0
    1.4786   -1.8800   -0.7837 C   0  0  0  0  0  0  0  0  0  0  0  0
    0.4231   -2.7891   -0.5312 C   0  0  0  0  0  3  0  0  0  0  0  0
    0.2582   -3.9235   -1.2940 C   0  0  0  0  0  0  0  0  0  0  0  0
    1.1348   -4.2030   -2.3401 C   0  0  0  0  0  0  0  0  0  0  0  0
    2.1804   -3.3260   -2.6093 C   0  0  0  0  0  0  0  0  0  0  0  0
    2.3549   -2.1866   -1.8513 C   0  0  0  0  0  0  0  0  0  0  0  0
    2.6698    0.7343   -1.1808 H   0  0  0  0  0  0  0  0  0  0  0  0
    3.7029   -0.1584   -0.0766 H   0  0  0  0  0  0  0  0  0  0  0  0
    2.6250    1.0917    0.5463 H   0  0  0  0  0  0  0  0  0  0  0  0
    0.9136   -0.5677    0.8059 H   0  0  0  0  0  0  0  0  0  0  0  0
   -0.2629   -2.5783    0.2811 H   0  0  0  0  0  0  0  0  0  0  0  0
   -0.5582   -4.6017   -1.0785 H   0  0  0  0  0  0  0  0  0  0  0  0
    1.0033   -5.0952   -2.9384 H   0  0  0  0  0  0  0  0  0  0  0  0
    2.8650   -3.5382   -3.4214 H   0  0  0  0  0  0  0  0  0  0  0  0
    3.1750   -1.5169   -2.0772 H   0  0  0  0  0  0  0  0  0  0  0  0
  1  2  1  0
  1  9  1  0
  1 10  1  0
  1 11  1  0
  2  3  2  3
  2 12  1  0
  3  4  1  0
  3  8  1  0
  4  5  1  0
  4 13  1  0
  5  6  2  0
  5 14  1  0
  6  7  1  0
  6 15  1  0
  7  8  2  0
  7 16  1  0
  8 17  1  0
M  RAD  1   4   2
M  END
>  <reaction>  (2) 
rxn_1879

>  <mol_properties>  (2) 
{"1": {"label": "acceptor", "atom_type": "Cs"}}

>  <type>  (2) 
r2

$$$$

     RDKit          3D

 18 18  0  0  0  0  0  0  0  0999 V2000
   -2.4852    0.3210   -0.3966 C   0  0  0  0  0  0  0  0  0  0  0  0
   -1.5917   -0.2708    0.6941 C   0  0  0  0  0  0  0  0  0  0  0  0
   -0.1292   -0.1692    0.3493 C   0  0  0  0  0  0  0  0  0  0  0  0
    0.6099    0.9558    0.7015 C   0  0  0  0  0  0  0  0  0  0  0  0
    1.9447    1.0728    0.3458 C   0  0  0  0  0  0  0  0  0  0  0  0
    2.5646    0.0613   -0.3720 C   0  0  0  0  0  0  0  0  0  0  0  0
    1.8399   -1.0657   -0.7287 C   0  0  0  0  0  0  0  0  0  0  0  0
    0.5055   -1.1769   -0.3700 C   0  0  0  0  0  0  0  0  0  0  0  0
   -2.3325   -0.1971   -1.3452 H   0  0  0  0  0  0  0  0  0  0  0  0
   -2.2554    1.3763   -0.5546 H   0  0  0  0  0  0  0  0  0  0  0  0
   -3.5397    0.2376   -0.1280 H   0  0  0  0  0  0  0  0  0  0  0  0
   -1.7801    0.2462    1.6380 H   0  0  0  0  0  0  0  0  0  0  0  0
   -1.8568   -1.3190    0.8516 H   0  0  0  0  0  0  0  0  0  0  0  0
    0.1327    1.7497    1.2656 H   0  0  0  0  0  0  0  0  0  0  0  0
    2.5033    1.9550    0.6330 H   0  0  0  0  0  0  0  0  0  0  0  0
    3.6077    0.1491   -0.6484 H   0  0  0  0  0  0  0  0  0  0  0  0
    2.3163   -1.8632   -1.2854 H   0  0  0  0  0  0  0  0  0  0  0  0
   -0.0540   -2.0629   -0.6500 H   0  0  0  0  0  0  0  0  0  0  0  0
  1  2  1  0
  1  9  1  0
  1 10  1  0
  1 11  1  0
  2  3  1  0
  2 12  1  0
  2 13  1  0
  3  4  2  0
  3  8  1  0
  4  5  1  0
  4 14  1  0
  5  6  2  0
  5 15  1  0
  6  7  1  0
  6 16  1  0
  7  8  2  0
  7 17  1  0
  8 18  1  0
M  END
>  <reaction>  (3) 
rxn_1879

>  <mol_properties>  (3) 
{"0": {"label": "a_hydrogen", "atom_type": "H0"}, "2": {"label": "acceptor", "atom_type": "Cs"}}

>  <type>  (3) 
r2h

$$$$

     RDKit          3D

 26 25  0  0  0  0  0  0  0  0999 V2000
   -1.8774    1.6446    0.0369 C   0  0  0  0  0  0  0  0  0  0  0  0
   -0.7892    1.8705   -0.9771 C   0  0  0  0  0  3  0  0  0  0  0  0
   -0.9622    1.0954   -2.5604 S   0  0  0  0  0  0  0  0  0  0  0  0
   -2.0068    0.5778    0.2324 H   0  0  0  0  0  0  0  0  0  0  0  0
   -2.8366    2.0434   -0.3050 H   0  0  0  0  0  0  0  0  0  0  0  0
   -1.6212    2.1310    0.9808 H   0  0  0  0  0  0  0  0  0  0  0  0
    0.3385    1.3132   -0.3928 H   0  0  0  0  0  0  0  0  0  0  0  0
   -0.5148    2.9125   -1.1319 H   0  0  0  0  0  0  0  0  0  0  0  0
   -1.1817   -0.1473   -2.1037 H   0  0  0  0  0  0  0  0  0  0  0  0
    2.4930    1.0227   -0.8327 C   0  0  0  0  0  0  0  0  0  0  0  0
    1.3650    0.6593    0.1009 C   0  0  0  0  0  0  0  0  0  0  0  0
    0.8949   -0.7350    0.1534 C   0  0  0  0  0  0  0  0  0  0  0  0
    0.1512   -1.1790    1.2530 C   0  0  0  0  0  0  0  0  0  0  0  0
   -0.3704   -2.4588    1.2989 C   0  0  0  0  0  0  0  0  0  0  0  0
   -0.1627   -3.3361    0.2426 C   0  0  0  0  0  0  0  0  0  0  0  0
    0.5762   -2.9160   -0.8528 C   0  0  0  0  0  0  0  0  0  0  0  0
    1.0981   -1.6328   -0.8989 C   0  0  0  0  0  0  0  0  0  0  0  0
    2.2109    0.8678   -1.8766 H   0  0  0  0  0  0  0  0  0  0  0  0
    3.3891    0.4269   -0.6356 H   0  0  0  0  0  0  0  0  0  0  0  0
    2.7569    2.0747   -0.7193 H   0  0  0  0  0  0  0  0  0  0  0  0
    1.4627    1.0988    1.0935 H   0  0  0  0  0  0  0  0  0  0  0  0
   -0.0162   -0.5006    2.0824 H   0  0  0  0  0  0  0  0  0  0  0  0
   -0.9396   -2.7766    2.1638 H   0  0  0  0  0  0  0  0  0  0  0  0
   -0.5685   -4.3390    0.2769 H   0  0  0  0  0  0  0  0  0  0  0  0
    0.7503   -3.5935   -1.6798 H   0  0  0  0  0  0  0  0  0  0  0  0
    1.6695   -1.3247   -1.7648 H   0  0  0  0  0  0  0  0  0  0  0  0
  1  2  1  0
  1  4  1  0
  1  5  1  0
  1  6  1  0
  2  3  1  0
  2  8  1  0
  3  9  1  0
  7 11  1  0
 10 11  1  0
 10 18  1  0
 10 19  1  0
 10 20  1  0
 11 12  1  0
 11 21  1  0
 12 13  2  0
 12 17  1  0
 13 14  1  0
 13 22  1  0
 14 15  2  0
 14 23  1  0
 15 16  1  0
 15 24  1  0
 16 17  2  0
 16 25  1  0
 17 26  1  0
M  RAD  1   2   2
M  END
>  <reaction>  (4) 
rxn_1879

>  <mol_properties>  (4) 
{"1": {"label": "*3", "atom_type": "Cs"}, "2": {"label": "*4", "atom_type": "S2s"}, "6": {"label": "*2", "atom_type": "H0"}, "10": {"label": "*1", "atom_type": "Cs"}, "11": {"label": "*0", "atom_type": "Cd"}}

>  <type>  (4) 
ts

$$$$

     RDKit          3D

 26 25  0  0  0  0  0  0  0  0999 V2000
   -2.0425    1.5529   -1.8157 C   0  0  0  0  0  0  0  0  0  0  0  0
   -2.0425    1.5529   -0.2970 C   0  0  0  0  0  0  0  0  0  0  0  0
   -2.0425    3.2102    0.4480 S   0  0  0  0  0  0  0  0  0  0  0  0
   -1.1359    2.0183   -2.2064 H   0  0  0  0  0  0  0  0  0  0  0  0
   -2.8985    2.1041   -2.2058 H   0  0  0  0  0  0  0  0  0  0  0  0
   -2.0856    0.5295   -2.1960 H   0  0  0  0  0  0  0  0  0  0  0  0
   -1.0306    0.8735    0.1771 H   0  0  0  0  0  0  0  0  0  0  0  0
   -2.9501    1.0858    0.0881 H   0  0  0  0  0  0  0  0  0  0  0  0
   -0.8677    3.6119   -0.0556 H   0  0  0  0  0  0  0  0  0  0  0  0
    0.8562    1.1111    1.5087 C   0  0  0  0  0  0  0  0  0  0  0  0
   -0.0161    0.1925    0.6525 C   0  0  0  0  0  0  0  0  0  0  0  0
    0.7228   -1.0422    0.2076 C   0  0  0  0  0  0  0  0  0  0  0  0
    0.7284   -2.1912    0.9921 C   0  0  0  0  0  3  0  0  0  0  0  0
    1.4450   -3.3141    0.6080 C   0  0  0  0  0  0  0  0  0  0  0  0
    2.1714   -3.3054   -0.5731 C   0  0  0  0  0  0  0  0  0  0  0  0
    2.1737   -2.1671   -1.3649 C   0  0  0  0  0  0  0  0  0  0  0  0
    1.4551   -1.0474   -0.9754 C   0  0  0  0  0  0  0  0  0  0  0  0
    1.7379    1.4358    0.9530 H   0  0  0  0  0  0  0  0  0  0  0  0
    1.2018    0.5919    2.4046 H   0  0  0  0  0  0  0  0  0  0  0  0
    0.3031    1.9988    1.8205 H   0  0  0  0  0  0  0  0  0  0  0  0
   -0.9032   -0.0987    1.2200 H   0  0  0  0  0  0  0  0  0  0  0  0
    0.1601   -2.2066    1.9157 H   0  0  0  0  0  0  0  0  0  0  0  0
    1.4332   -4.1998    1.2311 H   0  0  0  0  0  0  0  0  0  0  0  0
    2.7293   -4.1821   -0.8767 H   0  0  0  0  0  0  0  0  0  0  0  0
    2.7342   -2.1519   -2.2914 H   0  0  0  0  0  0  0  0  0  0  0  0
    1.4592   -0.1618   -1.6015 H   0  0  0  0  0  0  0  0  0  0  0  0
  1  2  1  0
  1  4  1  0
  1  5  1  0
  1  6  1  0
  2  3  1  0
  2  7  1  0
  2  8  1  0
  3  9  1  0
 10 11  1  0
 10 18  1  0
 10 19  1  0
 10 20  1  0
 11 12  2  3
 11 21  1  0
 12 13  1  0
 12 17  1  0
 13 14  1  0
 13 22  1  0
 14 15  2  0
 14 23  1  0
 15 16  1  0
 15 24  1  0
 16 17  2  0
 16 25  1  0
 17 26  1  0
M  RAD  1  13   2
M  END
>  <reaction>  (5) 
rxn_1879

>  <mol_properties>  (5) 
{"1": {"label": "*3", "atom_type": "Cs"}, "2": {"label": "*4", "atom_type": "S2s"}, "6": {"label": "*2", "atom_type": "H0"}, "10": {"label": "*1", "atom_type": "Cs"}, "11": {"label": "*0", "atom_type": "Cd"}}

>  <type>  (5) 
unop_1

>  <geom_source>  (5) 
Heuristics

$$$$

     RDKit          3D

 26 25  0  0  0  0  0  0  0  0999 V2000
   -1.2778    1.7659   -2.5592 C   0  0  0  0  0  0  0  0  0  0  0  0
   -1.2778    1.7659   -1.0406 C   0  0  0  0  0  0  0  0  0  0  0  0
   -1.2778    3.4233   -0.2956 S   0  0  0  0  0  0  0  0  0  0  0  0
   -0.3712    2.2314   -2.9500 H   0  0  0  0  0  0  0  0  0  0  0  0
   -2.1338    2.3171   -2.9493 H   0  0  0  0  0  0  0  0  0  0  0  0
   -1.3209    0.7426   -2.9395 H   0  0  0  0  0  0  0  0  0  0  0  0
   -0.2659    1.0866   -0.5664 H   0  0  0  0  0  0  0  0  0  0  0  0
   -2.1854    1.2989   -0.6554 H   0  0  0  0  0  0  0  0  0  0  0  0
   -0.1030    3.8250   -0.7991 H   0  0  0  0  0  0  0  0  0  0  0  0
    1.9197    0.4878   -1.0708 C   0  0  0  0  0  0  0  0  0  0  0  0
    0.7486    0.4055   -0.0911 C   0  0  0  0  0  0  0  0  0  0  0  0
    0.6008   -0.9694    0.5055 C   0  0  0  0  0  0  0  0  0  0  0  0
    1.2767   -1.3174    1.6708 C   0  0  0  0  0  3  0  0  0  0  0  0
    1.1793   -2.5960    2.1975 C   0  0  0  0  0  0  0  0  0  0  0  0
    0.4004   -3.5521    1.5636 C   0  0  0  0  0  0  0  0  0  0  0  0
   -0.2792   -3.2184    0.4019 C   0  0  0  0  0  0  0  0  0  0  0  0
   -0.1778   -1.9381   -0.1199 C   0  0  0  0  0  0  0  0  0  0  0  0
    1.7859   -0.2169   -1.8936 H   0  0  0  0  0  0  0  0  0  0  0  0
    2.8590    0.2410   -0.5725 H   0  0  0  0  0  0  0  0  0  0  0  0
    2.0095    1.4908   -1.4915 H   0  0  0  0  0  0  0  0  0  0  0  0
    0.8922    1.1360    0.7086 H   0  0  0  0  0  0  0  0  0  0  0  0
    1.8854   -0.5740    2.1740 H   0  0  0  0  0  0  0  0  0  0  0  0
    1.7103   -2.8455    3.1078 H   0  0  0  0  0  0  0  0  0  0  0  0
    0.3204   -4.5505    1.9746 H   0  0  0  0  0  0  0  0  0  0  0  0
   -0.8937   -3.9568   -0.0982 H   0  0  0  0  0  0  0  0  0  0  0  0
   -0.7148   -1.6837   -1.0272 H   0  0  0  0  0  0  0  0  0  0  0  0
  1  2  1  0
  1  4  1  0
  1  5  1  0
  1  6  1  0
  2  3  1  0
  2  7  1  0
  2  8  1  0
  3  9  1  0
 10 11  1  0
 10 18  1  0
 10 19  1  0
 10 20  1  0
 11 12  2  3
 11 21  1  0
 12 13  1  0
 12 17  1  0
 13 14  1  0
 13 22  1  0
 14 15  2  0
 14 23  1  0
 15 16  1  0
 15 24  1  0
 16 17  2  0
 16 25  1  0
 17 26  1  0
M  RAD  1  13   2
M  END
>  <reaction>  (6) 
rxn_1879

>  <mol_properties>  (6) 
{"1": {"label": "*3", "atom_type": "Cs"}, "2": {"label": "*4", "atom_type": "S2s"}, "6": {"label": "*2", "atom_type": "H0"}, "10": {"label": "*1", "atom_type": "Cs"}, "11": {"label": "*0", "atom_type": "Cd"}}

>  <type>  (6) 
unop_2

>  <geom_source>  (6) 
Heuristics

$$$$

     RDKit          3D

 26 25  0  0  0  0  0  0  0  0999 V2000
   -2.3765    1.0218   -1.5968 C   0  0  0  0  0  0  0  0  0  0  0  0
   -2.3765    1.0218   -0.0782 C   0  0  0  0  0  0  0  0  0  0  0  0
   -2.3765    2.6792    0.6668 S   0  0  0  0  0  0  0  0  0  0  0  0
   -1.4699    1.4873   -1.9876 H   0  0  0  0  0  0  0  0  0  0  0  0
   -3.2325    1.5731   -1.9869 H   0  0  0  0  0  0  0  0  0  0  0  0
   -2.4196   -0.0015   -1.9771 H   0  0  0  0  0  0  0  0  0  0  0  0
   -1.3646    0.3425    0.3959 H   0  0  0  0  0  0  0  0  0  0  0  0
   -3.2841    0.5548    0.3070 H   0  0  0  0  0  0  0  0  0  0  0  0
   -1.2017    3.0809    0.1633 H   0  0  0  0  0  0  0  0  0  0  0  0
    0.0691    0.2485    2.2195 C   0  0  0  0  0  0  0  0  0  0  0  0
   -0.3501   -0.3386    0.8713 C   0  0  0  0  0  0  0  0  0  0  0  0
    0.8114   -0.9441    0.1280 C   0  0  0  0  0  0  0  0  0  0  0  0
    1.1627   -2.2769    0.3182 C   0  0  0  0  0  3  0  0  0  0  0  0
    2.2590   -2.8252   -0.3294 C   0  0  0  0  0  0  0  0  0  0  0  0
    3.0255   -2.0451   -1.1817 C   0  0  0  0  0  0  0  0  0  0  0  0
    2.6860   -0.7155   -1.3808 C   0  0  0  0  0  0  0  0  0  0  0  0
    1.5886   -0.1729   -0.7304 C   0  0  0  0  0  0  0  0  0  0  0  0
    0.8190    1.0302    2.0847 H   0  0  0  0  0  0  0  0  0  0  0  0
    0.5048   -0.5220    2.8583 H   0  0  0  0  0  0  0  0  0  0  0  0
   -0.7858    0.6818    2.7416 H   0  0  0  0  0  0  0  0  0  0  0  0
   -1.1179   -1.0997    1.0296 H   0  0  0  0  0  0  0  0  0  0  0  0
    0.5660   -2.8942    0.9809 H   0  0  0  0  0  0  0  0  0  0  0  0
    2.5133   -3.8659   -0.1707 H   0  0  0  0  0  0  0  0  0  0  0  0
    3.8804   -2.4718   -1.6908 H   0  0  0  0  0  0  0  0  0  0  0  0
    3.2758   -0.0991   -2.0480 H   0  0  0  0  0  0  0  0  0  0  0  0
    1.3274    0.8670   -0.8936 H   0  0  0  0  0  0  0  0  0  0  0  0
  1  2  1  0
  1  4  1  0
  1  5  1  0
  1  6  1  0
  2  3  1  0
  2  7  1  0
  2  8  1  0
  3  9  1  0
 10 11  1  0
 10 18  1  0
 10 19  1  0
 10 20  1  0
 11 12  2  3
 11 21  1  0
 12 13  1  0
 12 17  1  0
 13 14  1  0
 13 22  1  0
 14 15  2  0
 14 23  1  0
 15 16  1  0
 15 24  1  0
 16 17  2  0
 16 25  1  0
 17 26  1  0
M  RAD  1  13   2
M  END
>  <reaction>  (7) 
rxn_1879

>  <mol_properties>  (7) 
{"1": {"label": "*3", "atom_type": "Cs"}, "2": {"label": "*4", "atom_type": "S2s"}, "6": {"label": "*2", "atom_type": "H0"}, "10": {"label": "*1", "atom_type": "Cs"}, "11": {"label": "*0", "atom_type": "Cd"}}

>  <type>  (7) 
unop_3

>  <geom_source>  (7) 
Heuristics

$$$$

     RDKit          3D

 26 25  0  0  0  0  0  0  0  0999 V2000
   -0.6265    0.5056   -3.2535 C   0  0  0  0  0  0  0  0  0  0  0  0
   -0.6265    0.5056   -1.7348 C   0  0  0  0  0  0  0  0  0  0  0  0
   -0.6265    2.1630   -0.9899 S   0  0  0  0  0  0  0  0  0  0  0  0
    0.2801    0.9710   -3.6443 H   0  0  0  0  0  0  0  0  0  0  0  0
   -1.4825    1.0568   -3.6436 H   0  0  0  0  0  0  0  0  0  0  0  0
   -0.6696   -0.5178   -3.6338 H   0  0  0  0  0  0  0  0  0  0  0  0
    0.3854   -0.1737   -1.2607 H   0  0  0  0  0  0  0  0  0  0  0  0
   -1.5341    0.0386   -1.3497 H   0  0  0  0  0  0  0  0  0  0  0  0
    0.5483    2.5646   -1.4934 H   0  0  0  0  0  0  0  0  0  0  0  0
    1.3140   -2.3015   -1.2731 C   0  0  0  0  0  0  0  0  0  0  0  0
    1.3999   -0.8548   -0.7854 C   0  0  0  0  0  0  0  0  0  0  0  0
    0.6803   -0.6510    0.5219 C   0  0  0  0  0  0  0  0  0  0  0  0
    1.3375   -0.8369    1.7340 C   0  0  0  0  0  3  0  0  0  0  0  0
    0.6664   -0.6949    2.9387 C   0  0  0  0  0  0  0  0  0  0  0  0
   -0.6800   -0.3633    2.9502 C   0  0  0  0  0  0  0  0  0  0  0  0
   -1.3469   -0.1744    1.7493 C   0  0  0  0  0  0  0  0  0  0  0  0
   -0.6703   -0.3178    0.5479 C   0  0  0  0  0  0  0  0  0  0  0  0
    0.2740   -2.5997   -1.4183 H   0  0  0  0  0  0  0  0  0  0  0  0
    1.7553   -2.9827   -0.5432 H   0  0  0  0  0  0  0  0  0  0  0  0
    1.8410   -2.4280   -2.2205 H   0  0  0  0  0  0  0  0  0  0  0  0
    2.4490   -0.5716   -0.6716 H   0  0  0  0  0  0  0  0  0  0  0  0
    2.3913   -1.0933    1.7331 H   0  0  0  0  0  0  0  0  0  0  0  0
    1.1972   -0.8402    3.8714 H   0  0  0  0  0  0  0  0  0  0  0  0
   -1.2055   -0.2490    3.8898 H   0  0  0  0  0  0  0  0  0  0  0  0
   -2.3973    0.0892    1.7478 H   0  0  0  0  0  0  0  0  0  0  0  0
   -1.1979   -0.1653   -0.3873 H   0  0  0  0  0  0  0  0  0  0  0  0
  1  2  1  0
  1  4  1  0
  1  5  1  0
  1  6  1  0
  2  3  1  0
  2  7  1  0
  2  8  1  0
  3  9  1  0
 10 11  1  0
 10 18  1  0
 10 19  1  0
 10 20  1  0
 11 12  2  3
 11 21  1  0
 12 13  1  0
 12 17  1  0
 13 14  1  0
 13 22  1  0
 14 15  2  0
 14 23  1  0
 15 16  1  0
 15 24  1  0
 16 17  2  0
 16 25  1  0
 17 26  1  0
M  RAD  1  13   2
M  END
>  <reaction>  (8) 
rxn_1879

>  <mol_properties>  (8) 
{"1": {"label": "*3", "atom_type": "Cs"}, "2": {"label": "*4", "atom_type": "S2s"}, "6": {"label": "*2", "atom_type": "H0"}, "10": {"label": "*1", "atom_type": "Cs"}, "11": {"label": "*0", "atom_type": "Cd"}}

>  <type>  (8) 
unop_4

>  <geom_source>  (8) 
Heuristics

$$$$

     RDKit          3D

 26 25  0  0  0  0  0  0  0  0999 V2000
   -2.4413    0.0227   -1.7929 C   0  0  0  0  0  0  0  0  0  0  0  0
   -2.4413    0.0227   -0.2742 C   0  0  0  0  0  0  0  0  0  0  0  0
   -2.4413    1.6801    0.4708 S   0  0  0  0  0  0  0  0  0  0  0  0
   -1.5347    0.4881   -2.1836 H   0  0  0  0  0  0  0  0  0  0  0  0
   -3.2973    0.5739   -2.1830 H   0  0  0  0  0  0  0  0  0  0  0  0
   -2.4844   -1.0007   -2.1732 H   0  0  0  0  0  0  0  0  0  0  0  0
   -1.4294   -0.6566    0.1999 H   0  0  0  0  0  0  0  0  0  0  0  0
   -3.3489   -0.4444    0.1109 H   0  0  0  0  0  0  0  0  0  0  0  0
   -1.2665    2.0817   -0.0328 H   0  0  0  0  0  0  0  0  0  0  0  0
   -0.4558   -1.3103    2.2036 C   0  0  0  0  0  0  0  0  0  0  0  0
   -0.4149   -1.3377    0.6753 C   0  0  0  0  0  0  0  0  0  0  0  0
    0.8696   -0.7715    0.1297 C   0  0  0  0  0  0  0  0  0  0  0  0
    1.9785   -1.5868   -0.0738 C   0  0  0  0  0  3  0  0  0  0  0  0
    3.1764   -1.0608   -0.5324 C   0  0  0  0  0  0  0  0  0  0  0  0
    3.2848    0.2962   -0.7958 C   0  0  0  0  0  0  0  0  0  0  0  0
    2.1871    1.1200   -0.5980 C   0  0  0  0  0  0  0  0  0  0  0  0
    0.9919    0.5881   -0.1393 C   0  0  0  0  0  0  0  0  0  0  0  0
   -0.3612   -0.2881    2.5748 H   0  0  0  0  0  0  0  0  0  0  0  0
    0.3667   -1.8927    2.6231 H   0  0  0  0  0  0  0  0  0  0  0  0
   -1.3934   -1.7243    2.5785 H   0  0  0  0  0  0  0  0  0  0  0  0
   -0.5363   -2.3662    0.3272 H   0  0  0  0  0  0  0  0  0  0  0  0
    1.9004   -2.6497    0.1270 H   0  0  0  0  0  0  0  0  0  0  0  0
    4.0266   -1.7132   -0.6880 H   0  0  0  0  0  0  0  0  0  0  0  0
    4.2183    0.7088   -1.1568 H   0  0  0  0  0  0  0  0  0  0  0  0
    2.2604    2.1805   -0.8051 H   0  0  0  0  0  0  0  0  0  0  0  0
    0.1368    1.2382    0.0100 H   0  0  0  0  0  0  0  0  0  0  0  0
  1  2  1  0
  1  4  1  0
  1  5  1  0
  1  6  1  0
  2  3  1  0
  2  7  1  0
  2  8  1  0
  3  9  1  0
 10 11  1  0
 10 18  1  0
 10 19  1  0
 10 20  1  0
 11 12  2  3
 11 21  1  0
 12 13  1  0
 12 17  1  0
 13 14  1  0
 13 22  1  0
 14 15  2  0
 14 23  1  0
 15 16  1  0
 15 24  1  0
 16 17  2  0
 16 25  1  0
 17 26  1  0
M  RAD  1  13   2
M  END
>  <reaction>  (9) 
rxn_1879

>  <mol_properties>  (9) 
{"1": {"label": "*3", "atom_type": "Cs"}, "2": {"label": "*4", "atom_type": "S2s"}, "6": {"label": "*2", "atom_type": "H0"}, "10": {"label": "*1", "atom_type": "Cs"}, "11": {"label": "*0", "atom_type": "Cd"}}

>  <type>  (9) 
unop_5

>  <geom_source>  (9) 
Heuristics

$$$$

     RDKit          3D

 26 24  0  0  0  0  0  0  0  0999 V2000
   -0.8586   -0.0876   -3.1928 C   0  0  0  0  0  0  0  0  0  0  0  0
   -0.8586   -0.0876   -1.6741 C   0  0  0  0  0  3  0  0  0  0  0  0
   -0.8586    1.5698   -0.9291 S   0  0  0  0  0  1  0  0  0  0  0  0
    0.0480    0.3779   -3.5835 H   0  0  0  0  0  0  0  0  0  0  0  0
   -1.7146    0.4636   -3.5829 H   0  0  0  0  0  0  0  0  0  0  0  0
   -0.9017   -1.1109   -3.5731 H   0  0  0  0  0  0  0  0  0  0  0  0
    0.1533   -0.7669   -1.2000 H   0  0  0  0  0  0  0  0  0  0  0  0
   -1.7662   -0.5546   -1.2890 H   0  0  0  0  0  0  0  0  0  0  0  0
    0.3162    1.9715   -1.4327 H   0  0  0  0  0  0  0  0  0  0  0  0
    0.7572   -2.9094   -0.5404 C   0  0  0  0  0  0  0  0  0  0  0  0
    1.1678   -1.4480   -0.7246 C   0  0  0  0  0  0  0  0  0  0  0  0
    0.7434   -0.5866    0.4356 C   0  0  0  0  0  0  0  0  0  0  0  0
    1.5718   -0.4208    1.5410 C   0  0  0  0  0  3  0  0  0  0  0  0
    1.1655    0.3340    2.6305 C   0  0  0  0  0  0  0  0  0  0  0  0
   -0.0827    0.9378    2.6318 C   0  0  0  0  0  0  0  0  0  0  0  0
   -0.9181    0.7814    1.5362 C   0  0  0  0  0  0  0  0  0  0  0  0
   -0.5060    0.0254    0.4497 C   0  0  0  0  0  0  0  0  0  0  0  0
   -0.3264   -2.9973   -0.4424 H   0  0  0  0  0  0  0  0  0  0  0  0
    1.2065   -3.3265    0.3627 H   0  0  0  0  0  0  0  0  0  0  0  0
    1.0735   -3.5159   -1.3907 H   0  0  0  0  0  0  0  0  0  0  0  0
    2.2521   -1.3879   -0.8454 H   0  0  0  0  0  0  0  0  0  0  0  0
    2.5508   -0.8875    1.5460 H   0  0  0  0  0  0  0  0  0  0  0  0
    1.8270    0.4538    3.4796 H   0  0  0  0  0  0  0  0  0  0  0  0
   -0.4011    1.5302    3.4802 H   0  0  0  0  0  0  0  0  0  0  0  0
   -1.8931    1.2528    1.5257 H   0  0  0  0  0  0  0  0  0  0  0  0
   -1.1637   -0.0898   -0.4050 H   0  0  0  0  0  0  0  0  0  0  0  0
  1  2  1  0
  1  4  1  0
  1  5  1  0
  1  6  1  0
  2  7  1  0
  2  8  1  0
  3  9  1  0
 10 11  1  0
 10 18  1  0
 10 19  1  0
 10 20  1  0
 11 12  2  3
 11 21  1  0
 12 13  1  0
 12 17  1  0
 13 14  1  0
 13 22  1  0
 14 15  2  0
 14 23  1  0
 15 16  1  0
 15 24  1  0
 16 17  2  0
 16 25  1  0
 17 26  1  0
M  RAD  3   2   2   3   2  13   2
M  END
>  <reaction>  (10) 
rxn_1879

>  <mol_properties>  (10) 
{"1": {"label": "*3", "atom_type": "Cs"}, "2": {"label": "*4", "atom_type": "S2s"}, "6": {"label": "*2", "atom_type": "H0"}, "10": {"label": "*1", "atom_type": "Cs"}, "11": {"label": "*0", "atom_type": "Cd"}}

>  <type>  (10) 
unop_6

>  <geom_source>  (10) 
Heuristics

$$$$

     RDKit          3D

 26 24  0  0  0  0  0  0  0  0999 V2000
   -1.2787   -0.5140   -2.9064 C   0  0  0  0  0  0  0  0  0  0  0  0
   -1.2787   -0.5140   -1.3877 C   0  0  0  0  0  3  0  0  0  0  0  0
   -1.2787    1.1434   -0.6428 S   0  0  0  0  0  1  0  0  0  0  0  0
   -0.3721   -0.0485   -3.2972 H   0  0  0  0  0  0  0  0  0  0  0  0
   -2.1347    0.0372   -3.2965 H   0  0  0  0  0  0  0  0  0  0  0  0
   -1.3218   -1.5373   -3.2867 H   0  0  0  0  0  0  0  0  0  0  0  0
   -0.2668   -1.1933   -0.9136 H   0  0  0  0  0  0  0  0  0  0  0  0
   -2.1863   -0.9810   -1.0026 H   0  0  0  0  0  0  0  0  0  0  0  0
   -0.1039    1.5451   -1.1463 H   0  0  0  0  0  0  0  0  0  0  0  0
    0.2277   -3.0296    0.4180 C   0  0  0  0  0  0  0  0  0  0  0  0
    0.7477   -1.8744   -0.4383 C   0  0  0  0  0  0  0  0  0  0  0  0
    0.8005   -0.5778    0.3262 C   0  0  0  0  0  0  0  0  0  0  0  0
    1.9340   -0.2231    1.0508 C   0  0  0  0  0  3  0  0  0  0  0  0
    1.9693    0.9475    1.7926 C   0  0  0  0  0  0  0  0  0  0  0  0
    0.8655    1.7862    1.8219 C   0  0  0  0  0  0  0  0  0  0  0  0
   -0.2705    1.4450    1.1037 C   0  0  0  0  0  0  0  0  0  0  0  0
   -0.2996    0.2730    0.3637 C   0  0  0  0  0  0  0  0  0  0  0  0
   -0.7798   -2.8188    0.7814 H   0  0  0  0  0  0  0  0  0  0  0  0
    0.8681   -3.1848    1.2883 H   0  0  0  0  0  0  0  0  0  0  0  0
    0.1972   -3.9588   -0.1536 H   0  0  0  0  0  0  0  0  0  0  0  0
    1.7455   -2.1187   -0.8104 H   0  0  0  0  0  0  0  0  0  0  0  0
    2.8025   -0.8724    1.0302 H   0  0  0  0  0  0  0  0  0  0  0  0
    2.8629    1.2074    2.3467 H   0  0  0  0  0  0  0  0  0  0  0  0
    0.8917    2.7023    2.3982 H   0  0  0  0  0  0  0  0  0  0  0  0
   -1.1362    2.0956    1.1166 H   0  0  0  0  0  0  0  0  0  0  0  0
   -1.1906    0.0145   -0.1981 H   0  0  0  0  0  0  0  0  0  0  0  0
  1  2  1  0
  1  4  1  0
  1  5  1  0
  1  6  1  0
  2  7  1  0
  2  8  1  0
  3  9  1  0
 10 11  1  0
 10 18  1  0
 10 19  1  0
 10 20  1  0
 11 12  2  3
 11 21  1  0
 12 13  1  0
 12 17  1  0
 13 14  1  0
 13 22  1  0
 14 15  2  0
 14 23  1  0
 15 16  1  0
 15 24  1  0
 16 17  2  0
 16 25  1  0
 17 26  1  0
M  RAD  3   2   2   3   2  13   2
M  END
>  <reaction>  (11) 
rxn_1879

>  <mol_properties>  (11) 
{"1": {"label": "*3", "atom_type": "Cs"}, "2": {"label": "*4", "atom_type": "S2s"}, "6": {"label": "*2", "atom_type": "H0"}, "10": {"label": "*1", "atom_type": "Cs"}, "11": {"label": "*0", "atom_type": "Cd"}}

>  <type>  (11) 
unop_7

>  <geom_source>  (11) 
Heuristics

$$$$

     RDKit          3D

 26 25  0  0  0  0  0  0  0  0999 V2000
   -1.7808    1.7424   -2.1024 C   0  0  0  0  0  0  0  0  0  0  0  0
   -1.7808    1.7424   -0.5837 C   0  0  0  0  0  0  0  0  0  0  0  0
   -1.7808    3.3998    0.1613 S   0  0  0  0  0  0  0  0  0  0  0  0
   -0.8742    2.2079   -2.4931 H   0  0  0  0  0  0  0  0  0  0  0  0
   -2.6368    2.2936   -2.4925 H   0  0  0  0  0  0  0  0  0  0  0  0
   -1.8239    0.7191   -2.4827 H   0  0  0  0  0  0  0  0  0  0  0  0
   -0.7689    1.0631   -0.1096 H   0  0  0  0  0  0  0  0  0  0  0  0
   -2.6884    1.2754   -0.1986 H   0  0  0  0  0  0  0  0  0  0  0  0
   -0.6060    3.8015   -0.3423 H   0  0  0  0  0  0  0  0  0  0  0  0
    1.4427    1.3154    0.5500 C   0  0  0  0  0  0  0  0  0  0  0  0
    0.2456    0.3820    0.3658 C   0  0  0  0  0  0  0  0  0  0  0  0
    0.6552   -1.0665    0.3170 C   0  0  0  0  0  0  0  0  0  0  0  0
    0.7476   -1.8209    1.4824 C   0  0  0  0  0  3  0  0  0  0  0  0
    1.1683   -3.1413    1.4462 C   0  0  0  0  0  0  0  0  0  0  0  0
    1.5055   -3.7312    0.2375 C   0  0  0  0  0  0  0  0  0  0  0  0
    1.4171   -2.9909   -0.9317 C   0  0  0  0  0  0  0  0  0  0  0  0
    0.9956   -1.6709   -0.8890 C   0  0  0  0  0  0  0  0  0  0  0  0
    2.1530    1.2002   -0.2708 H   0  0  0  0  0  0  0  0  0  0  0  0
    1.9700    1.0895    1.4787 H   0  0  0  0  0  0  0  0  0  0  0  0
    1.1251    2.3590    0.5828 H   0  0  0  0  0  0  0  0  0  0  0  0
   -0.4620    0.5330    1.1845 H   0  0  0  0  0  0  0  0  0  0  0  0
    0.4826   -1.3673    2.4312 H   0  0  0  0  0  0  0  0  0  0  0  0
    1.2298   -3.7124    2.3643 H   0  0  0  0  0  0  0  0  0  0  0  0
    1.8315   -4.7630    0.2063 H   0  0  0  0  0  0  0  0  0  0  0  0
    1.6739   -3.4439   -1.8813 H   0  0  0  0  0  0  0  0  0  0  0  0
    0.9261   -1.0992   -1.8080 H   0  0  0  0  0  0  0  0  0  0  0  0
  1  2  1  0
  1  4  1  0
  1  5  1  0
  1  6  1  0
  2  3  1  0
  2  7  1  0
  2  8  1  0
  3  9  1  0
 10 11  1  0
 10 18  1  0
 10 19  1  0
 10 20  1  0
 11 12  2  3
 11 21  1  0
 12 13  1  0
 12 17  1  0
 13 14  1  0
 13 22  1  0
 14 15  2  0
 14 23  1  0
 15 16  1  0
 15 24  1  0
 16 17  2  0
 16 25  1  0
 17 26  1  0
M  RAD  1  13   2
M  END
>  <reaction>  (12) 
rxn_1879

>  <mol_properties>  (12) 
{"1": {"label": "*3", "atom_type": "Cs"}, "2": {"label": "*4", "atom_type": "S2s"}, "6": {"label": "*2", "atom_type": "H0"}, "10": {"label": "*1", "atom_type": "Cs"}, "11": {"label": "*0", "atom_type": "Cd"}}

>  <type>  (12) 
unop_8

>  <geom_source>  (12) 
Heuristics

$$$$

     RDKit          3D

 26 25  0  0  0  0  0  0  0  0999 V2000
   -0.6438    1.1225   -3.0997 C   0  0  0  0  0  0  0  0  0  0  0  0
   -0.6438    1.1225   -1.5810 C   0  0  0  0  0  0  0  0  0  0  0  0
   -0.6438    2.7799   -0.8360 S   0  0  0  0  0  0  0  0  0  0  0  0
    0.2629    1.5879   -3.4904 H   0  0  0  0  0  0  0  0  0  0  0  0
   -1.4997    1.6737   -3.4898 H   0  0  0  0  0  0  0  0  0  0  0  0
   -0.6868    0.0992   -3.4800 H   0  0  0  0  0  0  0  0  0  0  0  0
    0.3681    0.4432   -1.1069 H   0  0  0  0  0  0  0  0  0  0  0  0
   -1.5514    0.6555   -1.1959 H   0  0  0  0  0  0  0  0  0  0  0  0
    0.5310    3.1816   -1.3396 H   0  0  0  0  0  0  0  0  0  0  0  0
    1.7499   -1.3530   -1.6113 C   0  0  0  0  0  0  0  0  0  0  0  0
    1.3826   -0.2379   -0.6315 C   0  0  0  0  0  0  0  0  0  0  0  0
    0.6280   -0.7563    0.5643 C   0  0  0  0  0  0  0  0  0  0  0  0
    1.3037   -1.1918    1.6998 C   0  0  0  0  0  3  0  0  0  0  0  0
    0.6148   -1.7122    2.7845 C   0  0  0  0  0  0  0  0  0  0  0  0
   -0.7682   -1.8060    2.7503 C   0  0  0  0  0  0  0  0  0  0  0  0
   -1.4542   -1.3749    1.6251 C   0  0  0  0  0  0  0  0  0  0  0  0
   -0.7596   -0.8554    0.5436 C   0  0  0  0  0  0  0  0  0  0  0  0
    0.8534   -1.8559   -1.9787 H   0  0  0  0  0  0  0  0  0  0  0  0
    2.3757   -2.1040   -1.1256 H   0  0  0  0  0  0  0  0  0  0  0  0
    2.2954   -0.9571   -2.4696 H   0  0  0  0  0  0  0  0  0  0  0  0
    2.2926    0.2662   -0.2974 H   0  0  0  0  0  0  0  0  0  0  0  0
    2.3852   -1.1186    1.7352 H   0  0  0  0  0  0  0  0  0  0  0  0
    1.1594   -2.0421    3.6605 H   0  0  0  0  0  0  0  0  0  0  0  0
   -1.3086   -2.2093    3.5973 H   0  0  0  0  0  0  0  0  0  0  0  0
   -2.5346   -1.4399    1.5904 H   0  0  0  0  0  0  0  0  0  0  0  0
   -1.3034   -0.5173   -0.3318 H   0  0  0  0  0  0  0  0  0  0  0  0
  1  2  1  0
  1  4  1  0
  1  5  1  0
  1  6  1  0
  2  3  1  0
  2  7  1  0
  2  8  1  0
  3  9  1  0
 10 11  1  0
 10 18  1  0
 10 19  1  0
 10 20  1  0
 11 12  2  3
 11 21  1  0
 12 13  1  0
 12 17  1  0
 13 14  1  0
 13 22  1  0
 14 15  2  0
 14 23  1  0
 15 16  1  0
 15 24  1  0
 16 17  2  0
 16 25  1  0
 17 26  1  0
M  RAD  1  13   2
M  END
>  <reaction>  (13) 
rxn_1879

>  <mol_properties>  (13) 
{"1": {"label": "*3", "atom_type": "Cs"}, "2": {"label": "*4", "atom_type": "S2s"}, "6": {"label": "*2", "atom_type": "H0"}, "10": {"label": "*1", "atom_type": "Cs"}, "11": {"label": "*0", "atom_type": "Cd"}}

>  <type>  (13) 
unop_9

>  <geom_source>  (13) 
Heuristics

$$$$

     RDKit          3D

 26 25  0  0  0  0  0  0  0  0999 V2000
   -1.5595    1.7924   -2.3425 C   0  0  0  0  0  0  0  0  0  0  0  0
   -1.5595    1.7924   -0.8239 C   0  0  0  0  0  0  0  0  0  0  0  0
   -1.5595    3.4497   -0.0789 S   0  0  0  0  0  0  0  0  0  0  0  0
   -0.6528    2.2578   -2.7333 H   0  0  0  0  0  0  0  0  0  0  0  0
   -2.4154    2.3436   -2.7326 H   0  0  0  0  0  0  0  0  0  0  0  0
   -1.6025    0.7690   -2.7228 H   0  0  0  0  0  0  0  0  0  0  0  0
   -0.5476    1.1130   -0.3497 H   0  0  0  0  0  0  0  0  0  0  0  0
   -2.4671    1.3253   -0.4387 H   0  0  0  0  0  0  0  0  0  0  0  0
   -0.3847    3.8514   -0.5824 H   0  0  0  0  0  0  0  0  0  0  0  0
    1.7734    1.0592   -0.3622 C   0  0  0  0  0  0  0  0  0  0  0  0
    0.4669    0.4319    0.1256 C   0  0  0  0  0  0  0  0  0  0  0  0
    0.6167   -1.0369    0.4228 C   0  0  0  0  0  0  0  0  0  0  0  0
    1.0072   -1.4727    1.6850 C   0  0  0  0  0  3  0  0  0  0  0  0
    1.1904   -2.8212    1.9493 C   0  0  0  0  0  0  0  0  0  0  0  0
    0.9851   -3.7602    0.9499 C   0  0  0  0  0  0  0  0  0  0  0  0
    0.5948   -3.3396   -0.3124 C   0  0  0  0  0  0  0  0  0  0  0  0
    0.4132   -1.9896   -0.5705 C   0  0  0  0  0  0  0  0  0  0  0  0
    2.1198    0.5709   -1.2749 H   0  0  0  0  0  0  0  0  0  0  0  0
    2.5580    0.9522    0.3892 H   0  0  0  0  0  0  0  0  0  0  0  0
    1.6439    2.1224   -0.5717 H   0  0  0  0  0  0  0  0  0  0  0  0
    0.1275    0.9526    1.0242 H   0  0  0  0  0  0  0  0  0  0  0  0
    1.1667   -0.7445    2.4727 H   0  0  0  0  0  0  0  0  0  0  0  0
    1.4910   -3.1401    2.9397 H   0  0  0  0  0  0  0  0  0  0  0  0
    1.1246   -4.8141    1.1546 H   0  0  0  0  0  0  0  0  0  0  0  0
    0.4276   -4.0655   -1.0985 H   0  0  0  0  0  0  0  0  0  0  0  0
    0.1049   -1.6685   -1.5595 H   0  0  0  0  0  0  0  0  0  0  0  0
  1  2  1  0
  1  4  1  0
  1  5  1  0
  1  6  1  0
  2  3  1  0
  2  7  1  0
  2  8  1  0
  3  9  1  0
 10 11  1  0
 10 18  1  0
 10 19  1  0
 10 20  1  0
 11 12  2  3
 11 21  1  0
 12 13  1  0
 12 17  1  0
 13 14  1  0
 13 22  1  0
 14 15  2  0
 14 23  1  0
 15 16  1  0
 15 24  1  0
 16 17  2  0
 16 25  1  0
 17 26  1  0
M  RAD  1  13   2
M  END
>  <reaction>  (14) 
rxn_1879

>  <mol_properties>  (14) 
{"1": {"label": "*3", "atom_type": "Cs"}, "2": {"label": "*4", "atom_type": "S2s"}, "6": {"label": "*2", "atom_type": "H0"}, "10": {"label": "*1", "atom_type": "Cs"}, "11": {"label": "*0", "atom_type": "Cd"}}

>  <type>  (14) 
unop_10

>  <geom_source>  (14) 
Heuristics

$$$$

     RDKit          3D

 26 25  0  0  0  0  0  0  0  0999 V2000
   -1.8710   -0.6005   -2.4053 C   0  0  0  0  0  0  0  0  0  0  0  0
   -1.8710   -0.6005   -0.8867 C   0  0  0  0  0  0  0  0  0  0  0  0
   -1.8710    1.0568   -0.1417 S   0  0  0  0  0  0  0  0  0  0  0  0
   -0.9644   -0.1351   -2.7961 H   0  0  0  0  0  0  0  0  0  0  0  0
   -2.7270   -0.0493   -2.7954 H   0  0  0  0  0  0  0  0  0  0  0  0
   -1.9141   -1.6239   -2.7856 H   0  0  0  0  0  0  0  0  0  0  0  0
   -0.8591   -1.2799   -0.4125 H   0  0  0  0  0  0  0  0  0  0  0  0
   -2.7786   -1.0676   -0.5015 H   0  0  0  0  0  0  0  0  0  0  0  0
   -0.6962    1.4585   -0.6452 H   0  0  0  0  0  0  0  0  0  0  0  0
   -0.2293   -2.5712    1.4111 C   0  0  0  0  0  0  0  0  0  0  0  0
    0.1554   -1.9609    0.0628 C   0  0  0  0  0  0  0  0  0  0  0  0
    0.8474   -0.6321    0.2160 C   0  0  0  0  0  0  0  0  0  0  0  0
    2.2292   -0.5605    0.3616 C   0  0  0  0  0  3  0  0  0  0  0  0
    2.8649    0.6572    0.5487 C   0  0  0  0  0  0  0  0  0  0  0  0
    2.1246    1.8288    0.5936 C   0  0  0  0  0  0  0  0  0  0  0  0
    0.7467    1.7718    0.4490 C   0  0  0  0  0  0  0  0  0  0  0  0
    0.1169    0.5511    0.2621 C   0  0  0  0  0  0  0  0  0  0  0  0
   -0.9031   -1.9087    1.9575 H   0  0  0  0  0  0  0  0  0  0  0  0
    0.6554   -2.7287    2.0309 H   0  0  0  0  0  0  0  0  0  0  0  0
   -0.7288   -3.5325    1.2784 H   0  0  0  0  0  0  0  0  0  0  0  0
    0.8086   -2.6519   -0.4754 H   0  0  0  0  0  0  0  0  0  0  0  0
    2.8153   -1.4723    0.3245 H   0  0  0  0  0  0  0  0  0  0  0  0
    3.9420    0.6917    0.6562 H   0  0  0  0  0  0  0  0  0  0  0  0
    2.6190    2.7812    0.7367 H   0  0  0  0  0  0  0  0  0  0  0  0
    0.1601    2.6817    0.4781 H   0  0  0  0  0  0  0  0  0  0  0  0
   -0.9609    0.5148    0.1466 H   0  0  0  0  0  0  0  0  0  0  0  0
  1  2  1  0
  1  4  1  0
  1  5  1  0
  1  6  1  0
  2  3  1  0
  2  7  1  0
  2  8  1  0
  3  9  1  0
 10 11  1  0
 10 18  1  0
 10 19  1  0
 10 20  1  0
 11 12  2  3
 11 21  1  0
 12 13  1  0
 12 17  1  0
 13 14  1  0
 13 22  1  0
 14 15  2  0
 14 23  1  0
 15 16  1  0
 15 24  1  0
 16 17  2  0
 16 25  1  0
 17 26  1  0
M  RAD  1  13   2
M  END
>  <reaction>  (15) 
rxn_1879

>  <mol_properties>  (15) 
{"1": {"label": "*3", "atom_type": "Cs"}, "2": {"label": "*4", "atom_type": "S2s"}, "6": {"label": "*2", "atom_type": "H0"}, "10": {"label": "*1", "atom_type": "Cs"}, "11": {"label": "*0", "atom_type": "Cd"}}

>  <type>  (15) 
unop_11

>  <geom_source>  (15) 
Heuristics

$$$$

     RDKit          3D

 26 25  0  0  0  0  0  0  0  0999 V2000
   -0.9165    1.5759   -2.8218 C   0  0  0  0  0  0  0  0  0  0  0  0
   -0.9165    1.5759   -1.3031 C   0  0  0  0  0  0  0  0  0  0  0  0
   -0.9165    3.2333   -0.5581 S   0  0  0  0  0  0  0  0  0  0  0  0
   -0.0098    2.0414   -3.2125 H   0  0  0  0  0  0  0  0  0  0  0  0
   -1.7724    2.1272   -3.2119 H   0  0  0  0  0  0  0  0  0  0  0  0
   -0.9596    0.5526   -3.2020 H   0  0  0  0  0  0  0  0  0  0  0  0
    0.0954    0.8966   -0.8290 H   0  0  0  0  0  0  0  0  0  0  0  0
   -1.8241    1.1089   -0.9180 H   0  0  0  0  0  0  0  0  0  0  0  0
    0.2583    3.6350   -1.0616 H   0  0  0  0  0  0  0  0  0  0  0  0
    1.9373   -0.3399   -1.5134 C   0  0  0  0  0  0  0  0  0  0  0  0
    1.1099    0.2155   -0.3536 C   0  0  0  0  0  0  0  0  0  0  0  0
    0.6023   -0.8723    0.5559 C   0  0  0  0  0  0  0  0  0  0  0  0
    1.3624   -1.3117    1.6352 C   0  0  0  0  0  3  0  0  0  0  0  0
    0.9188   -2.3440    2.4472 C   0  0  0  0  0  0  0  0  0  0  0  0
   -0.2985   -2.9567    2.1910 C   0  0  0  0  0  0  0  0  0  0  0  0
   -1.0665   -2.5280    1.1191 C   0  0  0  0  0  0  0  0  0  0  0  0
   -0.6175   -1.4951    0.3107 C   0  0  0  0  0  0  0  0  0  0  0  0
    1.3425   -1.0263   -2.1190 H   0  0  0  0  0  0  0  0  0  0  0  0
    2.8032   -0.8910   -1.1418 H   0  0  0  0  0  0  0  0  0  0  0  0
    2.2953    0.4632   -2.1599 H   0  0  0  0  0  0  0  0  0  0  0  0
    1.7175    0.9177    0.2223 H   0  0  0  0  0  0  0  0  0  0  0  0
    2.3141   -0.8353    1.8437 H   0  0  0  0  0  0  0  0  0  0  0  0
    1.5238   -2.6687    3.2847 H   0  0  0  0  0  0  0  0  0  0  0  0
   -0.6484   -3.7611    2.8255 H   0  0  0  0  0  0  0  0  0  0  0  0
   -2.0207   -2.9970    0.9134 H   0  0  0  0  0  0  0  0  0  0  0  0
   -1.2252   -1.1632   -0.5240 H   0  0  0  0  0  0  0  0  0  0  0  0
  1  2  1  0
  1  4  1  0
  1  5  1  0
  1  6  1  0
  2  3  1  0
  2  7  1  0
  2  8  1  0
  3  9  1  0
 10 11  1  0
 10 18  1  0
 10 19  1  0
 10 20  1  0
 11 12  2  3
 11 21  1  0
 12 13  1  0
 12 17  1  0
 13 14  1  0
 13 22  1  0
 14 15  2  0
 14 23  1  0
 15 16  1  0
 15 24  1  0
 16 17  2  0
 16 25  1  0
 17 26  1  0
M  RAD  1  13   2
M  END
>  <reaction>  (16) 
rxn_1879

>  <mol_properties>  (16) 
{"1": {"label": "*3", "atom_type": "Cs"}, "2": {"label": "*4", "atom_type": "S2s"}, "6": {"label": "*2", "atom_type": "H0"}, "10": {"label": "*1", "atom_type": "Cs"}, "11": {"label": "*0", "atom_type": "Cd"}}

>  <type>  (16) 
unop_12

>  <geom_source>  (16) 
Heuristics

$$$$

     RDKit          3D

 26 25  0  0  0  0  0  0  0  0999 V2000
   -0.9314   -0.0022    2.4161 S   0  0  0  0  0  0  0  0  0  0  0  0
   -0.1307   -1.0259   -0.6715 C   0  0  0  0  0  0  0  0  0  0  0  0
    0.6794   -2.3106   -0.7964 C   0  0  0  0  0  0  0  0  0  0  0  0
   -3.3268   -0.0623    1.0585 C   0  0  0  0  0  0  0  0  0  0  0  0
    0.7709    0.1774   -0.6833 C   0  0  0  0  0  0  0  0  0  0  0  0
    1.1387    0.7779   -1.8991 C   0  0  0  0  0  0  0  0  0  0  0  0
    1.2941    0.6790    0.5194 C   0  0  0  0  0  0  0  0  0  0  0  0
    2.0009    1.8789   -1.9075 C   0  0  0  0  0  0  0  0  0  0  0  0
    2.5077    2.3809   -0.7055 C   0  0  0  0  0  0  0  0  0  0  0  0
    2.1561    1.7803    0.5066 C   0  0  0  0  0  0  0  0  0  0  0  0
   -1.9964   -0.7897    1.1687 C   0  0  0  0  0  3  0  0  0  0  0  0
   -0.8595   -0.9667   -1.5091 H   0  0  0  0  0  0  0  0  0  0  0  0
   -0.8403   -1.0615    0.4838 H   0  0  0  0  0  0  0  0  0  0  0  0
   -0.0070   -3.1828   -0.7798 H   0  0  0  0  0  0  0  0  0  0  0  0
    1.2459   -2.3192   -1.7522 H   0  0  0  0  0  0  0  0  0  0  0  0
    1.3889   -2.4005    0.0535 H   0  0  0  0  0  0  0  0  0  0  0  0
   -3.8725   -0.1078    2.0247 H   0  0  0  0  0  0  0  0  0  0  0  0
   -3.9448   -0.5437    0.2724 H   0  0  0  0  0  0  0  0  0  0  0  0
   -3.1561    0.9984    0.7788 H   0  0  0  0  0  0  0  0  0  0  0  0
    0.7591    0.3930   -2.8376 H   0  0  0  0  0  0  0  0  0  0  0  0
    2.2786    2.3409   -2.8460 H   0  0  0  0  0  0  0  0  0  0  0  0
    1.0369    0.2174    1.4646 H   0  0  0  0  0  0  0  0  0  0  0  0
    3.1759    3.2323   -0.7137 H   0  0  0  0  0  0  0  0  0  0  0  0
    2.5542    2.1660    1.4363 H   0  0  0  0  0  0  0  0  0  0  0  0
   -2.1613   -1.8556    1.4334 H   0  0  0  0  0  0  0  0  0  0  0  0
   -1.7606   -0.3937    3.4849 H   0  0  0  0  0  0  0  0  0  0  0  0
  1 11  1  0
  1 26  1  0
  2  3  1  0
  2  5  1  0
  2 12  1  0
  2 13  1  0
  3 14  1  0
  3 15  1  0
  3 16  1  0
  4 11  1  0
  4 17  1  0
  4 18  1  0
  4 19  1  0
  5  6  2  0
  5  7  1  0
  6  8  1  0
  6 20  1  0
  7 10  2  0
  7 22  1  0
  8  9  2  0
  8 21  1  0
  9 10  1  0
  9 23  1  0
 10 24  1  0
 11 25  1  0
M  RAD  1  11   2
M  END
>  <reaction>  (17) 
rxn_1879

>  <mol_properties>  (17) 
{"1": {"label": "*3", "atom_type": "Cs"}, "2": {"label": "*4", "atom_type": "S2s"}, "6": {"label": "*2", "atom_type": "H0"}, "10": {"label": "*1", "atom_type": "Cs"}, "11": {"label": "*0", "atom_type": "Cd"}}

>  <type>  (17) 
unop_13

>  <geom_source>  (17) 
AutoTST

$$$$
