
     RDKit          3D

 15 14  0  0  0  0  0  0  0  0999 V2000
    2.1256    0.4849   -0.6284 C   0  0  0  0  0  0  0  0  0  0  0  0
    1.1128    0.2141    0.1794 C   0  0  0  0  0  0  0  0  0  0  0  0
   -0.3017   -0.0425   -0.2513 C   0  0  0  0  0  0  0  0  0  0  0  0
   -1.2427    1.0075    0.3423 C   0  0  0  0  0  0  0  0  0  0  0  0
   -0.7381   -1.4526    0.1504 C   0  0  0  0  0  0  0  0  0  0  0  0
    3.1243    0.6602   -0.2486 H   0  0  0  0  0  0  0  0  0  0  0  0
    1.9908    0.5411   -1.7036 H   0  0  0  0  0  0  0  0  0  0  0  0
    1.2888    0.1665    1.2533 H   0  0  0  0  0  0  0  0  0  0  0  0
   -0.3426    0.0343   -1.3424 H   0  0  0  0  0  0  0  0  0  0  0  0
   -0.9570    2.0133    0.0315 H   0  0  0  0  0  0  0  0  0  0  0  0
   -1.2189    0.9728    1.4350 H   0  0  0  0  0  0  0  0  0  0  0  0
   -2.2723    0.8287    0.0254 H   0  0  0  0  0  0  0  0  0  0  0  0
   -0.6964   -1.5744    1.2363 H   0  0  0  0  0  0  0  0  0  0  0  0
   -0.0911   -2.2079   -0.2978 H   0  0  0  0  0  0  0  0  0  0  0  0
   -1.7646   -1.6461   -0.1677 H   0  0  0  0  0  0  0  0  0  0  0  0
  1  2  2  3
  1  6  1  0
  1  7  1  0
  2  3  1  0
  2  8  1  0
  3  4  1  0
  3  5  1  0
  3  9  1  0
  4 10  1  0
  4 11  1  0
  4 12  1  0
  5 13  1  0
  5 14  1  0
  5 15  1  0
M  END
>  <reaction>  (1) 
rxn_1104

>  <mol_properties>  (1) 
{"2": {"label": "donator", "atom_type": "Cs"}, "8": {"label": "d_hydrogen", "atom_type": "H0"}}

>  <type>  (1) 
r1h

$$$$

     RDKit          3D

  8  7  0  0  0  0  0  0  0  0999 V2000
   -1.0607    0.1793   -0.1423 C   0  0  0  0  0  0  0  0  0  0  0  0
    0.2796    0.0327    0.4820 C   0  0  0  0  0  3  0  0  0  0  0  0
    0.8817   -1.4663    1.0791 S   0  0  0  0  0  0  0  0  0  0  0  0
   -1.3043    1.2328   -0.2850 H   0  0  0  0  0  0  0  0  0  0  0  0
   -1.8444   -0.2641    0.4799 H   0  0  0  0  0  0  0  0  0  0  0  0
   -1.1164   -0.3100   -1.1237 H   0  0  0  0  0  0  0  0  0  0  0  0
    1.0449    0.7826    0.3391 H   0  0  0  0  0  0  0  0  0  0  0  0
   -0.2993   -2.0726    1.2718 H   0  0  0  0  0  0  0  0  0  0  0  0
  1  2  1  0
  1  4  1  0
  1  5  1  0
  1  6  1  0
  2  3  1  0
  2  7  1  0
  3  8  1  0
M  RAD  1   2   2
M  END
>  <reaction>  (2) 
rxn_1104

>  <mol_properties>  (2) 
{"1": {"label": "acceptor", "atom_type": "Cs"}}

>  <type>  (2) 
r2

$$$$

     RDKit          3D

  9  8  0  0  0  0  0  0  0  0999 V2000
   -0.8818   -0.3578    0.1297 C   0  0  0  0  0  0  0  0  0  0  0  0
    0.6153   -0.3021   -0.1188 C   0  0  0  0  0  0  0  0  0  0  0  0
    1.5354   -1.7170    0.5545 S   0  0  0  0  0  0  0  0  0  0  0  0
   -1.1018   -0.3317    1.1984 H   0  0  0  0  0  0  0  0  0  0  0  0
   -1.3114   -1.2723   -0.2799 H   0  0  0  0  0  0  0  0  0  0  0  0
   -1.3767    0.4976   -0.3363 H   0  0  0  0  0  0  0  0  0  0  0  0
    1.0467    0.6194    0.2718 H   0  0  0  0  0  0  0  0  0  0  0  0
    0.8295   -0.3275   -1.1882 H   0  0  0  0  0  0  0  0  0  0  0  0
    1.2306   -1.5077    1.8423 H   0  0  0  0  0  0  0  0  0  0  0  0
  1  2  1  0
  1  4  1  0
  1  5  1  0
  1  6  1  0
  2  3  1  0
  2  7  1  0
  2  8  1  0
  3  9  1  0
M  END
>  <reaction>  (3) 
rxn_1104

>  <mol_properties>  (3) 
{"1": {"label": "acceptor", "atom_type": "Cs"}, "8": {"label": "a_hydrogen", "atom_type": "H0"}}

>  <type>  (3) 
r2h

$$$$

     RDKit          3D

 23 21  0  0  0  0  0  0  0  0999 V2000
   -1.7615    1.2828   -1.0066 C   0  0  0  0  0  0  0  0  0  0  0  0
   -0.4454    1.4153   -0.2926 C   0  0  0  0  0  3  0  0  0  0  0  0
    1.0243    1.5235   -1.2704 S   0  0  0  0  0  0  0  0  0  0  0  0
   -2.5772    1.1970   -0.2854 H   0  0  0  0  0  0  0  0  0  0  0  0
   -1.7699    0.3878   -1.6341 H   0  0  0  0  0  0  0  0  0  0  0  0
   -1.9624    2.1427   -1.6515 H   0  0  0  0  0  0  0  0  0  0  0  0
   -0.4109    2.1782    0.4823 H   0  0  0  0  0  0  0  0  0  0  0  0
    0.8100    0.4131   -1.9930 H   0  0  0  0  0  0  0  0  0  0  0  0
    0.6618   -2.4842   -0.7656 C   0  0  0  0  0  0  0  0  0  0  0  0
   -0.3491   -1.8973   -0.1218 C   0  0  0  0  0  0  0  0  0  0  0  0
   -0.2526   -0.9530    0.9996 C   0  0  0  0  0  0  0  0  0  0  0  0
    1.0882   -0.8557    1.6910 C   0  0  0  0  0  0  0  0  0  0  0  0
   -1.4367   -0.9832    1.9448 C   0  0  0  0  0  0  0  0  0  0  0  0
    0.4795   -3.1408   -1.6065 H   0  0  0  0  0  0  0  0  0  0  0  0
    1.6940   -2.3414   -0.4703 H   0  0  0  0  0  0  0  0  0  0  0  0
   -1.3600   -2.0969   -0.4718 H   0  0  0  0  0  0  0  0  0  0  0  0
   -0.3494    0.1948    0.4184 H   0  0  0  0  0  0  0  0  0  0  0  0
    1.8822   -0.5924    0.9904 H   0  0  0  0  0  0  0  0  0  0  0  0
    1.3550   -1.8045    2.1674 H   0  0  0  0  0  0  0  0  0  0  0  0
    1.0628   -0.0859    2.4644 H   0  0  0  0  0  0  0  0  0  0  0  0
   -1.4100   -1.8735    2.5815 H   0  0  0  0  0  0  0  0  0  0  0  0
   -2.3820   -0.9952    1.3981 H   0  0  0  0  0  0  0  0  0  0  0  0
   -1.4350   -0.1092    2.5998 H   0  0  0  0  0  0  0  0  0  0  0  0
  1  2  1  0
  1  4  1  0
  1  5  1  0
  1  6  1  0
  2  3  1  0
  2  7  1  0
  3  8  1  0
  9 10  2  3
  9 14  1  0
  9 15  1  0
 10 11  1  0
 10 16  1  0
 11 12  1  0
 11 13  1  0
 11 17  1  0
 12 18  1  0
 12 19  1  0
 12 20  1  0
 13 21  1  0
 13 22  1  0
 13 23  1  0
M  RAD  1   2   2
M  END
>  <reaction>  (4) 
rxn_1104

>  <mol_properties>  (4) 
{"1": {"label": "*3", "atom_type": "Cs"}, "2": {"label": "*4", "atom_type": "S2s"}, "9": {"label": "*0", "atom_type": "Cd"}, "10": {"label": "*1", "atom_type": "Cs"}, "16": {"label": "*2", "atom_type": "H0"}}

>  <type>  (4) 
ts

$$$$

     RDKit          3D

 23 21  0  0  0  0  0  0  0  0999 V2000
   -1.2945    2.0386   -0.1054 C   0  0  0  0  0  0  0  0  0  0  0  0
   -0.0688    1.1753   -0.3475 C   0  0  0  0  0  0  0  0  0  0  0  0
    0.7998    1.5340   -1.9027 S   0  0  0  0  0  0  0  0  0  0  0  0
   -1.7421    1.8008    0.8625 H   0  0  0  0  0  0  0  0  0  0  0  0
   -2.0498    1.8695   -0.8751 H   0  0  0  0  0  0  0  0  0  0  0  0
   -1.0343    3.0973   -0.1165 H   0  0  0  0  0  0  0  0  0  0  0  0
    0.6822    1.3475    0.4249 H   0  0  0  0  0  0  0  0  0  0  0  0
   -0.2091    1.2182   -2.7258 H   0  0  0  0  0  0  0  0  0  0  0  0
   -0.0688   -2.1544   -0.9855 C   0  0  0  0  0  0  0  0  0  0  0  0
   -0.0688   -2.1544    0.3380 C   0  0  0  0  0  0  0  0  0  0  0  0
   -0.0688   -0.9330    1.2100 C   0  0  0  0  0  3  0  0  0  0  0  0
    1.1905   -0.8926    2.0777 C   0  0  0  0  0  0  0  0  0  0  0  0
   -1.3281   -0.8926    2.0777 C   0  0  0  0  0  0  0  0  0  0  0  0
   -0.0688   -3.0761   -1.5538 H   0  0  0  0  0  0  0  0  0  0  0  0
   -0.0688   -1.2278   -1.5501 H   0  0  0  0  0  0  0  0  0  0  0  0
   -0.0688   -3.1057    0.8686 H   0  0  0  0  0  0  0  0  0  0  0  0
   -0.0688    0.1234    0.4296 H   0  0  0  0  0  0  0  0  0  0  0  0
    2.0920   -0.8867    1.4635 H   0  0  0  0  0  0  0  0  0  0  0  0
    1.2351   -1.7664    2.7335 H   0  0  0  0  0  0  0  0  0  0  0  0
    1.1980   -0.0014    2.7087 H   0  0  0  0  0  0  0  0  0  0  0  0
   -1.3727   -1.7664    2.7335 H   0  0  0  0  0  0  0  0  0  0  0  0
   -2.2297   -0.8867    1.4635 H   0  0  0  0  0  0  0  0  0  0  0  0
   -1.3357   -0.0014    2.7087 H   0  0  0  0  0  0  0  0  0  0  0  0
  1  2  1  0
  1  4  1  0
  1  5  1  0
  1  6  1  0
  2  3  1  0
  2  7  1  0
  2 17  1  0
  3  8  1  0
  9 10  2  3
  9 14  1  0
  9 15  1  0
 10 11  1  0
 10 16  1  0
 11 12  1  0
 11 13  1  0
 12 18  1  0
 12 19  1  0
 12 20  1  0
 13 21  1  0
 13 22  1  0
 13 23  1  0
M  RAD  1  11   2
M  END
>  <reaction>  (5) 
rxn_1104

>  <mol_properties>  (5) 
{"1": {"label": "*3", "atom_type": "Cs"}, "2": {"label": "*4", "atom_type": "S2s"}, "9": {"label": "*0", "atom_type": "Cd"}, "10": {"label": "*1", "atom_type": "Cs"}, "16": {"label": "*2", "atom_type": "H0"}}

>  <type>  (5) 
unop_1

>  <geom_source>  (5) 
Heuristics

$$$$

     RDKit          3D

 23 21  0  0  0  0  0  0  0  0999 V2000
   -0.9923    0.8532   -1.8238 C   0  0  0  0  0  0  0  0  0  0  0  0
   -0.2846    1.1387   -0.5107 C   0  0  0  0  0  0  0  0  0  0  0  0
    1.1839    2.1969   -0.6706 S   0  0  0  0  0  0  0  0  0  0  0  0
   -1.8864    0.2498   -1.6505 H   0  0  0  0  0  0  0  0  0  0  0  0
   -0.3425    0.3023   -2.5061 H   0  0  0  0  0  0  0  0  0  0  0  0
   -1.2891    1.7795   -2.3163 H   0  0  0  0  0  0  0  0  0  0  0  0
   -0.9386    1.6885    0.1677 H   0  0  0  0  0  0  0  0  0  0  0  0
    1.8909    1.3719   -1.4547 H   0  0  0  0  0  0  0  0  0  0  0  0
   -0.2846   -2.1909   -1.1487 C   0  0  0  0  0  0  0  0  0  0  0  0
   -0.2846   -2.1909    0.1748 C   0  0  0  0  0  0  0  0  0  0  0  0
   -0.2846   -0.9695    1.0468 C   0  0  0  0  0  3  0  0  0  0  0  0
    0.9747   -0.9291    1.9145 C   0  0  0  0  0  0  0  0  0  0  0  0
   -1.5439   -0.9291    1.9145 C   0  0  0  0  0  0  0  0  0  0  0  0
   -0.2846   -3.1126   -1.7170 H   0  0  0  0  0  0  0  0  0  0  0  0
   -0.2846   -1.2644   -1.7133 H   0  0  0  0  0  0  0  0  0  0  0  0
   -0.2846   -3.1422    0.7053 H   0  0  0  0  0  0  0  0  0  0  0  0
   -0.2846    0.0869    0.2664 H   0  0  0  0  0  0  0  0  0  0  0  0
    1.8763   -0.9232    1.3003 H   0  0  0  0  0  0  0  0  0  0  0  0
    1.0193   -1.8029    2.5703 H   0  0  0  0  0  0  0  0  0  0  0  0
    0.9822   -0.0379    2.5454 H   0  0  0  0  0  0  0  0  0  0  0  0
   -1.5885   -1.8029    2.5702 H   0  0  0  0  0  0  0  0  0  0  0  0
   -2.4455   -0.9232    1.3003 H   0  0  0  0  0  0  0  0  0  0  0  0
   -1.5514   -0.0379    2.5454 H   0  0  0  0  0  0  0  0  0  0  0  0
  1  2  1  0
  1  4  1  0
  1  5  1  0
  1  6  1  0
  2  3  1  0
  2  7  1  0
  2 17  1  0
  3  8  1  0
  9 10  2  3
  9 14  1  0
  9 15  1  0
 10 11  1  0
 10 16  1  0
 11 12  1  0
 11 13  1  0
 12 18  1  0
 12 19  1  0
 12 20  1  0
 13 21  1  0
 13 22  1  0
 13 23  1  0
M  RAD  1  11   2
M  END
>  <reaction>  (6) 
rxn_1104

>  <mol_properties>  (6) 
{"1": {"label": "*3", "atom_type": "Cs"}, "2": {"label": "*4", "atom_type": "S2s"}, "9": {"label": "*0", "atom_type": "Cd"}, "10": {"label": "*1", "atom_type": "Cs"}, "16": {"label": "*2", "atom_type": "H0"}}

>  <type>  (6) 
unop_2

>  <geom_source>  (6) 
Heuristics

$$$$

     RDKit          3D

 23 21  0  0  0  0  0  0  0  0999 V2000
   -0.6098    2.3914    0.3254 C   0  0  0  0  0  0  0  0  0  0  0  0
    0.0979    1.2202   -0.3333 C   0  0  0  0  0  0  0  0  0  0  0  0
    0.0561    1.2506   -2.1496 S   0  0  0  0  0  0  0  0  0  0  0  0
   -0.5102    2.3336    1.4119 H   0  0  0  0  0  0  0  0  0  0  0  0
   -1.6746    2.3897    0.0855 H   0  0  0  0  0  0  0  0  0  0  0  0
   -0.1907    3.3399   -0.0113 H   0  0  0  0  0  0  0  0  0  0  0  0
    1.1612    1.2262   -0.0894 H   0  0  0  0  0  0  0  0  0  0  0  0
   -1.2750    1.1727   -2.2803 H   0  0  0  0  0  0  0  0  0  0  0  0
    0.0979   -2.1094   -0.9713 C   0  0  0  0  0  0  0  0  0  0  0  0
    0.0979   -2.1094    0.3522 C   0  0  0  0  0  0  0  0  0  0  0  0
    0.0979   -0.8880    1.2243 C   0  0  0  0  0  3  0  0  0  0  0  0
    1.3572   -0.8476    2.0919 C   0  0  0  0  0  0  0  0  0  0  0  0
   -1.1615   -0.8476    2.0919 C   0  0  0  0  0  0  0  0  0  0  0  0
    0.0979   -3.0311   -1.5395 H   0  0  0  0  0  0  0  0  0  0  0  0
    0.0979   -1.1829   -1.5358 H   0  0  0  0  0  0  0  0  0  0  0  0
    0.0979   -3.0607    0.8828 H   0  0  0  0  0  0  0  0  0  0  0  0
    0.0979    0.1684    0.4438 H   0  0  0  0  0  0  0  0  0  0  0  0
    2.2587   -0.8417    1.4777 H   0  0  0  0  0  0  0  0  0  0  0  0
    1.4017   -1.7214    2.7477 H   0  0  0  0  0  0  0  0  0  0  0  0
    1.3647    0.0436    2.7229 H   0  0  0  0  0  0  0  0  0  0  0  0
   -1.2060   -1.7214    2.7477 H   0  0  0  0  0  0  0  0  0  0  0  0
   -2.0630   -0.8417    1.4777 H   0  0  0  0  0  0  0  0  0  0  0  0
   -1.1690    0.0436    2.7229 H   0  0  0  0  0  0  0  0  0  0  0  0
  1  2  1  0
  1  4  1  0
  1  5  1  0
  1  6  1  0
  2  3  1  0
  2  7  1  0
  2 17  1  0
  3  8  1  0
  9 10  2  3
  9 14  1  0
  9 15  1  0
 10 11  1  0
 10 16  1  0
 11 12  1  0
 11 13  1  0
 12 18  1  0
 12 19  1  0
 12 20  1  0
 13 21  1  0
 13 22  1  0
 13 23  1  0
M  RAD  1  11   2
M  END
>  <reaction>  (7) 
rxn_1104

>  <mol_properties>  (7) 
{"1": {"label": "*3", "atom_type": "Cs"}, "2": {"label": "*4", "atom_type": "S2s"}, "9": {"label": "*0", "atom_type": "Cd"}, "10": {"label": "*1", "atom_type": "Cs"}, "16": {"label": "*2", "atom_type": "H0"}}

>  <type>  (7) 
unop_3

>  <geom_source>  (7) 
Heuristics

$$$$

     RDKit          3D

 23 21  0  0  0  0  0  0  0  0999 V2000
    1.0247    1.1651   -1.8928 C   0  0  0  0  0  0  0  0  0  0  0  0
   -0.2010    1.1427   -0.9965 C   0  0  0  0  0  0  0  0  0  0  0  0
    0.0064    2.0370    0.5717 S   0  0  0  0  0  0  0  0  0  0  0  0
    0.8180    0.6478   -2.8327 H   0  0  0  0  0  0  0  0  0  0  0  0
    1.8685    0.6657   -1.4134 H   0  0  0  0  0  0  0  0  0  0  0  0
    1.3240    2.1888   -2.1190 H   0  0  0  0  0  0  0  0  0  0  0  0
   -1.0415    1.6421   -1.4807 H   0  0  0  0  0  0  0  0  0  0  0  0
    0.9993    1.2799    1.0574 H   0  0  0  0  0  0  0  0  0  0  0  0
   -0.2010   -2.1869   -1.6345 C   0  0  0  0  0  0  0  0  0  0  0  0
   -0.2010   -2.1869   -0.3110 C   0  0  0  0  0  0  0  0  0  0  0  0
   -0.2010   -0.9655    0.5610 C   0  0  0  0  0  3  0  0  0  0  0  0
    1.0583   -0.9251    1.4287 C   0  0  0  0  0  0  0  0  0  0  0  0
   -1.4603   -0.9251    1.4287 C   0  0  0  0  0  0  0  0  0  0  0  0
   -0.2010   -3.1086   -2.2028 H   0  0  0  0  0  0  0  0  0  0  0  0
   -0.2010   -1.2604   -2.1991 H   0  0  0  0  0  0  0  0  0  0  0  0
   -0.2010   -3.1382    0.2195 H   0  0  0  0  0  0  0  0  0  0  0  0
   -0.2010    0.0909   -0.2194 H   0  0  0  0  0  0  0  0  0  0  0  0
    1.9598   -0.9192    0.8145 H   0  0  0  0  0  0  0  0  0  0  0  0
    1.1029   -1.7989    2.0845 H   0  0  0  0  0  0  0  0  0  0  0  0
    1.0658   -0.0339    2.0597 H   0  0  0  0  0  0  0  0  0  0  0  0
   -1.5049   -1.7989    2.0845 H   0  0  0  0  0  0  0  0  0  0  0  0
   -2.3619   -0.9192    0.8145 H   0  0  0  0  0  0  0  0  0  0  0  0
   -1.4679   -0.0339    2.0597 H   0  0  0  0  0  0  0  0  0  0  0  0
  1  2  1  0
  1  4  1  0
  1  5  1  0
  1  6  1  0
  2  3  1  0
  2  7  1  0
  2 17  1  0
  3  8  1  0
  9 10  2  3
  9 14  1  0
  9 15  1  0
 10 11  1  0
 10 16  1  0
 11 12  1  0
 11 13  1  0
 12 18  1  0
 12 19  1  0
 12 20  1  0
 13 21  1  0
 13 22  1  0
 13 23  1  0
M  RAD  1  11   2
M  END
>  <reaction>  (8) 
rxn_1104

>  <mol_properties>  (8) 
{"1": {"label": "*3", "atom_type": "Cs"}, "2": {"label": "*4", "atom_type": "S2s"}, "9": {"label": "*0", "atom_type": "Cd"}, "10": {"label": "*1", "atom_type": "Cs"}, "16": {"label": "*2", "atom_type": "H0"}}

>  <type>  (8) 
unop_4

>  <geom_source>  (8) 
Heuristics

$$$$

     RDKit          3D

 23 21  0  0  0  0  0  0  0  0999 V2000
    0.3469    2.5321    0.2979 C   0  0  0  0  0  0  0  0  0  0  0  0
    0.3469    1.2483   -0.5133 C   0  0  0  0  0  0  0  0  0  0  0  0
   -1.0291    1.1120   -1.6922 S   0  0  0  0  0  0  0  0  0  0  0  0
    1.2206    2.5680    0.9530 H   0  0  0  0  0  0  0  0  0  0  0  0
   -0.5449    2.5990    0.9237 H   0  0  0  0  0  0  0  0  0  0  0  0
    0.3664    3.4057   -0.3542 H   0  0  0  0  0  0  0  0  0  0  0  0
    1.2406    1.1862   -1.1360 H   0  0  0  0  0  0  0  0  0  0  0  0
   -2.0174    1.1362   -0.7880 H   0  0  0  0  0  0  0  0  0  0  0  0
    0.3469   -2.0813   -1.1513 C   0  0  0  0  0  0  0  0  0  0  0  0
    0.3469   -2.0813    0.1722 C   0  0  0  0  0  0  0  0  0  0  0  0
    0.3469   -0.8600    1.0442 C   0  0  0  0  0  3  0  0  0  0  0  0
    1.6062   -0.8195    1.9119 C   0  0  0  0  0  0  0  0  0  0  0  0
   -0.9124   -0.8195    1.9119 C   0  0  0  0  0  0  0  0  0  0  0  0
    0.3469   -3.0031   -1.7196 H   0  0  0  0  0  0  0  0  0  0  0  0
    0.3469   -1.1548   -1.7159 H   0  0  0  0  0  0  0  0  0  0  0  0
    0.3469   -3.0326    0.7027 H   0  0  0  0  0  0  0  0  0  0  0  0
    0.3469    0.1964    0.2638 H   0  0  0  0  0  0  0  0  0  0  0  0
    2.5078   -0.8136    1.2977 H   0  0  0  0  0  0  0  0  0  0  0  0
    1.6508   -1.6934    2.5677 H   0  0  0  0  0  0  0  0  0  0  0  0
    1.6137    0.0717    2.5428 H   0  0  0  0  0  0  0  0  0  0  0  0
   -0.9570   -1.6934    2.5677 H   0  0  0  0  0  0  0  0  0  0  0  0
   -1.8140   -0.8136    1.2977 H   0  0  0  0  0  0  0  0  0  0  0  0
   -0.9199    0.0717    2.5428 H   0  0  0  0  0  0  0  0  0  0  0  0
  1  2  1  0
  1  4  1  0
  1  5  1  0
  1  6  1  0
  2  3  1  0
  2  7  1  0
  2 17  1  0
  3  8  1  0
  9 10  2  3
  9 14  1  0
  9 15  1  0
 10 11  1  0
 10 16  1  0
 11 12  1  0
 11 13  1  0
 12 18  1  0
 12 19  1  0
 12 20  1  0
 13 21  1  0
 13 22  1  0
 13 23  1  0
M  RAD  1  11   2
M  END
>  <reaction>  (9) 
rxn_1104

>  <mol_properties>  (9) 
{"1": {"label": "*3", "atom_type": "Cs"}, "2": {"label": "*4", "atom_type": "S2s"}, "9": {"label": "*0", "atom_type": "Cd"}, "10": {"label": "*1", "atom_type": "Cs"}, "16": {"label": "*2", "atom_type": "H0"}}

>  <type>  (9) 
unop_5

>  <geom_source>  (9) 
Heuristics

$$$$

     RDKit          3D

 23 21  0  0  0  0  0  0  0  0999 V2000
    1.4034    1.5975   -1.3943 C   0  0  0  0  0  0  0  0  0  0  0  0
   -0.0119    1.1547   -1.0672 C   0  0  0  0  0  0  0  0  0  0  0  0
   -0.6487    1.7988    0.5081 S   0  0  0  0  0  0  0  0  0  0  0  0
    1.7068    1.2111   -2.3703 H   0  0  0  0  0  0  0  0  0  0  0  0
    2.1109    1.2253   -0.6512 H   0  0  0  0  0  0  0  0  0  0  0  0
    1.4772    2.6851   -1.4138 H   0  0  0  0  0  0  0  0  0  0  0  0
   -0.7146    1.5285   -1.8133 H   0  0  0  0  0  0  0  0  0  0  0  0
    0.2585    1.2110    1.2997 H   0  0  0  0  0  0  0  0  0  0  0  0
   -0.0119   -2.1750   -1.7052 C   0  0  0  0  0  0  0  0  0  0  0  0
   -0.0119   -2.1750   -0.3817 C   0  0  0  0  0  0  0  0  0  0  0  0
   -0.0119   -0.9536    0.4903 C   0  0  0  0  0  3  0  0  0  0  0  0
    1.2474   -0.9132    1.3580 C   0  0  0  0  0  0  0  0  0  0  0  0
   -1.2712   -0.9132    1.3580 C   0  0  0  0  0  0  0  0  0  0  0  0
   -0.0119   -3.0967   -2.2735 H   0  0  0  0  0  0  0  0  0  0  0  0
   -0.0119   -1.2484   -2.2698 H   0  0  0  0  0  0  0  0  0  0  0  0
   -0.0119   -3.1263    0.1489 H   0  0  0  0  0  0  0  0  0  0  0  0
   -0.0119    0.1028   -0.2901 H   0  0  0  0  0  0  0  0  0  0  0  0
    2.1489   -0.9073    0.7438 H   0  0  0  0  0  0  0  0  0  0  0  0
    1.2920   -1.7870    2.0138 H   0  0  0  0  0  0  0  0  0  0  0  0
    1.2549   -0.0220    1.9890 H   0  0  0  0  0  0  0  0  0  0  0  0
   -1.3158   -1.7870    2.0138 H   0  0  0  0  0  0  0  0  0  0  0  0
   -2.1728   -0.9073    0.7438 H   0  0  0  0  0  0  0  0  0  0  0  0
   -1.2788   -0.0220    1.9890 H   0  0  0  0  0  0  0  0  0  0  0  0
  1  2  1  0
  1  4  1  0
  1  5  1  0
  1  6  1  0
  2  3  1  0
  2  7  1  0
  2 17  1  0
  3  8  1  0
  9 10  2  3
  9 14  1  0
  9 15  1  0
 10 11  1  0
 10 16  1  0
 11 12  1  0
 11 13  1  0
 12 18  1  0
 12 19  1  0
 12 20  1  0
 13 21  1  0
 13 22  1  0
 13 23  1  0
M  RAD  1  11   2
M  END
>  <reaction>  (10) 
rxn_1104

>  <mol_properties>  (10) 
{"1": {"label": "*3", "atom_type": "Cs"}, "2": {"label": "*4", "atom_type": "S2s"}, "9": {"label": "*0", "atom_type": "Cd"}, "10": {"label": "*1", "atom_type": "Cs"}, "16": {"label": "*2", "atom_type": "H0"}}

>  <type>  (10) 
unop_6

>  <geom_source>  (10) 
Heuristics

$$$$

     RDKit          3D

 23 21  0  0  0  0  0  0  0  0999 V2000
    1.4213    2.0499   -0.7875 C   0  0  0  0  0  0  0  0  0  0  0  0
    0.1955    1.1865   -1.0295 C   0  0  0  0  0  0  0  0  0  0  0  0
   -1.1757    1.5005    0.1207 S   0  0  0  0  0  0  0  0  0  0  0  0
    2.1880    1.8405   -1.5372 H   0  0  0  0  0  0  0  0  0  0  0  0
    1.8507    1.8518    0.1962 H   0  0  0  0  0  0  0  0  0  0  0  0
    1.1682    3.1092   -0.8368 H   0  0  0  0  0  0  0  0  0  0  0  0
   -0.2290    1.3878   -2.0141 H   0  0  0  0  0  0  0  0  0  0  0  0
   -0.5279    1.1525    1.2406 H   0  0  0  0  0  0  0  0  0  0  0  0
    0.1955   -2.1431   -1.6675 C   0  0  0  0  0  0  0  0  0  0  0  0
    0.1955   -2.1431   -0.3440 C   0  0  0  0  0  0  0  0  0  0  0  0
    0.1955   -0.9217    0.5280 C   0  0  0  0  0  3  0  0  0  0  0  0
    1.4549   -0.8813    1.3957 C   0  0  0  0  0  0  0  0  0  0  0  0
   -1.0638   -0.8813    1.3957 C   0  0  0  0  0  0  0  0  0  0  0  0
    0.1955   -3.0648   -2.2358 H   0  0  0  0  0  0  0  0  0  0  0  0
    0.1955   -1.2165   -2.2321 H   0  0  0  0  0  0  0  0  0  0  0  0
    0.1955   -3.0944    0.1865 H   0  0  0  0  0  0  0  0  0  0  0  0
    0.1955    0.1347   -0.2524 H   0  0  0  0  0  0  0  0  0  0  0  0
    2.3564   -0.8754    0.7815 H   0  0  0  0  0  0  0  0  0  0  0  0
    1.4994   -1.7551    2.0515 H   0  0  0  0  0  0  0  0  0  0  0  0
    1.4624    0.0099    2.0267 H   0  0  0  0  0  0  0  0  0  0  0  0
   -1.1083   -1.7551    2.0515 H   0  0  0  0  0  0  0  0  0  0  0  0
   -1.9653   -0.8754    0.7815 H   0  0  0  0  0  0  0  0  0  0  0  0
   -1.0713    0.0099    2.0267 H   0  0  0  0  0  0  0  0  0  0  0  0
  1  2  1  0
  1  4  1  0
  1  5  1  0
  1  6  1  0
  2  3  1  0
  2  7  1  0
  2 17  1  0
  3  8  1  0
  9 10  2  3
  9 14  1  0
  9 15  1  0
 10 11  1  0
 10 16  1  0
 11 12  1  0
 11 13  1  0
 12 18  1  0
 12 19  1  0
 12 20  1  0
 13 21  1  0
 13 22  1  0
 13 23  1  0
M  RAD  1  11   2
M  END
>  <reaction>  (11) 
rxn_1104

>  <mol_properties>  (11) 
{"1": {"label": "*3", "atom_type": "Cs"}, "2": {"label": "*4", "atom_type": "S2s"}, "9": {"label": "*0", "atom_type": "Cd"}, "10": {"label": "*1", "atom_type": "Cs"}, "16": {"label": "*2", "atom_type": "H0"}}

>  <type>  (11) 
unop_7

>  <geom_source>  (11) 
Heuristics

$$$$

     RDKit          3D

 23 21  0  0  0  0  0  0  0  0999 V2000
   -1.5630    1.5863   -0.7192 C   0  0  0  0  0  0  0  0  0  0  0  0
   -0.1476    1.1435   -0.3921 C   0  0  0  0  0  0  0  0  0  0  0  0
    1.1220    1.8319   -1.4947 S   0  0  0  0  0  0  0  0  0  0  0  0
   -2.2682    1.1718    0.0051 H   0  0  0  0  0  0  0  0  0  0  0  0
   -1.8603    1.2428   -1.7116 H   0  0  0  0  0  0  0  0  0  0  0  0
   -1.6457    2.6733   -0.7008 H   0  0  0  0  0  0  0  0  0  0  0  0
    0.1440    1.4885    0.6010 H   0  0  0  0  0  0  0  0  0  0  0  0
    0.6694    1.2759   -2.6266 H   0  0  0  0  0  0  0  0  0  0  0  0
   -0.1476   -2.1861   -1.0301 C   0  0  0  0  0  0  0  0  0  0  0  0
   -0.1476   -2.1861    0.2934 C   0  0  0  0  0  0  0  0  0  0  0  0
   -0.1476   -0.9648    1.1655 C   0  0  0  0  0  3  0  0  0  0  0  0
    1.1117   -0.9243    2.0331 C   0  0  0  0  0  0  0  0  0  0  0  0
   -1.4069   -0.9243    2.0331 C   0  0  0  0  0  0  0  0  0  0  0  0
   -0.1476   -3.1079   -1.5983 H   0  0  0  0  0  0  0  0  0  0  0  0
   -0.1476   -1.2596   -1.5946 H   0  0  0  0  0  0  0  0  0  0  0  0
   -0.1476   -3.1375    0.8240 H   0  0  0  0  0  0  0  0  0  0  0  0
   -0.1476    0.0916    0.3850 H   0  0  0  0  0  0  0  0  0  0  0  0
    2.0132   -0.9184    1.4190 H   0  0  0  0  0  0  0  0  0  0  0  0
    1.1562   -1.7982    2.6889 H   0  0  0  0  0  0  0  0  0  0  0  0
    1.1192   -0.0331    2.6641 H   0  0  0  0  0  0  0  0  0  0  0  0
   -1.4515   -1.7982    2.6889 H   0  0  0  0  0  0  0  0  0  0  0  0
   -2.3085   -0.9184    1.4190 H   0  0  0  0  0  0  0  0  0  0  0  0
   -1.4145   -0.0331    2.6641 H   0  0  0  0  0  0  0  0  0  0  0  0
  1  2  1  0
  1  4  1  0
  1  5  1  0
  1  6  1  0
  2  3  1  0
  2  7  1  0
  2 17  1  0
  3  8  1  0
  9 10  2  3
  9 14  1  0
  9 15  1  0
 10 11  1  0
 10 16  1  0
 11 12  1  0
 11 13  1  0
 12 18  1  0
 12 19  1  0
 12 20  1  0
 13 21  1  0
 13 22  1  0
 13 23  1  0
M  RAD  1  11   2
M  END
>  <reaction>  (12) 
rxn_1104

>  <mol_properties>  (12) 
{"1": {"label": "*3", "atom_type": "Cs"}, "2": {"label": "*4", "atom_type": "S2s"}, "9": {"label": "*0", "atom_type": "Cd"}, "10": {"label": "*1", "atom_type": "Cs"}, "16": {"label": "*2", "atom_type": "H0"}}

>  <type>  (12) 
unop_8

>  <geom_source>  (12) 
Heuristics

$$$$

     RDKit          3D

 23 21  0  0  0  0  0  0  0  0999 V2000
    0.3820    0.8587   -2.1538 C   0  0  0  0  0  0  0  0  0  0  0  0
   -0.3256    1.1442   -0.8408 C   0  0  0  0  0  0  0  0  0  0  0  0
    0.6264    2.1807    0.3086 S   0  0  0  0  0  0  0  0  0  0  0  0
   -0.2606    0.2690   -2.8118 H   0  0  0  0  0  0  0  0  0  0  0  0
    1.3010    0.2937   -1.9877 H   0  0  0  0  0  0  0  0  0  0  0  0
    0.6447    1.7852   -2.6649 H   0  0  0  0  0  0  0  0  0  0  0  0
   -1.2436    1.7080   -1.0127 H   0  0  0  0  0  0  0  0  0  0  0  0
    1.6580    1.3402    0.4649 H   0  0  0  0  0  0  0  0  0  0  0  0
   -0.3256   -2.1855   -1.4788 C   0  0  0  0  0  0  0  0  0  0  0  0
   -0.3256   -2.1855   -0.1553 C   0  0  0  0  0  0  0  0  0  0  0  0
   -0.3256   -0.9641    0.7167 C   0  0  0  0  0  3  0  0  0  0  0  0
    0.9337   -0.9236    1.5844 C   0  0  0  0  0  0  0  0  0  0  0  0
   -1.5849   -0.9236    1.5844 C   0  0  0  0  0  0  0  0  0  0  0  0
   -0.3256   -3.1072   -2.0471 H   0  0  0  0  0  0  0  0  0  0  0  0
   -0.3256   -1.2589   -2.0434 H   0  0  0  0  0  0  0  0  0  0  0  0
   -0.3256   -3.1368    0.3752 H   0  0  0  0  0  0  0  0  0  0  0  0
   -0.3256    0.0923   -0.0637 H   0  0  0  0  0  0  0  0  0  0  0  0
    1.8352   -0.9177    0.9702 H   0  0  0  0  0  0  0  0  0  0  0  0
    0.9783   -1.7975    2.2402 H   0  0  0  0  0  0  0  0  0  0  0  0
    0.9412   -0.0324    2.2154 H   0  0  0  0  0  0  0  0  0  0  0  0
   -1.6295   -1.7975    2.2402 H   0  0  0  0  0  0  0  0  0  0  0  0
   -2.4865   -0.9177    0.9702 H   0  0  0  0  0  0  0  0  0  0  0  0
   -1.5925   -0.0324    2.2154 H   0  0  0  0  0  0  0  0  0  0  0  0
  1  2  1  0
  1  4  1  0
  1  5  1  0
  1  6  1  0
  2  3  1  0
  2  7  1  0
  2 17  1  0
  3  8  1  0
  9 10  2  3
  9 14  1  0
  9 15  1  0
 10 11  1  0
 10 16  1  0
 11 12  1  0
 11 13  1  0
 12 18  1  0
 12 19  1  0
 12 20  1  0
 13 21  1  0
 13 22  1  0
 13 23  1  0
M  RAD  1  11   2
M  END
>  <reaction>  (13) 
rxn_1104

>  <mol_properties>  (13) 
{"1": {"label": "*3", "atom_type": "Cs"}, "2": {"label": "*4", "atom_type": "S2s"}, "9": {"label": "*0", "atom_type": "Cd"}, "10": {"label": "*1", "atom_type": "Cs"}, "16": {"label": "*2", "atom_type": "H0"}}

>  <type>  (13) 
unop_9

>  <geom_source>  (13) 
Heuristics

$$$$

     RDKit          3D

 23 21  0  0  0  0  0  0  0  0999 V2000
   -1.4343    1.1558   -1.3329 C   0  0  0  0  0  0  0  0  0  0  0  0
   -0.2086    1.1335   -0.4366 C   0  0  0  0  0  0  0  0  0  0  0  0
    1.2088    2.0645   -1.0893 S   0  0  0  0  0  0  0  0  0  0  0  0
   -2.2592    0.6152   -0.8627 H   0  0  0  0  0  0  0  0  0  0  0  0
   -1.2252    0.6803   -2.2928 H   0  0  0  0  0  0  0  0  0  0  0  0
   -1.7566    2.1790   -1.5276 H   0  0  0  0  0  0  0  0  0  0  0  0
   -0.4234    1.6090    0.5215 H   0  0  0  0  0  0  0  0  0  0  0  0
    1.3829    1.3337   -2.1987 H   0  0  0  0  0  0  0  0  0  0  0  0
   -0.2086   -2.1962   -1.0746 C   0  0  0  0  0  0  0  0  0  0  0  0
   -0.2086   -2.1962    0.2489 C   0  0  0  0  0  0  0  0  0  0  0  0
   -0.2086   -0.9748    1.1209 C   0  0  0  0  0  3  0  0  0  0  0  0
    1.0507   -0.9344    1.9886 C   0  0  0  0  0  0  0  0  0  0  0  0
   -1.4679   -0.9344    1.9886 C   0  0  0  0  0  0  0  0  0  0  0  0
   -0.2086   -3.1179   -1.6429 H   0  0  0  0  0  0  0  0  0  0  0  0
   -0.2086   -1.2696   -1.6392 H   0  0  0  0  0  0  0  0  0  0  0  0
   -0.2086   -3.1475    0.7795 H   0  0  0  0  0  0  0  0  0  0  0  0
   -0.2086    0.0816    0.3405 H   0  0  0  0  0  0  0  0  0  0  0  0
    1.9523   -0.9285    1.3744 H   0  0  0  0  0  0  0  0  0  0  0  0
    1.0953   -1.8082    2.6444 H   0  0  0  0  0  0  0  0  0  0  0  0
    1.0582   -0.0432    2.6196 H   0  0  0  0  0  0  0  0  0  0  0  0
   -1.5125   -1.8082    2.6444 H   0  0  0  0  0  0  0  0  0  0  0  0
   -2.3694   -0.9285    1.3744 H   0  0  0  0  0  0  0  0  0  0  0  0
   -1.4754   -0.0432    2.6196 H   0  0  0  0  0  0  0  0  0  0  0  0
  1  2  1  0
  1  4  1  0
  1  5  1  0
  1  6  1  0
  2  3  1  0
  2  7  1  0
  2 17  1  0
  3  8  1  0
  9 10  2  3
  9 14  1  0
  9 15  1  0
 10 11  1  0
 10 16  1  0
 11 12  1  0
 11 13  1  0
 12 18  1  0
 12 19  1  0
 12 20  1  0
 13 21  1  0
 13 22  1  0
 13 23  1  0
M  RAD  1  11   2
M  END
>  <reaction>  (14) 
rxn_1104

>  <mol_properties>  (14) 
{"1": {"label": "*3", "atom_type": "Cs"}, "2": {"label": "*4", "atom_type": "S2s"}, "9": {"label": "*0", "atom_type": "Cd"}, "10": {"label": "*1", "atom_type": "Cs"}, "16": {"label": "*2", "atom_type": "H0"}}

>  <type>  (14) 
unop_10

>  <geom_source>  (14) 
Heuristics

$$$$

     RDKit          3D

 23 21  0  0  0  0  0  0  0  0999 V2000
    1.0749    2.3999   -0.1893 C   0  0  0  0  0  0  0  0  0  0  0  0
    0.3672    1.2287   -0.8480 C   0  0  0  0  0  0  0  0  0  0  0  0
   -1.4358    1.2253   -0.6225 S   0  0  0  0  0  0  0  0  0  0  0  0
    2.1465    2.3636   -0.3993 H   0  0  0  0  0  0  0  0  0  0  0  0
    0.9441    2.3763    0.8940 H   0  0  0  0  0  0  0  0  0  0  0  0
    0.6819    3.3489   -0.5549 H   0  0  0  0  0  0  0  0  0  0  0  0
    0.5019    1.2566   -1.9303 H   0  0  0  0  0  0  0  0  0  0  0  0
   -1.4297    1.1232    0.7134 H   0  0  0  0  0  0  0  0  0  0  0  0
    0.3672   -2.1009   -1.4860 C   0  0  0  0  0  0  0  0  0  0  0  0
    0.3672   -2.1009   -0.1625 C   0  0  0  0  0  0  0  0  0  0  0  0
    0.3672   -0.8795    0.7095 C   0  0  0  0  0  3  0  0  0  0  0  0
    1.6265   -0.8391    1.5771 C   0  0  0  0  0  0  0  0  0  0  0  0
   -0.8921   -0.8391    1.5771 C   0  0  0  0  0  0  0  0  0  0  0  0
    0.3672   -3.0226   -2.0543 H   0  0  0  0  0  0  0  0  0  0  0  0
    0.3672   -1.1744   -2.0506 H   0  0  0  0  0  0  0  0  0  0  0  0
    0.3672   -3.0522    0.3680 H   0  0  0  0  0  0  0  0  0  0  0  0
    0.3672    0.1769   -0.0710 H   0  0  0  0  0  0  0  0  0  0  0  0
    2.5281   -0.8332    0.9630 H   0  0  0  0  0  0  0  0  0  0  0  0
    1.6711   -1.7129    2.2329 H   0  0  0  0  0  0  0  0  0  0  0  0
    1.6341    0.0521    2.2081 H   0  0  0  0  0  0  0  0  0  0  0  0
   -0.9367   -1.7129    2.2329 H   0  0  0  0  0  0  0  0  0  0  0  0
   -1.7936   -0.8332    0.9630 H   0  0  0  0  0  0  0  0  0  0  0  0
   -0.8996    0.0521    2.2081 H   0  0  0  0  0  0  0  0  0  0  0  0
  1  2  1  0
  1  4  1  0
  1  5  1  0
  1  6  1  0
  2  3  1  0
  2  7  1  0
  2 17  1  0
  3  8  1  0
  9 10  2  3
  9 14  1  0
  9 15  1  0
 10 11  1  0
 10 16  1  0
 11 12  1  0
 11 13  1  0
 12 18  1  0
 12 19  1  0
 12 20  1  0
 13 21  1  0
 13 22  1  0
 13 23  1  0
M  RAD  1  11   2
M  END
>  <reaction>  (15) 
rxn_1104

>  <mol_properties>  (15) 
{"1": {"label": "*3", "atom_type": "Cs"}, "2": {"label": "*4", "atom_type": "S2s"}, "9": {"label": "*0", "atom_type": "Cd"}, "10": {"label": "*1", "atom_type": "Cs"}, "16": {"label": "*2", "atom_type": "H0"}}

>  <type>  (15) 
unop_11

>  <geom_source>  (15) 
Heuristics

$$$$

     RDKit          3D

 23 21  0  0  0  0  0  0  0  0999 V2000
   -0.3469    0.7470   -2.1185 C   0  0  0  0  0  0  0  0  0  0  0  0
   -0.3469    1.1451   -0.6530 C   0  0  0  0  0  0  0  0  0  0  0  0
    1.0291    2.2319   -0.1762 S   0  0  0  0  0  0  0  0  0  0  0  0
   -1.2206    0.1313   -2.3453 H   0  0  0  0  0  0  0  0  0  0  0  0
    0.5449    0.1685   -2.3663 H   0  0  0  0  0  0  0  0  0  0  0  0
   -0.3664    1.6270   -2.7618 H   0  0  0  0  0  0  0  0  0  0  0  0
   -1.2406    1.7221   -0.4106 H   0  0  0  0  0  0  0  0  0  0  0  0
    2.0174    1.3747   -0.4651 H   0  0  0  0  0  0  0  0  0  0  0  0
   -0.3469   -2.1845   -1.2910 C   0  0  0  0  0  0  0  0  0  0  0  0
   -0.3469   -2.1845    0.0325 C   0  0  0  0  0  0  0  0  0  0  0  0
   -0.3469   -0.9631    0.9045 C   0  0  0  0  0  3  0  0  0  0  0  0
    0.9124   -0.9227    1.7722 C   0  0  0  0  0  0  0  0  0  0  0  0
   -1.6062   -0.9227    1.7722 C   0  0  0  0  0  0  0  0  0  0  0  0
   -0.3469   -3.1062   -1.8593 H   0  0  0  0  0  0  0  0  0  0  0  0
   -0.3469   -1.2580   -1.8556 H   0  0  0  0  0  0  0  0  0  0  0  0
   -0.3469   -3.1358    0.5630 H   0  0  0  0  0  0  0  0  0  0  0  0
   -0.3469    0.0933    0.1241 H   0  0  0  0  0  0  0  0  0  0  0  0
    1.8140   -0.9168    1.1580 H   0  0  0  0  0  0  0  0  0  0  0  0
    0.9570   -1.7965    2.4280 H   0  0  0  0  0  0  0  0  0  0  0  0
    0.9199   -0.0315    2.4032 H   0  0  0  0  0  0  0  0  0  0  0  0
   -1.6508   -1.7965    2.4280 H   0  0  0  0  0  0  0  0  0  0  0  0
   -2.5078   -0.9168    1.1580 H   0  0  0  0  0  0  0  0  0  0  0  0
   -1.6137   -0.0315    2.4032 H   0  0  0  0  0  0  0  0  0  0  0  0
  1  2  1  0
  1  4  1  0
  1  5  1  0
  1  6  1  0
  2  3  1  0
  2  7  1  0
  2 17  1  0
  3  8  1  0
  9 10  2  3
  9 14  1  0
  9 15  1  0
 10 11  1  0
 10 16  1  0
 11 12  1  0
 11 13  1  0
 12 18  1  0
 12 19  1  0
 12 20  1  0
 13 21  1  0
 13 22  1  0
 13 23  1  0
M  RAD  1  11   2
M  END
>  <reaction>  (16) 
rxn_1104

>  <mol_properties>  (16) 
{"1": {"label": "*3", "atom_type": "Cs"}, "2": {"label": "*4", "atom_type": "S2s"}, "9": {"label": "*0", "atom_type": "Cd"}, "10": {"label": "*1", "atom_type": "Cs"}, "16": {"label": "*2", "atom_type": "H0"}}

>  <type>  (16) 
unop_12

>  <geom_source>  (16) 
Heuristics

$$$$

     RDKit          3D

 23 21  0  0  0  0  0  0  0  0999 V2000
    1.7970   -1.9025    0.2114 S   0  0  0  0  0  0  0  0  0  0  0  0
    1.4853   -0.1461    0.5704 C   0  0  0  0  0  3  0  0  0  0  0  0
    2.4170    0.7390   -0.2434 C   0  0  0  0  0  0  0  0  0  0  0  0
   -0.4542   -0.4460   -1.4489 C   0  0  0  0  0  0  0  0  0  0  0  0
   -2.0453   -1.4065    0.2647 C   0  0  0  0  0  0  0  0  0  0  0  0
   -1.0306   -0.3056   -0.0407 C   0  0  0  0  0  0  0  0  0  0  0  0
   -1.6428    1.0513    0.1515 C   0  0  0  0  0  0  0  0  0  0  0  0
   -1.1594    1.8886    1.0697 C   0  0  0  0  0  0  0  0  0  0  0  0
    1.6377    0.0417    1.6545 H   0  0  0  0  0  0  0  0  0  0  0  0
    0.1973    0.1478    0.2506 H   0  0  0  0  0  0  0  0  0  0  0  0
    3.4754    0.5292    0.0194 H   0  0  0  0  0  0  0  0  0  0  0  0
    2.1979    1.8051   -0.0253 H   0  0  0  0  0  0  0  0  0  0  0  0
    2.2628    0.5571   -1.3279 H   0  0  0  0  0  0  0  0  0  0  0  0
    0.3056    0.3445   -1.6258 H   0  0  0  0  0  0  0  0  0  0  0  0
   -1.2565   -0.3565   -2.2129 H   0  0  0  0  0  0  0  0  0  0  0  0
    0.0417   -1.4335   -1.5574 H   0  0  0  0  0  0  0  0  0  0  0  0
   -1.5626   -2.4020    0.1705 H   0  0  0  0  0  0  0  0  0  0  0  0
   -2.9067   -1.3527   -0.4357 H   0  0  0  0  0  0  0  0  0  0  0  0
   -2.4167   -1.2988    1.3058 H   0  0  0  0  0  0  0  0  0  0  0  0
   -2.4866    1.3550   -0.4619 H   0  0  0  0  0  0  0  0  0  0  0  0
   -1.6082    2.8677    1.2018 H   0  0  0  0  0  0  0  0  0  0  0  0
   -0.3168    1.6057    1.6935 H   0  0  0  0  0  0  0  0  0  0  0  0
    3.0686   -1.8825    0.8163 H   0  0  0  0  0  0  0  0  0  0  0  0
  1  2  1  0
  1 23  1  0
  2  3  1  0
  2  9  1  0
  3 11  1  0
  3 12  1  0
  3 13  1  0
  4  6  1  0
  4 14  1  0
  4 15  1  0
  4 16  1  0
  5  6  1  0
  5 17  1  0
  5 18  1  0
  5 19  1  0
  6  7  1  0
  6 10  1  0
  7  8  2  3
  7 20  1  0
  8 21  1  0
  8 22  1  0
M  RAD  1   2   2
M  END
>  <reaction>  (17) 
rxn_1104

>  <mol_properties>  (17) 
{"1": {"label": "*3", "atom_type": "Cs"}, "2": {"label": "*4", "atom_type": "S2s"}, "9": {"label": "*0", "atom_type": "Cd"}, "10": {"label": "*1", "atom_type": "Cs"}, "16": {"label": "*2", "atom_type": "H0"}}

>  <type>  (17) 
unop_13

>  <geom_source>  (17) 
AutoTST

$$$$
