
     RDKit          3D

 22 23  0  0  0  0  0  0  0  0999 V2000
   -2.1093   -0.3263    0.3079 C   0  0  0  0  0  0  0  0  0  0  0  0
   -1.3270    0.9803    0.4115 C   0  0  0  0  0  0  0  0  0  0  0  0
   -0.1818    0.8289   -0.6044 C   0  0  0  0  0  0  0  0  0  0  0  0
    1.1682    1.3904   -0.1341 C   0  0  0  0  0  0  0  0  0  0  0  0
    1.8508    0.2041    0.5479 C   0  0  0  0  0  0  0  0  0  0  0  0
    1.4982   -0.9663   -0.3710 C   0  0  0  0  0  0  0  0  0  0  0  0
    0.0340   -0.7124   -0.7594 C   0  0  0  0  0  0  0  0  0  0  0  0
   -0.9986   -1.3650    0.1756 C   0  0  0  0  0  0  0  0  0  0  0  0
   -2.7686   -0.5042    1.1589 H   0  0  0  0  0  0  0  0  0  0  0  0
   -2.7285   -0.3223   -0.5943 H   0  0  0  0  0  0  0  0  0  0  0  0
   -1.9339    1.8682    0.2289 H   0  0  0  0  0  0  0  0  0  0  0  0
   -0.9144    1.0729    1.4218 H   0  0  0  0  0  0  0  0  0  0  0  0
   -0.4804    1.2763   -1.5535 H   0  0  0  0  0  0  0  0  0  0  0  0
    1.7667    1.7058   -0.9931 H   0  0  0  0  0  0  0  0  0  0  0  0
    1.0540    2.2578    0.5189 H   0  0  0  0  0  0  0  0  0  0  0  0
    1.4197    0.0438    1.5410 H   0  0  0  0  0  0  0  0  0  0  0  0
    2.9248    0.3413    0.6788 H   0  0  0  0  0  0  0  0  0  0  0  0
    2.1362   -0.9329   -1.2584 H   0  0  0  0  0  0  0  0  0  0  0  0
    1.6421   -1.9421    0.0966 H   0  0  0  0  0  0  0  0  0  0  0  0
   -0.1575   -1.0299   -1.7854 H   0  0  0  0  0  0  0  0  0  0  0  0
   -1.3459   -2.3310   -0.1933 H   0  0  0  0  0  0  0  0  0  0  0  0
   -0.5489   -1.5373    1.1593 H   0  0  0  0  0  0  0  0  0  0  0  0
  1  2  1  0
  1  8  1  0
  1  9  1  0
  1 10  1  0
  2  3  1  0
  2 11  1  0
  2 12  1  0
  3  4  1  0
  3  7  1  0
  3 13  1  0
  4  5  1  0
  4 14  1  0
  4 15  1  0
  5  6  1  0
  5 16  1  0
  5 17  1  0
  6  7  1  0
  6 18  1  0
  6 19  1  0
  7  8  1  0
  7 20  1  0
  8 21  1  0
  8 22  1  0
M  END
>  <reaction>  (1) 
rxn_569

>  <mol_properties>  (1) 
{"2": {"label": "donator", "atom_type": "Cs"}, "12": {"label": "d_hydrogen", "atom_type": "H0"}}

>  <type>  (1) 
r1h

$$$$

     RDKit          3D

 14 14  0  0  0  0  0  0  0  0999 V2000
    2.3111    0.1295    0.0255 C   0  0  0  0  0  0  0  0  0  0  0  0
    0.9132    0.0511    0.0101 C   0  0  0  0  0  0  0  0  0  0  0  0
    0.2446   -1.1981    0.0389 C   0  0  0  0  0  3  0  0  0  0  0  0
   -1.1306   -1.2689    0.0235 C   0  0  0  0  0  0  0  0  0  0  0  0
   -1.8967   -0.1062   -0.0209 C   0  0  0  0  0  0  0  0  0  0  0  0
   -1.2644    1.1347   -0.0499 C   0  0  0  0  0  0  0  0  0  0  0  0
    0.1101    1.2180   -0.0350 C   0  0  0  0  0  0  0  0  0  0  0  0
    2.9188   -0.7647    0.0599 H   0  0  0  0  0  0  0  0  0  0  0  0
    2.8158    1.0859    0.0034 H   0  0  0  0  0  0  0  0  0  0  0  0
    0.8353   -2.1058    0.0735 H   0  0  0  0  0  0  0  0  0  0  0  0
   -1.6191   -2.2351    0.0461 H   0  0  0  0  0  0  0  0  0  0  0  0
   -2.9772   -0.1668   -0.0328 H   0  0  0  0  0  0  0  0  0  0  0  0
   -1.8572    2.0404   -0.0845 H   0  0  0  0  0  0  0  0  0  0  0  0
    0.5964    2.1860   -0.0577 H   0  0  0  0  0  0  0  0  0  0  0  0
  1  2  2  3
  1  8  1  0
  1  9  1  0
  2  3  1  0
  2  7  1  0
  3  4  1  0
  3 10  1  0
  4  5  2  0
  4 11  1  0
  5  6  1  0
  5 12  1  0
  6  7  2  0
  6 13  1  0
  7 14  1  0
M  RAD  1   3   2
M  END
>  <reaction>  (2) 
rxn_569

>  <mol_properties>  (2) 
{"0": {"label": "acceptor", "atom_type": "Cs"}}

>  <type>  (2) 
r2

$$$$

     RDKit          3D

 15 15  0  0  0  0  0  0  0  0999 V2000
    2.2031   -0.2111   -0.1693 C   0  0  0  0  0  0  0  0  0  0  0  0
    0.7140   -0.0314   -0.0623 C   0  0  0  0  0  0  0  0  0  0  0  0
   -0.0114    0.5491   -1.0982 C   0  0  0  0  0  0  0  0  0  0  0  0
   -1.3882    0.6886   -1.0150 C   0  0  0  0  0  0  0  0  0  0  0  0
   -2.0661    0.2493    0.1118 C   0  0  0  0  0  0  0  0  0  0  0  0
   -1.3551   -0.3278    1.1528 C   0  0  0  0  0  0  0  0  0  0  0  0
    0.0216   -0.4648    1.0642 C   0  0  0  0  0  0  0  0  0  0  0  0
    2.6776   -0.1836    0.8122 H   0  0  0  0  0  0  0  0  0  0  0  0
    2.4446   -1.1749   -0.6249 H   0  0  0  0  0  0  0  0  0  0  0  0
    2.6532    0.5664   -0.7875 H   0  0  0  0  0  0  0  0  0  0  0  0
    0.5104    0.8989   -1.9819 H   0  0  0  0  0  0  0  0  0  0  0  0
   -1.9328    1.1452   -1.8322 H   0  0  0  0  0  0  0  0  0  0  0  0
   -3.1409    0.3597    0.1800 H   0  0  0  0  0  0  0  0  0  0  0  0
   -1.8736   -0.6702    2.0398 H   0  0  0  0  0  0  0  0  0  0  0  0
    0.5695   -0.9141    1.8849 H   0  0  0  0  0  0  0  0  0  0  0  0
  1  2  1  0
  1  8  1  0
  1  9  1  0
  1 10  1  0
  2  3  2  0
  2  7  1  0
  3  4  1  0
  3 11  1  0
  4  5  2  0
  4 12  1  0
  5  6  1  0
  5 13  1  0
  6  7  2  0
  6 14  1  0
  7 15  1  0
M  END
>  <reaction>  (3) 
rxn_569

>  <mol_properties>  (3) 
{"0": {"label": "acceptor", "atom_type": "Cs"}, "14": {"label": "a_hydrogen", "atom_type": "H0"}}

>  <type>  (3) 
r2h

$$$$

     RDKit          3D

 36 37  0  0  0  0  0  0  0  0999 V2000
   -1.7892    0.3633    0.9937 C   0  0  0  0  0  0  0  0  0  0  0  0
   -1.7177   -0.9217    0.2944 C   0  0  0  0  0  0  0  0  0  0  0  0
   -1.3447   -2.0887    0.9680 C   0  0  0  0  0  0  0  0  0  0  0  0
   -1.1617   -3.2798    0.2876 C   0  0  0  0  0  0  0  0  0  0  0  0
   -1.3494   -3.3375   -1.0866 C   0  0  0  0  0  0  0  0  0  0  0  0
   -1.7331   -2.1915   -1.7693 C   0  0  0  0  0  0  0  0  0  0  0  0
   -1.9146   -1.0009   -1.0877 C   0  0  0  0  0  0  0  0  0  0  0  0
   -1.9549    0.3030    2.0667 H   0  0  0  0  0  0  0  0  0  0  0  0
   -2.4092    1.1198    0.5179 H   0  0  0  0  0  0  0  0  0  0  0  0
   -1.1892   -2.0525    2.0403 H   0  0  0  0  0  0  0  0  0  0  0  0
   -0.8694   -4.1694    0.8317 H   0  0  0  0  0  0  0  0  0  0  0  0
   -1.2035   -4.2682   -1.6195 H   0  0  0  0  0  0  0  0  0  0  0  0
   -1.8899   -2.2264   -2.8404 H   0  0  0  0  0  0  0  0  0  0  0  0
   -2.2088   -0.1099   -1.6309 H   0  0  0  0  0  0  0  0  0  0  0  0
    1.8650   -0.5318   -0.3322 C   0  0  0  0  0  0  0  0  0  0  0  0
    1.5812    0.1189    1.0244 C   0  0  0  0  0  0  0  0  0  0  0  0
    0.6968    1.3089    0.6970 C   0  0  0  0  0  3  0  0  0  0  0  0
    0.8854    2.6157    1.4417 C   0  0  0  0  0  0  0  0  0  0  0  0
    1.7009    3.4675    0.4595 C   0  0  0  0  0  0  0  0  0  0  0  0
    1.1029    3.1048   -0.9033 C   0  0  0  0  0  0  0  0  0  0  0  0
    0.8207    1.5973   -0.8066 C   0  0  0  0  0  0  0  0  0  0  0  0
    1.9485    0.6658   -1.2783 C   0  0  0  0  0  0  0  0  0  0  0  0
    2.7685   -1.1427   -0.3313 H   0  0  0  0  0  0  0  0  0  0  0  0
    1.0285   -1.1753   -0.6171 H   0  0  0  0  0  0  0  0  0  0  0  0
    1.1220   -0.5681    1.7393 H   0  0  0  0  0  0  0  0  0  0  0  0
    2.5166    0.4710    1.4776 H   0  0  0  0  0  0  0  0  0  0  0  0
   -0.5746    0.8772    0.8997 H   0  0  0  0  0  0  0  0  0  0  0  0
   -0.0809    3.0977    1.6266 H   0  0  0  0  0  0  0  0  0  0  0  0
    1.3731    2.4834    2.4089 H   0  0  0  0  0  0  0  0  0  0  0  0
    2.7516    3.1649    0.4982 H   0  0  0  0  0  0  0  0  0  0  0  0
    1.6603    4.5357    0.6769 H   0  0  0  0  0  0  0  0  0  0  0  0
    0.1684    3.6536   -1.0476 H   0  0  0  0  0  0  0  0  0  0  0  0
    1.7590    3.3541   -1.7391 H   0  0  0  0  0  0  0  0  0  0  0  0
   -0.0990    1.3348   -1.3370 H   0  0  0  0  0  0  0  0  0  0  0  0
    1.8565    0.3933   -2.3305 H   0  0  0  0  0  0  0  0  0  0  0  0
    2.9141    1.1676   -1.1516 H   0  0  0  0  0  0  0  0  0  0  0  0
  1  2  1  0
  1  8  1  0
  1  9  1  0
  1 27  1  0
  2  3  2  0
  2  7  1  0
  3  4  1  0
  3 10  1  0
  4  5  2  0
  4 11  1  0
  5  6  1  0
  5 12  1  0
  6  7  2  0
  6 13  1  0
  7 14  1  0
 15 22  1  0
 15 16  1  0
 15 23  1  0
 15 24  1  0
 16 17  1  0
 16 25  1  0
 16 26  1  0
 17 18  1  0
 17 21  1  0
 18 19  1  0
 18 28  1  0
 18 29  1  0
 19 20  1  0
 19 30  1  0
 19 31  1  0
 20 21  1  0
 20 32  1  0
 20 33  1  0
 21 22  1  0
 21 34  1  0
 22 35  1  0
 22 36  1  0
M  RAD  1  17   2
M  END
>  <reaction>  (4) 
rxn_569

>  <mol_properties>  (4) 
{"0": {"label": "*1", "atom_type": "Cs"}, "1": {"label": "*0", "atom_type": "Cd"}, "16": {"label": "*3", "atom_type": "Cs"}, "20": {"label": "*4", "atom_type": "Cs"}, "26": {"label": "*2", "atom_type": "H0"}}

>  <type>  (4) 
ts

$$$$

     RDKit          3D

 36 37  0  0  0  0  0  0  0  0999 V2000
   -1.2936   -1.0176   -0.5108 C   0  0  0  0  0  0  0  0  0  0  0  0
   -1.7670   -0.7588    0.8928 C   0  0  0  0  0  0  0  0  0  0  0  0
   -2.8162    0.1208    1.1417 C   0  0  0  0  0  0  0  0  0  0  0  0
   -3.2747    0.3385    2.4318 C   0  0  0  0  0  0  0  0  0  0  0  0
   -2.6879   -0.3219    3.5004 C   0  0  0  0  0  0  0  0  0  0  0  0
   -1.6393   -1.1985    3.2668 C   0  0  0  0  0  0  0  0  0  0  0  0
   -1.1849   -1.4123    1.9746 C   0  0  0  0  0  0  0  0  0  0  0  0
   -1.4416   -0.1442   -1.1468 H   0  0  0  0  0  0  0  0  0  0  0  0
   -1.8456   -1.8481   -0.9582 H   0  0  0  0  0  0  0  0  0  0  0  0
   -3.2790    0.6446    0.3129 H   0  0  0  0  0  0  0  0  0  0  0  0
   -4.0912    1.0290    2.6030 H   0  0  0  0  0  0  0  0  0  0  0  0
   -3.0426   -0.1514    4.5089 H   0  0  0  0  0  0  0  0  0  0  0  0
   -1.1703   -1.7162    4.0944 H   0  0  0  0  0  0  0  0  0  0  0  0
   -0.3620   -2.0969    1.8023 H   0  0  0  0  0  0  0  0  0  0  0  0
    2.0593   -1.1599   -2.8229 C   0  0  0  0  0  0  0  0  0  0  0  0
    2.0593   -1.1599   -1.2964 C   0  0  0  0  0  0  0  0  0  0  0  0
    1.0960   -0.0251   -0.9081 C   0  0  0  0  0  3  0  0  0  0  0  0
    1.5487    0.8134    0.2964 C   0  0  0  0  0  0  0  0  0  0  0  0
    2.3607    1.9516   -0.3230 C   0  0  0  0  0  0  0  0  0  0  0  0
    1.5487    2.3112   -1.5679 C   0  0  0  0  0  0  0  0  0  0  0  0
    1.0960    0.9544   -2.1273 C   0  0  0  0  0  0  0  0  0  0  0  0
    2.0593    0.3307   -3.1517 C   0  0  0  0  0  0  0  0  0  0  0  0
    2.9042   -1.6981   -3.2552 H   0  0  0  0  0  0  0  0  0  0  0  0
    1.1435   -1.6267   -3.1979 H   0  0  0  0  0  0  0  0  0  0  0  0
    1.7750   -2.1182   -0.8598 H   0  0  0  0  0  0  0  0  0  0  0  0
    3.0675   -0.9273   -0.9371 H   0  0  0  0  0  0  0  0  0  0  0  0
   -0.0991   -0.5215   -0.7094 H   0  0  0  0  0  0  0  0  0  0  0  0
    0.6809    1.2302    0.8148 H   0  0  0  0  0  0  0  0  0  0  0  0
    2.1118    0.2267    1.0247 H   0  0  0  0  0  0  0  0  0  0  0  0
    3.3518    1.5898   -0.6137 H   0  0  0  0  0  0  0  0  0  0  0  0
    2.5087    2.7939    0.3538 H   0  0  0  0  0  0  0  0  0  0  0  0
    0.6809    2.9073   -1.2726 H   0  0  0  0  0  0  0  0  0  0  0  0
    2.1118    2.8960   -2.2977 H   0  0  0  0  0  0  0  0  0  0  0  0
    0.1001    1.0270   -2.5668 H   0  0  0  0  0  0  0  0  0  0  0  0
    1.7750    0.5506   -4.1816 H   0  0  0  0  0  0  0  0  0  0  0  0
    3.0675    0.7317   -3.0020 H   0  0  0  0  0  0  0  0  0  0  0  0
  1  2  1  0
  1  8  1  0
  1  9  1  0
  1 27  1  0
  2  3  2  0
  2  7  1  0
  3  4  1  0
  3 10  1  0
  4  5  2  0
  4 11  1  0
  5  6  1  0
  5 12  1  0
  6  7  2  0
  6 13  1  0
  7 14  1  0
 15 22  1  0
 15 16  1  0
 15 23  1  0
 15 24  1  0
 16 17  1  0
 16 25  1  0
 16 26  1  0
 17 18  1  0
 17 21  1  0
 18 19  1  0
 18 28  1  0
 18 29  1  0
 19 20  1  0
 19 30  1  0
 19 31  1  0
 20 21  1  0
 20 32  1  0
 20 33  1  0
 21 22  1  0
 21 34  1  0
 22 35  1  0
 22 36  1  0
M  RAD  1  17   2
M  END
>  <reaction>  (5) 
rxn_569

>  <mol_properties>  (5) 
{"0": {"label": "*1", "atom_type": "Cs"}, "1": {"label": "*0", "atom_type": "Cd"}, "16": {"label": "*3", "atom_type": "Cs"}, "20": {"label": "*4", "atom_type": "Cs"}, "26": {"label": "*2", "atom_type": "H0"}}

>  <type>  (5) 
unop_1

>  <geom_source>  (5) 
Heuristics

$$$$

     RDKit          3D

 36 37  0  0  0  0  0  0  0  0999 V2000
   -1.6996    0.2280    0.1671 C   0  0  0  0  0  0  0  0  0  0  0  0
   -1.6275   -1.1888    0.6658 C   0  0  0  0  0  0  0  0  0  0  0  0
   -2.3907   -1.6027    1.7533 C   0  0  0  0  0  0  0  0  0  0  0  0
   -2.3491   -2.9156    2.1965 C   0  0  0  0  0  0  0  0  0  0  0  0
   -1.5384   -3.8412    1.5576 C   0  0  0  0  0  0  0  0  0  0  0  0
   -0.7702   -3.4414    0.4748 C   0  0  0  0  0  0  0  0  0  0  0  0
   -0.8157   -2.1272    0.0359 C   0  0  0  0  0  0  0  0  0  0  0  0
   -1.9250    0.9227    0.9769 H   0  0  0  0  0  0  0  0  0  0  0  0
   -2.4851    0.3336   -0.5856 H   0  0  0  0  0  0  0  0  0  0  0  0
   -3.0250   -0.8852    2.2617 H   0  0  0  0  0  0  0  0  0  0  0  0
   -2.9499   -3.2156    3.0462 H   0  0  0  0  0  0  0  0  0  0  0  0
   -1.5025   -4.8664    1.9036 H   0  0  0  0  0  0  0  0  0  0  0  0
   -0.1297   -4.1547   -0.0289 H   0  0  0  0  0  0  0  0  0  0  0  0
   -0.2086   -1.8230   -0.8094 H   0  0  0  0  0  0  0  0  0  0  0  0
    1.6534    0.0857   -2.1450 C   0  0  0  0  0  0  0  0  0  0  0  0
    1.6534    0.0857   -0.6185 C   0  0  0  0  0  0  0  0  0  0  0  0
    0.6900    1.2204   -0.2302 C   0  0  0  0  0  3  0  0  0  0  0  0
    1.1428    2.0590    0.9743 C   0  0  0  0  0  0  0  0  0  0  0  0
    1.9548    3.1972    0.3549 C   0  0  0  0  0  0  0  0  0  0  0  0
    1.1428    3.5568   -0.8900 C   0  0  0  0  0  0  0  0  0  0  0  0
    0.6900    2.2000   -1.4494 C   0  0  0  0  0  0  0  0  0  0  0  0
    1.6534    1.5763   -2.4738 C   0  0  0  0  0  0  0  0  0  0  0  0
    2.4982   -0.4525   -2.5774 H   0  0  0  0  0  0  0  0  0  0  0  0
    0.7375   -0.3812   -2.5200 H   0  0  0  0  0  0  0  0  0  0  0  0
    1.3691   -0.8727   -0.1819 H   0  0  0  0  0  0  0  0  0  0  0  0
    2.6615    0.3182   -0.2592 H   0  0  0  0  0  0  0  0  0  0  0  0
   -0.5050    0.7241   -0.0315 H   0  0  0  0  0  0  0  0  0  0  0  0
    0.2750    2.4758    1.4927 H   0  0  0  0  0  0  0  0  0  0  0  0
    1.7059    1.4723    1.7025 H   0  0  0  0  0  0  0  0  0  0  0  0
    2.9459    2.8353    0.0642 H   0  0  0  0  0  0  0  0  0  0  0  0
    2.1027    4.0395    1.0316 H   0  0  0  0  0  0  0  0  0  0  0  0
    0.2750    4.1528   -0.5947 H   0  0  0  0  0  0  0  0  0  0  0  0
    1.7059    4.1416   -1.6198 H   0  0  0  0  0  0  0  0  0  0  0  0
   -0.3058    2.2725   -1.8890 H   0  0  0  0  0  0  0  0  0  0  0  0
    1.3691    1.7961   -3.5037 H   0  0  0  0  0  0  0  0  0  0  0  0
    2.6615    1.9772   -2.3241 H   0  0  0  0  0  0  0  0  0  0  0  0
  1  2  1  0
  1  8  1  0
  1  9  1  0
  1 27  1  0
  2  3  2  0
  2  7  1  0
  3  4  1  0
  3 10  1  0
  4  5  2  0
  4 11  1  0
  5  6  1  0
  5 12  1  0
  6  7  2  0
  6 13  1  0
  7 14  1  0
 15 22  1  0
 15 16  1  0
 15 23  1  0
 15 24  1  0
 16 17  1  0
 16 25  1  0
 16 26  1  0
 17 18  1  0
 17 21  1  0
 18 19  1  0
 18 28  1  0
 18 29  1  0
 19 20  1  0
 19 30  1  0
 19 31  1  0
 20 21  1  0
 20 32  1  0
 20 33  1  0
 21 22  1  0
 21 34  1  0
 22 35  1  0
 22 36  1  0
M  RAD  1  17   2
M  END
>  <reaction>  (6) 
rxn_569

>  <mol_properties>  (6) 
{"0": {"label": "*1", "atom_type": "Cs"}, "1": {"label": "*0", "atom_type": "Cd"}, "16": {"label": "*3", "atom_type": "Cs"}, "20": {"label": "*4", "atom_type": "Cs"}, "26": {"label": "*2", "atom_type": "H0"}}

>  <type>  (6) 
unop_2

>  <geom_source>  (6) 
Heuristics

$$$$

     RDKit          3D

 36 37  0  0  0  0  0  0  0  0999 V2000
   -1.0801   -1.4191   -0.2274 C   0  0  0  0  0  0  0  0  0  0  0  0
   -1.8428   -0.6181    0.7914 C   0  0  0  0  0  0  0  0  0  0  0  0
   -3.0680   -0.0400    0.4737 C   0  0  0  0  0  0  0  0  0  0  0  0
   -3.7876    0.6736    1.4197 C   0  0  0  0  0  0  0  0  0  0  0  0
   -3.2910    0.8233    2.7054 C   0  0  0  0  0  0  0  0  0  0  0  0
   -2.0697    0.2554    3.0344 C   0  0  0  0  0  0  0  0  0  0  0  0
   -1.3544   -0.4572    2.0844 C   0  0  0  0  0  0  0  0  0  0  0  0
   -1.2734   -1.0610   -1.2392 H   0  0  0  0  0  0  0  0  0  0  0  0
   -1.3722   -2.4717   -0.1893 H   0  0  0  0  0  0  0  0  0  0  0  0
   -3.4629   -0.1487   -0.5302 H   0  0  0  0  0  0  0  0  0  0  0  0
   -4.7383    1.1169    1.1502 H   0  0  0  0  0  0  0  0  0  0  0  0
   -3.8500    1.3824    3.4450 H   0  0  0  0  0  0  0  0  0  0  0  0
   -1.6698    0.3700    4.0343 H   0  0  0  0  0  0  0  0  0  0  0  0
   -0.3985   -0.8946    2.3500 H   0  0  0  0  0  0  0  0  0  0  0  0
    2.2728   -1.5614   -2.5395 C   0  0  0  0  0  0  0  0  0  0  0  0
    2.2728   -1.5614   -1.0130 C   0  0  0  0  0  0  0  0  0  0  0  0
    1.3094   -0.4266   -0.6247 C   0  0  0  0  0  3  0  0  0  0  0  0
    1.7622    0.4119    0.5798 C   0  0  0  0  0  0  0  0  0  0  0  0
    2.5742    1.5501   -0.0396 C   0  0  0  0  0  0  0  0  0  0  0  0
    1.7622    1.9097   -1.2845 C   0  0  0  0  0  0  0  0  0  0  0  0
    1.3094    0.5529   -1.8439 C   0  0  0  0  0  0  0  0  0  0  0  0
    2.2728   -0.0708   -2.8683 C   0  0  0  0  0  0  0  0  0  0  0  0
    3.1176   -2.0996   -2.9719 H   0  0  0  0  0  0  0  0  0  0  0  0
    1.3569   -2.0282   -2.9145 H   0  0  0  0  0  0  0  0  0  0  0  0
    1.9885   -2.5197   -0.5764 H   0  0  0  0  0  0  0  0  0  0  0  0
    3.2809   -1.3288   -0.6538 H   0  0  0  0  0  0  0  0  0  0  0  0
    0.1144   -0.9230   -0.4260 H   0  0  0  0  0  0  0  0  0  0  0  0
    0.8944    0.8287    1.0982 H   0  0  0  0  0  0  0  0  0  0  0  0
    2.3253   -0.1748    1.3080 H   0  0  0  0  0  0  0  0  0  0  0  0
    3.5653    1.1883   -0.3303 H   0  0  0  0  0  0  0  0  0  0  0  0
    2.7221    2.3924    0.6371 H   0  0  0  0  0  0  0  0  0  0  0  0
    0.8944    2.5058   -0.9892 H   0  0  0  0  0  0  0  0  0  0  0  0
    2.3253    2.4945   -2.0144 H   0  0  0  0  0  0  0  0  0  0  0  0
    0.3136    0.6255   -2.2835 H   0  0  0  0  0  0  0  0  0  0  0  0
    1.9885    0.1491   -3.8982 H   0  0  0  0  0  0  0  0  0  0  0  0
    3.2809    0.3302   -2.7186 H   0  0  0  0  0  0  0  0  0  0  0  0
  1  2  1  0
  1  8  1  0
  1  9  1  0
  1 27  1  0
  2  3  2  0
  2  7  1  0
  3  4  1  0
  3 10  1  0
  4  5  2  0
  4 11  1  0
  5  6  1  0
  5 12  1  0
  6  7  2  0
  6 13  1  0
  7 14  1  0
 15 22  1  0
 15 16  1  0
 15 23  1  0
 15 24  1  0
 16 17  1  0
 16 25  1  0
 16 26  1  0
 17 18  1  0
 17 21  1  0
 18 19  1  0
 18 28  1  0
 18 29  1  0
 19 20  1  0
 19 30  1  0
 19 31  1  0
 20 21  1  0
 20 32  1  0
 20 33  1  0
 21 22  1  0
 21 34  1  0
 22 35  1  0
 22 36  1  0
M  RAD  1  17   2
M  END
>  <reaction>  (7) 
rxn_569

>  <mol_properties>  (7) 
{"0": {"label": "*1", "atom_type": "Cs"}, "1": {"label": "*0", "atom_type": "Cd"}, "16": {"label": "*3", "atom_type": "Cs"}, "20": {"label": "*4", "atom_type": "Cs"}, "26": {"label": "*2", "atom_type": "H0"}}

>  <type>  (7) 
unop_3

>  <geom_source>  (7) 
Heuristics

$$$$

     RDKit          3D

 36 37  0  0  0  0  0  0  0  0999 V2000
   -1.2581   -0.3404    1.4599 C   0  0  0  0  0  0  0  0  0  0  0  0
   -1.7833   -1.0140    0.2224 C   0  0  0  0  0  0  0  0  0  0  0  0
   -3.0627   -1.5606    0.1953 C   0  0  0  0  0  0  0  0  0  0  0  0
   -3.5609   -2.1555   -0.9536 C   0  0  0  0  0  0  0  0  0  0  0  0
   -2.7837   -2.2156   -2.1001 C   0  0  0  0  0  0  0  0  0  0  0  0
   -1.5058   -1.6779   -2.0858 C   0  0  0  0  0  0  0  0  0  0  0  0
   -1.0127   -1.0842   -0.9341 C   0  0  0  0  0  0  0  0  0  0  0  0
   -1.6893   -0.7759    2.3620 H   0  0  0  0  0  0  0  0  0  0  0  0
   -1.5073    0.7238    1.4564 H   0  0  0  0  0  0  0  0  0  0  0  0
   -3.6766   -1.5217    1.0881 H   0  0  0  0  0  0  0  0  0  0  0  0
   -4.5587   -2.5765   -0.9518 H   0  0  0  0  0  0  0  0  0  0  0  0
   -3.1697   -2.6820   -2.9976 H   0  0  0  0  0  0  0  0  0  0  0  0
   -0.8880   -1.7233   -2.9742 H   0  0  0  0  0  0  0  0  0  0  0  0
   -0.0109   -0.6696   -0.9315 H   0  0  0  0  0  0  0  0  0  0  0  0
    2.0949   -0.4827   -0.8521 C   0  0  0  0  0  0  0  0  0  0  0  0
    2.0949   -0.4827    0.6743 C   0  0  0  0  0  0  0  0  0  0  0  0
    1.1315    0.6520    1.0627 C   0  0  0  0  0  3  0  0  0  0  0  0
    1.5843    1.4906    2.2671 C   0  0  0  0  0  0  0  0  0  0  0  0
    2.3963    2.6288    1.6477 C   0  0  0  0  0  0  0  0  0  0  0  0
    1.5843    2.9884    0.4028 C   0  0  0  0  0  0  0  0  0  0  0  0
    1.1315    1.6316   -0.1565 C   0  0  0  0  0  0  0  0  0  0  0  0
    2.0949    1.0079   -1.1810 C   0  0  0  0  0  0  0  0  0  0  0  0
    2.9397   -1.0209   -1.2845 H   0  0  0  0  0  0  0  0  0  0  0  0
    1.1790   -0.9496   -1.2272 H   0  0  0  0  0  0  0  0  0  0  0  0
    1.8106   -1.4411    1.1109 H   0  0  0  0  0  0  0  0  0  0  0  0
    3.1030   -0.2502    1.0336 H   0  0  0  0  0  0  0  0  0  0  0  0
   -0.0635    0.1557    1.2614 H   0  0  0  0  0  0  0  0  0  0  0  0
    0.7165    1.9074    2.7856 H   0  0  0  0  0  0  0  0  0  0  0  0
    2.1474    0.9039    2.9954 H   0  0  0  0  0  0  0  0  0  0  0  0
    3.3874    2.2669    1.3570 H   0  0  0  0  0  0  0  0  0  0  0  0
    2.5442    3.4711    2.3245 H   0  0  0  0  0  0  0  0  0  0  0  0
    0.7165    3.5844    0.6982 H   0  0  0  0  0  0  0  0  0  0  0  0
    2.1474    3.5732   -0.3270 H   0  0  0  0  0  0  0  0  0  0  0  0
    0.1356    1.7041   -0.5961 H   0  0  0  0  0  0  0  0  0  0  0  0
    1.8106    1.2277   -2.2109 H   0  0  0  0  0  0  0  0  0  0  0  0
    3.1030    1.4088   -1.0313 H   0  0  0  0  0  0  0  0  0  0  0  0
  1  2  1  0
  1  8  1  0
  1  9  1  0
  1 27  1  0
  2  3  2  0
  2  7  1  0
  3  4  1  0
  3 10  1  0
  4  5  2  0
  4 11  1  0
  5  6  1  0
  5 12  1  0
  6  7  2  0
  6 13  1  0
  7 14  1  0
 15 22  1  0
 15 16  1  0
 15 23  1  0
 15 24  1  0
 16 17  1  0
 16 25  1  0
 16 26  1  0
 17 18  1  0
 17 21  1  0
 18 19  1  0
 18 28  1  0
 18 29  1  0
 19 20  1  0
 19 30  1  0
 19 31  1  0
 20 21  1  0
 20 32  1  0
 20 33  1  0
 21 22  1  0
 21 34  1  0
 22 35  1  0
 22 36  1  0
M  RAD  1  17   2
M  END
>  <reaction>  (8) 
rxn_569

>  <mol_properties>  (8) 
{"0": {"label": "*1", "atom_type": "Cs"}, "1": {"label": "*0", "atom_type": "Cd"}, "16": {"label": "*3", "atom_type": "Cs"}, "20": {"label": "*4", "atom_type": "Cs"}, "26": {"label": "*2", "atom_type": "H0"}}

>  <type>  (8) 
unop_4

>  <geom_source>  (8) 
Heuristics

$$$$

     RDKit          3D

 36 37  0  0  0  0  0  0  0  0999 V2000
   -0.9212   -1.6241    0.2378 C   0  0  0  0  0  0  0  0  0  0  0  0
   -1.9024   -0.5510    0.6211 C   0  0  0  0  0  0  0  0  0  0  0  0
   -3.2534   -0.6752    0.3116 C   0  0  0  0  0  0  0  0  0  0  0  0
   -4.1651    0.2981    0.6902 C   0  0  0  0  0  0  0  0  0  0  0  0
   -3.7389    1.4186    1.3867 C   0  0  0  0  0  0  0  0  0  0  0  0
   -2.3950    1.5566    1.6985 C   0  0  0  0  0  0  0  0  0  0  0  0
   -1.4878    0.5801    1.3174 C   0  0  0  0  0  0  0  0  0  0  0  0
   -1.2319   -2.1393   -0.6717 H   0  0  0  0  0  0  0  0  0  0  0  0
   -0.8391   -2.3736    1.0291 H   0  0  0  0  0  0  0  0  0  0  0  0
   -3.5956   -1.5462   -0.2360 H   0  0  0  0  0  0  0  0  0  0  0  0
   -5.2117    0.1822    0.4371 H   0  0  0  0  0  0  0  0  0  0  0  0
   -4.4488    2.1812    1.6810 H   0  0  0  0  0  0  0  0  0  0  0  0
   -2.0502    2.4299    2.2381 H   0  0  0  0  0  0  0  0  0  0  0  0
   -0.4383    0.6985    1.5626 H   0  0  0  0  0  0  0  0  0  0  0  0
    2.4317   -1.7664   -2.0743 C   0  0  0  0  0  0  0  0  0  0  0  0
    2.4317   -1.7664   -0.5478 C   0  0  0  0  0  0  0  0  0  0  0  0
    1.4684   -0.6316   -0.1595 C   0  0  0  0  0  3  0  0  0  0  0  0
    1.9212    0.2069    1.0450 C   0  0  0  0  0  0  0  0  0  0  0  0
    2.7331    1.3451    0.4256 C   0  0  0  0  0  0  0  0  0  0  0  0
    1.9212    1.7048   -0.8193 C   0  0  0  0  0  0  0  0  0  0  0  0
    1.4684    0.3479   -1.3787 C   0  0  0  0  0  0  0  0  0  0  0  0
    2.4317   -0.2758   -2.4031 C   0  0  0  0  0  0  0  0  0  0  0  0
    3.2766   -2.3046   -2.5067 H   0  0  0  0  0  0  0  0  0  0  0  0
    1.5159   -2.2332   -2.4493 H   0  0  0  0  0  0  0  0  0  0  0  0
    2.1474   -2.7247   -0.1112 H   0  0  0  0  0  0  0  0  0  0  0  0
    3.4399   -1.5338   -0.1885 H   0  0  0  0  0  0  0  0  0  0  0  0
    0.2733   -1.1280    0.0392 H   0  0  0  0  0  0  0  0  0  0  0  0
    1.0533    0.6238    1.5634 H   0  0  0  0  0  0  0  0  0  0  0  0
    2.4842   -0.3798    1.7732 H   0  0  0  0  0  0  0  0  0  0  0  0
    3.7243    0.9833    0.1349 H   0  0  0  0  0  0  0  0  0  0  0  0
    2.8811    2.1875    1.1023 H   0  0  0  0  0  0  0  0  0  0  0  0
    1.0533    2.3008   -0.5240 H   0  0  0  0  0  0  0  0  0  0  0  0
    2.4842    2.2895   -1.5492 H   0  0  0  0  0  0  0  0  0  0  0  0
    0.4725    0.4205   -1.8183 H   0  0  0  0  0  0  0  0  0  0  0  0
    2.1474   -0.0559   -3.4330 H   0  0  0  0  0  0  0  0  0  0  0  0
    3.4399    0.1252   -2.2534 H   0  0  0  0  0  0  0  0  0  0  0  0
  1  2  1  0
  1  8  1  0
  1  9  1  0
  1 27  1  0
  2  3  2  0
  2  7  1  0
  3  4  1  0
  3 10  1  0
  4  5  2  0
  4 11  1  0
  5  6  1  0
  5 12  1  0
  6  7  2  0
  6 13  1  0
  7 14  1  0
 15 22  1  0
 15 16  1  0
 15 23  1  0
 15 24  1  0
 16 17  1  0
 16 25  1  0
 16 26  1  0
 17 18  1  0
 17 21  1  0
 18 19  1  0
 18 28  1  0
 18 29  1  0
 19 20  1  0
 19 30  1  0
 19 31  1  0
 20 21  1  0
 20 32  1  0
 20 33  1  0
 21 22  1  0
 21 34  1  0
 22 35  1  0
 22 36  1  0
M  RAD  1  17   2
M  END
>  <reaction>  (9) 
rxn_569

>  <mol_properties>  (9) 
{"0": {"label": "*1", "atom_type": "Cs"}, "1": {"label": "*0", "atom_type": "Cd"}, "16": {"label": "*3", "atom_type": "Cs"}, "20": {"label": "*4", "atom_type": "Cs"}, "26": {"label": "*2", "atom_type": "H0"}}

>  <type>  (9) 
unop_5

>  <geom_source>  (9) 
Heuristics

$$$$

     RDKit          3D

 36 37  0  0  0  0  0  0  0  0999 V2000
   -1.0499   -0.8395    1.4767 C   0  0  0  0  0  0  0  0  0  0  0  0
   -1.8574   -0.8460    0.2082 C   0  0  0  0  0  0  0  0  0  0  0  0
   -3.2200   -1.1276    0.2305 C   0  0  0  0  0  0  0  0  0  0  0  0
   -3.9730   -1.1047   -0.9332 C   0  0  0  0  0  0  0  0  0  0  0  0
   -3.3730   -0.7998   -2.1454 C   0  0  0  0  0  0  0  0  0  0  0  0
   -2.0155   -0.5205   -2.1824 C   0  0  0  0  0  0  0  0  0  0  0  0
   -1.2673   -0.5449   -1.0155 C   0  0  0  0  0  0  0  0  0  0  0  0
   -1.4549   -1.5395    2.2083 H   0  0  0  0  0  0  0  0  0  0  0  0
   -1.0549    0.1535    1.9333 H   0  0  0  0  0  0  0  0  0  0  0  0
   -3.6973   -1.3707    1.1732 H   0  0  0  0  0  0  0  0  0  0  0  0
   -5.0318   -1.3291   -0.8932 H   0  0  0  0  0  0  0  0  0  0  0  0
   -3.9587   -0.7839   -3.0557 H   0  0  0  0  0  0  0  0  0  0  0  0
   -1.5353   -0.2857   -3.1243 H   0  0  0  0  0  0  0  0  0  0  0  0
   -0.2055   -0.3287   -1.0549 H   0  0  0  0  0  0  0  0  0  0  0  0
    2.3030   -0.9818   -0.8354 C   0  0  0  0  0  0  0  0  0  0  0  0
    2.3030   -0.9818    0.6911 C   0  0  0  0  0  0  0  0  0  0  0  0
    1.3397    0.1529    1.0794 C   0  0  0  0  0  3  0  0  0  0  0  0
    1.7924    0.9915    2.2839 C   0  0  0  0  0  0  0  0  0  0  0  0
    2.6044    2.1297    1.6645 C   0  0  0  0  0  0  0  0  0  0  0  0
    1.7924    2.4893    0.4196 C   0  0  0  0  0  0  0  0  0  0  0  0
    1.3397    1.1325   -0.1398 C   0  0  0  0  0  0  0  0  0  0  0  0
    2.3030    0.5088   -1.1642 C   0  0  0  0  0  0  0  0  0  0  0  0
    3.1478   -1.5200   -1.2678 H   0  0  0  0  0  0  0  0  0  0  0  0
    1.3872   -1.4486   -1.2104 H   0  0  0  0  0  0  0  0  0  0  0  0
    2.0187   -1.9402    1.1277 H   0  0  0  0  0  0  0  0  0  0  0  0
    3.3112   -0.7492    1.0504 H   0  0  0  0  0  0  0  0  0  0  0  0
    0.1446   -0.3434    1.2781 H   0  0  0  0  0  0  0  0  0  0  0  0
    0.9246    1.4083    2.8023 H   0  0  0  0  0  0  0  0  0  0  0  0
    2.3555    0.4048    3.0121 H   0  0  0  0  0  0  0  0  0  0  0  0
    3.5955    1.7678    1.3738 H   0  0  0  0  0  0  0  0  0  0  0  0
    2.7523    2.9720    2.3412 H   0  0  0  0  0  0  0  0  0  0  0  0
    0.9246    3.0854    0.7149 H   0  0  0  0  0  0  0  0  0  0  0  0
    2.3555    3.0741   -0.3103 H   0  0  0  0  0  0  0  0  0  0  0  0
    0.3438    1.2051   -0.5794 H   0  0  0  0  0  0  0  0  0  0  0  0
    2.0187    0.7287   -2.1941 H   0  0  0  0  0  0  0  0  0  0  0  0
    3.3112    0.9097   -1.0145 H   0  0  0  0  0  0  0  0  0  0  0  0
  1  2  1  0
  1  8  1  0
  1  9  1  0
  1 27  1  0
  2  3  2  0
  2  7  1  0
  3  4  1  0
  3 10  1  0
  4  5  2  0
  4 11  1  0
  5  6  1  0
  5 12  1  0
  6  7  2  0
  6 13  1  0
  7 14  1  0
 15 22  1  0
 15 16  1  0
 15 23  1  0
 15 24  1  0
 16 17  1  0
 16 25  1  0
 16 26  1  0
 17 18  1  0
 17 21  1  0
 18 19  1  0
 18 28  1  0
 18 29  1  0
 19 20  1  0
 19 30  1  0
 19 31  1  0
 20 21  1  0
 20 32  1  0
 20 33  1  0
 21 22  1  0
 21 34  1  0
 22 35  1  0
 22 36  1  0
M  RAD  1  17   2
M  END
>  <reaction>  (10) 
rxn_569

>  <mol_properties>  (10) 
{"0": {"label": "*1", "atom_type": "Cs"}, "1": {"label": "*0", "atom_type": "Cd"}, "16": {"label": "*3", "atom_type": "Cs"}, "20": {"label": "*4", "atom_type": "Cs"}, "26": {"label": "*2", "atom_type": "H0"}}

>  <type>  (10) 
unop_6

>  <geom_source>  (10) 
Heuristics

$$$$

     RDKit          3D

 36 37  0  0  0  0  0  0  0  0999 V2000
   -0.9034   -1.2942    1.2232 C   0  0  0  0  0  0  0  0  0  0  0  0
   -1.9105   -0.6873    0.2859 C   0  0  0  0  0  0  0  0  0  0  0  0
   -3.2738   -0.8984    0.4685 C   0  0  0  0  0  0  0  0  0  0  0  0
   -4.2060   -0.3156   -0.3760 C   0  0  0  0  0  0  0  0  0  0  0  0
   -3.7887    0.4908   -1.4238 C   0  0  0  0  0  0  0  0  0  0  0  0
   -2.4331    0.7066   -1.6192 C   0  0  0  0  0  0  0  0  0  0  0  0
   -1.5053    0.1213   -0.7715 C   0  0  0  0  0  0  0  0  0  0  0  0
   -1.2634   -2.2372    1.6360 H   0  0  0  0  0  0  0  0  0  0  0  0
   -0.7022   -0.6230    2.0620 H   0  0  0  0  0  0  0  0  0  0  0  0
   -3.6096   -1.5304    1.2830 H   0  0  0  0  0  0  0  0  0  0  0  0
   -5.2621   -0.4950   -0.2168 H   0  0  0  0  0  0  0  0  0  0  0  0
   -4.5148    0.9448   -2.0861 H   0  0  0  0  0  0  0  0  0  0  0  0
   -2.0955    1.3309   -2.4372 H   0  0  0  0  0  0  0  0  0  0  0  0
   -0.4472    0.2930   -0.9345 H   0  0  0  0  0  0  0  0  0  0  0  0
    2.4496   -1.4365   -1.0889 C   0  0  0  0  0  0  0  0  0  0  0  0
    2.4496   -1.4365    0.4376 C   0  0  0  0  0  0  0  0  0  0  0  0
    1.4862   -0.3018    0.8259 C   0  0  0  0  0  3  0  0  0  0  0  0
    1.9390    0.5368    2.0304 C   0  0  0  0  0  0  0  0  0  0  0  0
    2.7510    1.6750    1.4110 C   0  0  0  0  0  0  0  0  0  0  0  0
    1.9390    2.0346    0.1661 C   0  0  0  0  0  0  0  0  0  0  0  0
    1.4862    0.6778   -0.3933 C   0  0  0  0  0  0  0  0  0  0  0  0
    2.4496    0.0541   -1.4177 C   0  0  0  0  0  0  0  0  0  0  0  0
    3.2944   -1.9747   -1.5213 H   0  0  0  0  0  0  0  0  0  0  0  0
    1.5337   -1.9033   -1.4639 H   0  0  0  0  0  0  0  0  0  0  0  0
    2.1653   -2.3949    0.8742 H   0  0  0  0  0  0  0  0  0  0  0  0
    3.4577   -1.2039    0.7968 H   0  0  0  0  0  0  0  0  0  0  0  0
    0.2912   -0.7981    1.0246 H   0  0  0  0  0  0  0  0  0  0  0  0
    1.0712    0.9536    2.5488 H   0  0  0  0  0  0  0  0  0  0  0  0
    2.5021   -0.0499    2.7586 H   0  0  0  0  0  0  0  0  0  0  0  0
    3.7421    1.3132    1.1203 H   0  0  0  0  0  0  0  0  0  0  0  0
    2.8989    2.5173    2.0877 H   0  0  0  0  0  0  0  0  0  0  0  0
    1.0712    2.6307    0.4614 H   0  0  0  0  0  0  0  0  0  0  0  0
    2.5021    2.6194   -0.5638 H   0  0  0  0  0  0  0  0  0  0  0  0
    0.4903    0.7504   -0.8329 H   0  0  0  0  0  0  0  0  0  0  0  0
    2.1653    0.2740   -2.4476 H   0  0  0  0  0  0  0  0  0  0  0  0
    3.4577    0.4550   -1.2680 H   0  0  0  0  0  0  0  0  0  0  0  0
  1  2  1  0
  1  8  1  0
  1  9  1  0
  1 27  1  0
  2  3  2  0
  2  7  1  0
  3  4  1  0
  3 10  1  0
  4  5  2  0
  4 11  1  0
  5  6  1  0
  5 12  1  0
  6  7  2  0
  6 13  1  0
  7 14  1  0
 15 22  1  0
 15 16  1  0
 15 23  1  0
 15 24  1  0
 16 17  1  0
 16 25  1  0
 16 26  1  0
 17 18  1  0
 17 21  1  0
 18 19  1  0
 18 28  1  0
 18 29  1  0
 19 20  1  0
 19 30  1  0
 19 31  1  0
 20 21  1  0
 20 32  1  0
 20 33  1  0
 21 22  1  0
 21 34  1  0
 22 35  1  0
 22 36  1  0
M  RAD  1  17   2
M  END
>  <reaction>  (11) 
rxn_569

>  <mol_properties>  (11) 
{"0": {"label": "*1", "atom_type": "Cs"}, "1": {"label": "*0", "atom_type": "Cd"}, "16": {"label": "*3", "atom_type": "Cs"}, "20": {"label": "*4", "atom_type": "Cs"}, "26": {"label": "*2", "atom_type": "H0"}}

>  <type>  (11) 
unop_7

>  <geom_source>  (11) 
Heuristics

$$$$

     RDKit          3D

 36 37  0  0  0  0  0  0  0  0999 V2000
   -1.5032   -0.5220   -0.5334 C   0  0  0  0  0  0  0  0  0  0  0  0
   -1.6944   -0.9304    0.9012 C   0  0  0  0  0  0  0  0  0  0  0  0
   -2.5777   -0.2427    1.7277 C   0  0  0  0  0  0  0  0  0  0  0  0
   -2.7786   -0.6354    3.0419 C   0  0  0  0  0  0  0  0  0  0  0  0
   -2.0950   -1.7271    3.5551 C   0  0  0  0  0  0  0  0  0  0  0  0
   -1.2093   -2.4192    2.7434 C   0  0  0  0  0  0  0  0  0  0  0  0
   -1.0123   -2.0220    1.4298 C   0  0  0  0  0  0  0  0  0  0  0  0
   -1.6585    0.5493   -0.6650 H   0  0  0  0  0  0  0  0  0  0  0  0
   -2.2151   -1.0400   -1.1811 H   0  0  0  0  0  0  0  0  0  0  0  0
   -3.1141    0.6145    1.3364 H   0  0  0  0  0  0  0  0  0  0  0  0
   -3.4693   -0.0845    3.6683 H   0  0  0  0  0  0  0  0  0  0  0  0
   -2.2484   -2.0339    4.5818 H   0  0  0  0  0  0  0  0  0  0  0  0
   -0.6663   -3.2705    3.1350 H   0  0  0  0  0  0  0  0  0  0  0  0
   -0.3149   -2.5673    0.8038 H   0  0  0  0  0  0  0  0  0  0  0  0
    1.8498   -0.6643   -2.8454 C   0  0  0  0  0  0  0  0  0  0  0  0
    1.8498   -0.6643   -1.3190 C   0  0  0  0  0  0  0  0  0  0  0  0
    0.8864    0.4704   -0.9306 C   0  0  0  0  0  3  0  0  0  0  0  0
    1.3392    1.3090    0.2738 C   0  0  0  0  0  0  0  0  0  0  0  0
    2.1512    2.4472   -0.3456 C   0  0  0  0  0  0  0  0  0  0  0  0
    1.3392    2.8068   -1.5905 C   0  0  0  0  0  0  0  0  0  0  0  0
    0.8864    1.4500   -2.1499 C   0  0  0  0  0  0  0  0  0  0  0  0
    1.8498    0.8263   -3.1743 C   0  0  0  0  0  0  0  0  0  0  0  0
    2.6946   -1.2025   -3.2778 H   0  0  0  0  0  0  0  0  0  0  0  0
    0.9339   -1.1312   -3.2205 H   0  0  0  0  0  0  0  0  0  0  0  0
    1.5654   -1.6227   -0.8824 H   0  0  0  0  0  0  0  0  0  0  0  0
    2.8579   -0.4318   -0.9597 H   0  0  0  0  0  0  0  0  0  0  0  0
   -0.3086   -0.0259   -0.7320 H   0  0  0  0  0  0  0  0  0  0  0  0
    0.4714    1.7258    0.7922 H   0  0  0  0  0  0  0  0  0  0  0  0
    1.9023    0.7223    1.0021 H   0  0  0  0  0  0  0  0  0  0  0  0
    3.1423    2.0853   -0.6363 H   0  0  0  0  0  0  0  0  0  0  0  0
    2.2991    3.2895    0.3312 H   0  0  0  0  0  0  0  0  0  0  0  0
    0.4714    3.4028   -1.2951 H   0  0  0  0  0  0  0  0  0  0  0  0
    1.9022    3.3915   -2.3203 H   0  0  0  0  0  0  0  0  0  0  0  0
   -0.1095    1.5225   -2.5894 H   0  0  0  0  0  0  0  0  0  0  0  0
    1.5654    1.0461   -4.2042 H   0  0  0  0  0  0  0  0  0  0  0  0
    2.8579    1.2272   -3.0246 H   0  0  0  0  0  0  0  0  0  0  0  0
  1  2  1  0
  1  8  1  0
  1  9  1  0
  1 27  1  0
  2  3  2  0
  2  7  1  0
  3  4  1  0
  3 10  1  0
  4  5  2  0
  4 11  1  0
  5  6  1  0
  5 12  1  0
  6  7  2  0
  6 13  1  0
  7 14  1  0
 15 22  1  0
 15 16  1  0
 15 23  1  0
 15 24  1  0
 16 17  1  0
 16 25  1  0
 16 26  1  0
 17 18  1  0
 17 21  1  0
 18 19  1  0
 18 28  1  0
 18 29  1  0
 19 20  1  0
 19 30  1  0
 19 31  1  0
 20 21  1  0
 20 32  1  0
 20 33  1  0
 21 22  1  0
 21 34  1  0
 22 35  1  0
 22 36  1  0
M  RAD  1  17   2
M  END
>  <reaction>  (12) 
rxn_569

>  <mol_properties>  (12) 
{"0": {"label": "*1", "atom_type": "Cs"}, "1": {"label": "*0", "atom_type": "Cd"}, "16": {"label": "*3", "atom_type": "Cs"}, "20": {"label": "*4", "atom_type": "Cs"}, "26": {"label": "*2", "atom_type": "H0"}}

>  <type>  (12) 
unop_8

>  <geom_source>  (12) 
Heuristics

$$$$

     RDKit          3D

 36 37  0  0  0  0  0  0  0  0999 V2000
   -1.4718    0.0687    1.1770 C   0  0  0  0  0  0  0  0  0  0  0  0
   -1.7079   -1.1471    0.3242 C   0  0  0  0  0  0  0  0  0  0  0  0
   -2.8156   -1.9626    0.5345 C   0  0  0  0  0  0  0  0  0  0  0  0
   -3.0521   -3.0670   -0.2694 C   0  0  0  0  0  0  0  0  0  0  0  0
   -2.1797   -3.3772   -1.3014 C   0  0  0  0  0  0  0  0  0  0  0  0
   -1.0701   -2.5750   -1.5197 C   0  0  0  0  0  0  0  0  0  0  0  0
   -0.8386   -1.4718   -0.7127 C   0  0  0  0  0  0  0  0  0  0  0  0
   -1.8707   -0.0685    2.1826 H   0  0  0  0  0  0  0  0  0  0  0  0
   -1.9617    0.9451    0.7451 H   0  0  0  0  0  0  0  0  0  0  0  0
   -3.5016   -1.7301    1.3413 H   0  0  0  0  0  0  0  0  0  0  0  0
   -3.9195   -3.6893   -0.0867 H   0  0  0  0  0  0  0  0  0  0  0  0
   -2.3610   -4.2407   -1.9287 H   0  0  0  0  0  0  0  0  0  0  0  0
   -0.3793   -2.8105   -2.3198 H   0  0  0  0  0  0  0  0  0  0  0  0
    0.0338   -0.8525   -0.8888 H   0  0  0  0  0  0  0  0  0  0  0  0
    1.8812   -0.0736   -1.1350 C   0  0  0  0  0  0  0  0  0  0  0  0
    1.8812   -0.0736    0.3914 C   0  0  0  0  0  0  0  0  0  0  0  0
    0.9178    1.0612    0.7798 C   0  0  0  0  0  3  0  0  0  0  0  0
    1.3706    1.8997    1.9842 C   0  0  0  0  0  0  0  0  0  0  0  0
    2.1826    3.0379    1.3648 C   0  0  0  0  0  0  0  0  0  0  0  0
    1.3706    3.3975    0.1199 C   0  0  0  0  0  0  0  0  0  0  0  0
    0.9178    2.0407   -0.4395 C   0  0  0  0  0  0  0  0  0  0  0  0
    1.8812    1.4170   -1.4639 C   0  0  0  0  0  0  0  0  0  0  0  0
    2.7260   -0.6118   -1.5674 H   0  0  0  0  0  0  0  0  0  0  0  0
    0.9653   -0.5404   -1.5101 H   0  0  0  0  0  0  0  0  0  0  0  0
    1.5969   -1.0319    0.8280 H   0  0  0  0  0  0  0  0  0  0  0  0
    2.8893    0.1590    0.7507 H   0  0  0  0  0  0  0  0  0  0  0  0
   -0.2772    0.5648    0.9784 H   0  0  0  0  0  0  0  0  0  0  0  0
    0.5028    2.3165    2.5026 H   0  0  0  0  0  0  0  0  0  0  0  0
    1.9337    1.3130    2.7125 H   0  0  0  0  0  0  0  0  0  0  0  0
    3.1737    2.6761    1.0741 H   0  0  0  0  0  0  0  0  0  0  0  0
    2.3305    3.8803    2.0416 H   0  0  0  0  0  0  0  0  0  0  0  0
    0.5028    3.9936    0.4152 H   0  0  0  0  0  0  0  0  0  0  0  0
    1.9337    3.9823   -0.6099 H   0  0  0  0  0  0  0  0  0  0  0  0
   -0.0781    2.1133   -0.8790 H   0  0  0  0  0  0  0  0  0  0  0  0
    1.5969    1.6369   -2.4938 H   0  0  0  0  0  0  0  0  0  0  0  0
    2.8893    1.8180   -1.3142 H   0  0  0  0  0  0  0  0  0  0  0  0
  1  2  1  0
  1  8  1  0
  1  9  1  0
  1 27  1  0
  2  3  2  0
  2  7  1  0
  3  4  1  0
  3 10  1  0
  4  5  2  0
  4 11  1  0
  5  6  1  0
  5 12  1  0
  6  7  2  0
  6 13  1  0
  7 14  1  0
 15 22  1  0
 15 16  1  0
 15 23  1  0
 15 24  1  0
 16 17  1  0
 16 25  1  0
 16 26  1  0
 17 18  1  0
 17 21  1  0
 18 19  1  0
 18 28  1  0
 18 29  1  0
 19 20  1  0
 19 30  1  0
 19 31  1  0
 20 21  1  0
 20 32  1  0
 20 33  1  0
 21 22  1  0
 21 34  1  0
 22 35  1  0
 22 36  1  0
M  RAD  1  17   2
M  END
>  <reaction>  (13) 
rxn_569

>  <mol_properties>  (13) 
{"0": {"label": "*1", "atom_type": "Cs"}, "1": {"label": "*0", "atom_type": "Cd"}, "16": {"label": "*3", "atom_type": "Cs"}, "20": {"label": "*4", "atom_type": "Cs"}, "26": {"label": "*2", "atom_type": "H0"}}

>  <type>  (13) 
unop_9

>  <geom_source>  (13) 
Heuristics

$$$$

     RDKit          3D

 36 37  0  0  0  0  0  0  0  0999 V2000
   -1.6519   -0.0654   -0.2858 C   0  0  0  0  0  0  0  0  0  0  0  0
   -1.6435   -1.0871    0.8175 C   0  0  0  0  0  0  0  0  0  0  0  0
   -2.4098   -0.9055    1.9647 C   0  0  0  0  0  0  0  0  0  0  0  0
   -2.4274   -1.8598    2.9702 C   0  0  0  0  0  0  0  0  0  0  0  0
   -1.6740   -3.0170    2.8455 C   0  0  0  0  0  0  0  0  0  0  0  0
   -0.9032   -3.2090    1.7092 C   0  0  0  0  0  0  0  0  0  0  0  0
   -0.8894   -2.2513    0.7069 C   0  0  0  0  0  0  0  0  0  0  0  0
   -1.8299    0.9375    0.1036 H   0  0  0  0  0  0  0  0  0  0  0  0
   -2.4425   -0.2832   -1.0085 H   0  0  0  0  0  0  0  0  0  0  0  0
   -2.9995   -0.0021    2.0728 H   0  0  0  0  0  0  0  0  0  0  0  0
   -3.0295   -1.6971    3.8556 H   0  0  0  0  0  0  0  0  0  0  0  0
   -1.6842   -3.7624    3.6306 H   0  0  0  0  0  0  0  0  0  0  0  0
   -0.3071   -4.1070    1.6033 H   0  0  0  0  0  0  0  0  0  0  0  0
   -0.2807   -2.4087   -0.1765 H   0  0  0  0  0  0  0  0  0  0  0  0
    1.7010   -0.2077   -2.5979 C   0  0  0  0  0  0  0  0  0  0  0  0
    1.7010   -0.2077   -1.0714 C   0  0  0  0  0  0  0  0  0  0  0  0
    0.7377    0.9270   -0.6831 C   0  0  0  0  0  3  0  0  0  0  0  0
    1.1904    1.7656    0.5214 C   0  0  0  0  0  0  0  0  0  0  0  0
    2.0024    2.9038   -0.0980 C   0  0  0  0  0  0  0  0  0  0  0  0
    1.1904    3.2634   -1.3429 C   0  0  0  0  0  0  0  0  0  0  0  0
    0.7377    1.9066   -1.9023 C   0  0  0  0  0  0  0  0  0  0  0  0
    1.7010    1.2829   -2.9267 C   0  0  0  0  0  0  0  0  0  0  0  0
    2.5459   -0.7459   -3.0302 H   0  0  0  0  0  0  0  0  0  0  0  0
    0.7852   -0.6746   -2.9729 H   0  0  0  0  0  0  0  0  0  0  0  0
    1.4167   -1.1661   -0.6348 H   0  0  0  0  0  0  0  0  0  0  0  0
    2.7092    0.0248   -0.7121 H   0  0  0  0  0  0  0  0  0  0  0  0
   -0.4574    0.4307   -0.4844 H   0  0  0  0  0  0  0  0  0  0  0  0
    0.3226    2.1824    1.0398 H   0  0  0  0  0  0  0  0  0  0  0  0
    1.7535    1.1789    1.2497 H   0  0  0  0  0  0  0  0  0  0  0  0
    2.9935    2.5419   -0.3887 H   0  0  0  0  0  0  0  0  0  0  0  0
    2.1504    3.7461    0.5788 H   0  0  0  0  0  0  0  0  0  0  0  0
    0.3226    3.8594   -1.0476 H   0  0  0  0  0  0  0  0  0  0  0  0
    1.7535    3.8481   -2.0727 H   0  0  0  0  0  0  0  0  0  0  0  0
   -0.2582    1.9791   -2.3419 H   0  0  0  0  0  0  0  0  0  0  0  0
    1.4167    1.5027   -3.9566 H   0  0  0  0  0  0  0  0  0  0  0  0
    2.7092    1.6838   -2.7770 H   0  0  0  0  0  0  0  0  0  0  0  0
  1  2  1  0
  1  8  1  0
  1  9  1  0
  1 27  1  0
  2  3  2  0
  2  7  1  0
  3  4  1  0
  3 10  1  0
  4  5  2  0
  4 11  1  0
  5  6  1  0
  5 12  1  0
  6  7  2  0
  6 13  1  0
  7 14  1  0
 15 22  1  0
 15 16  1  0
 15 23  1  0
 15 24  1  0
 16 17  1  0
 16 25  1  0
 16 26  1  0
 17 18  1  0
 17 21  1  0
 18 19  1  0
 18 28  1  0
 18 29  1  0
 19 20  1  0
 19 30  1  0
 19 31  1  0
 20 21  1  0
 20 32  1  0
 20 33  1  0
 21 22  1  0
 21 34  1  0
 22 35  1  0
 22 36  1  0
M  RAD  1  17   2
M  END
>  <reaction>  (14) 
rxn_569

>  <mol_properties>  (14) 
{"0": {"label": "*1", "atom_type": "Cs"}, "1": {"label": "*0", "atom_type": "Cd"}, "16": {"label": "*3", "atom_type": "Cs"}, "20": {"label": "*4", "atom_type": "Cs"}, "26": {"label": "*2", "atom_type": "H0"}}

>  <type>  (14) 
unop_10

>  <geom_source>  (14) 
Heuristics

$$$$

     RDKit          3D

 36 37  0  0  0  0  0  0  0  0999 V2000
   -0.8570   -1.5813    0.7682 C   0  0  0  0  0  0  0  0  0  0  0  0
   -1.9278   -0.5793    0.4355 C   0  0  0  0  0  0  0  0  0  0  0  0
   -3.2745   -0.9004    0.5754 C   0  0  0  0  0  0  0  0  0  0  0  0
   -4.2632    0.0310    0.2983 C   0  0  0  0  0  0  0  0  0  0  0  0
   -3.9202    1.3053   -0.1271 C   0  0  0  0  0  0  0  0  0  0  0  0
   -2.5822    1.6374   -0.2741 C   0  0  0  0  0  0  0  0  0  0  0  0
   -1.5977    0.7019    0.0045 C   0  0  0  0  0  0  0  0  0  0  0  0
   -1.2002   -2.6015    0.5932 H   0  0  0  0  0  0  0  0  0  0  0  0
   -0.5705   -1.5062    1.8203 H   0  0  0  0  0  0  0  0  0  0  0  0
   -3.5525   -1.8955    0.9041 H   0  0  0  0  0  0  0  0  0  0  0  0
   -5.3053   -0.2408    0.4121 H   0  0  0  0  0  0  0  0  0  0  0  0
   -4.6907    2.0334   -0.3466 H   0  0  0  0  0  0  0  0  0  0  0  0
   -2.3028    2.6282   -0.6103 H   0  0  0  0  0  0  0  0  0  0  0  0
   -0.5541    0.9697   -0.1169 H   0  0  0  0  0  0  0  0  0  0  0  0
    2.4959   -1.7236   -1.5439 C   0  0  0  0  0  0  0  0  0  0  0  0
    2.4959   -1.7236   -0.0174 C   0  0  0  0  0  0  0  0  0  0  0  0
    1.5326   -0.5889    0.3709 C   0  0  0  0  0  3  0  0  0  0  0  0
    1.9853    0.2497    1.5754 C   0  0  0  0  0  0  0  0  0  0  0  0
    2.7973    1.3879    0.9560 C   0  0  0  0  0  0  0  0  0  0  0  0
    1.9853    1.7475   -0.2889 C   0  0  0  0  0  0  0  0  0  0  0  0
    1.5326    0.3907   -0.8483 C   0  0  0  0  0  0  0  0  0  0  0  0
    2.4959   -0.2330   -1.8727 C   0  0  0  0  0  0  0  0  0  0  0  0
    3.3408   -2.2618   -1.9763 H   0  0  0  0  0  0  0  0  0  0  0  0
    1.5801   -2.1905   -1.9189 H   0  0  0  0  0  0  0  0  0  0  0  0
    2.2116   -2.6820    0.4192 H   0  0  0  0  0  0  0  0  0  0  0  0
    3.5041   -1.4910    0.3419 H   0  0  0  0  0  0  0  0  0  0  0  0
    0.3375   -1.0852    0.5696 H   0  0  0  0  0  0  0  0  0  0  0  0
    1.1175    0.6665    2.0938 H   0  0  0  0  0  0  0  0  0  0  0  0
    2.5484   -0.3370    2.3036 H   0  0  0  0  0  0  0  0  0  0  0  0
    3.7884    1.0260    0.6653 H   0  0  0  0  0  0  0  0  0  0  0  0
    2.9453    2.2302    1.6327 H   0  0  0  0  0  0  0  0  0  0  0  0
    1.1175    2.3436    0.0064 H   0  0  0  0  0  0  0  0  0  0  0  0
    2.5484    2.3323   -1.0188 H   0  0  0  0  0  0  0  0  0  0  0  0
    0.5367    0.4632   -1.2879 H   0  0  0  0  0  0  0  0  0  0  0  0
    2.2116   -0.0132   -2.9026 H   0  0  0  0  0  0  0  0  0  0  0  0
    3.5041    0.1679   -1.7230 H   0  0  0  0  0  0  0  0  0  0  0  0
  1  2  1  0
  1  8  1  0
  1  9  1  0
  1 27  1  0
  2  3  2  0
  2  7  1  0
  3  4  1  0
  3 10  1  0
  4  5  2  0
  4 11  1  0
  5  6  1  0
  5 12  1  0
  6  7  2  0
  6 13  1  0
  7 14  1  0
 15 22  1  0
 15 16  1  0
 15 23  1  0
 15 24  1  0
 16 17  1  0
 16 25  1  0
 16 26  1  0
 17 18  1  0
 17 21  1  0
 18 19  1  0
 18 28  1  0
 18 29  1  0
 19 20  1  0
 19 30  1  0
 19 31  1  0
 20 21  1  0
 20 32  1  0
 20 33  1  0
 21 22  1  0
 21 34  1  0
 22 35  1  0
 22 36  1  0
M  RAD  1  17   2
M  END
>  <reaction>  (15) 
rxn_569

>  <mol_properties>  (15) 
{"0": {"label": "*1", "atom_type": "Cs"}, "1": {"label": "*0", "atom_type": "Cd"}, "16": {"label": "*3", "atom_type": "Cs"}, "20": {"label": "*4", "atom_type": "Cs"}, "26": {"label": "*2", "atom_type": "H0"}}

>  <type>  (15) 
unop_11

>  <geom_source>  (15) 
Heuristics

$$$$

     RDKit          3D

 36 37  0  0  0  0  0  0  0  0999 V2000
   -1.6335    0.2773    0.7033 C   0  0  0  0  0  0  0  0  0  0  0  0
   -1.6509   -1.2106    0.4861 C   0  0  0  0  0  0  0  0  0  0  0  0
   -2.5516   -2.0215    1.1699 C   0  0  0  0  0  0  0  0  0  0  0  0
   -2.5904   -3.3896    0.9493 C   0  0  0  0  0  0  0  0  0  0  0  0
   -1.7238   -3.9732    0.0379 C   0  0  0  0  0  0  0  0  0  0  0  0
   -0.8190   -3.1772   -0.6478 C   0  0  0  0  0  0  0  0  0  0  0  0
   -0.7846   -1.8097   -0.4232 C   0  0  0  0  0  0  0  0  0  0  0  0
   -1.9452    0.5340    1.7163 H   0  0  0  0  0  0  0  0  0  0  0  0
   -2.3167    0.7771    0.0120 H   0  0  0  0  0  0  0  0  0  0  0  0
   -3.2308   -1.5747    1.8873 H   0  0  0  0  0  0  0  0  0  0  0  0
   -3.2981   -4.0023    1.4940 H   0  0  0  0  0  0  0  0  0  0  0  0
   -1.7506   -5.0417   -0.1340 H   0  0  0  0  0  0  0  0  0  0  0  0
   -0.1342   -3.6229   -1.3585 H   0  0  0  0  0  0  0  0  0  0  0  0
   -0.0711   -1.1959   -0.9615 H   0  0  0  0  0  0  0  0  0  0  0  0
    1.7195    0.1350   -1.6087 C   0  0  0  0  0  0  0  0  0  0  0  0
    1.7195    0.1350   -0.0823 C   0  0  0  0  0  0  0  0  0  0  0  0
    0.7561    1.2697    0.3061 C   0  0  0  0  0  3  0  0  0  0  0  0
    1.2089    2.1083    1.5105 C   0  0  0  0  0  0  0  0  0  0  0  0
    2.0209    3.2465    0.8912 C   0  0  0  0  0  0  0  0  0  0  0  0
    1.2089    3.6061   -0.3537 C   0  0  0  0  0  0  0  0  0  0  0  0
    0.7561    2.2493   -0.9131 C   0  0  0  0  0  0  0  0  0  0  0  0
    1.7195    1.6256   -1.9376 C   0  0  0  0  0  0  0  0  0  0  0  0
    2.5643   -0.4032   -2.0411 H   0  0  0  0  0  0  0  0  0  0  0  0
    0.8036   -0.3319   -1.9838 H   0  0  0  0  0  0  0  0  0  0  0  0
    1.4352   -0.8234    0.3543 H   0  0  0  0  0  0  0  0  0  0  0  0
    2.7276    0.3676    0.2770 H   0  0  0  0  0  0  0  0  0  0  0  0
   -0.4389    0.7734    0.5048 H   0  0  0  0  0  0  0  0  0  0  0  0
    0.3411    2.5251    2.0290 H   0  0  0  0  0  0  0  0  0  0  0  0
    1.7720    1.5216    2.2388 H   0  0  0  0  0  0  0  0  0  0  0  0
    3.0120    2.8846    0.6004 H   0  0  0  0  0  0  0  0  0  0  0  0
    2.1688    4.0888    1.5679 H   0  0  0  0  0  0  0  0  0  0  0  0
    0.3411    4.2022   -0.0584 H   0  0  0  0  0  0  0  0  0  0  0  0
    1.7720    4.1909   -1.0836 H   0  0  0  0  0  0  0  0  0  0  0  0
   -0.2398    2.3218   -1.3527 H   0  0  0  0  0  0  0  0  0  0  0  0
    1.4352    1.8454   -2.9675 H   0  0  0  0  0  0  0  0  0  0  0  0
    2.7276    2.0265   -1.7879 H   0  0  0  0  0  0  0  0  0  0  0  0
  1  2  1  0
  1  8  1  0
  1  9  1  0
  1 27  1  0
  2  3  2  0
  2  7  1  0
  3  4  1  0
  3 10  1  0
  4  5  2  0
  4 11  1  0
  5  6  1  0
  5 12  1  0
  6  7  2  0
  6 13  1  0
  7 14  1  0
 15 22  1  0
 15 16  1  0
 15 23  1  0
 15 24  1  0
 16 17  1  0
 16 25  1  0
 16 26  1  0
 17 18  1  0
 17 21  1  0
 18 19  1  0
 18 28  1  0
 18 29  1  0
 19 20  1  0
 19 30  1  0
 19 31  1  0
 20 21  1  0
 20 32  1  0
 20 33  1  0
 21 22  1  0
 21 34  1  0
 22 35  1  0
 22 36  1  0
M  RAD  1  17   2
M  END
>  <reaction>  (16) 
rxn_569

>  <mol_properties>  (16) 
{"0": {"label": "*1", "atom_type": "Cs"}, "1": {"label": "*0", "atom_type": "Cd"}, "16": {"label": "*3", "atom_type": "Cs"}, "20": {"label": "*4", "atom_type": "Cs"}, "26": {"label": "*2", "atom_type": "H0"}}

>  <type>  (16) 
unop_12

>  <geom_source>  (16) 
Heuristics

$$$$

     RDKit          3D

 36 37  0  0  0  0  0  0  0  0999 V2000
   -1.4097    0.1362    1.0695 C   0  0  0  0  0  0  0  0  0  0  0  0
   -2.4224    1.2673    0.8461 C   0  0  0  0  0  0  0  0  0  0  0  0
   -1.9481   -0.9902    1.9616 C   0  0  0  0  0  0  0  0  0  0  0  0
   -3.0561    1.0036   -0.5066 C   0  0  0  0  0  0  0  0  0  0  0  0
   -2.4063   -2.0890    1.0215 C   0  0  0  0  0  0  0  0  0  0  0  0
   -1.9868    0.2902   -1.3120 C   0  0  0  0  0  0  0  0  0  0  0  0
   -1.5132   -1.9639   -0.1981 C   0  0  0  0  0  0  0  0  0  0  0  0
    1.3893   -0.8569    0.1953 C   0  0  0  0  0  0  0  0  0  0  0  0
   -1.1351   -0.4839   -0.3023 C   0  0  0  0  0  3  0  0  0  0  0  0
    2.4667    0.0588   -0.3016 C   0  0  0  0  0  0  0  0  0  0  0  0
    2.2037    1.4258   -0.4823 C   0  0  0  0  0  0  0  0  0  0  0  0
    3.7637   -0.4304   -0.5264 C   0  0  0  0  0  0  0  0  0  0  0  0
    3.2192    2.2866   -0.9116 C   0  0  0  0  0  0  0  0  0  0  0  0
    4.5039    1.7903   -1.1506 C   0  0  0  0  0  0  0  0  0  0  0  0
    4.7765    0.4333   -0.9557 C   0  0  0  0  0  0  0  0  0  0  0  0
   -0.4690    0.5460    1.4987 H   0  0  0  0  0  0  0  0  0  0  0  0
   -1.8799    2.2379    0.8062 H   0  0  0  0  0  0  0  0  0  0  0  0
   -3.1932    1.3363    1.6435 H   0  0  0  0  0  0  0  0  0  0  0  0
   -3.9389    0.3383   -0.3839 H   0  0  0  0  0  0  0  0  0  0  0  0
   -3.3733    1.9483   -0.9989 H   0  0  0  0  0  0  0  0  0  0  0  0
   -2.7721   -0.6681    2.6340 H   0  0  0  0  0  0  0  0  0  0  0  0
   -1.1197   -1.3801    2.5940 H   0  0  0  0  0  0  0  0  0  0  0  0
   -3.4653   -1.9153    0.7297 H   0  0  0  0  0  0  0  0  0  0  0  0
   -2.3143   -3.0920    1.4917 H   0  0  0  0  0  0  0  0  0  0  0  0
   -1.3368    1.0446   -1.8055 H   0  0  0  0  0  0  0  0  0  0  0  0
   -2.4360   -0.3516   -2.1002 H   0  0  0  0  0  0  0  0  0  0  0  0
   -0.5822   -2.5472   -0.0306 H   0  0  0  0  0  0  0  0  0  0  0  0
   -2.0138   -2.3606   -1.1075 H   0  0  0  0  0  0  0  0  0  0  0  0
    1.4256   -0.9029    1.3038 H   0  0  0  0  0  0  0  0  0  0  0  0
    1.5260   -1.8798   -0.2156 H   0  0  0  0  0  0  0  0  0  0  0  0
    0.2187   -0.4270   -0.1739 H   0  0  0  0  0  0  0  0  0  0  0  0
    1.2153    1.8252   -0.2914 H   0  0  0  0  0  0  0  0  0  0  0  0
    3.0111    3.3390   -1.0554 H   0  0  0  0  0  0  0  0  0  0  0  0
    5.2890    2.4579   -1.4815 H   0  0  0  0  0  0  0  0  0  0  0  0
    5.7735    0.0514   -1.1337 H   0  0  0  0  0  0  0  0  0  0  0  0
    3.9897   -1.4781   -0.3703 H   0  0  0  0  0  0  0  0  0  0  0  0
  1  2  1  0
  1  3  1  0
  1  9  1  0
  1 16  1  0
  2  4  1  0
  2 17  1  0
  2 18  1  0
  3  5  1  0
  3 21  1  0
  3 22  1  0
  4  6  1  0
  4 19  1  0
  4 20  1  0
  5  7  1  0
  5 23  1  0
  5 24  1  0
  6  9  1  0
  6 25  1  0
  6 26  1  0
  7  9  1  0
  7 27  1  0
  7 28  1  0
  8 10  1  0
  8 29  1  0
  8 30  1  0
  8 31  1  0
 10 11  2  0
 10 12  1  0
 11 13  1  0
 11 32  1  0
 12 15  2  0
 12 36  1  0
 13 14  2  0
 13 33  1  0
 14 15  1  0
 14 34  1  0
 15 35  1  0
M  RAD  1   9   2
M  END
>  <reaction>  (17) 
rxn_569

>  <mol_properties>  (17) 
{"0": {"label": "*1", "atom_type": "Cs"}, "1": {"label": "*0", "atom_type": "Cd"}, "16": {"label": "*3", "atom_type": "Cs"}, "20": {"label": "*4", "atom_type": "Cs"}, "26": {"label": "*2", "atom_type": "H0"}}

>  <type>  (17) 
unop_13

>  <geom_source>  (17) 
AutoTST

$$$$
