
     RDKit          3D

 10  9  0  0  0  0  0  0  0  0999 V2000
    1.8334    0.0847   -0.1062 C   0  0  0  0  0  0  0  0  0  0  0  0
    0.5993   -0.4071   -0.0750 C   0  0  0  0  0  0  0  0  0  0  0  0
   -0.5993    0.4071    0.0750 C   0  0  0  0  0  0  0  0  0  0  0  0
   -1.8334   -0.0847    0.1062 C   0  0  0  0  0  0  0  0  0  0  0  0
    2.0179    1.1498   -0.0189 H   0  0  0  0  0  0  0  0  0  0  0  0
    2.6972   -0.5572   -0.2194 H   0  0  0  0  0  0  0  0  0  0  0  0
    0.4465   -1.4793   -0.1649 H   0  0  0  0  0  0  0  0  0  0  0  0
   -0.4465    1.4793    0.1649 H   0  0  0  0  0  0  0  0  0  0  0  0
   -2.0179   -1.1498    0.0189 H   0  0  0  0  0  0  0  0  0  0  0  0
   -2.6972    0.5572    0.2194 H   0  0  0  0  0  0  0  0  0  0  0  0
  1  2  2  3
  1  5  1  0
  1  6  1  0
  2  3  1  0
  2  7  1  0
  3  4  2  3
  3  8  1  0
  4  9  1  0
  4 10  1  0
M  END
>  <reaction>  (1) 
rxn_1655

>  <mol_properties>  (1) 
{"2": {"label": "donator", "atom_type": "Cd"}, "7": {"label": "d_hydrogen", "atom_type": "H0"}}

>  <type>  (1) 
r1h

$$$$

     RDKit          3D

 15 14  0  0  0  0  0  0  0  0999 V2000
    2.4381    0.5770   -0.2356 C   0  0  0  0  0  0  0  0  0  0  0  0
    1.4430   -0.3367   -0.1409 C   0  0  0  0  0  0  0  0  0  0  0  0
    0.0521   -0.0957   -0.0045 C   0  0  0  0  0  3  0  0  0  0  0  0
   -0.5167    1.2867    0.0548 C   0  0  0  0  0  0  0  0  0  0  0  0
   -0.8226   -1.2147    0.0778 C   0  0  0  0  0  0  0  0  0  0  0  0
   -2.1666   -1.1669    0.2092 C   0  0  0  0  0  0  0  0  0  0  0  0
    3.4666    0.2585   -0.3369 H   0  0  0  0  0  0  0  0  0  0  0  0
    2.2594    1.6438   -0.2152 H   0  0  0  0  0  0  0  0  0  0  0  0
    1.7306   -1.3845   -0.1719 H   0  0  0  0  0  0  0  0  0  0  0  0
   -1.2300    1.4469   -0.7583 H   0  0  0  0  0  0  0  0  0  0  0  0
    0.2481    2.0557   -0.0178 H   0  0  0  0  0  0  0  0  0  0  0  0
   -1.0592    1.4421    0.9914 H   0  0  0  0  0  0  0  0  0  0  0  0
   -0.3519   -2.1929    0.0292 H   0  0  0  0  0  0  0  0  0  0  0  0
   -2.7080   -0.2310    0.2646 H   0  0  0  0  0  0  0  0  0  0  0  0
   -2.7513   -2.0751    0.2638 H   0  0  0  0  0  0  0  0  0  0  0  0
  1  2  2  3
  1  7  1  0
  1  8  1  0
  2  3  1  0
  2  9  1  0
  3  4  1  0
  3  5  1  0
  4 10  1  0
  4 11  1  0
  4 12  1  0
  5  6  2  3
  5 13  1  0
  6 14  1  0
  6 15  1  0
M  RAD  1   3   2
M  END
>  <reaction>  (2) 
rxn_1655

>  <mol_properties>  (2) 
{"2": {"label": "acceptor", "atom_type": "Cs"}}

>  <type>  (2) 
r2

$$$$

     RDKit          3D

 16 15  0  0  0  0  0  0  0  0999 V2000
    1.7961   -0.3807    1.6176 C   0  0  0  0  0  0  0  0  0  0  0  0
    0.8562   -0.8708    0.8256 C   0  0  0  0  0  0  0  0  0  0  0  0
    0.0895   -0.0826   -0.2048 C   0  0  0  0  0  0  0  0  0  0  0  0
   -1.4061   -0.1111    0.0982 C   0  0  0  0  0  0  0  0  0  0  0  0
    0.4476   -0.5902   -1.5797 C   0  0  0  0  0  0  0  0  0  0  0  0
   -0.3793   -1.1113   -2.4728 C   0  0  0  0  0  0  0  0  0  0  0  0
    2.3110   -1.0032    2.3386 H   0  0  0  0  0  0  0  0  0  0  0  0
    2.0846    0.6643    1.5737 H   0  0  0  0  0  0  0  0  0  0  0  0
    0.5921   -1.9241    0.8925 H   0  0  0  0  0  0  0  0  0  0  0  0
    0.4358    0.9557   -0.1462 H   0  0  0  0  0  0  0  0  0  0  0  0
   -1.5968    0.3080    1.0865 H   0  0  0  0  0  0  0  0  0  0  0  0
   -1.9674    0.4693   -0.6359 H   0  0  0  0  0  0  0  0  0  0  0  0
   -1.7902   -1.1338    0.0883 H   0  0  0  0  0  0  0  0  0  0  0  0
    1.5049   -0.5197   -1.8214 H   0  0  0  0  0  0  0  0  0  0  0  0
   -1.4421   -1.2131   -2.2889 H   0  0  0  0  0  0  0  0  0  0  0  0
   -0.0162   -1.4558   -3.4328 H   0  0  0  0  0  0  0  0  0  0  0  0
  1  2  2  3
  1  7  1  0
  1  8  1  0
  2  3  1  0
  2  9  1  0
  3  4  1  0
  3  5  1  0
  3 10  1  0
  4 11  1  0
  4 12  1  0
  4 13  1  0
  5  6  2  3
  5 14  1  0
  6 15  1  0
  6 16  1  0
M  END
>  <reaction>  (3) 
rxn_1655

>  <mol_properties>  (3) 
{"0": {"label": "a_hydrogen", "atom_type": "H0"}, "3": {"label": "acceptor", "atom_type": "Cs"}}

>  <type>  (3) 
r2h

$$$$

     RDKit          3D

 25 23  0  0  0  0  0  0  0  0999 V2000
    1.3860   -2.9594   -0.9512 C   0  0  0  0  0  0  0  0  0  0  0  0
    1.2199   -2.2060    0.1447 C   0  0  0  0  0  0  0  0  0  0  0  0
   -0.0238   -1.6435    0.5499 C   0  0  0  0  0  3  0  0  0  0  0  0
   -1.1398   -2.0108    1.1311 C   0  0  0  0  0  0  0  0  0  0  0  0
    0.5462   -3.2259   -1.5810 H   0  0  0  0  0  0  0  0  0  0  0  0
    2.3648   -3.3214   -1.2368 H   0  0  0  0  0  0  0  0  0  0  0  0
    2.0904   -1.9308    0.7347 H   0  0  0  0  0  0  0  0  0  0  0  0
   -0.1109   -0.2152    0.1909 H   0  0  0  0  0  0  0  0  0  0  0  0
   -1.2797   -3.0229    1.5050 H   0  0  0  0  0  0  0  0  0  0  0  0
   -1.9608   -1.3130    1.2629 H   0  0  0  0  0  0  0  0  0  0  0  0
   -2.4485    1.8118    0.7740 C   0  0  0  0  0  0  0  0  0  0  0  0
   -1.6476    1.2474   -0.1247 C   0  0  0  0  0  0  0  0  0  0  0  0
   -0.1895    1.0174    0.0051 C   0  0  0  0  0  0  0  0  0  0  0  0
    0.4773    1.5914    1.2344 C   0  0  0  0  0  0  0  0  0  0  0  0
    0.5370    1.1768   -1.2770 C   0  0  0  0  0  0  0  0  0  0  0  0
    1.7640    1.6597   -1.4403 C   0  0  0  0  0  0  0  0  0  0  0  0
   -3.5089    1.9149    0.5834 H   0  0  0  0  0  0  0  0  0  0  0  0
   -2.0818    2.1984    1.7167 H   0  0  0  0  0  0  0  0  0  0  0  0
   -2.0854    0.8912   -1.0541 H   0  0  0  0  0  0  0  0  0  0  0  0
    1.5032    1.2312    1.3200 H   0  0  0  0  0  0  0  0  0  0  0  0
   -0.0516    1.2867    2.1376 H   0  0  0  0  0  0  0  0  0  0  0  0
    0.5008    2.6837    1.1994 H   0  0  0  0  0  0  0  0  0  0  0  0
   -0.0017    0.8283   -2.1547 H   0  0  0  0  0  0  0  0  0  0  0  0
    2.3563    2.0320   -0.6137 H   0  0  0  0  0  0  0  0  0  0  0  0
    2.2141    1.7074   -2.4233 H   0  0  0  0  0  0  0  0  0  0  0  0
  1  2  2  3
  1  5  1  0
  1  6  1  0
  2  3  1  0
  2  7  1  0
  3  4  2  3
  4  9  1  0
  4 10  1  0
  8 13  1  0
 11 12  2  3
 11 17  1  0
 11 18  1  0
 12 13  1  0
 12 19  1  0
 13 14  1  0
 13 15  1  0
 14 20  1  0
 14 21  1  0
 14 22  1  0
 15 16  2  3
 15 23  1  0
 16 24  1  0
 16 25  1  0
M  RAD  1   3   2
M  END
>  <reaction>  (4) 
rxn_1655

>  <mol_properties>  (4) 
{"1": {"label": "*4", "atom_type": "Cd"}, "2": {"label": "*3", "atom_type": "Cd"}, "7": {"label": "*2", "atom_type": "H0"}, "11": {"label": "*0", "atom_type": "Cd"}, "12": {"label": "*1", "atom_type": "Cs"}}

>  <type>  (4) 
ts

$$$$

     RDKit          3D

 25 23  0  0  0  0  0  0  0  0999 V2000
    0.0575   -2.5958   -1.1065 C   0  0  0  0  0  0  0  0  0  0  0  0
    0.0575   -2.5958    0.2223 C   0  0  0  0  0  0  0  0  0  0  0  0
    0.0575   -1.3885    1.0376 C   0  0  0  0  0  0  0  0  0  0  0  0
    0.0575   -1.3885    2.3665 C   0  0  0  0  0  0  0  0  0  0  0  0
    0.0575   -1.6692   -1.6700 H   0  0  0  0  0  0  0  0  0  0  0  0
    0.0575   -3.5174   -1.6737 H   0  0  0  0  0  0  0  0  0  0  0  0
    0.0575   -3.5408    0.7590 H   0  0  0  0  0  0  0  0  0  0  0  0
    0.0575   -0.2546    0.3937 H   0  0  0  0  0  0  0  0  0  0  0  0
    0.0575   -2.3151    2.9300 H   0  0  0  0  0  0  0  0  0  0  0  0
    0.0575   -0.4670    2.9337 H   0  0  0  0  0  0  0  0  0  0  0  0
   -1.6116    1.6094    1.4814 C   0  0  0  0  0  0  0  0  0  0  0  0
   -0.6617    1.8949    0.6055 C   0  0  0  0  0  0  0  0  0  0  0  0
    0.0575    0.8892   -0.2558 C   0  0  0  0  0  3  0  0  0  0  0  0
    1.5566    0.9095    0.0297 C   0  0  0  0  0  0  0  0  0  0  0  0
   -0.2961    1.1366   -1.7015 C   0  0  0  0  0  0  0  0  0  0  0  0
    0.5409    1.4380   -2.6821 C   0  0  0  0  0  0  0  0  0  0  0  0
   -2.0902    2.3818    2.0703 H   0  0  0  0  0  0  0  0  0  0  0  0
   -1.9450    0.5895    1.6420 H   0  0  0  0  0  0  0  0  0  0  0  0
   -0.3521    2.9285    0.4660 H   0  0  0  0  0  0  0  0  0  0  0  0
    2.0833    0.1738   -0.5804 H   0  0  0  0  0  0  0  0  0  0  0  0
    1.7418    0.6814    1.0796 H   0  0  0  0  0  0  0  0  0  0  0  0
    1.9839    1.8929   -0.1799 H   0  0  0  0  0  0  0  0  0  0  0  0
   -1.3584    1.0676   -1.9205 H   0  0  0  0  0  0  0  0  0  0  0  0
    1.6093    1.5262   -2.5258 H   0  0  0  0  0  0  0  0  0  0  0  0
    0.1807    1.6061   -3.6892 H   0  0  0  0  0  0  0  0  0  0  0  0
  1  2  2  3
  1  5  1  0
  1  6  1  0
  2  3  1  0
  2  7  1  0
  3  4  2  3
  3  8  1  0
  4  9  1  0
  4 10  1  0
 11 12  2  3
 11 17  1  0
 11 18  1  0
 12 13  1  0
 12 19  1  0
 13 14  1  0
 13 15  1  0
 14 20  1  0
 14 21  1  0
 14 22  1  0
 15 16  2  3
 15 23  1  0
 16 24  1  0
 16 25  1  0
M  RAD  1  13   2
M  END
>  <reaction>  (5) 
rxn_1655

>  <mol_properties>  (5) 
{"1": {"label": "*4", "atom_type": "Cd"}, "2": {"label": "*3", "atom_type": "Cd"}, "7": {"label": "*2", "atom_type": "H0"}, "11": {"label": "*0", "atom_type": "Cd"}, "12": {"label": "*1", "atom_type": "Cs"}}

>  <type>  (5) 
unop_1

>  <geom_source>  (5) 
Heuristics

$$$$

     RDKit          3D

 25 23  0  0  0  0  0  0  0  0999 V2000
    0.0547   -2.5561   -1.0336 C   0  0  0  0  0  0  0  0  0  0  0  0
    0.0547   -2.5561    0.2953 C   0  0  0  0  0  0  0  0  0  0  0  0
    0.0547   -1.3487    1.1106 C   0  0  0  0  0  0  0  0  0  0  0  0
    0.0547   -1.3487    2.4394 C   0  0  0  0  0  0  0  0  0  0  0  0
    0.0547   -1.6295   -1.5971 H   0  0  0  0  0  0  0  0  0  0  0  0
    0.0548   -3.4776   -1.6008 H   0  0  0  0  0  0  0  0  0  0  0  0
    0.0547   -3.5010    0.8319 H   0  0  0  0  0  0  0  0  0  0  0  0
    0.0547   -0.2148    0.4666 H   0  0  0  0  0  0  0  0  0  0  0  0
    0.0547   -2.2753    3.0029 H   0  0  0  0  0  0  0  0  0  0  0  0
    0.0547   -0.4272    3.0066 H   0  0  0  0  0  0  0  0  0  0  0  0
   -1.7582   -0.0876   -1.5979 C   0  0  0  0  0  0  0  0  0  0  0  0
   -1.1909    0.9644   -1.0301 C   0  0  0  0  0  0  0  0  0  0  0  0
    0.0547    0.9290   -0.1829 C   0  0  0  0  0  3  0  0  0  0  0  0
   -0.2349    1.4479    1.2229 C   0  0  0  0  0  0  0  0  0  0  0  0
    1.1572    1.6713   -0.8968 C   0  0  0  0  0  0  0  0  0  0  0  0
    1.8077    2.7381   -0.4589 C   0  0  0  0  0  0  0  0  0  0  0  0
   -2.6552    0.0067   -2.1971 H   0  0  0  0  0  0  0  0  0  0  0  0
   -1.3452   -1.0841   -1.4825 H   0  0  0  0  0  0  0  0  0  0  0  0
   -1.6286    1.9509   -1.1677 H   0  0  0  0  0  0  0  0  0  0  0  0
    0.6594    1.4124    1.8473 H   0  0  0  0  0  0  0  0  0  0  0  0
   -1.0081    0.8413    1.6949 H   0  0  0  0  0  0  0  0  0  0  0  0
   -0.5894    2.4809    1.1958 H   0  0  0  0  0  0  0  0  0  0  0  0
    1.4056    1.2702   -1.8760 H   0  0  0  0  0  0  0  0  0  0  0  0
    1.6021    3.1870    0.5054 H   0  0  0  0  0  0  0  0  0  0  0  0
    2.5807    3.2031   -1.0575 H   0  0  0  0  0  0  0  0  0  0  0  0
  1  2  2  3
  1  5  1  0
  1  6  1  0
  2  3  1  0
  2  7  1  0
  3  4  2  3
  3  8  1  0
  4  9  1  0
  4 10  1  0
 11 12  2  3
 11 17  1  0
 11 18  1  0
 12 13  1  0
 12 19  1  0
 13 14  1  0
 13 15  1  0
 14 20  1  0
 14 21  1  0
 14 22  1  0
 15 16  2  3
 15 23  1  0
 16 24  1  0
 16 25  1  0
M  RAD  1  13   2
M  END
>  <reaction>  (6) 
rxn_1655

>  <mol_properties>  (6) 
{"1": {"label": "*4", "atom_type": "Cd"}, "2": {"label": "*3", "atom_type": "Cd"}, "7": {"label": "*2", "atom_type": "H0"}, "11": {"label": "*0", "atom_type": "Cd"}, "12": {"label": "*1", "atom_type": "Cs"}}

>  <type>  (6) 
unop_2

>  <geom_source>  (6) 
Heuristics

$$$$

     RDKit          3D

 25 23  0  0  0  0  0  0  0  0999 V2000
    0.1337   -2.5810   -1.1542 C   0  0  0  0  0  0  0  0  0  0  0  0
    0.1337   -2.5810    0.1747 C   0  0  0  0  0  0  0  0  0  0  0  0
    0.1337   -1.3737    0.9899 C   0  0  0  0  0  0  0  0  0  0  0  0
    0.1337   -1.3737    2.3188 C   0  0  0  0  0  0  0  0  0  0  0  0
    0.1337   -1.6544   -1.7177 H   0  0  0  0  0  0  0  0  0  0  0  0
    0.1337   -3.5026   -1.7214 H   0  0  0  0  0  0  0  0  0  0  0  0
    0.1337   -3.5260    0.7113 H   0  0  0  0  0  0  0  0  0  0  0  0
    0.1337   -0.2398    0.3460 H   0  0  0  0  0  0  0  0  0  0  0  0
    0.1337   -2.3003    2.8823 H   0  0  0  0  0  0  0  0  0  0  0  0
    0.1337   -0.4522    2.8860 H   0  0  0  0  0  0  0  0  0  0  0  0
    0.1022    1.8250    2.0360 C   0  0  0  0  0  0  0  0  0  0  0  0
    0.1337    2.0049    0.7254 C   0  0  0  0  0  0  0  0  0  0  0  0
    0.1337    0.9040   -0.3035 C   0  0  0  0  0  3  0  0  0  0  0  0
    1.3923    0.9711   -1.1643 C   0  0  0  0  0  0  0  0  0  0  0  0
   -1.1524    0.9649   -1.0899 C   0  0  0  0  0  0  0  0  0  0  0  0
   -1.2756    1.1465   -2.3956 C   0  0  0  0  0  0  0  0  0  0  0  0
    0.1035    2.6618    2.7231 H   0  0  0  0  0  0  0  0  0  0  0  0
    0.0750    0.8310    2.4700 H   0  0  0  0  0  0  0  0  0  0  0  0
    0.1577    3.0149    0.3218 H   0  0  0  0  0  0  0  0  0  0  0  0
    1.4068    0.1682   -1.9033 H   0  0  0  0  0  0  0  0  0  0  0  0
    2.2803    0.8783   -0.5385 H   0  0  0  0  0  0  0  0  0  0  0  0
    1.4552    1.9233   -1.6960 H   0  0  0  0  0  0  0  0  0  0  0  0
   -2.0508    0.8611   -0.4871 H   0  0  0  0  0  0  0  0  0  0  0  0
   -0.4187    1.2615   -3.0483 H   0  0  0  0  0  0  0  0  0  0  0  0
   -2.2517    1.1838   -2.8624 H   0  0  0  0  0  0  0  0  0  0  0  0
  1  2  2  3
  1  5  1  0
  1  6  1  0
  2  3  1  0
  2  7  1  0
  3  4  2  3
  3  8  1  0
  4  9  1  0
  4 10  1  0
 11 12  2  3
 11 17  1  0
 11 18  1  0
 12 13  1  0
 12 19  1  0
 13 14  1  0
 13 15  1  0
 14 20  1  0
 14 21  1  0
 14 22  1  0
 15 16  2  3
 15 23  1  0
 16 24  1  0
 16 25  1  0
M  RAD  1  13   2
M  END
>  <reaction>  (7) 
rxn_1655

>  <mol_properties>  (7) 
{"1": {"label": "*4", "atom_type": "Cd"}, "2": {"label": "*3", "atom_type": "Cd"}, "7": {"label": "*2", "atom_type": "H0"}, "11": {"label": "*0", "atom_type": "Cd"}, "12": {"label": "*1", "atom_type": "Cs"}}

>  <type>  (7) 
unop_3

>  <geom_source>  (7) 
Heuristics

$$$$

     RDKit          3D

 25 23  0  0  0  0  0  0  0  0999 V2000
   -0.2128   -2.5058   -1.1229 C   0  0  0  0  0  0  0  0  0  0  0  0
   -0.2128   -2.5058    0.2060 C   0  0  0  0  0  0  0  0  0  0  0  0
   -0.2128   -1.2985    1.0213 C   0  0  0  0  0  0  0  0  0  0  0  0
   -0.2128   -1.2985    2.3502 C   0  0  0  0  0  0  0  0  0  0  0  0
   -0.2128   -1.5792   -1.6863 H   0  0  0  0  0  0  0  0  0  0  0  0
   -0.2128   -3.4273   -1.6901 H   0  0  0  0  0  0  0  0  0  0  0  0
   -0.2128   -3.4507    0.7426 H   0  0  0  0  0  0  0  0  0  0  0  0
   -0.2128   -0.1645    0.3774 H   0  0  0  0  0  0  0  0  0  0  0  0
   -0.2128   -2.2251    2.9136 H   0  0  0  0  0  0  0  0  0  0  0  0
   -0.2128   -0.3769    2.9174 H   0  0  0  0  0  0  0  0  0  0  0  0
    0.7576   -0.4270   -2.1170 C   0  0  0  0  0  0  0  0  0  0  0  0
    0.5064    0.7547   -1.5772 C   0  0  0  0  0  0  0  0  0  0  0  0
   -0.2128    0.9792   -0.2722 C   0  0  0  0  0  3  0  0  0  0  0  0
   -1.4760    1.8080   -0.4888 C   0  0  0  0  0  0  0  0  0  0  0  0
    0.7500    1.5757    0.7245 C   0  0  0  0  0  0  0  0  0  0  0  0
    0.6352    2.7442    1.3364 C   0  0  0  0  0  0  0  0  0  0  0  0
    1.2812   -0.5194   -3.0602 H   0  0  0  0  0  0  0  0  0  0  0  0
    0.4466   -1.3473   -1.6338 H   0  0  0  0  0  0  0  0  0  0  0  0
    0.8343    1.6588   -2.0859 H   0  0  0  0  0  0  0  0  0  0  0  0
   -2.0104    1.9634    0.4499 H   0  0  0  0  0  0  0  0  0  0  0  0
   -2.1438    1.2994   -1.1845 H   0  0  0  0  0  0  0  0  0  0  0  0
   -1.2367    2.7874   -0.9095 H   0  0  0  0  0  0  0  0  0  0  0  0
    1.6246    0.9621    0.9243 H   0  0  0  0  0  0  0  0  0  0  0  0
   -0.2099    3.4025    1.1751 H   0  0  0  0  0  0  0  0  0  0  0  0
    1.3921    3.0850    2.0315 H   0  0  0  0  0  0  0  0  0  0  0  0
  1  2  2  3
  1  5  1  0
  1  6  1  0
  2  3  1  0
  2  7  1  0
  3  4  2  3
  3  8  1  0
  4  9  1  0
  4 10  1  0
 11 12  2  3
 11 17  1  0
 11 18  1  0
 12 13  1  0
 12 19  1  0
 13 14  1  0
 13 15  1  0
 14 20  1  0
 14 21  1  0
 14 22  1  0
 15 16  2  3
 15 23  1  0
 16 24  1  0
 16 25  1  0
M  RAD  1  13   2
M  END
>  <reaction>  (8) 
rxn_1655

>  <mol_properties>  (8) 
{"1": {"label": "*4", "atom_type": "Cd"}, "2": {"label": "*3", "atom_type": "Cd"}, "7": {"label": "*2", "atom_type": "H0"}, "11": {"label": "*0", "atom_type": "Cd"}, "12": {"label": "*1", "atom_type": "Cs"}}

>  <type>  (8) 
unop_4

>  <geom_source>  (8) 
Heuristics

$$$$

     RDKit          3D

 25 23  0  0  0  0  0  0  0  0999 V2000
    0.1318   -2.5707   -1.2939 C   0  0  0  0  0  0  0  0  0  0  0  0
    0.1318   -2.5707    0.0350 C   0  0  0  0  0  0  0  0  0  0  0  0
    0.1318   -1.3633    0.8503 C   0  0  0  0  0  0  0  0  0  0  0  0
    0.1318   -1.3633    2.1791 C   0  0  0  0  0  0  0  0  0  0  0  0
    0.1318   -1.6441   -1.8574 H   0  0  0  0  0  0  0  0  0  0  0  0
    0.1318   -3.4922   -1.8611 H   0  0  0  0  0  0  0  0  0  0  0  0
    0.1318   -3.5156    0.5716 H   0  0  0  0  0  0  0  0  0  0  0  0
    0.1318   -0.2294    0.2063 H   0  0  0  0  0  0  0  0  0  0  0  0
    0.1318   -2.2899    2.7426 H   0  0  0  0  0  0  0  0  0  0  0  0
    0.1318   -0.4418    2.7463 H   0  0  0  0  0  0  0  0  0  0  0  0
    1.7563    1.6287    1.3381 C   0  0  0  0  0  0  0  0  0  0  0  0
    0.8509    1.9201    0.4181 C   0  0  0  0  0  0  0  0  0  0  0  0
    0.1318    0.9144   -0.4432 C   0  0  0  0  0  3  0  0  0  0  0  0
    0.4132    1.1716   -1.9211 C   0  0  0  0  0  0  0  0  0  0  0  0
   -1.3343    0.9197   -0.0870 C   0  0  0  0  0  0  0  0  0  0  0  0
   -2.3456    1.1979   -0.8949 C   0  0  0  0  0  0  0  0  0  0  0  0
    2.2367    2.4013    1.9252 H   0  0  0  0  0  0  0  0  0  0  0  0
    2.0510    0.6036    1.5370 H   0  0  0  0  0  0  0  0  0  0  0  0
    0.5752    2.9582    0.2450 H   0  0  0  0  0  0  0  0  0  0  0  0
   -0.0930    0.4386   -2.5513 H   0  0  0  0  0  0  0  0  0  0  0  0
    1.4843    1.1106   -2.1152 H   0  0  0  0  0  0  0  0  0  0  0  0
    0.0749    2.1668   -2.2187 H   0  0  0  0  0  0  0  0  0  0  0  0
   -1.5430    0.6816    0.9528 H   0  0  0  0  0  0  0  0  0  0  0  0
   -2.2016    1.4474   -1.9392 H   0  0  0  0  0  0  0  0  0  0  0  0
   -3.3664    1.1822   -0.5343 H   0  0  0  0  0  0  0  0  0  0  0  0
  1  2  2  3
  1  5  1  0
  1  6  1  0
  2  3  1  0
  2  7  1  0
  3  4  2  3
  3  8  1  0
  4  9  1  0
  4 10  1  0
 11 12  2  3
 11 17  1  0
 11 18  1  0
 12 13  1  0
 12 19  1  0
 13 14  1  0
 13 15  1  0
 14 20  1  0
 14 21  1  0
 14 22  1  0
 15 16  2  3
 15 23  1  0
 16 24  1  0
 16 25  1  0
M  RAD  1  13   2
M  END
>  <reaction>  (9) 
rxn_1655

>  <mol_properties>  (9) 
{"1": {"label": "*4", "atom_type": "Cd"}, "2": {"label": "*3", "atom_type": "Cd"}, "7": {"label": "*2", "atom_type": "H0"}, "11": {"label": "*0", "atom_type": "Cd"}, "12": {"label": "*1", "atom_type": "Cs"}}

>  <type>  (9) 
unop_5

>  <geom_source>  (9) 
Heuristics

$$$$

     RDKit          3D

 25 23  0  0  0  0  0  0  0  0999 V2000
   -0.2048   -2.5266   -1.2530 C   0  0  0  0  0  0  0  0  0  0  0  0
   -0.2048   -2.5266    0.0758 C   0  0  0  0  0  0  0  0  0  0  0  0
   -0.2048   -1.3192    0.8911 C   0  0  0  0  0  0  0  0  0  0  0  0
   -0.2048   -1.3192    2.2200 C   0  0  0  0  0  0  0  0  0  0  0  0
   -0.2048   -1.6000   -1.8165 H   0  0  0  0  0  0  0  0  0  0  0  0
   -0.2048   -3.4481   -1.8202 H   0  0  0  0  0  0  0  0  0  0  0  0
   -0.2048   -3.4715    0.6124 H   0  0  0  0  0  0  0  0  0  0  0  0
   -0.2048   -0.1853    0.2472 H   0  0  0  0  0  0  0  0  0  0  0  0
   -0.2048   -2.2458    2.7835 H   0  0  0  0  0  0  0  0  0  0  0  0
   -0.2048   -0.3977    2.7872 H   0  0  0  0  0  0  0  0  0  0  0  0
    1.6435   -0.0650   -1.7656 C   0  0  0  0  0  0  0  0  0  0  0  0
    1.0408    0.9939   -1.2496 C   0  0  0  0  0  0  0  0  0  0  0  0
   -0.2048    0.9585   -0.4023 C   0  0  0  0  0  3  0  0  0  0  0  0
   -1.3276    1.7549   -1.0616 C   0  0  0  0  0  0  0  0  0  0  0  0
    0.1360    1.4173    0.9939 C   0  0  0  0  0  0  0  0  0  0  0  0
   -0.3762    2.4569    1.6341 C   0  0  0  0  0  0  0  0  0  0  0  0
    2.5390    0.0295   -2.3670 H   0  0  0  0  0  0  0  0  0  0  0  0
    1.2611   -1.0676   -1.6055 H   0  0  0  0  0  0  0  0  0  0  0  0
    1.4516    1.9857   -1.4264 H   0  0  0  0  0  0  0  0  0  0  0  0
   -2.2380    1.7225   -0.4608 H   0  0  0  0  0  0  0  0  0  0  0  0
   -1.5508    1.3440   -2.0465 H   0  0  0  0  0  0  0  0  0  0  0  0
   -1.0436    2.8017   -1.1918 H   0  0  0  0  0  0  0  0  0  0  0  0
    0.8958    0.8181    1.4889 H   0  0  0  0  0  0  0  0  0  0  0  0
   -1.1323    3.0947    1.1924 H   0  0  0  0  0  0  0  0  0  0  0  0
   -0.0538    2.7066    2.6371 H   0  0  0  0  0  0  0  0  0  0  0  0
  1  2  2  3
  1  5  1  0
  1  6  1  0
  2  3  1  0
  2  7  1  0
  3  4  2  3
  3  8  1  0
  4  9  1  0
  4 10  1  0
 11 12  2  3
 11 17  1  0
 11 18  1  0
 12 13  1  0
 12 19  1  0
 13 14  1  0
 13 15  1  0
 14 20  1  0
 14 21  1  0
 14 22  1  0
 15 16  2  3
 15 23  1  0
 16 24  1  0
 16 25  1  0
M  RAD  1  13   2
M  END
>  <reaction>  (10) 
rxn_1655

>  <mol_properties>  (10) 
{"1": {"label": "*4", "atom_type": "Cd"}, "2": {"label": "*3", "atom_type": "Cd"}, "7": {"label": "*2", "atom_type": "H0"}, "11": {"label": "*0", "atom_type": "Cd"}, "12": {"label": "*1", "atom_type": "Cs"}}

>  <type>  (10) 
unop_6

>  <geom_source>  (10) 
Heuristics

$$$$

     RDKit          3D

 25 23  0  0  0  0  0  0  0  0999 V2000
   -0.1167   -2.5508   -1.3484 C   0  0  0  0  0  0  0  0  0  0  0  0
   -0.1167   -2.5508   -0.0196 C   0  0  0  0  0  0  0  0  0  0  0  0
   -0.1167   -1.3434    0.7957 C   0  0  0  0  0  0  0  0  0  0  0  0
   -0.1167   -1.3434    2.1246 C   0  0  0  0  0  0  0  0  0  0  0  0
   -0.1167   -1.6242   -1.9119 H   0  0  0  0  0  0  0  0  0  0  0  0
   -0.1167   -3.4723   -1.9156 H   0  0  0  0  0  0  0  0  0  0  0  0
   -0.1167   -3.4957    0.5171 H   0  0  0  0  0  0  0  0  0  0  0  0
   -0.1167   -0.2095    0.1518 H   0  0  0  0  0  0  0  0  0  0  0  0
   -0.1167   -2.2700    2.6881 H   0  0  0  0  0  0  0  0  0  0  0  0
   -0.1167   -0.4219    2.6918 H   0  0  0  0  0  0  0  0  0  0  0  0
    2.3081    0.4849   -0.9882 C   0  0  0  0  0  0  0  0  0  0  0  0
    1.3216    1.3249   -0.7196 C   0  0  0  0  0  0  0  0  0  0  0  0
   -0.1167    0.9342   -0.4977 C   0  0  0  0  0  3  0  0  0  0  0  0
   -1.0220    1.6049   -1.5274 C   0  0  0  0  0  0  0  0  0  0  0  0
   -0.4916    1.2278    0.9338 C   0  0  0  0  0  0  0  0  0  0  0  0
   -1.4444    2.0465    1.3521 C   0  0  0  0  0  0  0  0  0  0  0  0
    3.3231    0.8316   -1.1365 H   0  0  0  0  0  0  0  0  0  0  0  0
    2.1352   -0.5830   -1.0707 H   0  0  0  0  0  0  0  0  0  0  0  0
    1.5289    2.3900   -0.6406 H   0  0  0  0  0  0  0  0  0  0  0  0
   -2.0643    1.3160   -1.3822 H   0  0  0  0  0  0  0  0  0  0  0  0
   -0.7224    1.3161   -2.5351 H   0  0  0  0  0  0  0  0  0  0  0  0
   -0.9584    2.6933   -1.4578 H   0  0  0  0  0  0  0  0  0  0  0  0
    0.1150    0.7081    1.6709 H   0  0  0  0  0  0  0  0  0  0  0  0
   -2.0783    2.5963    0.6670 H   0  0  0  0  0  0  0  0  0  0  0  0
   -1.6269    2.1940    2.4091 H   0  0  0  0  0  0  0  0  0  0  0  0
  1  2  2  3
  1  5  1  0
  1  6  1  0
  2  3  1  0
  2  7  1  0
  3  4  2  3
  3  8  1  0
  4  9  1  0
  4 10  1  0
 11 12  2  3
 11 17  1  0
 11 18  1  0
 12 13  1  0
 12 19  1  0
 13 14  1  0
 13 15  1  0
 14 20  1  0
 14 21  1  0
 14 22  1  0
 15 16  2  3
 15 23  1  0
 16 24  1  0
 16 25  1  0
M  RAD  1  13   2
M  END
>  <reaction>  (11) 
rxn_1655

>  <mol_properties>  (11) 
{"1": {"label": "*4", "atom_type": "Cd"}, "2": {"label": "*3", "atom_type": "Cd"}, "7": {"label": "*2", "atom_type": "H0"}, "11": {"label": "*0", "atom_type": "Cd"}, "12": {"label": "*1", "atom_type": "Cs"}}

>  <type>  (11) 
unop_7

>  <geom_source>  (11) 
Heuristics

$$$$

     RDKit          3D

 25 23  0  0  0  0  0  0  0  0999 V2000
    0.0474   -2.6001   -1.1127 C   0  0  0  0  0  0  0  0  0  0  0  0
    0.0474   -2.6001    0.2162 C   0  0  0  0  0  0  0  0  0  0  0  0
    0.0474   -1.3927    1.0314 C   0  0  0  0  0  0  0  0  0  0  0  0
    0.0474   -1.3927    2.3603 C   0  0  0  0  0  0  0  0  0  0  0  0
    0.0474   -1.6735   -1.6762 H   0  0  0  0  0  0  0  0  0  0  0  0
    0.0474   -3.5216   -1.6799 H   0  0  0  0  0  0  0  0  0  0  0  0
    0.0474   -3.5450    0.7528 H   0  0  0  0  0  0  0  0  0  0  0  0
    0.0474   -0.2588    0.3875 H   0  0  0  0  0  0  0  0  0  0  0  0
    0.0474   -2.3193    2.9238 H   0  0  0  0  0  0  0  0  0  0  0  0
    0.0474   -0.4712    2.9275 H   0  0  0  0  0  0  0  0  0  0  0  0
   -2.3893    1.0844    0.3255 C   0  0  0  0  0  0  0  0  0  0  0  0
   -1.1983    1.6307    0.1415 C   0  0  0  0  0  0  0  0  0  0  0  0
    0.0474    0.8850   -0.2620 C   0  0  0  0  0  3  0  0  0  0  0  0
    1.1331    1.0351    0.8001 C   0  0  0  0  0  0  0  0  0  0  0  0
    0.4679    1.3371   -1.6386 C   0  0  0  0  0  0  0  0  0  0  0  0
    1.6176    1.9037   -1.9704 C   0  0  0  0  0  0  0  0  0  0  0  0
   -3.2467    1.6786    0.6155 H   0  0  0  0  0  0  0  0  0  0  0  0
   -2.5498    0.0195    0.1932 H   0  0  0  0  0  0  0  0  0  0  0  0
   -1.0713    2.7024    0.2795 H   0  0  0  0  0  0  0  0  0  0  0  0
    2.0342    0.4861    0.5219 H   0  0  0  0  0  0  0  0  0  0  0  0
    0.7780    0.6508    1.7566 H   0  0  0  0  0  0  0  0  0  0  0  0
    1.4042    2.0841    0.9403 H   0  0  0  0  0  0  0  0  0  0  0  0
   -0.2820    1.1803   -2.4096 H   0  0  0  0  0  0  0  0  0  0  0  0
    2.4017    2.0910   -1.2467 H   0  0  0  0  0  0  0  0  0  0  0  0
    1.8171    2.2008   -2.9922 H   0  0  0  0  0  0  0  0  0  0  0  0
  1  2  2  3
  1  5  1  0
  1  6  1  0
  2  3  1  0
  2  7  1  0
  3  4  2  3
  3  8  1  0
  4  9  1  0
  4 10  1  0
 11 12  2  3
 11 17  1  0
 11 18  1  0
 12 13  1  0
 12 19  1  0
 13 14  1  0
 13 15  1  0
 14 20  1  0
 14 21  1  0
 14 22  1  0
 15 16  2  3
 15 23  1  0
 16 24  1  0
 16 25  1  0
M  RAD  1  13   2
M  END
>  <reaction>  (12) 
rxn_1655

>  <mol_properties>  (12) 
{"1": {"label": "*4", "atom_type": "Cd"}, "2": {"label": "*3", "atom_type": "Cd"}, "7": {"label": "*2", "atom_type": "H0"}, "11": {"label": "*0", "atom_type": "Cd"}, "12": {"label": "*1", "atom_type": "Cs"}}

>  <type>  (12) 
unop_8

>  <geom_source>  (12) 
Heuristics

$$$$

     RDKit          3D

 25 23  0  0  0  0  0  0  0  0999 V2000
    0.0671   -2.5858   -1.0880 C   0  0  0  0  0  0  0  0  0  0  0  0
    0.0671   -2.5858    0.2409 C   0  0  0  0  0  0  0  0  0  0  0  0
    0.0671   -1.3784    1.0562 C   0  0  0  0  0  0  0  0  0  0  0  0
    0.0671   -1.3784    2.3851 C   0  0  0  0  0  0  0  0  0  0  0  0
    0.0671   -1.6592   -1.6514 H   0  0  0  0  0  0  0  0  0  0  0  0
    0.0671   -3.5073   -1.6551 H   0  0  0  0  0  0  0  0  0  0  0  0
    0.0671   -3.5307    0.7775 H   0  0  0  0  0  0  0  0  0  0  0  0
    0.0671   -0.2445    0.4123 H   0  0  0  0  0  0  0  0  0  0  0  0
    0.0671   -2.3050    2.9486 H   0  0  0  0  0  0  0  0  0  0  0  0
    0.0671   -0.4569    2.9523 H   0  0  0  0  0  0  0  0  0  0  0  0
   -2.3461    0.4581   -0.7891 C   0  0  0  0  0  0  0  0  0  0  0  0
   -1.3713    1.2899   -0.4591 C   0  0  0  0  0  0  0  0  0  0  0  0
    0.0671    0.8992   -0.2373 C   0  0  0  0  0  3  0  0  0  0  0  0
    0.5049    1.2405    1.1845 C   0  0  0  0  0  0  0  0  0  0  0  0
    0.9197    1.5294   -1.3106 C   0  0  0  0  0  0  0  0  0  0  0  0
    1.9182    2.3803   -1.1324 C   0  0  0  0  0  0  0  0  0  0  0  0
   -3.3616    0.8045   -0.9349 H   0  0  0  0  0  0  0  0  0  0  0  0
   -2.1630   -0.6026   -0.9247 H   0  0  0  0  0  0  0  0  0  0  0  0
   -1.5875    2.3487   -0.3334 H   0  0  0  0  0  0  0  0  0  0  0  0
    1.5418    0.9478    1.3577 H   0  0  0  0  0  0  0  0  0  0  0  0
   -0.1246    0.7194    1.9062 H   0  0  0  0  0  0  0  0  0  0  0  0
    0.4179    2.3124    1.3765 H   0  0  0  0  0  0  0  0  0  0  0  0
    0.6468    1.2448   -2.3235 H   0  0  0  0  0  0  0  0  0  0  0  0
    2.2338    2.7059   -0.1485 H   0  0  0  0  0  0  0  0  0  0  0  0
    2.4633    2.7832   -1.9767 H   0  0  0  0  0  0  0  0  0  0  0  0
  1  2  2  3
  1  5  1  0
  1  6  1  0
  2  3  1  0
  2  7  1  0
  3  4  2  3
  3  8  1  0
  4  9  1  0
  4 10  1  0
 11 12  2  3
 11 17  1  0
 11 18  1  0
 12 13  1  0
 12 19  1  0
 13 14  1  0
 13 15  1  0
 14 20  1  0
 14 21  1  0
 14 22  1  0
 15 16  2  3
 15 23  1  0
 16 24  1  0
 16 25  1  0
M  RAD  1  13   2
M  END
>  <reaction>  (13) 
rxn_1655

>  <mol_properties>  (13) 
{"1": {"label": "*4", "atom_type": "Cd"}, "2": {"label": "*3", "atom_type": "Cd"}, "7": {"label": "*2", "atom_type": "H0"}, "11": {"label": "*0", "atom_type": "Cd"}, "12": {"label": "*1", "atom_type": "Cs"}}

>  <type>  (13) 
unop_9

>  <geom_source>  (13) 
Heuristics

$$$$

     RDKit          3D

 25 23  0  0  0  0  0  0  0  0999 V2000
    0.0153   -2.5654   -1.3704 C   0  0  0  0  0  0  0  0  0  0  0  0
    0.0153   -2.5654   -0.0415 C   0  0  0  0  0  0  0  0  0  0  0  0
    0.0153   -1.3581    0.7737 C   0  0  0  0  0  0  0  0  0  0  0  0
    0.0153   -1.3581    2.1026 C   0  0  0  0  0  0  0  0  0  0  0  0
    0.0153   -1.6388   -1.9339 H   0  0  0  0  0  0  0  0  0  0  0  0
    0.0153   -3.4870   -1.9376 H   0  0  0  0  0  0  0  0  0  0  0  0
    0.0153   -3.5104    0.4951 H   0  0  0  0  0  0  0  0  0  0  0  0
    0.0153   -0.2242    0.1298 H   0  0  0  0  0  0  0  0  0  0  0  0
    0.0153   -2.2847    2.6661 H   0  0  0  0  0  0  0  0  0  0  0  0
    0.0153   -0.4365    2.6698 H   0  0  0  0  0  0  0  0  0  0  0  0
    2.4373    1.1108    0.1285 C   0  0  0  0  0  0  0  0  0  0  0  0
    1.2610    1.6654   -0.1162 C   0  0  0  0  0  0  0  0  0  0  0  0
    0.0153    0.9196   -0.5197 C   0  0  0  0  0  3  0  0  0  0  0  0
   -0.4798    1.3956   -1.8827 C   0  0  0  0  0  0  0  0  0  0  0  0
   -1.0086    1.0387    0.5819 C   0  0  0  0  0  0  0  0  0  0  0  0
   -2.2162    1.5734    0.4876 C   0  0  0  0  0  0  0  0  0  0  0  0
    3.2953    1.7054    0.4160 H   0  0  0  0  0  0  0  0  0  0  0  0
    2.5849    0.0390    0.0487 H   0  0  0  0  0  0  0  0  0  0  0  0
    1.1453    2.7432   -0.0244 H   0  0  0  0  0  0  0  0  0  0  0  0
   -1.3741    0.8503   -2.1887 H   0  0  0  0  0  0  0  0  0  0  0  0
    0.2920    1.2412   -2.6372 H   0  0  0  0  0  0  0  0  0  0  0  0
   -0.7213    2.4609   -1.8637 H   0  0  0  0  0  0  0  0  0  0  0  0
   -0.6804    0.6493    1.5420 H   0  0  0  0  0  0  0  0  0  0  0  0
   -2.5982    1.9826   -0.4399 H   0  0  0  0  0  0  0  0  0  0  0  0
   -2.8737    1.6178    1.3466 H   0  0  0  0  0  0  0  0  0  0  0  0
  1  2  2  3
  1  5  1  0
  1  6  1  0
  2  3  1  0
  2  7  1  0
  3  4  2  3
  3  8  1  0
  4  9  1  0
  4 10  1  0
 11 12  2  3
 11 17  1  0
 11 18  1  0
 12 13  1  0
 12 19  1  0
 13 14  1  0
 13 15  1  0
 14 20  1  0
 14 21  1  0
 14 22  1  0
 15 16  2  3
 15 23  1  0
 16 24  1  0
 16 25  1  0
M  RAD  1  13   2
M  END
>  <reaction>  (14) 
rxn_1655

>  <mol_properties>  (14) 
{"1": {"label": "*4", "atom_type": "Cd"}, "2": {"label": "*3", "atom_type": "Cd"}, "7": {"label": "*2", "atom_type": "H0"}, "11": {"label": "*0", "atom_type": "Cd"}, "12": {"label": "*1", "atom_type": "Cs"}}

>  <type>  (14) 
unop_10

>  <geom_source>  (14) 
Heuristics

$$$$

     RDKit          3D

 25 23  0  0  0  0  0  0  0  0999 V2000
   -0.0196   -2.5234   -0.9917 C   0  0  0  0  0  0  0  0  0  0  0  0
   -0.0196   -2.5234    0.3371 C   0  0  0  0  0  0  0  0  0  0  0  0
   -0.0196   -1.3161    1.1524 C   0  0  0  0  0  0  0  0  0  0  0  0
   -0.0196   -1.3161    2.4813 C   0  0  0  0  0  0  0  0  0  0  0  0
   -0.0196   -1.5968   -1.5552 H   0  0  0  0  0  0  0  0  0  0  0  0
   -0.0196   -3.4450   -1.5589 H   0  0  0  0  0  0  0  0  0  0  0  0
   -0.0196   -3.4684    0.8738 H   0  0  0  0  0  0  0  0  0  0  0  0
   -0.0196   -0.1822    0.5085 H   0  0  0  0  0  0  0  0  0  0  0  0
   -0.0196   -2.2427    3.0448 H   0  0  0  0  0  0  0  0  0  0  0  0
   -0.0196   -0.3945    3.0485 H   0  0  0  0  0  0  0  0  0  0  0  0
   -0.9353   -0.4405   -2.0167 C   0  0  0  0  0  0  0  0  0  0  0  0
   -0.7388    0.7371   -1.4460 C   0  0  0  0  0  0  0  0  0  0  0  0
   -0.0196    0.9616   -0.1410 C   0  0  0  0  0  3  0  0  0  0  0  0
   -0.9441    1.6246    0.8764 C   0  0  0  0  0  0  0  0  0  0  0  0
    1.2530    1.7276   -0.4055 C   0  0  0  0  0  0  0  0  0  0  0  0
    1.5820    2.9123    0.0856 C   0  0  0  0  0  0  0  0  0  0  0  0
   -1.4611   -0.5331   -2.9587 H   0  0  0  0  0  0  0  0  0  0  0  0
   -0.5769   -1.3572   -1.5603 H   0  0  0  0  0  0  0  0  0  0  0  0
   -1.1084    1.6380   -1.9312 H   0  0  0  0  0  0  0  0  0  0  0  0
   -0.4348    1.7780    1.8293 H   0  0  0  0  0  0  0  0  0  0  0  0
   -1.8197    0.9990    1.0515 H   0  0  0  0  0  0  0  0  0  0  0  0
   -1.2926    2.5957    0.5174 H   0  0  0  0  0  0  0  0  0  0  0  0
    1.9401    1.2323   -1.0866 H   0  0  0  0  0  0  0  0  0  0  0  0
    0.9377    3.4577    0.7645 H   0  0  0  0  0  0  0  0  0  0  0  0
    2.5218    3.3817   -0.1765 H   0  0  0  0  0  0  0  0  0  0  0  0
  1  2  2  3
  1  5  1  0
  1  6  1  0
  2  3  1  0
  2  7  1  0
  3  4  2  3
  3  8  1  0
  4  9  1  0
  4 10  1  0
 11 12  2  3
 11 17  1  0
 11 18  1  0
 12 13  1  0
 12 19  1  0
 13 14  1  0
 13 15  1  0
 14 20  1  0
 14 21  1  0
 14 22  1  0
 15 16  2  3
 15 23  1  0
 16 24  1  0
 16 25  1  0
M  RAD  1  13   2
M  END
>  <reaction>  (15) 
rxn_1655

>  <mol_properties>  (15) 
{"1": {"label": "*4", "atom_type": "Cd"}, "2": {"label": "*3", "atom_type": "Cd"}, "7": {"label": "*2", "atom_type": "H0"}, "11": {"label": "*0", "atom_type": "Cd"}, "12": {"label": "*1", "atom_type": "Cs"}}

>  <type>  (15) 
unop_11

>  <geom_source>  (15) 
Heuristics

$$$$

     RDKit          3D

 25 23  0  0  0  0  0  0  0  0999 V2000
   -0.7100   -0.3282   -0.0623 C   0  0  0  0  0  3  0  0  0  0  0  0
   -1.8589   -0.2367    0.9474 C   0  0  0  0  0  0  0  0  0  0  0  0
   -0.6446   -1.6965   -0.6992 C   0  0  0  0  0  0  0  0  0  0  0  0
   -0.8111    0.7577   -1.1063 C   0  0  0  0  0  0  0  0  0  0  0  0
    2.0338    1.0343    0.5784 C   0  0  0  0  0  0  0  0  0  0  0  0
   -1.6405   -2.2048   -1.4352 C   0  0  0  0  0  0  0  0  0  0  0  0
   -0.5124    2.0267   -0.8160 C   0  0  0  0  0  0  0  0  0  0  0  0
    1.3110    1.7732   -0.2555 C   0  0  0  0  0  0  0  0  0  0  0  0
    2.4355   -1.1557    1.5868 C   0  0  0  0  0  0  0  0  0  0  0  0
    1.7321   -0.3896    0.7608 C   0  0  0  0  0  0  0  0  0  0  0  0
    0.5171   -0.1413    0.6553 H   0  0  0  0  0  0  0  0  0  0  0  0
   -1.7774   -1.0585    1.6902 H   0  0  0  0  0  0  0  0  0  0  0  0
   -2.8439   -0.3043    0.4382 H   0  0  0  0  0  0  0  0  0  0  0  0
   -1.8067    0.7278    1.4950 H   0  0  0  0  0  0  0  0  0  0  0  0
    0.2517   -2.2905   -0.5504 H   0  0  0  0  0  0  0  0  0  0  0  0
   -1.1239    0.5153   -2.1185 H   0  0  0  0  0  0  0  0  0  0  0  0
    2.8501    1.4933    1.1239 H   0  0  0  0  0  0  0  0  0  0  0  0
   -2.5516   -1.6424   -1.6130 H   0  0  0  0  0  0  0  0  0  0  0  0
   -1.5427   -3.1942   -1.8699 H   0  0  0  0  0  0  0  0  0  0  0  0
   -0.1899    2.3116    0.1809 H   0  0  0  0  0  0  0  0  0  0  0  0
   -0.5888    2.7915   -1.5820 H   0  0  0  0  0  0  0  0  0  0  0  0
    0.4889    1.3427   -0.8146 H   0  0  0  0  0  0  0  0  0  0  0  0
    1.5393    2.8231   -0.3852 H   0  0  0  0  0  0  0  0  0  0  0  0
    3.2627   -0.7534    2.1588 H   0  0  0  0  0  0  0  0  0  0  0  0
    2.1803   -2.2011    1.6924 H   0  0  0  0  0  0  0  0  0  0  0  0
  1  2  1  0
  1  3  1  0
  1  4  1  0
  2 12  1  0
  2 13  1  0
  2 14  1  0
  3  6  2  3
  3 15  1  0
  4  7  2  3
  4 16  1  0
  5  8  2  3
  5 10  1  0
  5 17  1  0
  6 18  1  0
  6 19  1  0
  7 20  1  0
  7 21  1  0
  8 22  1  0
  8 23  1  0
  9 10  2  3
  9 24  1  0
  9 25  1  0
 10 11  1  0
M  RAD  1   1   2
M  END
>  <reaction>  (16) 
rxn_1655

>  <mol_properties>  (16) 
{"1": {"label": "*4", "atom_type": "Cd"}, "2": {"label": "*3", "atom_type": "Cd"}, "7": {"label": "*2", "atom_type": "H0"}, "11": {"label": "*0", "atom_type": "Cd"}, "12": {"label": "*1", "atom_type": "Cs"}}

>  <type>  (16) 
unop_12

>  <geom_source>  (16) 
AutoTST

$$$$
