
     RDKit          3D

  6  5  0  0  0  0  0  0  0  0999 V2000
   -0.5072   -0.0291   -0.0097 C   0  0  0  0  0  0  0  0  0  0  0  0
    1.1321   -0.1527   -0.7687 S   0  0  0  0  0  0  0  0  0  0  0  0
   -0.6174   -0.7330    0.8127 H   0  0  0  0  0  0  0  0  0  0  0  0
   -0.5863    0.9827    0.3845 H   0  0  0  0  0  0  0  0  0  0  0  0
   -1.2962   -0.1800   -0.7434 H   0  0  0  0  0  0  0  0  0  0  0  0
    1.0312   -1.4237   -1.1764 H   0  0  0  0  0  0  0  0  0  0  0  0
  1  2  1  0
  1  3  1  0
  1  4  1  0
  1  5  1  0
  2  6  1  0
M  END
>  <reaction>  (1) 
rxn_1813

>  <mol_properties>  (1) 
{"0": {"label": "donator", "atom_type": "Cs"}, "2": {"label": "d_hydrogen", "atom_type": "H0"}}

>  <type>  (1) 
r1h

$$$$

     RDKit          3D

 12 11  0  0  0  0  0  0  0  0999 V2000
   -2.3791    0.4612   -0.5870 C   0  0  0  0  0  0  0  0  0  0  0  0
   -1.3422   -0.3138   -0.1893 C   0  0  0  0  0  0  0  0  0  0  0  0
   -1.4723   -1.6058    0.3589 C   0  0  0  0  0  3  0  0  0  0  0  0
   -0.3798   -2.3973    0.7671 C   0  0  0  0  0  0  0  0  0  0  0  0
   -0.4849   -3.6397    1.2956 C   0  0  0  0  0  0  0  0  0  0  0  0
   -2.2205    1.4472   -1.0017 H   0  0  0  0  0  0  0  0  0  0  0  0
   -3.4026    0.1153   -0.5011 H   0  0  0  0  0  0  0  0  0  0  0  0
   -0.3330    0.0765   -0.2952 H   0  0  0  0  0  0  0  0  0  0  0  0
   -2.4723   -2.0151    0.4735 H   0  0  0  0  0  0  0  0  0  0  0  0
    0.6117   -1.9687    0.6436 H   0  0  0  0  0  0  0  0  0  0  0  0
    0.3893   -4.2030    1.5920 H   0  0  0  0  0  0  0  0  0  0  0  0
   -1.4516   -4.1084    1.4378 H   0  0  0  0  0  0  0  0  0  0  0  0
  1  2  2  3
  1  6  1  0
  1  7  1  0
  2  3  1  0
  2  8  1  0
  3  4  1  0
  3  9  1  0
  4  5  2  3
  4 10  1  0
  5 11  1  0
  5 12  1  0
M  RAD  1   3   2
M  END
>  <reaction>  (2) 
rxn_1813

>  <mol_properties>  (2) 
{"2": {"label": "acceptor", "atom_type": "Cs"}}

>  <type>  (2) 
r2

$$$$

     RDKit          3D

 13 12  0  0  0  0  0  0  0  0999 V2000
    3.0977   -0.3549   -0.5105 C   0  0  0  0  0  0  0  0  0  0  0  0
    2.0556    0.4221   -0.2627 C   0  0  0  0  0  0  0  0  0  0  0  0
    0.6313   -0.0354   -0.2366 C   0  0  0  0  0  0  0  0  0  0  0  0
   -0.2567    0.6038   -1.2694 C   0  0  0  0  0  0  0  0  0  0  0  0
    0.1459    1.3456   -2.2891 C   0  0  0  0  0  0  0  0  0  0  0  0
    4.1081    0.0344   -0.5074 H   0  0  0  0  0  0  0  0  0  0  0  0
    2.9777   -1.4116   -0.7243 H   0  0  0  0  0  0  0  0  0  0  0  0
    2.2171    1.4781   -0.0618 H   0  0  0  0  0  0  0  0  0  0  0  0
    0.5865   -1.1233   -0.3540 H   0  0  0  0  0  0  0  0  0  0  0  0
    0.2065    0.1743    0.7521 H   0  0  0  0  0  0  0  0  0  0  0  0
   -1.3190    0.4126   -1.1445 H   0  0  0  0  0  0  0  0  0  0  0  0
    1.1948    1.5564   -2.4628 H   0  0  0  0  0  0  0  0  0  0  0  0
   -0.5644    1.7621   -2.9918 H   0  0  0  0  0  0  0  0  0  0  0  0
  1  2  2  3
  1  6  1  0
  1  7  1  0
  2  3  1  0
  2  8  1  0
  3  4  1  0
  3  9  1  0
  3 10  1  0
  4  5  2  3
  4 11  1  0
  5 12  1  0
  5 13  1  0
M  END
>  <reaction>  (3) 
rxn_1813

>  <mol_properties>  (3) 
{"0": {"label": "a_hydrogen", "atom_type": "H0"}, "3": {"label": "acceptor", "atom_type": "Cs"}}

>  <type>  (3) 
r2h

$$$$

     RDKit          3D

 18 16  0  0  0  0  0  0  0  0999 V2000
    0.0215   -1.7664   -0.1356 C   0  0  0  0  0  3  0  0  0  0  0  0
    0.8317   -1.2621   -1.6049 S   0  0  0  0  0  0  0  0  0  0  0  0
   -0.2046   -0.5602    0.6529 H   0  0  0  0  0  0  0  0  0  0  0  0
   -0.9811   -2.1277   -0.3421 H   0  0  0  0  0  0  0  0  0  0  0  0
    0.5953   -2.3989    0.5347 H   0  0  0  0  0  0  0  0  0  0  0  0
    1.9957   -0.9092   -1.0423 H   0  0  0  0  0  0  0  0  0  0  0  0
   -2.3312    1.6838    0.3250 C   0  0  0  0  0  0  0  0  0  0  0  0
   -1.0332    1.4046    0.2550 C   0  0  0  0  0  0  0  0  0  0  0  0
   -0.3071    0.5734    1.2263 C   0  0  0  0  0  0  0  0  0  0  0  0
    1.0931    0.8938    1.5583 C   0  0  0  0  0  0  0  0  0  0  0  0
    1.8990    1.7418    0.9229 C   0  0  0  0  0  0  0  0  0  0  0  0
   -2.8257    2.2657   -0.4419 H   0  0  0  0  0  0  0  0  0  0  0  0
   -2.9401    1.3443    1.1562 H   0  0  0  0  0  0  0  0  0  0  0  0
   -0.4687    1.7595   -0.6017 H   0  0  0  0  0  0  0  0  0  0  0  0
   -0.9025    0.3287    2.1068 H   0  0  0  0  0  0  0  0  0  0  0  0
    1.5031    0.3271    2.3903 H   0  0  0  0  0  0  0  0  0  0  0  0
    2.9279    1.8667    1.2347 H   0  0  0  0  0  0  0  0  0  0  0  0
    1.5634    2.3512    0.0930 H   0  0  0  0  0  0  0  0  0  0  0  0
  1  2  1  0
  1  4  1  0
  1  5  1  0
  2  6  1  0
  3  9  1  0
  7  8  2  3
  7 12  1  0
  7 13  1  0
  8  9  1  0
  8 14  1  0
  9 10  1  0
  9 15  1  0
 10 11  2  3
 10 16  1  0
 11 17  1  0
 11 18  1  0
M  RAD  1   1   2
M  END
>  <reaction>  (4) 
rxn_1813

>  <mol_properties>  (4) 
{"0": {"label": "*3", "atom_type": "Cs"}, "1": {"label": "*4", "atom_type": "S2s"}, "2": {"label": "*2", "atom_type": "H0"}, "7": {"label": "*0", "atom_type": "Cd"}, "8": {"label": "*1", "atom_type": "Cs"}}

>  <type>  (4) 
ts

$$$$

     RDKit          3D

 18 16  0  0  0  0  0  0  0  0999 V2000
    0.1737   -1.8817   -0.3403 C   0  0  0  0  0  0  0  0  0  0  0  0
    0.1737   -1.8817   -2.1509 S   0  0  0  0  0  0  0  0  0  0  0  0
    0.1737   -0.6659    0.1355 H   0  0  0  0  0  0  0  0  0  0  0  0
   -0.7469   -2.3759   -0.0343 H   0  0  0  0  0  0  0  0  0  0  0  0
    1.0181   -2.4417    0.0562 H   0  0  0  0  0  0  0  0  0  0  0  0
    1.3440   -1.2536   -2.3173 H   0  0  0  0  0  0  0  0  0  0  0  0
   -1.1761    0.3805    2.7141 C   0  0  0  0  0  0  0  0  0  0  0  0
   -1.0512    0.7559    1.4513 C   0  0  0  0  0  0  0  0  0  0  0  0
    0.1737    0.5592    0.6149 C   0  0  0  0  0  3  0  0  0  0  0  0
    0.8204    1.8294    0.1330 C   0  0  0  0  0  0  0  0  0  0  0  0
    0.5309    3.0538    0.5442 C   0  0  0  0  0  0  0  0  0  0  0  0
   -2.0935    0.5438    3.2655 H   0  0  0  0  0  0  0  0  0  0  0  0
   -0.3637   -0.1067    3.2427 H   0  0  0  0  0  0  0  0  0  0  0  0
   -1.8856    1.2493    0.9595 H   0  0  0  0  0  0  0  0  0  0  0  0
    0.9137   -0.0280    1.1690 H   0  0  0  0  0  0  0  0  0  0  0  0
    1.5984    1.6950   -0.6135 H   0  0  0  0  0  0  0  0  0  0  0  0
    1.0534    3.9148    0.1473 H   0  0  0  0  0  0  0  0  0  0  0  0
   -0.2293    3.2394    1.2943 H   0  0  0  0  0  0  0  0  0  0  0  0
  1  2  1  0
  1  3  1  0
  1  4  1  0
  1  5  1  0
  2  6  1  0
  7  8  2  3
  7 12  1  0
  7 13  1  0
  8  9  1  0
  8 14  1  0
  9 10  1  0
  9 15  1  0
 10 11  2  3
 10 16  1  0
 11 17  1  0
 11 18  1  0
M  RAD  1   9   2
M  END
>  <reaction>  (5) 
rxn_1813

>  <mol_properties>  (5) 
{"0": {"label": "*3", "atom_type": "Cs"}, "1": {"label": "*4", "atom_type": "S2s"}, "2": {"label": "*2", "atom_type": "H0"}, "7": {"label": "*0", "atom_type": "Cd"}, "8": {"label": "*1", "atom_type": "Cs"}}

>  <type>  (5) 
unop_1

>  <geom_source>  (5) 
Heuristics

$$$$

     RDKit          3D

 18 16  0  0  0  0  0  0  0  0999 V2000
   -0.0275   -1.9951    0.0182 C   0  0  0  0  0  0  0  0  0  0  0  0
   -0.0275   -1.9951   -1.7924 S   0  0  0  0  0  0  0  0  0  0  0  0
   -0.0275   -0.7793    0.4940 H   0  0  0  0  0  0  0  0  0  0  0  0
   -0.9481   -2.4892    0.3242 H   0  0  0  0  0  0  0  0  0  0  0  0
    0.8169   -2.5551    0.4147 H   0  0  0  0  0  0  0  0  0  0  0  0
    1.1428   -1.3670   -1.9588 H   0  0  0  0  0  0  0  0  0  0  0  0
   -1.9690    1.7990    0.1612 C   0  0  0  0  0  0  0  0  0  0  0  0
   -0.7347    1.3466    0.0105 C   0  0  0  0  0  0  0  0  0  0  0  0
   -0.0275    0.4458    0.9734 C   0  0  0  0  0  3  0  0  0  0  0  0
    1.2089    1.0340    1.5972 C   0  0  0  0  0  0  0  0  0  0  0  0
    1.5871    2.3006    1.5288 C   0  0  0  0  0  0  0  0  0  0  0  0
   -2.4303    2.4434   -0.5766 H   0  0  0  0  0  0  0  0  0  0  0  0
   -2.5651    1.5389    1.0295 H   0  0  0  0  0  0  0  0  0  0  0  0
   -0.1668    1.6375   -0.8696 H   0  0  0  0  0  0  0  0  0  0  0  0
   -0.7140    0.1370    1.7687 H   0  0  0  0  0  0  0  0  0  0  0  0
    1.8211    0.3313    2.1558 H   0  0  0  0  0  0  0  0  0  0  0  0
    2.4920    2.6407    2.0161 H   0  0  0  0  0  0  0  0  0  0  0  0
    1.0056    3.0420    0.9929 H   0  0  0  0  0  0  0  0  0  0  0  0
  1  2  1  0
  1  3  1  0
  1  4  1  0
  1  5  1  0
  2  6  1  0
  7  8  2  3
  7 12  1  0
  7 13  1  0
  8  9  1  0
  8 14  1  0
  9 10  1  0
  9 15  1  0
 10 11  2  3
 10 16  1  0
 11 17  1  0
 11 18  1  0
M  RAD  1   9   2
M  END
>  <reaction>  (6) 
rxn_1813

>  <mol_properties>  (6) 
{"0": {"label": "*3", "atom_type": "Cs"}, "1": {"label": "*4", "atom_type": "S2s"}, "2": {"label": "*2", "atom_type": "H0"}, "7": {"label": "*0", "atom_type": "Cd"}, "8": {"label": "*1", "atom_type": "Cs"}}

>  <type>  (6) 
unop_2

>  <geom_source>  (6) 
Heuristics

$$$$

     RDKit          3D

 18 16  0  0  0  0  0  0  0  0999 V2000
    0.1686   -1.8613   -0.3724 C   0  0  0  0  0  0  0  0  0  0  0  0
    0.1686   -1.8613   -2.1831 S   0  0  0  0  0  0  0  0  0  0  0  0
    0.1686   -0.6455    0.1033 H   0  0  0  0  0  0  0  0  0  0  0  0
   -0.7521   -2.3554   -0.0665 H   0  0  0  0  0  0  0  0  0  0  0  0
    1.0130   -2.4213    0.0240 H   0  0  0  0  0  0  0  0  0  0  0  0
    1.3389   -1.2332   -2.3495 H   0  0  0  0  0  0  0  0  0  0  0  0
    0.0507    0.4606    3.0792 C   0  0  0  0  0  0  0  0  0  0  0  0
   -0.5386    0.5877    1.9013 C   0  0  0  0  0  0  0  0  0  0  0  0
    0.1686    0.5796    0.5827 C   0  0  0  0  0  3  0  0  0  0  0  0
    0.0453    1.8536   -0.2081 C   0  0  0  0  0  0  0  0  0  0  0  0
   -0.4373    3.0024    0.2386 C   0  0  0  0  0  0  0  0  0  0  0  0
   -0.5179    0.4662    4.0007 H   0  0  0  0  0  0  0  0  0  0  0  0
    1.1259    0.3444    3.1646 H   0  0  0  0  0  0  0  0  0  0  0  0
   -1.6177    0.7111    1.8585 H   0  0  0  0  0  0  0  0  0  0  0  0
    1.2301    0.3544    0.7300 H   0  0  0  0  0  0  0  0  0  0  0  0
    0.4020    1.7953   -1.2328 H   0  0  0  0  0  0  0  0  0  0  0  0
   -0.4826    3.8755   -0.3999 H   0  0  0  0  0  0  0  0  0  0  0  0
   -0.7956    3.1145    1.2554 H   0  0  0  0  0  0  0  0  0  0  0  0
  1  2  1  0
  1  3  1  0
  1  4  1  0
  1  5  1  0
  2  6  1  0
  7  8  2  3
  7 12  1  0
  7 13  1  0
  8  9  1  0
  8 14  1  0
  9 10  1  0
  9 15  1  0
 10 11  2  3
 10 16  1  0
 11 17  1  0
 11 18  1  0
M  RAD  1   9   2
M  END
>  <reaction>  (7) 
rxn_1813

>  <mol_properties>  (7) 
{"0": {"label": "*3", "atom_type": "Cs"}, "1": {"label": "*4", "atom_type": "S2s"}, "2": {"label": "*2", "atom_type": "H0"}, "7": {"label": "*0", "atom_type": "Cd"}, "8": {"label": "*1", "atom_type": "Cs"}}

>  <type>  (7) 
unop_3

>  <geom_source>  (7) 
Heuristics

$$$$

     RDKit          3D

 18 16  0  0  0  0  0  0  0  0999 V2000
   -0.4760   -1.6006   -0.3252 C   0  0  0  0  0  0  0  0  0  0  0  0
   -0.4760   -1.6006   -2.1358 S   0  0  0  0  0  0  0  0  0  0  0  0
   -0.4760   -0.3847    0.1506 H   0  0  0  0  0  0  0  0  0  0  0  0
   -1.3967   -2.0947   -0.0192 H   0  0  0  0  0  0  0  0  0  0  0  0
    0.3684   -2.1606    0.0713 H   0  0  0  0  0  0  0  0  0  0  0  0
    0.6943   -0.9724   -2.3022 H   0  0  0  0  0  0  0  0  0  0  0  0
    0.8492    2.8613   -0.0182 C   0  0  0  0  0  0  0  0  0  0  0  0
    0.7490    1.5525    0.1492 C   0  0  0  0  0  0  0  0  0  0  0  0
   -0.4760    0.8403    0.6300 C   0  0  0  0  0  3  0  0  0  0  0  0
   -0.3085    0.1030    1.9308 C   0  0  0  0  0  0  0  0  0  0  0  0
    0.7236    0.2025    2.7536 C   0  0  0  0  0  0  0  0  0  0  0  0
    1.7627    3.3181   -0.3778 H   0  0  0  0  0  0  0  0  0  0  0  0
    0.0183    3.5247    0.1971 H   0  0  0  0  0  0  0  0  0  0  0  0
    1.6073    0.9224   -0.0693 H   0  0  0  0  0  0  0  0  0  0  0  0
   -1.3054    1.5487    0.7276 H   0  0  0  0  0  0  0  0  0  0  0  0
   -1.1308   -0.5562    2.1951 H   0  0  0  0  0  0  0  0  0  0  0  0
    0.7586   -0.3619    3.6768 H   0  0  0  0  0  0  0  0  0  0  0  0
    1.5633    0.8538    2.5402 H   0  0  0  0  0  0  0  0  0  0  0  0
  1  2  1  0
  1  3  1  0
  1  4  1  0
  1  5  1  0
  2  6  1  0
  7  8  2  3
  7 12  1  0
  7 13  1  0
  8  9  1  0
  8 14  1  0
  9 10  1  0
  9 15  1  0
 10 11  2  3
 10 16  1  0
 11 17  1  0
 11 18  1  0
M  RAD  1   9   2
M  END
>  <reaction>  (8) 
rxn_1813

>  <mol_properties>  (8) 
{"0": {"label": "*3", "atom_type": "Cs"}, "1": {"label": "*4", "atom_type": "S2s"}, "2": {"label": "*2", "atom_type": "H0"}, "7": {"label": "*0", "atom_type": "Cd"}, "8": {"label": "*1", "atom_type": "Cs"}}

>  <type>  (8) 
unop_4

>  <geom_source>  (8) 
Heuristics

$$$$

     RDKit          3D

 18 16  0  0  0  0  0  0  0  0999 V2000
    0.2573   -1.7509   -0.4337 C   0  0  0  0  0  0  0  0  0  0  0  0
    0.2573   -1.7509   -2.2444 S   0  0  0  0  0  0  0  0  0  0  0  0
    0.2573   -0.5351    0.0421 H   0  0  0  0  0  0  0  0  0  0  0  0
   -0.6634   -2.2451   -0.1278 H   0  0  0  0  0  0  0  0  0  0  0  0
    1.1017   -2.3109   -0.0372 H   0  0  0  0  0  0  0  0  0  0  0  0
    1.4276   -1.1228   -2.4107 H   0  0  0  0  0  0  0  0  0  0  0  0
    1.1862    1.1565    2.7974 C   0  0  0  0  0  0  0  0  0  0  0  0
    0.2573    0.6290    2.0165 C   0  0  0  0  0  0  0  0  0  0  0  0
    0.2573    0.6900    0.5215 C   0  0  0  0  0  3  0  0  0  0  0  0
   -0.9092    1.4251   -0.0808 C   0  0  0  0  0  0  0  0  0  0  0  0
   -1.7828    2.1700    0.5780 C   0  0  0  0  0  0  0  0  0  0  0  0
    1.1347    1.0720    3.8757 H   0  0  0  0  0  0  0  0  0  0  0  0
    2.0349    1.6919    2.3853 H   0  0  0  0  0  0  0  0  0  0  0  0
   -0.5826    0.1077    2.4686 H   0  0  0  0  0  0  0  0  0  0  0  0
    1.1869    1.1474    0.1666 H   0  0  0  0  0  0  0  0  0  0  0  0
   -1.0108    1.3229   -1.1578 H   0  0  0  0  0  0  0  0  0  0  0  0
   -2.5913    2.6716    0.0615 H   0  0  0  0  0  0  0  0  0  0  0  0
   -1.7183    2.3116    1.6507 H   0  0  0  0  0  0  0  0  0  0  0  0
  1  2  1  0
  1  3  1  0
  1  4  1  0
  1  5  1  0
  2  6  1  0
  7  8  2  3
  7 12  1  0
  7 13  1  0
  8  9  1  0
  8 14  1  0
  9 10  1  0
  9 15  1  0
 10 11  2  3
 10 16  1  0
 11 17  1  0
 11 18  1  0
M  RAD  1   9   2
M  END
>  <reaction>  (9) 
rxn_1813

>  <mol_properties>  (9) 
{"0": {"label": "*3", "atom_type": "Cs"}, "1": {"label": "*4", "atom_type": "S2s"}, "2": {"label": "*2", "atom_type": "H0"}, "7": {"label": "*0", "atom_type": "Cd"}, "8": {"label": "*1", "atom_type": "Cs"}}

>  <type>  (9) 
unop_5

>  <geom_source>  (9) 
Heuristics

$$$$

     RDKit          3D

 18 16  0  0  0  0  0  0  0  0999 V2000
   -0.3318   -1.4742   -0.5141 C   0  0  0  0  0  0  0  0  0  0  0  0
   -0.3318   -1.4742   -2.3248 S   0  0  0  0  0  0  0  0  0  0  0  0
   -0.3318   -0.2584   -0.0383 H   0  0  0  0  0  0  0  0  0  0  0  0
   -1.2525   -1.9683   -0.2082 H   0  0  0  0  0  0  0  0  0  0  0  0
    0.5126   -2.0342   -0.1176 H   0  0  0  0  0  0  0  0  0  0  0  0
    0.8385   -0.8460   -2.4912 H   0  0  0  0  0  0  0  0  0  0  0  0
    1.4681    2.6836    0.7117 C   0  0  0  0  0  0  0  0  0  0  0  0
    1.0827    1.4212    0.6189 C   0  0  0  0  0  0  0  0  0  0  0  0
   -0.3318    0.9667    0.4411 C   0  0  0  0  0  3  0  0  0  0  0  0
   -0.8711    0.1251    1.5656 C   0  0  0  0  0  0  0  0  0  0  0  0
   -0.2950   -0.0614    2.7426 C   0  0  0  0  0  0  0  0  0  0  0  0
    2.5106    2.9503    0.8319 H   0  0  0  0  0  0  0  0  0  0  0  0
    0.7530    3.4983    0.6689 H   0  0  0  0  0  0  0  0  0  0  0  0
    1.8292    0.6331    0.6753 H   0  0  0  0  0  0  0  0  0  0  0  0
   -0.9870    1.8327    0.2998 H   0  0  0  0  0  0  0  0  0  0  0  0
   -1.8265   -0.3523    1.3656 H   0  0  0  0  0  0  0  0  0  0  0  0
   -0.7590   -0.6802    3.5001 H   0  0  0  0  0  0  0  0  0  0  0  0
    0.6525    0.4011    2.9942 H   0  0  0  0  0  0  0  0  0  0  0  0
  1  2  1  0
  1  3  1  0
  1  4  1  0
  1  5  1  0
  2  6  1  0
  7  8  2  3
  7 12  1  0
  7 13  1  0
  8  9  1  0
  8 14  1  0
  9 10  1  0
  9 15  1  0
 10 11  2  3
 10 16  1  0
 11 17  1  0
 11 18  1  0
M  RAD  1   9   2
M  END
>  <reaction>  (10) 
rxn_1813

>  <mol_properties>  (10) 
{"0": {"label": "*3", "atom_type": "Cs"}, "1": {"label": "*4", "atom_type": "S2s"}, "2": {"label": "*2", "atom_type": "H0"}, "7": {"label": "*0", "atom_type": "Cd"}, "8": {"label": "*1", "atom_type": "Cs"}}

>  <type>  (10) 
unop_6

>  <geom_source>  (10) 
Heuristics

$$$$

     RDKit          3D

 18 16  0  0  0  0  0  0  0  0999 V2000
   -0.0789   -1.4366   -0.6119 C   0  0  0  0  0  0  0  0  0  0  0  0
   -0.0789   -1.4366   -2.4225 S   0  0  0  0  0  0  0  0  0  0  0  0
   -0.0789   -0.2208   -0.1361 H   0  0  0  0  0  0  0  0  0  0  0  0
   -0.9996   -1.9308   -0.3059 H   0  0  0  0  0  0  0  0  0  0  0  0
    0.7654   -1.9966   -0.2154 H   0  0  0  0  0  0  0  0  0  0  0  0
    1.0914   -0.8085   -2.5889 H   0  0  0  0  0  0  0  0  0  0  0  0
    1.6676    2.3750    1.4972 C   0  0  0  0  0  0  0  0  0  0  0  0
    1.1460    1.2010    1.1797 C   0  0  0  0  0  0  0  0  0  0  0  0
   -0.0789    1.0043    0.3433 C   0  0  0  0  0  3  0  0  0  0  0  0
   -1.2237    0.3289    1.0485 C   0  0  0  0  0  0  0  0  0  0  0  0
   -1.3073    0.0961    2.3488 C   0  0  0  0  0  0  0  0  0  0  0  0
    2.5630    2.4524    2.1010 H   0  0  0  0  0  0  0  0  0  0  0  0
    1.2176    3.3035    1.1621 H   0  0  0  0  0  0  0  0  0  0  0  0
    1.6218    0.2935    1.5426 H   0  0  0  0  0  0  0  0  0  0  0  0
   -0.4219    1.9676   -0.0486 H   0  0  0  0  0  0  0  0  0  0  0  0
   -2.0451    0.0250    0.4054 H   0  0  0  0  0  0  0  0  0  0  0  0
   -2.1751   -0.3913    2.7746 H   0  0  0  0  0  0  0  0  0  0  0  0
   -0.5195    0.3893    3.0332 H   0  0  0  0  0  0  0  0  0  0  0  0
  1  2  1  0
  1  3  1  0
  1  4  1  0
  1  5  1  0
  2  6  1  0
  7  8  2  3
  7 12  1  0
  7 13  1  0
  8  9  1  0
  8 14  1  0
  9 10  1  0
  9 15  1  0
 10 11  2  3
 10 16  1  0
 11 17  1  0
 11 18  1  0
M  RAD  1   9   2
M  END
>  <reaction>  (11) 
rxn_1813

>  <mol_properties>  (11) 
{"0": {"label": "*3", "atom_type": "Cs"}, "1": {"label": "*4", "atom_type": "S2s"}, "2": {"label": "*2", "atom_type": "H0"}, "7": {"label": "*0", "atom_type": "Cd"}, "8": {"label": "*1", "atom_type": "Cs"}}

>  <type>  (11) 
unop_7

>  <geom_source>  (11) 
Heuristics

$$$$

     RDKit          3D

 18 16  0  0  0  0  0  0  0  0999 V2000
    0.2035   -1.9202   -0.2420 C   0  0  0  0  0  0  0  0  0  0  0  0
    0.2035   -1.9202   -2.0526 S   0  0  0  0  0  0  0  0  0  0  0  0
    0.2035   -0.7044    0.2338 H   0  0  0  0  0  0  0  0  0  0  0  0
   -0.7171   -2.4143    0.0640 H   0  0  0  0  0  0  0  0  0  0  0  0
    1.0479   -2.4802    0.1545 H   0  0  0  0  0  0  0  0  0  0  0  0
    1.3739   -1.2921   -2.2190 H   0  0  0  0  0  0  0  0  0  0  0  0
   -1.9760    0.6852    1.9310 C   0  0  0  0  0  0  0  0  0  0  0  0
   -1.2109    0.9751    0.8910 C   0  0  0  0  0  0  0  0  0  0  0  0
    0.2035    0.5207    0.7132 C   0  0  0  0  0  3  0  0  0  0  0  0
    1.2196    1.6285    0.6483 C   0  0  0  0  0  0  0  0  0  0  0  0
    1.0006    2.9022    0.9344 C   0  0  0  0  0  0  0  0  0  0  0  0
   -2.9975    1.0379    1.9987 H   0  0  0  0  0  0  0  0  0  0  0  0
   -1.6078    0.0814    2.7536 H   0  0  0  0  0  0  0  0  0  0  0  0
   -1.6141    1.5907    0.0910 H   0  0  0  0  0  0  0  0  0  0  0  0
    0.4788   -0.1669    1.5198 H   0  0  0  0  0  0  0  0  0  0  0  0
    2.2166    1.3211    0.3446 H   0  0  0  0  0  0  0  0  0  0  0  0
    1.7950    3.6345    0.8676 H   0  0  0  0  0  0  0  0  0  0  0  0
    0.0268    3.2568    1.2519 H   0  0  0  0  0  0  0  0  0  0  0  0
  1  2  1  0
  1  3  1  0
  1  4  1  0
  1  5  1  0
  2  6  1  0
  7  8  2  3
  7 12  1  0
  7 13  1  0
  8  9  1  0
  8 14  1  0
  9 10  1  0
  9 15  1  0
 10 11  2  3
 10 16  1  0
 11 17  1  0
 11 18  1  0
M  RAD  1   9   2
M  END
>  <reaction>  (12) 
rxn_1813

>  <mol_properties>  (12) 
{"0": {"label": "*3", "atom_type": "Cs"}, "1": {"label": "*4", "atom_type": "S2s"}, "2": {"label": "*2", "atom_type": "H0"}, "7": {"label": "*0", "atom_type": "Cd"}, "8": {"label": "*1", "atom_type": "Cs"}}

>  <type>  (12) 
unop_8

>  <geom_source>  (12) 
Heuristics

$$$$

     RDKit          3D

 18 16  0  0  0  0  0  0  0  0999 V2000
   -0.4581   -1.7735   -0.1170 C   0  0  0  0  0  0  0  0  0  0  0  0
   -0.4581   -1.7735   -1.9277 S   0  0  0  0  0  0  0  0  0  0  0  0
   -0.4581   -0.5577    0.3588 H   0  0  0  0  0  0  0  0  0  0  0  0
   -1.3787   -2.2676    0.1889 H   0  0  0  0  0  0  0  0  0  0  0  0
    0.3863   -2.3335    0.2795 H   0  0  0  0  0  0  0  0  0  0  0  0
    0.7122   -1.1454   -2.0940 H   0  0  0  0  0  0  0  0  0  0  0  0
   -0.1397    2.7919   -0.4446 C   0  0  0  0  0  0  0  0  0  0  0  0
    0.2492    1.5682   -0.1247 C   0  0  0  0  0  0  0  0  0  0  0  0
   -0.4581    0.6674    0.8382 C   0  0  0  0  0  3  0  0  0  0  0  0
    0.3439    0.2870    2.0530 C   0  0  0  0  0  0  0  0  0  0  0  0
    1.4925    0.8281    2.4272 C   0  0  0  0  0  0  0  0  0  0  0  0
    0.4115    3.3936   -1.1564 H   0  0  0  0  0  0  0  0  0  0  0  0
   -1.0268    3.2366   -0.0063 H   0  0  0  0  0  0  0  0  0  0  0  0
    1.1490    1.1617   -0.5793 H   0  0  0  0  0  0  0  0  0  0  0  0
   -1.3959    1.1305    1.1625 H   0  0  0  0  0  0  0  0  0  0  0  0
   -0.0906   -0.5002    2.6631 H   0  0  0  0  0  0  0  0  0  0  0  0
    2.0003    0.4969    3.3241 H   0  0  0  0  0  0  0  0  0  0  0  0
    1.9612    1.6231    1.8587 H   0  0  0  0  0  0  0  0  0  0  0  0
  1  2  1  0
  1  3  1  0
  1  4  1  0
  1  5  1  0
  2  6  1  0
  7  8  2  3
  7 12  1  0
  7 13  1  0
  8  9  1  0
  8 14  1  0
  9 10  1  0
  9 15  1  0
 10 11  2  3
 10 16  1  0
 11 17  1  0
 11 18  1  0
M  RAD  1   9   2
M  END
>  <reaction>  (13) 
rxn_1813

>  <mol_properties>  (13) 
{"0": {"label": "*3", "atom_type": "Cs"}, "1": {"label": "*4", "atom_type": "S2s"}, "2": {"label": "*2", "atom_type": "H0"}, "7": {"label": "*0", "atom_type": "Cd"}, "8": {"label": "*1", "atom_type": "Cs"}}

>  <type>  (13) 
unop_9

>  <geom_source>  (13) 
Heuristics

$$$$

     RDKit          3D

 18 16  0  0  0  0  0  0  0  0999 V2000
    0.1505   -1.9737   -0.0975 C   0  0  0  0  0  0  0  0  0  0  0  0
    0.1505   -1.9737   -1.9081 S   0  0  0  0  0  0  0  0  0  0  0  0
    0.1505   -0.7579    0.3783 H   0  0  0  0  0  0  0  0  0  0  0  0
   -0.7701   -2.4679    0.2084 H   0  0  0  0  0  0  0  0  0  0  0  0
    0.9949   -2.5337    0.2990 H   0  0  0  0  0  0  0  0  0  0  0  0
    1.3208   -1.3456   -2.0745 H   0  0  0  0  0  0  0  0  0  0  0  0
   -2.2407    1.1893    1.0019 C   0  0  0  0  0  0  0  0  0  0  0  0
   -1.0744    1.1793    0.3769 C   0  0  0  0  0  0  0  0  0  0  0  0
    0.1505    0.4672    0.8577 C   0  0  0  0  0  3  0  0  0  0  0  0
    1.3218    1.3608    1.1634 C   0  0  0  0  0  0  0  0  0  0  0  0
    1.2924    2.6819    1.2409 C   0  0  0  0  0  0  0  0  0  0  0  0
   -3.0952    1.7181    0.5984 H   0  0  0  0  0  0  0  0  0  0  0  0
   -2.3840    0.6661    1.9413 H   0  0  0  0  0  0  0  0  0  0  0  0
   -0.9689    1.7236   -0.5581 H   0  0  0  0  0  0  0  0  0  0  0  0
   -0.0869   -0.1242    1.7483 H   0  0  0  0  0  0  0  0  0  0  0  0
    2.2608    0.8438    1.3410 H   0  0  0  0  0  0  0  0  0  0  0  0
    2.1852    3.2479    1.4744 H   0  0  0  0  0  0  0  0  0  0  0  0
    0.3787    3.2430    1.0825 H   0  0  0  0  0  0  0  0  0  0  0  0
  1  2  1  0
  1  3  1  0
  1  4  1  0
  1  5  1  0
  2  6  1  0
  7  8  2  3
  7 12  1  0
  7 13  1  0
  8  9  1  0
  8 14  1  0
  9 10  1  0
  9 15  1  0
 10 11  2  3
 10 16  1  0
 11 17  1  0
 11 18  1  0
M  RAD  1   9   2
M  END
>  <reaction>  (14) 
rxn_1813

>  <mol_properties>  (14) 
{"0": {"label": "*3", "atom_type": "Cs"}, "1": {"label": "*4", "atom_type": "S2s"}, "2": {"label": "*2", "atom_type": "H0"}, "7": {"label": "*0", "atom_type": "Cd"}, "8": {"label": "*1", "atom_type": "Cs"}}

>  <type>  (14) 
unop_10

>  <geom_source>  (14) 
Heuristics

$$$$

     RDKit          3D

 18 16  0  0  0  0  0  0  0  0999 V2000
    0.1821   -1.5328   -0.5729 C   0  0  0  0  0  0  0  0  0  0  0  0
    0.1821   -1.5328   -2.3835 S   0  0  0  0  0  0  0  0  0  0  0  0
    0.1821   -0.3170   -0.0971 H   0  0  0  0  0  0  0  0  0  0  0  0
   -0.7385   -2.0270   -0.2669 H   0  0  0  0  0  0  0  0  0  0  0  0
    1.0265   -2.0928   -0.1764 H   0  0  0  0  0  0  0  0  0  0  0  0
    1.3524   -0.9047   -2.5499 H   0  0  0  0  0  0  0  0  0  0  0  0
    1.5875    1.9324    2.1813 C   0  0  0  0  0  0  0  0  0  0  0  0
    0.8894    0.9161    1.7009 C   0  0  0  0  0  0  0  0  0  0  0  0
    0.1821    0.9081    0.3823 C   0  0  0  0  0  3  0  0  0  0  0  0
   -1.3113    0.7464    0.4674 C   0  0  0  0  0  0  0  0  0  0  0  0
   -2.0398    0.8199    1.5702 C   0  0  0  0  0  0  0  0  0  0  0  0
    2.0848    1.8746    3.1414 H   0  0  0  0  0  0  0  0  0  0  0  0
    1.6887    2.8608    1.6292 H   0  0  0  0  0  0  0  0  0  0  0  0
    0.8044    0.0058    2.2888 H   0  0  0  0  0  0  0  0  0  0  0  0
    0.4091    1.8270   -0.1685 H   0  0  0  0  0  0  0  0  0  0  0  0
   -1.8089    0.5630   -0.4809 H   0  0  0  0  0  0  0  0  0  0  0  0
   -3.1150    0.6979    1.5388 H   0  0  0  0  0  0  0  0  0  0  0  0
   -1.5920    1.0114    2.5386 H   0  0  0  0  0  0  0  0  0  0  0  0
  1  2  1  0
  1  3  1  0
  1  4  1  0
  1  5  1  0
  2  6  1  0
  7  8  2  3
  7 12  1  0
  7 13  1  0
  8  9  1  0
  8 14  1  0
  9 10  1  0
  9 15  1  0
 10 11  2  3
 10 16  1  0
 11 17  1  0
 11 18  1  0
M  RAD  1   9   2
M  END
>  <reaction>  (15) 
rxn_1813

>  <mol_properties>  (15) 
{"0": {"label": "*3", "atom_type": "Cs"}, "1": {"label": "*4", "atom_type": "S2s"}, "2": {"label": "*2", "atom_type": "H0"}, "7": {"label": "*0", "atom_type": "Cd"}, "8": {"label": "*1", "atom_type": "Cs"}}

>  <type>  (15) 
unop_11

>  <geom_source>  (15) 
Heuristics

$$$$

     RDKit          3D

 18 16  0  0  0  0  0  0  0  0999 V2000
   -0.2765   -1.9283    0.0196 C   0  0  0  0  0  0  0  0  0  0  0  0
   -0.2765   -1.9283   -1.7910 S   0  0  0  0  0  0  0  0  0  0  0  0
   -0.2765   -0.7125    0.4954 H   0  0  0  0  0  0  0  0  0  0  0  0
   -1.1971   -2.4225    0.3256 H   0  0  0  0  0  0  0  0  0  0  0  0
    0.5679   -2.4883    0.4161 H   0  0  0  0  0  0  0  0  0  0  0  0
    0.8939   -1.3002   -1.9574 H   0  0  0  0  0  0  0  0  0  0  0  0
   -1.2053    2.3999   -0.3800 C   0  0  0  0  0  0  0  0  0  0  0  0
   -0.2765    1.4825   -0.1645 C   0  0  0  0  0  0  0  0  0  0  0  0
   -0.2765    0.5126    0.9748 C   0  0  0  0  0  3  0  0  0  0  0  0
    0.8900    0.6437    1.9161 C   0  0  0  0  0  0  0  0  0  0  0  0
    1.7637    1.6378    1.9378 C   0  0  0  0  0  0  0  0  0  0  0  0
   -1.1539    3.0697   -1.2293 H   0  0  0  0  0  0  0  0  0  0  0  0
   -2.0541    2.5134    0.2860 H   0  0  0  0  0  0  0  0  0  0  0  0
    0.5634    1.4065   -0.8504 H   0  0  0  0  0  0  0  0  0  0  0  0
   -1.2060    0.6077    1.5459 H   0  0  0  0  0  0  0  0  0  0  0  0
    0.9917   -0.1623    2.6377 H   0  0  0  0  0  0  0  0  0  0  0  0
    2.5721    1.6557    2.6576 H   0  0  0  0  0  0  0  0  0  0  0  0
    1.6991    2.4699    1.2461 H   0  0  0  0  0  0  0  0  0  0  0  0
  1  2  1  0
  1  3  1  0
  1  4  1  0
  1  5  1  0
  2  6  1  0
  7  8  2  3
  7 12  1  0
  7 13  1  0
  8  9  1  0
  8 14  1  0
  9 10  1  0
  9 15  1  0
 10 11  2  3
 10 16  1  0
 11 17  1  0
 11 18  1  0
M  RAD  1   9   2
M  END
>  <reaction>  (16) 
rxn_1813

>  <mol_properties>  (16) 
{"0": {"label": "*3", "atom_type": "Cs"}, "1": {"label": "*4", "atom_type": "S2s"}, "2": {"label": "*2", "atom_type": "H0"}, "7": {"label": "*0", "atom_type": "Cd"}, "8": {"label": "*1", "atom_type": "Cs"}}

>  <type>  (16) 
unop_12

>  <geom_source>  (16) 
Heuristics

$$$$

     RDKit          3D

 18 16  0  0  0  0  0  0  0  0999 V2000
    3.0179    1.0100   -0.9037 S   0  0  0  0  0  0  0  0  0  0  0  0
   -0.4601   -0.3524    0.1551 C   0  0  0  0  0  3  0  0  0  0  0  0
   -1.0816   -1.3373   -0.7931 C   0  0  0  0  0  0  0  0  0  0  0  0
   -1.0982    1.0029    0.0336 C   0  0  0  0  0  0  0  0  0  0  0  0
   -2.3169   -1.8106   -0.6041 C   0  0  0  0  0  0  0  0  0  0  0  0
   -0.6542    2.0311    0.7589 C   0  0  0  0  0  0  0  0  0  0  0  0
    2.1593   -0.1063    0.2410 C   0  0  0  0  0  0  0  0  0  0  0  0
   -0.5517   -0.7250    1.1987 H   0  0  0  0  0  0  0  0  0  0  0  0
    0.9498   -0.2306   -0.1641 H   0  0  0  0  0  0  0  0  0  0  0  0
   -0.5025   -1.6842   -1.6432 H   0  0  0  0  0  0  0  0  0  0  0  0
   -1.9278    1.1614   -0.6509 H   0  0  0  0  0  0  0  0  0  0  0  0
   -2.9146   -1.4870    0.2429 H   0  0  0  0  0  0  0  0  0  0  0  0
   -2.7365   -2.5278   -1.3019 H   0  0  0  0  0  0  0  0  0  0  0  0
    0.1738    1.9095    1.4511 H   0  0  0  0  0  0  0  0  0  0  0  0
   -1.1208    3.0060    0.6622 H   0  0  0  0  0  0  0  0  0  0  0  0
    2.1746    0.3232    1.2640 H   0  0  0  0  0  0  0  0  0  0  0  0
    2.6610   -1.0961    0.2447 H   0  0  0  0  0  0  0  0  0  0  0  0
    4.2285    0.9133   -0.1913 H   0  0  0  0  0  0  0  0  0  0  0  0
  1  7  1  0
  1 18  1  0
  2  3  1  0
  2  4  1  0
  2  8  1  0
  3  5  2  3
  3 10  1  0
  4  6  2  3
  4 11  1  0
  5 12  1  0
  5 13  1  0
  6 14  1  0
  6 15  1  0
  7  9  1  0
  7 16  1  0
  7 17  1  0
M  RAD  1   2   2
M  END
>  <reaction>  (17) 
rxn_1813

>  <mol_properties>  (17) 
{"0": {"label": "*3", "atom_type": "Cs"}, "1": {"label": "*4", "atom_type": "S2s"}, "2": {"label": "*2", "atom_type": "H0"}, "7": {"label": "*0", "atom_type": "Cd"}, "8": {"label": "*1", "atom_type": "Cs"}}

>  <type>  (17) 
unop_13

>  <geom_source>  (17) 
AutoTST

$$$$
