
     RDKit          3D

  7  6  0  0  0  0  0  0  0  0999 V2000
   -0.5808   -0.0343   -0.0072 C   0  0  0  0  0  0  0  0  0  0  0  0
    0.8189    0.0820   -0.3920 N   0  0  0  0  0  0  0  0  0  0  0  0
   -1.1366   -0.8351   -0.5131 H   0  0  0  0  0  0  0  0  0  0  0  0
   -1.0904    0.9086   -0.2116 H   0  0  0  0  0  0  0  0  0  0  0  0
   -0.6459   -0.2082    1.0679 H   0  0  0  0  0  0  0  0  0  0  0  0
    0.9043    0.2571   -1.3836 H   0  0  0  0  0  0  0  0  0  0  0  0
    1.3157   -0.7766   -0.1992 H   0  0  0  0  0  0  0  0  0  0  0  0
  1  2  1  0
  1  3  1  0
  1  4  1  0
  1  5  1  0
  2  6  1  0
  2  7  1  0
M  END
>  <reaction>  (1) 
rxn_686

>  <mol_properties>  (1) 
{"1": {"label": "donator", "atom_type": "N3s"}, "5": {"label": "d_hydrogen", "atom_type": "H0"}}

>  <type>  (1) 
r1h

$$$$

     RDKit          3D

  3  2  0  0  0  0  0  0  0  0999 V2000
    0.0002    0.4233    0.0000 N   0  0  0  0  0  2  0  0  0  0  0  0
   -0.8051   -0.2112    0.0000 H   0  0  0  0  0  0  0  0  0  0  0  0
    0.8049   -0.2121    0.0000 H   0  0  0  0  0  0  0  0  0  0  0  0
  1  2  1  0
  1  3  1  0
M  RAD  1   1   2
M  END
>  <reaction>  (2) 
rxn_686

>  <mol_properties>  (2) 
{"0": {"label": "acceptor", "atom_type": "N3s"}}

>  <type>  (2) 
r2

$$$$

     RDKit          3D

  4  3  0  0  0  0  0  0  0  0999 V2000
    0.0006   -0.0009    0.2762 N   0  0  0  0  0  0  0  0  0  0  0  0
   -0.4188    0.8439   -0.0883 H   0  0  0  0  0  0  0  0  0  0  0  0
   -0.5215   -0.7840   -0.0936 H   0  0  0  0  0  0  0  0  0  0  0  0
    0.9397   -0.0590   -0.0943 H   0  0  0  0  0  0  0  0  0  0  0  0
  1  2  1  0
  1  3  1  0
  1  4  1  0
M  END
>  <reaction>  (3) 
rxn_686

>  <mol_properties>  (3) 
{"0": {"label": "acceptor", "atom_type": "N3s"}, "3": {"label": "a_hydrogen", "atom_type": "H0"}}

>  <type>  (3) 
r2h

$$$$

     RDKit          3D

 10  8  0  0  0  0  0  0  0  0999 V2000
   -0.3706    1.3358    1.0622 N   0  0  0  0  0  2  0  0  0  0  0  0
    0.5093    1.6233    1.4907 H   0  0  0  0  0  0  0  0  0  0  0  0
   -0.4067    1.8397    0.1766 H   0  0  0  0  0  0  0  0  0  0  0  0
   -0.1864   -0.8262   -1.2116 C   0  0  0  0  0  0  0  0  0  0  0  0
    0.2478   -0.8442    0.1711 N   0  0  0  0  0  0  0  0  0  0  0  0
    0.2352   -0.0106   -1.8119 H   0  0  0  0  0  0  0  0  0  0  0  0
   -1.2739   -0.7560   -1.2471 H   0  0  0  0  0  0  0  0  0  0  0  0
    0.1017   -1.7672   -1.6904 H   0  0  0  0  0  0  0  0  0  0  0  0
   -0.2041    0.0877    0.7587 H   0  0  0  0  0  0  0  0  0  0  0  0
    1.2606   -0.7679    0.2112 H   0  0  0  0  0  0  0  0  0  0  0  0
  1  2  1  0
  1  3  1  0
  4  5  1  0
  4  6  1  0
  4  7  1  0
  4  8  1  0
  5  9  1  0
  5 10  1  0
M  RAD  1   1   2
M  END
>  <reaction>  (4) 
rxn_686

>  <mol_properties>  (4) 
{"0": {"label": "*3", "atom_type": "N3s"}, "1": {"label": "*4", "atom_type": "H0"}, "3": {"label": "*0", "atom_type": "Cs"}, "4": {"label": "*1", "atom_type": "N3s"}, "8": {"label": "*2", "atom_type": "H0"}}

>  <type>  (4) 
ts

$$$$

     RDKit          3D

 10  8  0  0  0  0  0  0  0  0999 V2000
   -0.0110    1.4914    1.0146 N   0  0  0  0  0  2  0  0  0  0  0  0
   -0.8461    1.6052    1.5733 H   0  0  0  0  0  0  0  0  0  0  0  0
    0.5771    0.9790    1.6582 H   0  0  0  0  0  0  0  0  0  0  0  0
   -0.0110   -0.7774   -1.3011 C   0  0  0  0  0  0  0  0  0  0  0  0
   -0.0110   -0.7774    0.1551 N   0  0  0  0  0  0  0  0  0  0  0  0
    0.8447   -0.2692   -1.7657 H   0  0  0  0  0  0  0  0  0  0  0  0
   -0.9222   -0.2977   -1.6617 H   0  0  0  0  0  0  0  0  0  0  0  0
   -0.0257   -1.8071   -1.6617 H   0  0  0  0  0  0  0  0  0  0  0  0
   -0.0110    0.3566    0.5847 H   0  0  0  0  0  0  0  0  0  0  0  0
    0.8188   -1.2296    0.5131 H   0  0  0  0  0  0  0  0  0  0  0  0
  1  2  1  0
  1  3  1  0
  4  5  1  0
  4  6  1  0
  4  7  1  0
  4  8  1  0
  5  9  1  0
  5 10  1  0
M  RAD  1   1   2
M  END
>  <reaction>  (5) 
rxn_686

>  <mol_properties>  (5) 
{"0": {"label": "*3", "atom_type": "N3s"}, "1": {"label": "*4", "atom_type": "H0"}, "3": {"label": "*0", "atom_type": "Cs"}, "4": {"label": "*1", "atom_type": "N3s"}, "8": {"label": "*2", "atom_type": "H0"}}

>  <type>  (5) 
unop_1

>  <geom_source>  (5) 
Heuristics

$$$$

     RDKit          3D

 10  8  0  0  0  0  0  0  0  0999 V2000
    0.0058    1.4819    1.0406 N   0  0  0  0  0  2  0  0  0  0  0  0
   -0.4764    2.0624    0.3675 H   0  0  0  0  0  0  0  0  0  0  0  0
   -0.5415    0.9438    1.6990 H   0  0  0  0  0  0  0  0  0  0  0  0
    0.0058   -0.7869   -1.2751 C   0  0  0  0  0  0  0  0  0  0  0  0
    0.0058   -0.7869    0.1812 N   0  0  0  0  0  0  0  0  0  0  0  0
    0.8614   -0.2787   -1.7396 H   0  0  0  0  0  0  0  0  0  0  0  0
   -0.9054   -0.3072   -1.6357 H   0  0  0  0  0  0  0  0  0  0  0  0
   -0.0090   -1.8165   -1.6357 H   0  0  0  0  0  0  0  0  0  0  0  0
    0.0058    0.3471    0.6108 H   0  0  0  0  0  0  0  0  0  0  0  0
    0.8356   -1.2390    0.5392 H   0  0  0  0  0  0  0  0  0  0  0  0
  1  2  1  0
  1  3  1  0
  4  5  1  0
  4  6  1  0
  4  7  1  0
  4  8  1  0
  5  9  1  0
  5 10  1  0
M  RAD  1   1   2
M  END
>  <reaction>  (6) 
rxn_686

>  <mol_properties>  (6) 
{"0": {"label": "*3", "atom_type": "N3s"}, "1": {"label": "*4", "atom_type": "H0"}, "3": {"label": "*0", "atom_type": "Cs"}, "4": {"label": "*1", "atom_type": "N3s"}, "8": {"label": "*2", "atom_type": "H0"}}

>  <type>  (6) 
unop_2

>  <geom_source>  (6) 
Heuristics

$$$$

     RDKit          3D

 10  8  0  0  0  0  0  0  0  0999 V2000
   -0.0252    1.4864    1.0119 N   0  0  0  0  0  2  0  0  0  0  0  0
   -0.5073    1.4752    1.9007 H   0  0  0  0  0  0  0  0  0  0  0  0
    0.8726    1.3319    1.4509 H   0  0  0  0  0  0  0  0  0  0  0  0
   -0.0252   -0.7824   -1.3038 C   0  0  0  0  0  0  0  0  0  0  0  0
   -0.0252   -0.7824    0.1525 N   0  0  0  0  0  0  0  0  0  0  0  0
    0.8305   -0.2742   -1.7684 H   0  0  0  0  0  0  0  0  0  0  0  0
   -0.9364   -0.3027   -1.6644 H   0  0  0  0  0  0  0  0  0  0  0  0
   -0.0399   -1.8121   -1.6644 H   0  0  0  0  0  0  0  0  0  0  0  0
   -0.0252    0.3516    0.5820 H   0  0  0  0  0  0  0  0  0  0  0  0
    0.8047   -1.2345    0.5104 H   0  0  0  0  0  0  0  0  0  0  0  0
  1  2  1  0
  1  3  1  0
  4  5  1  0
  4  6  1  0
  4  7  1  0
  4  8  1  0
  5  9  1  0
  5 10  1  0
M  RAD  1   1   2
M  END
>  <reaction>  (7) 
rxn_686

>  <mol_properties>  (7) 
{"0": {"label": "*3", "atom_type": "N3s"}, "1": {"label": "*4", "atom_type": "H0"}, "3": {"label": "*0", "atom_type": "Cs"}, "4": {"label": "*1", "atom_type": "N3s"}, "8": {"label": "*2", "atom_type": "H0"}}

>  <type>  (7) 
unop_3

>  <geom_source>  (7) 
Heuristics

$$$$

     RDKit          3D

 10  8  0  0  0  0  0  0  0  0999 V2000
   -0.0163    1.4608    1.0472 N   0  0  0  0  0  2  0  0  0  0  0  0
    0.8188    1.9162    0.7041 H   0  0  0  0  0  0  0  0  0  0  0  0
   -0.8483    2.0352    1.0694 H   0  0  0  0  0  0  0  0  0  0  0  0
   -0.0163   -0.8080   -1.2685 C   0  0  0  0  0  0  0  0  0  0  0  0
   -0.0163   -0.8080    0.1878 N   0  0  0  0  0  0  0  0  0  0  0  0
    0.8393   -0.2998   -1.7331 H   0  0  0  0  0  0  0  0  0  0  0  0
   -0.9275   -0.3283   -1.6291 H   0  0  0  0  0  0  0  0  0  0  0  0
   -0.0311   -1.8377   -1.6291 H   0  0  0  0  0  0  0  0  0  0  0  0
   -0.0163    0.3260    0.6173 H   0  0  0  0  0  0  0  0  0  0  0  0
    0.8135   -1.2602    0.5457 H   0  0  0  0  0  0  0  0  0  0  0  0
  1  2  1  0
  1  3  1  0
  4  5  1  0
  4  6  1  0
  4  7  1  0
  4  8  1  0
  5  9  1  0
  5 10  1  0
M  RAD  1   1   2
M  END
>  <reaction>  (8) 
rxn_686

>  <mol_properties>  (8) 
{"0": {"label": "*3", "atom_type": "N3s"}, "1": {"label": "*4", "atom_type": "H0"}, "3": {"label": "*0", "atom_type": "Cs"}, "4": {"label": "*1", "atom_type": "N3s"}, "8": {"label": "*2", "atom_type": "H0"}}

>  <type>  (8) 
unop_4

>  <geom_source>  (8) 
Heuristics

$$$$

     RDKit          3D

 10  8  0  0  0  0  0  0  0  0999 V2000
   -0.0349    1.4731    1.0175 N   0  0  0  0  0  2  0  0  0  0  0  0
   -0.0349    1.4161    2.0271 H   0  0  0  0  0  0  0  0  0  0  0  0
    0.8354    1.9847    1.0756 H   0  0  0  0  0  0  0  0  0  0  0  0
   -0.0349   -0.7957   -1.2983 C   0  0  0  0  0  0  0  0  0  0  0  0
   -0.0349   -0.7957    0.1580 N   0  0  0  0  0  0  0  0  0  0  0  0
    0.8207   -0.2875   -1.7628 H   0  0  0  0  0  0  0  0  0  0  0  0
   -0.9461   -0.3160   -1.6589 H   0  0  0  0  0  0  0  0  0  0  0  0
   -0.0496   -1.8254   -1.6589 H   0  0  0  0  0  0  0  0  0  0  0  0
   -0.0349    0.3383    0.5876 H   0  0  0  0  0  0  0  0  0  0  0  0
    0.7949   -1.2478    0.5160 H   0  0  0  0  0  0  0  0  0  0  0  0
  1  2  1  0
  1  3  1  0
  4  5  1  0
  4  6  1  0
  4  7  1  0
  4  8  1  0
  5  9  1  0
  5 10  1  0
M  RAD  1   1   2
M  END
>  <reaction>  (9) 
rxn_686

>  <mol_properties>  (9) 
{"0": {"label": "*3", "atom_type": "N3s"}, "1": {"label": "*4", "atom_type": "H0"}, "3": {"label": "*0", "atom_type": "Cs"}, "4": {"label": "*1", "atom_type": "N3s"}, "8": {"label": "*2", "atom_type": "H0"}}

>  <type>  (9) 
unop_5

>  <geom_source>  (9) 
Heuristics

$$$$

     RDKit          3D

 10  8  0  0  0  0  0  0  0  0999 V2000
   -0.0245    1.4591    1.0406 N   0  0  0  0  0  2  0  0  0  0  0  0
    0.9398    1.7438    1.1484 H   0  0  0  0  0  0  0  0  0  0  0  0
   -0.6030    2.2800    0.9218 H   0  0  0  0  0  0  0  0  0  0  0  0
   -0.0245   -0.8096   -1.2752 C   0  0  0  0  0  0  0  0  0  0  0  0
   -0.0245   -0.8096    0.1811 N   0  0  0  0  0  0  0  0  0  0  0  0
    0.8311   -0.3014   -1.7397 H   0  0  0  0  0  0  0  0  0  0  0  0
   -0.9357   -0.3299   -1.6358 H   0  0  0  0  0  0  0  0  0  0  0  0
   -0.0393   -1.8393   -1.6358 H   0  0  0  0  0  0  0  0  0  0  0  0
   -0.0245    0.3244    0.6107 H   0  0  0  0  0  0  0  0  0  0  0  0
    0.8053   -1.2618    0.5391 H   0  0  0  0  0  0  0  0  0  0  0  0
  1  2  1  0
  1  3  1  0
  4  5  1  0
  4  6  1  0
  4  7  1  0
  4  8  1  0
  5  9  1  0
  5 10  1  0
M  RAD  1   1   2
M  END
>  <reaction>  (10) 
rxn_686

>  <mol_properties>  (10) 
{"0": {"label": "*3", "atom_type": "N3s"}, "1": {"label": "*4", "atom_type": "H0"}, "3": {"label": "*0", "atom_type": "Cs"}, "4": {"label": "*1", "atom_type": "N3s"}, "8": {"label": "*2", "atom_type": "H0"}}

>  <type>  (10) 
unop_6

>  <geom_source>  (10) 
Heuristics

$$$$

     RDKit          3D

 10  8  0  0  0  0  0  0  0  0999 V2000
   -0.0293    1.4597    1.0327 N   0  0  0  0  0  2  0  0  0  0  0  0
    0.8058    1.5736    1.5914 H   0  0  0  0  0  0  0  0  0  0  0  0
   -0.2536    2.4250    0.8314 H   0  0  0  0  0  0  0  0  0  0  0  0
   -0.0293   -0.8091   -1.2831 C   0  0  0  0  0  0  0  0  0  0  0  0
   -0.0293   -0.8091    0.1732 N   0  0  0  0  0  0  0  0  0  0  0  0
    0.8263   -0.3009   -1.7476 H   0  0  0  0  0  0  0  0  0  0  0  0
   -0.9406   -0.3294   -1.6437 H   0  0  0  0  0  0  0  0  0  0  0  0
   -0.0441   -1.8387   -1.6437 H   0  0  0  0  0  0  0  0  0  0  0  0
   -0.0293    0.3249    0.6028 H   0  0  0  0  0  0  0  0  0  0  0  0
    0.8005   -1.2612    0.5312 H   0  0  0  0  0  0  0  0  0  0  0  0
  1  2  1  0
  1  3  1  0
  4  5  1  0
  4  6  1  0
  4  7  1  0
  4  8  1  0
  5  9  1  0
  5 10  1  0
M  RAD  1   1   2
M  END
>  <reaction>  (11) 
rxn_686

>  <mol_properties>  (11) 
{"0": {"label": "*3", "atom_type": "N3s"}, "1": {"label": "*4", "atom_type": "H0"}, "3": {"label": "*0", "atom_type": "Cs"}, "4": {"label": "*1", "atom_type": "N3s"}, "8": {"label": "*2", "atom_type": "H0"}}

>  <type>  (11) 
unop_7

>  <geom_source>  (11) 
Heuristics

$$$$

     RDKit          3D

 10  8  0  0  0  0  0  0  0  0999 V2000
   -0.0007    1.4909    1.0224 N   0  0  0  0  0  2  0  0  0  0  0  0
   -0.9650    1.7755    1.1303 H   0  0  0  0  0  0  0  0  0  0  0  0
    0.2352    0.8303    1.7508 H   0  0  0  0  0  0  0  0  0  0  0  0
   -0.0007   -0.7779   -1.2933 C   0  0  0  0  0  0  0  0  0  0  0  0
   -0.0007   -0.7779    0.1630 N   0  0  0  0  0  0  0  0  0  0  0  0
    0.8550   -0.2697   -1.7579 H   0  0  0  0  0  0  0  0  0  0  0  0
   -0.9119   -0.2982   -1.6539 H   0  0  0  0  0  0  0  0  0  0  0  0
   -0.0154   -1.8076   -1.6539 H   0  0  0  0  0  0  0  0  0  0  0  0
   -0.0007    0.3561    0.5926 H   0  0  0  0  0  0  0  0  0  0  0  0
    0.8292   -1.2300    0.5210 H   0  0  0  0  0  0  0  0  0  0  0  0
  1  2  1  0
  1  3  1  0
  4  5  1  0
  4  6  1  0
  4  7  1  0
  4  8  1  0
  5  9  1  0
  5 10  1  0
M  RAD  1   1   2
M  END
>  <reaction>  (12) 
rxn_686

>  <mol_properties>  (12) 
{"0": {"label": "*3", "atom_type": "N3s"}, "1": {"label": "*4", "atom_type": "H0"}, "3": {"label": "*0", "atom_type": "Cs"}, "4": {"label": "*1", "atom_type": "N3s"}, "8": {"label": "*2", "atom_type": "H0"}}

>  <type>  (12) 
unop_8

>  <geom_source>  (12) 
Heuristics

$$$$

     RDKit          3D

 10  8  0  0  0  0  0  0  0  0999 V2000
   -0.0060    1.4658    1.0499 N   0  0  0  0  0  2  0  0  0  0  0  0
    0.4762    2.0463    0.3767 H   0  0  0  0  0  0  0  0  0  0  0  0
   -0.9675    1.6811    1.2774 H   0  0  0  0  0  0  0  0  0  0  0  0
   -0.0060   -0.8030   -1.2659 C   0  0  0  0  0  0  0  0  0  0  0  0
   -0.0060   -0.8030    0.1904 N   0  0  0  0  0  0  0  0  0  0  0  0
    0.8496   -0.2948   -1.7304 H   0  0  0  0  0  0  0  0  0  0  0  0
   -0.9172   -0.3233   -1.6265 H   0  0  0  0  0  0  0  0  0  0  0  0
   -0.0207   -1.8327   -1.6265 H   0  0  0  0  0  0  0  0  0  0  0  0
   -0.0060    0.3310    0.6200 H   0  0  0  0  0  0  0  0  0  0  0  0
    0.8238   -1.2551    0.5484 H   0  0  0  0  0  0  0  0  0  0  0  0
  1  2  1  0
  1  3  1  0
  4  5  1  0
  4  6  1  0
  4  7  1  0
  4  8  1  0
  5  9  1  0
  5 10  1  0
M  RAD  1   1   2
M  END
>  <reaction>  (13) 
rxn_686

>  <mol_properties>  (13) 
{"0": {"label": "*3", "atom_type": "N3s"}, "1": {"label": "*4", "atom_type": "H0"}, "3": {"label": "*0", "atom_type": "Cs"}, "4": {"label": "*1", "atom_type": "N3s"}, "8": {"label": "*2", "atom_type": "H0"}}

>  <type>  (13) 
unop_9

>  <geom_source>  (13) 
Heuristics

$$$$

     RDKit          3D

 10  8  0  0  0  0  0  0  0  0999 V2000
    0.0047    1.4876    1.0319 N   0  0  0  0  0  2  0  0  0  0  0  0
   -0.8304    1.9430    0.6888 H   0  0  0  0  0  0  0  0  0  0  0  0
   -0.1395    0.8110    1.7694 H   0  0  0  0  0  0  0  0  0  0  0  0
    0.0047   -0.7812   -1.2838 C   0  0  0  0  0  0  0  0  0  0  0  0
    0.0047   -0.7812    0.1724 N   0  0  0  0  0  0  0  0  0  0  0  0
    0.8604   -0.2730   -1.7484 H   0  0  0  0  0  0  0  0  0  0  0  0
   -0.9065   -0.3015   -1.6444 H   0  0  0  0  0  0  0  0  0  0  0  0
   -0.0100   -1.8109   -1.6444 H   0  0  0  0  0  0  0  0  0  0  0  0
    0.0047    0.3528    0.6020 H   0  0  0  0  0  0  0  0  0  0  0  0
    0.8345   -1.2334    0.5304 H   0  0  0  0  0  0  0  0  0  0  0  0
  1  2  1  0
  1  3  1  0
  4  5  1  0
  4  6  1  0
  4  7  1  0
  4  8  1  0
  5  9  1  0
  5 10  1  0
M  RAD  1   1   2
M  END
>  <reaction>  (14) 
rxn_686

>  <mol_properties>  (14) 
{"0": {"label": "*3", "atom_type": "N3s"}, "1": {"label": "*4", "atom_type": "H0"}, "3": {"label": "*0", "atom_type": "Cs"}, "4": {"label": "*1", "atom_type": "N3s"}, "8": {"label": "*2", "atom_type": "H0"}}

>  <type>  (14) 
unop_10

>  <geom_source>  (14) 
Heuristics

$$$$

     RDKit          3D

 10  8  0  0  0  0  0  0  0  0999 V2000
   -0.0328    1.4627    1.0254 N   0  0  0  0  0  2  0  0  0  0  0  0
    0.4493    1.4516    1.9142 H   0  0  0  0  0  0  0  0  0  0  0  0
    0.2583    2.4119    0.8333 H   0  0  0  0  0  0  0  0  0  0  0  0
   -0.0328   -0.8060   -1.2903 C   0  0  0  0  0  0  0  0  0  0  0  0
   -0.0328   -0.8060    0.1660 N   0  0  0  0  0  0  0  0  0  0  0  0
    0.8228   -0.2978   -1.7549 H   0  0  0  0  0  0  0  0  0  0  0  0
   -0.9440   -0.3263   -1.6509 H   0  0  0  0  0  0  0  0  0  0  0  0
   -0.0476   -1.8357   -1.6509 H   0  0  0  0  0  0  0  0  0  0  0  0
   -0.0328    0.3280    0.5955 H   0  0  0  0  0  0  0  0  0  0  0  0
    0.7970   -1.2582    0.5239 H   0  0  0  0  0  0  0  0  0  0  0  0
  1  2  1  0
  1  3  1  0
  4  5  1  0
  4  6  1  0
  4  7  1  0
  4  8  1  0
  5  9  1  0
  5 10  1  0
M  RAD  1   1   2
M  END
>  <reaction>  (15) 
rxn_686

>  <mol_properties>  (15) 
{"0": {"label": "*3", "atom_type": "N3s"}, "1": {"label": "*4", "atom_type": "H0"}, "3": {"label": "*0", "atom_type": "Cs"}, "4": {"label": "*1", "atom_type": "N3s"}, "8": {"label": "*2", "atom_type": "H0"}}

>  <type>  (15) 
unop_11

>  <geom_source>  (15) 
Heuristics

$$$$

     RDKit          3D

 10  8  0  0  0  0  0  0  0  0999 V2000
    0.0024    1.4739    1.0473 N   0  0  0  0  0  2  0  0  0  0  0  0
    0.0024    2.1002    0.2533 H   0  0  0  0  0  0  0  0  0  0  0  0
   -0.8679    1.2645    1.5177 H   0  0  0  0  0  0  0  0  0  0  0  0
    0.0024   -0.7949   -1.2685 C   0  0  0  0  0  0  0  0  0  0  0  0
    0.0024   -0.7949    0.1878 N   0  0  0  0  0  0  0  0  0  0  0  0
    0.8580   -0.2867   -1.7330 H   0  0  0  0  0  0  0  0  0  0  0  0
   -0.9088   -0.3152   -1.6291 H   0  0  0  0  0  0  0  0  0  0  0  0
   -0.0124   -1.8245   -1.6291 H   0  0  0  0  0  0  0  0  0  0  0  0
    0.0024    0.3391    0.6174 H   0  0  0  0  0  0  0  0  0  0  0  0
    0.8322   -1.2470    0.5458 H   0  0  0  0  0  0  0  0  0  0  0  0
  1  2  1  0
  1  3  1  0
  4  5  1  0
  4  6  1  0
  4  7  1  0
  4  8  1  0
  5  9  1  0
  5 10  1  0
M  RAD  1   1   2
M  END
>  <reaction>  (16) 
rxn_686

>  <mol_properties>  (16) 
{"0": {"label": "*3", "atom_type": "N3s"}, "1": {"label": "*4", "atom_type": "H0"}, "3": {"label": "*0", "atom_type": "Cs"}, "4": {"label": "*1", "atom_type": "N3s"}, "8": {"label": "*2", "atom_type": "H0"}}

>  <type>  (16) 
unop_12

>  <geom_source>  (16) 
Heuristics

$$$$
