
     RDKit          3D

 12 11  0  0  0  0  0  0  0  0999 V2000
    1.2394   -0.3763   -0.3020 C   0  0  0  0  0  0  0  0  0  0  0  0
    0.1007    0.3024    0.4464 C   0  0  0  0  0  0  0  0  0  0  0  0
   -0.1187    2.0399   -0.0725 S   0  0  0  0  0  0  0  0  0  0  0  0
   -1.1974   -0.4877    0.3552 C   0  0  0  0  0  0  0  0  0  0  0  0
    2.1681    0.1850   -0.2048 H   0  0  0  0  0  0  0  0  0  0  0  0
    1.0030   -0.4604   -1.3656 H   0  0  0  0  0  0  0  0  0  0  0  0
    1.3993   -1.3856    0.0859 H   0  0  0  0  0  0  0  0  0  0  0  0
    0.3797    0.4050    1.4982 H   0  0  0  0  0  0  0  0  0  0  0  0
   -0.4500    1.7774   -1.3452 H   0  0  0  0  0  0  0  0  0  0  0  0
   -1.0545   -1.4977    0.7478 H   0  0  0  0  0  0  0  0  0  0  0  0
   -1.5206   -0.5758   -0.6849 H   0  0  0  0  0  0  0  0  0  0  0  0
   -1.9957   -0.0054    0.9183 H   0  0  0  0  0  0  0  0  0  0  0  0
  1  2  1  0
  1  5  1  0
  1  6  1  0
  1  7  1  0
  2  4  1  0
  2  3  1  0
  2  8  1  0
  3  9  1  0
  4 10  1  0
  4 11  1  0
  4 12  1  0
M  END
>  <reaction>  (1) 
rxn_1922

>  <mol_properties>  (1) 
{"1": {"label": "donator", "atom_type": "Cs"}, "7": {"label": "d_hydrogen", "atom_type": "H0"}}

>  <type>  (1) 
r1h

$$$$

     RDKit          3D

 14 14  0  0  0  0  0  0  0  0999 V2000
    2.3111    0.1295    0.0255 C   0  0  0  0  0  0  0  0  0  0  0  0
    0.9132    0.0511    0.0101 C   0  0  0  0  0  0  0  0  0  0  0  0
    0.1101    1.2180   -0.0350 C   0  0  0  0  0  3  0  0  0  0  0  0
   -1.2644    1.1347   -0.0499 C   0  0  0  0  0  0  0  0  0  0  0  0
   -1.8967   -0.1062   -0.0209 C   0  0  0  0  0  0  0  0  0  0  0  0
   -1.1306   -1.2689    0.0235 C   0  0  0  0  0  0  0  0  0  0  0  0
    0.2446   -1.1981    0.0389 C   0  0  0  0  0  0  0  0  0  0  0  0
    2.9188   -0.7647    0.0599 H   0  0  0  0  0  0  0  0  0  0  0  0
    2.8158    1.0859    0.0034 H   0  0  0  0  0  0  0  0  0  0  0  0
    0.5964    2.1860   -0.0577 H   0  0  0  0  0  0  0  0  0  0  0  0
   -1.8572    2.0404   -0.0845 H   0  0  0  0  0  0  0  0  0  0  0  0
   -2.9772   -0.1668   -0.0328 H   0  0  0  0  0  0  0  0  0  0  0  0
   -1.6191   -2.2351    0.0461 H   0  0  0  0  0  0  0  0  0  0  0  0
    0.8353   -2.1058    0.0735 H   0  0  0  0  0  0  0  0  0  0  0  0
  1  2  2  3
  1  8  1  0
  1  9  1  0
  2  3  1  0
  2  7  1  0
  3  4  1  0
  3 10  1  0
  4  5  2  0
  4 11  1  0
  5  6  1  0
  5 12  1  0
  6  7  2  0
  6 13  1  0
  7 14  1  0
M  RAD  1   3   2
M  END
>  <reaction>  (2) 
rxn_1922

>  <mol_properties>  (2) 
{"0": {"label": "acceptor", "atom_type": "Cs"}}

>  <type>  (2) 
r2

$$$$

     RDKit          3D

 15 15  0  0  0  0  0  0  0  0999 V2000
    2.2033   -0.2106   -0.1691 C   0  0  0  0  0  0  0  0  0  0  0  0
    0.7079   -0.0769   -0.0833 C   0  0  0  0  0  0  0  0  0  0  0  0
    0.0133   -0.5320    1.0332 C   0  0  0  0  0  0  0  0  0  0  0  0
   -1.3681   -0.4375    1.1023 C   0  0  0  0  0  0  0  0  0  0  0  0
   -2.0817    0.1179    0.0512 C   0  0  0  0  0  0  0  0  0  0  0  0
   -1.4017    0.5784   -1.0658 C   0  0  0  0  0  0  0  0  0  0  0  0
   -0.0203    0.4813   -1.1294 C   0  0  0  0  0  0  0  0  0  0  0  0
    2.6627   -0.1689    0.8190 H   0  0  0  0  0  0  0  0  0  0  0  0
    2.4808   -1.1663   -0.6212 H   0  0  0  0  0  0  0  0  0  0  0  0
    2.6378    0.5807   -0.7809 H   0  0  0  0  0  0  0  0  0  0  0  0
    0.5630   -0.9645    1.8617 H   0  0  0  0  0  0  0  0  0  0  0  0
   -1.8884   -0.7961    1.9818 H   0  0  0  0  0  0  0  0  0  0  0  0
   -3.1603    0.1950    0.1041 H   0  0  0  0  0  0  0  0  0  0  0  0
   -1.9485    1.0183   -1.8907 H   0  0  0  0  0  0  0  0  0  0  0  0
    0.5030    0.8475   -2.0056 H   0  0  0  0  0  0  0  0  0  0  0  0
  1  2  1  0
  1  8  1  0
  1  9  1  0
  1 10  1  0
  2  3  2  0
  2  7  1  0
  3  4  1  0
  3 11  1  0
  4  5  2  0
  4 12  1  0
  5  6  1  0
  5 13  1  0
  6  7  2  0
  6 14  1  0
  7 15  1  0
M  END
>  <reaction>  (3) 
rxn_1922

>  <mol_properties>  (3) 
{"0": {"label": "a_hydrogen", "atom_type": "H0"}, "1": {"label": "acceptor", "atom_type": "Cs"}}

>  <type>  (3) 
r2h

$$$$

     RDKit          3D

 26 25  0  0  0  0  0  0  0  0999 V2000
    0.3785    2.1236   -2.8407 C   0  0  0  0  0  0  0  0  0  0  0  0
    0.8054    1.2652   -1.6775 C   0  0  0  0  0  3  0  0  0  0  0  0
    2.2797    0.2883   -1.9371 S   0  0  0  0  0  0  0  0  0  0  0  0
    0.8618    1.9684   -0.3437 C   0  0  0  0  0  0  0  0  0  0  0  0
    0.2490    1.5333   -3.7497 H   0  0  0  0  0  0  0  0  0  0  0  0
    1.1167    2.9046   -3.0475 H   0  0  0  0  0  0  0  0  0  0  0  0
   -0.5744    2.6082   -2.6141 H   0  0  0  0  0  0  0  0  0  0  0  0
   -0.1948    0.3784   -1.5115 H   0  0  0  0  0  0  0  0  0  0  0  0
    1.9822   -0.1388   -3.1718 H   0  0  0  0  0  0  0  0  0  0  0  0
   -0.1057    2.4264   -0.1286 H   0  0  0  0  0  0  0  0  0  0  0  0
    1.6186    2.7597   -0.3428 H   0  0  0  0  0  0  0  0  0  0  0  0
    1.0873    1.2732    0.4665 H   0  0  0  0  0  0  0  0  0  0  0  0
   -1.1658   -0.5125   -1.2437 C   0  0  0  0  0  0  0  0  0  0  0  0
   -1.0982   -0.7351    0.1988 C   0  0  0  0  0  0  0  0  0  0  0  0
   -0.1401   -1.5971    0.7441 C   0  0  0  0  0  0  0  0  0  0  0  0
   -0.0143   -1.7461    2.1140 C   0  0  0  0  0  0  0  0  0  0  0  0
   -0.8415   -1.0378    2.9753 C   0  0  0  0  0  0  0  0  0  0  0  0
   -1.7984   -0.1801    2.4503 C   0  0  0  0  0  0  0  0  0  0  0  0
   -1.9235   -0.0292    1.0805 C   0  0  0  0  0  0  0  0  0  0  0  0
   -2.0742   -0.0381   -1.6071 H   0  0  0  0  0  0  0  0  0  0  0  0
   -0.8435   -1.3453   -1.8644 H   0  0  0  0  0  0  0  0  0  0  0  0
    0.5174   -2.1430    0.0777 H   0  0  0  0  0  0  0  0  0  0  0  0
    0.7346   -2.4185    2.5138 H   0  0  0  0  0  0  0  0  0  0  0  0
   -0.7430   -1.1555    4.0468 H   0  0  0  0  0  0  0  0  0  0  0  0
   -2.4513    0.3737    3.1137 H   0  0  0  0  0  0  0  0  0  0  0  0
   -2.6719    0.6447    0.6790 H   0  0  0  0  0  0  0  0  0  0  0  0
  1  2  1  0
  1  5  1  0
  1  6  1  0
  1  7  1  0
  2  4  1  0
  2  3  1  0
  3  9  1  0
  4 10  1  0
  4 11  1  0
  4 12  1  0
  8 13  1  0
 13 14  1  0
 13 20  1  0
 13 21  1  0
 14 15  2  0
 14 19  1  0
 15 16  1  0
 15 22  1  0
 16 17  2  0
 16 23  1  0
 17 18  1  0
 17 24  1  0
 18 19  2  0
 18 25  1  0
 19 26  1  0
M  RAD  1   2   2
M  END
>  <reaction>  (4) 
rxn_1922

>  <mol_properties>  (4) 
{"1": {"label": "*3", "atom_type": "Cs"}, "2": {"label": "*4", "atom_type": "S2s"}, "7": {"label": "*2", "atom_type": "H0"}, "12": {"label": "*1", "atom_type": "Cs"}, "13": {"label": "*0", "atom_type": "Cd"}}

>  <type>  (4) 
ts

$$$$

     RDKit          3D

 26 25  0  0  0  0  0  0  0  0999 V2000
    0.5821    1.8296   -2.7859 C   0  0  0  0  0  0  0  0  0  0  0  0
    0.5821    1.8296   -1.2636 C   0  0  0  0  0  3  0  0  0  0  0  0
    1.9372    0.8133   -0.5800 S   0  0  0  0  0  0  0  0  0  0  0  0
    0.5821    3.2396   -0.6896 C   0  0  0  0  0  0  0  0  0  0  0  0
    0.5535    0.8153   -3.1826 H   0  0  0  0  0  0  0  0  0  0  0  0
    1.4805    2.3193   -3.1695 H   0  0  0  0  0  0  0  0  0  0  0  0
   -0.2849    2.3770   -3.1648 H   0  0  0  0  0  0  0  0  0  0  0  0
   -0.4858    1.1977   -0.8386 H   0  0  0  0  0  0  0  0  0  0  0  0
    2.9431    1.5491   -1.0749 H   0  0  0  0  0  0  0  0  0  0  0  0
   -0.2849    3.7969   -1.0538 H   0  0  0  0  0  0  0  0  0  0  0  0
    1.4805    3.7795   -0.9986 H   0  0  0  0  0  0  0  0  0  0  0  0
    0.5535    3.2245    0.3993 H   0  0  0  0  0  0  0  0  0  0  0  0
   -1.5513    0.5672   -0.4146 C   0  0  0  0  0  0  0  0  0  0  0  0
   -1.1837   -0.6247    0.4253 C   0  0  0  0  0  0  0  0  0  0  0  0
   -0.5997   -1.7498   -0.1487 C   0  0  0  0  0  0  0  0  0  0  0  0
   -0.2873   -2.8619    0.6179 C   0  0  0  0  0  0  0  0  0  0  0  0
   -0.5535   -2.8672    1.9786 C   0  0  0  0  0  0  0  0  0  0  0  0
   -1.1321   -1.7514    2.5639 C   0  0  0  0  0  0  0  0  0  0  0  0
   -1.4423   -0.6421    1.7924 C   0  0  0  0  0  0  0  0  0  0  0  0
   -1.5072    1.4898    0.1652 H   0  0  0  0  0  0  0  0  0  0  0  0
   -2.5692    0.4693   -0.8005 H   0  0  0  0  0  0  0  0  0  0  0  0
   -0.3844   -1.7536   -1.2113 H   0  0  0  0  0  0  0  0  0  0  0  0
    0.1688   -3.7261    0.1509 H   0  0  0  0  0  0  0  0  0  0  0  0
   -0.3080   -3.7335    2.5795 H   0  0  0  0  0  0  0  0  0  0  0  0
   -1.3402   -1.7426    3.6266 H   0  0  0  0  0  0  0  0  0  0  0  0
   -1.8913    0.2272    2.2597 H   0  0  0  0  0  0  0  0  0  0  0  0
  1  2  1  0
  1  5  1  0
  1  6  1  0
  1  7  1  0
  2  4  1  0
  2  3  1  0
  3  9  1  0
  4 10  1  0
  4 11  1  0
  4 12  1  0
  8 13  1  0
 13 14  1  0
 13 20  1  0
 13 21  1  0
 14 15  2  0
 14 19  1  0
 15 16  1  0
 15 22  1  0
 16 17  2  0
 16 23  1  0
 17 18  1  0
 17 24  1  0
 18 19  2  0
 18 25  1  0
 19 26  1  0
M  RAD  1   2   2
M  END
>  <reaction>  (5) 
rxn_1922

>  <mol_properties>  (5) 
{"1": {"label": "*3", "atom_type": "Cs"}, "2": {"label": "*4", "atom_type": "S2s"}, "7": {"label": "*2", "atom_type": "H0"}, "12": {"label": "*1", "atom_type": "Cs"}, "13": {"label": "*0", "atom_type": "Cd"}}

>  <type>  (5) 
unop_1

>  <geom_source>  (5) 
Heuristics

$$$$

     RDKit          3D

 26 25  0  0  0  0  0  0  0  0999 V2000
    1.2955    1.7116   -1.1640 C   0  0  0  0  0  0  0  0  0  0  0  0
    1.2955    1.7116    0.3584 C   0  0  0  0  0  3  0  0  0  0  0  0
    2.6507    0.6954    1.0419 S   0  0  0  0  0  0  0  0  0  0  0  0
    1.2955    3.1216    0.9323 C   0  0  0  0  0  0  0  0  0  0  0  0
    1.2670    0.6974   -1.5607 H   0  0  0  0  0  0  0  0  0  0  0  0
    2.1940    2.2014   -1.5476 H   0  0  0  0  0  0  0  0  0  0  0  0
    0.4286    2.2591   -1.5428 H   0  0  0  0  0  0  0  0  0  0  0  0
    0.2276    1.0798    0.7834 H   0  0  0  0  0  0  0  0  0  0  0  0
    3.6566    1.4312    0.5470 H   0  0  0  0  0  0  0  0  0  0  0  0
    0.4286    3.6789    0.5681 H   0  0  0  0  0  0  0  0  0  0  0  0
    2.1940    3.6616    0.6234 H   0  0  0  0  0  0  0  0  0  0  0  0
    1.2670    3.1066    2.0213 H   0  0  0  0  0  0  0  0  0  0  0  0
   -0.8378    0.4493    1.2074 C   0  0  0  0  0  0  0  0  0  0  0  0
   -1.2649   -0.6171    0.2371 C   0  0  0  0  0  0  0  0  0  0  0  0
   -1.3781   -0.3419   -1.1222 C   0  0  0  0  0  0  0  0  0  0  0  0
   -1.8005   -1.3146   -2.0151 C   0  0  0  0  0  0  0  0  0  0  0  0
   -2.1171   -2.5861   -1.5616 C   0  0  0  0  0  0  0  0  0  0  0  0
   -2.0053   -2.8748   -0.2102 C   0  0  0  0  0  0  0  0  0  0  0  0
   -1.5824   -1.8981    0.6781 C   0  0  0  0  0  0  0  0  0  0  0  0
   -0.3220    0.0201    2.0670 H   0  0  0  0  0  0  0  0  0  0  0  0
   -1.7043    0.9989    1.5841 H   0  0  0  0  0  0  0  0  0  0  0  0
   -1.1293    0.6485   -1.4867 H   0  0  0  0  0  0  0  0  0  0  0  0
   -1.8796   -1.0792   -3.0692 H   0  0  0  0  0  0  0  0  0  0  0  0
   -2.4446   -3.3480   -2.2574 H   0  0  0  0  0  0  0  0  0  0  0  0
   -2.2454   -3.8659    0.1545 H   0  0  0  0  0  0  0  0  0  0  0  0
   -1.4946   -2.1344    1.7327 H   0  0  0  0  0  0  0  0  0  0  0  0
  1  2  1  0
  1  5  1  0
  1  6  1  0
  1  7  1  0
  2  4  1  0
  2  3  1  0
  3  9  1  0
  4 10  1  0
  4 11  1  0
  4 12  1  0
  8 13  1  0
 13 14  1  0
 13 20  1  0
 13 21  1  0
 14 15  2  0
 14 19  1  0
 15 16  1  0
 15 22  1  0
 16 17  2  0
 16 23  1  0
 17 18  1  0
 17 24  1  0
 18 19  2  0
 18 25  1  0
 19 26  1  0
M  RAD  1   2   2
M  END
>  <reaction>  (6) 
rxn_1922

>  <mol_properties>  (6) 
{"1": {"label": "*3", "atom_type": "Cs"}, "2": {"label": "*4", "atom_type": "S2s"}, "7": {"label": "*2", "atom_type": "H0"}, "12": {"label": "*1", "atom_type": "Cs"}, "13": {"label": "*0", "atom_type": "Cd"}}

>  <type>  (6) 
unop_2

>  <geom_source>  (6) 
Heuristics

$$$$

     RDKit          3D

 26 25  0  0  0  0  0  0  0  0999 V2000
    0.6859    1.3623   -3.2183 C   0  0  0  0  0  0  0  0  0  0  0  0
    0.6859    1.3623   -1.6959 C   0  0  0  0  0  3  0  0  0  0  0  0
    2.0411    0.3460   -1.0124 S   0  0  0  0  0  0  0  0  0  0  0  0
    0.6859    2.7723   -1.1220 C   0  0  0  0  0  0  0  0  0  0  0  0
    0.6574    0.3480   -3.6150 H   0  0  0  0  0  0  0  0  0  0  0  0
    1.5844    1.8520   -3.6019 H   0  0  0  0  0  0  0  0  0  0  0  0
   -0.1810    1.9097   -3.5971 H   0  0  0  0  0  0  0  0  0  0  0  0
   -0.3819    0.7304   -1.2709 H   0  0  0  0  0  0  0  0  0  0  0  0
    3.0470    1.0818   -1.5073 H   0  0  0  0  0  0  0  0  0  0  0  0
   -0.1810    3.3296   -1.4862 H   0  0  0  0  0  0  0  0  0  0  0  0
    1.5844    3.3122   -1.4309 H   0  0  0  0  0  0  0  0  0  0  0  0
    0.6574    2.7572   -0.0330 H   0  0  0  0  0  0  0  0  0  0  0  0
   -1.4474    0.0999   -0.8469 C   0  0  0  0  0  0  0  0  0  0  0  0
   -1.1979   -0.5662    0.4780 C   0  0  0  0  0  0  0  0  0  0  0  0
   -0.1952   -1.5206    0.6197 C   0  0  0  0  0  0  0  0  0  0  0  0
    0.0174   -2.1583    1.8322 C   0  0  0  0  0  0  0  0  0  0  0  0
   -0.7720   -1.8497    2.9294 C   0  0  0  0  0  0  0  0  0  0  0  0
   -1.7724   -0.8980    2.8029 C   0  0  0  0  0  0  0  0  0  0  0  0
   -1.9805   -0.2635    1.5880 C   0  0  0  0  0  0  0  0  0  0  0  0
   -1.8511    1.1045   -0.7161 H   0  0  0  0  0  0  0  0  0  0  0  0
   -2.1692   -0.4707   -1.4369 H   0  0  0  0  0  0  0  0  0  0  0  0
    0.4296   -1.7660   -0.2318 H   0  0  0  0  0  0  0  0  0  0  0  0
    0.8048   -2.8965    1.9207 H   0  0  0  0  0  0  0  0  0  0  0  0
   -0.6060   -2.3445    3.8779 H   0  0  0  0  0  0  0  0  0  0  0  0
   -2.3920   -0.6456    3.6545 H   0  0  0  0  0  0  0  0  0  0  0  0
   -2.7629    0.4819    1.4997 H   0  0  0  0  0  0  0  0  0  0  0  0
  1  2  1  0
  1  5  1  0
  1  6  1  0
  1  7  1  0
  2  4  1  0
  2  3  1  0
  3  9  1  0
  4 10  1  0
  4 11  1  0
  4 12  1  0
  8 13  1  0
 13 14  1  0
 13 20  1  0
 13 21  1  0
 14 15  2  0
 14 19  1  0
 15 16  1  0
 15 22  1  0
 16 17  2  0
 16 23  1  0
 17 18  1  0
 17 24  1  0
 18 19  2  0
 18 25  1  0
 19 26  1  0
M  RAD  1   2   2
M  END
>  <reaction>  (7) 
rxn_1922

>  <mol_properties>  (7) 
{"1": {"label": "*3", "atom_type": "Cs"}, "2": {"label": "*4", "atom_type": "S2s"}, "7": {"label": "*2", "atom_type": "H0"}, "12": {"label": "*1", "atom_type": "Cs"}, "13": {"label": "*0", "atom_type": "Cd"}}

>  <type>  (7) 
unop_3

>  <geom_source>  (7) 
Heuristics

$$$$

     RDKit          3D

 26 25  0  0  0  0  0  0  0  0999 V2000
    2.0290    0.1506   -1.6098 C   0  0  0  0  0  0  0  0  0  0  0  0
    2.0290    0.1506   -0.0874 C   0  0  0  0  0  3  0  0  0  0  0  0
    3.3841   -0.8657    0.5961 S   0  0  0  0  0  0  0  0  0  0  0  0
    2.0290    1.5606    0.4866 C   0  0  0  0  0  0  0  0  0  0  0  0
    2.0004   -0.8637   -2.0064 H   0  0  0  0  0  0  0  0  0  0  0  0
    2.9274    0.6403   -1.9933 H   0  0  0  0  0  0  0  0  0  0  0  0
    1.1620    0.6980   -1.9886 H   0  0  0  0  0  0  0  0  0  0  0  0
    0.9611   -0.4813    0.3376 H   0  0  0  0  0  0  0  0  0  0  0  0
    4.3900   -0.1299    0.1012 H   0  0  0  0  0  0  0  0  0  0  0  0
    1.1620    2.1179    0.1224 H   0  0  0  0  0  0  0  0  0  0  0  0
    2.9274    2.1005    0.1776 H   0  0  0  0  0  0  0  0  0  0  0  0
    2.0004    1.5456    1.5755 H   0  0  0  0  0  0  0  0  0  0  0  0
   -0.1044   -1.1117    0.7616 C   0  0  0  0  0  0  0  0  0  0  0  0
   -1.3628   -0.4469    0.2763 C   0  0  0  0  0  0  0  0  0  0  0  0
   -1.3066    0.6743   -0.5459 C   0  0  0  0  0  0  0  0  0  0  0  0
   -2.4647    1.3074   -0.9703 C   0  0  0  0  0  0  0  0  0  0  0  0
   -3.7048    0.8266   -0.5790 C   0  0  0  0  0  0  0  0  0  0  0  0
   -3.7753   -0.2919    0.2374 C   0  0  0  0  0  0  0  0  0  0  0  0
   -2.6140   -0.9209    0.6587 C   0  0  0  0  0  0  0  0  0  0  0  0
   -0.2597   -2.1773    0.9337 H   0  0  0  0  0  0  0  0  0  0  0  0
    0.2269   -0.6707    1.7052 H   0  0  0  0  0  0  0  0  0  0  0  0
   -0.3414    1.0555   -0.8601 H   0  0  0  0  0  0  0  0  0  0  0  0
   -2.3978    2.1775   -1.6117 H   0  0  0  0  0  0  0  0  0  0  0  0
   -4.6105    1.3178   -0.9113 H   0  0  0  0  0  0  0  0  0  0  0  0
   -4.7387   -0.6790    0.5453 H   0  0  0  0  0  0  0  0  0  0  0  0
   -2.6792   -1.7971    1.2940 H   0  0  0  0  0  0  0  0  0  0  0  0
  1  2  1  0
  1  5  1  0
  1  6  1  0
  1  7  1  0
  2  4  1  0
  2  3  1  0
  3  9  1  0
  4 10  1  0
  4 11  1  0
  4 12  1  0
  8 13  1  0
 13 14  1  0
 13 20  1  0
 13 21  1  0
 14 15  2  0
 14 19  1  0
 15 16  1  0
 15 22  1  0
 16 17  2  0
 16 23  1  0
 17 18  1  0
 17 24  1  0
 18 19  2  0
 18 25  1  0
 19 26  1  0
M  RAD  1   2   2
M  END
>  <reaction>  (8) 
rxn_1922

>  <mol_properties>  (8) 
{"1": {"label": "*3", "atom_type": "Cs"}, "2": {"label": "*4", "atom_type": "S2s"}, "7": {"label": "*2", "atom_type": "H0"}, "12": {"label": "*1", "atom_type": "Cs"}, "13": {"label": "*0", "atom_type": "Cd"}}

>  <type>  (8) 
unop_4

>  <geom_source>  (8) 
Heuristics

$$$$

     RDKit          3D

 26 25  0  0  0  0  0  0  0  0999 V2000
    0.9497    0.8003   -3.3792 C   0  0  0  0  0  0  0  0  0  0  0  0
    0.9497    0.8003   -1.8568 C   0  0  0  0  0  3  0  0  0  0  0  0
    2.3048   -0.2160   -1.1733 S   0  0  0  0  0  0  0  0  0  0  0  0
    0.9497    2.2103   -1.2828 C   0  0  0  0  0  0  0  0  0  0  0  0
    0.9211   -0.2139   -3.7758 H   0  0  0  0  0  0  0  0  0  0  0  0
    1.8481    1.2901   -3.7627 H   0  0  0  0  0  0  0  0  0  0  0  0
    0.0827    1.3478   -3.7580 H   0  0  0  0  0  0  0  0  0  0  0  0
   -0.1182    0.1684   -1.4318 H   0  0  0  0  0  0  0  0  0  0  0  0
    3.3107    0.5199   -1.6682 H   0  0  0  0  0  0  0  0  0  0  0  0
    0.0827    2.7676   -1.6470 H   0  0  0  0  0  0  0  0  0  0  0  0
    1.8481    2.7502   -1.5918 H   0  0  0  0  0  0  0  0  0  0  0  0
    0.9211    2.1953   -0.1939 H   0  0  0  0  0  0  0  0  0  0  0  0
   -1.1837   -0.4620   -1.0078 C   0  0  0  0  0  0  0  0  0  0  0  0
   -1.2385   -0.4944    0.4946 C   0  0  0  0  0  0  0  0  0  0  0  0
   -0.0710   -0.5018    1.2517 C   0  0  0  0  0  0  0  0  0  0  0  0
   -0.1179   -0.5621    2.6359 C   0  0  0  0  0  0  0  0  0  0  0  0
   -1.3393   -0.6147    3.2899 C   0  0  0  0  0  0  0  0  0  0  0  0
   -2.5104   -0.6046    2.5478 C   0  0  0  0  0  0  0  0  0  0  0  0
   -2.4575   -0.5442    1.1638 C   0  0  0  0  0  0  0  0  0  0  0  0
   -2.0613    0.0320   -1.4262 H   0  0  0  0  0  0  0  0  0  0  0  0
   -1.1506   -1.4755   -1.4156 H   0  0  0  0  0  0  0  0  0  0  0  0
    0.8888   -0.4573    0.7494 H   0  0  0  0  0  0  0  0  0  0  0  0
    0.8031   -0.5647    3.2057 H   0  0  0  0  0  0  0  0  0  0  0  0
   -1.3784   -0.6592    4.3709 H   0  0  0  0  0  0  0  0  0  0  0  0
   -3.4702   -0.6406    3.0482 H   0  0  0  0  0  0  0  0  0  0  0  0
   -3.3787   -0.5331    0.5921 H   0  0  0  0  0  0  0  0  0  0  0  0
  1  2  1  0
  1  5  1  0
  1  6  1  0
  1  7  1  0
  2  4  1  0
  2  3  1  0
  3  9  1  0
  4 10  1  0
  4 11  1  0
  4 12  1  0
  8 13  1  0
 13 14  1  0
 13 20  1  0
 13 21  1  0
 14 15  2  0
 14 19  1  0
 15 16  1  0
 15 22  1  0
 16 17  2  0
 16 23  1  0
 17 18  1  0
 17 24  1  0
 18 19  2  0
 18 25  1  0
 19 26  1  0
M  RAD  1   2   2
M  END
>  <reaction>  (9) 
rxn_1922

>  <mol_properties>  (9) 
{"1": {"label": "*3", "atom_type": "Cs"}, "2": {"label": "*4", "atom_type": "S2s"}, "7": {"label": "*2", "atom_type": "H0"}, "12": {"label": "*1", "atom_type": "Cs"}, "13": {"label": "*0", "atom_type": "Cd"}}

>  <type>  (9) 
unop_5

>  <geom_source>  (9) 
Heuristics

$$$$

     RDKit          3D

 26 25  0  0  0  0  0  0  0  0999 V2000
    1.9331   -0.0929   -2.2062 C   0  0  0  0  0  0  0  0  0  0  0  0
    1.9331   -0.0929   -0.6838 C   0  0  0  0  0  3  0  0  0  0  0  0
    3.2882   -1.1092   -0.0003 S   0  0  0  0  0  0  0  0  0  0  0  0
    1.9331    1.3170   -0.1099 C   0  0  0  0  0  0  0  0  0  0  0  0
    1.9046   -1.1072   -2.6029 H   0  0  0  0  0  0  0  0  0  0  0  0
    2.8315    0.3968   -2.5898 H   0  0  0  0  0  0  0  0  0  0  0  0
    1.0662    0.4545   -2.5850 H   0  0  0  0  0  0  0  0  0  0  0  0
    0.8652   -0.7248   -0.2588 H   0  0  0  0  0  0  0  0  0  0  0  0
    4.2941   -0.3734   -0.4952 H   0  0  0  0  0  0  0  0  0  0  0  0
    1.0662    1.8743   -0.4741 H   0  0  0  0  0  0  0  0  0  0  0  0
    2.8315    1.8570   -0.4188 H   0  0  0  0  0  0  0  0  0  0  0  0
    1.9046    1.3020    0.9791 H   0  0  0  0  0  0  0  0  0  0  0  0
   -0.2003   -1.3553    0.1652 C   0  0  0  0  0  0  0  0  0  0  0  0
   -1.3590   -0.4133    0.3425 C   0  0  0  0  0  0  0  0  0  0  0  0
   -1.2864    0.9008   -0.1091 C   0  0  0  0  0  0  0  0  0  0  0  0
   -2.3414    1.7801    0.0798 C   0  0  0  0  0  0  0  0  0  0  0  0
   -3.4934    1.3575    0.7253 C   0  0  0  0  0  0  0  0  0  0  0  0
   -3.5803    0.0496    1.1772 C   0  0  0  0  0  0  0  0  0  0  0  0
   -2.5221   -0.8253    0.9856 C   0  0  0  0  0  0  0  0  0  0  0  0
   -0.5383   -2.3887    0.0817 H   0  0  0  0  0  0  0  0  0  0  0  0
    0.4783   -1.2988    1.0202 H   0  0  0  0  0  0  0  0  0  0  0  0
   -0.3910    1.2395   -0.6182 H   0  0  0  0  0  0  0  0  0  0  0  0
   -2.2644    2.7981   -0.2816 H   0  0  0  0  0  0  0  0  0  0  0  0
   -4.3196    2.0416    0.8715 H   0  0  0  0  0  0  0  0  0  0  0  0
   -4.4772   -0.2927    1.6785 H   0  0  0  0  0  0  0  0  0  0  0  0
   -2.6008   -1.8472    1.3393 H   0  0  0  0  0  0  0  0  0  0  0  0
  1  2  1  0
  1  5  1  0
  1  6  1  0
  1  7  1  0
  2  4  1  0
  2  3  1  0
  3  9  1  0
  4 10  1  0
  4 11  1  0
  4 12  1  0
  8 13  1  0
 13 14  1  0
 13 20  1  0
 13 21  1  0
 14 15  2  0
 14 19  1  0
 15 16  1  0
 15 22  1  0
 16 17  2  0
 16 23  1  0
 17 18  1  0
 17 24  1  0
 18 19  2  0
 18 25  1  0
 19 26  1  0
M  RAD  1   2   2
M  END
>  <reaction>  (10) 
rxn_1922

>  <mol_properties>  (10) 
{"1": {"label": "*3", "atom_type": "Cs"}, "2": {"label": "*4", "atom_type": "S2s"}, "7": {"label": "*2", "atom_type": "H0"}, "12": {"label": "*1", "atom_type": "Cs"}, "13": {"label": "*0", "atom_type": "Cd"}}

>  <type>  (10) 
unop_6

>  <geom_source>  (10) 
Heuristics

$$$$

     RDKit          3D

 26 25  0  0  0  0  0  0  0  0999 V2000
    1.6680   -0.0440   -2.7989 C   0  0  0  0  0  0  0  0  0  0  0  0
    1.6680   -0.0440   -1.2766 C   0  0  0  0  0  3  0  0  0  0  0  0
    3.0232   -1.0603   -0.5930 S   0  0  0  0  0  0  0  0  0  0  0  0
    1.6680    1.3660   -0.7026 C   0  0  0  0  0  0  0  0  0  0  0  0
    1.6395   -1.0582   -3.1956 H   0  0  0  0  0  0  0  0  0  0  0  0
    2.5665    0.4458   -3.1825 H   0  0  0  0  0  0  0  0  0  0  0  0
    0.8011    0.5035   -3.1778 H   0  0  0  0  0  0  0  0  0  0  0  0
    0.6002   -0.6758   -0.8516 H   0  0  0  0  0  0  0  0  0  0  0  0
    4.0291   -0.3244   -1.0879 H   0  0  0  0  0  0  0  0  0  0  0  0
    0.8011    1.9233   -1.0668 H   0  0  0  0  0  0  0  0  0  0  0  0
    2.5665    1.9059   -1.0116 H   0  0  0  0  0  0  0  0  0  0  0  0
    1.6395    1.3510    0.3864 H   0  0  0  0  0  0  0  0  0  0  0  0
   -0.4653   -1.3063   -0.4275 C   0  0  0  0  0  0  0  0  0  0  0  0
   -1.3331   -0.4103    0.4123 C   0  0  0  0  0  0  0  0  0  0  0  0
   -1.0809    0.9557    0.4942 C   0  0  0  0  0  0  0  0  0  0  0  0
   -1.8607    1.7794    1.2913 C   0  0  0  0  0  0  0  0  0  0  0  0
   -2.9123    1.2486    2.0225 C   0  0  0  0  0  0  0  0  0  0  0  0
   -3.1768   -0.1104    1.9474 C   0  0  0  0  0  0  0  0  0  0  0  0
   -2.3936   -0.9293    1.1487 C   0  0  0  0  0  0  0  0  0  0  0  0
   -1.0247   -2.1653   -0.7995 H   0  0  0  0  0  0  0  0  0  0  0  0
    0.3754   -1.6888    0.1569 H   0  0  0  0  0  0  0  0  0  0  0  0
   -0.2629    1.3806   -0.0769 H   0  0  0  0  0  0  0  0  0  0  0  0
   -1.6479    2.8402    1.3386 H   0  0  0  0  0  0  0  0  0  0  0  0
   -3.5241    1.8903    2.6436 H   0  0  0  0  0  0  0  0  0  0  0  0
   -3.9986   -0.5351    2.5106 H   0  0  0  0  0  0  0  0  0  0  0  0
   -2.6104   -1.9902    1.0935 H   0  0  0  0  0  0  0  0  0  0  0  0
  1  2  1  0
  1  5  1  0
  1  6  1  0
  1  7  1  0
  2  4  1  0
  2  3  1  0
  3  9  1  0
  4 10  1  0
  4 11  1  0
  4 12  1  0
  8 13  1  0
 13 14  1  0
 13 20  1  0
 13 21  1  0
 14 15  2  0
 14 19  1  0
 15 16  1  0
 15 22  1  0
 16 17  2  0
 16 23  1  0
 17 18  1  0
 17 24  1  0
 18 19  2  0
 18 25  1  0
 19 26  1  0
M  RAD  1   2   2
M  END
>  <reaction>  (11) 
rxn_1922

>  <mol_properties>  (11) 
{"1": {"label": "*3", "atom_type": "Cs"}, "2": {"label": "*4", "atom_type": "S2s"}, "7": {"label": "*2", "atom_type": "H0"}, "12": {"label": "*1", "atom_type": "Cs"}, "13": {"label": "*0", "atom_type": "Cd"}}

>  <type>  (11) 
unop_7

>  <geom_source>  (11) 
Heuristics

$$$$

     RDKit          3D

 26 25  0  0  0  0  0  0  0  0999 V2000
    0.6715    2.0769   -2.1934 C   0  0  0  0  0  0  0  0  0  0  0  0
    0.6715    2.0769   -0.6710 C   0  0  0  0  0  3  0  0  0  0  0  0
    2.0266    1.0606    0.0125 S   0  0  0  0  0  0  0  0  0  0  0  0
    0.6715    3.4869   -0.0970 C   0  0  0  0  0  0  0  0  0  0  0  0
    0.6430    1.0627   -2.5900 H   0  0  0  0  0  0  0  0  0  0  0  0
    1.5699    2.5667   -2.5769 H   0  0  0  0  0  0  0  0  0  0  0  0
   -0.1954    2.6244   -2.5722 H   0  0  0  0  0  0  0  0  0  0  0  0
   -0.3964    1.4451   -0.2460 H   0  0  0  0  0  0  0  0  0  0  0  0
    3.0325    1.7965   -0.4824 H   0  0  0  0  0  0  0  0  0  0  0  0
   -0.1954    4.0442   -0.4612 H   0  0  0  0  0  0  0  0  0  0  0  0
    1.5699    4.0268   -0.4060 H   0  0  0  0  0  0  0  0  0  0  0  0
    0.6430    3.4719    0.9919 H   0  0  0  0  0  0  0  0  0  0  0  0
   -1.4618    0.8146    0.1780 C   0  0  0  0  0  0  0  0  0  0  0  0
   -1.1940   -0.6544    0.3553 C   0  0  0  0  0  0  0  0  0  0  0  0
   -0.9855   -1.4801   -0.7452 C   0  0  0  0  0  0  0  0  0  0  0  0
   -0.7682   -2.8401   -0.5866 C   0  0  0  0  0  0  0  0  0  0  0  0
   -0.7542   -3.4000    0.6818 C   0  0  0  0  0  0  0  0  0  0  0  0
   -0.9571   -2.5881    1.7872 C   0  0  0  0  0  0  0  0  0  0  0  0
   -1.1739   -1.2288    1.6226 C   0  0  0  0  0  0  0  0  0  0  0  0
   -1.1105    1.3883    1.0363 H   0  0  0  0  0  0  0  0  0  0  0  0
   -2.5334    1.0024    0.0728 H   0  0  0  0  0  0  0  0  0  0  0  0
   -0.9911   -1.0507   -1.7408 H   0  0  0  0  0  0  0  0  0  0  0  0
   -0.6061   -3.4639   -1.4569 H   0  0  0  0  0  0  0  0  0  0  0  0
   -0.5821   -4.4613    0.8081 H   0  0  0  0  0  0  0  0  0  0  0  0
   -0.9435   -3.0139    2.7829 H   0  0  0  0  0  0  0  0  0  0  0  0
   -1.3280   -0.6013    2.4933 H   0  0  0  0  0  0  0  0  0  0  0  0
  1  2  1  0
  1  5  1  0
  1  6  1  0
  1  7  1  0
  2  4  1  0
  2  3  1  0
  3  9  1  0
  4 10  1  0
  4 11  1  0
  4 12  1  0
  8 13  1  0
 13 14  1  0
 13 20  1  0
 13 21  1  0
 14 15  2  0
 14 19  1  0
 15 16  1  0
 15 22  1  0
 16 17  2  0
 16 23  1  0
 17 18  1  0
 17 24  1  0
 18 19  2  0
 18 25  1  0
 19 26  1  0
M  RAD  1   2   2
M  END
>  <reaction>  (12) 
rxn_1922

>  <mol_properties>  (12) 
{"1": {"label": "*3", "atom_type": "Cs"}, "2": {"label": "*4", "atom_type": "S2s"}, "7": {"label": "*2", "atom_type": "H0"}, "12": {"label": "*1", "atom_type": "Cs"}, "13": {"label": "*0", "atom_type": "Cd"}}

>  <type>  (12) 
unop_8

>  <geom_source>  (12) 
Heuristics

$$$$

     RDKit          3D

 26 25  0  0  0  0  0  0  0  0999 V2000
    1.9296    0.6216   -1.1703 C   0  0  0  0  0  0  0  0  0  0  0  0
    1.9296    0.6216    0.3521 C   0  0  0  0  0  3  0  0  0  0  0  0
    3.2847   -0.3947    1.0356 S   0  0  0  0  0  0  0  0  0  0  0  0
    1.9296    2.0316    0.9261 C   0  0  0  0  0  0  0  0  0  0  0  0
    1.9011   -0.3927   -1.5669 H   0  0  0  0  0  0  0  0  0  0  0  0
    2.8280    1.1113   -1.5538 H   0  0  0  0  0  0  0  0  0  0  0  0
    1.0627    1.1690   -1.5491 H   0  0  0  0  0  0  0  0  0  0  0  0
    0.8617   -0.0103    0.7771 H   0  0  0  0  0  0  0  0  0  0  0  0
    4.2906    0.3411    0.5407 H   0  0  0  0  0  0  0  0  0  0  0  0
    1.0627    2.5889    0.5619 H   0  0  0  0  0  0  0  0  0  0  0  0
    2.8280    2.5715    0.6171 H   0  0  0  0  0  0  0  0  0  0  0  0
    1.9011    2.0166    2.0150 H   0  0  0  0  0  0  0  0  0  0  0  0
   -0.2037   -0.6407    1.2011 C   0  0  0  0  0  0  0  0  0  0  0  0
   -1.3441   -0.5017    0.2308 C   0  0  0  0  0  0  0  0  0  0  0  0
   -1.2866    0.4185   -0.8114 C   0  0  0  0  0  0  0  0  0  0  0  0
   -2.3487    0.5701   -1.6895 C   0  0  0  0  0  0  0  0  0  0  0  0
   -3.4914   -0.2009   -1.5404 C   0  0  0  0  0  0  0  0  0  0  0  0
   -3.5604   -1.1240   -0.5082 C   0  0  0  0  0  0  0  0  0  0  0  0
   -2.4953   -1.2714    0.3669 C   0  0  0  0  0  0  0  0  0  0  0  0
   -0.1440   -1.6537    1.6006 H   0  0  0  0  0  0  0  0  0  0  0  0
   -0.3305    0.0398    2.0470 H   0  0  0  0  0  0  0  0  0  0  0  0
   -0.3958    1.0233   -0.9383 H   0  0  0  0  0  0  0  0  0  0  0  0
   -2.2818    1.2909   -2.4950 H   0  0  0  0  0  0  0  0  0  0  0  0
   -4.3208   -0.0860   -2.2265 H   0  0  0  0  0  0  0  0  0  0  0  0
   -4.4461   -1.7350   -0.3851 H   0  0  0  0  0  0  0  0  0  0  0  0
   -2.5571   -1.9985    1.1688 H   0  0  0  0  0  0  0  0  0  0  0  0
  1  2  1  0
  1  5  1  0
  1  6  1  0
  1  7  1  0
  2  4  1  0
  2  3  1  0
  3  9  1  0
  4 10  1  0
  4 11  1  0
  4 12  1  0
  8 13  1  0
 13 14  1  0
 13 20  1  0
 13 21  1  0
 14 15  2  0
 14 19  1  0
 15 16  1  0
 15 22  1  0
 16 17  2  0
 16 23  1  0
 17 18  1  0
 17 24  1  0
 18 19  2  0
 18 25  1  0
 19 26  1  0
M  RAD  1   2   2
M  END
>  <reaction>  (13) 
rxn_1922

>  <mol_properties>  (13) 
{"1": {"label": "*3", "atom_type": "Cs"}, "2": {"label": "*4", "atom_type": "S2s"}, "7": {"label": "*2", "atom_type": "H0"}, "12": {"label": "*1", "atom_type": "Cs"}, "13": {"label": "*0", "atom_type": "Cd"}}

>  <type>  (13) 
unop_9

>  <geom_source>  (13) 
Heuristics

$$$$

     RDKit          3D

 26 25  0  0  0  0  0  0  0  0999 V2000
    0.9327    2.0347   -1.5991 C   0  0  0  0  0  0  0  0  0  0  0  0
    0.9327    2.0347   -0.0768 C   0  0  0  0  0  3  0  0  0  0  0  0
    2.2878    1.0184    0.6068 S   0  0  0  0  0  0  0  0  0  0  0  0
    0.9327    3.4447    0.4972 C   0  0  0  0  0  0  0  0  0  0  0  0
    0.9041    1.0204   -1.9958 H   0  0  0  0  0  0  0  0  0  0  0  0
    1.8311    2.5244   -1.9827 H   0  0  0  0  0  0  0  0  0  0  0  0
    0.0657    2.5821   -1.9780 H   0  0  0  0  0  0  0  0  0  0  0  0
   -0.1352    1.4028    0.3482 H   0  0  0  0  0  0  0  0  0  0  0  0
    3.2937    1.7542    0.1119 H   0  0  0  0  0  0  0  0  0  0  0  0
    0.0657    4.0020    0.1330 H   0  0  0  0  0  0  0  0  0  0  0  0
    1.8311    3.9846    0.1882 H   0  0  0  0  0  0  0  0  0  0  0  0
    0.9041    3.4297    1.5862 H   0  0  0  0  0  0  0  0  0  0  0  0
   -1.2007    0.7724    0.7723 C   0  0  0  0  0  0  0  0  0  0  0  0
   -1.2237   -0.6507    0.2870 C   0  0  0  0  0  0  0  0  0  0  0  0
   -1.2696   -0.9406   -1.0732 C   0  0  0  0  0  0  0  0  0  0  0  0
   -1.3213   -2.2511   -1.5227 C   0  0  0  0  0  0  0  0  0  0  0  0
   -1.3264   -3.2991   -0.6150 C   0  0  0  0  0  0  0  0  0  0  0  0
   -1.2776   -3.0244    0.7431 C   0  0  0  0  0  0  0  0  0  0  0  0
   -1.2259   -1.7121    1.1868 C   0  0  0  0  0  0  0  0  0  0  0  0
   -0.6773    0.8582    1.7251 H   0  0  0  0  0  0  0  0  0  0  0  0
   -2.2168    1.1471    0.9198 H   0  0  0  0  0  0  0  0  0  0  0  0
   -1.2623   -0.1278   -1.7907 H   0  0  0  0  0  0  0  0  0  0  0  0
   -1.3544   -2.4540   -2.5860 H   0  0  0  0  0  0  0  0  0  0  0  0
   -1.3641   -4.3233   -0.9639 H   0  0  0  0  0  0  0  0  0  0  0  0
   -1.2763   -3.8353    1.4609 H   0  0  0  0  0  0  0  0  0  0  0  0
   -1.1843   -1.5073    2.2508 H   0  0  0  0  0  0  0  0  0  0  0  0
  1  2  1  0
  1  5  1  0
  1  6  1  0
  1  7  1  0
  2  4  1  0
  2  3  1  0
  3  9  1  0
  4 10  1  0
  4 11  1  0
  4 12  1  0
  8 13  1  0
 13 14  1  0
 13 20  1  0
 13 21  1  0
 14 15  2  0
 14 19  1  0
 15 16  1  0
 15 22  1  0
 16 17  2  0
 16 23  1  0
 17 18  1  0
 17 24  1  0
 18 19  2  0
 18 25  1  0
 19 26  1  0
M  RAD  1   2   2
M  END
>  <reaction>  (14) 
rxn_1922

>  <mol_properties>  (14) 
{"1": {"label": "*3", "atom_type": "Cs"}, "2": {"label": "*4", "atom_type": "S2s"}, "7": {"label": "*2", "atom_type": "H0"}, "12": {"label": "*1", "atom_type": "Cs"}, "13": {"label": "*0", "atom_type": "Cd"}}

>  <type>  (14) 
unop_10

>  <geom_source>  (14) 
Heuristics

$$$$

     RDKit          3D

 26 25  0  0  0  0  0  0  0  0999 V2000
    1.3066    0.2844   -3.2281 C   0  0  0  0  0  0  0  0  0  0  0  0
    1.3066    0.2844   -1.7057 C   0  0  0  0  0  3  0  0  0  0  0  0
    2.6618   -0.7318   -1.0222 S   0  0  0  0  0  0  0  0  0  0  0  0
    1.3066    1.6944   -1.1318 C   0  0  0  0  0  0  0  0  0  0  0  0
    1.2781   -0.7298   -3.6248 H   0  0  0  0  0  0  0  0  0  0  0  0
    2.2051    0.7742   -3.6117 H   0  0  0  0  0  0  0  0  0  0  0  0
    0.4397    0.8319   -3.6069 H   0  0  0  0  0  0  0  0  0  0  0  0
    0.2388   -0.3474   -1.2807 H   0  0  0  0  0  0  0  0  0  0  0  0
    3.6677    0.0040   -1.5171 H   0  0  0  0  0  0  0  0  0  0  0  0
    0.4397    2.2517   -1.4959 H   0  0  0  0  0  0  0  0  0  0  0  0
    2.2051    2.2343   -1.4407 H   0  0  0  0  0  0  0  0  0  0  0  0
    1.2781    1.6794   -0.0428 H   0  0  0  0  0  0  0  0  0  0  0  0
   -0.8267   -0.9779   -0.8567 C   0  0  0  0  0  0  0  0  0  0  0  0
   -1.2905   -0.4385    0.4682 C   0  0  0  0  0  0  0  0  0  0  0  0
   -0.5956    0.5851    1.1051 C   0  0  0  0  0  0  0  0  0  0  0  0
   -1.0034    1.0637    2.3407 C   0  0  0  0  0  0  0  0  0  0  0  0
   -2.1194    0.5252    2.9626 C   0  0  0  0  0  0  0  0  0  0  0  0
   -2.8230   -0.4928    2.3374 C   0  0  0  0  0  0  0  0  0  0  0  0
   -2.4107   -0.9675    1.1019 C   0  0  0  0  0  0  0  0  0  0  0  0
   -1.6626   -1.3586   -1.4446 H   0  0  0  0  0  0  0  0  0  0  0  0
   -0.1225   -1.8015   -0.7139 H   0  0  0  0  0  0  0  0  0  0  0  0
    0.2763    1.0149    0.6249 H   0  0  0  0  0  0  0  0  0  0  0  0
   -0.4490    1.8625    2.8176 H   0  0  0  0  0  0  0  0  0  0  0  0
   -2.4411    0.8993    3.9262 H   0  0  0  0  0  0  0  0  0  0  0  0
   -3.6990   -0.9176    2.8117 H   0  0  0  0  0  0  0  0  0  0  0  0
   -2.9694   -1.7615    0.6190 H   0  0  0  0  0  0  0  0  0  0  0  0
  1  2  1  0
  1  5  1  0
  1  6  1  0
  1  7  1  0
  2  4  1  0
  2  3  1  0
  3  9  1  0
  4 10  1  0
  4 11  1  0
  4 12  1  0
  8 13  1  0
 13 14  1  0
 13 20  1  0
 13 21  1  0
 14 15  2  0
 14 19  1  0
 15 16  1  0
 15 22  1  0
 16 17  2  0
 16 23  1  0
 17 18  1  0
 17 24  1  0
 18 19  2  0
 18 25  1  0
 19 26  1  0
M  RAD  1   2   2
M  END
>  <reaction>  (15) 
rxn_1922

>  <mol_properties>  (15) 
{"1": {"label": "*3", "atom_type": "Cs"}, "2": {"label": "*4", "atom_type": "S2s"}, "7": {"label": "*2", "atom_type": "H0"}, "12": {"label": "*1", "atom_type": "Cs"}, "13": {"label": "*0", "atom_type": "Cd"}}

>  <type>  (15) 
unop_11

>  <geom_source>  (15) 
Heuristics

$$$$

     RDKit          3D

 26 25  0  0  0  0  0  0  0  0999 V2000
    1.6611    1.1937   -1.0067 C   0  0  0  0  0  0  0  0  0  0  0  0
    1.6611    1.1937    0.5156 C   0  0  0  0  0  3  0  0  0  0  0  0
    3.0163    0.1774    1.1992 S   0  0  0  0  0  0  0  0  0  0  0  0
    1.6611    2.6037    1.0896 C   0  0  0  0  0  0  0  0  0  0  0  0
    1.6326    0.1794   -1.4034 H   0  0  0  0  0  0  0  0  0  0  0  0
    2.5595    1.6834   -1.3903 H   0  0  0  0  0  0  0  0  0  0  0  0
    0.7942    1.7411   -1.3855 H   0  0  0  0  0  0  0  0  0  0  0  0
    0.5932    0.5618    0.9407 H   0  0  0  0  0  0  0  0  0  0  0  0
    4.0222    0.9132    0.7043 H   0  0  0  0  0  0  0  0  0  0  0  0
    0.7942    3.1610    0.7254 H   0  0  0  0  0  0  0  0  0  0  0  0
    2.5595    3.1436    0.7807 H   0  0  0  0  0  0  0  0  0  0  0  0
    1.6326    2.5887    2.1786 H   0  0  0  0  0  0  0  0  0  0  0  0
   -0.4722   -0.0686    1.3647 C   0  0  0  0  0  0  0  0  0  0  0  0
   -1.3083   -0.5633    0.2168 C   0  0  0  0  0  0  0  0  0  0  0  0
   -1.3331    0.1201   -0.9950 C   0  0  0  0  0  0  0  0  0  0  0  0
   -2.1261   -0.3165   -2.0450 C   0  0  0  0  0  0  0  0  0  0  0  0
   -2.9104   -1.4507   -1.9007 C   0  0  0  0  0  0  0  0  0  0  0  0
   -2.8924   -2.1432   -0.6996 C   0  0  0  0  0  0  0  0  0  0  0  0
   -2.0975   -1.7019    0.3469 C   0  0  0  0  0  0  0  0  0  0  0  0
   -0.1498   -0.8911    2.0041 H   0  0  0  0  0  0  0  0  0  0  0  0
   -1.0414    0.6277    1.9858 H   0  0  0  0  0  0  0  0  0  0  0  0
   -0.7204    1.0061   -1.1185 H   0  0  0  0  0  0  0  0  0  0  0  0
   -2.1287    0.2295   -2.9802 H   0  0  0  0  0  0  0  0  0  0  0  0
   -3.5284   -1.7950   -2.7201 H   0  0  0  0  0  0  0  0  0  0  0  0
   -3.4974   -3.0331   -0.5773 H   0  0  0  0  0  0  0  0  0  0  0  0
   -2.0873   -2.2521    1.2812 H   0  0  0  0  0  0  0  0  0  0  0  0
  1  2  1  0
  1  5  1  0
  1  6  1  0
  1  7  1  0
  2  4  1  0
  2  3  1  0
  3  9  1  0
  4 10  1  0
  4 11  1  0
  4 12  1  0
  8 13  1  0
 13 14  1  0
 13 20  1  0
 13 21  1  0
 14 15  2  0
 14 19  1  0
 15 16  1  0
 15 22  1  0
 16 17  2  0
 16 23  1  0
 17 18  1  0
 17 24  1  0
 18 19  2  0
 18 25  1  0
 19 26  1  0
M  RAD  1   2   2
M  END
>  <reaction>  (16) 
rxn_1922

>  <mol_properties>  (16) 
{"1": {"label": "*3", "atom_type": "Cs"}, "2": {"label": "*4", "atom_type": "S2s"}, "7": {"label": "*2", "atom_type": "H0"}, "12": {"label": "*1", "atom_type": "Cs"}, "13": {"label": "*0", "atom_type": "Cd"}}

>  <type>  (16) 
unop_12

>  <geom_source>  (16) 
Heuristics

$$$$

     RDKit          3D

 26 25  0  0  0  0  0  0  0  0999 V2000
   -1.9984   -0.6511    1.9685 S   0  0  0  0  0  0  0  0  0  0  0  0
    0.0576   -0.4660   -1.1036 C   0  0  0  0  0  0  0  0  0  0  0  0
   -2.7568    1.1231    0.0003 C   0  0  0  0  0  0  0  0  0  0  0  0
   -3.0654   -1.3354   -0.4720 C   0  0  0  0  0  0  0  0  0  0  0  0
    1.3673   -0.1077   -0.4675 C   0  0  0  0  0  0  0  0  0  0  0  0
   -2.1879   -0.2803    0.1946 C   0  0  0  0  0  3  0  0  0  0  0  0
    2.0328   -1.0340    0.3515 C   0  0  0  0  0  0  0  0  0  0  0  0
    1.9027    1.1805   -0.6282 C   0  0  0  0  0  0  0  0  0  0  0  0
    3.2350   -0.6851    0.9755 C   0  0  0  0  0  0  0  0  0  0  0  0
    3.1051    1.5257   -0.0026 C   0  0  0  0  0  0  0  0  0  0  0  0
    3.7721    0.5928    0.7965 C   0  0  0  0  0  0  0  0  0  0  0  0
   -0.0806    0.0888   -2.0560 H   0  0  0  0  0  0  0  0  0  0  0  0
    0.0159   -1.5528   -1.3298 H   0  0  0  0  0  0  0  0  0  0  0  0
   -0.9157   -0.1621   -0.2875 H   0  0  0  0  0  0  0  0  0  0  0  0
   -2.0770    1.8711    0.4592 H   0  0  0  0  0  0  0  0  0  0  0  0
   -2.8424    1.3511   -1.0830 H   0  0  0  0  0  0  0  0  0  0  0  0
   -3.7596    1.2070    0.4713 H   0  0  0  0  0  0  0  0  0  0  0  0
   -2.6089   -2.3387   -0.3401 H   0  0  0  0  0  0  0  0  0  0  0  0
   -4.0827   -1.3378   -0.0248 H   0  0  0  0  0  0  0  0  0  0  0  0
   -3.1455   -1.1300   -1.5602 H   0  0  0  0  0  0  0  0  0  0  0  0
    1.6223   -2.0243    0.5062 H   0  0  0  0  0  0  0  0  0  0  0  0
    1.3909    1.9158   -1.2369 H   0  0  0  0  0  0  0  0  0  0  0  0
    3.7481   -1.4042    1.6009 H   0  0  0  0  0  0  0  0  0  0  0  0
    3.5177    2.5177   -0.1341 H   0  0  0  0  0  0  0  0  0  0  0  0
    4.7017    0.8619    1.2811 H   0  0  0  0  0  0  0  0  0  0  0  0
   -0.9484    0.2741    2.1206 H   0  0  0  0  0  0  0  0  0  0  0  0
  1  6  1  0
  1 26  1  0
  2  5  1  0
  2 12  1  0
  2 13  1  0
  2 14  1  0
  3  6  1  0
  3 15  1  0
  3 16  1  0
  3 17  1  0
  4  6  1  0
  4 18  1  0
  4 19  1  0
  4 20  1  0
  5  7  2  0
  5  8  1  0
  7  9  1  0
  7 21  1  0
  8 10  2  0
  8 22  1  0
  9 11  2  0
  9 23  1  0
 10 11  1  0
 10 24  1  0
 11 25  1  0
M  RAD  1   6   2
M  END
>  <reaction>  (17) 
rxn_1922

>  <mol_properties>  (17) 
{"1": {"label": "*3", "atom_type": "Cs"}, "2": {"label": "*4", "atom_type": "S2s"}, "7": {"label": "*2", "atom_type": "H0"}, "12": {"label": "*1", "atom_type": "Cs"}, "13": {"label": "*0", "atom_type": "Cd"}}

>  <type>  (17) 
unop_13

>  <geom_source>  (17) 
AutoTST

$$$$
