
     RDKit          3D

  7  6  0  0  0  0  0  0  0  0999 V2000
    1.2985   -0.0065   -0.2721 C   0  0  0  0  0  0  0  0  0  0  0  0
    0.0000    0.0000   -0.2926 C   0  0  0  0  0  0  0  0  0  0  0  0
   -1.2985    0.0065   -0.3130 C   0  0  0  0  0  0  0  0  0  0  0  0
    1.8444   -0.7551    0.2895 H   0  0  0  0  0  0  0  0  0  0  0  0
    1.8693    0.7364   -0.8162 H   0  0  0  0  0  0  0  0  0  0  0  0
   -1.8658    0.5623    0.4239 H   0  0  0  0  0  0  0  0  0  0  0  0
   -1.8479   -0.5437   -1.0675 H   0  0  0  0  0  0  0  0  0  0  0  0
  1  2  2  0
  1  4  1  0
  1  5  1  0
  2  3  2  0
  3  6  1  0
  3  7  1  0
M  END
>  <reaction>  (1) 
rxn_1802

>  <mol_properties>  (1) 
{"0": {"label": "donator", "atom_type": "Cd"}, "3": {"label": "d_hydrogen", "atom_type": "H0"}}

>  <type>  (1) 
r1h

$$$$

     RDKit          3D

  8  7  0  0  0  0  0  0  0  0999 V2000
   -1.0607    0.1793   -0.1423 C   0  0  0  0  0  0  0  0  0  0  0  0
    0.2796    0.0327    0.4820 C   0  0  0  0  0  3  0  0  0  0  0  0
    0.8817   -1.4663    1.0791 S   0  0  0  0  0  0  0  0  0  0  0  0
   -1.3043    1.2328   -0.2850 H   0  0  0  0  0  0  0  0  0  0  0  0
   -1.8444   -0.2641    0.4799 H   0  0  0  0  0  0  0  0  0  0  0  0
   -1.1164   -0.3100   -1.1237 H   0  0  0  0  0  0  0  0  0  0  0  0
    1.0449    0.7826    0.3391 H   0  0  0  0  0  0  0  0  0  0  0  0
   -0.2993   -2.0726    1.2718 H   0  0  0  0  0  0  0  0  0  0  0  0
  1  2  1  0
  1  4  1  0
  1  5  1  0
  1  6  1  0
  2  3  1  0
  2  7  1  0
  3  8  1  0
M  RAD  1   2   2
M  END
>  <reaction>  (2) 
rxn_1802

>  <mol_properties>  (2) 
{"1": {"label": "acceptor", "atom_type": "Cs"}}

>  <type>  (2) 
r2

$$$$

     RDKit          3D

  9  8  0  0  0  0  0  0  0  0999 V2000
   -0.8818   -0.3578    0.1297 C   0  0  0  0  0  0  0  0  0  0  0  0
    0.6153   -0.3021   -0.1188 C   0  0  0  0  0  0  0  0  0  0  0  0
    1.5354   -1.7170    0.5545 S   0  0  0  0  0  0  0  0  0  0  0  0
   -1.1018   -0.3317    1.1984 H   0  0  0  0  0  0  0  0  0  0  0  0
   -1.3114   -1.2723   -0.2799 H   0  0  0  0  0  0  0  0  0  0  0  0
   -1.3767    0.4976   -0.3363 H   0  0  0  0  0  0  0  0  0  0  0  0
    1.0467    0.6194    0.2718 H   0  0  0  0  0  0  0  0  0  0  0  0
    0.8295   -0.3275   -1.1882 H   0  0  0  0  0  0  0  0  0  0  0  0
    1.2306   -1.5077    1.8423 H   0  0  0  0  0  0  0  0  0  0  0  0
  1  2  1  0
  1  4  1  0
  1  5  1  0
  1  6  1  0
  2  3  1  0
  2  7  1  0
  2  8  1  0
  3  9  1  0
M  END
>  <reaction>  (3) 
rxn_1802

>  <mol_properties>  (3) 
{"1": {"label": "acceptor", "atom_type": "Cs"}, "8": {"label": "a_hydrogen", "atom_type": "H0"}}

>  <type>  (3) 
r2h

$$$$

     RDKit          3D

 15 13  0  0  0  0  0  0  0  0999 V2000
    0.6534   -1.8450    0.9588 C   0  0  0  0  0  0  0  0  0  0  0  0
   -0.0187   -0.4968    0.9594 C   0  0  0  0  0  0  0  0  0  0  0  0
   -1.5973   -0.3568    0.1739 S   0  0  0  0  0  0  0  0  0  0  0  0
    1.6346   -1.7779    1.4329 H   0  0  0  0  0  0  0  0  0  0  0  0
    0.7979   -2.2040   -0.0622 H   0  0  0  0  0  0  0  0  0  0  0  0
    0.0598   -2.5866    1.4987 H   0  0  0  0  0  0  0  0  0  0  0  0
   -0.0870   -0.0271    1.9396 H   0  0  0  0  0  0  0  0  0  0  0  0
   -1.2599   -0.9648   -0.9726 H   0  0  0  0  0  0  0  0  0  0  0  0
    1.6186    1.0120   -0.5163 C   0  0  0  0  0  0  0  0  0  0  0  0
    1.1384    1.2556   -1.6692 C   0  0  0  0  0  0  0  0  0  0  0  0
    0.5461    1.4527   -2.8288 C   0  0  0  0  0  3  0  0  0  0  0  0
    0.7948    0.3003    0.2847 H   0  0  0  0  0  0  0  0  0  0  0  0
    2.5597    1.2709   -0.0578 H   0  0  0  0  0  0  0  0  0  0  0  0
   -0.0743    2.3245   -2.9943 H   0  0  0  0  0  0  0  0  0  0  0  0
    0.6855    0.7618   -3.6509 H   0  0  0  0  0  0  0  0  0  0  0  0
  1  2  1  0
  1  4  1  0
  1  5  1  0
  1  6  1  0
  2  3  1  0
  2  7  1  0
  2 12  1  0
  3  8  1  0
  9 10  3  0
  9 13  1  0
 10 11  1  0
 11 14  1  0
 11 15  1  0
M  RAD  1  11   2
M  END
>  <reaction>  (4) 
rxn_1802

>  <mol_properties>  (4) 
{"1": {"label": "*1", "atom_type": "Cs"}, "2": {"label": "*0", "atom_type": "S2s"}, "8": {"label": "*3", "atom_type": "Ct"}, "9": {"label": "*4", "atom_type": "Ct"}, "11": {"label": "*2", "atom_type": "H0"}}

>  <type>  (4) 
ts

$$$$

     RDKit          3D

 15 13  0  0  0  0  0  0  0  0999 V2000
    0.7821   -1.1530    1.8848 C   0  0  0  0  0  0  0  0  0  0  0  0
   -0.1386   -0.3369    0.9946 C   0  0  0  0  0  3  0  0  0  0  0  0
   -1.7739   -1.0838    0.7304 S   0  0  0  0  0  0  0  0  0  0  0  0
    1.7285   -0.6282    2.0359 H   0  0  0  0  0  0  0  0  0  0  0  0
    1.0039   -2.1219    1.4338 H   0  0  0  0  0  0  0  0  0  0  0  0
    0.3256   -1.3319    2.8586 H   0  0  0  0  0  0  0  0  0  0  0  0
   -0.3562    0.6306    1.4495 H   0  0  0  0  0  0  0  0  0  0  0  0
   -1.3444   -2.1984    0.1234 H   0  0  0  0  0  0  0  0  0  0  0  0
    1.1925    1.4582   -0.3495 C   0  0  0  0  0  0  0  0  0  0  0  0
    1.1925    1.4582   -1.6482 C   0  0  0  0  0  0  0  0  0  0  0  0
    1.1925    1.4582   -2.9469 C   0  0  0  0  0  0  0  0  0  0  0  0
    0.5289    0.5633    0.3206 H   0  0  0  0  0  0  0  0  0  0  0  0
    1.7455    2.2040    0.2089 H   0  0  0  0  0  0  0  0  0  0  0  0
    0.4467    2.0112   -3.5053 H   0  0  0  0  0  0  0  0  0  0  0  0
    1.9383    0.9052   -3.5053 H   0  0  0  0  0  0  0  0  0  0  0  0
  1  2  1  0
  1  4  1  0
  1  5  1  0
  1  6  1  0
  2  3  1  0
  2  7  1  0
  3  8  1  0
  9 10  2  0
  9 12  1  0
  9 13  1  0
 10 11  2  0
 11 14  1  0
 11 15  1  0
M  RAD  1   2   2
M  END
>  <reaction>  (5) 
rxn_1802

>  <mol_properties>  (5) 
{"1": {"label": "*1", "atom_type": "Cs"}, "2": {"label": "*0", "atom_type": "S2s"}, "8": {"label": "*3", "atom_type": "Ct"}, "9": {"label": "*4", "atom_type": "Ct"}, "11": {"label": "*2", "atom_type": "H0"}}

>  <type>  (5) 
unop_1

>  <geom_source>  (5) 
Heuristics

$$$$

     RDKit          3D

 15 13  0  0  0  0  0  0  0  0999 V2000
   -0.1084   -1.9542    0.1031 C   0  0  0  0  0  0  0  0  0  0  0  0
   -0.0195   -0.6462    0.8697 C   0  0  0  0  0  3  0  0  0  0  0  0
   -1.5285   -0.2157    1.7860 S   0  0  0  0  0  0  0  0  0  0  0  0
    0.8428   -2.1726   -0.3880 H   0  0  0  0  0  0  0  0  0  0  0  0
   -0.8801   -1.9040   -0.6671 H   0  0  0  0  0  0  0  0  0  0  0  0
   -0.3523   -2.7814    0.7701 H   0  0  0  0  0  0  0  0  0  0  0  0
    0.7537   -0.7015    1.6374 H   0  0  0  0  0  0  0  0  0  0  0  0
   -2.3396   -0.1226    0.7236 H   0  0  0  0  0  0  0  0  0  0  0  0
    1.3116    1.1489   -0.4744 C   0  0  0  0  0  0  0  0  0  0  0  0
    1.3116    1.1489   -1.7731 C   0  0  0  0  0  0  0  0  0  0  0  0
    1.3116    1.1489   -3.0718 C   0  0  0  0  0  0  0  0  0  0  0  0
    0.6480    0.2540    0.1957 H   0  0  0  0  0  0  0  0  0  0  0  0
    1.8646    1.8947    0.0840 H   0  0  0  0  0  0  0  0  0  0  0  0
    0.5659    1.7019   -3.6302 H   0  0  0  0  0  0  0  0  0  0  0  0
    2.0574    0.5959   -3.6302 H   0  0  0  0  0  0  0  0  0  0  0  0
  1  2  1  0
  1  4  1  0
  1  5  1  0
  1  6  1  0
  2  3  1  0
  2  7  1  0
  3  8  1  0
  9 10  2  0
  9 12  1  0
  9 13  1  0
 10 11  2  0
 11 14  1  0
 11 15  1  0
M  RAD  1   2   2
M  END
>  <reaction>  (6) 
rxn_1802

>  <mol_properties>  (6) 
{"1": {"label": "*1", "atom_type": "Cs"}, "2": {"label": "*0", "atom_type": "S2s"}, "8": {"label": "*3", "atom_type": "Ct"}, "9": {"label": "*4", "atom_type": "Ct"}, "11": {"label": "*2", "atom_type": "H0"}}

>  <type>  (6) 
unop_2

>  <geom_source>  (6) 
Heuristics

$$$$

     RDKit          3D

 15 13  0  0  0  0  0  0  0  0999 V2000
    0.3482   -0.5054    2.3897 C   0  0  0  0  0  0  0  0  0  0  0  0
   -0.3155   -0.2123    1.0556 C   0  0  0  0  0  3  0  0  0  0  0  0
   -1.2883   -1.5943    0.3880 S   0  0  0  0  0  0  0  0  0  0  0  0
    0.8792    0.3779    2.7525 H   0  0  0  0  0  0  0  0  0  0  0  0
    1.0718   -1.3171    2.2962 H   0  0  0  0  0  0  0  0  0  0  0  0
   -0.3901   -0.7974    3.1369 H   0  0  0  0  0  0  0  0  0  0  0  0
   -1.0368    0.6002    1.1544 H   0  0  0  0  0  0  0  0  0  0  0  0
   -0.2733   -2.4602    0.2660 H   0  0  0  0  0  0  0  0  0  0  0  0
    1.0156    1.5828   -0.2886 C   0  0  0  0  0  0  0  0  0  0  0  0
    1.0156    1.5828   -1.5873 C   0  0  0  0  0  0  0  0  0  0  0  0
    1.0156    1.5828   -2.8859 C   0  0  0  0  0  0  0  0  0  0  0  0
    0.3520    0.6878    0.3815 H   0  0  0  0  0  0  0  0  0  0  0  0
    1.5686    2.3285    0.2698 H   0  0  0  0  0  0  0  0  0  0  0  0
    0.2699    2.1358   -3.4444 H   0  0  0  0  0  0  0  0  0  0  0  0
    1.7614    1.0298   -3.4444 H   0  0  0  0  0  0  0  0  0  0  0  0
  1  2  1  0
  1  4  1  0
  1  5  1  0
  1  6  1  0
  2  3  1  0
  2  7  1  0
  3  8  1  0
  9 10  2  0
  9 12  1  0
  9 13  1  0
 10 11  2  0
 11 14  1  0
 11 15  1  0
M  RAD  1   2   2
M  END
>  <reaction>  (7) 
rxn_1802

>  <mol_properties>  (7) 
{"1": {"label": "*1", "atom_type": "Cs"}, "2": {"label": "*0", "atom_type": "S2s"}, "8": {"label": "*3", "atom_type": "Ct"}, "9": {"label": "*4", "atom_type": "Ct"}, "11": {"label": "*2", "atom_type": "H0"}}

>  <type>  (7) 
unop_3

>  <geom_source>  (7) 
Heuristics

$$$$

     RDKit          3D

 15 13  0  0  0  0  0  0  0  0999 V2000
   -1.9374   -0.9927    0.3105 C   0  0  0  0  0  0  0  0  0  0  0  0
   -0.4545   -1.0508    0.6332 C   0  0  0  0  0  3  0  0  0  0  0  0
    0.0377   -0.0388    2.0598 S   0  0  0  0  0  0  0  0  0  0  0  0
   -2.1705   -1.6541   -0.5273 H   0  0  0  0  0  0  0  0  0  0  0  0
   -2.2375    0.0193    0.0328 H   0  0  0  0  0  0  0  0  0  0  0  0
   -2.5358   -1.2972    1.1696 H   0  0  0  0  0  0  0  0  0  0  0  0
   -0.1598   -2.0644    0.9090 H   0  0  0  0  0  0  0  0  0  0  0  0
   -0.3199    1.1460    1.5465 H   0  0  0  0  0  0  0  0  0  0  0  0
    0.8766    0.7443   -0.7110 C   0  0  0  0  0  0  0  0  0  0  0  0
    0.8766    0.7443   -2.0097 C   0  0  0  0  0  0  0  0  0  0  0  0
    0.8766    0.7443   -3.3083 C   0  0  0  0  0  0  0  0  0  0  0  0
    0.2130   -0.1506   -0.0409 H   0  0  0  0  0  0  0  0  0  0  0  0
    1.4296    1.4900   -0.1526 H   0  0  0  0  0  0  0  0  0  0  0  0
    0.1308    1.2973   -3.8667 H   0  0  0  0  0  0  0  0  0  0  0  0
    1.6224    0.1913   -3.8667 H   0  0  0  0  0  0  0  0  0  0  0  0
  1  2  1  0
  1  4  1  0
  1  5  1  0
  1  6  1  0
  2  3  1  0
  2  7  1  0
  3  8  1  0
  9 10  2  0
  9 12  1  0
  9 13  1  0
 10 11  2  0
 11 14  1  0
 11 15  1  0
M  RAD  1   2   2
M  END
>  <reaction>  (8) 
rxn_1802

>  <mol_properties>  (8) 
{"1": {"label": "*1", "atom_type": "Cs"}, "2": {"label": "*0", "atom_type": "S2s"}, "8": {"label": "*3", "atom_type": "Ct"}, "9": {"label": "*4", "atom_type": "Ct"}, "11": {"label": "*2", "atom_type": "H0"}}

>  <type>  (8) 
unop_4

>  <geom_source>  (8) 
Heuristics

$$$$

     RDKit          3D

 15 13  0  0  0  0  0  0  0  0999 V2000
   -0.5584    0.0025    2.4964 C   0  0  0  0  0  0  0  0  0  0  0  0
   -0.7119   -0.2044    0.9998 C   0  0  0  0  0  3  0  0  0  0  0  0
   -0.2242   -1.8569    0.4223 S   0  0  0  0  0  0  0  0  0  0  0  0
   -0.9079    0.9980    2.7805 H   0  0  0  0  0  0  0  0  0  0  0  0
    0.4870   -0.0849    2.7978 H   0  0  0  0  0  0  0  0  0  0  0  0
   -1.1321   -0.7385    3.0536 H   0  0  0  0  0  0  0  0  0  0  0  0
   -1.7582   -0.1151    0.7039 H   0  0  0  0  0  0  0  0  0  0  0  0
    1.0617   -1.7820    0.7910 H   0  0  0  0  0  0  0  0  0  0  0  0
    0.6192    1.5907   -0.3444 C   0  0  0  0  0  0  0  0  0  0  0  0
    0.6192    1.5907   -1.6431 C   0  0  0  0  0  0  0  0  0  0  0  0
    0.6192    1.5907   -2.9417 C   0  0  0  0  0  0  0  0  0  0  0  0
   -0.0444    0.6958    0.3257 H   0  0  0  0  0  0  0  0  0  0  0  0
    1.1723    2.3364    0.2140 H   0  0  0  0  0  0  0  0  0  0  0  0
   -0.1265    2.1437   -3.5002 H   0  0  0  0  0  0  0  0  0  0  0  0
    1.3650    1.0377   -3.5002 H   0  0  0  0  0  0  0  0  0  0  0  0
  1  2  1  0
  1  4  1  0
  1  5  1  0
  1  6  1  0
  2  3  1  0
  2  7  1  0
  3  8  1  0
  9 10  2  0
  9 12  1  0
  9 13  1  0
 10 11  2  0
 11 14  1  0
 11 15  1  0
M  RAD  1   2   2
M  END
>  <reaction>  (9) 
rxn_1802

>  <mol_properties>  (9) 
{"1": {"label": "*1", "atom_type": "Cs"}, "2": {"label": "*0", "atom_type": "S2s"}, "8": {"label": "*3", "atom_type": "Ct"}, "9": {"label": "*4", "atom_type": "Ct"}, "11": {"label": "*2", "atom_type": "H0"}}

>  <type>  (9) 
unop_5

>  <geom_source>  (9) 
Heuristics

$$$$

     RDKit          3D

 15 13  0  0  0  0  0  0  0  0999 V2000
   -2.1235   -0.5135    0.8961 C   0  0  0  0  0  0  0  0  0  0  0  0
   -0.7056   -0.9775    0.6123 C   0  0  0  0  0  3  0  0  0  0  0  0
    0.5257   -0.3861    1.8107 S   0  0  0  0  0  0  0  0  0  0  0  0
   -2.8160   -0.9380    0.1654 H   0  0  0  0  0  0  0  0  0  0  0  0
   -2.1981    0.5738    0.8369 H   0  0  0  0  0  0  0  0  0  0  0  0
   -2.4416   -0.8185    1.8933 H   0  0  0  0  0  0  0  0  0  0  0  0
   -0.6370   -2.0647    0.6719 H   0  0  0  0  0  0  0  0  0  0  0  0
    0.3666    0.9224    1.5708 H   0  0  0  0  0  0  0  0  0  0  0  0
    0.6255    0.8176   -0.7318 C   0  0  0  0  0  0  0  0  0  0  0  0
    0.6255    0.8176   -2.0305 C   0  0  0  0  0  0  0  0  0  0  0  0
    0.6255    0.8176   -3.3292 C   0  0  0  0  0  0  0  0  0  0  0  0
   -0.0381   -0.0773   -0.0617 H   0  0  0  0  0  0  0  0  0  0  0  0
    1.1785    1.5634   -0.1734 H   0  0  0  0  0  0  0  0  0  0  0  0
   -0.1202    1.3706   -3.8876 H   0  0  0  0  0  0  0  0  0  0  0  0
    1.3713    0.2646   -3.8876 H   0  0  0  0  0  0  0  0  0  0  0  0
  1  2  1  0
  1  4  1  0
  1  5  1  0
  1  6  1  0
  2  3  1  0
  2  7  1  0
  3  8  1  0
  9 10  2  0
  9 12  1  0
  9 13  1  0
 10 11  2  0
 11 14  1  0
 11 15  1  0
M  RAD  1   2   2
M  END
>  <reaction>  (10) 
rxn_1802

>  <mol_properties>  (10) 
{"1": {"label": "*1", "atom_type": "Cs"}, "2": {"label": "*0", "atom_type": "S2s"}, "8": {"label": "*3", "atom_type": "Ct"}, "9": {"label": "*4", "atom_type": "Ct"}, "11": {"label": "*2", "atom_type": "H0"}}

>  <type>  (10) 
unop_6

>  <geom_source>  (10) 
Heuristics

$$$$

     RDKit          3D

 15 13  0  0  0  0  0  0  0  0999 V2000
   -1.9527   -0.1496    1.5595 C   0  0  0  0  0  0  0  0  0  0  0  0
   -0.9044   -0.7937    0.6693 C   0  0  0  0  0  3  0  0  0  0  0  0
    0.7583   -0.8536    1.3998 S   0  0  0  0  0  0  0  0  0  0  0  0
   -2.9333   -0.1848    1.0789 H   0  0  0  0  0  0  0  0  0  0  0  0
   -1.7112    0.8971    1.7532 H   0  0  0  0  0  0  0  0  0  0  0  0
   -2.0182   -0.6628    2.5192 H   0  0  0  0  0  0  0  0  0  0  0  0
   -1.1510   -1.8390    0.4781 H   0  0  0  0  0  0  0  0  0  0  0  0
    0.9336    0.4703    1.5073 H   0  0  0  0  0  0  0  0  0  0  0  0
    0.4268    1.0015   -0.6749 C   0  0  0  0  0  0  0  0  0  0  0  0
    0.4268    1.0015   -1.9736 C   0  0  0  0  0  0  0  0  0  0  0  0
    0.4268    1.0015   -3.2722 C   0  0  0  0  0  0  0  0  0  0  0  0
   -0.2368    0.1065   -0.0048 H   0  0  0  0  0  0  0  0  0  0  0  0
    0.9798    1.7472   -0.1165 H   0  0  0  0  0  0  0  0  0  0  0  0
   -0.3190    1.5545   -3.8307 H   0  0  0  0  0  0  0  0  0  0  0  0
    1.1725    0.4484   -3.8307 H   0  0  0  0  0  0  0  0  0  0  0  0
  1  2  1  0
  1  4  1  0
  1  5  1  0
  1  6  1  0
  2  3  1  0
  2  7  1  0
  3  8  1  0
  9 10  2  0
  9 12  1  0
  9 13  1  0
 10 11  2  0
 11 14  1  0
 11 15  1  0
M  RAD  1   2   2
M  END
>  <reaction>  (11) 
rxn_1802

>  <mol_properties>  (11) 
{"1": {"label": "*1", "atom_type": "Cs"}, "2": {"label": "*0", "atom_type": "S2s"}, "8": {"label": "*3", "atom_type": "Ct"}, "9": {"label": "*4", "atom_type": "Ct"}, "11": {"label": "*2", "atom_type": "H0"}}

>  <type>  (11) 
unop_7

>  <geom_source>  (11) 
Heuristics

$$$$

     RDKit          3D

 15 13  0  0  0  0  0  0  0  0999 V2000
    0.7769   -1.6501    1.2182 C   0  0  0  0  0  0  0  0  0  0  0  0
   -0.0789   -0.4280    0.9344 C   0  0  0  0  0  3  0  0  0  0  0  0
   -1.8626   -0.7017    1.1480 S   0  0  0  0  0  0  0  0  0  0  0  0
    1.8364   -1.4051    1.1127 H   0  0  0  0  0  0  0  0  0  0  0  0
    0.5481   -2.4579    0.5208 H   0  0  0  0  0  0  0  0  0  0  0  0
    0.6055   -2.0200    2.2293 H   0  0  0  0  0  0  0  0  0  0  0  0
    0.1545    0.3764    1.6334 H   0  0  0  0  0  0  0  0  0  0  0  0
   -1.9949   -1.6401    0.2010 H   0  0  0  0  0  0  0  0  0  0  0  0
    1.2522    1.3671   -0.4098 C   0  0  0  0  0  0  0  0  0  0  0  0
    1.2522    1.3671   -1.7084 C   0  0  0  0  0  0  0  0  0  0  0  0
    1.2522    1.3671   -3.0071 C   0  0  0  0  0  0  0  0  0  0  0  0
    0.5886    0.4722    0.2603 H   0  0  0  0  0  0  0  0  0  0  0  0
    1.8052    2.1128    0.1487 H   0  0  0  0  0  0  0  0  0  0  0  0
    0.5064    1.9201   -3.5655 H   0  0  0  0  0  0  0  0  0  0  0  0
    1.9980    0.8141   -3.5655 H   0  0  0  0  0  0  0  0  0  0  0  0
  1  2  1  0
  1  4  1  0
  1  5  1  0
  1  6  1  0
  2  3  1  0
  2  7  1  0
  3  8  1  0
  9 10  2  0
  9 12  1  0
  9 13  1  0
 10 11  2  0
 11 14  1  0
 11 15  1  0
M  RAD  1   2   2
M  END
>  <reaction>  (12) 
rxn_1802

>  <mol_properties>  (12) 
{"1": {"label": "*1", "atom_type": "Cs"}, "2": {"label": "*0", "atom_type": "S2s"}, "8": {"label": "*3", "atom_type": "Ct"}, "9": {"label": "*4", "atom_type": "Ct"}, "11": {"label": "*2", "atom_type": "H0"}}

>  <type>  (12) 
unop_8

>  <geom_source>  (12) 
Heuristics

$$$$

     RDKit          3D

 15 13  0  0  0  0  0  0  0  0999 V2000
   -1.4398   -1.4628   -0.0543 C   0  0  0  0  0  0  0  0  0  0  0  0
   -0.2140   -0.9978    0.7123 C   0  0  0  0  0  3  0  0  0  0  0  0
   -0.5827    0.1032    2.1099 S   0  0  0  0  0  0  0  0  0  0  0  0
   -1.1511   -2.1524   -0.8511 H   0  0  0  0  0  0  0  0  0  0  0  0
   -1.9576   -0.6183   -0.5126 H   0  0  0  0  0  0  0  0  0  0  0  0
   -2.1433   -1.9706    0.6058 H   0  0  0  0  0  0  0  0  0  0  0  0
    0.3002   -1.8457    1.1673 H   0  0  0  0  0  0  0  0  0  0  0  0
   -1.1336    1.0923    1.3934 H   0  0  0  0  0  0  0  0  0  0  0  0
    1.1171    0.7973   -0.6319 C   0  0  0  0  0  0  0  0  0  0  0  0
    1.1171    0.7973   -1.9306 C   0  0  0  0  0  0  0  0  0  0  0  0
    1.1171    0.7973   -3.2292 C   0  0  0  0  0  0  0  0  0  0  0  0
    0.4535   -0.0977    0.0382 H   0  0  0  0  0  0  0  0  0  0  0  0
    1.6702    1.5430   -0.0735 H   0  0  0  0  0  0  0  0  0  0  0  0
    0.3714    1.3503   -3.7877 H   0  0  0  0  0  0  0  0  0  0  0  0
    1.8629    0.2442   -3.7877 H   0  0  0  0  0  0  0  0  0  0  0  0
  1  2  1  0
  1  4  1  0
  1  5  1  0
  1  6  1  0
  2  3  1  0
  2  7  1  0
  3  8  1  0
  9 10  2  0
  9 12  1  0
  9 13  1  0
 10 11  2  0
 11 14  1  0
 11 15  1  0
M  RAD  1   2   2
M  END
>  <reaction>  (13) 
rxn_1802

>  <mol_properties>  (13) 
{"1": {"label": "*1", "atom_type": "Cs"}, "2": {"label": "*0", "atom_type": "S2s"}, "8": {"label": "*3", "atom_type": "Ct"}, "9": {"label": "*4", "atom_type": "Ct"}, "11": {"label": "*2", "atom_type": "H0"}}

>  <type>  (13) 
unop_9

>  <geom_source>  (13) 
Heuristics

$$$$

     RDKit          3D

 15 13  0  0  0  0  0  0  0  0999 V2000
    0.4420   -1.9160    0.5776 C   0  0  0  0  0  0  0  0  0  0  0  0
   -0.0442   -0.5140    0.9003 C   0  0  0  0  0  3  0  0  0  0  0  0
   -1.7543   -0.4405    1.5103 S   0  0  0  0  0  0  0  0  0  0  0  0
    1.4866   -1.8922    0.2583 H   0  0  0  0  0  0  0  0  0  0  0  0
   -0.1456   -2.3574   -0.2293 H   0  0  0  0  0  0  0  0  0  0  0  0
    0.3603   -2.5673    1.4482 H   0  0  0  0  0  0  0  0  0  0  0  0
    0.5470   -0.0773    1.7065 H   0  0  0  0  0  0  0  0  0  0  0  0
   -2.3379   -0.9352    0.4104 H   0  0  0  0  0  0  0  0  0  0  0  0
    1.2869    1.2811   -0.4439 C   0  0  0  0  0  0  0  0  0  0  0  0
    1.2869    1.2811   -1.7426 C   0  0  0  0  0  0  0  0  0  0  0  0
    1.2869    1.2811   -3.0412 C   0  0  0  0  0  0  0  0  0  0  0  0
    0.6233    0.3862    0.2262 H   0  0  0  0  0  0  0  0  0  0  0  0
    1.8399    2.0269    0.1145 H   0  0  0  0  0  0  0  0  0  0  0  0
    0.5411    1.8341   -3.5997 H   0  0  0  0  0  0  0  0  0  0  0  0
    2.0327    0.7281   -3.5997 H   0  0  0  0  0  0  0  0  0  0  0  0
  1  2  1  0
  1  4  1  0
  1  5  1  0
  1  6  1  0
  2  3  1  0
  2  7  1  0
  3  8  1  0
  9 10  2  0
  9 12  1  0
  9 13  1  0
 10 11  2  0
 11 14  1  0
 11 15  1  0
M  RAD  1   2   2
M  END
>  <reaction>  (14) 
rxn_1802

>  <mol_properties>  (14) 
{"1": {"label": "*1", "atom_type": "Cs"}, "2": {"label": "*0", "atom_type": "S2s"}, "8": {"label": "*3", "atom_type": "Ct"}, "9": {"label": "*4", "atom_type": "Ct"}, "11": {"label": "*2", "atom_type": "H0"}}

>  <type>  (14) 
unop_10

>  <geom_source>  (14) 
Heuristics

$$$$

     RDKit          3D

 15 13  0  0  0  0  0  0  0  0999 V2000
   -1.4394    0.0468    2.1441 C   0  0  0  0  0  0  0  0  0  0  0  0
   -0.9662   -0.5031    0.8100 C   0  0  0  0  0  3  0  0  0  0  0  0
    0.6070   -1.4087    0.8932 S   0  0  0  0  0  0  0  0  0  0  0  0
   -2.4074    0.5405    2.0302 H   0  0  0  0  0  0  0  0  0  0  0  0
   -0.7329    0.7801    2.5372 H   0  0  0  0  0  0  0  0  0  0  0  0
   -1.5413   -0.7505    2.8807 H   0  0  0  0  0  0  0  0  0  0  0  0
   -1.6763   -1.2345    0.4213 H   0  0  0  0  0  0  0  0  0  0  0  0
    1.3604   -0.3823    1.3105 H   0  0  0  0  0  0  0  0  0  0  0  0
    0.3649    1.2920   -0.5342 C   0  0  0  0  0  0  0  0  0  0  0  0
    0.3649    1.2920   -1.8328 C   0  0  0  0  0  0  0  0  0  0  0  0
    0.3649    1.2920   -3.1315 C   0  0  0  0  0  0  0  0  0  0  0  0
   -0.2987    0.3970    0.1359 H   0  0  0  0  0  0  0  0  0  0  0  0
    0.9179    2.0377    0.0242 H   0  0  0  0  0  0  0  0  0  0  0  0
   -0.3808    1.8450   -3.6899 H   0  0  0  0  0  0  0  0  0  0  0  0
    1.1107    0.7389   -3.6899 H   0  0  0  0  0  0  0  0  0  0  0  0
  1  2  1  0
  1  4  1  0
  1  5  1  0
  1  6  1  0
  2  3  1  0
  2  7  1  0
  3  8  1  0
  9 10  2  0
  9 12  1  0
  9 13  1  0
 10 11  2  0
 11 14  1  0
 11 15  1  0
M  RAD  1   2   2
M  END
>  <reaction>  (15) 
rxn_1802

>  <mol_properties>  (15) 
{"1": {"label": "*1", "atom_type": "Cs"}, "2": {"label": "*0", "atom_type": "S2s"}, "8": {"label": "*3", "atom_type": "Ct"}, "9": {"label": "*4", "atom_type": "Ct"}, "11": {"label": "*2", "atom_type": "H0"}}

>  <type>  (15) 
unop_11

>  <geom_source>  (15) 
Heuristics

$$$$

     RDKit          3D

 15 13  0  0  0  0  0  0  0  0999 V2000
   -0.7736   -1.7988   -0.1223 C   0  0  0  0  0  0  0  0  0  0  0  0
   -0.0580   -0.8338    0.8067 C   0  0  0  0  0  3  0  0  0  0  0  0
   -1.1489    0.0052    1.9932 S   0  0  0  0  0  0  0  0  0  0  0  0
   -0.0562   -2.2981   -0.7779 H   0  0  0  0  0  0  0  0  0  0  0  0
   -1.4942   -1.2735   -0.7516 H   0  0  0  0  0  0  0  0  0  0  0  0
   -1.3127   -2.5585    0.4442 H   0  0  0  0  0  0  0  0  0  0  0  0
    0.6615   -1.3638    1.4325 H   0  0  0  0  0  0  0  0  0  0  0  0
   -1.9062    0.6432    1.0907 H   0  0  0  0  0  0  0  0  0  0  0  0
    1.2731    0.9613   -0.5374 C   0  0  0  0  0  0  0  0  0  0  0  0
    1.2731    0.9613   -1.8361 C   0  0  0  0  0  0  0  0  0  0  0  0
    1.2731    0.9613   -3.1348 C   0  0  0  0  0  0  0  0  0  0  0  0
    0.6095    0.0663    0.1327 H   0  0  0  0  0  0  0  0  0  0  0  0
    1.8261    1.7070    0.0210 H   0  0  0  0  0  0  0  0  0  0  0  0
    0.5273    1.5143   -3.6932 H   0  0  0  0  0  0  0  0  0  0  0  0
    2.0189    0.4082   -3.6932 H   0  0  0  0  0  0  0  0  0  0  0  0
  1  2  1  0
  1  4  1  0
  1  5  1  0
  1  6  1  0
  2  3  1  0
  2  7  1  0
  3  8  1  0
  9 10  2  0
  9 12  1  0
  9 13  1  0
 10 11  2  0
 11 14  1  0
 11 15  1  0
M  RAD  1   2   2
M  END
>  <reaction>  (16) 
rxn_1802

>  <mol_properties>  (16) 
{"1": {"label": "*1", "atom_type": "Cs"}, "2": {"label": "*0", "atom_type": "S2s"}, "8": {"label": "*3", "atom_type": "Ct"}, "9": {"label": "*4", "atom_type": "Ct"}, "11": {"label": "*2", "atom_type": "H0"}}

>  <type>  (16) 
unop_12

>  <geom_source>  (16) 
Heuristics

$$$$

     RDKit          3D

 15 13  0  0  0  0  0  0  0  0999 V2000
   -2.2037   -1.0764    1.2196 S   0  0  0  0  0  0  0  0  0  0  0  0
   -1.0454    0.1076    0.4675 C   0  0  0  0  0  3  0  0  0  0  0  0
   -1.8033    1.2048   -0.2640 C   0  0  0  0  0  0  0  0  0  0  0  0
    3.2508   -0.0329   -0.0106 C   0  0  0  0  0  0  0  0  0  0  0  0
    2.1029   -0.5441   -0.3534 C   0  0  0  0  0  0  0  0  0  0  0  0
    0.9549   -1.0554   -0.6961 C   0  0  0  0  0  0  0  0  0  0  0  0
   -0.4201    0.5580    1.2669 H   0  0  0  0  0  0  0  0  0  0  0  0
   -0.2008   -0.5769   -0.4476 H   0  0  0  0  0  0  0  0  0  0  0  0
   -2.4664    1.7490    0.4415 H   0  0  0  0  0  0  0  0  0  0  0  0
   -2.4136    0.7670   -1.0815 H   0  0  0  0  0  0  0  0  0  0  0  0
   -1.0801    1.9224   -0.7045 H   0  0  0  0  0  0  0  0  0  0  0  0
    3.7623    0.6453   -0.6799 H   0  0  0  0  0  0  0  0  0  0  0  0
    3.6925   -0.2868    0.9433 H   0  0  0  0  0  0  0  0  0  0  0  0
   -2.6192   -1.5759   -0.0294 H   0  0  0  0  0  0  0  0  0  0  0  0
    0.4893   -1.8056   -0.0719 H   0  0  0  0  0  0  0  0  0  0  0  0
  1  2  1  0
  1 14  1  0
  2  3  1  0
  2  7  1  0
  3  9  1  0
  3 10  1  0
  3 11  1  0
  4  5  2  0
  4 12  1  0
  4 13  1  0
  5  6  2  0
  6  8  1  0
  6 15  1  0
M  RAD  1   2   2
M  END
>  <reaction>  (17) 
rxn_1802

>  <mol_properties>  (17) 
{"1": {"label": "*1", "atom_type": "Cs"}, "2": {"label": "*0", "atom_type": "S2s"}, "8": {"label": "*3", "atom_type": "Ct"}, "9": {"label": "*4", "atom_type": "Ct"}, "11": {"label": "*2", "atom_type": "H0"}}

>  <type>  (17) 
unop_13

>  <geom_source>  (17) 
AutoTST

$$$$
