
     RDKit          3D

 13 12  0  0  0  0  0  0  0  0999 V2000
    2.2975   -0.6134    0.7685 C   0  0  0  0  0  0  0  0  0  0  0  0
    1.1676   -0.5248    0.3802 C   0  0  0  0  0  0  0  0  0  0  0  0
   -0.2109   -0.3926   -0.0948 C   0  0  0  0  0  0  0  0  0  0  0  0
   -0.2501    0.2584   -1.4808 C   0  0  0  0  0  0  0  0  0  0  0  0
   -1.0633    0.3831    0.9141 C   0  0  0  0  0  0  0  0  0  0  0  0
    3.2999   -0.6974    1.1133 H   0  0  0  0  0  0  0  0  0  0  0  0
   -0.6209   -1.4038   -0.1814 H   0  0  0  0  0  0  0  0  0  0  0  0
    0.3402   -0.3102   -2.1992 H   0  0  0  0  0  0  0  0  0  0  0  0
    0.1511    1.2724   -1.4369 H   0  0  0  0  0  0  0  0  0  0  0  0
   -1.2791    0.3109   -1.8407 H   0  0  0  0  0  0  0  0  0  0  0  0
   -0.6861    1.4008    1.0287 H   0  0  0  0  0  0  0  0  0  0  0  0
   -1.0492   -0.0971    1.8924 H   0  0  0  0  0  0  0  0  0  0  0  0
   -2.0971    0.4363    0.5680 H   0  0  0  0  0  0  0  0  0  0  0  0
  1  2  3  0
  1  6  1  0
  2  3  1  0
  3  4  1  0
  3  5  1  0
  3  7  1  0
  4  8  1  0
  4  9  1  0
  4 10  1  0
  5 11  1  0
  5 12  1  0
  5 13  1  0
M  END
>  <reaction>  (1) 
rxn_1308

>  <mol_properties>  (1) 
{"2": {"label": "donator", "atom_type": "Cs"}, "6": {"label": "d_hydrogen", "atom_type": "H0"}}

>  <type>  (1) 
r1h

$$$$

     RDKit          3D

 14 13  0  0  0  0  0  0  0  0999 V2000
    1.0767   -1.6838    1.2931 C   0  0  0  0  0  0  0  0  0  0  0  0
    1.0020   -0.3665    0.9163 C   0  0  0  0  0  0  0  0  0  0  0  0
    1.3965    0.7260    1.6806 C   0  0  0  0  0  3  0  0  0  0  0  0
    1.2666    2.1197    1.1619 C   0  0  0  0  0  0  0  0  0  0  0  0
    1.9670    0.5479    3.0536 C   0  0  0  0  0  0  0  0  0  0  0  0
    0.7448   -2.4705    0.6300 H   0  0  0  0  0  0  0  0  0  0  0  0
    1.4663   -1.9826    2.2578 H   0  0  0  0  0  0  0  0  0  0  0  0
    0.5980   -0.1511   -0.0695 H   0  0  0  0  0  0  0  0  0  0  0  0
    0.6296    2.7241    1.8172 H   0  0  0  0  0  0  0  0  0  0  0  0
    2.2410    2.6200    1.1341 H   0  0  0  0  0  0  0  0  0  0  0  0
    0.8426    2.1448    0.1579 H   0  0  0  0  0  0  0  0  0  0  0  0
    2.8745   -0.0634    3.0328 H   0  0  0  0  0  0  0  0  0  0  0  0
    1.2599    0.0408    3.7173 H   0  0  0  0  0  0  0  0  0  0  0  0
    2.2205    1.5071    3.5054 H   0  0  0  0  0  0  0  0  0  0  0  0
  1  2  2  3
  1  6  1  0
  1  7  1  0
  2  3  1  0
  2  8  1  0
  3  4  1  0
  3  5  1  0
  4  9  1  0
  4 10  1  0
  4 11  1  0
  5 12  1  0
  5 13  1  0
  5 14  1  0
M  RAD  1   3   2
M  END
>  <reaction>  (2) 
rxn_1308

>  <mol_properties>  (2) 
{"2": {"label": "acceptor", "atom_type": "Cs"}}

>  <type>  (2) 
r2

$$$$

     RDKit          3D

 15 14  0  0  0  0  0  0  0  0999 V2000
    2.1256    0.4849   -0.6284 C   0  0  0  0  0  0  0  0  0  0  0  0
    1.1128    0.2141    0.1794 C   0  0  0  0  0  0  0  0  0  0  0  0
   -0.3017   -0.0425   -0.2513 C   0  0  0  0  0  0  0  0  0  0  0  0
   -1.2427    1.0075    0.3423 C   0  0  0  0  0  0  0  0  0  0  0  0
   -0.7381   -1.4526    0.1504 C   0  0  0  0  0  0  0  0  0  0  0  0
    3.1243    0.6602   -0.2486 H   0  0  0  0  0  0  0  0  0  0  0  0
    1.9908    0.5411   -1.7036 H   0  0  0  0  0  0  0  0  0  0  0  0
    1.2888    0.1665    1.2533 H   0  0  0  0  0  0  0  0  0  0  0  0
   -0.3426    0.0343   -1.3424 H   0  0  0  0  0  0  0  0  0  0  0  0
   -0.9570    2.0133    0.0315 H   0  0  0  0  0  0  0  0  0  0  0  0
   -1.2189    0.9728    1.4350 H   0  0  0  0  0  0  0  0  0  0  0  0
   -2.2723    0.8287    0.0254 H   0  0  0  0  0  0  0  0  0  0  0  0
   -0.6964   -1.5744    1.2363 H   0  0  0  0  0  0  0  0  0  0  0  0
   -0.0911   -2.2079   -0.2978 H   0  0  0  0  0  0  0  0  0  0  0  0
   -1.7646   -1.6461   -0.1677 H   0  0  0  0  0  0  0  0  0  0  0  0
  1  2  2  3
  1  6  1  0
  1  7  1  0
  2  3  1  0
  2  8  1  0
  3  4  1  0
  3  5  1  0
  3  9  1  0
  4 10  1  0
  4 11  1  0
  4 12  1  0
  5 13  1  0
  5 14  1  0
  5 15  1  0
M  END
>  <reaction>  (3) 
rxn_1308

>  <mol_properties>  (3) 
{"0": {"label": "a_hydrogen", "atom_type": "H0"}, "3": {"label": "acceptor", "atom_type": "Cs"}}

>  <type>  (3) 
r2h

$$$$

     RDKit          3D

 27 25  0  0  0  0  0  0  0  0999 V2000
    1.9257    2.7511    0.1920 C   0  0  0  0  0  0  0  0  0  0  0  0
    0.8866    2.1583    0.0541 C   0  0  0  0  0  0  0  0  0  0  0  0
   -0.3142    1.4034   -0.0889 C   0  0  0  0  0  3  0  0  0  0  0  0
   -0.7519    1.1255   -1.5104 C   0  0  0  0  0  0  0  0  0  0  0  0
   -1.4313    1.7588    0.8675 C   0  0  0  0  0  0  0  0  0  0  0  0
    2.8350    3.2897    0.3078 H   0  0  0  0  0  0  0  0  0  0  0  0
    0.0223    0.1526    0.3491 H   0  0  0  0  0  0  0  0  0  0  0  0
    0.0933    0.8350   -2.1339 H   0  0  0  0  0  0  0  0  0  0  0  0
   -1.2130    2.0122   -1.9565 H   0  0  0  0  0  0  0  0  0  0  0  0
   -1.4876    0.3183   -1.5220 H   0  0  0  0  0  0  0  0  0  0  0  0
   -1.9076    2.7008    0.5801 H   0  0  0  0  0  0  0  0  0  0  0  0
   -1.0597    1.8653    1.8868 H   0  0  0  0  0  0  0  0  0  0  0  0
   -2.1954    0.9780    0.8532 H   0  0  0  0  0  0  0  0  0  0  0  0
   -1.3062   -2.6479   -0.2148 C   0  0  0  0  0  0  0  0  0  0  0  0
   -0.8849   -1.8088    0.7353 C   0  0  0  0  0  0  0  0  0  0  0  0
    0.3707   -1.0569    0.7537 C   0  0  0  0  0  0  0  0  0  0  0  0
    1.4212   -1.4238   -0.2664 C   0  0  0  0  0  0  0  0  0  0  0  0
    0.9214   -0.7560    2.1304 C   0  0  0  0  0  0  0  0  0  0  0  0
   -2.2722   -3.1302   -0.1418 H   0  0  0  0  0  0  0  0  0  0  0  0
   -0.7041   -2.8886   -1.0823 H   0  0  0  0  0  0  0  0  0  0  0  0
   -1.5422   -1.6282    1.5831 H   0  0  0  0  0  0  0  0  0  0  0  0
    2.2304   -0.6915   -0.2543 H   0  0  0  0  0  0  0  0  0  0  0  0
    1.8493   -2.4079   -0.0499 H   0  0  0  0  0  0  0  0  0  0  0  0
    1.0130   -1.4524   -1.2776 H   0  0  0  0  0  0  0  0  0  0  0  0
    1.4103   -1.6380    2.5569 H   0  0  0  0  0  0  0  0  0  0  0  0
    0.1294   -0.4495    2.8165 H   0  0  0  0  0  0  0  0  0  0  0  0
    1.6601    0.0468    2.0832 H   0  0  0  0  0  0  0  0  0  0  0  0
  1  2  3  0
  1  6  1  0
  2  3  1  0
  3  4  1  0
  3  5  1  0
  4  8  1  0
  4  9  1  0
  4 10  1  0
  5 11  1  0
  5 12  1  0
  5 13  1  0
  7 16  1  0
 14 15  2  3
 14 19  1  0
 14 20  1  0
 15 16  1  0
 15 21  1  0
 16 17  1  0
 16 18  1  0
 17 22  1  0
 17 23  1  0
 17 24  1  0
 18 25  1  0
 18 26  1  0
 18 27  1  0
M  RAD  1   3   2
M  END
>  <reaction>  (4) 
rxn_1308

>  <mol_properties>  (4) 
{"1": {"label": "*4", "atom_type": "Ct"}, "2": {"label": "*3", "atom_type": "Cs"}, "6": {"label": "*2", "atom_type": "H0"}, "14": {"label": "*0", "atom_type": "Cd"}, "15": {"label": "*1", "atom_type": "Cs"}}

>  <type>  (4) 
ts

$$$$

     RDKit          3D

 27 25  0  0  0  0  0  0  0  0999 V2000
   -0.1883    1.1571   -2.9822 C   0  0  0  0  0  0  0  0  0  0  0  0
   -0.1883    1.1571   -1.7842 C   0  0  0  0  0  0  0  0  0  0  0  0
   -0.1883    1.1811   -0.3204 C   0  0  0  0  0  3  0  0  0  0  0  0
   -1.4544    1.8575    0.2140 C   0  0  0  0  0  0  0  0  0  0  0  0
    1.0778    1.8575    0.2140 C   0  0  0  0  0  0  0  0  0  0  0  0
   -0.1883    1.1571   -4.0456 H   0  0  0  0  0  0  0  0  0  0  0  0
   -0.1883   -0.0676    0.0875 H   0  0  0  0  0  0  0  0  0  0  0  0
   -2.3515    1.3582   -0.1519 H   0  0  0  0  0  0  0  0  0  0  0  0
   -1.4918    2.9011   -0.1035 H   0  0  0  0  0  0  0  0  0  0  0  0
   -1.4618    1.8295    1.3051 H   0  0  0  0  0  0  0  0  0  0  0  0
    1.1152    2.9010   -0.1035 H   0  0  0  0  0  0  0  0  0  0  0  0
    1.9749    1.3582   -0.1519 H   0  0  0  0  0  0  0  0  0  0  0  0
    1.0852    1.8295    1.3051 H   0  0  0  0  0  0  0  0  0  0  0  0
    2.2414   -1.0241    1.0638 C   0  0  0  0  0  0  0  0  0  0  0  0
    1.0476   -1.5358    1.3178 C   0  0  0  0  0  0  0  0  0  0  0  0
   -0.1883   -1.3161    0.4954 C   0  0  0  0  0  0  0  0  0  0  0  0
   -1.2703   -0.6236    1.3262 C   0  0  0  0  0  0  0  0  0  0  0  0
   -0.7015   -2.6426   -0.0679 C   0  0  0  0  0  0  0  0  0  0  0  0
    3.0931   -1.2246    1.7016 H   0  0  0  0  0  0  0  0  0  0  0  0
    2.4098   -0.3833    0.2045 H   0  0  0  0  0  0  0  0  0  0  0  0
    0.9190   -2.1747    2.1906 H   0  0  0  0  0  0  0  0  0  0  0  0
   -2.1690   -0.4552    0.7293 H   0  0  0  0  0  0  0  0  0  0  0  0
   -1.5504   -1.2398    2.1849 H   0  0  0  0  0  0  0  0  0  0  0  0
   -0.9220    0.3393    1.7026 H   0  0  0  0  0  0  0  0  0  0  0  0
   -0.9615   -3.3303    0.7415 H   0  0  0  0  0  0  0  0  0  0  0  0
    0.0539   -3.1252   -0.6896 H   0  0  0  0  0  0  0  0  0  0  0  0
   -1.5968   -2.4863   -0.6732 H   0  0  0  0  0  0  0  0  0  0  0  0
  1  2  3  0
  1  6  1  0
  2  3  1  0
  3  4  1  0
  3  5  1  0
  4  8  1  0
  4  9  1  0
  4 10  1  0
  5 11  1  0
  5 12  1  0
  5 13  1  0
  7 16  1  0
 14 15  2  3
 14 19  1  0
 14 20  1  0
 15 16  1  0
 15 21  1  0
 16 17  1  0
 16 18  1  0
 17 22  1  0
 17 23  1  0
 17 24  1  0
 18 25  1  0
 18 26  1  0
 18 27  1  0
M  RAD  1   3   2
M  END
>  <reaction>  (5) 
rxn_1308

>  <mol_properties>  (5) 
{"1": {"label": "*4", "atom_type": "Ct"}, "2": {"label": "*3", "atom_type": "Cs"}, "6": {"label": "*2", "atom_type": "H0"}, "14": {"label": "*0", "atom_type": "Cd"}, "15": {"label": "*1", "atom_type": "Cs"}}

>  <type>  (5) 
unop_1

>  <geom_source>  (5) 
Heuristics

$$$$

     RDKit          3D

 27 25  0  0  0  0  0  0  0  0999 V2000
   -0.1290    1.2688   -2.6647 C   0  0  0  0  0  0  0  0  0  0  0  0
   -0.1290    1.2688   -1.4666 C   0  0  0  0  0  0  0  0  0  0  0  0
   -0.1290    1.2927   -0.0028 C   0  0  0  0  0  3  0  0  0  0  0  0
   -1.3951    1.9692    0.5316 C   0  0  0  0  0  0  0  0  0  0  0  0
    1.1371    1.9692    0.5316 C   0  0  0  0  0  0  0  0  0  0  0  0
   -0.1290    1.2688   -3.7280 H   0  0  0  0  0  0  0  0  0  0  0  0
   -0.1290    0.0441    0.4051 H   0  0  0  0  0  0  0  0  0  0  0  0
   -2.2922    1.4699    0.1656 H   0  0  0  0  0  0  0  0  0  0  0  0
   -1.4324    3.0127    0.2140 H   0  0  0  0  0  0  0  0  0  0  0  0
   -1.4024    1.9412    1.6226 H   0  0  0  0  0  0  0  0  0  0  0  0
    1.1745    3.0127    0.2140 H   0  0  0  0  0  0  0  0  0  0  0  0
    2.0342    1.4698    0.1656 H   0  0  0  0  0  0  0  0  0  0  0  0
    1.1445    1.9411    1.6226 H   0  0  0  0  0  0  0  0  0  0  0  0
    0.8164   -1.6650   -1.4688 C   0  0  0  0  0  0  0  0  0  0  0  0
    0.5845   -2.0295   -0.2178 C   0  0  0  0  0  0  0  0  0  0  0  0
   -0.1290   -1.2044    0.8129 C   0  0  0  0  0  0  0  0  0  0  0  0
    0.7971   -0.8989    1.9915 C   0  0  0  0  0  0  0  0  0  0  0  0
   -1.3964   -1.9174    1.2883 C   0  0  0  0  0  0  0  0  0  0  0  0
    1.3391   -2.3123   -2.1617 H   0  0  0  0  0  0  0  0  0  0  0  0
    0.4899   -0.7014   -1.8458 H   0  0  0  0  0  0  0  0  0  0  0  0
    0.9284   -3.0053    0.1229 H   0  0  0  0  0  0  0  0  0  0  0  0
    0.2840   -0.2924    2.7407 H   0  0  0  0  0  0  0  0  0  0  0  0
    1.1223   -1.8236    2.4762 H   0  0  0  0  0  0  0  0  0  0  0  0
    1.6872   -0.3600    1.6637 H   0  0  0  0  0  0  0  0  0  0  0  0
   -1.1489   -2.8781    1.7480 H   0  0  0  0  0  0  0  0  0  0  0  0
   -2.0766   -2.1076    0.4570 H   0  0  0  0  0  0  0  0  0  0  0  0
   -1.9226   -1.3169    2.0332 H   0  0  0  0  0  0  0  0  0  0  0  0
  1  2  3  0
  1  6  1  0
  2  3  1  0
  3  4  1  0
  3  5  1  0
  4  8  1  0
  4  9  1  0
  4 10  1  0
  5 11  1  0
  5 12  1  0
  5 13  1  0
  7 16  1  0
 14 15  2  3
 14 19  1  0
 14 20  1  0
 15 16  1  0
 15 21  1  0
 16 17  1  0
 16 18  1  0
 17 22  1  0
 17 23  1  0
 17 24  1  0
 18 25  1  0
 18 26  1  0
 18 27  1  0
M  RAD  1   3   2
M  END
>  <reaction>  (6) 
rxn_1308

>  <mol_properties>  (6) 
{"1": {"label": "*4", "atom_type": "Ct"}, "2": {"label": "*3", "atom_type": "Cs"}, "6": {"label": "*2", "atom_type": "H0"}, "14": {"label": "*0", "atom_type": "Cd"}, "15": {"label": "*1", "atom_type": "Cs"}}

>  <type>  (6) 
unop_2

>  <geom_source>  (6) 
Heuristics

$$$$

     RDKit          3D

 27 25  0  0  0  0  0  0  0  0999 V2000
   -0.0977    1.1401   -3.0500 C   0  0  0  0  0  0  0  0  0  0  0  0
   -0.0977    1.1401   -1.8519 C   0  0  0  0  0  0  0  0  0  0  0  0
   -0.0977    1.1641   -0.3881 C   0  0  0  0  0  3  0  0  0  0  0  0
   -1.3638    1.8405    0.1463 C   0  0  0  0  0  0  0  0  0  0  0  0
    1.1684    1.8405    0.1463 C   0  0  0  0  0  0  0  0  0  0  0  0
   -0.0977    1.1401   -4.1133 H   0  0  0  0  0  0  0  0  0  0  0  0
   -0.0977   -0.0846    0.0198 H   0  0  0  0  0  0  0  0  0  0  0  0
   -2.2609    1.3412   -0.2197 H   0  0  0  0  0  0  0  0  0  0  0  0
   -1.4011    2.8840   -0.1713 H   0  0  0  0  0  0  0  0  0  0  0  0
   -1.3711    1.8125    1.2373 H   0  0  0  0  0  0  0  0  0  0  0  0
    1.2058    2.8840   -0.1713 H   0  0  0  0  0  0  0  0  0  0  0  0
    2.0655    1.3412   -0.2197 H   0  0  0  0  0  0  0  0  0  0  0  0
    1.1758    1.8125    1.2373 H   0  0  0  0  0  0  0  0  0  0  0  0
    1.5535   -0.5487    2.1511 C   0  0  0  0  0  0  0  0  0  0  0  0
    0.6158   -1.3906    1.7466 C   0  0  0  0  0  0  0  0  0  0  0  0
   -0.0977   -1.3331    0.4276 C   0  0  0  0  0  0  0  0  0  0  0  0
   -1.5989   -1.1261    0.6377 C   0  0  0  0  0  0  0  0  0  0  0  0
    0.1676   -2.6034   -0.3824 C   0  0  0  0  0  0  0  0  0  0  0  0
    2.0284   -0.6492    3.1190 H   0  0  0  0  0  0  0  0  0  0  0  0
    1.8809    0.2749    1.5251 H   0  0  0  0  0  0  0  0  0  0  0  0
    0.3145   -2.2050    2.4043 H   0  0  0  0  0  0  0  0  0  0  0  0
   -2.1211   -1.0764   -0.3201 H   0  0  0  0  0  0  0  0  0  0  0  0
   -2.0262   -1.9552    1.2083 H   0  0  0  0  0  0  0  0  0  0  0  0
   -1.7965   -0.2036    1.1854 H   0  0  0  0  0  0  0  0  0  0  0  0
   -0.1972   -3.4848    0.1522 H   0  0  0  0  0  0  0  0  0  0  0  0
    1.2346   -2.7386   -0.5649 H   0  0  0  0  0  0  0  0  0  0  0  0
   -0.3440   -2.5625   -1.3462 H   0  0  0  0  0  0  0  0  0  0  0  0
  1  2  3  0
  1  6  1  0
  2  3  1  0
  3  4  1  0
  3  5  1  0
  4  8  1  0
  4  9  1  0
  4 10  1  0
  5 11  1  0
  5 12  1  0
  5 13  1  0
  7 16  1  0
 14 15  2  3
 14 19  1  0
 14 20  1  0
 15 16  1  0
 15 21  1  0
 16 17  1  0
 16 18  1  0
 17 22  1  0
 17 23  1  0
 17 24  1  0
 18 25  1  0
 18 26  1  0
 18 27  1  0
M  RAD  1   3   2
M  END
>  <reaction>  (7) 
rxn_1308

>  <mol_properties>  (7) 
{"1": {"label": "*4", "atom_type": "Ct"}, "2": {"label": "*3", "atom_type": "Cs"}, "6": {"label": "*2", "atom_type": "H0"}, "14": {"label": "*0", "atom_type": "Cd"}, "15": {"label": "*1", "atom_type": "Cs"}}

>  <type>  (7) 
unop_3

>  <geom_source>  (7) 
Heuristics

$$$$

     RDKit          3D

 27 25  0  0  0  0  0  0  0  0999 V2000
    0.2149    1.2339   -2.7569 C   0  0  0  0  0  0  0  0  0  0  0  0
    0.2149    1.2339   -1.5588 C   0  0  0  0  0  0  0  0  0  0  0  0
    0.2149    1.2579   -0.0950 C   0  0  0  0  0  3  0  0  0  0  0  0
   -1.0513    1.9343    0.4393 C   0  0  0  0  0  0  0  0  0  0  0  0
    1.4810    1.9343    0.4393 C   0  0  0  0  0  0  0  0  0  0  0  0
    0.2149    1.2339   -3.8202 H   0  0  0  0  0  0  0  0  0  0  0  0
    0.2148    0.0092    0.3129 H   0  0  0  0  0  0  0  0  0  0  0  0
   -1.9483    1.4350    0.0734 H   0  0  0  0  0  0  0  0  0  0  0  0
   -1.0886    2.9779    0.1218 H   0  0  0  0  0  0  0  0  0  0  0  0
   -1.0586    1.9063    1.5304 H   0  0  0  0  0  0  0  0  0  0  0  0
    1.5184    2.9778    0.1218 H   0  0  0  0  0  0  0  0  0  0  0  0
    2.3780    1.4350    0.0734 H   0  0  0  0  0  0  0  0  0  0  0  0
    1.4883    1.9063    1.5304 H   0  0  0  0  0  0  0  0  0  0  0  0
   -1.6172   -1.6092   -0.9582 C   0  0  0  0  0  0  0  0  0  0  0  0
   -1.0211   -1.9021    0.1865 C   0  0  0  0  0  0  0  0  0  0  0  0
    0.2148   -1.2393    0.7207 C   0  0  0  0  0  0  0  0  0  0  0  0
    1.3465   -2.2571    0.8741 C   0  0  0  0  0  0  0  0  0  0  0  0
   -0.0795   -0.5488    2.0537 C   0  0  0  0  0  0  0  0  0  0  0  0
   -2.5095   -2.1293   -1.2837 H   0  0  0  0  0  0  0  0  0  0  0  0
   -1.2319   -0.8351   -1.6136 H   0  0  0  0  0  0  0  0  0  0  0  0
   -1.4389   -2.6861    0.8169 H   0  0  0  0  0  0  0  0  0  0  0  0
    2.2502   -1.7774    1.2558 H   0  0  0  0  0  0  0  0  0  0  0  0
    1.0639   -3.0448    1.5780 H   0  0  0  0  0  0  0  0  0  0  0  0
    1.5844   -2.7286   -0.0804 H   0  0  0  0  0  0  0  0  0  0  0  0
   -0.4126   -1.2759    2.7993 H   0  0  0  0  0  0  0  0  0  0  0  0
   -0.8625    0.2028    1.9437 H   0  0  0  0  0  0  0  0  0  0  0  0
    0.8157   -0.0588    2.4424 H   0  0  0  0  0  0  0  0  0  0  0  0
  1  2  3  0
  1  6  1  0
  2  3  1  0
  3  4  1  0
  3  5  1  0
  4  8  1  0
  4  9  1  0
  4 10  1  0
  5 11  1  0
  5 12  1  0
  5 13  1  0
  7 16  1  0
 14 15  2  3
 14 19  1  0
 14 20  1  0
 15 16  1  0
 15 21  1  0
 16 17  1  0
 16 18  1  0
 17 22  1  0
 17 23  1  0
 17 24  1  0
 18 25  1  0
 18 26  1  0
 18 27  1  0
M  RAD  1   3   2
M  END
>  <reaction>  (8) 
rxn_1308

>  <mol_properties>  (8) 
{"1": {"label": "*4", "atom_type": "Ct"}, "2": {"label": "*3", "atom_type": "Cs"}, "6": {"label": "*2", "atom_type": "H0"}, "14": {"label": "*0", "atom_type": "Cd"}, "15": {"label": "*1", "atom_type": "Cs"}}

>  <type>  (8) 
unop_4

>  <geom_source>  (8) 
Heuristics

$$$$

     RDKit          3D

 27 25  0  0  0  0  0  0  0  0999 V2000
    0.0000    1.1390   -3.0693 C   0  0  0  0  0  0  0  0  0  0  0  0
    0.0000    1.1390   -1.8713 C   0  0  0  0  0  0  0  0  0  0  0  0
    0.0000    1.1629   -0.4074 C   0  0  0  0  0  3  0  0  0  0  0  0
   -1.2661    1.8394    0.1269 C   0  0  0  0  0  0  0  0  0  0  0  0
    1.2661    1.8394    0.1269 C   0  0  0  0  0  0  0  0  0  0  0  0
    0.0000    1.1390   -4.1327 H   0  0  0  0  0  0  0  0  0  0  0  0
   -0.0000   -0.0857    0.0004 H   0  0  0  0  0  0  0  0  0  0  0  0
   -2.1631    1.3401   -0.2390 H   0  0  0  0  0  0  0  0  0  0  0  0
   -1.3034    2.8829   -0.1906 H   0  0  0  0  0  0  0  0  0  0  0  0
   -1.2734    1.8114    1.2180 H   0  0  0  0  0  0  0  0  0  0  0  0
    1.3035    2.8829   -0.1906 H   0  0  0  0  0  0  0  0  0  0  0  0
    2.1632    1.3400   -0.2390 H   0  0  0  0  0  0  0  0  0  0  0  0
    1.2735    1.8114    1.2180 H   0  0  0  0  0  0  0  0  0  0  0  0
   -0.0000   -0.2542    2.6767 C   0  0  0  0  0  0  0  0  0  0  0  0
   -0.0000   -1.3323    1.9090 C   0  0  0  0  0  0  0  0  0  0  0  0
   -0.0000   -1.3342    0.4083 C   0  0  0  0  0  0  0  0  0  0  0  0
   -1.2593   -2.0175   -0.1280 C   0  0  0  0  0  0  0  0  0  0  0  0
    1.2593   -2.0176   -0.1280 C   0  0  0  0  0  0  0  0  0  0  0  0
   -0.0000   -0.3260    3.7571 H   0  0  0  0  0  0  0  0  0  0  0  0
    0.0000    0.7431    2.2494 H   0  0  0  0  0  0  0  0  0  0  0  0
   -0.0000   -2.3163    2.3762 H   0  0  0  0  0  0  0  0  0  0  0  0
   -1.2669   -2.0146   -1.2199 H   0  0  0  0  0  0  0  0  0  0  0  0
   -1.3039   -3.0586    0.2035 H   0  0  0  0  0  0  0  0  0  0  0  0
   -2.1609   -1.5138    0.2235 H   0  0  0  0  0  0  0  0  0  0  0  0
    1.3038   -3.0586    0.2035 H   0  0  0  0  0  0  0  0  0  0  0  0
    2.1608   -1.5139    0.2235 H   0  0  0  0  0  0  0  0  0  0  0  0
    1.2668   -2.0146   -1.2199 H   0  0  0  0  0  0  0  0  0  0  0  0
  1  2  3  0
  1  6  1  0
  2  3  1  0
  3  4  1  0
  3  5  1  0
  4  8  1  0
  4  9  1  0
  4 10  1  0
  5 11  1  0
  5 12  1  0
  5 13  1  0
  7 16  1  0
 14 15  2  3
 14 19  1  0
 14 20  1  0
 15 16  1  0
 15 21  1  0
 16 17  1  0
 16 18  1  0
 17 22  1  0
 17 23  1  0
 17 24  1  0
 18 25  1  0
 18 26  1  0
 18 27  1  0
M  RAD  1   3   2
M  END
>  <reaction>  (9) 
rxn_1308

>  <mol_properties>  (9) 
{"1": {"label": "*4", "atom_type": "Ct"}, "2": {"label": "*3", "atom_type": "Cs"}, "6": {"label": "*2", "atom_type": "H0"}, "14": {"label": "*0", "atom_type": "Cd"}, "15": {"label": "*1", "atom_type": "Cs"}}

>  <type>  (9) 
unop_5

>  <geom_source>  (9) 
Heuristics

$$$$

     RDKit          3D

 27 25  0  0  0  0  0  0  0  0999 V2000
    0.2347    1.1921   -2.8747 C   0  0  0  0  0  0  0  0  0  0  0  0
    0.2347    1.1921   -1.6766 C   0  0  0  0  0  0  0  0  0  0  0  0
    0.2347    1.2160   -0.2128 C   0  0  0  0  0  3  0  0  0  0  0  0
   -1.0315    1.8925    0.3216 C   0  0  0  0  0  0  0  0  0  0  0  0
    1.5008    1.8925    0.3216 C   0  0  0  0  0  0  0  0  0  0  0  0
    0.2347    1.1921   -3.9380 H   0  0  0  0  0  0  0  0  0  0  0  0
    0.2346   -0.0326    0.1951 H   0  0  0  0  0  0  0  0  0  0  0  0
   -1.9285    1.3932   -0.0444 H   0  0  0  0  0  0  0  0  0  0  0  0
   -1.0688    2.9360    0.0040 H   0  0  0  0  0  0  0  0  0  0  0  0
   -1.0388    1.8645    1.4126 H   0  0  0  0  0  0  0  0  0  0  0  0
    1.5382    2.9360    0.0040 H   0  0  0  0  0  0  0  0  0  0  0  0
    2.3978    1.3931   -0.0444 H   0  0  0  0  0  0  0  0  0  0  0  0
    1.5081    1.8645    1.4126 H   0  0  0  0  0  0  0  0  0  0  0  0
   -2.1839   -1.3974   -0.0673 C   0  0  0  0  0  0  0  0  0  0  0  0
   -1.1925   -1.7224    0.7471 C   0  0  0  0  0  0  0  0  0  0  0  0
    0.2346   -1.2811    0.6029 C   0  0  0  0  0  0  0  0  0  0  0  0
    1.1536   -2.4891    0.4122 C   0  0  0  0  0  0  0  0  0  0  0  0
    0.6667   -0.4557    1.8163 C   0  0  0  0  0  0  0  0  0  0  0  0
   -3.1937   -1.7525    0.0967 H   0  0  0  0  0  0  0  0  0  0  0  0
   -2.0197   -0.7617   -0.9311 H   0  0  0  0  0  0  0  0  0  0  0  0
   -1.3979   -2.3630    1.6037 H   0  0  0  0  0  0  0  0  0  0  0  0
    2.1925   -2.1719    0.2996 H   0  0  0  0  0  0  0  0  0  0  0  0
    1.0998   -3.1550    1.2779 H   0  0  0  0  0  0  0  0  0  0  0  0
    0.8716   -3.0631   -0.4715 H   0  0  0  0  0  0  0  0  0  0  0  0
    0.5957   -1.0496    2.7317 H   0  0  0  0  0  0  0  0  0  0  0  0
    0.0361    0.4261    1.9377 H   0  0  0  0  0  0  0  0  0  0  0  0
    1.7026   -0.1263    1.7121 H   0  0  0  0  0  0  0  0  0  0  0  0
  1  2  3  0
  1  6  1  0
  2  3  1  0
  3  4  1  0
  3  5  1  0
  4  8  1  0
  4  9  1  0
  4 10  1  0
  5 11  1  0
  5 12  1  0
  5 13  1  0
  7 16  1  0
 14 15  2  3
 14 19  1  0
 14 20  1  0
 15 16  1  0
 15 21  1  0
 16 17  1  0
 16 18  1  0
 17 22  1  0
 17 23  1  0
 17 24  1  0
 18 25  1  0
 18 26  1  0
 18 27  1  0
M  RAD  1   3   2
M  END
>  <reaction>  (10) 
rxn_1308

>  <mol_properties>  (10) 
{"1": {"label": "*4", "atom_type": "Ct"}, "2": {"label": "*3", "atom_type": "Cs"}, "6": {"label": "*2", "atom_type": "H0"}, "14": {"label": "*0", "atom_type": "Cd"}, "15": {"label": "*1", "atom_type": "Cs"}}

>  <type>  (10) 
unop_6

>  <geom_source>  (10) 
Heuristics

$$$$

     RDKit          3D

 27 25  0  0  0  0  0  0  0  0999 V2000
    0.1883    1.1571   -2.9822 C   0  0  0  0  0  0  0  0  0  0  0  0
    0.1883    1.1571   -1.7842 C   0  0  0  0  0  0  0  0  0  0  0  0
    0.1883    1.1811   -0.3203 C   0  0  0  0  0  3  0  0  0  0  0  0
   -1.0778    1.8575    0.2140 C   0  0  0  0  0  0  0  0  0  0  0  0
    1.4545    1.8575    0.2140 C   0  0  0  0  0  0  0  0  0  0  0  0
    0.1883    1.1571   -4.0456 H   0  0  0  0  0  0  0  0  0  0  0  0
    0.1883   -0.0676    0.0875 H   0  0  0  0  0  0  0  0  0  0  0  0
   -1.9748    1.3582   -0.1519 H   0  0  0  0  0  0  0  0  0  0  0  0
   -1.1151    2.9011   -0.1035 H   0  0  0  0  0  0  0  0  0  0  0  0
   -1.0851    1.8295    1.3051 H   0  0  0  0  0  0  0  0  0  0  0  0
    1.4918    2.9010   -0.1035 H   0  0  0  0  0  0  0  0  0  0  0  0
    2.3515    1.3582   -0.1519 H   0  0  0  0  0  0  0  0  0  0  0  0
    1.4618    1.8295    1.3051 H   0  0  0  0  0  0  0  0  0  0  0  0
   -2.2414   -1.0240    1.0638 C   0  0  0  0  0  0  0  0  0  0  0  0
   -1.0476   -1.5358    1.3178 C   0  0  0  0  0  0  0  0  0  0  0  0
    0.1883   -1.3161    0.4954 C   0  0  0  0  0  0  0  0  0  0  0  0
    0.7014   -2.6426   -0.0679 C   0  0  0  0  0  0  0  0  0  0  0  0
    1.2702   -0.6236    1.3262 C   0  0  0  0  0  0  0  0  0  0  0  0
   -3.0932   -1.2245    1.7016 H   0  0  0  0  0  0  0  0  0  0  0  0
   -2.4098   -0.3832    0.2045 H   0  0  0  0  0  0  0  0  0  0  0  0
   -0.9191   -2.1746    2.1906 H   0  0  0  0  0  0  0  0  0  0  0  0
    1.5968   -2.4863   -0.6732 H   0  0  0  0  0  0  0  0  0  0  0  0
    0.9614   -3.3304    0.7415 H   0  0  0  0  0  0  0  0  0  0  0  0
   -0.0540   -3.1252   -0.6896 H   0  0  0  0  0  0  0  0  0  0  0  0
    1.5504   -1.2399    2.1849 H   0  0  0  0  0  0  0  0  0  0  0  0
    0.9220    0.3392    1.7026 H   0  0  0  0  0  0  0  0  0  0  0  0
    2.1690   -0.4553    0.7293 H   0  0  0  0  0  0  0  0  0  0  0  0
  1  2  3  0
  1  6  1  0
  2  3  1  0
  3  4  1  0
  3  5  1  0
  4  8  1  0
  4  9  1  0
  4 10  1  0
  5 11  1  0
  5 12  1  0
  5 13  1  0
  7 16  1  0
 14 15  2  3
 14 19  1  0
 14 20  1  0
 15 16  1  0
 15 21  1  0
 16 17  1  0
 16 18  1  0
 17 22  1  0
 17 23  1  0
 17 24  1  0
 18 25  1  0
 18 26  1  0
 18 27  1  0
M  RAD  1   3   2
M  END
>  <reaction>  (11) 
rxn_1308

>  <mol_properties>  (11) 
{"1": {"label": "*4", "atom_type": "Ct"}, "2": {"label": "*3", "atom_type": "Cs"}, "6": {"label": "*2", "atom_type": "H0"}, "14": {"label": "*0", "atom_type": "Cd"}, "15": {"label": "*1", "atom_type": "Cs"}}

>  <type>  (11) 
unop_7

>  <geom_source>  (11) 
Heuristics

$$$$

     RDKit          3D

 27 25  0  0  0  0  0  0  0  0999 V2000
   -0.2346    1.1921   -2.8747 C   0  0  0  0  0  0  0  0  0  0  0  0
   -0.2346    1.1921   -1.6766 C   0  0  0  0  0  0  0  0  0  0  0  0
   -0.2346    1.2161   -0.2128 C   0  0  0  0  0  3  0  0  0  0  0  0
   -1.5007    1.8925    0.3216 C   0  0  0  0  0  0  0  0  0  0  0  0
    1.0315    1.8925    0.3216 C   0  0  0  0  0  0  0  0  0  0  0  0
   -0.2346    1.1921   -3.9380 H   0  0  0  0  0  0  0  0  0  0  0  0
   -0.2346   -0.0326    0.1951 H   0  0  0  0  0  0  0  0  0  0  0  0
   -2.3978    1.3932   -0.0444 H   0  0  0  0  0  0  0  0  0  0  0  0
   -1.5381    2.9360    0.0040 H   0  0  0  0  0  0  0  0  0  0  0  0
   -1.5081    1.8645    1.4126 H   0  0  0  0  0  0  0  0  0  0  0  0
    1.0689    2.9360    0.0040 H   0  0  0  0  0  0  0  0  0  0  0  0
    1.9286    1.3931   -0.0444 H   0  0  0  0  0  0  0  0  0  0  0  0
    1.0388    1.8645    1.4126 H   0  0  0  0  0  0  0  0  0  0  0  0
    2.1839   -1.3975   -0.0673 C   0  0  0  0  0  0  0  0  0  0  0  0
    1.1925   -1.7224    0.7471 C   0  0  0  0  0  0  0  0  0  0  0  0
   -0.2347   -1.2811    0.6029 C   0  0  0  0  0  0  0  0  0  0  0  0
   -0.6668   -0.4557    1.8163 C   0  0  0  0  0  0  0  0  0  0  0  0
   -1.1537   -2.4891    0.4122 C   0  0  0  0  0  0  0  0  0  0  0  0
    3.1936   -1.7526    0.0967 H   0  0  0  0  0  0  0  0  0  0  0  0
    2.0197   -0.7617   -0.9311 H   0  0  0  0  0  0  0  0  0  0  0  0
    1.3978   -2.3631    1.6037 H   0  0  0  0  0  0  0  0  0  0  0  0
   -1.7026   -0.1263    1.7121 H   0  0  0  0  0  0  0  0  0  0  0  0
   -0.5957   -1.0495    2.7317 H   0  0  0  0  0  0  0  0  0  0  0  0
   -0.0361    0.4261    1.9377 H   0  0  0  0  0  0  0  0  0  0  0  0
   -1.0999   -3.1550    1.2779 H   0  0  0  0  0  0  0  0  0  0  0  0
   -0.8717   -3.0631   -0.4715 H   0  0  0  0  0  0  0  0  0  0  0  0
   -2.1925   -2.1719    0.2996 H   0  0  0  0  0  0  0  0  0  0  0  0
  1  2  3  0
  1  6  1  0
  2  3  1  0
  3  4  1  0
  3  5  1  0
  4  8  1  0
  4  9  1  0
  4 10  1  0
  5 11  1  0
  5 12  1  0
  5 13  1  0
  7 16  1  0
 14 15  2  3
 14 19  1  0
 14 20  1  0
 15 16  1  0
 15 21  1  0
 16 17  1  0
 16 18  1  0
 17 22  1  0
 17 23  1  0
 17 24  1  0
 18 25  1  0
 18 26  1  0
 18 27  1  0
M  RAD  1   3   2
M  END
>  <reaction>  (12) 
rxn_1308

>  <mol_properties>  (12) 
{"1": {"label": "*4", "atom_type": "Ct"}, "2": {"label": "*3", "atom_type": "Cs"}, "6": {"label": "*2", "atom_type": "H0"}, "14": {"label": "*0", "atom_type": "Cd"}, "15": {"label": "*1", "atom_type": "Cs"}}

>  <type>  (12) 
unop_8

>  <geom_source>  (12) 
Heuristics

$$$$

     RDKit          3D

 27 25  0  0  0  0  0  0  0  0999 V2000
    0.1290    1.2688   -2.6647 C   0  0  0  0  0  0  0  0  0  0  0  0
    0.1290    1.2688   -1.4666 C   0  0  0  0  0  0  0  0  0  0  0  0
    0.1290    1.2927   -0.0028 C   0  0  0  0  0  3  0  0  0  0  0  0
   -1.1371    1.9692    0.5316 C   0  0  0  0  0  0  0  0  0  0  0  0
    1.3952    1.9691    0.5316 C   0  0  0  0  0  0  0  0  0  0  0  0
    0.1290    1.2688   -3.7280 H   0  0  0  0  0  0  0  0  0  0  0  0
    0.1290    0.0441    0.4051 H   0  0  0  0  0  0  0  0  0  0  0  0
   -2.0341    1.4699    0.1656 H   0  0  0  0  0  0  0  0  0  0  0  0
   -1.1744    3.0127    0.2140 H   0  0  0  0  0  0  0  0  0  0  0  0
   -1.1444    1.9412    1.6226 H   0  0  0  0  0  0  0  0  0  0  0  0
    1.4325    3.0127    0.2140 H   0  0  0  0  0  0  0  0  0  0  0  0
    2.2922    1.4698    0.1656 H   0  0  0  0  0  0  0  0  0  0  0  0
    1.4025    1.9411    1.6226 H   0  0  0  0  0  0  0  0  0  0  0  0
   -0.8164   -1.6650   -1.4688 C   0  0  0  0  0  0  0  0  0  0  0  0
   -0.5846   -2.0295   -0.2178 C   0  0  0  0  0  0  0  0  0  0  0  0
    0.1290   -1.2044    0.8129 C   0  0  0  0  0  0  0  0  0  0  0  0
    1.3963   -1.9174    1.2883 C   0  0  0  0  0  0  0  0  0  0  0  0
   -0.7972   -0.8989    1.9915 C   0  0  0  0  0  0  0  0  0  0  0  0
   -1.3392   -2.3123   -2.1617 H   0  0  0  0  0  0  0  0  0  0  0  0
   -0.4899   -0.7014   -1.8458 H   0  0  0  0  0  0  0  0  0  0  0  0
   -0.9284   -3.0052    0.1229 H   0  0  0  0  0  0  0  0  0  0  0  0
    1.9226   -1.3170    2.0332 H   0  0  0  0  0  0  0  0  0  0  0  0
    1.1488   -2.8781    1.7480 H   0  0  0  0  0  0  0  0  0  0  0  0
    2.0766   -2.1077    0.4570 H   0  0  0  0  0  0  0  0  0  0  0  0
   -1.1224   -1.8235    2.4762 H   0  0  0  0  0  0  0  0  0  0  0  0
   -1.6872   -0.3600    1.6637 H   0  0  0  0  0  0  0  0  0  0  0  0
   -0.2840   -0.2923    2.7407 H   0  0  0  0  0  0  0  0  0  0  0  0
  1  2  3  0
  1  6  1  0
  2  3  1  0
  3  4  1  0
  3  5  1  0
  4  8  1  0
  4  9  1  0
  4 10  1  0
  5 11  1  0
  5 12  1  0
  5 13  1  0
  7 16  1  0
 14 15  2  3
 14 19  1  0
 14 20  1  0
 15 16  1  0
 15 21  1  0
 16 17  1  0
 16 18  1  0
 17 22  1  0
 17 23  1  0
 17 24  1  0
 18 25  1  0
 18 26  1  0
 18 27  1  0
M  RAD  1   3   2
M  END
>  <reaction>  (13) 
rxn_1308

>  <mol_properties>  (13) 
{"1": {"label": "*4", "atom_type": "Ct"}, "2": {"label": "*3", "atom_type": "Cs"}, "6": {"label": "*2", "atom_type": "H0"}, "14": {"label": "*0", "atom_type": "Cd"}, "15": {"label": "*1", "atom_type": "Cs"}}

>  <type>  (13) 
unop_9

>  <geom_source>  (13) 
Heuristics

$$$$

     RDKit          3D

 27 25  0  0  0  0  0  0  0  0999 V2000
   -0.2148    1.2339   -2.7569 C   0  0  0  0  0  0  0  0  0  0  0  0
   -0.2148    1.2339   -1.5588 C   0  0  0  0  0  0  0  0  0  0  0  0
   -0.2148    1.2579   -0.0950 C   0  0  0  0  0  3  0  0  0  0  0  0
   -1.4809    1.9343    0.4393 C   0  0  0  0  0  0  0  0  0  0  0  0
    1.0513    1.9343    0.4393 C   0  0  0  0  0  0  0  0  0  0  0  0
   -0.2148    1.2339   -3.8202 H   0  0  0  0  0  0  0  0  0  0  0  0
   -0.2148    0.0092    0.3129 H   0  0  0  0  0  0  0  0  0  0  0  0
   -2.3780    1.4350    0.0734 H   0  0  0  0  0  0  0  0  0  0  0  0
   -1.5183    2.9779    0.1218 H   0  0  0  0  0  0  0  0  0  0  0  0
   -1.4883    1.9063    1.5304 H   0  0  0  0  0  0  0  0  0  0  0  0
    1.0887    2.9778    0.1218 H   0  0  0  0  0  0  0  0  0  0  0  0
    1.9483    1.4350    0.0734 H   0  0  0  0  0  0  0  0  0  0  0  0
    1.0586    1.9063    1.5304 H   0  0  0  0  0  0  0  0  0  0  0  0
    1.6172   -1.6093   -0.9582 C   0  0  0  0  0  0  0  0  0  0  0  0
    1.0211   -1.9021    0.1865 C   0  0  0  0  0  0  0  0  0  0  0  0
   -0.2149   -1.2393    0.7207 C   0  0  0  0  0  0  0  0  0  0  0  0
    0.0794   -0.5488    2.0537 C   0  0  0  0  0  0  0  0  0  0  0  0
   -1.3466   -2.2571    0.8741 C   0  0  0  0  0  0  0  0  0  0  0  0
    2.5094   -2.1294   -1.2837 H   0  0  0  0  0  0  0  0  0  0  0  0
    1.2319   -0.8351   -1.6136 H   0  0  0  0  0  0  0  0  0  0  0  0
    1.4388   -2.6861    0.8169 H   0  0  0  0  0  0  0  0  0  0  0  0
   -0.8157   -0.0588    2.4424 H   0  0  0  0  0  0  0  0  0  0  0  0
    0.4125   -1.2759    2.7993 H   0  0  0  0  0  0  0  0  0  0  0  0
    0.8625    0.2028    1.9437 H   0  0  0  0  0  0  0  0  0  0  0  0
   -1.0640   -3.0447    1.5780 H   0  0  0  0  0  0  0  0  0  0  0  0
   -1.5845   -2.7285   -0.0804 H   0  0  0  0  0  0  0  0  0  0  0  0
   -2.2503   -1.7773    1.2558 H   0  0  0  0  0  0  0  0  0  0  0  0
  1  2  3  0
  1  6  1  0
  2  3  1  0
  3  4  1  0
  3  5  1  0
  4  8  1  0
  4  9  1  0
  4 10  1  0
  5 11  1  0
  5 12  1  0
  5 13  1  0
  7 16  1  0
 14 15  2  3
 14 19  1  0
 14 20  1  0
 15 16  1  0
 15 21  1  0
 16 17  1  0
 16 18  1  0
 17 22  1  0
 17 23  1  0
 17 24  1  0
 18 25  1  0
 18 26  1  0
 18 27  1  0
M  RAD  1   3   2
M  END
>  <reaction>  (14) 
rxn_1308

>  <mol_properties>  (14) 
{"1": {"label": "*4", "atom_type": "Ct"}, "2": {"label": "*3", "atom_type": "Cs"}, "6": {"label": "*2", "atom_type": "H0"}, "14": {"label": "*0", "atom_type": "Cd"}, "15": {"label": "*1", "atom_type": "Cs"}}

>  <type>  (14) 
unop_10

>  <geom_source>  (14) 
Heuristics

$$$$

     RDKit          3D

 27 25  0  0  0  0  0  0  0  0999 V2000
    0.0977    1.1401   -3.0500 C   0  0  0  0  0  0  0  0  0  0  0  0
    0.0977    1.1401   -1.8519 C   0  0  0  0  0  0  0  0  0  0  0  0
    0.0977    1.1641   -0.3881 C   0  0  0  0  0  3  0  0  0  0  0  0
   -1.1684    1.8405    0.1463 C   0  0  0  0  0  0  0  0  0  0  0  0
    1.3639    1.8405    0.1463 C   0  0  0  0  0  0  0  0  0  0  0  0
    0.0977    1.1401   -4.1133 H   0  0  0  0  0  0  0  0  0  0  0  0
    0.0977   -0.0846    0.0198 H   0  0  0  0  0  0  0  0  0  0  0  0
   -2.0654    1.3412   -0.2197 H   0  0  0  0  0  0  0  0  0  0  0  0
   -1.2057    2.8840   -0.1713 H   0  0  0  0  0  0  0  0  0  0  0  0
   -1.1757    1.8125    1.2373 H   0  0  0  0  0  0  0  0  0  0  0  0
    1.4012    2.8840   -0.1713 H   0  0  0  0  0  0  0  0  0  0  0  0
    2.2609    1.3412   -0.2197 H   0  0  0  0  0  0  0  0  0  0  0  0
    1.3712    1.8125    1.2373 H   0  0  0  0  0  0  0  0  0  0  0  0
   -1.5535   -0.5486    2.1511 C   0  0  0  0  0  0  0  0  0  0  0  0
   -0.6159   -1.3906    1.7466 C   0  0  0  0  0  0  0  0  0  0  0  0
    0.0977   -1.3331    0.4276 C   0  0  0  0  0  0  0  0  0  0  0  0
   -0.1677   -2.6034   -0.3824 C   0  0  0  0  0  0  0  0  0  0  0  0
    1.5988   -1.1262    0.6377 C   0  0  0  0  0  0  0  0  0  0  0  0
   -2.0284   -0.6491    3.1190 H   0  0  0  0  0  0  0  0  0  0  0  0
   -1.8808    0.2750    1.5251 H   0  0  0  0  0  0  0  0  0  0  0  0
   -0.3146   -2.2049    2.4043 H   0  0  0  0  0  0  0  0  0  0  0  0
    0.3440   -2.5625   -1.3462 H   0  0  0  0  0  0  0  0  0  0  0  0
    0.1971   -3.4848    0.1522 H   0  0  0  0  0  0  0  0  0  0  0  0
   -1.2347   -2.7386   -0.5649 H   0  0  0  0  0  0  0  0  0  0  0  0
    2.0262   -1.9552    1.2083 H   0  0  0  0  0  0  0  0  0  0  0  0
    1.7965   -0.2037    1.1854 H   0  0  0  0  0  0  0  0  0  0  0  0
    2.1210   -1.0764   -0.3201 H   0  0  0  0  0  0  0  0  0  0  0  0
  1  2  3  0
  1  6  1  0
  2  3  1  0
  3  4  1  0
  3  5  1  0
  4  8  1  0
  4  9  1  0
  4 10  1  0
  5 11  1  0
  5 12  1  0
  5 13  1  0
  7 16  1  0
 14 15  2  3
 14 19  1  0
 14 20  1  0
 15 16  1  0
 15 21  1  0
 16 17  1  0
 16 18  1  0
 17 22  1  0
 17 23  1  0
 17 24  1  0
 18 25  1  0
 18 26  1  0
 18 27  1  0
M  RAD  1   3   2
M  END
>  <reaction>  (15) 
rxn_1308

>  <mol_properties>  (15) 
{"1": {"label": "*4", "atom_type": "Ct"}, "2": {"label": "*3", "atom_type": "Cs"}, "6": {"label": "*2", "atom_type": "H0"}, "14": {"label": "*0", "atom_type": "Cd"}, "15": {"label": "*1", "atom_type": "Cs"}}

>  <type>  (15) 
unop_11

>  <geom_source>  (15) 
Heuristics

$$$$

     RDKit          3D

 27 25  0  0  0  0  0  0  0  0999 V2000
    0.0000    1.2827   -2.6294 C   0  0  0  0  0  0  0  0  0  0  0  0
    0.0000    1.2827   -1.4313 C   0  0  0  0  0  0  0  0  0  0  0  0
    0.0000    1.3066    0.0325 C   0  0  0  0  0  3  0  0  0  0  0  0
   -1.2661    1.9831    0.5668 C   0  0  0  0  0  0  0  0  0  0  0  0
    1.2661    1.9831    0.5668 C   0  0  0  0  0  0  0  0  0  0  0  0
    0.0000    1.2827   -3.6927 H   0  0  0  0  0  0  0  0  0  0  0  0
    0.0000    0.0580    0.4403 H   0  0  0  0  0  0  0  0  0  0  0  0
   -2.1631    1.4838    0.2009 H   0  0  0  0  0  0  0  0  0  0  0  0
   -1.3034    3.0266    0.2493 H   0  0  0  0  0  0  0  0  0  0  0  0
   -1.2734    1.9551    1.6579 H   0  0  0  0  0  0  0  0  0  0  0  0
    1.3035    3.0266    0.2493 H   0  0  0  0  0  0  0  0  0  0  0  0
    2.1632    1.4837    0.2009 H   0  0  0  0  0  0  0  0  0  0  0  0
    1.2735    1.9551    1.6579 H   0  0  0  0  0  0  0  0  0  0  0  0
   -0.0000   -1.6579   -1.6203 C   0  0  0  0  0  0  0  0  0  0  0  0
   -0.0000   -2.0749   -0.3643 C   0  0  0  0  0  0  0  0  0  0  0  0
   -0.0000   -1.1905    0.8482 C   0  0  0  0  0  0  0  0  0  0  0  0
    1.2593   -1.4255    1.6844 C   0  0  0  0  0  0  0  0  0  0  0  0
   -1.2593   -1.4255    1.6844 C   0  0  0  0  0  0  0  0  0  0  0  0
   -0.0000   -2.3536   -2.4501 H   0  0  0  0  0  0  0  0  0  0  0  0
   -0.0000   -0.6007   -1.8642 H   0  0  0  0  0  0  0  0  0  0  0  0
   -0.0000   -3.1449   -0.1605 H   0  0  0  0  0  0  0  0  0  0  0  0
    1.2668   -0.7785    2.5640 H   0  0  0  0  0  0  0  0  0  0  0  0
    1.3039   -2.4615    2.0315 H   0  0  0  0  0  0  0  0  0  0  0  0
    2.1608   -1.2264    1.1034 H   0  0  0  0  0  0  0  0  0  0  0  0
   -1.3039   -2.4614    2.0315 H   0  0  0  0  0  0  0  0  0  0  0  0
   -2.1609   -1.2264    1.1034 H   0  0  0  0  0  0  0  0  0  0  0  0
   -1.2668   -0.7785    2.5640 H   0  0  0  0  0  0  0  0  0  0  0  0
  1  2  3  0
  1  6  1  0
  2  3  1  0
  3  4  1  0
  3  5  1  0
  4  8  1  0
  4  9  1  0
  4 10  1  0
  5 11  1  0
  5 12  1  0
  5 13  1  0
  7 16  1  0
 14 15  2  3
 14 19  1  0
 14 20  1  0
 15 16  1  0
 15 21  1  0
 16 17  1  0
 16 18  1  0
 17 22  1  0
 17 23  1  0
 17 24  1  0
 18 25  1  0
 18 26  1  0
 18 27  1  0
M  RAD  1   3   2
M  END
>  <reaction>  (16) 
rxn_1308

>  <mol_properties>  (16) 
{"1": {"label": "*4", "atom_type": "Ct"}, "2": {"label": "*3", "atom_type": "Cs"}, "6": {"label": "*2", "atom_type": "H0"}, "14": {"label": "*0", "atom_type": "Cd"}, "15": {"label": "*1", "atom_type": "Cs"}}

>  <type>  (16) 
unop_12

>  <geom_source>  (16) 
Heuristics

$$$$

     RDKit          3D

 27 25  0  0  0  0  0  0  0  0999 V2000
    1.2040   -0.0549   -0.3500 C   0  0  0  0  0  0  0  0  0  0  0  0
    0.9663    1.2309   -1.1487 C   0  0  0  0  0  0  0  0  0  0  0  0
    1.8243   -1.1327   -1.2437 C   0  0  0  0  0  0  0  0  0  0  0  0
   -1.4617   -0.4409    1.6511 C   0  0  0  0  0  0  0  0  0  0  0  0
   -2.0663   -1.5079   -0.5579 C   0  0  0  0  0  0  0  0  0  0  0  0
   -1.3077   -0.3754    0.1324 C   0  0  0  0  0  3  0  0  0  0  0  0
    2.0874    0.2151    0.8443 C   0  0  0  0  0  0  0  0  0  0  0  0
    1.6323    0.8804    1.9098 C   0  0  0  0  0  0  0  0  0  0  0  0
   -1.7533    0.9304   -0.3764 C   0  0  0  0  0  0  0  0  0  0  0  0
   -2.1177    2.0012   -0.7938 C   0  0  0  0  0  0  0  0  0  0  0  0
    0.0315   -0.5104    0.0791 H   0  0  0  0  0  0  0  0  0  0  0  0
    0.4616    1.9900   -0.5145 H   0  0  0  0  0  0  0  0  0  0  0  0
    0.3095    1.0223   -2.0197 H   0  0  0  0  0  0  0  0  0  0  0  0
    1.9289    1.6492   -1.5145 H   0  0  0  0  0  0  0  0  0  0  0  0
    1.9730   -2.0676   -0.6624 H   0  0  0  0  0  0  0  0  0  0  0  0
    2.8049   -0.7967   -1.6449 H   0  0  0  0  0  0  0  0  0  0  0  0
    1.1459   -1.3593   -2.0934 H   0  0  0  0  0  0  0  0  0  0  0  0
   -1.0805   -1.4135    2.0276 H   0  0  0  0  0  0  0  0  0  0  0  0
   -2.5284   -0.3318    1.9444 H   0  0  0  0  0  0  0  0  0  0  0  0
   -0.8695    0.3694    2.1272 H   0  0  0  0  0  0  0  0  0  0  0  0
   -1.6897   -2.4886   -0.1983 H   0  0  0  0  0  0  0  0  0  0  0  0
   -1.9048   -1.4579   -1.6558 H   0  0  0  0  0  0  0  0  0  0  0  0
   -3.1556   -1.4387   -0.3473 H   0  0  0  0  0  0  0  0  0  0  0  0
    3.1076   -0.1597    0.8610 H   0  0  0  0  0  0  0  0  0  0  0  0
    0.6138    1.2552    1.9423 H   0  0  0  0  0  0  0  0  0  0  0  0
    2.2821    1.0507    2.7620 H   0  0  0  0  0  0  0  0  0  0  0  0
   -2.4378    2.9411   -1.1602 H   0  0  0  0  0  0  0  0  0  0  0  0
  1  2  1  0
  1  3  1  0
  1  7  1  0
  1 11  1  0
  2 12  1  0
  2 13  1  0
  2 14  1  0
  3 15  1  0
  3 16  1  0
  3 17  1  0
  4  6  1  0
  4 18  1  0
  4 19  1  0
  4 20  1  0
  5  6  1  0
  5 21  1  0
  5 22  1  0
  5 23  1  0
  6  9  1  0
  7  8  2  3
  7 24  1  0
  8 25  1  0
  8 26  1  0
  9 10  3  0
 10 27  1  0
M  RAD  1   6   2
M  END
>  <reaction>  (17) 
rxn_1308

>  <mol_properties>  (17) 
{"1": {"label": "*4", "atom_type": "Ct"}, "2": {"label": "*3", "atom_type": "Cs"}, "6": {"label": "*2", "atom_type": "H0"}, "14": {"label": "*0", "atom_type": "Cd"}, "15": {"label": "*1", "atom_type": "Cs"}}

>  <type>  (17) 
unop_13

>  <geom_source>  (17) 
AutoTST

$$$$
