
     RDKit          3D

  2  1  0  0  0  0  0  0  0  0999 V2000
    0.0000    0.0000    0.3721 H   0  0  0  0  0  0  0  0  0  0  0  0
    0.0000    0.0000   -0.3721 H   0  0  0  0  0  0  0  0  0  0  0  0
  1  2  1  0
M  END
>  <reaction>  (1) 
rxn_801

>  <mol_properties>  (1) 
{"0": {"label": "donator", "atom_type": "H0"}, "1": {"label": "d_hydrogen", "atom_type": "H0"}}

>  <type>  (1) 
r1h

$$$$

     RDKit          3D

 20 20  0  0  0  0  0  0  0  0999 V2000
   -2.4774    0.8083    0.1488 C   0  0  0  0  0  0  0  0  0  0  0  0
   -1.4172   -0.1696   -0.2476 C   0  0  0  0  0  3  0  0  0  0  0  0
   -0.2904    0.2932   -1.1156 C   0  0  0  0  0  0  0  0  0  0  0  0
   -1.4797   -1.5204    0.1947 C   0  0  0  0  0  0  0  0  0  0  0  0
   -0.4907   -2.4664   -0.1650 C   0  0  0  0  0  0  0  0  0  0  0  0
   -0.5559   -3.7750    0.2665 C   0  0  0  0  0  0  0  0  0  0  0  0
   -1.6038   -4.2041    1.0733 C   0  0  0  0  0  0  0  0  0  0  0  0
   -2.5899   -3.2959    1.4424 C   0  0  0  0  0  0  0  0  0  0  0  0
   -2.5339   -1.9852    1.0162 C   0  0  0  0  0  0  0  0  0  0  0  0
   -3.4697    0.4933   -0.1924 H   0  0  0  0  0  0  0  0  0  0  0  0
   -2.5434    0.9184    1.2368 H   0  0  0  0  0  0  0  0  0  0  0  0
   -2.2829    1.7944   -0.2706 H   0  0  0  0  0  0  0  0  0  0  0  0
   -0.2452   -0.2661   -2.0565 H   0  0  0  0  0  0  0  0  0  0  0  0
   -0.3905    1.3487   -1.3647 H   0  0  0  0  0  0  0  0  0  0  0  0
    0.6811    0.1589   -0.6274 H   0  0  0  0  0  0  0  0  0  0  0  0
    0.3373   -2.1635   -0.7918 H   0  0  0  0  0  0  0  0  0  0  0  0
    0.2187   -4.4725   -0.0281 H   0  0  0  0  0  0  0  0  0  0  0  0
   -1.6513   -5.2316    1.4097 H   0  0  0  0  0  0  0  0  0  0  0  0
   -3.4116   -3.6175    2.0706 H   0  0  0  0  0  0  0  0  0  0  0  0
   -3.3164   -1.3029    1.3205 H   0  0  0  0  0  0  0  0  0  0  0  0
  1  2  1  0
  1 10  1  0
  1 11  1  0
  1 12  1  0
  2  3  1  0
  2  4  1  0
  3 13  1  0
  3 14  1  0
  3 15  1  0
  4  5  2  0
  4  9  1  0
  5  6  1  0
  5 16  1  0
  6  7  2  0
  6 17  1  0
  7  8  1  0
  7 18  1  0
  8  9  2  0
  8 19  1  0
  9 20  1  0
M  RAD  1   2   2
M  END
>  <reaction>  (2) 
rxn_801

>  <mol_properties>  (2) 
{"1": {"label": "acceptor", "atom_type": "Cs"}}

>  <type>  (2) 
r2

$$$$

     RDKit          3D

 21 21  0  0  0  0  0  0  0  0999 V2000
   -1.3695    1.3367   -1.0719 C   0  0  0  0  0  0  0  0  0  0  0  0
   -1.4091   -0.0981   -0.5428 C   0  0  0  0  0  0  0  0  0  0  0  0
   -0.1819   -0.3999    0.3191 C   0  0  0  0  0  0  0  0  0  0  0  0
   -1.5636   -1.1028   -1.6652 C   0  0  0  0  0  0  0  0  0  0  0  0
   -0.5920   -1.2314   -2.6553 C   0  0  0  0  0  0  0  0  0  0  0  0
   -0.7353   -2.1509   -3.6809 C   0  0  0  0  0  0  0  0  0  0  0  0
   -1.8582   -2.9642   -3.7377 C   0  0  0  0  0  0  0  0  0  0  0  0
   -2.8325   -2.8475   -2.7602 C   0  0  0  0  0  0  0  0  0  0  0  0
   -2.6828   -1.9241   -1.7351 C   0  0  0  0  0  0  0  0  0  0  0  0
   -0.4920    1.4974   -1.7025 H   0  0  0  0  0  0  0  0  0  0  0  0
   -2.2553    1.5607   -1.6679 H   0  0  0  0  0  0  0  0  0  0  0  0
   -1.3211    2.0496   -0.2461 H   0  0  0  0  0  0  0  0  0  0  0  0
   -2.2930   -0.1918    0.0948 H   0  0  0  0  0  0  0  0  0  0  0  0
   -0.1215    0.2955    1.1588 H   0  0  0  0  0  0  0  0  0  0  0  0
   -0.2200   -1.4155    0.7159 H   0  0  0  0  0  0  0  0  0  0  0  0
    0.7383   -0.3016   -0.2615 H   0  0  0  0  0  0  0  0  0  0  0  0
    0.2915   -0.6040   -2.6263 H   0  0  0  0  0  0  0  0  0  0  0  0
    0.0326   -2.2338   -4.4401 H   0  0  0  0  0  0  0  0  0  0  0  0
   -1.9712   -3.6833   -4.5391 H   0  0  0  0  0  0  0  0  0  0  0  0
   -3.7135   -3.4765   -2.7932 H   0  0  0  0  0  0  0  0  0  0  0  0
   -3.4509   -1.8400   -0.9743 H   0  0  0  0  0  0  0  0  0  0  0  0
  1  2  1  0
  1 10  1  0
  1 11  1  0
  1 12  1  0
  2  3  1  0
  2  4  1  0
  2 13  1  0
  3 14  1  0
  3 15  1  0
  3 16  1  0
  4  5  2  0
  4  9  1  0
  5  6  1  0
  5 17  1  0
  6  7  2  0
  6 18  1  0
  7  8  1  0
  7 19  1  0
  8  9  2  0
  8 20  1  0
  9 21  1  0
M  END
>  <reaction>  (3) 
rxn_801

>  <mol_properties>  (3) 
{"0": {"label": "a_hydrogen", "atom_type": "H0"}, "2": {"label": "acceptor", "atom_type": "Cs"}}

>  <type>  (3) 
r2h

$$$$

     RDKit          3D

 22 21  0  0  0  0  0  0  0  0999 V2000
   -1.8383    0.0807   -2.7326 H   0  0  0  0  0 15  0  0  0  0  0  0
   -1.6151    0.3673   -1.6829 H   0  0  0  0  0  0  0  0  0  0  0  0
   -1.2403    2.2464   -0.6759 C   0  0  0  0  0  0  0  0  0  0  0  0
   -1.4182    0.7409   -0.5522 C   0  0  0  0  0  0  0  0  0  0  0  0
   -2.6798    0.3697    0.2001 C   0  0  0  0  0  0  0  0  0  0  0  0
   -0.1646    0.0298   -0.1275 C   0  0  0  0  0  0  0  0  0  0  0  0
   -0.0685   -0.6614    1.0766 C   0  0  0  0  0  0  0  0  0  0  0  0
    1.1124   -1.2910    1.4451 C   0  0  0  0  0  0  0  0  0  0  0  0
    2.2166   -1.2496    0.6111 C   0  0  0  0  0  0  0  0  0  0  0  0
    2.1319   -0.5733   -0.5982 C   0  0  0  0  0  0  0  0  0  0  0  0
    0.9554    0.0582   -0.9592 C   0  0  0  0  0  0  0  0  0  0  0  0
   -0.3814    2.5018   -1.2965 H   0  0  0  0  0  0  0  0  0  0  0  0
   -2.1286    2.7047   -1.1147 H   0  0  0  0  0  0  0  0  0  0  0  0
   -1.0810    2.6871    0.3123 H   0  0  0  0  0  0  0  0  0  0  0  0
   -2.6501    0.7440    1.2275 H   0  0  0  0  0  0  0  0  0  0  0  0
   -3.5489    0.8162   -0.2851 H   0  0  0  0  0  0  0  0  0  0  0  0
   -2.8265   -0.7105    0.2342 H   0  0  0  0  0  0  0  0  0  0  0  0
   -0.9192   -0.7097    1.7437 H   0  0  0  0  0  0  0  0  0  0  0  0
    1.1652   -1.8182    2.3895 H   0  0  0  0  0  0  0  0  0  0  0  0
    3.1362   -1.7445    0.8966 H   0  0  0  0  0  0  0  0  0  0  0  0
    2.9852   -0.5425   -1.2642 H   0  0  0  0  0  0  0  0  0  0  0  0
    0.8958    0.5722   -1.9119 H   0  0  0  0  0  0  0  0  0  0  0  0
  2  4  1  0
  3  4  1  0
  3 12  1  0
  3 13  1  0
  3 14  1  0
  4  5  1  0
  4  6  1  0
  5 15  1  0
  5 16  1  0
  5 17  1  0
  6  7  2  0
  6 11  1  0
  7  8  1  0
  7 18  1  0
  8  9  2  0
  8 19  1  0
  9 10  1  0
  9 20  1  0
 10 11  2  0
 10 21  1  0
 11 22  1  0
M  END
>  <reaction>  (4) 
rxn_801

>  <mol_properties>  (4) 
{"0": {"label": "*1", "atom_type": "H0"}, "1": {"label": "*2", "atom_type": "H0"}, "3": {"label": "*3", "atom_type": "Cs"}, "5": {"label": "*4", "atom_type": "Cd"}}

>  <type>  (4) 
ts

$$$$

     RDKit          3D

 22 21  0  0  0  0  0  0  0  0999 V2000
   -1.3893    0.8058   -2.8446 H   0  0  0  0  0 15  0  0  0  0  0  0
   -1.3893    0.8058   -1.9516 H   0  0  0  0  0  0  0  0  0  0  0  0
   -1.3893    2.2637   -0.1755 C   0  0  0  0  0  0  0  0  0  0  0  0
   -1.3893    0.8058   -0.6389 C   0  0  0  0  0  0  0  0  0  0  0  0
   -2.6547    0.0820   -0.1755 C   0  0  0  0  0  0  0  0  0  0  0  0
   -0.1368    0.0793   -0.1957 C   0  0  0  0  0  0  0  0  0  0  0  0
    0.1569   -0.0910    1.1554 C   0  0  0  0  0  0  0  0  0  0  0  0
    1.3029   -0.7557    1.5586 C   0  0  0  0  0  0  0  0  0  0  0  0
    2.1828   -1.2660    0.6146 C   0  0  0  0  0  0  0  0  0  0  0  0
    1.9039   -1.1043   -0.7323 C   0  0  0  0  0  0  0  0  0  0  0  0
    0.7537   -0.4372   -1.1297 C   0  0  0  0  0  0  0  0  0  0  0  0
   -0.4983    2.7874   -0.5247 H   0  0  0  0  0  0  0  0  0  0  0  0
   -2.2681    2.7880   -0.5566 H   0  0  0  0  0  0  0  0  0  0  0  0
   -1.4099    2.3280    0.9148 H   0  0  0  0  0  0  0  0  0  0  0  0
   -2.7208    0.0679    0.9148 H   0  0  0  0  0  0  0  0  0  0  0  0
   -3.5463    0.5844   -0.5566 H   0  0  0  0  0  0  0  0  0  0  0  0
   -2.6669   -0.9515   -0.5247 H   0  0  0  0  0  0  0  0  0  0  0  0
   -0.5195    0.3013    1.9063 H   0  0  0  0  0  0  0  0  0  0  0  0
    1.5113   -0.8766    2.6145 H   0  0  0  0  0  0  0  0  0  0  0  0
    3.0789   -1.7858    0.9288 H   0  0  0  0  0  0  0  0  0  0  0  0
    2.5826   -1.4979   -1.4789 H   0  0  0  0  0  0  0  0  0  0  0  0
    0.5438   -0.3154   -2.1866 H   0  0  0  0  0  0  0  0  0  0  0  0
  2  4  1  0
  3  4  1  0
  3 12  1  0
  3 13  1  0
  3 14  1  0
  4  5  1  0
  4  6  1  0
  5 15  1  0
  5 16  1  0
  5 17  1  0
  6  7  2  0
  6 11  1  0
  7  8  1  0
  7 18  1  0
  8  9  2  0
  8 19  1  0
  9 10  1  0
  9 20  1  0
 10 11  2  0
 10 21  1  0
 11 22  1  0
M  END
>  <reaction>  (5) 
rxn_801

>  <mol_properties>  (5) 
{"0": {"label": "*1", "atom_type": "H0"}, "1": {"label": "*2", "atom_type": "H0"}, "3": {"label": "*3", "atom_type": "Cs"}, "5": {"label": "*4", "atom_type": "Cd"}}

>  <type>  (5) 
unop_1

>  <geom_source>  (5) 
Heuristics

$$$$

     RDKit          3D

 22 21  0  0  0  0  0  0  0  0999 V2000
   -1.2798    0.0022   -0.1355 C   0  0  0  0  0  0  0  0  0  0  0  0
   -1.7277    1.3993   -0.5831 C   0  0  0  0  0  0  0  0  0  0  0  0
   -1.8692   -0.3526    1.2356 C   0  0  0  0  0  0  0  0  0  0  0  0
    0.2340   -0.1091   -0.1249 C   0  0  0  0  0  0  0  0  0  0  0  0
    0.8784   -1.0351   -0.9667 C   0  0  0  0  0  0  0  0  0  0  0  0
    1.0175    0.7033    0.7187 C   0  0  0  0  0  0  0  0  0  0  0  0
    2.2723   -1.1448   -0.9639 C   0  0  0  0  0  0  0  0  0  0  0  0
    3.0377   -0.3338   -0.1231 C   0  0  0  0  0  0  0  0  0  0  0  0
    2.4109    0.5891    0.7171 C   0  0  0  0  0  0  0  0  0  0  0  0
   -1.6595   -0.6592   -0.8021 H   0  0  0  0  0  0  0  0  0  0  0  0
   -2.8346    1.4342   -0.6746 H   0  0  0  0  0  0  0  0  0  0  0  0
   -1.4111    2.1744    0.1467 H   0  0  0  0  0  0  0  0  0  0  0  0
   -1.2897    1.6411   -1.5754 H   0  0  0  0  0  0  0  0  0  0  0  0
   -2.9793   -0.3566    1.1844 H   0  0  0  0  0  0  0  0  0  0  0  0
   -1.5560    0.3812    2.0083 H   0  0  0  0  0  0  0  0  0  0  0  0
   -1.5326   -1.3653    1.5455 H   0  0  0  0  0  0  0  0  0  0  0  0
    0.3027   -1.6729   -1.6259 H   0  0  0  0  0  0  0  0  0  0  0  0
    2.7594   -1.8596   -1.6146 H   0  0  0  0  0  0  0  0  0  0  0  0
    0.5527    1.4250    1.3777 H   0  0  0  0  0  0  0  0  0  0  0  0
    4.1166   -0.4205   -0.1227 H   0  0  0  0  0  0  0  0  0  0  0  0
    3.0053    1.2170    1.3682 H   0  0  0  0  0  0  0  0  0  0  0  0
   -2.4479   -1.6573   -0.9895 H   0  0  0  0  0 15  0  0  0  0  0  0
  1  2  1  0
  1  3  1  0
  1  4  1  0
  1 10  1  0
  2 11  1  0
  2 12  1  0
  2 13  1  0
  3 14  1  0
  3 15  1  0
  3 16  1  0
  4  5  2  0
  4  6  1  0
  5  7  1  0
  5 17  1  0
  6  9  2  0
  6 19  1  0
  7  8  2  0
  7 18  1  0
  8  9  1  0
  8 20  1  0
  9 21  1  0
M  END
>  <reaction>  (6) 
rxn_801

>  <mol_properties>  (6) 
{"0": {"label": "*1", "atom_type": "H0"}, "1": {"label": "*2", "atom_type": "H0"}, "3": {"label": "*3", "atom_type": "Cs"}, "5": {"label": "*4", "atom_type": "Cd"}}

>  <type>  (6) 
unop_2

>  <geom_source>  (6) 
AutoTST

$$$$

     RDKit          3D

 22 21  0  0  0  0  0  0  0  0999 V2000
    1.9652   -0.5632   -0.9729 C   0  0  0  0  0  0  0  0  0  0  0  0
    1.7912    1.0982    0.9422 C   0  0  0  0  0  0  0  0  0  0  0  0
    1.2081   -0.1576    0.2926 C   0  0  0  0  0  0  0  0  0  0  0  0
   -0.2750   -0.0431    0.0586 C   0  0  0  0  0  0  0  0  0  0  0  0
   -1.1393   -0.9147    0.7361 C   0  0  0  0  0  0  0  0  0  0  0  0
   -0.8103    0.9151   -0.8214 C   0  0  0  0  0  0  0  0  0  0  0  0
   -2.5213   -0.8315    0.5383 C   0  0  0  0  0  0  0  0  0  0  0  0
   -3.0476    0.1226   -0.3371 C   0  0  0  0  0  0  0  0  0  0  0  0
   -2.1927    0.9951   -1.0164 C   0  0  0  0  0  0  0  0  0  0  0  0
    1.5290   -1.4947   -1.3916 H   0  0  0  0  0  0  0  0  0  0  0  0
    3.0300   -0.7583   -0.7266 H   0  0  0  0  0  0  0  0  0  0  0  0
    1.9141    0.2393   -1.7392 H   0  0  0  0  0  0  0  0  0  0  0  0
    1.2326    1.3365    1.8720 H   0  0  0  0  0  0  0  0  0  0  0  0
    2.8540    0.9225    1.2109 H   0  0  0  0  0  0  0  0  0  0  0  0
    1.7333    1.9652    0.2503 H   0  0  0  0  0  0  0  0  0  0  0  0
   -0.7426   -1.6579    1.4169 H   0  0  0  0  0  0  0  0  0  0  0  0
   -3.1842   -1.5067    1.0638 H   0  0  0  0  0  0  0  0  0  0  0  0
   -4.1174    0.1857   -0.4891 H   0  0  0  0  0  0  0  0  0  0  0  0
   -2.6013    1.7335   -1.6941 H   0  0  0  0  0  0  0  0  0  0  0  0
   -0.1606    1.5975   -1.3543 H   0  0  0  0  0  0  0  0  0  0  0  0
    1.8719   -2.0695    1.1555 H   0  0  0  0  0 15  0  0  0  0  0  0
    1.6631   -1.1139    1.0054 H   0  0  0  0  0  0  0  0  0  0  0  0
  1  3  1  0
  1 10  1  0
  1 11  1  0
  1 12  1  0
  2  3  1  0
  2 13  1  0
  2 14  1  0
  2 15  1  0
  3  4  1  0
  3 22  1  0
  4  5  2  0
  4  6  1  0
  5  7  1  0
  5 16  1  0
  6  9  2  0
  6 20  1  0
  7  8  2  0
  7 17  1  0
  8  9  1  0
  8 18  1  0
  9 19  1  0
M  END
>  <reaction>  (7) 
rxn_801

>  <mol_properties>  (7) 
{"0": {"label": "*1", "atom_type": "H0"}, "1": {"label": "*2", "atom_type": "H0"}, "3": {"label": "*3", "atom_type": "Cs"}, "5": {"label": "*4", "atom_type": "Cd"}}

>  <type>  (7) 
unop_3

>  <geom_source>  (7) 
gaussian_log

$$$$
