
     RDKit          3D

 12 11  0  0  0  0  0  0  0  0999 V2000
    1.2394   -0.3763   -0.3020 C   0  0  0  0  0  0  0  0  0  0  0  0
    0.1007    0.3024    0.4464 C   0  0  0  0  0  0  0  0  0  0  0  0
   -0.1187    2.0399   -0.0725 S   0  0  0  0  0  0  0  0  0  0  0  0
   -1.1974   -0.4877    0.3552 C   0  0  0  0  0  0  0  0  0  0  0  0
    2.1681    0.1850   -0.2048 H   0  0  0  0  0  0  0  0  0  0  0  0
    1.0030   -0.4604   -1.3656 H   0  0  0  0  0  0  0  0  0  0  0  0
    1.3993   -1.3856    0.0859 H   0  0  0  0  0  0  0  0  0  0  0  0
    0.3797    0.4050    1.4982 H   0  0  0  0  0  0  0  0  0  0  0  0
   -0.4500    1.7774   -1.3452 H   0  0  0  0  0  0  0  0  0  0  0  0
   -1.0545   -1.4977    0.7478 H   0  0  0  0  0  0  0  0  0  0  0  0
   -1.5206   -0.5758   -0.6849 H   0  0  0  0  0  0  0  0  0  0  0  0
   -1.9957   -0.0054    0.9183 H   0  0  0  0  0  0  0  0  0  0  0  0
  1  2  1  0
  1  5  1  0
  1  6  1  0
  1  7  1  0
  2  4  1  0
  2  3  1  0
  2  8  1  0
  3  9  1  0
  4 10  1  0
  4 11  1  0
  4 12  1  0
M  END
>  <reaction>  (1) 
rxn_1927

>  <mol_properties>  (1) 
{"1": {"label": "donator", "atom_type": "Cs"}, "7": {"label": "d_hydrogen", "atom_type": "H0"}}

>  <type>  (1) 
r1h

$$$$

     RDKit          3D

  9  8  0  0  0  0  0  0  0  0999 V2000
    1.8963   -0.1405   -0.2150 C   0  0  0  0  0  0  0  0  0  0  0  0
    0.6340    0.1486   -0.2254 C   0  0  0  0  0  3  0  0  0  0  0  0
   -0.6770    0.4501   -0.2373 C   0  0  0  0  0  0  0  0  0  0  0  0
   -1.6600   -0.2303    0.4662 C   0  0  0  0  0  0  0  0  0  0  0  0
    2.3274   -0.8354   -0.9313 H   0  0  0  0  0  0  0  0  0  0  0  0
    2.5751    0.2988    0.5117 H   0  0  0  0  0  0  0  0  0  0  0  0
   -0.9723    1.2966   -0.8520 H   0  0  0  0  0  0  0  0  0  0  0  0
   -2.6934    0.0777    0.4015 H   0  0  0  0  0  0  0  0  0  0  0  0
   -1.4140   -1.0782    1.0904 H   0  0  0  0  0  0  0  0  0  0  0  0
  1  2  2  3
  1  5  1  0
  1  6  1  0
  2  3  1  0
  3  4  2  3
  3  7  1  0
  4  8  1  0
  4  9  1  0
M  RAD  1   2   2
M  END
>  <reaction>  (2) 
rxn_1927

>  <mol_properties>  (2) 
{"1": {"label": "acceptor", "atom_type": "Cd"}}

>  <type>  (2) 
r2

$$$$

     RDKit          3D

 10  9  0  0  0  0  0  0  0  0999 V2000
    1.8334    0.0847   -0.1062 C   0  0  0  0  0  0  0  0  0  0  0  0
    0.5993   -0.4071   -0.0750 C   0  0  0  0  0  0  0  0  0  0  0  0
   -0.5993    0.4071    0.0750 C   0  0  0  0  0  0  0  0  0  0  0  0
   -1.8334   -0.0847    0.1062 C   0  0  0  0  0  0  0  0  0  0  0  0
    2.0179    1.1498   -0.0189 H   0  0  0  0  0  0  0  0  0  0  0  0
    2.6972   -0.5572   -0.2194 H   0  0  0  0  0  0  0  0  0  0  0  0
    0.4465   -1.4793   -0.1649 H   0  0  0  0  0  0  0  0  0  0  0  0
   -0.4465    1.4793    0.1649 H   0  0  0  0  0  0  0  0  0  0  0  0
   -2.0179   -1.1498    0.0189 H   0  0  0  0  0  0  0  0  0  0  0  0
   -2.6972    0.5572    0.2194 H   0  0  0  0  0  0  0  0  0  0  0  0
  1  2  2  3
  1  5  1  0
  1  6  1  0
  2  3  1  0
  2  7  1  0
  3  4  2  3
  3  8  1  0
  4  9  1  0
  4 10  1  0
M  END
>  <reaction>  (3) 
rxn_1927

>  <mol_properties>  (3) 
{"0": {"label": "a_hydrogen", "atom_type": "H0"}, "2": {"label": "acceptor", "atom_type": "Cd"}}

>  <type>  (3) 
r2h

$$$$

     RDKit          3D

 21 19  0  0  0  0  0  0  0  0999 V2000
    0.3700    0.8809   -1.9854 C   0  0  0  0  0  0  0  0  0  0  0  0
    0.8562    0.6176   -0.5778 C   0  0  0  0  0  0  0  0  0  0  0  0
    2.3135   -0.4360   -0.4928 S   0  0  0  0  0  0  0  0  0  0  0  0
    1.0842    1.8651    0.2488 C   0  0  0  0  0  0  0  0  0  0  0  0
    0.1203   -0.0484   -2.4999 H   0  0  0  0  0  0  0  0  0  0  0  0
    1.1327    1.4020   -2.5700 H   0  0  0  0  0  0  0  0  0  0  0  0
   -0.5283    1.5022   -1.9648 H   0  0  0  0  0  0  0  0  0  0  0  0
   -0.0614   -0.0055    0.0016 H   0  0  0  0  0  0  0  0  0  0  0  0
    1.8774   -1.3845   -1.3326 H   0  0  0  0  0  0  0  0  0  0  0  0
    0.1633    2.4496    0.2969 H   0  0  0  0  0  0  0  0  0  0  0  0
    1.8617    2.4954   -0.1920 H   0  0  0  0  0  0  0  0  0  0  0  0
    1.3783    1.6174    1.2696 H   0  0  0  0  0  0  0  0  0  0  0  0
   -0.6168   -1.8884    1.2284 C   0  0  0  0  0  0  0  0  0  0  0  0
   -1.0877   -0.7792    0.6935 C   0  0  0  0  0  3  0  0  0  0  0  0
   -2.4351   -0.2552    0.6904 C   0  0  0  0  0  0  0  0  0  0  0  0
   -2.7968    0.9287    0.2064 C   0  0  0  0  0  0  0  0  0  0  0  0
    0.4336   -2.1498    1.1571 H   0  0  0  0  0  0  0  0  0  0  0  0
   -1.2637   -2.5773    1.7705 H   0  0  0  0  0  0  0  0  0  0  0  0
   -3.1949   -0.9018    1.1308 H   0  0  0  0  0  0  0  0  0  0  0  0
   -3.8256    1.2615    0.2427 H   0  0  0  0  0  0  0  0  0  0  0  0
   -2.0735    1.6022   -0.2367 H   0  0  0  0  0  0  0  0  0  0  0  0
  1  2  1  0
  1  5  1  0
  1  6  1  0
  1  7  1  0
  2  4  1  0
  2  3  1  0
  2  8  1  0
  3  9  1  0
  4 10  1  0
  4 11  1  0
  4 12  1  0
 13 14  2  3
 13 17  1  0
 13 18  1  0
 14 15  1  0
 15 16  2  3
 15 19  1  0
 16 20  1  0
 16 21  1  0
M  RAD  1  14   2
M  END
>  <reaction>  (4) 
rxn_1927

>  <mol_properties>  (4) 
{"1": {"label": "*1", "atom_type": "Cs"}, "2": {"label": "*0", "atom_type": "S2s"}, "7": {"label": "*2", "atom_type": "H0"}, "13": {"label": "*3", "atom_type": "Cd"}, "14": {"label": "*4", "atom_type": "Cd"}}

>  <type>  (4) 
ts

$$$$

     RDKit          3D

 21 19  0  0  0  0  0  0  0  0999 V2000
    0.4860    0.8512   -2.1085 C   0  0  0  0  0  0  0  0  0  0  0  0
    0.4860    0.8512   -0.5862 C   0  0  0  0  0  3  0  0  0  0  0  0
    1.8411   -0.1651    0.0974 S   0  0  0  0  0  0  0  0  0  0  0  0
    0.4860    2.2612   -0.0122 C   0  0  0  0  0  0  0  0  0  0  0  0
    0.4575   -0.1631   -2.5052 H   0  0  0  0  0  0  0  0  0  0  0  0
    1.3844    1.3409   -2.4921 H   0  0  0  0  0  0  0  0  0  0  0  0
   -0.3809    1.3986   -2.4874 H   0  0  0  0  0  0  0  0  0  0  0  0
   -0.5819    0.2193   -0.1612 H   0  0  0  0  0  0  0  0  0  0  0  0
    2.8470    0.5707   -0.3975 H   0  0  0  0  0  0  0  0  0  0  0  0
   -0.3809    2.8185   -0.3764 H   0  0  0  0  0  0  0  0  0  0  0  0
    1.3844    2.8011   -0.3211 H   0  0  0  0  0  0  0  0  0  0  0  0
    0.4575    2.2462    1.0768 H   0  0  0  0  0  0  0  0  0  0  0  0
   -2.5731    0.5067    0.5135 C   0  0  0  0  0  0  0  0  0  0  0  0
   -1.6436   -0.4089    0.2614 C   0  0  0  0  0  0  0  0  0  0  0  0
   -1.4130   -1.5858    1.0885 C   0  0  0  0  0  0  0  0  0  0  0  0
   -0.4835   -2.5015    0.8364 C   0  0  0  0  0  0  0  0  0  0  0  0
   -2.7105    1.3671   -0.1283 H   0  0  0  0  0  0  0  0  0  0  0  0
   -3.2279    0.4229    1.3739 H   0  0  0  0  0  0  0  0  0  0  0  0
   -2.0542   -1.6975    1.9587 H   0  0  0  0  0  0  0  0  0  0  0  0
   -0.3460   -3.3618    1.4781 H   0  0  0  0  0  0  0  0  0  0  0  0
    0.1713   -2.4176   -0.0240 H   0  0  0  0  0  0  0  0  0  0  0  0
  1  2  1  0
  1  5  1  0
  1  6  1  0
  1  7  1  0
  2  4  1  0
  2  3  1  0
  3  9  1  0
  4 10  1  0
  4 11  1  0
  4 12  1  0
  8 14  1  0
 13 14  2  3
 13 17  1  0
 13 18  1  0
 14 15  1  0
 15 16  2  3
 15 19  1  0
 16 20  1  0
 16 21  1  0
M  RAD  1   2   2
M  END
>  <reaction>  (5) 
rxn_1927

>  <mol_properties>  (5) 
{"1": {"label": "*1", "atom_type": "Cs"}, "2": {"label": "*0", "atom_type": "S2s"}, "7": {"label": "*2", "atom_type": "H0"}, "13": {"label": "*3", "atom_type": "Cd"}, "14": {"label": "*4", "atom_type": "Cd"}}

>  <type>  (5) 
unop_1

>  <geom_source>  (5) 
Heuristics

$$$$

     RDKit          3D

 21 19  0  0  0  0  0  0  0  0999 V2000
    0.6413    0.8314   -1.7522 C   0  0  0  0  0  0  0  0  0  0  0  0
    0.6413    0.8314   -0.2298 C   0  0  0  0  0  3  0  0  0  0  0  0
    1.9965   -0.1849    0.4537 S   0  0  0  0  0  0  0  0  0  0  0  0
    0.6413    2.2414    0.3441 C   0  0  0  0  0  0  0  0  0  0  0  0
    0.6128   -0.1828   -2.1489 H   0  0  0  0  0  0  0  0  0  0  0  0
    1.5397    1.3211   -2.1358 H   0  0  0  0  0  0  0  0  0  0  0  0
   -0.2256    1.3788   -2.1310 H   0  0  0  0  0  0  0  0  0  0  0  0
   -0.4266    0.1995    0.1952 H   0  0  0  0  0  0  0  0  0  0  0  0
    3.0023    0.5509   -0.0412 H   0  0  0  0  0  0  0  0  0  0  0  0
   -0.2256    2.7987   -0.0201 H   0  0  0  0  0  0  0  0  0  0  0  0
    1.5397    2.7813    0.0352 H   0  0  0  0  0  0  0  0  0  0  0  0
    0.6128    2.2264    1.4331 H   0  0  0  0  0  0  0  0  0  0  0  0
   -1.8028   -0.2968    1.9021 C   0  0  0  0  0  0  0  0  0  0  0  0
   -1.4883   -0.4287    0.6177 C   0  0  0  0  0  0  0  0  0  0  0  0
   -1.9982   -1.4887   -0.2419 C   0  0  0  0  0  0  0  0  0  0  0  0
   -1.6836   -1.6206   -1.5262 C   0  0  0  0  0  0  0  0  0  0  0  0
   -1.4006    0.5068    2.5049 H   0  0  0  0  0  0  0  0  0  0  0  0
   -2.4757   -0.9922    2.3917 H   0  0  0  0  0  0  0  0  0  0  0  0
   -2.6753   -2.2016    0.2207 H   0  0  0  0  0  0  0  0  0  0  0  0
   -2.0858   -2.4241   -2.1291 H   0  0  0  0  0  0  0  0  0  0  0  0
   -1.0108   -0.9251   -2.0159 H   0  0  0  0  0  0  0  0  0  0  0  0
  1  2  1  0
  1  5  1  0
  1  6  1  0
  1  7  1  0
  2  4  1  0
  2  3  1  0
  3  9  1  0
  4 10  1  0
  4 11  1  0
  4 12  1  0
  8 14  1  0
 13 14  2  3
 13 17  1  0
 13 18  1  0
 14 15  1  0
 15 16  2  3
 15 19  1  0
 16 20  1  0
 16 21  1  0
M  RAD  1   2   2
M  END
>  <reaction>  (6) 
rxn_1927

>  <mol_properties>  (6) 
{"1": {"label": "*1", "atom_type": "Cs"}, "2": {"label": "*0", "atom_type": "S2s"}, "7": {"label": "*2", "atom_type": "H0"}, "13": {"label": "*3", "atom_type": "Cd"}, "14": {"label": "*4", "atom_type": "Cd"}}

>  <type>  (6) 
unop_2

>  <geom_source>  (6) 
Heuristics

$$$$

     RDKit          3D

 21 19  0  0  0  0  0  0  0  0999 V2000
    0.5111    0.7481   -2.2011 C   0  0  0  0  0  0  0  0  0  0  0  0
    0.5111    0.7481   -0.6788 C   0  0  0  0  0  3  0  0  0  0  0  0
    1.8662   -0.2682    0.0048 S   0  0  0  0  0  0  0  0  0  0  0  0
    0.5111    2.1581   -0.1048 C   0  0  0  0  0  0  0  0  0  0  0  0
    0.4825   -0.2662   -2.5978 H   0  0  0  0  0  0  0  0  0  0  0  0
    1.4095    1.2378   -2.5847 H   0  0  0  0  0  0  0  0  0  0  0  0
   -0.3559    1.2955   -2.5800 H   0  0  0  0  0  0  0  0  0  0  0  0
   -0.5568    0.1162   -0.2538 H   0  0  0  0  0  0  0  0  0  0  0  0
    2.8721    0.4676   -0.4901 H   0  0  0  0  0  0  0  0  0  0  0  0
   -0.3559    2.7154   -0.4690 H   0  0  0  0  0  0  0  0  0  0  0  0
    1.4095    2.6980   -0.4137 H   0  0  0  0  0  0  0  0  0  0  0  0
    0.4825    2.1431    0.9842 H   0  0  0  0  0  0  0  0  0  0  0  0
   -2.7405    0.0470   -0.2723 C   0  0  0  0  0  0  0  0  0  0  0  0
   -1.6185   -0.5120    0.1688 C   0  0  0  0  0  0  0  0  0  0  0  0
   -1.4980   -1.1990    1.4478 C   0  0  0  0  0  0  0  0  0  0  0  0
   -0.3760   -1.7580    1.8889 C   0  0  0  0  0  0  0  0  0  0  0  0
   -2.7860    0.5481   -1.2303 H   0  0  0  0  0  0  0  0  0  0  0  0
   -3.6521    0.0200    0.3146 H   0  0  0  0  0  0  0  0  0  0  0  0
   -2.3955   -1.2425    2.0590 H   0  0  0  0  0  0  0  0  0  0  0  0
   -0.3305   -2.2591    2.8469 H   0  0  0  0  0  0  0  0  0  0  0  0
    0.5355   -1.7310    1.3020 H   0  0  0  0  0  0  0  0  0  0  0  0
  1  2  1  0
  1  5  1  0
  1  6  1  0
  1  7  1  0
  2  4  1  0
  2  3  1  0
  3  9  1  0
  4 10  1  0
  4 11  1  0
  4 12  1  0
  8 14  1  0
 13 14  2  3
 13 17  1  0
 13 18  1  0
 14 15  1  0
 15 16  2  3
 15 19  1  0
 16 20  1  0
 16 21  1  0
M  RAD  1   2   2
M  END
>  <reaction>  (7) 
rxn_1927

>  <mol_properties>  (7) 
{"1": {"label": "*1", "atom_type": "Cs"}, "2": {"label": "*0", "atom_type": "S2s"}, "7": {"label": "*2", "atom_type": "H0"}, "13": {"label": "*3", "atom_type": "Cd"}, "14": {"label": "*4", "atom_type": "Cd"}}

>  <type>  (7) 
unop_3

>  <geom_source>  (7) 
Heuristics

$$$$

     RDKit          3D

 21 19  0  0  0  0  0  0  0  0999 V2000
    0.8046    0.4890   -1.8487 C   0  0  0  0  0  0  0  0  0  0  0  0
    0.8046    0.4890   -0.3263 C   0  0  0  0  0  3  0  0  0  0  0  0
    2.1598   -0.5273    0.3572 S   0  0  0  0  0  0  0  0  0  0  0  0
    0.8046    1.8990    0.2477 C   0  0  0  0  0  0  0  0  0  0  0  0
    0.7761   -0.5252   -2.2453 H   0  0  0  0  0  0  0  0  0  0  0  0
    1.7031    0.9788   -2.2322 H   0  0  0  0  0  0  0  0  0  0  0  0
   -0.0623    1.0365   -2.2275 H   0  0  0  0  0  0  0  0  0  0  0  0
   -0.2632   -0.1428    0.0987 H   0  0  0  0  0  0  0  0  0  0  0  0
    3.1657    0.2086   -0.1377 H   0  0  0  0  0  0  0  0  0  0  0  0
   -0.0623    2.4563   -0.1165 H   0  0  0  0  0  0  0  0  0  0  0  0
    1.7031    2.4389   -0.0613 H   0  0  0  0  0  0  0  0  0  0  0  0
    0.7761    1.8840    1.3366 H   0  0  0  0  0  0  0  0  0  0  0  0
   -1.1176   -1.3985    1.6742 C   0  0  0  0  0  0  0  0  0  0  0  0
   -1.3249   -0.7711    0.5212 C   0  0  0  0  0  0  0  0  0  0  0  0
   -2.6095   -0.2178    0.1136 C   0  0  0  0  0  0  0  0  0  0  0  0
   -2.8168    0.4096   -1.0394 C   0  0  0  0  0  0  0  0  0  0  0  0
   -0.1457   -1.7947    1.9375 H   0  0  0  0  0  0  0  0  0  0  0  0
   -1.9180   -1.5353    2.3931 H   0  0  0  0  0  0  0  0  0  0  0  0
   -3.4316   -0.3394    0.8137 H   0  0  0  0  0  0  0  0  0  0  0  0
   -3.7887    0.8059   -1.3027 H   0  0  0  0  0  0  0  0  0  0  0  0
   -2.0165    0.5464   -1.7583 H   0  0  0  0  0  0  0  0  0  0  0  0
  1  2  1  0
  1  5  1  0
  1  6  1  0
  1  7  1  0
  2  4  1  0
  2  3  1  0
  3  9  1  0
  4 10  1  0
  4 11  1  0
  4 12  1  0
  8 14  1  0
 13 14  2  3
 13 17  1  0
 13 18  1  0
 14 15  1  0
 15 16  2  3
 15 19  1  0
 16 20  1  0
 16 21  1  0
M  RAD  1   2   2
M  END
>  <reaction>  (8) 
rxn_1927

>  <mol_properties>  (8) 
{"1": {"label": "*1", "atom_type": "Cs"}, "2": {"label": "*0", "atom_type": "S2s"}, "7": {"label": "*2", "atom_type": "H0"}, "13": {"label": "*3", "atom_type": "Cd"}, "14": {"label": "*4", "atom_type": "Cd"}}

>  <type>  (8) 
unop_4

>  <geom_source>  (8) 
Heuristics

$$$$

     RDKit          3D

 21 19  0  0  0  0  0  0  0  0999 V2000
    0.5703    0.6282   -2.2337 C   0  0  0  0  0  0  0  0  0  0  0  0
    0.5703    0.6282   -0.7114 C   0  0  0  0  0  3  0  0  0  0  0  0
    1.9255   -0.3881   -0.0278 S   0  0  0  0  0  0  0  0  0  0  0  0
    0.5703    2.0382   -0.1374 C   0  0  0  0  0  0  0  0  0  0  0  0
    0.5418   -0.3860   -2.6304 H   0  0  0  0  0  0  0  0  0  0  0  0
    1.4687    1.1179   -2.6173 H   0  0  0  0  0  0  0  0  0  0  0  0
   -0.2966    1.1756   -2.6126 H   0  0  0  0  0  0  0  0  0  0  0  0
   -0.4976   -0.0037   -0.2864 H   0  0  0  0  0  0  0  0  0  0  0  0
    2.9313    0.3477   -0.5227 H   0  0  0  0  0  0  0  0  0  0  0  0
   -0.2966    2.5955   -0.5016 H   0  0  0  0  0  0  0  0  0  0  0  0
    1.4687    2.5781   -0.4464 H   0  0  0  0  0  0  0  0  0  0  0  0
    0.5418    2.0232    0.9516 H   0  0  0  0  0  0  0  0  0  0  0  0
   -2.4158   -1.1387   -0.7444 C   0  0  0  0  0  0  0  0  0  0  0  0
   -1.5593   -0.6319    0.1362 C   0  0  0  0  0  0  0  0  0  0  0  0
   -1.7223   -0.7284    1.5806 C   0  0  0  0  0  0  0  0  0  0  0  0
   -0.8658   -0.2215    2.4612 C   0  0  0  0  0  0  0  0  0  0  0  0
   -2.2559   -1.0441   -1.8104 H   0  0  0  0  0  0  0  0  0  0  0  0
   -3.3074   -1.6663   -0.4238 H   0  0  0  0  0  0  0  0  0  0  0  0
   -2.6071   -1.2519    1.9328 H   0  0  0  0  0  0  0  0  0  0  0  0
   -1.0257   -0.3162    3.5272 H   0  0  0  0  0  0  0  0  0  0  0  0
    0.0259    0.3060    2.1406 H   0  0  0  0  0  0  0  0  0  0  0  0
  1  2  1  0
  1  5  1  0
  1  6  1  0
  1  7  1  0
  2  4  1  0
  2  3  1  0
  3  9  1  0
  4 10  1  0
  4 11  1  0
  4 12  1  0
  8 14  1  0
 13 14  2  3
 13 17  1  0
 13 18  1  0
 14 15  1  0
 15 16  2  3
 15 19  1  0
 16 20  1  0
 16 21  1  0
M  RAD  1   2   2
M  END
>  <reaction>  (9) 
rxn_1927

>  <mol_properties>  (9) 
{"1": {"label": "*1", "atom_type": "Cs"}, "2": {"label": "*0", "atom_type": "S2s"}, "7": {"label": "*2", "atom_type": "H0"}, "13": {"label": "*3", "atom_type": "Cd"}, "14": {"label": "*4", "atom_type": "Cd"}}

>  <type>  (9) 
unop_5

>  <geom_source>  (9) 
Heuristics

$$$$

     RDKit          3D

 21 19  0  0  0  0  0  0  0  0999 V2000
    0.7834    0.4358   -1.9793 C   0  0  0  0  0  0  0  0  0  0  0  0
    0.7834    0.4358   -0.4570 C   0  0  0  0  0  3  0  0  0  0  0  0
    2.1385   -0.5805    0.2266 S   0  0  0  0  0  0  0  0  0  0  0  0
    0.7834    1.8458    0.1170 C   0  0  0  0  0  0  0  0  0  0  0  0
    0.7548   -0.5784   -2.3760 H   0  0  0  0  0  0  0  0  0  0  0  0
    1.6818    0.9256   -2.3629 H   0  0  0  0  0  0  0  0  0  0  0  0
   -0.0836    0.9833   -2.3582 H   0  0  0  0  0  0  0  0  0  0  0  0
   -0.2845   -0.1961   -0.0320 H   0  0  0  0  0  0  0  0  0  0  0  0
    3.1444    0.1554   -0.2684 H   0  0  0  0  0  0  0  0  0  0  0  0
   -0.0836    2.4031   -0.2472 H   0  0  0  0  0  0  0  0  0  0  0  0
    1.6818    2.3857   -0.1920 H   0  0  0  0  0  0  0  0  0  0  0  0
    0.7548    1.8308    1.2059 H   0  0  0  0  0  0  0  0  0  0  0  0
   -0.9592   -1.8013    1.2039 C   0  0  0  0  0  0  0  0  0  0  0  0
   -1.3462   -0.8243    0.3905 C   0  0  0  0  0  0  0  0  0  0  0  0
   -2.5378   -0.0129    0.6003 C   0  0  0  0  0  0  0  0  0  0  0  0
   -2.9249    0.9642   -0.2131 C   0  0  0  0  0  0  0  0  0  0  0  0
   -0.0657   -2.3801    1.0101 H   0  0  0  0  0  0  0  0  0  0  0  0
   -1.5274   -2.0529    2.0927 H   0  0  0  0  0  0  0  0  0  0  0  0
   -3.1283   -0.2415    1.4834 H   0  0  0  0  0  0  0  0  0  0  0  0
   -3.8184    1.5430   -0.0193 H   0  0  0  0  0  0  0  0  0  0  0  0
   -2.3567    1.2158   -1.1018 H   0  0  0  0  0  0  0  0  0  0  0  0
  1  2  1  0
  1  5  1  0
  1  6  1  0
  1  7  1  0
  2  4  1  0
  2  3  1  0
  3  9  1  0
  4 10  1  0
  4 11  1  0
  4 12  1  0
  8 14  1  0
 13 14  2  3
 13 17  1  0
 13 18  1  0
 14 15  1  0
 15 16  2  3
 15 19  1  0
 16 20  1  0
 16 21  1  0
M  RAD  1   2   2
M  END
>  <reaction>  (10) 
rxn_1927

>  <mol_properties>  (10) 
{"1": {"label": "*1", "atom_type": "Cs"}, "2": {"label": "*0", "atom_type": "S2s"}, "7": {"label": "*2", "atom_type": "H0"}, "13": {"label": "*3", "atom_type": "Cd"}, "14": {"label": "*4", "atom_type": "Cd"}}

>  <type>  (10) 
unop_6

>  <geom_source>  (10) 
Heuristics

$$$$

     RDKit          3D

 21 19  0  0  0  0  0  0  0  0999 V2000
    0.7252    0.4470   -2.1085 C   0  0  0  0  0  0  0  0  0  0  0  0
    0.7252    0.4470   -0.5862 C   0  0  0  0  0  3  0  0  0  0  0  0
    2.0803   -0.5693    0.0974 S   0  0  0  0  0  0  0  0  0  0  0  0
    0.7252    1.8570   -0.0122 C   0  0  0  0  0  0  0  0  0  0  0  0
    0.6967   -0.5673   -2.5052 H   0  0  0  0  0  0  0  0  0  0  0  0
    1.6236    0.9367   -2.4921 H   0  0  0  0  0  0  0  0  0  0  0  0
   -0.1417    0.9944   -2.4874 H   0  0  0  0  0  0  0  0  0  0  0  0
   -0.3427   -0.1849   -0.1612 H   0  0  0  0  0  0  0  0  0  0  0  0
    3.0862    0.1665   -0.3975 H   0  0  0  0  0  0  0  0  0  0  0  0
   -0.1417    2.4143   -0.3764 H   0  0  0  0  0  0  0  0  0  0  0  0
    1.6236    2.3969   -0.3211 H   0  0  0  0  0  0  0  0  0  0  0  0
    0.6967    1.8419    1.0768 H   0  0  0  0  0  0  0  0  0  0  0  0
   -1.0492   -2.0686    0.5135 C   0  0  0  0  0  0  0  0  0  0  0  0
   -1.4044   -0.8131    0.2614 C   0  0  0  0  0  0  0  0  0  0  0  0
   -2.3250   -0.0445    1.0885 C   0  0  0  0  0  0  0  0  0  0  0  0
   -2.6802    1.2110    0.8364 C   0  0  0  0  0  0  0  0  0  0  0  0
   -0.3613   -2.6032   -0.1283 H   0  0  0  0  0  0  0  0  0  0  0  0
   -1.4379   -2.6022    1.3739 H   0  0  0  0  0  0  0  0  0  0  0  0
   -2.7315   -0.5528    1.9587 H   0  0  0  0  0  0  0  0  0  0  0  0
   -3.3681    1.7456    1.4781 H   0  0  0  0  0  0  0  0  0  0  0  0
   -2.2915    1.7445   -0.0240 H   0  0  0  0  0  0  0  0  0  0  0  0
  1  2  1  0
  1  5  1  0
  1  6  1  0
  1  7  1  0
  2  4  1  0
  2  3  1  0
  3  9  1  0
  4 10  1  0
  4 11  1  0
  4 12  1  0
  8 14  1  0
 13 14  2  3
 13 17  1  0
 13 18  1  0
 14 15  1  0
 15 16  2  3
 15 19  1  0
 16 20  1  0
 16 21  1  0
M  RAD  1   2   2
M  END
>  <reaction>  (11) 
rxn_1927

>  <mol_properties>  (11) 
{"1": {"label": "*1", "atom_type": "Cs"}, "2": {"label": "*0", "atom_type": "S2s"}, "7": {"label": "*2", "atom_type": "H0"}, "13": {"label": "*3", "atom_type": "Cd"}, "14": {"label": "*4", "atom_type": "Cd"}}

>  <type>  (11) 
unop_7

>  <geom_source>  (11) 
Heuristics

$$$$

     RDKit          3D

 21 19  0  0  0  0  0  0  0  0999 V2000
    0.5042    0.9076   -1.9793 C   0  0  0  0  0  0  0  0  0  0  0  0
    0.5042    0.9076   -0.4570 C   0  0  0  0  0  3  0  0  0  0  0  0
    1.8594   -0.1087    0.2266 S   0  0  0  0  0  0  0  0  0  0  0  0
    0.5042    2.3175    0.1170 C   0  0  0  0  0  0  0  0  0  0  0  0
    0.4757   -0.1067   -2.3760 H   0  0  0  0  0  0  0  0  0  0  0  0
    1.4027    1.3973   -2.3629 H   0  0  0  0  0  0  0  0  0  0  0  0
   -0.3627    1.4550   -2.3582 H   0  0  0  0  0  0  0  0  0  0  0  0
   -0.5636    0.2757   -0.0320 H   0  0  0  0  0  0  0  0  0  0  0  0
    2.8653    0.6271   -0.2684 H   0  0  0  0  0  0  0  0  0  0  0  0
   -0.3627    2.8748   -0.2472 H   0  0  0  0  0  0  0  0  0  0  0  0
    1.4027    2.8575   -0.1920 H   0  0  0  0  0  0  0  0  0  0  0  0
    0.4757    2.3025    1.2059 H   0  0  0  0  0  0  0  0  0  0  0  0
   -2.2954    0.4570    1.2039 C   0  0  0  0  0  0  0  0  0  0  0  0
   -1.6253   -0.3525    0.3905 C   0  0  0  0  0  0  0  0  0  0  0  0
   -1.4877   -1.7876    0.6003 C   0  0  0  0  0  0  0  0  0  0  0  0
   -0.8176   -2.5972   -0.2131 C   0  0  0  0  0  0  0  0  0  0  0  0
   -2.3727    1.5188    1.0101 H   0  0  0  0  0  0  0  0  0  0  0  0
   -2.7895    0.0801    2.0927 H   0  0  0  0  0  0  0  0  0  0  0  0
   -1.9723   -2.1952    1.4834 H   0  0  0  0  0  0  0  0  0  0  0  0
   -0.7403   -3.6590   -0.0193 H   0  0  0  0  0  0  0  0  0  0  0  0
   -0.3236   -2.2202   -1.1018 H   0  0  0  0  0  0  0  0  0  0  0  0
  1  2  1  0
  1  5  1  0
  1  6  1  0
  1  7  1  0
  2  4  1  0
  2  3  1  0
  3  9  1  0
  4 10  1  0
  4 11  1  0
  4 12  1  0
  8 14  1  0
 13 14  2  3
 13 17  1  0
 13 18  1  0
 14 15  1  0
 15 16  2  3
 15 19  1  0
 16 20  1  0
 16 21  1  0
M  RAD  1   2   2
M  END
>  <reaction>  (12) 
rxn_1927

>  <mol_properties>  (12) 
{"1": {"label": "*1", "atom_type": "Cs"}, "2": {"label": "*0", "atom_type": "S2s"}, "7": {"label": "*2", "atom_type": "H0"}, "13": {"label": "*3", "atom_type": "Cd"}, "14": {"label": "*4", "atom_type": "Cd"}}

>  <type>  (12) 
unop_8

>  <geom_source>  (12) 
Heuristics

$$$$

     RDKit          3D

 21 19  0  0  0  0  0  0  0  0999 V2000
    0.7826    0.5926   -1.7522 C   0  0  0  0  0  0  0  0  0  0  0  0
    0.7826    0.5926   -0.2298 C   0  0  0  0  0  3  0  0  0  0  0  0
    2.1377   -0.4237    0.4537 S   0  0  0  0  0  0  0  0  0  0  0  0
    0.7826    2.0026    0.3441 C   0  0  0  0  0  0  0  0  0  0  0  0
    0.7541   -0.4216   -2.1489 H   0  0  0  0  0  0  0  0  0  0  0  0
    1.6810    1.0824   -2.1358 H   0  0  0  0  0  0  0  0  0  0  0  0
   -0.0843    1.1401   -2.1310 H   0  0  0  0  0  0  0  0  0  0  0  0
   -0.2853   -0.0393    0.1952 H   0  0  0  0  0  0  0  0  0  0  0  0
    3.1436    0.3122   -0.0412 H   0  0  0  0  0  0  0  0  0  0  0  0
   -0.0843    2.5599   -0.0201 H   0  0  0  0  0  0  0  0  0  0  0  0
    1.6810    2.5425    0.0352 H   0  0  0  0  0  0  0  0  0  0  0  0
    0.7541    1.9876    1.4331 H   0  0  0  0  0  0  0  0  0  0  0  0
   -1.3828   -1.0067    1.9021 C   0  0  0  0  0  0  0  0  0  0  0  0
   -1.3470   -0.6675    0.6177 C   0  0  0  0  0  0  0  0  0  0  0  0
   -2.5215   -0.6042   -0.2419 C   0  0  0  0  0  0  0  0  0  0  0  0
   -2.4857   -0.2650   -1.5262 C   0  0  0  0  0  0  0  0  0  0  0  0
   -0.4848   -1.0409    2.5049 H   0  0  0  0  0  0  0  0  0  0  0  0
   -2.3162   -1.2617    2.3917 H   0  0  0  0  0  0  0  0  0  0  0  0
   -3.4724   -0.8545    0.2207 H   0  0  0  0  0  0  0  0  0  0  0  0
   -3.3837   -0.2307   -2.1291 H   0  0  0  0  0  0  0  0  0  0  0  0
   -1.5523   -0.0100   -2.0159 H   0  0  0  0  0  0  0  0  0  0  0  0
  1  2  1  0
  1  5  1  0
  1  6  1  0
  1  7  1  0
  2  4  1  0
  2  3  1  0
  3  9  1  0
  4 10  1  0
  4 11  1  0
  4 12  1  0
  8 14  1  0
 13 14  2  3
 13 17  1  0
 13 18  1  0
 14 15  1  0
 15 16  2  3
 15 19  1  0
 16 20  1  0
 16 21  1  0
M  RAD  1   2   2
M  END
>  <reaction>  (13) 
rxn_1927

>  <mol_properties>  (13) 
{"1": {"label": "*1", "atom_type": "Cs"}, "2": {"label": "*0", "atom_type": "S2s"}, "7": {"label": "*2", "atom_type": "H0"}, "13": {"label": "*3", "atom_type": "Cd"}, "14": {"label": "*4", "atom_type": "Cd"}}

>  <type>  (13) 
unop_9

>  <geom_source>  (13) 
Heuristics

$$$$

     RDKit          3D

 21 19  0  0  0  0  0  0  0  0999 V2000
    0.5611    0.9006   -1.8487 C   0  0  0  0  0  0  0  0  0  0  0  0
    0.5611    0.9006   -0.3263 C   0  0  0  0  0  3  0  0  0  0  0  0
    1.9163   -0.1157    0.3572 S   0  0  0  0  0  0  0  0  0  0  0  0
    0.5611    2.3106    0.2477 C   0  0  0  0  0  0  0  0  0  0  0  0
    0.5326   -0.1137   -2.2453 H   0  0  0  0  0  0  0  0  0  0  0  0
    1.4596    1.3903   -2.2322 H   0  0  0  0  0  0  0  0  0  0  0  0
   -0.3058    1.4480   -2.2275 H   0  0  0  0  0  0  0  0  0  0  0  0
   -0.5068    0.2687    0.0987 H   0  0  0  0  0  0  0  0  0  0  0  0
    2.9222    0.6201   -0.1377 H   0  0  0  0  0  0  0  0  0  0  0  0
   -0.3058    2.8679   -0.1165 H   0  0  0  0  0  0  0  0  0  0  0  0
    1.4596    2.8505   -0.0613 H   0  0  0  0  0  0  0  0  0  0  0  0
    0.5326    2.2956    1.3366 H   0  0  0  0  0  0  0  0  0  0  0  0
   -2.0186    0.1242    1.6742 C   0  0  0  0  0  0  0  0  0  0  0  0
   -1.5685   -0.3595    0.5212 C   0  0  0  0  0  0  0  0  0  0  0  0
   -1.7019   -1.7518    0.1136 C   0  0  0  0  0  0  0  0  0  0  0  0
   -1.2517   -2.2355   -1.0394 C   0  0  0  0  0  0  0  0  0  0  0  0
   -1.8981    1.1668    1.9375 H   0  0  0  0  0  0  0  0  0  0  0  0
   -2.5238   -0.5114    2.3931 H   0  0  0  0  0  0  0  0  0  0  0  0
   -2.2042   -2.4138    0.8137 H   0  0  0  0  0  0  0  0  0  0  0  0
   -1.3722   -3.2781   -1.3027 H   0  0  0  0  0  0  0  0  0  0  0  0
   -0.7465   -1.5999   -1.7583 H   0  0  0  0  0  0  0  0  0  0  0  0
  1  2  1  0
  1  5  1  0
  1  6  1  0
  1  7  1  0
  2  4  1  0
  2  3  1  0
  3  9  1  0
  4 10  1  0
  4 11  1  0
  4 12  1  0
  8 14  1  0
 13 14  2  3
 13 17  1  0
 13 18  1  0
 14 15  1  0
 15 16  2  3
 15 19  1  0
 16 20  1  0
 16 21  1  0
M  RAD  1   2   2
M  END
>  <reaction>  (14) 
rxn_1927

>  <mol_properties>  (14) 
{"1": {"label": "*1", "atom_type": "Cs"}, "2": {"label": "*0", "atom_type": "S2s"}, "7": {"label": "*2", "atom_type": "H0"}, "13": {"label": "*3", "atom_type": "Cd"}, "14": {"label": "*4", "atom_type": "Cd"}}

>  <type>  (14) 
unop_10

>  <geom_source>  (14) 
Heuristics

$$$$

     RDKit          3D

 21 19  0  0  0  0  0  0  0  0999 V2000
    0.6469    0.5186   -2.2011 C   0  0  0  0  0  0  0  0  0  0  0  0
    0.6469    0.5186   -0.6788 C   0  0  0  0  0  3  0  0  0  0  0  0
    2.0020   -0.4977    0.0048 S   0  0  0  0  0  0  0  0  0  0  0  0
    0.6469    1.9285   -0.1048 C   0  0  0  0  0  0  0  0  0  0  0  0
    0.6183   -0.4957   -2.5978 H   0  0  0  0  0  0  0  0  0  0  0  0
    1.5453    1.0083   -2.5847 H   0  0  0  0  0  0  0  0  0  0  0  0
   -0.2201    1.0660   -2.5800 H   0  0  0  0  0  0  0  0  0  0  0  0
   -0.4210   -0.1133   -0.2538 H   0  0  0  0  0  0  0  0  0  0  0  0
    3.0079    0.2381   -0.4901 H   0  0  0  0  0  0  0  0  0  0  0  0
   -0.2201    2.4858   -0.4690 H   0  0  0  0  0  0  0  0  0  0  0  0
    1.5453    2.4685   -0.4137 H   0  0  0  0  0  0  0  0  0  0  0  0
    0.6183    1.9135    0.9842 H   0  0  0  0  0  0  0  0  0  0  0  0
   -1.5328   -1.9941   -0.2723 C   0  0  0  0  0  0  0  0  0  0  0  0
   -1.4827   -0.7415    0.1688 C   0  0  0  0  0  0  0  0  0  0  0  0
   -2.0268   -0.3052    1.4478 C   0  0  0  0  0  0  0  0  0  0  0  0
   -1.9767    0.9473    1.8889 C   0  0  0  0  0  0  0  0  0  0  0  0
   -1.1154   -2.2752   -1.2303 H   0  0  0  0  0  0  0  0  0  0  0  0
   -1.9952   -2.7801    0.3146 H   0  0  0  0  0  0  0  0  0  0  0  0
   -2.4970   -1.0710    2.0590 H   0  0  0  0  0  0  0  0  0  0  0  0
   -2.3941    1.2284    2.8469 H   0  0  0  0  0  0  0  0  0  0  0  0
   -1.5143    1.7333    1.3020 H   0  0  0  0  0  0  0  0  0  0  0  0
  1  2  1  0
  1  5  1  0
  1  6  1  0
  1  7  1  0
  2  4  1  0
  2  3  1  0
  3  9  1  0
  4 10  1  0
  4 11  1  0
  4 12  1  0
  8 14  1  0
 13 14  2  3
 13 17  1  0
 13 18  1  0
 14 15  1  0
 15 16  2  3
 15 19  1  0
 16 20  1  0
 16 21  1  0
M  RAD  1   2   2
M  END
>  <reaction>  (15) 
rxn_1927

>  <mol_properties>  (15) 
{"1": {"label": "*1", "atom_type": "Cs"}, "2": {"label": "*0", "atom_type": "S2s"}, "7": {"label": "*2", "atom_type": "H0"}, "13": {"label": "*3", "atom_type": "Cd"}, "14": {"label": "*4", "atom_type": "Cd"}}

>  <type>  (15) 
unop_11

>  <geom_source>  (15) 
Heuristics

$$$$

     RDKit          3D

 21 19  0  0  0  0  0  0  0  0999 V2000
    0.7227    0.7184   -1.7167 C   0  0  0  0  0  0  0  0  0  0  0  0
    0.7227    0.7184   -0.1943 C   0  0  0  0  0  3  0  0  0  0  0  0
    2.0779   -0.2979    0.4892 S   0  0  0  0  0  0  0  0  0  0  0  0
    0.7227    2.1284    0.3796 C   0  0  0  0  0  0  0  0  0  0  0  0
    0.6942   -0.2959   -2.1134 H   0  0  0  0  0  0  0  0  0  0  0  0
    1.6211    1.2081   -2.1003 H   0  0  0  0  0  0  0  0  0  0  0  0
   -0.1442    1.2658   -2.0955 H   0  0  0  0  0  0  0  0  0  0  0  0
   -0.3452    0.0865    0.2307 H   0  0  0  0  0  0  0  0  0  0  0  0
    3.0838    0.4379   -0.0057 H   0  0  0  0  0  0  0  0  0  0  0  0
   -0.1442    2.6857    0.0154 H   0  0  0  0  0  0  0  0  0  0  0  0
    1.6211    2.6683    0.0707 H   0  0  0  0  0  0  0  0  0  0  0  0
    0.6942    2.1134    1.4686 H   0  0  0  0  0  0  0  0  0  0  0  0
   -1.6189   -0.6672    1.9590 C   0  0  0  0  0  0  0  0  0  0  0  0
   -1.4069   -0.5417    0.6532 C   0  0  0  0  0  0  0  0  0  0  0  0
   -2.2978   -1.0689   -0.3718 C   0  0  0  0  0  0  0  0  0  0  0  0
   -2.0858   -0.9434   -1.6776 C   0  0  0  0  0  0  0  0  0  0  0  0
   -0.9301   -0.2596    2.6873 H   0  0  0  0  0  0  0  0  0  0  0  0
   -2.4924   -1.1841    2.3409 H   0  0  0  0  0  0  0  0  0  0  0  0
   -3.1826   -1.5924   -0.0197 H   0  0  0  0  0  0  0  0  0  0  0  0
   -2.7746   -1.3510   -2.4059 H   0  0  0  0  0  0  0  0  0  0  0  0
   -1.2123   -0.4266   -2.0595 H   0  0  0  0  0  0  0  0  0  0  0  0
  1  2  1  0
  1  5  1  0
  1  6  1  0
  1  7  1  0
  2  4  1  0
  2  3  1  0
  3  9  1  0
  4 10  1  0
  4 11  1  0
  4 12  1  0
  8 14  1  0
 13 14  2  3
 13 17  1  0
 13 18  1  0
 14 15  1  0
 15 16  2  3
 15 19  1  0
 16 20  1  0
 16 21  1  0
M  RAD  1   2   2
M  END
>  <reaction>  (16) 
rxn_1927

>  <mol_properties>  (16) 
{"1": {"label": "*1", "atom_type": "Cs"}, "2": {"label": "*0", "atom_type": "S2s"}, "7": {"label": "*2", "atom_type": "H0"}, "13": {"label": "*3", "atom_type": "Cd"}, "14": {"label": "*4", "atom_type": "Cd"}}

>  <type>  (16) 
unop_12

>  <geom_source>  (16) 
Heuristics

$$$$

     RDKit          3D

 21 19  0  0  0  0  0  0  0  0999 V2000
   -1.0738    1.1934   -1.4777 S   0  0  0  0  0  0  0  0  0  0  0  0
   -1.2697    0.0431   -0.0742 C   0  0  0  0  0  0  0  0  0  0  0  0
   -1.7269   -1.3272   -0.5730 C   0  0  0  0  0  0  0  0  0  0  0  0
   -2.2518    0.6164    0.9467 C   0  0  0  0  0  0  0  0  0  0  0  0
    2.1365    0.9681   -0.3822 C   0  0  0  0  0  0  0  0  0  0  0  0
    3.4692    0.9174   -0.4046 C   0  0  0  0  0  0  0  0  0  0  0  0
    1.6773   -1.1275    0.9102 C   0  0  0  0  0  0  0  0  0  0  0  0
    1.2673   -0.0372    0.2638 C   0  0  0  0  0  3  0  0  0  0  0  0
   -0.1746   -0.0846    0.4674 H   0  0  0  0  0  0  0  0  0  0  0  0
   -0.9927   -1.7260   -1.3045 H   0  0  0  0  0  0  0  0  0  0  0  0
   -1.7937   -2.0388    0.2772 H   0  0  0  0  0  0  0  0  0  0  0  0
   -2.7215   -1.2562   -1.0629 H   0  0  0  0  0  0  0  0  0  0  0  0
   -1.8926    1.6057    1.3005 H   0  0  0  0  0  0  0  0  0  0  0  0
   -2.3278   -0.0610    1.8236 H   0  0  0  0  0  0  0  0  0  0  0  0
   -3.2604    0.7389    0.4971 H   0  0  0  0  0  0  0  0  0  0  0  0
    1.6475    1.8017   -0.8694 H   0  0  0  0  0  0  0  0  0  0  0  0
    4.0293    0.1187    0.0586 H   0  0  0  0  0  0  0  0  0  0  0  0
    4.0248    1.7011   -0.9032 H   0  0  0  0  0  0  0  0  0  0  0  0
    2.7211   -1.3808    1.0226 H   0  0  0  0  0  0  0  0  0  0  0  0
    0.9405   -1.7903    1.3426 H   0  0  0  0  0  0  0  0  0  0  0  0
   -2.4281    1.1252   -1.8584 H   0  0  0  0  0  0  0  0  0  0  0  0
  1  2  1  0
  1 21  1  0
  2  3  1  0
  2  4  1  0
  2  9  1  0
  3 10  1  0
  3 11  1  0
  3 12  1  0
  4 13  1  0
  4 14  1  0
  4 15  1  0
  5  6  2  3
  5  8  1  0
  5 16  1  0
  6 17  1  0
  6 18  1  0
  7  8  2  3
  7 19  1  0
  7 20  1  0
M  RAD  1   8   2
M  END
>  <reaction>  (17) 
rxn_1927

>  <mol_properties>  (17) 
{"1": {"label": "*1", "atom_type": "Cs"}, "2": {"label": "*0", "atom_type": "S2s"}, "7": {"label": "*2", "atom_type": "H0"}, "13": {"label": "*3", "atom_type": "Cd"}, "14": {"label": "*4", "atom_type": "Cd"}}

>  <type>  (17) 
unop_13

>  <geom_source>  (17) 
AutoTST

$$$$
