
     RDKit          3D

  7  6  0  0  0  0  0  0  0  0999 V2000
   -0.6782    0.0507    0.0301 C   0  0  0  0  0  0  0  0  0  0  0  0
    0.8092    0.0996    0.0213 C   0  0  0  0  0  0  0  0  0  0  0  0
    1.7473    0.7521    1.1507 S   0  0  0  0  0  0  0  0  0  0  0  0
   -1.0667    0.5456   -0.8653 H   0  0  0  0  0  0  0  0  0  0  0  0
   -1.0112   -0.9904   -0.0239 H   0  0  0  0  0  0  0  0  0  0  0  0
   -1.0920    0.5225    0.9188 H   0  0  0  0  0  0  0  0  0  0  0  0
    1.2740   -0.3620   -0.8520 H   0  0  0  0  0  0  0  0  0  0  0  0
  1  2  1  0
  1  4  1  0
  1  5  1  0
  1  6  1  0
  2  3  2  0
  2  7  1  0
M  END
>  <reaction>  (1) 
rxn_1981

>  <mol_properties>  (1) 
{"0": {"label": "donator", "atom_type": "Cs"}, "3": {"label": "d_hydrogen", "atom_type": "H0"}}

>  <type>  (1) 
r1h

$$$$

     RDKit          3D

  9  8  0  0  0  0  0  0  0  0999 V2000
    2.3991   -0.1292   -0.2384 S   0  0  0  0  0  0  0  0  0  0  0  0
    0.7460    0.2807    0.0931 C   0  0  0  0  0  3  0  0  0  0  0  0
   -0.3131   -0.5719   -0.2043 C   0  0  0  0  0  0  0  0  0  0  0  0
   -0.2286   -1.8095   -0.7775 C   0  0  0  0  0  0  0  0  0  0  0  0
    2.9373    1.0009    0.2312 H   0  0  0  0  0  0  0  0  0  0  0  0
    0.5618    1.2421    0.5487 H   0  0  0  0  0  0  0  0  0  0  0  0
   -1.2978   -0.1954    0.0537 H   0  0  0  0  0  0  0  0  0  0  0  0
    0.7207   -2.2479   -1.0607 H   0  0  0  0  0  0  0  0  0  0  0  0
   -1.1177   -2.3938   -0.9670 H   0  0  0  0  0  0  0  0  0  0  0  0
  1  2  1  0
  1  5  1  0
  2  3  1  0
  2  6  1  0
  3  4  2  3
  3  7  1  0
  4  8  1  0
  4  9  1  0
M  RAD  1   2   2
M  END
>  <reaction>  (2) 
rxn_1981

>  <mol_properties>  (2) 
{"1": {"label": "acceptor", "atom_type": "Cs"}}

>  <type>  (2) 
r2

$$$$

     RDKit          3D

 10  9  0  0  0  0  0  0  0  0999 V2000
    2.2097   -0.5315    0.2575 S   0  0  0  0  0  0  0  0  0  0  0  0
    0.5401   -0.7188   -0.4494 C   0  0  0  0  0  0  0  0  0  0  0  0
   -0.5263   -0.1678    0.4365 C   0  0  0  0  0  0  0  0  0  0  0  0
   -1.3394    0.8185    0.0912 C   0  0  0  0  0  0  0  0  0  0  0  0
    2.1701    0.8016    0.3806 H   0  0  0  0  0  0  0  0  0  0  0  0
    0.4238   -1.7978   -0.5701 H   0  0  0  0  0  0  0  0  0  0  0  0
    0.5053   -0.2663   -1.4400 H   0  0  0  0  0  0  0  0  0  0  0  0
   -0.6005   -0.6141    1.4236 H   0  0  0  0  0  0  0  0  0  0  0  0
   -2.0960    1.1907    0.7700 H   0  0  0  0  0  0  0  0  0  0  0  0
   -1.2784    1.2877   -0.8850 H   0  0  0  0  0  0  0  0  0  0  0  0
  1  2  1  0
  1  5  1  0
  2  3  1  0
  2  6  1  0
  2  7  1  0
  3  4  2  3
  3  8  1  0
  4  9  1  0
  4 10  1  0
M  END
>  <reaction>  (3) 
rxn_1981

>  <mol_properties>  (3) 
{"1": {"label": "acceptor", "atom_type": "Cs"}, "9": {"label": "a_hydrogen", "atom_type": "H0"}}

>  <type>  (3) 
r2h

$$$$

     RDKit          3D

 16 14  0  0  0  0  0  0  0  0999 V2000
   -1.5855   -1.1592    1.0695 S   0  0  0  0  0  0  0  0  0  0  0  0
   -0.6366    0.1849    1.6972 C   0  0  0  0  0  3  0  0  0  0  0  0
   -1.0370    1.5597    1.4169 C   0  0  0  0  0  0  0  0  0  0  0  0
   -0.7992    2.5805    2.2388 C   0  0  0  0  0  0  0  0  0  0  0  0
   -1.8298   -0.6331   -0.1400 H   0  0  0  0  0  0  0  0  0  0  0  0
   -0.3462   -0.0149    2.7267 H   0  0  0  0  0  0  0  0  0  0  0  0
   -1.4992    1.7422    0.4518 H   0  0  0  0  0  0  0  0  0  0  0  0
   -0.3314    2.4348    3.2059 H   0  0  0  0  0  0  0  0  0  0  0  0
   -1.0733    3.5916    1.9689 H   0  0  0  0  0  0  0  0  0  0  0  0
    1.6516    0.0428    0.2874 C   0  0  0  0  0  0  0  0  0  0  0  0
    1.1842   -0.5371   -0.9260 C   0  0  0  0  0  0  0  0  0  0  0  0
    0.4067    0.2851   -2.1172 S   0  0  0  0  0  0  0  0  0  0  0  0
    0.5579    0.0583    1.0447 H   0  0  0  0  0  0  0  0  0  0  0  0
    2.3449   -0.5445    0.8844 H   0  0  0  0  0  0  0  0  0  0  0  0
    1.8381    1.1135    0.2749 H   0  0  0  0  0  0  0  0  0  0  0  0
    1.2982   -1.6158   -1.0223 H   0  0  0  0  0  0  0  0  0  0  0  0
  1  2  1  0
  1  5  1  0
  2  3  1  0
  2  6  1  0
  3  4  2  3
  3  7  1  0
  4  8  1  0
  4  9  1  0
 10 11  1  0
 10 13  1  0
 10 14  1  0
 10 15  1  0
 11 12  2  0
 11 16  1  0
M  RAD  1   2   2
M  END
>  <reaction>  (4) 
rxn_1981

>  <mol_properties>  (4) 
{"0": {"label": "*4", "atom_type": "S2s"}, "1": {"label": "*3", "atom_type": "Cs"}, "9": {"label": "*1", "atom_type": "Cs"}, "10": {"label": "*0", "atom_type": "CS"}, "12": {"label": "*2", "atom_type": "H0"}}

>  <type>  (4) 
ts

$$$$

     RDKit          3D

 16 14  0  0  0  0  0  0  0  0999 V2000
   -0.0074    0.3943    2.6962 S   0  0  0  0  0  0  0  0  0  0  0  0
   -0.7138    0.4131    1.0160 C   0  0  0  0  0  0  0  0  0  0  0  0
   -2.0956   -0.1470    0.9651 C   0  0  0  0  0  0  0  0  0  0  0  0
   -3.1590    0.5396    0.5765 C   0  0  0  0  0  0  0  0  0  0  0  0
   -0.9681    1.1309    3.2693 H   0  0  0  0  0  0  0  0  0  0  0  0
   -0.6812    1.4247    0.6127 H   0  0  0  0  0  0  0  0  0  0  0  0
   -2.2020   -1.1775    1.2902 H   0  0  0  0  0  0  0  0  0  0  0  0
   -3.0804    1.5733    0.2572 H   0  0  0  0  0  0  0  0  0  0  0  0
   -4.1449    0.0931    0.5613 H   0  0  0  0  0  0  0  0  0  0  0  0
    1.3866    0.4776   -0.5548 C   0  0  0  0  0  0  0  0  0  0  0  0
    1.3866   -0.7209   -1.4370 C   0  0  0  0  0  0  0  0  0  0  0  0
    1.3866   -0.7209   -3.0437 S   0  0  0  0  0  1  0  0  0  0  0  0
    0.3352    0.4453    0.2315 H   0  0  0  0  0  0  0  0  0  0  0  0
    2.2627    0.4507    0.1004 H   0  0  0  0  0  0  0  0  0  0  0  0
    1.3865    1.4013   -1.1295 H   0  0  0  0  0  0  0  0  0  0  0  0
    1.3866   -1.6753   -0.9071 H   0  0  0  0  0  0  0  0  0  0  0  0
  1  2  1  0
  1  5  1  0
  2  3  1  0
  2  6  1  0
  2 13  1  0
  3  4  2  3
  3  7  1  0
  4  8  1  0
  4  9  1  0
 10 11  2  3
 10 14  1  0
 10 15  1  0
 11 12  1  0
 11 16  1  0
M  RAD  1  12   2
M  END
>  <reaction>  (5) 
rxn_1981

>  <mol_properties>  (5) 
{"0": {"label": "*4", "atom_type": "S2s"}, "1": {"label": "*3", "atom_type": "Cs"}, "9": {"label": "*1", "atom_type": "Cs"}, "10": {"label": "*0", "atom_type": "CS"}, "12": {"label": "*2", "atom_type": "H0"}}

>  <type>  (5) 
unop_1

>  <geom_source>  (5) 
Heuristics

$$$$

     RDKit          3D

 16 14  0  0  0  0  0  0  0  0999 V2000
   -0.8851   -1.2325    1.4982 S   0  0  0  0  0  0  0  0  0  0  0  0
   -0.5621    0.5464    1.2666 C   0  0  0  0  0  0  0  0  0  0  0  0
   -1.8111    1.3385    1.0711 C   0  0  0  0  0  0  0  0  0  0  0  0
   -2.2047    2.3116    1.8782 C   0  0  0  0  0  0  0  0  0  0  0  0
   -1.6785   -1.1011    2.5692 H   0  0  0  0  0  0  0  0  0  0  0  0
    0.0222    0.9279    2.1033 H   0  0  0  0  0  0  0  0  0  0  0  0
   -2.4193    1.0618    0.2152 H   0  0  0  0  0  0  0  0  0  0  0  0
   -1.6202    2.5997    2.7454 H   0  0  0  0  0  0  0  0  0  0  0  0
   -3.1230    2.8563    1.7002 H   0  0  0  0  0  0  0  0  0  0  0  0
    1.5382    0.6108   -0.3042 C   0  0  0  0  0  0  0  0  0  0  0  0
    1.5382   -0.5876   -1.1864 C   0  0  0  0  0  0  0  0  0  0  0  0
    1.5382   -0.5876   -2.7931 S   0  0  0  0  0  1  0  0  0  0  0  0
    0.4869    0.5786    0.4820 H   0  0  0  0  0  0  0  0  0  0  0  0
    2.4144    0.5840    0.3510 H   0  0  0  0  0  0  0  0  0  0  0  0
    1.5382    1.5346   -0.8789 H   0  0  0  0  0  0  0  0  0  0  0  0
    1.5382   -1.5421   -0.6565 H   0  0  0  0  0  0  0  0  0  0  0  0
  1  2  1  0
  1  5  1  0
  2  3  1  0
  2  6  1  0
  2 13  1  0
  3  4  2  3
  3  7  1  0
  4  8  1  0
  4  9  1  0
 10 11  2  3
 10 14  1  0
 10 15  1  0
 11 12  1  0
 11 16  1  0
M  RAD  1  12   2
M  END
>  <reaction>  (6) 
rxn_1981

>  <mol_properties>  (6) 
{"0": {"label": "*4", "atom_type": "S2s"}, "1": {"label": "*3", "atom_type": "Cs"}, "9": {"label": "*1", "atom_type": "Cs"}, "10": {"label": "*0", "atom_type": "CS"}, "12": {"label": "*2", "atom_type": "H0"}}

>  <type>  (6) 
unop_2

>  <geom_source>  (6) 
Heuristics

$$$$

     RDKit          3D

 16 14  0  0  0  0  0  0  0  0999 V2000
   -0.1924    1.2596    2.5050 S   0  0  0  0  0  0  0  0  0  0  0  0
   -0.7418    0.3932    0.9983 C   0  0  0  0  0  0  0  0  0  0  0  0
   -1.6869   -0.7241    1.2879 C   0  0  0  0  0  0  0  0  0  0  0  0
   -2.9290   -0.7801    0.8325 C   0  0  0  0  0  0  0  0  0  0  0  0
   -1.4138    1.6098    2.9286 H   0  0  0  0  0  0  0  0  0  0  0  0
   -1.1749    1.1073    0.2985 H   0  0  0  0  0  0  0  0  0  0  0  0
   -1.3060   -1.5137    1.9285 H   0  0  0  0  0  0  0  0  0  0  0  0
   -3.3362    0.0012    0.1996 H   0  0  0  0  0  0  0  0  0  0  0  0
   -3.5821   -1.6089    1.0736 H   0  0  0  0  0  0  0  0  0  0  0  0
    1.3586    0.4577   -0.5725 C   0  0  0  0  0  0  0  0  0  0  0  0
    1.3586   -0.7407   -1.4547 C   0  0  0  0  0  0  0  0  0  0  0  0
    1.3586   -0.7407   -3.0613 S   0  0  0  0  0  1  0  0  0  0  0  0
    0.3072    0.4254    0.2138 H   0  0  0  0  0  0  0  0  0  0  0  0
    2.2347    0.4308    0.0827 H   0  0  0  0  0  0  0  0  0  0  0  0
    1.3585    1.3815   -1.1472 H   0  0  0  0  0  0  0  0  0  0  0  0
    1.3586   -1.6952   -0.9247 H   0  0  0  0  0  0  0  0  0  0  0  0
  1  2  1  0
  1  5  1  0
  2  3  1  0
  2  6  1  0
  2 13  1  0
  3  4  2  3
  3  7  1  0
  4  8  1  0
  4  9  1  0
 10 11  2  3
 10 14  1  0
 10 15  1  0
 11 12  1  0
 11 16  1  0
M  RAD  1  12   2
M  END
>  <reaction>  (7) 
rxn_1981

>  <mol_properties>  (7) 
{"0": {"label": "*4", "atom_type": "S2s"}, "1": {"label": "*3", "atom_type": "Cs"}, "9": {"label": "*1", "atom_type": "Cs"}, "10": {"label": "*0", "atom_type": "CS"}, "12": {"label": "*2", "atom_type": "H0"}}

>  <type>  (7) 
unop_3

>  <geom_source>  (7) 
Heuristics

$$$$

     RDKit          3D

 16 14  0  0  0  0  0  0  0  0999 V2000
   -2.0941    0.0350    0.2997 S   0  0  0  0  0  0  0  0  0  0  0  0
   -0.6817    0.0379    1.4518 C   0  0  0  0  0  0  0  0  0  0  0  0
   -0.2303    1.4147    1.8072 C   0  0  0  0  0  0  0  0  0  0  0  0
   -0.2331    1.8999    3.0392 C   0  0  0  0  0  0  0  0  0  0  0  0
   -2.9201    0.7488    1.0756 H   0  0  0  0  0  0  0  0  0  0  0  0
   -0.9295   -0.5399    2.3418 H   0  0  0  0  0  0  0  0  0  0  0  0
    0.0971    2.0352    0.9786 H   0  0  0  0  0  0  0  0  0  0  0  0
   -0.5653    1.3037    3.8823 H   0  0  0  0  0  0  0  0  0  0  0  0
    0.0984    2.9086    3.2496 H   0  0  0  0  0  0  0  0  0  0  0  0
    1.4186    0.1024   -0.1189 C   0  0  0  0  0  0  0  0  0  0  0  0
    1.4186   -1.0961   -1.0011 C   0  0  0  0  0  0  0  0  0  0  0  0
    1.4186   -1.0961   -2.6078 S   0  0  0  0  0  1  0  0  0  0  0  0
    0.3673    0.0701    0.6673 H   0  0  0  0  0  0  0  0  0  0  0  0
    2.2948    0.0755    0.5363 H   0  0  0  0  0  0  0  0  0  0  0  0
    1.4186    1.0262   -0.6936 H   0  0  0  0  0  0  0  0  0  0  0  0
    1.4186   -2.0505   -0.4712 H   0  0  0  0  0  0  0  0  0  0  0  0
  1  2  1  0
  1  5  1  0
  2  3  1  0
  2  6  1  0
  2 13  1  0
  3  4  2  3
  3  7  1  0
  4  8  1  0
  4  9  1  0
 10 11  2  3
 10 14  1  0
 10 15  1  0
 11 12  1  0
 11 16  1  0
M  RAD  1  12   2
M  END
>  <reaction>  (8) 
rxn_1981

>  <mol_properties>  (8) 
{"0": {"label": "*4", "atom_type": "S2s"}, "1": {"label": "*3", "atom_type": "Cs"}, "9": {"label": "*1", "atom_type": "Cs"}, "10": {"label": "*0", "atom_type": "CS"}, "12": {"label": "*2", "atom_type": "H0"}}

>  <type>  (8) 
unop_4

>  <geom_source>  (8) 
Heuristics

$$$$

     RDKit          3D

 16 14  0  0  0  0  0  0  0  0999 V2000
   -0.7118    1.8680    1.9561 S   0  0  0  0  0  0  0  0  0  0  0  0
   -0.8624    0.3516    0.9559 C   0  0  0  0  0  0  0  0  0  0  0  0
   -0.8645   -0.8884    1.7854 C   0  0  0  0  0  0  0  0  0  0  0  0
   -1.8691   -1.7501    1.8264 C   0  0  0  0  0  0  0  0  0  0  0  0
   -1.8002    1.6586    2.7080 H   0  0  0  0  0  0  0  0  0  0  0  0
   -1.7510    0.4097    0.3280 H   0  0  0  0  0  0  0  0  0  0  0  0
    0.0197   -1.0539    2.3935 H   0  0  0  0  0  0  0  0  0  0  0  0
   -2.7673   -1.6018    1.2365 H   0  0  0  0  0  0  0  0  0  0  0  0
   -1.8290   -2.6350    2.4485 H   0  0  0  0  0  0  0  0  0  0  0  0
    1.2379    0.4161   -0.6149 C   0  0  0  0  0  0  0  0  0  0  0  0
    1.2379   -0.7824   -1.4971 C   0  0  0  0  0  0  0  0  0  0  0  0
    1.2379   -0.7824   -3.1038 S   0  0  0  0  0  1  0  0  0  0  0  0
    0.1865    0.3838    0.1714 H   0  0  0  0  0  0  0  0  0  0  0  0
    2.1141    0.3892    0.0403 H   0  0  0  0  0  0  0  0  0  0  0  0
    1.2379    1.3399   -1.1896 H   0  0  0  0  0  0  0  0  0  0  0  0
    1.2379   -1.7368   -0.9672 H   0  0  0  0  0  0  0  0  0  0  0  0
  1  2  1  0
  1  5  1  0
  2  3  1  0
  2  6  1  0
  2 13  1  0
  3  4  2  3
  3  7  1  0
  4  8  1  0
  4  9  1  0
 10 11  2  3
 10 14  1  0
 10 15  1  0
 11 12  1  0
 11 16  1  0
M  RAD  1  12   2
M  END
>  <reaction>  (9) 
rxn_1981

>  <mol_properties>  (9) 
{"0": {"label": "*4", "atom_type": "S2s"}, "1": {"label": "*3", "atom_type": "Cs"}, "9": {"label": "*1", "atom_type": "Cs"}, "10": {"label": "*0", "atom_type": "CS"}, "12": {"label": "*2", "atom_type": "H0"}}

>  <type>  (9) 
unop_5

>  <geom_source>  (9) 
Heuristics

$$$$

     RDKit          3D

 16 14  0  0  0  0  0  0  0  0999 V2000
   -2.1134    0.8432    0.3690 S   0  0  0  0  0  0  0  0  0  0  0  0
   -0.8279   -0.0368    1.3152 C   0  0  0  0  0  0  0  0  0  0  0  0
    0.0933    0.8894    2.0359 C   0  0  0  0  0  0  0  0  0  0  0  0
    0.2418    0.9107    3.3515 C   0  0  0  0  0  0  0  0  0  0  0  0
   -2.6339    1.5082    1.4086 H   0  0  0  0  0  0  0  0  0  0  0  0
   -1.2929   -0.7453    2.0000 H   0  0  0  0  0  0  0  0  0  0  0  0
    0.6467    1.5867    1.4143 H   0  0  0  0  0  0  0  0  0  0  0  0
   -0.3075    0.2315    3.9948 H   0  0  0  0  0  0  0  0  0  0  0  0
    0.9185    1.6053    3.8322 H   0  0  0  0  0  0  0  0  0  0  0  0
    1.2724    0.0277   -0.2556 C   0  0  0  0  0  0  0  0  0  0  0  0
    1.2724   -1.1708   -1.1378 C   0  0  0  0  0  0  0  0  0  0  0  0
    1.2724   -1.1708   -2.7444 S   0  0  0  0  0  1  0  0  0  0  0  0
    0.2211   -0.0046    0.5307 H   0  0  0  0  0  0  0  0  0  0  0  0
    2.1486    0.0008    0.3996 H   0  0  0  0  0  0  0  0  0  0  0  0
    1.2724    0.9515   -0.8302 H   0  0  0  0  0  0  0  0  0  0  0  0
    1.2725   -2.1252   -0.6078 H   0  0  0  0  0  0  0  0  0  0  0  0
  1  2  1  0
  1  5  1  0
  2  3  1  0
  2  6  1  0
  2 13  1  0
  3  4  2  3
  3  7  1  0
  4  8  1  0
  4  9  1  0
 10 11  2  3
 10 14  1  0
 10 15  1  0
 11 12  1  0
 11 16  1  0
M  RAD  1  12   2
M  END
>  <reaction>  (10) 
rxn_1981

>  <mol_properties>  (10) 
{"0": {"label": "*4", "atom_type": "S2s"}, "1": {"label": "*3", "atom_type": "Cs"}, "9": {"label": "*1", "atom_type": "Cs"}, "10": {"label": "*0", "atom_type": "CS"}, "12": {"label": "*2", "atom_type": "H0"}}

>  <type>  (10) 
unop_6

>  <geom_source>  (10) 
Heuristics

$$$$

     RDKit          3D

 16 14  0  0  0  0  0  0  0  0999 V2000
   -1.8578    1.5373    0.7272 S   0  0  0  0  0  0  0  0  0  0  0  0
   -0.9490    0.0130    1.1432 C   0  0  0  0  0  0  0  0  0  0  0  0
    0.1518    0.2471    2.1225 C   0  0  0  0  0  0  0  0  0  0  0  0
    0.2127   -0.3200    3.3175 C   0  0  0  0  0  0  0  0  0  0  0  0
   -2.2301    1.8346    1.9790 H   0  0  0  0  0  0  0  0  0  0  0  0
   -1.6441   -0.7453    1.5022 H   0  0  0  0  0  0  0  0  0  0  0  0
    0.9238    0.9440    1.8108 H   0  0  0  0  0  0  0  0  0  0  0  0
   -0.5514   -1.0114    3.6563 H   0  0  0  0  0  0  0  0  0  0  0  0
    1.0288   -0.1157    3.9986 H   0  0  0  0  0  0  0  0  0  0  0  0
    1.1513    0.0775   -0.4276 C   0  0  0  0  0  0  0  0  0  0  0  0
    1.1513   -1.1210   -1.3098 C   0  0  0  0  0  0  0  0  0  0  0  0
    1.1513   -1.1210   -2.9164 S   0  0  0  0  0  1  0  0  0  0  0  0
    0.0999    0.0452    0.3587 H   0  0  0  0  0  0  0  0  0  0  0  0
    2.0274    0.0506    0.2276 H   0  0  0  0  0  0  0  0  0  0  0  0
    1.1513    1.0013   -1.0022 H   0  0  0  0  0  0  0  0  0  0  0  0
    1.1513   -2.0754   -0.7798 H   0  0  0  0  0  0  0  0  0  0  0  0
  1  2  1  0
  1  5  1  0
  2  3  1  0
  2  6  1  0
  2 13  1  0
  3  4  2  3
  3  7  1  0
  4  8  1  0
  4  9  1  0
 10 11  2  3
 10 14  1  0
 10 15  1  0
 11 12  1  0
 11 16  1  0
M  RAD  1  12   2
M  END
>  <reaction>  (11) 
rxn_1981

>  <mol_properties>  (11) 
{"0": {"label": "*4", "atom_type": "S2s"}, "1": {"label": "*3", "atom_type": "Cs"}, "9": {"label": "*1", "atom_type": "Cs"}, "10": {"label": "*0", "atom_type": "CS"}, "12": {"label": "*2", "atom_type": "H0"}}

>  <type>  (11) 
unop_7

>  <geom_source>  (11) 
Heuristics

$$$$

     RDKit          3D

 16 14  0  0  0  0  0  0  0  0999 V2000
   -0.1173   -0.4216    2.5151 S   0  0  0  0  0  0  0  0  0  0  0  0
   -0.6967    0.4801    1.0408 C   0  0  0  0  0  0  0  0  0  0  0  0
   -2.1809    0.4499    0.8928 C   0  0  0  0  0  0  0  0  0  0  0  0
   -2.9472    1.5297    0.8933 C   0  0  0  0  0  0  0  0  0  0  0  0
   -0.8177    0.2891    3.4086 H   0  0  0  0  0  0  0  0  0  0  0  0
   -0.3214    1.5028    1.0618 H   0  0  0  0  0  0  0  0  0  0  0  0
   -2.6283   -0.5350    0.7988 H   0  0  0  0  0  0  0  0  0  0  0  0
   -2.5254    2.5238    0.9961 H   0  0  0  0  0  0  0  0  0  0  0  0
   -4.0223    1.4593    0.7888 H   0  0  0  0  0  0  0  0  0  0  0  0
    1.4036    0.5446   -0.5300 C   0  0  0  0  0  0  0  0  0  0  0  0
    1.4036   -0.6539   -1.4122 C   0  0  0  0  0  0  0  0  0  0  0  0
    1.4036   -0.6539   -3.0189 S   0  0  0  0  0  1  0  0  0  0  0  0
    0.3522    0.5123    0.2563 H   0  0  0  0  0  0  0  0  0  0  0  0
    2.2798    0.5177    0.1252 H   0  0  0  0  0  0  0  0  0  0  0  0
    1.4036    1.4684   -1.1047 H   0  0  0  0  0  0  0  0  0  0  0  0
    1.4036   -1.6083   -0.8823 H   0  0  0  0  0  0  0  0  0  0  0  0
  1  2  1  0
  1  5  1  0
  2  3  1  0
  2  6  1  0
  2 13  1  0
  3  4  2  3
  3  7  1  0
  4  8  1  0
  4  9  1  0
 10 11  2  3
 10 14  1  0
 10 15  1  0
 11 12  1  0
 11 16  1  0
M  RAD  1  12   2
M  END
>  <reaction>  (12) 
rxn_1981

>  <mol_properties>  (12) 
{"0": {"label": "*4", "atom_type": "S2s"}, "1": {"label": "*3", "atom_type": "Cs"}, "9": {"label": "*1", "atom_type": "Cs"}, "10": {"label": "*0", "atom_type": "CS"}, "12": {"label": "*2", "atom_type": "H0"}}

>  <type>  (12) 
unop_8

>  <geom_source>  (12) 
Heuristics

$$$$

     RDKit          3D

 16 14  0  0  0  0  0  0  0  0999 V2000
   -1.8157   -0.6758    0.5205 S   0  0  0  0  0  0  0  0  0  0  0  0
   -0.5602    0.2122    1.4991 C   0  0  0  0  0  0  0  0  0  0  0  0
   -0.7643    1.6900    1.4939 C   0  0  0  0  0  0  0  0  0  0  0  0
   -0.9926    2.4098    2.5816 C   0  0  0  0  0  0  0  0  0  0  0  0
   -2.8792   -0.2210    1.1957 H   0  0  0  0  0  0  0  0  0  0  0  0
   -0.5373   -0.1810    2.5150 H   0  0  0  0  0  0  0  0  0  0  0  0
   -0.7351    2.1695    0.5202 H   0  0  0  0  0  0  0  0  0  0  0  0
   -1.0370    1.9529    3.5645 H   0  0  0  0  0  0  0  0  0  0  0  0
   -1.1410    3.4807    2.5293 H   0  0  0  0  0  0  0  0  0  0  0  0
    1.5401    0.2767   -0.0717 C   0  0  0  0  0  0  0  0  0  0  0  0
    1.5401   -0.9218   -0.9539 C   0  0  0  0  0  0  0  0  0  0  0  0
    1.5401   -0.9218   -2.5605 S   0  0  0  0  0  1  0  0  0  0  0  0
    0.4888    0.2444    0.7146 H   0  0  0  0  0  0  0  0  0  0  0  0
    2.4163    0.2498    0.5835 H   0  0  0  0  0  0  0  0  0  0  0  0
    1.5401    1.2005   -0.6464 H   0  0  0  0  0  0  0  0  0  0  0  0
    1.5401   -1.8762   -0.4239 H   0  0  0  0  0  0  0  0  0  0  0  0
  1  2  1  0
  1  5  1  0
  2  3  1  0
  2  6  1  0
  2 13  1  0
  3  4  2  3
  3  7  1  0
  4  8  1  0
  4  9  1  0
 10 11  2  3
 10 14  1  0
 10 15  1  0
 11 12  1  0
 11 16  1  0
M  RAD  1  12   2
M  END
>  <reaction>  (13) 
rxn_1981

>  <mol_properties>  (13) 
{"0": {"label": "*4", "atom_type": "S2s"}, "1": {"label": "*3", "atom_type": "Cs"}, "9": {"label": "*1", "atom_type": "Cs"}, "10": {"label": "*0", "atom_type": "CS"}, "12": {"label": "*2", "atom_type": "H0"}}

>  <type>  (13) 
unop_9

>  <geom_source>  (13) 
Heuristics

$$$$

     RDKit          3D

 16 14  0  0  0  0  0  0  0  0999 V2000
   -0.4407   -0.9960    2.0658 S   0  0  0  0  0  0  0  0  0  0  0  0
   -0.6433    0.5499    1.1217 C   0  0  0  0  0  0  0  0  0  0  0  0
   -2.0732    0.9437    0.9604 C   0  0  0  0  0  0  0  0  0  0  0  0
   -2.5864    2.0742    1.4208 C   0  0  0  0  0  0  0  0  0  0  0  0
   -1.0698   -0.5781    3.1719 H   0  0  0  0  0  0  0  0  0  0  0  0
   -0.0632    1.3461    1.5873 H   0  0  0  0  0  0  0  0  0  0  0  0
   -2.7069    0.2286    0.4447 H   0  0  0  0  0  0  0  0  0  0  0  0
   -1.9765    2.7999    1.9482 H   0  0  0  0  0  0  0  0  0  0  0  0
   -3.6327    2.3159    1.2854 H   0  0  0  0  0  0  0  0  0  0  0  0
    1.4570    0.6144   -0.4491 C   0  0  0  0  0  0  0  0  0  0  0  0
    1.4570   -0.5840   -1.3313 C   0  0  0  0  0  0  0  0  0  0  0  0
    1.4570   -0.5840   -2.9379 S   0  0  0  0  0  1  0  0  0  0  0  0
    0.4056    0.5821    0.3372 H   0  0  0  0  0  0  0  0  0  0  0  0
    2.3331    0.5875    0.2062 H   0  0  0  0  0  0  0  0  0  0  0  0
    1.4570    1.5382   -1.0237 H   0  0  0  0  0  0  0  0  0  0  0  0
    1.4570   -1.5385   -0.8013 H   0  0  0  0  0  0  0  0  0  0  0  0
  1  2  1  0
  1  5  1  0
  2  3  1  0
  2  6  1  0
  2 13  1  0
  3  4  2  3
  3  7  1  0
  4  8  1  0
  4  9  1  0
 10 11  2  3
 10 14  1  0
 10 15  1  0
 11 12  1  0
 11 16  1  0
M  RAD  1  12   2
M  END
>  <reaction>  (14) 
rxn_1981

>  <mol_properties>  (14) 
{"0": {"label": "*4", "atom_type": "S2s"}, "1": {"label": "*3", "atom_type": "Cs"}, "9": {"label": "*1", "atom_type": "Cs"}, "10": {"label": "*0", "atom_type": "CS"}, "12": {"label": "*2", "atom_type": "H0"}}

>  <type>  (14) 
unop_10

>  <geom_source>  (14) 
Heuristics

$$$$

     RDKit          3D

 16 14  0  0  0  0  0  0  0  0999 V2000
   -1.3621    1.9345    1.2933 S   0  0  0  0  0  0  0  0  0  0  0  0
   -0.9790    0.1773    0.9968 C   0  0  0  0  0  0  0  0  0  0  0  0
   -0.1259   -0.4154    2.0677 C   0  0  0  0  0  0  0  0  0  0  0  0
   -0.4962   -1.4315    2.8318 C   0  0  0  0  0  0  0  0  0  0  0  0
   -1.9435    1.7603    2.4872 H   0  0  0  0  0  0  0  0  0  0  0  0
   -1.9029   -0.3860    0.8691 H   0  0  0  0  0  0  0  0  0  0  0  0
    0.8439    0.0504    2.2138 H   0  0  0  0  0  0  0  0  0  0  0  0
   -1.4638   -1.9070    2.7125 H   0  0  0  0  0  0  0  0  0  0  0  0
    0.1546   -1.8255    3.6018 H   0  0  0  0  0  0  0  0  0  0  0  0
    1.1213    0.2418   -0.5740 C   0  0  0  0  0  0  0  0  0  0  0  0
    1.1213   -0.9567   -1.4561 C   0  0  0  0  0  0  0  0  0  0  0  0
    1.1213   -0.9567   -3.0628 S   0  0  0  0  0  1  0  0  0  0  0  0
    0.0700    0.2095    0.2123 H   0  0  0  0  0  0  0  0  0  0  0  0
    1.9975    0.2149    0.0813 H   0  0  0  0  0  0  0  0  0  0  0  0
    1.1213    1.1656   -1.1486 H   0  0  0  0  0  0  0  0  0  0  0  0
    1.1214   -1.9111   -0.9262 H   0  0  0  0  0  0  0  0  0  0  0  0
  1  2  1  0
  1  5  1  0
  2  3  1  0
  2  6  1  0
  2 13  1  0
  3  4  2  3
  3  7  1  0
  4  8  1  0
  4  9  1  0
 10 11  2  3
 10 14  1  0
 10 15  1  0
 11 12  1  0
 11 16  1  0
M  RAD  1  12   2
M  END
>  <reaction>  (15) 
rxn_1981

>  <mol_properties>  (15) 
{"0": {"label": "*4", "atom_type": "S2s"}, "1": {"label": "*3", "atom_type": "Cs"}, "9": {"label": "*1", "atom_type": "Cs"}, "10": {"label": "*0", "atom_type": "CS"}, "12": {"label": "*2", "atom_type": "H0"}}

>  <type>  (15) 
unop_11

>  <geom_source>  (15) 
Heuristics

$$$$

     RDKit          3D

 16 14  0  0  0  0  0  0  0  0999 V2000
   -1.3713   -1.1201    0.9517 S   0  0  0  0  0  0  0  0  0  0  0  0
   -0.5146    0.4180    1.4238 C   0  0  0  0  0  0  0  0  0  0  0  0
   -1.3592    1.6320    1.2275 C   0  0  0  0  0  0  0  0  0  0  0  0
   -1.7155    2.4519    2.2042 C   0  0  0  0  0  0  0  0  0  0  0  0
   -2.4071   -0.9759    1.7884 H   0  0  0  0  0  0  0  0  0  0  0  0
   -0.1607    0.3434    2.4516 H   0  0  0  0  0  0  0  0  0  0  0  0
   -1.6994    1.8142    0.2126 H   0  0  0  0  0  0  0  0  0  0  0  0
   -1.3972    2.2858    3.2279 H   0  0  0  0  0  0  0  0  0  0  0  0
   -2.3354    3.3190    2.0158 H   0  0  0  0  0  0  0  0  0  0  0  0
    1.5858    0.4824   -0.1470 C   0  0  0  0  0  0  0  0  0  0  0  0
    1.5858   -0.7160   -1.0292 C   0  0  0  0  0  0  0  0  0  0  0  0
    1.5858   -0.7160   -2.6359 S   0  0  0  0  0  1  0  0  0  0  0  0
    0.5344    0.4502    0.6393 H   0  0  0  0  0  0  0  0  0  0  0  0
    2.4619    0.4556    0.5082 H   0  0  0  0  0  0  0  0  0  0  0  0
    1.5858    1.4062   -0.7217 H   0  0  0  0  0  0  0  0  0  0  0  0
    1.5858   -1.6705   -0.4993 H   0  0  0  0  0  0  0  0  0  0  0  0
  1  2  1  0
  1  5  1  0
  2  3  1  0
  2  6  1  0
  2 13  1  0
  3  4  2  3
  3  7  1  0
  4  8  1  0
  4  9  1  0
 10 11  2  3
 10 14  1  0
 10 15  1  0
 11 12  1  0
 11 16  1  0
M  RAD  1  12   2
M  END
>  <reaction>  (16) 
rxn_1981

>  <mol_properties>  (16) 
{"0": {"label": "*4", "atom_type": "S2s"}, "1": {"label": "*3", "atom_type": "Cs"}, "9": {"label": "*1", "atom_type": "Cs"}, "10": {"label": "*0", "atom_type": "CS"}, "12": {"label": "*2", "atom_type": "H0"}}

>  <type>  (16) 
unop_12

>  <geom_source>  (16) 
Heuristics

$$$$

     RDKit          3D

 16 14  0  0  0  0  0  0  0  0999 V2000
    1.3909    2.0290   -0.1563 S   0  0  0  0  0  0  0  0  0  0  0  0
   -2.7827   -0.3102   -1.5400 S   0  0  0  0  0  0  0  0  0  0  0  0
    0.6357    0.3762   -0.2319 C   0  0  0  0  0  3  0  0  0  0  0  0
    1.5764   -0.6539    0.3164 C   0  0  0  0  0  0  0  0  0  0  0  0
    2.7032   -0.9848   -0.3205 C   0  0  0  0  0  0  0  0  0  0  0  0
   -1.8210    0.4498    0.6824 C   0  0  0  0  0  0  0  0  0  0  0  0
   -2.5465   -0.5578   -0.1471 C   0  0  0  0  0  0  0  0  0  0  0  0
    0.3706    0.1312   -1.2826 H   0  0  0  0  0  0  0  0  0  0  0  0
   -0.5284    0.3824    0.5316 H   0  0  0  0  0  0  0  0  0  0  0  0
    1.3177   -1.1624    1.2399 H   0  0  0  0  0  0  0  0  0  0  0  0
    2.9785   -0.5041   -1.2545 H   0  0  0  0  0  0  0  0  0  0  0  0
    3.3581   -1.7444    0.0938 H   0  0  0  0  0  0  0  0  0  0  0  0
   -2.8404   -1.5084    0.2859 H   0  0  0  0  0  0  0  0  0  0  0  0
   -2.4268    1.3762    0.7778 H   0  0  0  0  0  0  0  0  0  0  0  0
   -1.6275    0.0375    1.6947 H   0  0  0  0  0  0  0  0  0  0  0  0
    0.2423    2.6436   -0.6896 H   0  0  0  0  0  0  0  0  0  0  0  0
  1  3  1  0
  1 16  1  0
  2  7  2  0
  3  4  1  0
  3  8  1  0
  4  5  2  3
  4 10  1  0
  5 11  1  0
  5 12  1  0
  6  7  1  0
  6  9  1  0
  6 14  1  0
  6 15  1  0
  7 13  1  0
M  RAD  1   3   2
M  END
>  <reaction>  (17) 
rxn_1981

>  <mol_properties>  (17) 
{"0": {"label": "*4", "atom_type": "S2s"}, "1": {"label": "*3", "atom_type": "Cs"}, "9": {"label": "*1", "atom_type": "Cs"}, "10": {"label": "*0", "atom_type": "CS"}, "12": {"label": "*2", "atom_type": "H0"}}

>  <type>  (17) 
unop_13

>  <geom_source>  (17) 
AutoTST

$$$$
