
     RDKit          3D

 11 10  0  0  0  0  0  0  0  0999 V2000
   -1.2710    0.1907   -0.2084 C   0  0  0  0  0  0  0  0  0  0  0  0
    0.0202   -0.6130   -0.2928 C   0  0  0  0  0  0  0  0  0  0  0  0
    0.1086   -1.6953    0.7756 C   0  0  0  0  0  0  0  0  0  0  0  0
   -1.3607    0.6851    0.7620 H   0  0  0  0  0  0  0  0  0  0  0  0
   -2.1429   -0.4567   -0.3299 H   0  0  0  0  0  0  0  0  0  0  0  0
   -1.3158    0.9602   -0.9809 H   0  0  0  0  0  0  0  0  0  0  0  0
    0.8757    0.0616   -0.1992 H   0  0  0  0  0  0  0  0  0  0  0  0
    0.0997   -1.0712   -1.2825 H   0  0  0  0  0  0  0  0  0  0  0  0
   -0.7198   -2.4022    0.6850 H   0  0  0  0  0  0  0  0  0  0  0  0
    1.0395   -2.2596    0.6989 H   0  0  0  0  0  0  0  0  0  0  0  0
    0.0624   -1.2603    1.7770 H   0  0  0  0  0  0  0  0  0  0  0  0
  1  2  1  0
  1  4  1  0
  1  5  1  0
  1  6  1  0
  2  3  1  0
  2  7  1  0
  2  8  1  0
  3  9  1  0
  3 10  1  0
  3 11  1  0
M  END
>  <reaction>  (1) 
rxn_927

>  <mol_properties>  (1) 
{"1": {"label": "donator", "atom_type": "Cs"}, "6": {"label": "d_hydrogen", "atom_type": "H0"}}

>  <type>  (1) 
r1h

$$$$

     RDKit          3D

  9  8  0  0  0  0  0  0  0  0999 V2000
    1.8963   -0.1405   -0.2150 C   0  0  0  0  0  0  0  0  0  0  0  0
    0.6340    0.1486   -0.2254 C   0  0  0  0  0  3  0  0  0  0  0  0
   -0.6770    0.4501   -0.2373 C   0  0  0  0  0  0  0  0  0  0  0  0
   -1.6600   -0.2303    0.4662 C   0  0  0  0  0  0  0  0  0  0  0  0
    2.3274   -0.8354   -0.9313 H   0  0  0  0  0  0  0  0  0  0  0  0
    2.5751    0.2988    0.5117 H   0  0  0  0  0  0  0  0  0  0  0  0
   -0.9723    1.2966   -0.8520 H   0  0  0  0  0  0  0  0  0  0  0  0
   -2.6934    0.0777    0.4015 H   0  0  0  0  0  0  0  0  0  0  0  0
   -1.4140   -1.0782    1.0904 H   0  0  0  0  0  0  0  0  0  0  0  0
  1  2  2  3
  1  5  1  0
  1  6  1  0
  2  3  1  0
  3  4  2  3
  3  7  1  0
  4  8  1  0
  4  9  1  0
M  RAD  1   2   2
M  END
>  <reaction>  (2) 
rxn_927

>  <mol_properties>  (2) 
{"1": {"label": "acceptor", "atom_type": "Cd"}}

>  <type>  (2) 
r2

$$$$

     RDKit          3D

 10  9  0  0  0  0  0  0  0  0999 V2000
    1.8334    0.0847   -0.1062 C   0  0  0  0  0  0  0  0  0  0  0  0
    0.5993   -0.4071   -0.0750 C   0  0  0  0  0  0  0  0  0  0  0  0
   -0.5993    0.4071    0.0750 C   0  0  0  0  0  0  0  0  0  0  0  0
   -1.8334   -0.0847    0.1062 C   0  0  0  0  0  0  0  0  0  0  0  0
    2.0179    1.1498   -0.0189 H   0  0  0  0  0  0  0  0  0  0  0  0
    2.6972   -0.5572   -0.2194 H   0  0  0  0  0  0  0  0  0  0  0  0
    0.4465   -1.4793   -0.1649 H   0  0  0  0  0  0  0  0  0  0  0  0
   -0.4465    1.4793    0.1649 H   0  0  0  0  0  0  0  0  0  0  0  0
   -2.0179   -1.1498    0.0189 H   0  0  0  0  0  0  0  0  0  0  0  0
   -2.6972    0.5572    0.2194 H   0  0  0  0  0  0  0  0  0  0  0  0
  1  2  2  3
  1  5  1  0
  1  6  1  0
  2  3  1  0
  2  7  1  0
  3  4  2  3
  3  8  1  0
  4  9  1  0
  4 10  1  0
M  END
>  <reaction>  (3) 
rxn_927

>  <mol_properties>  (3) 
{"1": {"label": "acceptor", "atom_type": "Cd"}, "9": {"label": "a_hydrogen", "atom_type": "H0"}}

>  <type>  (3) 
r2h

$$$$

     RDKit          3D

 20 18  0  0  0  0  0  0  0  0999 V2000
    1.6896    0.4079    1.3644 C   0  0  0  0  0  0  0  0  0  0  0  0
    0.8353   -0.3845    0.7448 C   0  0  0  0  0  3  0  0  0  0  0  0
    0.8813   -1.8191    0.5659 C   0  0  0  0  0  0  0  0  0  0  0  0
   -0.0592   -2.5327   -0.0453 C   0  0  0  0  0  0  0  0  0  0  0  0
    1.5341    1.4793    1.4239 H   0  0  0  0  0  0  0  0  0  0  0  0
    2.5855    0.0167    1.8444 H   0  0  0  0  0  0  0  0  0  0  0  0
    1.7580   -2.3263    0.9697 H   0  0  0  0  0  0  0  0  0  0  0  0
    0.0262   -3.6063   -0.1499 H   0  0  0  0  0  0  0  0  0  0  0  0
   -0.9444   -2.0617   -0.4562 H   0  0  0  0  0  0  0  0  0  0  0  0
   -0.9295    0.8169   -1.9093 C   0  0  0  0  0  0  0  0  0  0  0  0
   -1.2092    0.9072   -0.4291 C   0  0  0  0  0  0  0  0  0  0  0  0
   -1.1672    2.2979    0.1552 C   0  0  0  0  0  0  0  0  0  0  0  0
    0.0387    1.2634   -2.1479 H   0  0  0  0  0  0  0  0  0  0  0  0
   -1.6909    1.3492   -2.4887 H   0  0  0  0  0  0  0  0  0  0  0  0
   -0.9126   -0.2188   -2.2529 H   0  0  0  0  0  0  0  0  0  0  0  0
   -0.2778    0.2554    0.1466 H   0  0  0  0  0  0  0  0  0  0  0  0
   -2.1074    0.3604   -0.1355 H   0  0  0  0  0  0  0  0  0  0  0  0
   -1.9624    2.9251   -0.2614 H   0  0  0  0  0  0  0  0  0  0  0  0
   -1.2911    2.2802    1.2392 H   0  0  0  0  0  0  0  0  0  0  0  0
   -0.2161    2.7865   -0.0713 H   0  0  0  0  0  0  0  0  0  0  0  0
  1  2  2  3
  1  5  1  0
  1  6  1  0
  2  3  1  0
  3  4  2  3
  3  7  1  0
  4  8  1  0
  4  9  1  0
 10 11  1  0
 10 13  1  0
 10 14  1  0
 10 15  1  0
 11 12  1  0
 11 16  1  0
 11 17  1  0
 12 18  1  0
 12 19  1  0
 12 20  1  0
M  RAD  1   2   2
M  END
>  <reaction>  (4) 
rxn_927

>  <mol_properties>  (4) 
{"1": {"label": "*3", "atom_type": "Cd"}, "2": {"label": "*4", "atom_type": "Cd"}, "9": {"label": "*0", "atom_type": "Cs"}, "10": {"label": "*1", "atom_type": "Cs"}, "15": {"label": "*2", "atom_type": "H0"}}

>  <type>  (4) 
ts

$$$$

     RDKit          3D

 20 18  0  0  0  0  0  0  0  0999 V2000
    0.2968   -2.2585    0.5544 C   0  0  0  0  0  0  0  0  0  0  0  0
    0.6841   -1.0132    0.2992 C   0  0  0  0  0  0  0  0  0  0  0  0
    1.6164   -0.2629    1.1300 C   0  0  0  0  0  0  0  0  0  0  0  0
    2.0038    0.9824    0.8747 C   0  0  0  0  0  0  0  0  0  0  0  0
   -0.3987   -2.7795   -0.0903 H   0  0  0  0  0  0  0  0  0  0  0  0
    0.6657   -2.7970    1.4204 H   0  0  0  0  0  0  0  0  0  0  0  0
    2.0037   -0.7764    2.0058 H   0  0  0  0  0  0  0  0  0  0  0  0
    2.6993    1.5035    1.5195 H   0  0  0  0  0  0  0  0  0  0  0  0
    1.6349    1.5209    0.0087 H   0  0  0  0  0  0  0  0  0  0  0  0
   -1.4081    0.2939   -2.0950 C   0  0  0  0  0  0  0  0  0  0  0  0
   -1.4081    0.2939   -0.5717 C   0  0  0  0  0  3  0  0  0  0  0  0
   -1.4081    1.6998    0.0150 C   0  0  0  0  0  0  0  0  0  0  0  0
   -0.5267    0.8082   -2.4857 H   0  0  0  0  0  0  0  0  0  0  0  0
   -2.2896    0.8082   -2.4857 H   0  0  0  0  0  0  0  0  0  0  0  0
   -1.4081   -0.7210   -2.4962 H   0  0  0  0  0  0  0  0  0  0  0  0
   -0.3587   -0.3617   -0.1349 H   0  0  0  0  0  0  0  0  0  0  0  0
   -2.2827   -0.2524   -0.2077 H   0  0  0  0  0  0  0  0  0  0  0  0
   -2.2896    2.2583   -0.3091 H   0  0  0  0  0  0  0  0  0  0  0  0
   -1.4082    1.6791    1.1061 H   0  0  0  0  0  0  0  0  0  0  0  0
   -0.5267    2.2583   -0.3091 H   0  0  0  0  0  0  0  0  0  0  0  0
  1  2  2  3
  1  5  1  0
  1  6  1  0
  2  3  1  0
  2 16  1  0
  3  4  2  3
  3  7  1  0
  4  8  1  0
  4  9  1  0
 10 11  1  0
 10 13  1  0
 10 14  1  0
 10 15  1  0
 11 12  1  0
 11 17  1  0
 12 18  1  0
 12 19  1  0
 12 20  1  0
M  RAD  1  11   2
M  END
>  <reaction>  (5) 
rxn_927

>  <mol_properties>  (5) 
{"1": {"label": "*3", "atom_type": "Cd"}, "2": {"label": "*4", "atom_type": "Cd"}, "9": {"label": "*0", "atom_type": "Cs"}, "10": {"label": "*1", "atom_type": "Cs"}, "15": {"label": "*2", "atom_type": "H0"}}

>  <type>  (5) 
unop_1

>  <geom_source>  (5) 
Heuristics

$$$$

     RDKit          3D

 20 18  0  0  0  0  0  0  0  0999 V2000
    0.6262   -1.1490    2.0574 C   0  0  0  0  0  0  0  0  0  0  0  0
    0.6088   -0.8154    0.7712 C   0  0  0  0  0  0  0  0  0  0  0  0
    1.7913   -0.7847   -0.0792 C   0  0  0  0  0  0  0  0  0  0  0  0
    1.7738   -0.4511   -1.3654 C   0  0  0  0  0  0  0  0  0  0  0  0
   -0.2771   -1.1587    2.6532 H   0  0  0  0  0  0  0  0  0  0  0  0
    1.5493   -1.4240    2.5558 H   0  0  0  0  0  0  0  0  0  0  0  0
    2.7321   -1.0556    0.3923 H   0  0  0  0  0  0  0  0  0  0  0  0
    2.6771   -0.4415   -1.9611 H   0  0  0  0  0  0  0  0  0  0  0  0
    0.8507   -0.1761   -1.8637 H   0  0  0  0  0  0  0  0  0  0  0  0
   -1.4835    0.4917   -1.6230 C   0  0  0  0  0  0  0  0  0  0  0  0
   -1.4835    0.4917   -0.0996 C   0  0  0  0  0  3  0  0  0  0  0  0
   -1.4835    1.8975    0.4871 C   0  0  0  0  0  0  0  0  0  0  0  0
   -0.6021    1.0060   -2.0136 H   0  0  0  0  0  0  0  0  0  0  0  0
   -2.3650    1.0060   -2.0136 H   0  0  0  0  0  0  0  0  0  0  0  0
   -1.4835   -0.5232   -2.0241 H   0  0  0  0  0  0  0  0  0  0  0  0
   -0.4341   -0.1639    0.3372 H   0  0  0  0  0  0  0  0  0  0  0  0
   -2.3581   -0.0547    0.2644 H   0  0  0  0  0  0  0  0  0  0  0  0
   -2.3650    2.4561    0.1629 H   0  0  0  0  0  0  0  0  0  0  0  0
   -1.4835    1.8768    1.5782 H   0  0  0  0  0  0  0  0  0  0  0  0
   -0.6021    2.4561    0.1629 H   0  0  0  0  0  0  0  0  0  0  0  0
  1  2  2  3
  1  5  1  0
  1  6  1  0
  2  3  1  0
  2 16  1  0
  3  4  2  3
  3  7  1  0
  4  8  1  0
  4  9  1  0
 10 11  1  0
 10 13  1  0
 10 14  1  0
 10 15  1  0
 11 12  1  0
 11 17  1  0
 12 18  1  0
 12 19  1  0
 12 20  1  0
M  RAD  1  11   2
M  END
>  <reaction>  (6) 
rxn_927

>  <mol_properties>  (6) 
{"1": {"label": "*3", "atom_type": "Cd"}, "2": {"label": "*4", "atom_type": "Cd"}, "9": {"label": "*0", "atom_type": "Cs"}, "10": {"label": "*1", "atom_type": "Cs"}, "15": {"label": "*2", "atom_type": "H0"}}

>  <type>  (6) 
unop_2

>  <geom_source>  (6) 
Heuristics

$$$$

     RDKit          3D

 20 18  0  0  0  0  0  0  0  0999 V2000
    0.8149   -2.1767   -0.2583 C   0  0  0  0  0  0  0  0  0  0  0  0
    0.7915   -0.9212    0.1765 C   0  0  0  0  0  0  0  0  0  0  0  0
    1.3358   -0.4918    1.4577 C   0  0  0  0  0  0  0  0  0  0  0  0
    1.3124    0.7638    1.8925 C   0  0  0  0  0  0  0  0  0  0  0  0
    0.3984   -2.4524   -1.2182 H   0  0  0  0  0  0  0  0  0  0  0  0
    1.2535   -2.9707    0.3361 H   0  0  0  0  0  0  0  0  0  0  0  0
    1.7825   -1.2656    2.0763 H   0  0  0  0  0  0  0  0  0  0  0  0
    1.7289    1.0395    2.8524 H   0  0  0  0  0  0  0  0  0  0  0  0
    0.8738    1.5578    1.2981 H   0  0  0  0  0  0  0  0  0  0  0  0
   -1.3008    0.3860   -2.2177 C   0  0  0  0  0  0  0  0  0  0  0  0
   -1.3008    0.3860   -0.6944 C   0  0  0  0  0  3  0  0  0  0  0  0
   -1.3008    1.7918   -0.1077 C   0  0  0  0  0  0  0  0  0  0  0  0
   -0.4193    0.9002   -2.6084 H   0  0  0  0  0  0  0  0  0  0  0  0
   -2.1822    0.9002   -2.6084 H   0  0  0  0  0  0  0  0  0  0  0  0
   -1.3008   -0.6289   -2.6189 H   0  0  0  0  0  0  0  0  0  0  0  0
   -0.2513   -0.2697   -0.2576 H   0  0  0  0  0  0  0  0  0  0  0  0
   -2.1753   -0.1604   -0.3304 H   0  0  0  0  0  0  0  0  0  0  0  0
   -2.1822    2.3503   -0.4318 H   0  0  0  0  0  0  0  0  0  0  0  0
   -1.3008    1.7711    0.9834 H   0  0  0  0  0  0  0  0  0  0  0  0
   -0.4193    2.3503   -0.4318 H   0  0  0  0  0  0  0  0  0  0  0  0
  1  2  2  3
  1  5  1  0
  1  6  1  0
  2  3  1  0
  2 16  1  0
  3  4  2  3
  3  7  1  0
  4  8  1  0
  4  9  1  0
 10 11  1  0
 10 13  1  0
 10 14  1  0
 10 15  1  0
 11 12  1  0
 11 17  1  0
 12 18  1  0
 12 19  1  0
 12 20  1  0
M  RAD  1  11   2
M  END
>  <reaction>  (7) 
rxn_927

>  <mol_properties>  (7) 
{"1": {"label": "*3", "atom_type": "Cd"}, "2": {"label": "*4", "atom_type": "Cd"}, "9": {"label": "*0", "atom_type": "Cs"}, "10": {"label": "*1", "atom_type": "Cs"}, "15": {"label": "*2", "atom_type": "H0"}}

>  <type>  (7) 
unop_3

>  <geom_source>  (7) 
Heuristics

$$$$

     RDKit          3D

 20 18  0  0  0  0  0  0  0  0999 V2000
    1.3665    0.0645    1.7976 C   0  0  0  0  0  0  0  0  0  0  0  0
    0.9140   -0.4139    0.6434 C   0  0  0  0  0  0  0  0  0  0  0  0
    1.0170   -1.8110    0.2435 C   0  0  0  0  0  0  0  0  0  0  0  0
    0.5644   -2.2895   -0.9107 C   0  0  0  0  0  0  0  0  0  0  0  0
    1.2691    1.1110    2.0550 H   0  0  0  0  0  0  0  0  0  0  0  0
    1.8505   -0.5795    2.5236 H   0  0  0  0  0  0  0  0  0  0  0  0
    1.4976   -2.4815    0.9508 H   0  0  0  0  0  0  0  0  0  0  0  0
    0.6618   -3.3360   -1.1681 H   0  0  0  0  0  0  0  0  0  0  0  0
    0.0805   -1.6454   -1.6367 H   0  0  0  0  0  0  0  0  0  0  0  0
   -1.1783    0.8932   -1.7508 C   0  0  0  0  0  0  0  0  0  0  0  0
   -1.1783    0.8932   -0.2275 C   0  0  0  0  0  3  0  0  0  0  0  0
   -1.1783    2.2990    0.3593 C   0  0  0  0  0  0  0  0  0  0  0  0
   -0.2969    1.4075   -2.1414 H   0  0  0  0  0  0  0  0  0  0  0  0
   -2.0598    1.4075   -2.1414 H   0  0  0  0  0  0  0  0  0  0  0  0
   -1.1783   -0.1217   -2.1519 H   0  0  0  0  0  0  0  0  0  0  0  0
   -0.1289    0.2376    0.2093 H   0  0  0  0  0  0  0  0  0  0  0  0
   -2.0529    0.3468    0.1365 H   0  0  0  0  0  0  0  0  0  0  0  0
   -2.0598    2.8576    0.0351 H   0  0  0  0  0  0  0  0  0  0  0  0
   -1.1783    2.2783    1.4504 H   0  0  0  0  0  0  0  0  0  0  0  0
   -0.2969    2.8576    0.0351 H   0  0  0  0  0  0  0  0  0  0  0  0
  1  2  2  3
  1  5  1  0
  1  6  1  0
  2  3  1  0
  2 16  1  0
  3  4  2  3
  3  7  1  0
  4  8  1  0
  4  9  1  0
 10 11  1  0
 10 13  1  0
 10 14  1  0
 10 15  1  0
 11 12  1  0
 11 17  1  0
 12 18  1  0
 12 19  1  0
 12 20  1  0
M  RAD  1  11   2
M  END
>  <reaction>  (8) 
rxn_927

>  <mol_properties>  (8) 
{"1": {"label": "*3", "atom_type": "Cd"}, "2": {"label": "*4", "atom_type": "Cd"}, "9": {"label": "*0", "atom_type": "Cs"}, "10": {"label": "*1", "atom_type": "Cs"}, "15": {"label": "*2", "atom_type": "H0"}}

>  <type>  (8) 
unop_4

>  <geom_source>  (8) 
Heuristics

$$$$

     RDKit          3D

 20 18  0  0  0  0  0  0  0  0999 V2000
    1.7481   -1.3098   -0.7380 C   0  0  0  0  0  0  0  0  0  0  0  0
    0.8971   -0.7781    0.1332 C   0  0  0  0  0  0  0  0  0  0  0  0
    1.0463   -0.8713    1.5794 C   0  0  0  0  0  0  0  0  0  0  0  0
    0.1952   -0.3397    2.4506 C   0  0  0  0  0  0  0  0  0  0  0  0
    1.5990   -1.2166   -1.8057 H   0  0  0  0  0  0  0  0  0  0  0  0
    2.6242   -1.8571   -0.4077 H   0  0  0  0  0  0  0  0  0  0  0  0
    1.9153   -1.4142    1.9411 H   0  0  0  0  0  0  0  0  0  0  0  0
    0.3444   -0.4328    3.5183 H   0  0  0  0  0  0  0  0  0  0  0  0
   -0.6808    0.2076    2.1203 H   0  0  0  0  0  0  0  0  0  0  0  0
   -1.1952    0.5290   -2.2610 C   0  0  0  0  0  0  0  0  0  0  0  0
   -1.1952    0.5290   -0.7376 C   0  0  0  0  0  3  0  0  0  0  0  0
   -1.1952    1.9348   -0.1509 C   0  0  0  0  0  0  0  0  0  0  0  0
   -0.3138    1.0433   -2.6516 H   0  0  0  0  0  0  0  0  0  0  0  0
   -2.0767    1.0433   -2.6516 H   0  0  0  0  0  0  0  0  0  0  0  0
   -1.1952   -0.4859   -2.6621 H   0  0  0  0  0  0  0  0  0  0  0  0
   -0.1458   -0.1266   -0.3008 H   0  0  0  0  0  0  0  0  0  0  0  0
   -2.0697   -0.0173   -0.3736 H   0  0  0  0  0  0  0  0  0  0  0  0
   -2.0767    2.4934   -0.4751 H   0  0  0  0  0  0  0  0  0  0  0  0
   -1.1952    1.9141    0.9402 H   0  0  0  0  0  0  0  0  0  0  0  0
   -0.3138    2.4934   -0.4751 H   0  0  0  0  0  0  0  0  0  0  0  0
  1  2  2  3
  1  5  1  0
  1  6  1  0
  2  3  1  0
  2 16  1  0
  3  4  2  3
  3  7  1  0
  4  8  1  0
  4  9  1  0
 10 11  1  0
 10 13  1  0
 10 14  1  0
 10 15  1  0
 11 12  1  0
 11 17  1  0
 12 18  1  0
 12 19  1  0
 12 20  1  0
M  RAD  1  11   2
M  END
>  <reaction>  (9) 
rxn_927

>  <mol_properties>  (9) 
{"1": {"label": "*3", "atom_type": "Cd"}, "2": {"label": "*4", "atom_type": "Cd"}, "9": {"label": "*0", "atom_type": "Cs"}, "10": {"label": "*1", "atom_type": "Cs"}, "15": {"label": "*2", "atom_type": "H0"}}

>  <type>  (9) 
unop_5

>  <geom_source>  (9) 
Heuristics

$$$$

     RDKit          3D

 20 18  0  0  0  0  0  0  0  0999 V2000
    1.6741    0.3899    1.2851 C   0  0  0  0  0  0  0  0  0  0  0  0
    0.9912   -0.4073    0.4703 C   0  0  0  0  0  0  0  0  0  0  0  0
    0.8173   -1.8376    0.6857 C   0  0  0  0  0  0  0  0  0  0  0  0
    0.1343   -2.6348   -0.1291 C   0  0  0  0  0  0  0  0  0  0  0  0
    1.7785    1.4485    1.0869 H   0  0  0  0  0  0  0  0  0  0  0  0
    2.1518    0.0055    2.1796 H   0  0  0  0  0  0  0  0  0  0  0  0
    1.2849   -2.2523    1.5746 H   0  0  0  0  0  0  0  0  0  0  0  0
    0.0299   -3.6935    0.0691 H   0  0  0  0  0  0  0  0  0  0  0  0
   -0.3434   -2.2505   -1.0236 H   0  0  0  0  0  0  0  0  0  0  0  0
   -1.1011    0.8998   -1.9239 C   0  0  0  0  0  0  0  0  0  0  0  0
   -1.1011    0.8998   -0.4006 C   0  0  0  0  0  3  0  0  0  0  0  0
   -1.1011    2.3056    0.1861 C   0  0  0  0  0  0  0  0  0  0  0  0
   -0.2197    1.4140   -2.3146 H   0  0  0  0  0  0  0  0  0  0  0  0
   -1.9826    1.4140   -2.3146 H   0  0  0  0  0  0  0  0  0  0  0  0
   -1.1011   -0.1151   -2.3251 H   0  0  0  0  0  0  0  0  0  0  0  0
   -0.0517    0.2442    0.0362 H   0  0  0  0  0  0  0  0  0  0  0  0
   -1.9757    0.3534   -0.0366 H   0  0  0  0  0  0  0  0  0  0  0  0
   -1.9826    2.8642   -0.1380 H   0  0  0  0  0  0  0  0  0  0  0  0
   -1.1011    2.2849    1.2772 H   0  0  0  0  0  0  0  0  0  0  0  0
   -0.2197    2.8642   -0.1380 H   0  0  0  0  0  0  0  0  0  0  0  0
  1  2  2  3
  1  5  1  0
  1  6  1  0
  2  3  1  0
  2 16  1  0
  3  4  2  3
  3  7  1  0
  4  8  1  0
  4  9  1  0
 10 11  1  0
 10 13  1  0
 10 14  1  0
 10 15  1  0
 11 12  1  0
 11 17  1  0
 12 18  1  0
 12 19  1  0
 12 20  1  0
M  RAD  1  11   2
M  END
>  <reaction>  (10) 
rxn_927

>  <mol_properties>  (10) 
{"1": {"label": "*3", "atom_type": "Cd"}, "2": {"label": "*4", "atom_type": "Cd"}, "9": {"label": "*0", "atom_type": "Cs"}, "10": {"label": "*1", "atom_type": "Cs"}, "15": {"label": "*2", "atom_type": "H0"}}

>  <type>  (10) 
unop_6

>  <geom_source>  (10) 
Heuristics

$$$$

     RDKit          3D

 20 18  0  0  0  0  0  0  0  0999 V2000
    1.9642    0.4106    0.5544 C   0  0  0  0  0  0  0  0  0  0  0  0
    1.0149   -0.4837    0.2992 C   0  0  0  0  0  0  0  0  0  0  0  0
    0.7495   -1.6506    1.1300 C   0  0  0  0  0  0  0  0  0  0  0  0
   -0.1998   -2.5448    0.8747 C   0  0  0  0  0  0  0  0  0  0  0  0
    2.1275    1.2641   -0.0903 H   0  0  0  0  0  0  0  0  0  0  0  0
    2.6100    0.3152    1.4204 H   0  0  0  0  0  0  0  0  0  0  0  0
    1.3809   -1.7734    2.0058 H   0  0  0  0  0  0  0  0  0  0  0  0
   -0.3631   -3.3984    1.5195 H   0  0  0  0  0  0  0  0  0  0  0  0
   -0.8455   -2.4495    0.0087 H   0  0  0  0  0  0  0  0  0  0  0  0
   -1.0774    0.8235   -2.0950 C   0  0  0  0  0  0  0  0  0  0  0  0
   -1.0774    0.8235   -0.5717 C   0  0  0  0  0  3  0  0  0  0  0  0
   -1.0774    2.2293    0.0150 C   0  0  0  0  0  0  0  0  0  0  0  0
   -0.1959    1.3377   -2.4857 H   0  0  0  0  0  0  0  0  0  0  0  0
   -1.9588    1.3377   -2.4857 H   0  0  0  0  0  0  0  0  0  0  0  0
   -1.0773   -0.1914   -2.4962 H   0  0  0  0  0  0  0  0  0  0  0  0
   -0.0279    0.1678   -0.1349 H   0  0  0  0  0  0  0  0  0  0  0  0
   -1.9519    0.2771   -0.2077 H   0  0  0  0  0  0  0  0  0  0  0  0
   -1.9588    2.7878   -0.3091 H   0  0  0  0  0  0  0  0  0  0  0  0
   -1.0774    2.2086    1.1061 H   0  0  0  0  0  0  0  0  0  0  0  0
   -0.1959    2.7878   -0.3091 H   0  0  0  0  0  0  0  0  0  0  0  0
  1  2  2  3
  1  5  1  0
  1  6  1  0
  2  3  1  0
  2 16  1  0
  3  4  2  3
  3  7  1  0
  4  8  1  0
  4  9  1  0
 10 11  1  0
 10 13  1  0
 10 14  1  0
 10 15  1  0
 11 12  1  0
 11 17  1  0
 12 18  1  0
 12 19  1  0
 12 20  1  0
M  RAD  1  11   2
M  END
>  <reaction>  (11) 
rxn_927

>  <mol_properties>  (11) 
{"1": {"label": "*3", "atom_type": "Cd"}, "2": {"label": "*4", "atom_type": "Cd"}, "9": {"label": "*0", "atom_type": "Cs"}, "10": {"label": "*1", "atom_type": "Cs"}, "15": {"label": "*2", "atom_type": "H0"}}

>  <type>  (11) 
unop_7

>  <geom_source>  (11) 
Heuristics

$$$$

     RDKit          3D

 20 18  0  0  0  0  0  0  0  0999 V2000
    0.1882   -1.9887    1.2851 C   0  0  0  0  0  0  0  0  0  0  0  0
    0.6051   -1.0253    0.4703 C   0  0  0  0  0  0  0  0  0  0  0  0
    1.8143   -0.2418    0.6857 C   0  0  0  0  0  0  0  0  0  0  0  0
    2.2312    0.7216   -0.1291 C   0  0  0  0  0  0  0  0  0  0  0  0
   -0.7175   -2.5468    1.0869 H   0  0  0  0  0  0  0  0  0  0  0  0
    0.7431   -2.2494    2.1796 H   0  0  0  0  0  0  0  0  0  0  0  0
    2.3921   -0.4802    1.5746 H   0  0  0  0  0  0  0  0  0  0  0  0
    3.1368    1.2797    0.0691 H   0  0  0  0  0  0  0  0  0  0  0  0
    1.6763    0.9824   -1.0236 H   0  0  0  0  0  0  0  0  0  0  0  0
   -1.4872    0.2819   -1.9239 C   0  0  0  0  0  0  0  0  0  0  0  0
   -1.4872    0.2819   -0.4006 C   0  0  0  0  0  3  0  0  0  0  0  0
   -1.4872    1.6877    0.1861 C   0  0  0  0  0  0  0  0  0  0  0  0
   -0.6057    0.7961   -2.3146 H   0  0  0  0  0  0  0  0  0  0  0  0
   -2.3686    0.7961   -2.3146 H   0  0  0  0  0  0  0  0  0  0  0  0
   -1.4872   -0.7330   -2.3251 H   0  0  0  0  0  0  0  0  0  0  0  0
   -0.4377   -0.3738    0.0362 H   0  0  0  0  0  0  0  0  0  0  0  0
   -2.3617   -0.2645   -0.0366 H   0  0  0  0  0  0  0  0  0  0  0  0
   -2.3686    2.2462   -0.1380 H   0  0  0  0  0  0  0  0  0  0  0  0
   -1.4872    1.6670    1.2772 H   0  0  0  0  0  0  0  0  0  0  0  0
   -0.6057    2.2462   -0.1380 H   0  0  0  0  0  0  0  0  0  0  0  0
  1  2  2  3
  1  5  1  0
  1  6  1  0
  2  3  1  0
  2 16  1  0
  3  4  2  3
  3  7  1  0
  4  8  1  0
  4  9  1  0
 10 11  1  0
 10 13  1  0
 10 14  1  0
 10 15  1  0
 11 12  1  0
 11 17  1  0
 12 18  1  0
 12 19  1  0
 12 20  1  0
M  RAD  1  11   2
M  END
>  <reaction>  (12) 
rxn_927

>  <mol_properties>  (12) 
{"1": {"label": "*3", "atom_type": "Cd"}, "2": {"label": "*4", "atom_type": "Cd"}, "9": {"label": "*0", "atom_type": "Cs"}, "10": {"label": "*1", "atom_type": "Cs"}, "15": {"label": "*2", "atom_type": "H0"}}

>  <type>  (12) 
unop_8

>  <geom_source>  (12) 
Heuristics

$$$$

     RDKit          3D

 20 18  0  0  0  0  0  0  0  0999 V2000
    1.1116   -0.3720    2.0574 C   0  0  0  0  0  0  0  0  0  0  0  0
    0.8042   -0.5027    0.7712 C   0  0  0  0  0  0  0  0  0  0  0  0
    1.2951   -1.5788   -0.0792 C   0  0  0  0  0  0  0  0  0  0  0  0
    0.9877   -1.7095   -1.3654 C   0  0  0  0  0  0  0  0  0  0  0  0
    0.7241    0.4440    2.6532 H   0  0  0  0  0  0  0  0  0  0  0  0
    1.7636   -1.0810    2.5558 H   0  0  0  0  0  0  0  0  0  0  0  0
    1.9512   -2.3056    0.3923 H   0  0  0  0  0  0  0  0  0  0  0  0
    1.3752   -2.5255   -1.9611 H   0  0  0  0  0  0  0  0  0  0  0  0
    0.3357   -1.0005   -1.8637 H   0  0  0  0  0  0  0  0  0  0  0  0
   -1.2881    0.8045   -1.6230 C   0  0  0  0  0  0  0  0  0  0  0  0
   -1.2881    0.8045   -0.0996 C   0  0  0  0  0  3  0  0  0  0  0  0
   -1.2881    2.2103    0.4871 C   0  0  0  0  0  0  0  0  0  0  0  0
   -0.4067    1.3187   -2.0136 H   0  0  0  0  0  0  0  0  0  0  0  0
   -2.1696    1.3187   -2.0136 H   0  0  0  0  0  0  0  0  0  0  0  0
   -1.2881   -0.2104   -2.0241 H   0  0  0  0  0  0  0  0  0  0  0  0
   -0.2387    0.1489    0.3372 H   0  0  0  0  0  0  0  0  0  0  0  0
   -2.1627    0.2581    0.2644 H   0  0  0  0  0  0  0  0  0  0  0  0
   -2.1696    2.7689    0.1629 H   0  0  0  0  0  0  0  0  0  0  0  0
   -1.2881    2.1896    1.5782 H   0  0  0  0  0  0  0  0  0  0  0  0
   -0.4067    2.7689    0.1629 H   0  0  0  0  0  0  0  0  0  0  0  0
  1  2  2  3
  1  5  1  0
  1  6  1  0
  2  3  1  0
  2 16  1  0
  3  4  2  3
  3  7  1  0
  4  8  1  0
  4  9  1  0
 10 11  1  0
 10 13  1  0
 10 14  1  0
 10 15  1  0
 11 12  1  0
 11 17  1  0
 12 18  1  0
 12 19  1  0
 12 20  1  0
M  RAD  1  11   2
M  END
>  <reaction>  (13) 
rxn_927

>  <mol_properties>  (13) 
{"1": {"label": "*3", "atom_type": "Cd"}, "2": {"label": "*4", "atom_type": "Cd"}, "9": {"label": "*0", "atom_type": "Cs"}, "10": {"label": "*1", "atom_type": "Cs"}, "15": {"label": "*2", "atom_type": "H0"}}

>  <type>  (13) 
unop_9

>  <geom_source>  (13) 
Heuristics

$$$$

     RDKit          3D

 20 18  0  0  0  0  0  0  0  0999 V2000
    0.3456   -1.5695    1.7976 C   0  0  0  0  0  0  0  0  0  0  0  0
    0.5772   -0.9530    0.6434 C   0  0  0  0  0  0  0  0  0  0  0  0
    1.8779   -0.4329    0.2435 C   0  0  0  0  0  0  0  0  0  0  0  0
    2.1095    0.1836   -0.9107 C   0  0  0  0  0  0  0  0  0  0  0  0
   -0.6376   -1.9410    2.0550 H   0  0  0  0  0  0  0  0  0  0  0  0
    1.1367   -1.7220    2.5236 H   0  0  0  0  0  0  0  0  0  0  0  0
    2.6913   -0.5708    0.9508 H   0  0  0  0  0  0  0  0  0  0  0  0
    3.0927    0.5551   -1.1681 H   0  0  0  0  0  0  0  0  0  0  0  0
    1.3184    0.3361   -1.6367 H   0  0  0  0  0  0  0  0  0  0  0  0
   -1.5151    0.3541   -1.7508 C   0  0  0  0  0  0  0  0  0  0  0  0
   -1.5151    0.3541   -0.2275 C   0  0  0  0  0  3  0  0  0  0  0  0
   -1.5151    1.7599    0.3593 C   0  0  0  0  0  0  0  0  0  0  0  0
   -0.6337    0.8684   -2.1414 H   0  0  0  0  0  0  0  0  0  0  0  0
   -2.3966    0.8684   -2.1414 H   0  0  0  0  0  0  0  0  0  0  0  0
   -1.5151   -0.6608   -2.1519 H   0  0  0  0  0  0  0  0  0  0  0  0
   -0.4657   -0.3015    0.2093 H   0  0  0  0  0  0  0  0  0  0  0  0
   -2.3896   -0.1922    0.1365 H   0  0  0  0  0  0  0  0  0  0  0  0
   -2.3966    2.3185    0.0351 H   0  0  0  0  0  0  0  0  0  0  0  0
   -1.5151    1.7392    1.4504 H   0  0  0  0  0  0  0  0  0  0  0  0
   -0.6337    2.3185    0.0351 H   0  0  0  0  0  0  0  0  0  0  0  0
  1  2  2  3
  1  5  1  0
  1  6  1  0
  2  3  1  0
  2 16  1  0
  3  4  2  3
  3  7  1  0
  4  8  1  0
  4  9  1  0
 10 11  1  0
 10 13  1  0
 10 14  1  0
 10 15  1  0
 11 12  1  0
 11 17  1  0
 12 18  1  0
 12 19  1  0
 12 20  1  0
M  RAD  1  11   2
M  END
>  <reaction>  (14) 
rxn_927

>  <mol_properties>  (14) 
{"1": {"label": "*3", "atom_type": "Cd"}, "2": {"label": "*4", "atom_type": "Cd"}, "9": {"label": "*0", "atom_type": "Cs"}, "10": {"label": "*1", "atom_type": "Cs"}, "15": {"label": "*2", "atom_type": "H0"}}

>  <type>  (14) 
unop_10

>  <geom_source>  (14) 
Heuristics

$$$$

     RDKit          3D

 20 18  0  0  0  0  0  0  0  0999 V2000
    2.1180   -0.0909   -0.2583 C   0  0  0  0  0  0  0  0  0  0  0  0
    0.9793   -0.6205    0.1765 C   0  0  0  0  0  0  0  0  0  0  0  0
    0.8321   -1.2980    1.4577 C   0  0  0  0  0  0  0  0  0  0  0  0
   -0.3065   -1.8276    1.8925 C   0  0  0  0  0  0  0  0  0  0  0  0
    2.1831    0.4043   -1.2182 H   0  0  0  0  0  0  0  0  0  0  0  0
    3.0239   -0.1369    0.3361 H   0  0  0  0  0  0  0  0  0  0  0  0
    1.7234   -1.3601    2.0763 H   0  0  0  0  0  0  0  0  0  0  0  0
   -0.3716   -2.3228    2.8524 H   0  0  0  0  0  0  0  0  0  0  0  0
   -1.2124   -1.7816    1.2981 H   0  0  0  0  0  0  0  0  0  0  0  0
   -1.1130    0.6866   -2.2177 C   0  0  0  0  0  0  0  0  0  0  0  0
   -1.1130    0.6866   -0.6944 C   0  0  0  0  0  3  0  0  0  0  0  0
   -1.1130    2.0924   -0.1077 C   0  0  0  0  0  0  0  0  0  0  0  0
   -0.2315    1.2009   -2.6084 H   0  0  0  0  0  0  0  0  0  0  0  0
   -1.9944    1.2009   -2.6084 H   0  0  0  0  0  0  0  0  0  0  0  0
   -1.1130   -0.3283   -2.6189 H   0  0  0  0  0  0  0  0  0  0  0  0
   -0.0635    0.0310   -0.2576 H   0  0  0  0  0  0  0  0  0  0  0  0
   -1.9875    0.1403   -0.3304 H   0  0  0  0  0  0  0  0  0  0  0  0
   -1.9944    2.6510   -0.4318 H   0  0  0  0  0  0  0  0  0  0  0  0
   -1.1130    2.0718    0.9834 H   0  0  0  0  0  0  0  0  0  0  0  0
   -0.2315    2.6510   -0.4318 H   0  0  0  0  0  0  0  0  0  0  0  0
  1  2  2  3
  1  5  1  0
  1  6  1  0
  2  3  1  0
  2 16  1  0
  3  4  2  3
  3  7  1  0
  4  8  1  0
  4  9  1  0
 10 11  1  0
 10 13  1  0
 10 14  1  0
 10 15  1  0
 11 12  1  0
 11 17  1  0
 12 18  1  0
 12 19  1  0
 12 20  1  0
M  RAD  1  11   2
M  END
>  <reaction>  (15) 
rxn_927

>  <mol_properties>  (15) 
{"1": {"label": "*3", "atom_type": "Cd"}, "2": {"label": "*4", "atom_type": "Cd"}, "9": {"label": "*0", "atom_type": "Cs"}, "10": {"label": "*1", "atom_type": "Cs"}, "15": {"label": "*2", "atom_type": "H0"}}

>  <type>  (15) 
unop_11

>  <geom_source>  (15) 
Heuristics

$$$$

     RDKit          3D

 20 18  0  0  0  0  0  0  0  0999 V2000
    0.8906   -0.7741    2.1263 C   0  0  0  0  0  0  0  0  0  0  0  0
    0.6920   -0.6500    0.8183 C   0  0  0  0  0  0  0  0  0  0  0  0
    1.5781   -1.2036   -0.1970 C   0  0  0  0  0  0  0  0  0  0  0  0
    1.3795   -1.0795   -1.5051 C   0  0  0  0  0  0  0  0  0  0  0  0
    0.2060   -0.3464    2.8470 H   0  0  0  0  0  0  0  0  0  0  0  0
    1.7483   -1.3099    2.5177 H   0  0  0  0  0  0  0  0  0  0  0  0
    2.4471   -1.7465    0.1647 H   0  0  0  0  0  0  0  0  0  0  0  0
    2.0641   -1.5072   -2.2258 H   0  0  0  0  0  0  0  0  0  0  0  0
    0.5218   -0.5436   -1.8965 H   0  0  0  0  0  0  0  0  0  0  0  0
   -1.4003    0.6571   -1.5759 C   0  0  0  0  0  0  0  0  0  0  0  0
   -1.4003    0.6571   -0.0526 C   0  0  0  0  0  3  0  0  0  0  0  0
   -1.4003    2.0629    0.5341 C   0  0  0  0  0  0  0  0  0  0  0  0
   -0.5188    1.1714   -1.9666 H   0  0  0  0  0  0  0  0  0  0  0  0
   -2.2817    1.1714   -1.9666 H   0  0  0  0  0  0  0  0  0  0  0  0
   -1.4003   -0.3578   -1.9771 H   0  0  0  0  0  0  0  0  0  0  0  0
   -0.3509    0.0015    0.3842 H   0  0  0  0  0  0  0  0  0  0  0  0
   -2.2748    0.1108    0.3114 H   0  0  0  0  0  0  0  0  0  0  0  0
   -2.2817    2.6215    0.2100 H   0  0  0  0  0  0  0  0  0  0  0  0
   -1.4003    2.0423    1.6252 H   0  0  0  0  0  0  0  0  0  0  0  0
   -0.5188    2.6215    0.2100 H   0  0  0  0  0  0  0  0  0  0  0  0
  1  2  2  3
  1  5  1  0
  1  6  1  0
  2  3  1  0
  2 16  1  0
  3  4  2  3
  3  7  1  0
  4  8  1  0
  4  9  1  0
 10 11  1  0
 10 13  1  0
 10 14  1  0
 10 15  1  0
 11 12  1  0
 11 17  1  0
 12 18  1  0
 12 19  1  0
 12 20  1  0
M  RAD  1  11   2
M  END
>  <reaction>  (16) 
rxn_927

>  <mol_properties>  (16) 
{"1": {"label": "*3", "atom_type": "Cd"}, "2": {"label": "*4", "atom_type": "Cd"}, "9": {"label": "*0", "atom_type": "Cs"}, "10": {"label": "*1", "atom_type": "Cs"}, "15": {"label": "*2", "atom_type": "H0"}}

>  <type>  (16) 
unop_12

>  <geom_source>  (16) 
Heuristics

$$$$

     RDKit          3D

 20 18  0  0  0  0  0  0  0  0999 V2000
    1.3471   -0.4914    0.9596 C   0  0  0  0  0  0  0  0  0  0  0  0
    2.1928    0.1492   -1.3276 C   0  0  0  0  0  0  0  0  0  0  0  0
    1.0167   -0.3925   -0.5246 C   0  0  0  0  0  3  0  0  0  0  0  0
   -2.2674   -0.1965    0.2930 C   0  0  0  0  0  0  0  0  0  0  0  0
   -1.1620    0.7690    0.2077 C   0  0  0  0  0  0  0  0  0  0  0  0
   -2.1674   -1.4017   -0.2588 C   0  0  0  0  0  0  0  0  0  0  0  0
   -1.2568    1.9754    0.7576 C   0  0  0  0  0  0  0  0  0  0  0  0
    1.6077    0.5107    1.3609 H   0  0  0  0  0  0  0  0  0  0  0  0
    0.4610   -0.8732    1.5079 H   0  0  0  0  0  0  0  0  0  0  0  0
    2.1973   -1.1879    1.1209 H   0  0  0  0  0  0  0  0  0  0  0  0
    1.9049    0.2205   -2.3970 H   0  0  0  0  0  0  0  0  0  0  0  0
    2.4682    1.1625   -0.9663 H   0  0  0  0  0  0  0  0  0  0  0  0
    3.0687   -0.5279   -1.2355 H   0  0  0  0  0  0  0  0  0  0  0  0
    0.7221   -1.3911   -0.9132 H   0  0  0  0  0  0  0  0  0  0  0  0
   -3.1809    0.0705    0.8116 H   0  0  0  0  0  0  0  0  0  0  0  0
   -0.1096    0.4582   -0.3911 H   0  0  0  0  0  0  0  0  0  0  0  0
   -1.2710   -1.7055   -0.7853 H   0  0  0  0  0  0  0  0  0  0  0  0
   -2.9914   -2.0997   -0.1861 H   0  0  0  0  0  0  0  0  0  0  0  0
   -2.1511    2.2837    1.2852 H   0  0  0  0  0  0  0  0  0  0  0  0
   -0.4291    2.6677    0.6810 H   0  0  0  0  0  0  0  0  0  0  0  0
  1  3  1  0
  1  8  1  0
  1  9  1  0
  1 10  1  0
  2  3  1  0
  2 11  1  0
  2 12  1  0
  2 13  1  0
  3 14  1  0
  4  6  2  3
  4  5  1  0
  4 15  1  0
  5  7  2  3
  5 16  1  0
  6 17  1  0
  6 18  1  0
  7 19  1  0
  7 20  1  0
M  RAD  1   3   2
M  END
>  <reaction>  (17) 
rxn_927

>  <mol_properties>  (17) 
{"1": {"label": "*3", "atom_type": "Cd"}, "2": {"label": "*4", "atom_type": "Cd"}, "9": {"label": "*0", "atom_type": "Cs"}, "10": {"label": "*1", "atom_type": "Cs"}, "15": {"label": "*2", "atom_type": "H0"}}

>  <type>  (17) 
unop_13

>  <geom_source>  (17) 
AutoTST

$$$$
