
     RDKit          3D

 13 12  0  0  0  0  0  0  0  0999 V2000
    3.0977   -0.3549   -0.5105 C   0  0  0  0  0  0  0  0  0  0  0  0
    2.0556    0.4221   -0.2627 C   0  0  0  0  0  0  0  0  0  0  0  0
    0.6313   -0.0354   -0.2366 C   0  0  0  0  0  0  0  0  0  0  0  0
   -0.2567    0.6038   -1.2694 C   0  0  0  0  0  0  0  0  0  0  0  0
    0.1459    1.3456   -2.2891 C   0  0  0  0  0  0  0  0  0  0  0  0
    4.1081    0.0344   -0.5074 H   0  0  0  0  0  0  0  0  0  0  0  0
    2.9777   -1.4116   -0.7243 H   0  0  0  0  0  0  0  0  0  0  0  0
    2.2171    1.4781   -0.0618 H   0  0  0  0  0  0  0  0  0  0  0  0
    0.5865   -1.1233   -0.3540 H   0  0  0  0  0  0  0  0  0  0  0  0
    0.2065    0.1743    0.7521 H   0  0  0  0  0  0  0  0  0  0  0  0
   -1.3190    0.4126   -1.1445 H   0  0  0  0  0  0  0  0  0  0  0  0
    1.1948    1.5564   -2.4628 H   0  0  0  0  0  0  0  0  0  0  0  0
   -0.5644    1.7621   -2.9918 H   0  0  0  0  0  0  0  0  0  0  0  0
  1  2  2  3
  1  6  1  0
  1  7  1  0
  2  3  1  0
  2  8  1  0
  3  4  1  0
  3  9  1  0
  3 10  1  0
  4  5  2  3
  4 11  1  0
  5 12  1  0
  5 13  1  0
M  END
>  <reaction>  (1) 
rxn_1146

>  <mol_properties>  (1) 
{"2": {"label": "donator", "atom_type": "Cs"}, "8": {"label": "d_hydrogen", "atom_type": "H0"}}

>  <type>  (1) 
r1h

$$$$

     RDKit          3D

  7  6  0  0  0  0  0  0  0  0999 V2000
    1.3002    0.7433    2.1278 C   0  0  0  0  0  0  0  0  0  0  0  0
    0.5758    0.3292    1.2319 C   0  0  0  0  0  0  0  0  0  0  0  0
   -0.2057   -0.1176    0.2652 C   0  0  0  0  0  3  0  0  0  0  0  0
   -0.9747   -0.5572   -0.6858 C   0  0  0  0  0  0  0  0  0  0  0  0
    1.9294    1.1030    2.9059 H   0  0  0  0  0  0  0  0  0  0  0  0
   -1.9977   -0.8727   -0.4932 H   0  0  0  0  0  0  0  0  0  0  0  0
   -0.6274   -0.6280   -1.7142 H   0  0  0  0  0  0  0  0  0  0  0  0
  1  2  3  0
  1  5  1  0
  2  3  1  0
  3  4  2  3
  4  6  1  0
  4  7  1  0
M  RAD  1   3   2
M  END
>  <reaction>  (2) 
rxn_1146

>  <mol_properties>  (2) 
{"2": {"label": "acceptor", "atom_type": "Cd"}}

>  <type>  (2) 
r2

$$$$

     RDKit          3D

  8  7  0  0  0  0  0  0  0  0999 V2000
    1.9029    0.9046   -0.2050 C   0  0  0  0  0  0  0  0  0  0  0  0
    0.8517    0.4283    0.1217 C   0  0  0  0  0  0  0  0  0  0  0  0
   -0.3908   -0.1311    0.5404 C   0  0  0  0  0  0  0  0  0  0  0  0
   -1.2847   -0.6576   -0.2899 C   0  0  0  0  0  0  0  0  0  0  0  0
    2.8335    1.3255   -0.5014 H   0  0  0  0  0  0  0  0  0  0  0  0
   -0.5867   -0.1096    1.6074 H   0  0  0  0  0  0  0  0  0  0  0  0
   -2.2126   -1.0686    0.0850 H   0  0  0  0  0  0  0  0  0  0  0  0
   -1.1134   -0.6914   -1.3582 H   0  0  0  0  0  0  0  0  0  0  0  0
  1  2  3  0
  1  5  1  0
  2  3  1  0
  3  4  2  3
  3  6  1  0
  4  7  1  0
  4  8  1  0
M  END
>  <reaction>  (3) 
rxn_1146

>  <mol_properties>  (3) 
{"2": {"label": "acceptor", "atom_type": "Cd"}, "7": {"label": "a_hydrogen", "atom_type": "H0"}}

>  <type>  (3) 
r2h

$$$$

     RDKit          3D

 20 18  0  0  0  0  0  0  0  0999 V2000
   -2.1840    1.3881   -2.4821 C   0  0  0  0  0  0  0  0  0  0  0  0
   -1.3384    1.4482   -1.6241 C   0  0  0  0  0  0  0  0  0  0  0  0
   -0.4124    1.3939   -0.5937 C   0  0  0  0  0  3  0  0  0  0  0  0
    0.5681    2.1617   -0.1657 C   0  0  0  0  0  0  0  0  0  0  0  0
   -2.9202    1.3574   -3.2488 H   0  0  0  0  0  0  0  0  0  0  0  0
    1.1658    1.8650    0.6902 H   0  0  0  0  0  0  0  0  0  0  0  0
    0.8125    3.1039   -0.6479 H   0  0  0  0  0  0  0  0  0  0  0  0
    0.8142   -1.8474   -0.8973 C   0  0  0  0  0  0  0  0  0  0  0  0
   -0.0865   -1.9424    0.0700 C   0  0  0  0  0  0  0  0  0  0  0  0
   -0.5156   -0.8195    0.9452 C   0  0  0  0  0  0  0  0  0  0  0  0
    0.3234   -0.4691    2.1079 C   0  0  0  0  0  0  0  0  0  0  0  0
    1.5746   -0.8681    2.3281 C   0  0  0  0  0  0  0  0  0  0  0  0
    1.0902   -2.7061   -1.4959 H   0  0  0  0  0  0  0  0  0  0  0  0
    1.2957   -0.9038   -1.1295 H   0  0  0  0  0  0  0  0  0  0  0  0
   -0.5614   -2.9023    0.2567 H   0  0  0  0  0  0  0  0  0  0  0  0
   -0.5241    0.2097    0.2191 H   0  0  0  0  0  0  0  0  0  0  0  0
   -1.5696   -0.8861    1.2192 H   0  0  0  0  0  0  0  0  0  0  0  0
   -0.1424    0.2043    2.8220 H   0  0  0  0  0  0  0  0  0  0  0  0
    2.0836   -1.5415    1.6493 H   0  0  0  0  0  0  0  0  0  0  0  0
    2.1170   -0.5349    3.2034 H   0  0  0  0  0  0  0  0  0  0  0  0
  1  2  3  0
  1  5  1  0
  2  3  1  0
  3  4  2  3
  4  6  1  0
  4  7  1  0
  8  9  2  3
  8 13  1  0
  8 14  1  0
  9 10  1  0
  9 15  1  0
 10 11  1  0
 10 16  1  0
 10 17  1  0
 11 12  2  3
 11 18  1  0
 12 19  1  0
 12 20  1  0
M  RAD  1   3   2
M  END
>  <reaction>  (4) 
rxn_1146

>  <mol_properties>  (4) 
{"1": {"label": "*4", "atom_type": "Ct"}, "2": {"label": "*3", "atom_type": "Cd"}, "8": {"label": "*0", "atom_type": "Cd"}, "9": {"label": "*1", "atom_type": "Cs"}, "15": {"label": "*2", "atom_type": "H0"}}

>  <type>  (4) 
ts

$$$$

     RDKit          3D

 20 18  0  0  0  0  0  0  0  0999 V2000
   -2.4544    2.7178   -0.2740 C   0  0  0  0  0  0  0  0  0  0  0  0
   -1.4801    2.0527   -0.4906 C   0  0  0  0  0  0  0  0  0  0  0  0
   -0.3399    1.2359   -0.7454 C   0  0  0  0  0  0  0  0  0  0  0  0
    0.8793    1.7135   -0.9714 C   0  0  0  0  0  0  0  0  0  0  0  0
   -3.3182    3.3076   -0.0820 H   0  0  0  0  0  0  0  0  0  0  0  0
    1.7089    1.0449   -1.1593 H   0  0  0  0  0  0  0  0  0  0  0  0
    1.0785    2.7775   -0.9744 H   0  0  0  0  0  0  0  0  0  0  0  0
   -0.1008   -2.1241   -1.4324 C   0  0  0  0  0  0  0  0  0  0  0  0
   -0.1008   -2.1241   -0.1092 C   0  0  0  0  0  0  0  0  0  0  0  0
   -0.1008   -0.8982    0.7488 C   0  0  0  0  0  3  0  0  0  0  0  0
    1.1089   -0.7439    1.6301 C   0  0  0  0  0  0  0  0  0  0  0  0
    2.2200   -1.4596    1.5576 C   0  0  0  0  0  0  0  0  0  0  0  0
   -0.1090   -3.0468   -1.9989 H   0  0  0  0  0  0  0  0  0  0  0  0
   -0.0945   -1.1986   -1.9984 H   0  0  0  0  0  0  0  0  0  0  0  0
   -0.0983   -3.0728    0.4214 H   0  0  0  0  0  0  0  0  0  0  0  0
   -0.2209    0.1737   -0.0017 H   0  0  0  0  0  0  0  0  0  0  0  0
   -0.9888   -0.9117    1.3916 H   0  0  0  0  0  0  0  0  0  0  0  0
    1.0362    0.0411    2.3778 H   0  0  0  0  0  0  0  0  0  0  0  0
    2.3455   -2.2464    0.8228 H   0  0  0  0  0  0  0  0  0  0  0  0
    3.0483   -1.2753    2.2300 H   0  0  0  0  0  0  0  0  0  0  0  0
  1  2  3  0
  1  5  1  0
  2  3  1  0
  3  4  2  3
  3 16  1  0
  4  6  1  0
  4  7  1  0
  8  9  2  3
  8 13  1  0
  8 14  1  0
  9 10  1  0
  9 15  1  0
 10 11  1  0
 10 17  1  0
 11 12  2  3
 11 18  1  0
 12 19  1  0
 12 20  1  0
M  RAD  1  10   2
M  END
>  <reaction>  (5) 
rxn_1146

>  <mol_properties>  (5) 
{"1": {"label": "*4", "atom_type": "Ct"}, "2": {"label": "*3", "atom_type": "Cd"}, "8": {"label": "*0", "atom_type": "Cd"}, "9": {"label": "*1", "atom_type": "Cs"}, "15": {"label": "*2", "atom_type": "H0"}}

>  <type>  (5) 
unop_1

>  <geom_source>  (5) 
Heuristics

$$$$

     RDKit          3D

 20 18  0  0  0  0  0  0  0  0999 V2000
   -1.6906    1.1217   -2.6220 C   0  0  0  0  0  0  0  0  0  0  0  0
   -1.0785    1.2868   -1.6038 C   0  0  0  0  0  0  0  0  0  0  0  0
   -0.3471    1.4514   -0.3914 C   0  0  0  0  0  0  0  0  0  0  0  0
   -0.0966    2.6296    0.1697 C   0  0  0  0  0  0  0  0  0  0  0  0
   -2.2334    0.9754   -3.5248 H   0  0  0  0  0  0  0  0  0  0  0  0
    0.4648    2.6943    1.0923 H   0  0  0  0  0  0  0  0  0  0  0  0
   -0.4437    3.5533   -0.2752 H   0  0  0  0  0  0  0  0  0  0  0  0
   -0.1080   -1.9085   -1.0785 C   0  0  0  0  0  0  0  0  0  0  0  0
   -0.1080   -1.9085    0.2448 C   0  0  0  0  0  0  0  0  0  0  0  0
   -0.1080   -0.6827    1.1028 C   0  0  0  0  0  3  0  0  0  0  0  0
    1.1017   -0.5283    1.9840 C   0  0  0  0  0  0  0  0  0  0  0  0
    2.2128   -1.2440    1.9115 C   0  0  0  0  0  0  0  0  0  0  0  0
   -0.1162   -2.8312   -1.6450 H   0  0  0  0  0  0  0  0  0  0  0  0
   -0.1017   -0.9830   -1.6445 H   0  0  0  0  0  0  0  0  0  0  0  0
   -0.1055   -2.8572    0.7753 H   0  0  0  0  0  0  0  0  0  0  0  0
   -0.2281    0.3893    0.3522 H   0  0  0  0  0  0  0  0  0  0  0  0
   -0.9960   -0.6962    1.7456 H   0  0  0  0  0  0  0  0  0  0  0  0
    1.0290    0.2567    2.7317 H   0  0  0  0  0  0  0  0  0  0  0  0
    2.3383   -2.0309    1.1767 H   0  0  0  0  0  0  0  0  0  0  0  0
    3.0410   -1.0597    2.5839 H   0  0  0  0  0  0  0  0  0  0  0  0
  1  2  3  0
  1  5  1  0
  2  3  1  0
  3  4  2  3
  3 16  1  0
  4  6  1  0
  4  7  1  0
  8  9  2  3
  8 13  1  0
  8 14  1  0
  9 10  1  0
  9 15  1  0
 10 11  1  0
 10 17  1  0
 11 12  2  3
 11 18  1  0
 12 19  1  0
 12 20  1  0
M  RAD  1  10   2
M  END
>  <reaction>  (6) 
rxn_1146

>  <mol_properties>  (6) 
{"1": {"label": "*4", "atom_type": "Ct"}, "2": {"label": "*3", "atom_type": "Cd"}, "8": {"label": "*0", "atom_type": "Cd"}, "9": {"label": "*1", "atom_type": "Cs"}, "15": {"label": "*2", "atom_type": "H0"}}

>  <type>  (6) 
unop_2

>  <geom_source>  (6) 
Heuristics

$$$$

     RDKit          3D

 20 18  0  0  0  0  0  0  0  0999 V2000
   -1.6847    3.2223    0.3502 C   0  0  0  0  0  0  0  0  0  0  0  0
   -1.1159    2.3029   -0.1691 C   0  0  0  0  0  0  0  0  0  0  0  0
   -0.4580    1.1899   -0.7697 C   0  0  0  0  0  0  0  0  0  0  0  0
    0.5171    1.2996   -1.6657 C   0  0  0  0  0  0  0  0  0  0  0  0
   -2.1890    4.0375    0.8106 H   0  0  0  0  0  0  0  0  0  0  0  0
    0.9809    0.4184   -2.0887 H   0  0  0  0  0  0  0  0  0  0  0  0
    0.8746    2.2660   -1.9973 H   0  0  0  0  0  0  0  0  0  0  0  0
   -0.2189   -2.1700   -1.4567 C   0  0  0  0  0  0  0  0  0  0  0  0
   -0.2189   -2.1700   -0.1335 C   0  0  0  0  0  0  0  0  0  0  0  0
   -0.2189   -0.9442    0.7245 C   0  0  0  0  0  3  0  0  0  0  0  0
    0.9908   -0.7898    1.6057 C   0  0  0  0  0  0  0  0  0  0  0  0
    2.1019   -1.5055    1.5333 C   0  0  0  0  0  0  0  0  0  0  0  0
   -0.2271   -3.0927   -2.0233 H   0  0  0  0  0  0  0  0  0  0  0  0
   -0.2126   -1.2445   -2.0227 H   0  0  0  0  0  0  0  0  0  0  0  0
   -0.2164   -3.1187    0.3970 H   0  0  0  0  0  0  0  0  0  0  0  0
   -0.3390    0.1278   -0.0260 H   0  0  0  0  0  0  0  0  0  0  0  0
   -1.1069   -0.9577    1.3673 H   0  0  0  0  0  0  0  0  0  0  0  0
    0.9181   -0.0048    2.3534 H   0  0  0  0  0  0  0  0  0  0  0  0
    2.2274   -2.2924    0.7984 H   0  0  0  0  0  0  0  0  0  0  0  0
    2.9301   -1.3212    2.2056 H   0  0  0  0  0  0  0  0  0  0  0  0
  1  2  3  0
  1  5  1  0
  2  3  1  0
  3  4  2  3
  3 16  1  0
  4  6  1  0
  4  7  1  0
  8  9  2  3
  8 13  1  0
  8 14  1  0
  9 10  1  0
  9 15  1  0
 10 11  1  0
 10 17  1  0
 11 12  2  3
 11 18  1  0
 12 19  1  0
 12 20  1  0
M  RAD  1  10   2
M  END
>  <reaction>  (7) 
rxn_1146

>  <mol_properties>  (7) 
{"1": {"label": "*4", "atom_type": "Ct"}, "2": {"label": "*3", "atom_type": "Cd"}, "8": {"label": "*0", "atom_type": "Cd"}, "9": {"label": "*1", "atom_type": "Cs"}, "15": {"label": "*2", "atom_type": "H0"}}

>  <type>  (7) 
unop_3

>  <geom_source>  (7) 
Heuristics

$$$$

     RDKit          3D

 20 18  0  0  0  0  0  0  0  0999 V2000
    1.1157    1.7092   -2.2580 C   0  0  0  0  0  0  0  0  0  0  0  0
    0.2498    1.5651   -1.4407 C   0  0  0  0  0  0  0  0  0  0  0  0
   -0.7761    1.3622   -0.4720 C   0  0  0  0  0  0  0  0  0  0  0  0
   -1.4268    2.3478    0.1371 C   0  0  0  0  0  0  0  0  0  0  0  0
    1.8834    1.8371   -2.9828 H   0  0  0  0  0  0  0  0  0  0  0  0
   -2.1978    2.1341    0.8653 H   0  0  0  0  0  0  0  0  0  0  0  0
   -1.2073    3.3864   -0.0748 H   0  0  0  0  0  0  0  0  0  0  0  0
   -0.5371   -1.9977   -1.1591 C   0  0  0  0  0  0  0  0  0  0  0  0
   -0.5371   -1.9977    0.1642 C   0  0  0  0  0  0  0  0  0  0  0  0
   -0.5371   -0.7719    1.0222 C   0  0  0  0  0  3  0  0  0  0  0  0
    0.6726   -0.6176    1.9034 C   0  0  0  0  0  0  0  0  0  0  0  0
    1.7838   -1.3332    1.8309 C   0  0  0  0  0  0  0  0  0  0  0  0
   -0.5453   -2.9205   -1.7256 H   0  0  0  0  0  0  0  0  0  0  0  0
   -0.5307   -1.0723   -1.7250 H   0  0  0  0  0  0  0  0  0  0  0  0
   -0.5345   -2.9465    0.6947 H   0  0  0  0  0  0  0  0  0  0  0  0
   -0.6572    0.3001    0.2716 H   0  0  0  0  0  0  0  0  0  0  0  0
   -1.4251   -0.7854    1.6650 H   0  0  0  0  0  0  0  0  0  0  0  0
    0.5999    0.1675    2.6511 H   0  0  0  0  0  0  0  0  0  0  0  0
    1.9093   -2.1201    1.0961 H   0  0  0  0  0  0  0  0  0  0  0  0
    2.6120   -1.1489    2.5033 H   0  0  0  0  0  0  0  0  0  0  0  0
  1  2  3  0
  1  5  1  0
  2  3  1  0
  3  4  2  3
  3 16  1  0
  4  6  1  0
  4  7  1  0
  8  9  2  3
  8 13  1  0
  8 14  1  0
  9 10  1  0
  9 15  1  0
 10 11  1  0
 10 17  1  0
 11 12  2  3
 11 18  1  0
 12 19  1  0
 12 20  1  0
M  RAD  1  10   2
M  END
>  <reaction>  (8) 
rxn_1146

>  <mol_properties>  (8) 
{"1": {"label": "*4", "atom_type": "Ct"}, "2": {"label": "*3", "atom_type": "Cd"}, "8": {"label": "*0", "atom_type": "Cd"}, "9": {"label": "*1", "atom_type": "Cs"}, "15": {"label": "*2", "atom_type": "H0"}}

>  <type>  (8) 
unop_4

>  <geom_source>  (8) 
Heuristics

$$$$

     RDKit          3D

 20 18  0  0  0  0  0  0  0  0999 V2000
   -0.5487    3.4605    0.5479 C   0  0  0  0  0  0  0  0  0  0  0  0
   -0.5390    2.4240   -0.0556 C   0  0  0  0  0  0  0  0  0  0  0  0
   -0.5243    1.1766   -0.7454 C   0  0  0  0  0  0  0  0  0  0  0  0
   -0.6232    1.0574   -2.0651 C   0  0  0  0  0  0  0  0  0  0  0  0
   -0.5574    4.3795    1.0830 H   0  0  0  0  0  0  0  0  0  0  0  0
   -0.6062    0.0829   -2.5350 H   0  0  0  0  0  0  0  0  0  0  0  0
   -0.7230    1.9243   -2.7056 H   0  0  0  0  0  0  0  0  0  0  0  0
   -0.2852   -2.1833   -1.4324 C   0  0  0  0  0  0  0  0  0  0  0  0
   -0.2852   -2.1833   -0.1092 C   0  0  0  0  0  0  0  0  0  0  0  0
   -0.2852   -0.9575    0.7488 C   0  0  0  0  0  3  0  0  0  0  0  0
    0.9245   -0.8031    1.6300 C   0  0  0  0  0  0  0  0  0  0  0  0
    2.0356   -1.5188    1.5576 C   0  0  0  0  0  0  0  0  0  0  0  0
   -0.2934   -3.1061   -1.9990 H   0  0  0  0  0  0  0  0  0  0  0  0
   -0.2789   -1.2579   -1.9984 H   0  0  0  0  0  0  0  0  0  0  0  0
   -0.2827   -3.1321    0.4214 H   0  0  0  0  0  0  0  0  0  0  0  0
   -0.4053    0.1145   -0.0017 H   0  0  0  0  0  0  0  0  0  0  0  0
   -1.1732   -0.9710    1.3916 H   0  0  0  0  0  0  0  0  0  0  0  0
    0.8518   -0.0181    2.3778 H   0  0  0  0  0  0  0  0  0  0  0  0
    2.1611   -2.3057    0.8227 H   0  0  0  0  0  0  0  0  0  0  0  0
    2.8638   -1.3345    2.2299 H   0  0  0  0  0  0  0  0  0  0  0  0
  1  2  3  0
  1  5  1  0
  2  3  1  0
  3  4  2  3
  3 16  1  0
  4  6  1  0
  4  7  1  0
  8  9  2  3
  8 13  1  0
  8 14  1  0
  9 10  1  0
  9 15  1  0
 10 11  1  0
 10 17  1  0
 11 12  2  3
 11 18  1  0
 12 19  1  0
 12 20  1  0
M  RAD  1  10   2
M  END
>  <reaction>  (9) 
rxn_1146

>  <mol_properties>  (9) 
{"1": {"label": "*4", "atom_type": "Ct"}, "2": {"label": "*3", "atom_type": "Cd"}, "8": {"label": "*0", "atom_type": "Cd"}, "9": {"label": "*1", "atom_type": "Cs"}, "15": {"label": "*2", "atom_type": "H0"}}

>  <type>  (9) 
unop_5

>  <geom_source>  (9) 
Heuristics

$$$$

     RDKit          3D

 20 18  0  0  0  0  0  0  0  0999 V2000
    1.4656    2.3263   -1.4551 C   0  0  0  0  0  0  0  0  0  0  0  0
    0.4311    1.8618   -1.0646 C   0  0  0  0  0  0  0  0  0  0  0  0
   -0.7870    1.2805   -0.6056 C   0  0  0  0  0  0  0  0  0  0  0  0
   -1.8317    1.9843   -0.1826 C   0  0  0  0  0  0  0  0  0  0  0  0
    2.3829    2.7381   -1.8014 H   0  0  0  0  0  0  0  0  0  0  0  0
   -2.7321    1.4885    0.1551 H   0  0  0  0  0  0  0  0  0  0  0  0
   -1.8143    3.0665   -0.1630 H   0  0  0  0  0  0  0  0  0  0  0  0
   -0.5479   -2.0794   -1.2927 C   0  0  0  0  0  0  0  0  0  0  0  0
   -0.5479   -2.0794    0.0306 C   0  0  0  0  0  0  0  0  0  0  0  0
   -0.5479   -0.8536    0.8886 C   0  0  0  0  0  3  0  0  0  0  0  0
    0.6618   -0.6992    1.7698 C   0  0  0  0  0  0  0  0  0  0  0  0
    1.7729   -1.4149    1.6973 C   0  0  0  0  0  0  0  0  0  0  0  0
   -0.5561   -3.0021   -1.8592 H   0  0  0  0  0  0  0  0  0  0  0  0
   -0.5416   -1.1539   -1.8587 H   0  0  0  0  0  0  0  0  0  0  0  0
   -0.5454   -3.0281    0.5611 H   0  0  0  0  0  0  0  0  0  0  0  0
   -0.6680    0.2184    0.1380 H   0  0  0  0  0  0  0  0  0  0  0  0
   -1.4359   -0.8671    1.5313 H   0  0  0  0  0  0  0  0  0  0  0  0
    0.5891    0.0858    2.5175 H   0  0  0  0  0  0  0  0  0  0  0  0
    1.8984   -2.2018    0.9625 H   0  0  0  0  0  0  0  0  0  0  0  0
    2.6012   -1.2306    2.3697 H   0  0  0  0  0  0  0  0  0  0  0  0
  1  2  3  0
  1  5  1  0
  2  3  1  0
  3  4  2  3
  3 16  1  0
  4  6  1  0
  4  7  1  0
  8  9  2  3
  8 13  1  0
  8 14  1  0
  9 10  1  0
  9 15  1  0
 10 11  1  0
 10 17  1  0
 11 12  2  3
 11 18  1  0
 12 19  1  0
 12 20  1  0
M  RAD  1  10   2
M  END
>  <reaction>  (10) 
rxn_1146

>  <mol_properties>  (10) 
{"1": {"label": "*4", "atom_type": "Ct"}, "2": {"label": "*3", "atom_type": "Cd"}, "8": {"label": "*0", "atom_type": "Cd"}, "9": {"label": "*1", "atom_type": "Cs"}, "15": {"label": "*2", "atom_type": "H0"}}

>  <type>  (10) 
unop_6

>  <geom_source>  (10) 
Heuristics

$$$$

     RDKit          3D

 20 18  0  0  0  0  0  0  0  0999 V2000
    1.2730    2.9266   -0.5723 C   0  0  0  0  0  0  0  0  0  0  0  0
    0.3566    2.1555   -0.6375 C   0  0  0  0  0  0  0  0  0  0  0  0
   -0.7118    1.2150   -0.7156 C   0  0  0  0  0  0  0  0  0  0  0  0
   -1.9968    1.5525   -0.7413 C   0  0  0  0  0  0  0  0  0  0  0  0
    2.0856    3.6102   -0.5144 H   0  0  0  0  0  0  0  0  0  0  0  0
   -2.7663    0.7943   -0.8012 H   0  0  0  0  0  0  0  0  0  0  0  0
   -2.3107    2.5877   -0.7033 H   0  0  0  0  0  0  0  0  0  0  0  0
   -0.4727   -2.1449   -1.4026 C   0  0  0  0  0  0  0  0  0  0  0  0
   -0.4727   -2.1449   -0.0794 C   0  0  0  0  0  0  0  0  0  0  0  0
   -0.4727   -0.9191    0.7786 C   0  0  0  0  0  3  0  0  0  0  0  0
    0.7370   -0.7647    1.6598 C   0  0  0  0  0  0  0  0  0  0  0  0
    1.8481   -1.4804    1.5874 C   0  0  0  0  0  0  0  0  0  0  0  0
   -0.4809   -3.0676   -1.9692 H   0  0  0  0  0  0  0  0  0  0  0  0
   -0.4664   -1.2194   -1.9686 H   0  0  0  0  0  0  0  0  0  0  0  0
   -0.4702   -3.0936    0.4511 H   0  0  0  0  0  0  0  0  0  0  0  0
   -0.5928    0.1529    0.0281 H   0  0  0  0  0  0  0  0  0  0  0  0
   -1.3607   -0.9326    1.4214 H   0  0  0  0  0  0  0  0  0  0  0  0
    0.6643    0.0203    2.4075 H   0  0  0  0  0  0  0  0  0  0  0  0
    1.9736   -2.2673    0.8525 H   0  0  0  0  0  0  0  0  0  0  0  0
    2.6763   -1.2961    2.2597 H   0  0  0  0  0  0  0  0  0  0  0  0
  1  2  3  0
  1  5  1  0
  2  3  1  0
  3  4  2  3
  3 16  1  0
  4  6  1  0
  4  7  1  0
  8  9  2  3
  8 13  1  0
  8 14  1  0
  9 10  1  0
  9 15  1  0
 10 11  1  0
 10 17  1  0
 11 12  2  3
 11 18  1  0
 12 19  1  0
 12 20  1  0
M  RAD  1  10   2
M  END
>  <reaction>  (11) 
rxn_1146

>  <mol_properties>  (11) 
{"1": {"label": "*4", "atom_type": "Ct"}, "2": {"label": "*3", "atom_type": "Cd"}, "8": {"label": "*0", "atom_type": "Cd"}, "9": {"label": "*1", "atom_type": "Cs"}, "15": {"label": "*2", "atom_type": "H0"}}

>  <type>  (11) 
unop_7

>  <geom_source>  (11) 
Heuristics

$$$$

     RDKit          3D

 20 18  0  0  0  0  0  0  0  0999 V2000
   -2.7166    2.0921   -1.1205 C   0  0  0  0  0  0  0  0  0  0  0  0
   -1.5882    1.7487   -0.9030 C   0  0  0  0  0  0  0  0  0  0  0  0
   -0.2560    1.3103   -0.6481 C   0  0  0  0  0  0  0  0  0  0  0  0
    0.7580    2.1294   -0.3898 C   0  0  0  0  0  0  0  0  0  0  0  0
   -3.7172    2.3965   -1.3134 H   0  0  0  0  0  0  0  0  0  0  0  0
    1.7499    1.7395   -0.2035 H   0  0  0  0  0  0  0  0  0  0  0  0
    0.6240    3.2030   -0.3581 H   0  0  0  0  0  0  0  0  0  0  0  0
   -0.0169   -2.0497   -1.3352 C   0  0  0  0  0  0  0  0  0  0  0  0
   -0.0169   -2.0497   -0.0119 C   0  0  0  0  0  0  0  0  0  0  0  0
   -0.0169   -0.8238    0.8461 C   0  0  0  0  0  3  0  0  0  0  0  0
    1.1928   -0.6695    1.7273 C   0  0  0  0  0  0  0  0  0  0  0  0
    2.3040   -1.3852    1.6549 C   0  0  0  0  0  0  0  0  0  0  0  0
   -0.0251   -2.9724   -1.9017 H   0  0  0  0  0  0  0  0  0  0  0  0
   -0.0105   -1.1242   -1.9011 H   0  0  0  0  0  0  0  0  0  0  0  0
   -0.0143   -2.9984    0.5186 H   0  0  0  0  0  0  0  0  0  0  0  0
   -0.1370    0.2481    0.0955 H   0  0  0  0  0  0  0  0  0  0  0  0
   -0.9049   -0.8373    1.4889 H   0  0  0  0  0  0  0  0  0  0  0  0
    1.1201    0.1155    2.4750 H   0  0  0  0  0  0  0  0  0  0  0  0
    2.4294   -2.1720    0.9200 H   0  0  0  0  0  0  0  0  0  0  0  0
    3.1322   -1.2009    2.3272 H   0  0  0  0  0  0  0  0  0  0  0  0
  1  2  3  0
  1  5  1  0
  2  3  1  0
  3  4  2  3
  3 16  1  0
  4  6  1  0
  4  7  1  0
  8  9  2  3
  8 13  1  0
  8 14  1  0
  9 10  1  0
  9 15  1  0
 10 11  1  0
 10 17  1  0
 11 12  2  3
 11 18  1  0
 12 19  1  0
 12 20  1  0
M  RAD  1  10   2
M  END
>  <reaction>  (12) 
rxn_1146

>  <mol_properties>  (12) 
{"1": {"label": "*4", "atom_type": "Ct"}, "2": {"label": "*3", "atom_type": "Cd"}, "8": {"label": "*0", "atom_type": "Cd"}, "9": {"label": "*1", "atom_type": "Cs"}, "15": {"label": "*2", "atom_type": "H0"}}

>  <type>  (12) 
unop_8

>  <geom_source>  (12) 
Heuristics

$$$$

     RDKit          3D

 20 18  0  0  0  0  0  0  0  0999 V2000
    0.3286    1.2348   -2.7836 C   0  0  0  0  0  0  0  0  0  0  0  0
   -0.1288    1.3399   -1.6798 C   0  0  0  0  0  0  0  0  0  0  0  0
   -0.6725    1.4332   -0.3654 C   0  0  0  0  0  0  0  0  0  0  0  0
   -0.9600    2.5812    0.2388 C   0  0  0  0  0  0  0  0  0  0  0  0
    0.7343    1.1416   -3.7622 H   0  0  0  0  0  0  0  0  0  0  0  0
   -1.3718    2.5915    1.2393 H   0  0  0  0  0  0  0  0  0  0  0  0
   -0.7925    3.5338   -0.2473 H   0  0  0  0  0  0  0  0  0  0  0  0
   -0.4335   -1.9267   -1.0524 C   0  0  0  0  0  0  0  0  0  0  0  0
   -0.4335   -1.9267    0.2708 C   0  0  0  0  0  0  0  0  0  0  0  0
   -0.4335   -0.7009    1.1288 C   0  0  0  0  0  3  0  0  0  0  0  0
    0.7763   -0.5465    2.0100 C   0  0  0  0  0  0  0  0  0  0  0  0
    1.8874   -1.2622    1.9376 C   0  0  0  0  0  0  0  0  0  0  0  0
   -0.4416   -2.8495   -1.6190 H   0  0  0  0  0  0  0  0  0  0  0  0
   -0.4271   -1.0013   -1.6184 H   0  0  0  0  0  0  0  0  0  0  0  0
   -0.4309   -2.8755    0.8013 H   0  0  0  0  0  0  0  0  0  0  0  0
   -0.5535    0.3711    0.3783 H   0  0  0  0  0  0  0  0  0  0  0  0
   -1.3214   -0.7144    1.7716 H   0  0  0  0  0  0  0  0  0  0  0  0
    0.7036    0.2385    2.7577 H   0  0  0  0  0  0  0  0  0  0  0  0
    2.0129   -2.0491    1.2027 H   0  0  0  0  0  0  0  0  0  0  0  0
    2.7156   -1.0779    2.6099 H   0  0  0  0  0  0  0  0  0  0  0  0
  1  2  3  0
  1  5  1  0
  2  3  1  0
  3  4  2  3
  3 16  1  0
  4  6  1  0
  4  7  1  0
  8  9  2  3
  8 13  1  0
  8 14  1  0
  9 10  1  0
  9 15  1  0
 10 11  1  0
 10 17  1  0
 11 12  2  3
 11 18  1  0
 12 19  1  0
 12 20  1  0
M  RAD  1  10   2
M  END
>  <reaction>  (13) 
rxn_1146

>  <mol_properties>  (13) 
{"1": {"label": "*4", "atom_type": "Ct"}, "2": {"label": "*3", "atom_type": "Cd"}, "8": {"label": "*0", "atom_type": "Cd"}, "9": {"label": "*1", "atom_type": "Cs"}, "15": {"label": "*2", "atom_type": "H0"}}

>  <type>  (13) 
unop_9

>  <geom_source>  (13) 
Heuristics

$$$$

     RDKit          3D

 20 18  0  0  0  0  0  0  0  0999 V2000
   -2.4321    1.5105   -1.9742 C   0  0  0  0  0  0  0  0  0  0  0  0
   -1.4371    1.4706   -1.3057 C   0  0  0  0  0  0  0  0  0  0  0  0
   -0.2545    1.3914   -0.5138 C   0  0  0  0  0  0  0  0  0  0  0  0
    0.3711    2.4485   -0.0068 C   0  0  0  0  0  0  0  0  0  0  0  0
   -3.3144    1.5460   -2.5669 H   0  0  0  0  0  0  0  0  0  0  0  0
    1.2667    2.3281    0.5881 H   0  0  0  0  0  0  0  0  0  0  0  0
    0.0069    3.4544   -0.1720 H   0  0  0  0  0  0  0  0  0  0  0  0
   -0.0154   -1.9685   -1.2008 C   0  0  0  0  0  0  0  0  0  0  0  0
   -0.0154   -1.9685    0.1225 C   0  0  0  0  0  0  0  0  0  0  0  0
   -0.0154   -0.7427    0.9805 C   0  0  0  0  0  3  0  0  0  0  0  0
    1.1943   -0.5883    1.8617 C   0  0  0  0  0  0  0  0  0  0  0  0
    2.3055   -1.3040    1.7892 C   0  0  0  0  0  0  0  0  0  0  0  0
   -0.0236   -2.8912   -1.7673 H   0  0  0  0  0  0  0  0  0  0  0  0
   -0.0091   -1.0431   -1.7668 H   0  0  0  0  0  0  0  0  0  0  0  0
   -0.0128   -2.9173    0.6530 H   0  0  0  0  0  0  0  0  0  0  0  0
   -0.1355    0.3293    0.2299 H   0  0  0  0  0  0  0  0  0  0  0  0
   -0.9034   -0.7562    1.6232 H   0  0  0  0  0  0  0  0  0  0  0  0
    1.1216    0.1967    2.6094 H   0  0  0  0  0  0  0  0  0  0  0  0
    2.4309   -2.0909    1.0544 H   0  0  0  0  0  0  0  0  0  0  0  0
    3.1337   -1.1197    2.4616 H   0  0  0  0  0  0  0  0  0  0  0  0
  1  2  3  0
  1  5  1  0
  2  3  1  0
  3  4  2  3
  3 16  1  0
  4  6  1  0
  4  7  1  0
  8  9  2  3
  8 13  1  0
  8 14  1  0
  9 10  1  0
  9 15  1  0
 10 11  1  0
 10 17  1  0
 11 12  2  3
 11 18  1  0
 12 19  1  0
 12 20  1  0
M  RAD  1  10   2
M  END
>  <reaction>  (14) 
rxn_1146

>  <mol_properties>  (14) 
{"1": {"label": "*4", "atom_type": "Ct"}, "2": {"label": "*3", "atom_type": "Cd"}, "8": {"label": "*0", "atom_type": "Cd"}, "9": {"label": "*1", "atom_type": "Cs"}, "15": {"label": "*2", "atom_type": "H0"}}

>  <type>  (14) 
unop_10

>  <geom_source>  (14) 
Heuristics

$$$$

     RDKit          3D

 20 18  0  0  0  0  0  0  0  0999 V2000
    0.5609    3.3480    0.1705 C   0  0  0  0  0  0  0  0  0  0  0  0
    0.0226    2.3666   -0.2602 C   0  0  0  0  0  0  0  0  0  0  0  0
   -0.5947    1.1823   -0.7588 C   0  0  0  0  0  0  0  0  0  0  0  0
   -1.7055    1.1751   -1.4879 C   0  0  0  0  0  0  0  0  0  0  0  0
    1.0382    4.2183    0.5524 H   0  0  0  0  0  0  0  0  0  0  0  0
   -2.1298    0.2442   -1.8398 H   0  0  0  0  0  0  0  0  0  0  0  0
   -2.2160    2.0929   -1.7500 H   0  0  0  0  0  0  0  0  0  0  0  0
   -0.3556   -2.1776   -1.4458 C   0  0  0  0  0  0  0  0  0  0  0  0
   -0.3556   -2.1776   -0.1225 C   0  0  0  0  0  0  0  0  0  0  0  0
   -0.3556   -0.9518    0.7355 C   0  0  0  0  0  3  0  0  0  0  0  0
    0.8541   -0.7975    1.6167 C   0  0  0  0  0  0  0  0  0  0  0  0
    1.9653   -1.5132    1.5442 C   0  0  0  0  0  0  0  0  0  0  0  0
   -0.3638   -3.1004   -2.0123 H   0  0  0  0  0  0  0  0  0  0  0  0
   -0.3493   -1.2522   -2.0118 H   0  0  0  0  0  0  0  0  0  0  0  0
   -0.3530   -3.1264    0.4080 H   0  0  0  0  0  0  0  0  0  0  0  0
   -0.4757    0.1202   -0.0151 H   0  0  0  0  0  0  0  0  0  0  0  0
   -1.2436   -0.9653    1.3782 H   0  0  0  0  0  0  0  0  0  0  0  0
    0.7814   -0.0124    2.3644 H   0  0  0  0  0  0  0  0  0  0  0  0
    2.0907   -2.3000    0.8094 H   0  0  0  0  0  0  0  0  0  0  0  0
    2.7935   -1.3289    2.2166 H   0  0  0  0  0  0  0  0  0  0  0  0
  1  2  3  0
  1  5  1  0
  2  3  1  0
  3  4  2  3
  3 16  1  0
  4  6  1  0
  4  7  1  0
  8  9  2  3
  8 13  1  0
  8 14  1  0
  9 10  1  0
  9 15  1  0
 10 11  1  0
 10 17  1  0
 11 12  2  3
 11 18  1  0
 12 19  1  0
 12 20  1  0
M  RAD  1  10   2
M  END
>  <reaction>  (15) 
rxn_1146

>  <mol_properties>  (15) 
{"1": {"label": "*4", "atom_type": "Ct"}, "2": {"label": "*3", "atom_type": "Cd"}, "8": {"label": "*0", "atom_type": "Cd"}, "9": {"label": "*1", "atom_type": "Cs"}, "15": {"label": "*2", "atom_type": "H0"}}

>  <type>  (15) 
unop_11

>  <geom_source>  (15) 
Heuristics

$$$$

     RDKit          3D

 20 18  0  0  0  0  0  0  0  0999 V2000
   -0.6890    1.0217   -2.9128 C   0  0  0  0  0  0  0  0  0  0  0  0
   -0.6071    1.2397   -1.7362 C   0  0  0  0  0  0  0  0  0  0  0  0
   -0.5076    1.4675   -0.3326 C   0  0  0  0  0  0  0  0  0  0  0  0
   -0.5303    2.6726    0.2269 C   0  0  0  0  0  0  0  0  0  0  0  0
   -0.7617    0.8285   -3.9560 H   0  0  0  0  0  0  0  0  0  0  0  0
   -0.4507    2.7854    1.3000 H   0  0  0  0  0  0  0  0  0  0  0  0
   -0.6282    3.5711   -0.3687 H   0  0  0  0  0  0  0  0  0  0  0  0
   -0.2685   -1.8924   -1.0196 C   0  0  0  0  0  0  0  0  0  0  0  0
   -0.2685   -1.8924    0.3036 C   0  0  0  0  0  0  0  0  0  0  0  0
   -0.2685   -0.6666    1.1616 C   0  0  0  0  0  3  0  0  0  0  0  0
    0.9412   -0.5122    2.0428 C   0  0  0  0  0  0  0  0  0  0  0  0
    2.0524   -1.2279    1.9704 C   0  0  0  0  0  0  0  0  0  0  0  0
   -0.2767   -2.8152   -1.5861 H   0  0  0  0  0  0  0  0  0  0  0  0
   -0.2622   -0.9670   -1.5856 H   0  0  0  0  0  0  0  0  0  0  0  0
   -0.2659   -2.8412    0.8342 H   0  0  0  0  0  0  0  0  0  0  0  0
   -0.3886    0.4054    0.4111 H   0  0  0  0  0  0  0  0  0  0  0  0
   -1.1565   -0.6801    1.8044 H   0  0  0  0  0  0  0  0  0  0  0  0
    0.8685    0.2728    2.7906 H   0  0  0  0  0  0  0  0  0  0  0  0
    2.1778   -2.0148    1.2355 H   0  0  0  0  0  0  0  0  0  0  0  0
    2.8806   -1.0436    2.6427 H   0  0  0  0  0  0  0  0  0  0  0  0
  1  2  3  0
  1  5  1  0
  2  3  1  0
  3  4  2  3
  3 16  1  0
  4  6  1  0
  4  7  1  0
  8  9  2  3
  8 13  1  0
  8 14  1  0
  9 10  1  0
  9 15  1  0
 10 11  1  0
 10 17  1  0
 11 12  2  3
 11 18  1  0
 12 19  1  0
 12 20  1  0
M  RAD  1  10   2
M  END
>  <reaction>  (16) 
rxn_1146

>  <mol_properties>  (16) 
{"1": {"label": "*4", "atom_type": "Ct"}, "2": {"label": "*3", "atom_type": "Cd"}, "8": {"label": "*0", "atom_type": "Cd"}, "9": {"label": "*1", "atom_type": "Cs"}, "15": {"label": "*2", "atom_type": "H0"}}

>  <type>  (16) 
unop_12

>  <geom_source>  (16) 
Heuristics

$$$$

     RDKit          3D

 20 18  0  0  0  0  0  0  0  0999 V2000
   -0.6532   -0.2627   -0.4227 C   0  0  0  0  0  3  0  0  0  0  0  0
   -1.8982    0.2307   -1.0910 C   0  0  0  0  0  0  0  0  0  0  0  0
   -0.9764   -1.0190    0.8308 C   0  0  0  0  0  0  0  0  0  0  0  0
    1.8557    0.5177   -0.1900 C   0  0  0  0  0  0  0  0  0  0  0  0
   -2.1958    1.5303   -1.0977 C   0  0  0  0  0  0  0  0  0  0  0  0
   -1.4923   -2.2509    0.7938 C   0  0  0  0  0  0  0  0  0  0  0  0
    2.8786    0.6391   -1.0280 C   0  0  0  0  0  0  0  0  0  0  0  0
    2.0465    0.6440    1.2297 C   0  0  0  0  0  0  0  0  0  0  0  0
    2.2052    0.7497    2.4201 C   0  0  0  0  0  0  0  0  0  0  0  0
   -2.5739   -0.4794   -1.5588 H   0  0  0  0  0  0  0  0  0  0  0  0
   -0.0494   -0.8815   -1.1204 H   0  0  0  0  0  0  0  0  0  0  0  0
   -0.7796   -0.5498    1.7893 H   0  0  0  0  0  0  0  0  0  0  0  0
    0.7451    0.2977   -0.6226 H   0  0  0  0  0  0  0  0  0  0  0  0
    3.8804    0.8357   -0.6651 H   0  0  0  0  0  0  0  0  0  0  0  0
    2.7166    0.5410   -2.0932 H   0  0  0  0  0  0  0  0  0  0  0  0
   -1.5383    2.2555   -0.6274 H   0  0  0  0  0  0  0  0  0  0  0  0
   -3.1057    1.8766   -1.5770 H   0  0  0  0  0  0  0  0  0  0  0  0
   -1.6954   -2.7426   -0.1528 H   0  0  0  0  0  0  0  0  0  0  0  0
   -1.7144   -2.7746    1.7179 H   0  0  0  0  0  0  0  0  0  0  0  0
    2.3447    0.8424    3.4650 H   0  0  0  0  0  0  0  0  0  0  0  0
  1  2  1  0
  1  3  1  0
  1 11  1  0
  2  5  2  3
  2 10  1  0
  3  6  2  3
  3 12  1  0
  4  7  2  3
  4  8  1  0
  4 13  1  0
  5 16  1  0
  5 17  1  0
  6 18  1  0
  6 19  1  0
  7 14  1  0
  7 15  1  0
  8  9  3  0
  9 20  1  0
M  RAD  1   1   2
M  END
>  <reaction>  (17) 
rxn_1146

>  <mol_properties>  (17) 
{"1": {"label": "*4", "atom_type": "Ct"}, "2": {"label": "*3", "atom_type": "Cd"}, "8": {"label": "*0", "atom_type": "Cd"}, "9": {"label": "*1", "atom_type": "Cs"}, "15": {"label": "*2", "atom_type": "H0"}}

>  <type>  (17) 
unop_13

>  <geom_source>  (17) 
AutoTST

$$$$
