
     RDKit          3D

 13 12  0  0  0  0  0  0  0  0999 V2000
    2.2975   -0.6134    0.7685 C   0  0  0  0  0  0  0  0  0  0  0  0
    1.1676   -0.5248    0.3802 C   0  0  0  0  0  0  0  0  0  0  0  0
   -0.2109   -0.3926   -0.0948 C   0  0  0  0  0  0  0  0  0  0  0  0
   -0.2501    0.2584   -1.4808 C   0  0  0  0  0  0  0  0  0  0  0  0
   -1.0633    0.3831    0.9141 C   0  0  0  0  0  0  0  0  0  0  0  0
    3.2999   -0.6974    1.1133 H   0  0  0  0  0  0  0  0  0  0  0  0
   -0.6209   -1.4038   -0.1814 H   0  0  0  0  0  0  0  0  0  0  0  0
    0.3402   -0.3102   -2.1992 H   0  0  0  0  0  0  0  0  0  0  0  0
    0.1511    1.2724   -1.4369 H   0  0  0  0  0  0  0  0  0  0  0  0
   -1.2791    0.3109   -1.8407 H   0  0  0  0  0  0  0  0  0  0  0  0
   -0.6861    1.4008    1.0287 H   0  0  0  0  0  0  0  0  0  0  0  0
   -1.0492   -0.0971    1.8924 H   0  0  0  0  0  0  0  0  0  0  0  0
   -2.0971    0.4363    0.5680 H   0  0  0  0  0  0  0  0  0  0  0  0
  1  2  3  0
  1  6  1  0
  2  3  1  0
  3  4  1  0
  3  5  1  0
  3  7  1  0
  4  8  1  0
  4  9  1  0
  4 10  1  0
  5 11  1  0
  5 12  1  0
  5 13  1  0
M  END
>  <reaction>  (1) 
rxn_1302

>  <mol_properties>  (1) 
{"2": {"label": "donator", "atom_type": "Cs"}, "6": {"label": "d_hydrogen", "atom_type": "H0"}}

>  <type>  (1) 
r1h

$$$$

     RDKit          3D

  4  3  0  0  0  0  0  0  0  0999 V2000
    0.0000    0.0000    0.0000 C   0  0  0  0  0  3  0  0  0  0  0  0
    1.0638   -0.1747    0.0540 H   0  0  0  0  0  0  0  0  0  0  0  0
   -0.6833   -0.8351   -0.0280 H   0  0  0  0  0  0  0  0  0  0  0  0
   -0.3805    1.0098   -0.0260 H   0  0  0  0  0  0  0  0  0  0  0  0
  1  2  1  0
  1  3  1  0
  1  4  1  0
M  RAD  1   1   2
M  END
>  <reaction>  (2) 
rxn_1302

>  <mol_properties>  (2) 
{"0": {"label": "acceptor", "atom_type": "Cs"}}

>  <type>  (2) 
r2

$$$$

     RDKit          3D

  5  4  0  0  0  0  0  0  0  0999 V2000
    0.0000    0.0000    0.0000 C   0  0  0  0  0  0  0  0  0  0  0  0
   -0.6486   -0.7720   -0.4113 H   0  0  0  0  0  0  0  0  0  0  0  0
   -0.3482    0.9787   -0.3267 H   0  0  0  0  0  0  0  0  0  0  0  0
   -0.0223   -0.0487    1.0876 H   0  0  0  0  0  0  0  0  0  0  0  0
    1.0191   -0.1580   -0.3496 H   0  0  0  0  0  0  0  0  0  0  0  0
  1  2  1  0
  1  3  1  0
  1  4  1  0
  1  5  1  0
M  END
>  <reaction>  (3) 
rxn_1302

>  <mol_properties>  (3) 
{"0": {"label": "a_hydrogen", "atom_type": "H0"}, "1": {"label": "acceptor", "atom_type": "Cs"}}

>  <type>  (3) 
r2h

$$$$

     RDKit          3D

 17 15  0  0  0  0  0  0  0  0999 V2000
   -0.0187    0.1184   -2.3877 C   0  0  0  0  0  0  0  0  0  0  0  0
   -0.0107    0.2142   -1.1907 C   0  0  0  0  0  0  0  0  0  0  0  0
   -0.0012    0.2870    0.2486 C   0  0  0  0  0  0  0  0  0  0  0  0
   -1.2692    0.8820    0.8384 C   0  0  0  0  0  0  0  0  0  0  0  0
    1.2788    0.8720    0.8222 C   0  0  0  0  0  0  0  0  0  0  0  0
   -0.0257    0.0426   -3.4482 H   0  0  0  0  0  0  0  0  0  0  0  0
   -0.0034   -0.9034    0.6360 H   0  0  0  0  0  0  0  0  0  0  0  0
   -2.1557    0.3809    0.4496 H   0  0  0  0  0  0  0  0  0  0  0  0
   -1.3469    1.9454    0.5976 H   0  0  0  0  0  0  0  0  0  0  0  0
   -1.2603    0.7787    1.9252 H   0  0  0  0  0  0  0  0  0  0  0  0
    1.3618    1.9348    0.5803 H   0  0  0  0  0  0  0  0  0  0  0  0
    2.1563    0.3640    0.4221 H   0  0  0  0  0  0  0  0  0  0  0  0
    1.2829    0.7687    1.9090 H   0  0  0  0  0  0  0  0  0  0  0  0
   -0.0053   -2.2606    1.1782 C   0  0  0  0  0  3  0  0  0  0  0  0
    0.0020   -2.1147    2.2531 H   0  0  0  0  0  0  0  0  0  0  0  0
    0.9052   -2.6788    0.7633 H   0  0  0  0  0  0  0  0  0  0  0  0
   -0.9241   -2.6717    0.7747 H   0  0  0  0  0  0  0  0  0  0  0  0
  1  2  3  0
  1  6  1  0
  2  3  1  0
  3  4  1  0
  3  5  1  0
  3  7  1  0
  4  8  1  0
  4  9  1  0
  4 10  1  0
  5 11  1  0
  5 12  1  0
  5 13  1  0
 14 15  1  0
 14 16  1  0
 14 17  1  0
M  RAD  1  14   2
M  END
>  <reaction>  (4) 
rxn_1302

>  <mol_properties>  (4) 
{"1": {"label": "*0", "atom_type": "Ct"}, "2": {"label": "*1", "atom_type": "Cs"}, "6": {"label": "*2", "atom_type": "H0"}, "13": {"label": "*3", "atom_type": "Cs"}, "14": {"label": "*4", "atom_type": "H0"}}

>  <type>  (4) 
ts

$$$$

     RDKit          3D

 17 15  0  0  0  0  0  0  0  0999 V2000
    0.0017    0.1998   -2.3879 C   0  0  0  0  0  0  0  0  0  0  0  0
    0.0017    0.1998   -1.1899 C   0  0  0  0  0  0  0  0  0  0  0  0
    0.0017    0.2238    0.2739 C   0  0  0  0  0  3  0  0  0  0  0  0
   -1.2644    0.9002    0.8083 C   0  0  0  0  0  0  0  0  0  0  0  0
    1.2678    0.9002    0.8083 C   0  0  0  0  0  0  0  0  0  0  0  0
    0.0017    0.1998   -3.4513 H   0  0  0  0  0  0  0  0  0  0  0  0
    0.0017   -1.0249    0.6818 H   0  0  0  0  0  0  0  0  0  0  0  0
   -2.1615    0.4009    0.4424 H   0  0  0  0  0  0  0  0  0  0  0  0
   -1.3017    1.9437    0.4908 H   0  0  0  0  0  0  0  0  0  0  0  0
   -1.2717    0.8722    1.8994 H   0  0  0  0  0  0  0  0  0  0  0  0
    1.3052    1.9437    0.4908 H   0  0  0  0  0  0  0  0  0  0  0  0
    2.1649    0.4009    0.4424 H   0  0  0  0  0  0  0  0  0  0  0  0
    1.2752    0.8722    1.8994 H   0  0  0  0  0  0  0  0  0  0  0  0
    0.0017   -2.2670    1.0876 C   0  0  0  0  0  0  0  0  0  0  0  0
    0.8908   -2.4527    1.6882 H   0  0  0  0  0  0  0  0  0  0  0  0
   -0.3885   -3.2128    0.7148 H   0  0  0  0  0  0  0  0  0  0  0  0
   -0.6375   -1.8102    1.8417 H   0  0  0  0  0  0  0  0  0  0  0  0
  1  2  3  0
  1  6  1  0
  2  3  1  0
  3  4  1  0
  3  5  1  0
  4  8  1  0
  4  9  1  0
  4 10  1  0
  5 11  1  0
  5 12  1  0
  5 13  1  0
  7 14  1  0
 14 15  1  0
 14 16  1  0
 14 17  1  0
M  RAD  1   3   2
M  END
>  <reaction>  (5) 
rxn_1302

>  <mol_properties>  (5) 
{"1": {"label": "*0", "atom_type": "Ct"}, "2": {"label": "*1", "atom_type": "Cs"}, "6": {"label": "*2", "atom_type": "H0"}, "13": {"label": "*3", "atom_type": "Cs"}, "14": {"label": "*4", "atom_type": "H0"}}

>  <type>  (5) 
unop_1

>  <geom_source>  (5) 
Heuristics

$$$$

     RDKit          3D

 17 15  0  0  0  0  0  0  0  0999 V2000
    0.0012    0.1981   -2.3818 C   0  0  0  0  0  0  0  0  0  0  0  0
    0.0012    0.1981   -1.1838 C   0  0  0  0  0  0  0  0  0  0  0  0
    0.0012    0.2220    0.2800 C   0  0  0  0  0  3  0  0  0  0  0  0
   -1.2649    0.8985    0.8144 C   0  0  0  0  0  0  0  0  0  0  0  0
    1.2673    0.8984    0.8144 C   0  0  0  0  0  0  0  0  0  0  0  0
    0.0012    0.1981   -3.4452 H   0  0  0  0  0  0  0  0  0  0  0  0
    0.0012   -1.0267    0.6879 H   0  0  0  0  0  0  0  0  0  0  0  0
   -2.1620    0.3992    0.4485 H   0  0  0  0  0  0  0  0  0  0  0  0
   -1.3022    1.9420    0.4969 H   0  0  0  0  0  0  0  0  0  0  0  0
   -1.2722    0.8705    1.9055 H   0  0  0  0  0  0  0  0  0  0  0  0
    1.3047    1.9419    0.4969 H   0  0  0  0  0  0  0  0  0  0  0  0
    2.1644    0.3991    0.4485 H   0  0  0  0  0  0  0  0  0  0  0  0
    1.2747    0.8704    1.9055 H   0  0  0  0  0  0  0  0  0  0  0  0
    0.0012   -2.2688    1.0937 C   0  0  0  0  0  0  0  0  0  0  0  0
    0.5145   -2.8899    0.3612 H   0  0  0  0  0  0  0  0  0  0  0  0
   -0.8901   -2.7853    1.4467 H   0  0  0  0  0  0  0  0  0  0  0  0
    0.2803   -1.6599    1.9522 H   0  0  0  0  0  0  0  0  0  0  0  0
  1  2  3  0
  1  6  1  0
  2  3  1  0
  3  4  1  0
  3  5  1  0
  4  8  1  0
  4  9  1  0
  4 10  1  0
  5 11  1  0
  5 12  1  0
  5 13  1  0
  7 14  1  0
 14 15  1  0
 14 16  1  0
 14 17  1  0
M  RAD  1   3   2
M  END
>  <reaction>  (6) 
rxn_1302

>  <mol_properties>  (6) 
{"1": {"label": "*0", "atom_type": "Ct"}, "2": {"label": "*1", "atom_type": "Cs"}, "6": {"label": "*2", "atom_type": "H0"}, "13": {"label": "*3", "atom_type": "Cs"}, "14": {"label": "*4", "atom_type": "H0"}}

>  <type>  (6) 
unop_2

>  <geom_source>  (6) 
Heuristics

$$$$

     RDKit          3D

 17 15  0  0  0  0  0  0  0  0999 V2000
    0.0035    0.2023   -2.3871 C   0  0  0  0  0  0  0  0  0  0  0  0
    0.0035    0.2023   -1.1890 C   0  0  0  0  0  0  0  0  0  0  0  0
    0.0035    0.2263    0.2748 C   0  0  0  0  0  3  0  0  0  0  0  0
   -1.2627    0.9027    0.8092 C   0  0  0  0  0  0  0  0  0  0  0  0
    1.2696    0.9027    0.8092 C   0  0  0  0  0  0  0  0  0  0  0  0
    0.0035    0.2023   -3.4504 H   0  0  0  0  0  0  0  0  0  0  0  0
    0.0034   -1.0224    0.6827 H   0  0  0  0  0  0  0  0  0  0  0  0
   -2.1597    0.4034    0.4432 H   0  0  0  0  0  0  0  0  0  0  0  0
   -1.3000    1.9462    0.4916 H   0  0  0  0  0  0  0  0  0  0  0  0
   -1.2700    0.8747    1.9002 H   0  0  0  0  0  0  0  0  0  0  0  0
    1.3070    1.9462    0.4916 H   0  0  0  0  0  0  0  0  0  0  0  0
    2.1666    0.4034    0.4432 H   0  0  0  0  0  0  0  0  0  0  0  0
    1.2769    0.8747    1.9002 H   0  0  0  0  0  0  0  0  0  0  0  0
    0.0034   -2.2645    1.0885 C   0  0  0  0  0  0  0  0  0  0  0  0
    0.5167   -2.3335    2.0463 H   0  0  0  0  0  0  0  0  0  0  0  0
    0.1594   -3.1838    0.5260 H   0  0  0  0  0  0  0  0  0  0  0  0
   -0.9501   -2.1564    1.6030 H   0  0  0  0  0  0  0  0  0  0  0  0
  1  2  3  0
  1  6  1  0
  2  3  1  0
  3  4  1  0
  3  5  1  0
  4  8  1  0
  4  9  1  0
  4 10  1  0
  5 11  1  0
  5 12  1  0
  5 13  1  0
  7 14  1  0
 14 15  1  0
 14 16  1  0
 14 17  1  0
M  RAD  1   3   2
M  END
>  <reaction>  (7) 
rxn_1302

>  <mol_properties>  (7) 
{"1": {"label": "*0", "atom_type": "Ct"}, "2": {"label": "*1", "atom_type": "Cs"}, "6": {"label": "*2", "atom_type": "H0"}, "13": {"label": "*3", "atom_type": "Cs"}, "14": {"label": "*4", "atom_type": "H0"}}

>  <type>  (7) 
unop_3

>  <geom_source>  (7) 
Heuristics

$$$$

     RDKit          3D

 17 15  0  0  0  0  0  0  0  0999 V2000
    0.0016    0.1974   -2.3847 C   0  0  0  0  0  0  0  0  0  0  0  0
    0.0016    0.1974   -1.1866 C   0  0  0  0  0  0  0  0  0  0  0  0
    0.0016    0.2214    0.2772 C   0  0  0  0  0  3  0  0  0  0  0  0
   -1.2645    0.8978    0.8115 C   0  0  0  0  0  0  0  0  0  0  0  0
    1.2677    0.8978    0.8115 C   0  0  0  0  0  0  0  0  0  0  0  0
    0.0016    0.1974   -3.4480 H   0  0  0  0  0  0  0  0  0  0  0  0
    0.0016   -1.0273    0.6851 H   0  0  0  0  0  0  0  0  0  0  0  0
   -2.1616    0.3985    0.4456 H   0  0  0  0  0  0  0  0  0  0  0  0
   -1.3019    1.9413    0.4940 H   0  0  0  0  0  0  0  0  0  0  0  0
   -1.2719    0.8698    1.9026 H   0  0  0  0  0  0  0  0  0  0  0  0
    1.3051    1.9413    0.4940 H   0  0  0  0  0  0  0  0  0  0  0  0
    2.1647    0.3985    0.4456 H   0  0  0  0  0  0  0  0  0  0  0  0
    1.2750    0.8698    1.9026 H   0  0  0  0  0  0  0  0  0  0  0  0
    0.0015   -2.2694    1.0908 C   0  0  0  0  0  0  0  0  0  0  0  0
   -0.8876   -2.7738    0.7156 H   0  0  0  0  0  0  0  0  0  0  0  0
   -0.2243   -1.7986    2.0464 H   0  0  0  0  0  0  0  0  0  0  0  0
    0.9867   -2.7130    1.2265 H   0  0  0  0  0  0  0  0  0  0  0  0
  1  2  3  0
  1  6  1  0
  2  3  1  0
  3  4  1  0
  3  5  1  0
  4  8  1  0
  4  9  1  0
  4 10  1  0
  5 11  1  0
  5 12  1  0
  5 13  1  0
  7 14  1  0
 14 15  1  0
 14 16  1  0
 14 17  1  0
M  RAD  1   3   2
M  END
>  <reaction>  (8) 
rxn_1302

>  <mol_properties>  (8) 
{"1": {"label": "*0", "atom_type": "Ct"}, "2": {"label": "*1", "atom_type": "Cs"}, "6": {"label": "*2", "atom_type": "H0"}, "13": {"label": "*3", "atom_type": "Cs"}, "14": {"label": "*4", "atom_type": "H0"}}

>  <type>  (8) 
unop_4

>  <geom_source>  (8) 
Heuristics

$$$$

     RDKit          3D

 17 15  0  0  0  0  0  0  0  0999 V2000
    0.0005    0.2049   -2.3854 C   0  0  0  0  0  0  0  0  0  0  0  0
    0.0005    0.2049   -1.1873 C   0  0  0  0  0  0  0  0  0  0  0  0
    0.0005    0.2288    0.2765 C   0  0  0  0  0  3  0  0  0  0  0  0
   -1.2656    0.9053    0.8109 C   0  0  0  0  0  0  0  0  0  0  0  0
    1.2667    0.9052    0.8109 C   0  0  0  0  0  0  0  0  0  0  0  0
    0.0005    0.2049   -3.4487 H   0  0  0  0  0  0  0  0  0  0  0  0
    0.0005   -1.0198    0.6844 H   0  0  0  0  0  0  0  0  0  0  0  0
   -2.1626    0.4060    0.4449 H   0  0  0  0  0  0  0  0  0  0  0  0
   -1.3029    1.9488    0.4934 H   0  0  0  0  0  0  0  0  0  0  0  0
   -1.2729    0.8773    1.9019 H   0  0  0  0  0  0  0  0  0  0  0  0
    1.3040    1.9487    0.4934 H   0  0  0  0  0  0  0  0  0  0  0  0
    2.1637    0.4059    0.4449 H   0  0  0  0  0  0  0  0  0  0  0  0
    1.2740    0.8772    1.9019 H   0  0  0  0  0  0  0  0  0  0  0  0
    0.0005   -2.2620    1.0902 C   0  0  0  0  0  0  0  0  0  0  0  0
    0.0005   -2.2882    2.1788 H   0  0  0  0  0  0  0  0  0  0  0  0
    0.8896   -2.7664    0.7149 H   0  0  0  0  0  0  0  0  0  0  0  0
   -0.9318   -2.8218    1.1460 H   0  0  0  0  0  0  0  0  0  0  0  0
  1  2  3  0
  1  6  1  0
  2  3  1  0
  3  4  1  0
  3  5  1  0
  4  8  1  0
  4  9  1  0
  4 10  1  0
  5 11  1  0
  5 12  1  0
  5 13  1  0
  7 14  1  0
 14 15  1  0
 14 16  1  0
 14 17  1  0
M  RAD  1   3   2
M  END
>  <reaction>  (9) 
rxn_1302

>  <mol_properties>  (9) 
{"1": {"label": "*0", "atom_type": "Ct"}, "2": {"label": "*1", "atom_type": "Cs"}, "6": {"label": "*2", "atom_type": "H0"}, "13": {"label": "*3", "atom_type": "Cs"}, "14": {"label": "*4", "atom_type": "H0"}}

>  <type>  (9) 
unop_5

>  <geom_source>  (9) 
Heuristics

$$$$

     RDKit          3D

 17 15  0  0  0  0  0  0  0  0999 V2000
    0.0004    0.1988   -2.3866 C   0  0  0  0  0  0  0  0  0  0  0  0
    0.0004    0.1988   -1.1885 C   0  0  0  0  0  0  0  0  0  0  0  0
    0.0004    0.2227    0.2753 C   0  0  0  0  0  3  0  0  0  0  0  0
   -1.2657    0.8992    0.8097 C   0  0  0  0  0  0  0  0  0  0  0  0
    1.2665    0.8992    0.8097 C   0  0  0  0  0  0  0  0  0  0  0  0
    0.0004    0.1988   -3.4499 H   0  0  0  0  0  0  0  0  0  0  0  0
    0.0004   -1.0259    0.6832 H   0  0  0  0  0  0  0  0  0  0  0  0
   -2.1628    0.3999    0.4437 H   0  0  0  0  0  0  0  0  0  0  0  0
   -1.3031    1.9427    0.4921 H   0  0  0  0  0  0  0  0  0  0  0  0
   -1.2731    0.8712    1.9007 H   0  0  0  0  0  0  0  0  0  0  0  0
    1.3039    1.9427    0.4921 H   0  0  0  0  0  0  0  0  0  0  0  0
    2.1636    0.3998    0.4437 H   0  0  0  0  0  0  0  0  0  0  0  0
    1.2739    0.8712    1.9007 H   0  0  0  0  0  0  0  0  0  0  0  0
    0.0004   -2.2680    1.0890 C   0  0  0  0  0  0  0  0  0  0  0  0
   -1.0263   -2.6131    1.2017 H   0  0  0  0  0  0  0  0  0  0  0  0
    0.2887   -1.6932    1.9677 H   0  0  0  0  0  0  0  0  0  0  0  0
    0.7066   -3.0877    0.9663 H   0  0  0  0  0  0  0  0  0  0  0  0
  1  2  3  0
  1  6  1  0
  2  3  1  0
  3  4  1  0
  3  5  1  0
  4  8  1  0
  4  9  1  0
  4 10  1  0
  5 11  1  0
  5 12  1  0
  5 13  1  0
  7 14  1  0
 14 15  1  0
 14 16  1  0
 14 17  1  0
M  RAD  1   3   2
M  END
>  <reaction>  (10) 
rxn_1302

>  <mol_properties>  (10) 
{"1": {"label": "*0", "atom_type": "Ct"}, "2": {"label": "*1", "atom_type": "Cs"}, "6": {"label": "*2", "atom_type": "H0"}, "13": {"label": "*3", "atom_type": "Cs"}, "14": {"label": "*4", "atom_type": "H0"}}

>  <type>  (10) 
unop_6

>  <geom_source>  (10) 
Heuristics

$$$$

     RDKit          3D

 17 15  0  0  0  0  0  0  0  0999 V2000
   -0.0016    0.2004   -2.3876 C   0  0  0  0  0  0  0  0  0  0  0  0
   -0.0016    0.2004   -1.1895 C   0  0  0  0  0  0  0  0  0  0  0  0
   -0.0016    0.2243    0.2743 C   0  0  0  0  0  3  0  0  0  0  0  0
   -1.2677    0.9008    0.8087 C   0  0  0  0  0  0  0  0  0  0  0  0
    1.2646    0.9008    0.8087 C   0  0  0  0  0  0  0  0  0  0  0  0
   -0.0016    0.2004   -3.4509 H   0  0  0  0  0  0  0  0  0  0  0  0
   -0.0016   -1.0243    0.6822 H   0  0  0  0  0  0  0  0  0  0  0  0
   -2.1647    0.4015    0.4427 H   0  0  0  0  0  0  0  0  0  0  0  0
   -1.3050    1.9443    0.4912 H   0  0  0  0  0  0  0  0  0  0  0  0
   -1.2750    0.8728    1.8997 H   0  0  0  0  0  0  0  0  0  0  0  0
    1.3019    1.9443    0.4912 H   0  0  0  0  0  0  0  0  0  0  0  0
    2.1616    0.4014    0.4427 H   0  0  0  0  0  0  0  0  0  0  0  0
    1.2719    0.8728    1.8997 H   0  0  0  0  0  0  0  0  0  0  0  0
   -0.0016   -2.2665    1.0880 C   0  0  0  0  0  0  0  0  0  0  0  0
   -0.8907   -2.4521    1.6886 H   0  0  0  0  0  0  0  0  0  0  0  0
    0.7547   -1.7779    1.7004 H   0  0  0  0  0  0  0  0  0  0  0  0
    0.2596   -3.2904    0.8250 H   0  0  0  0  0  0  0  0  0  0  0  0
  1  2  3  0
  1  6  1  0
  2  3  1  0
  3  4  1  0
  3  5  1  0
  4  8  1  0
  4  9  1  0
  4 10  1  0
  5 11  1  0
  5 12  1  0
  5 13  1  0
  7 14  1  0
 14 15  1  0
 14 16  1  0
 14 17  1  0
M  RAD  1   3   2
M  END
>  <reaction>  (11) 
rxn_1302

>  <mol_properties>  (11) 
{"1": {"label": "*0", "atom_type": "Ct"}, "2": {"label": "*1", "atom_type": "Cs"}, "6": {"label": "*2", "atom_type": "H0"}, "13": {"label": "*3", "atom_type": "Cs"}, "14": {"label": "*4", "atom_type": "H0"}}

>  <type>  (11) 
unop_7

>  <geom_source>  (11) 
Heuristics

$$$$

     RDKit          3D

 17 15  0  0  0  0  0  0  0  0999 V2000
   -0.0003    0.1990   -2.3864 C   0  0  0  0  0  0  0  0  0  0  0  0
   -0.0003    0.1990   -1.1883 C   0  0  0  0  0  0  0  0  0  0  0  0
   -0.0003    0.2230    0.2755 C   0  0  0  0  0  3  0  0  0  0  0  0
   -1.2664    0.8994    0.8098 C   0  0  0  0  0  0  0  0  0  0  0  0
    1.2658    0.8994    0.8098 C   0  0  0  0  0  0  0  0  0  0  0  0
   -0.0003    0.1990   -3.4497 H   0  0  0  0  0  0  0  0  0  0  0  0
   -0.0003   -1.0257    0.6834 H   0  0  0  0  0  0  0  0  0  0  0  0
   -2.1635    0.4001    0.4439 H   0  0  0  0  0  0  0  0  0  0  0  0
   -1.3038    1.9430    0.4923 H   0  0  0  0  0  0  0  0  0  0  0  0
   -1.2738    0.8714    1.9009 H   0  0  0  0  0  0  0  0  0  0  0  0
    1.3032    1.9429    0.4923 H   0  0  0  0  0  0  0  0  0  0  0  0
    2.1628    0.4001    0.4439 H   0  0  0  0  0  0  0  0  0  0  0  0
    1.2731    0.8714    1.9009 H   0  0  0  0  0  0  0  0  0  0  0  0
   -0.0004   -2.2678    1.0891 C   0  0  0  0  0  0  0  0  0  0  0  0
    1.0263   -2.6129    1.2018 H   0  0  0  0  0  0  0  0  0  0  0  0
   -0.6622   -3.1260    0.9836 H   0  0  0  0  0  0  0  0  0  0  0  0
   -0.3383   -1.6742    1.9372 H   0  0  0  0  0  0  0  0  0  0  0  0
  1  2  3  0
  1  6  1  0
  2  3  1  0
  3  4  1  0
  3  5  1  0
  4  8  1  0
  4  9  1  0
  4 10  1  0
  5 11  1  0
  5 12  1  0
  5 13  1  0
  7 14  1  0
 14 15  1  0
 14 16  1  0
 14 17  1  0
M  RAD  1   3   2
M  END
>  <reaction>  (12) 
rxn_1302

>  <mol_properties>  (12) 
{"1": {"label": "*0", "atom_type": "Ct"}, "2": {"label": "*1", "atom_type": "Cs"}, "6": {"label": "*2", "atom_type": "H0"}, "13": {"label": "*3", "atom_type": "Cs"}, "14": {"label": "*4", "atom_type": "H0"}}

>  <type>  (12) 
unop_8

>  <geom_source>  (12) 
Heuristics

$$$$

     RDKit          3D

 17 15  0  0  0  0  0  0  0  0999 V2000
    0.0023    0.1964   -2.3830 C   0  0  0  0  0  0  0  0  0  0  0  0
    0.0023    0.1964   -1.1849 C   0  0  0  0  0  0  0  0  0  0  0  0
    0.0023    0.2204    0.2789 C   0  0  0  0  0  3  0  0  0  0  0  0
   -1.2638    0.8968    0.8133 C   0  0  0  0  0  0  0  0  0  0  0  0
    1.2685    0.8968    0.8133 C   0  0  0  0  0  0  0  0  0  0  0  0
    0.0023    0.1964   -3.4463 H   0  0  0  0  0  0  0  0  0  0  0  0
    0.0023   -1.0283    0.6868 H   0  0  0  0  0  0  0  0  0  0  0  0
   -2.1608    0.3975    0.4474 H   0  0  0  0  0  0  0  0  0  0  0  0
   -1.3011    1.9404    0.4958 H   0  0  0  0  0  0  0  0  0  0  0  0
   -1.2711    0.8688    1.9043 H   0  0  0  0  0  0  0  0  0  0  0  0
    1.3058    1.9403    0.4958 H   0  0  0  0  0  0  0  0  0  0  0  0
    2.1655    0.3975    0.4474 H   0  0  0  0  0  0  0  0  0  0  0  0
    1.2758    0.8688    1.9043 H   0  0  0  0  0  0  0  0  0  0  0  0
    0.0023   -2.2704    1.0926 C   0  0  0  0  0  0  0  0  0  0  0  0
   -0.5110   -2.8915    0.3601 H   0  0  0  0  0  0  0  0  0  0  0  0
   -0.6619   -2.0766    1.9334 H   0  0  0  0  0  0  0  0  0  0  0  0
    0.9879   -2.2391    1.5545 H   0  0  0  0  0  0  0  0  0  0  0  0
  1  2  3  0
  1  6  1  0
  2  3  1  0
  3  4  1  0
  3  5  1  0
  4  8  1  0
  4  9  1  0
  4 10  1  0
  5 11  1  0
  5 12  1  0
  5 13  1  0
  7 14  1  0
 14 15  1  0
 14 16  1  0
 14 17  1  0
M  RAD  1   3   2
M  END
>  <reaction>  (13) 
rxn_1302

>  <mol_properties>  (13) 
{"1": {"label": "*0", "atom_type": "Ct"}, "2": {"label": "*1", "atom_type": "Cs"}, "6": {"label": "*2", "atom_type": "H0"}, "13": {"label": "*3", "atom_type": "Cs"}, "14": {"label": "*4", "atom_type": "H0"}}

>  <type>  (13) 
unop_9

>  <geom_source>  (13) 
Heuristics

$$$$

     RDKit          3D

 17 15  0  0  0  0  0  0  0  0999 V2000
   -0.0004    0.1988   -2.3838 C   0  0  0  0  0  0  0  0  0  0  0  0
   -0.0004    0.1988   -1.1857 C   0  0  0  0  0  0  0  0  0  0  0  0
   -0.0004    0.2228    0.2781 C   0  0  0  0  0  3  0  0  0  0  0  0
   -1.2665    0.8992    0.8125 C   0  0  0  0  0  0  0  0  0  0  0  0
    1.2657    0.8992    0.8125 C   0  0  0  0  0  0  0  0  0  0  0  0
   -0.0004    0.1988   -3.4471 H   0  0  0  0  0  0  0  0  0  0  0  0
   -0.0004   -1.0259    0.6860 H   0  0  0  0  0  0  0  0  0  0  0  0
   -2.1635    0.3999    0.4465 H   0  0  0  0  0  0  0  0  0  0  0  0
   -1.3038    1.9427    0.4949 H   0  0  0  0  0  0  0  0  0  0  0  0
   -1.2738    0.8712    1.9035 H   0  0  0  0  0  0  0  0  0  0  0  0
    1.3031    1.9427    0.4949 H   0  0  0  0  0  0  0  0  0  0  0  0
    2.1628    0.3999    0.4465 H   0  0  0  0  0  0  0  0  0  0  0  0
    1.2731    0.8712    1.9035 H   0  0  0  0  0  0  0  0  0  0  0  0
   -0.0004   -2.2680    1.0918 C   0  0  0  0  0  0  0  0  0  0  0  0
    0.8887   -2.7725    0.7165 H   0  0  0  0  0  0  0  0  0  0  0  0
   -0.8008   -2.9943    1.2251 H   0  0  0  0  0  0  0  0  0  0  0  0
   -0.0572   -1.6286    1.9713 H   0  0  0  0  0  0  0  0  0  0  0  0
  1  2  3  0
  1  6  1  0
  2  3  1  0
  3  4  1  0
  3  5  1  0
  4  8  1  0
  4  9  1  0
  4 10  1  0
  5 11  1  0
  5 12  1  0
  5 13  1  0
  7 14  1  0
 14 15  1  0
 14 16  1  0
 14 17  1  0
M  RAD  1   3   2
M  END
>  <reaction>  (14) 
rxn_1302

>  <mol_properties>  (14) 
{"1": {"label": "*0", "atom_type": "Ct"}, "2": {"label": "*1", "atom_type": "Cs"}, "6": {"label": "*2", "atom_type": "H0"}, "13": {"label": "*3", "atom_type": "Cs"}, "14": {"label": "*4", "atom_type": "H0"}}

>  <type>  (14) 
unop_10

>  <geom_source>  (14) 
Heuristics

$$$$

     RDKit          3D

 17 15  0  0  0  0  0  0  0  0999 V2000
   -0.0027    0.2029   -2.3866 C   0  0  0  0  0  0  0  0  0  0  0  0
   -0.0027    0.2029   -1.1886 C   0  0  0  0  0  0  0  0  0  0  0  0
   -0.0027    0.2269    0.2752 C   0  0  0  0  0  3  0  0  0  0  0  0
   -1.2688    0.9033    0.8096 C   0  0  0  0  0  0  0  0  0  0  0  0
    1.2634    0.9033    0.8096 C   0  0  0  0  0  0  0  0  0  0  0  0
   -0.0027    0.2029   -3.4500 H   0  0  0  0  0  0  0  0  0  0  0  0
   -0.0028   -1.0218    0.6831 H   0  0  0  0  0  0  0  0  0  0  0  0
   -2.1659    0.4040    0.4437 H   0  0  0  0  0  0  0  0  0  0  0  0
   -1.3062    1.9469    0.4921 H   0  0  0  0  0  0  0  0  0  0  0  0
   -1.2762    0.8753    1.9007 H   0  0  0  0  0  0  0  0  0  0  0  0
    1.3008    1.9468    0.4921 H   0  0  0  0  0  0  0  0  0  0  0  0
    2.1604    0.4040    0.4437 H   0  0  0  0  0  0  0  0  0  0  0  0
    1.2707    0.8753    1.9007 H   0  0  0  0  0  0  0  0  0  0  0  0
   -0.0028   -2.2639    1.0889 C   0  0  0  0  0  0  0  0  0  0  0  0
   -0.5161   -2.3329    2.0467 H   0  0  0  0  0  0  0  0  0  0  0  0
    1.0631   -2.1183    1.2579 H   0  0  0  0  0  0  0  0  0  0  0  0
   -0.3295   -3.2717    0.8370 H   0  0  0  0  0  0  0  0  0  0  0  0
  1  2  3  0
  1  6  1  0
  2  3  1  0
  3  4  1  0
  3  5  1  0
  4  8  1  0
  4  9  1  0
  4 10  1  0
  5 11  1  0
  5 12  1  0
  5 13  1  0
  7 14  1  0
 14 15  1  0
 14 16  1  0
 14 17  1  0
M  RAD  1   3   2
M  END
>  <reaction>  (15) 
rxn_1302

>  <mol_properties>  (15) 
{"1": {"label": "*0", "atom_type": "Ct"}, "2": {"label": "*1", "atom_type": "Cs"}, "6": {"label": "*2", "atom_type": "H0"}, "13": {"label": "*3", "atom_type": "Cs"}, "14": {"label": "*4", "atom_type": "H0"}}

>  <type>  (15) 
unop_11

>  <geom_source>  (15) 
Heuristics

$$$$

     RDKit          3D

 17 15  0  0  0  0  0  0  0  0999 V2000
    0.0025    0.1968   -2.3817 C   0  0  0  0  0  0  0  0  0  0  0  0
    0.0025    0.1968   -1.1836 C   0  0  0  0  0  0  0  0  0  0  0  0
    0.0025    0.2207    0.2802 C   0  0  0  0  0  3  0  0  0  0  0  0
   -1.2636    0.8972    0.8145 C   0  0  0  0  0  0  0  0  0  0  0  0
    1.2686    0.8972    0.8145 C   0  0  0  0  0  0  0  0  0  0  0  0
    0.0025    0.1968   -3.4450 H   0  0  0  0  0  0  0  0  0  0  0  0
    0.0025   -1.0279    0.6880 H   0  0  0  0  0  0  0  0  0  0  0  0
   -2.1607    0.3979    0.4486 H   0  0  0  0  0  0  0  0  0  0  0  0
   -1.3010    1.9407    0.4970 H   0  0  0  0  0  0  0  0  0  0  0  0
   -1.2710    0.8692    1.9056 H   0  0  0  0  0  0  0  0  0  0  0  0
    1.3060    1.9407    0.4970 H   0  0  0  0  0  0  0  0  0  0  0  0
    2.1656    0.3978    0.4486 H   0  0  0  0  0  0  0  0  0  0  0  0
    1.2759    0.8692    1.9056 H   0  0  0  0  0  0  0  0  0  0  0  0
    0.0024   -2.2700    1.0938 C   0  0  0  0  0  0  0  0  0  0  0  0
    0.0024   -2.9339    0.2306 H   0  0  0  0  0  0  0  0  0  0  0  0
   -0.8867   -2.4557    1.6945 H   0  0  0  0  0  0  0  0  0  0  0  0
    0.6878   -1.8455    1.8258 H   0  0  0  0  0  0  0  0  0  0  0  0
  1  2  3  0
  1  6  1  0
  2  3  1  0
  3  4  1  0
  3  5  1  0
  4  8  1  0
  4  9  1  0
  4 10  1  0
  5 11  1  0
  5 12  1  0
  5 13  1  0
  7 14  1  0
 14 15  1  0
 14 16  1  0
 14 17  1  0
M  RAD  1   3   2
M  END
>  <reaction>  (16) 
rxn_1302

>  <mol_properties>  (16) 
{"1": {"label": "*0", "atom_type": "Ct"}, "2": {"label": "*1", "atom_type": "Cs"}, "6": {"label": "*2", "atom_type": "H0"}, "13": {"label": "*3", "atom_type": "Cs"}, "14": {"label": "*4", "atom_type": "H0"}}

>  <type>  (16) 
unop_12

>  <geom_source>  (16) 
Heuristics

$$$$

     RDKit          3D

 17 15  0  0  0  0  0  0  0  0999 V2000
   -0.8905   -0.8152    1.3110 C   0  0  0  0  0  0  0  0  0  0  0  0
   -0.9627   -0.8885   -1.2135 C   0  0  0  0  0  0  0  0  0  0  0  0
    2.2169    0.1804   -0.0697 C   0  0  0  0  0  0  0  0  0  0  0  0
   -0.3543   -0.2118    0.0138 C   0  0  0  0  0  3  0  0  0  0  0  0
   -0.5983    1.2380   -0.0213 C   0  0  0  0  0  0  0  0  0  0  0  0
   -0.7974    2.4268   -0.0501 C   0  0  0  0  0  0  0  0  0  0  0  0
   -1.9909   -0.6754    1.3858 H   0  0  0  0  0  0  0  0  0  0  0  0
   -0.6605   -1.9010    1.3456 H   0  0  0  0  0  0  0  0  0  0  0  0
   -0.4029   -0.3313    2.1840 H   0  0  0  0  0  0  0  0  0  0  0  0
   -0.5264   -0.4568   -2.1394 H   0  0  0  0  0  0  0  0  0  0  0  0
   -2.0657   -0.7514   -1.2333 H   0  0  0  0  0  0  0  0  0  0  0  0
   -0.7332   -1.9748   -1.1981 H   0  0  0  0  0  0  0  0  0  0  0  0
    2.2072    0.5360   -1.1206 H   0  0  0  0  0  0  0  0  0  0  0  0
    2.6235    0.9771    0.5865 H   0  0  0  0  0  0  0  0  0  0  0  0
    2.8541   -0.7243    0.0087 H   0  0  0  0  0  0  0  0  0  0  0  0
    1.0535   -0.0981    0.2860 H   0  0  0  0  0  0  0  0  0  0  0  0
   -0.9724    3.4702   -0.0754 H   0  0  0  0  0  0  0  0  0  0  0  0
  1  4  1  0
  1  7  1  0
  1  8  1  0
  1  9  1  0
  2  4  1  0
  2 10  1  0
  2 11  1  0
  2 12  1  0
  3 13  1  0
  3 14  1  0
  3 15  1  0
  3 16  1  0
  4  5  1  0
  5  6  3  0
  6 17  1  0
M  RAD  1   4   2
M  END
>  <reaction>  (17) 
rxn_1302

>  <mol_properties>  (17) 
{"1": {"label": "*0", "atom_type": "Ct"}, "2": {"label": "*1", "atom_type": "Cs"}, "6": {"label": "*2", "atom_type": "H0"}, "13": {"label": "*3", "atom_type": "Cs"}, "14": {"label": "*4", "atom_type": "H0"}}

>  <type>  (17) 
unop_13

>  <geom_source>  (17) 
AutoTST

$$$$

     RDKit          3D

 17 15  0  0  0  0  0  0  0  0999 V2000
    0.0012    0.1981   -2.3819 C   0  0  0  0  0  0  0  0  0  0  0  0
    0.0012    0.1981   -1.1838 C   0  0  0  0  0  0  0  0  0  0  0  0
    0.0012    0.2220    0.2801 C   0  0  0  0  0  3  0  0  0  0  0  0
   -1.2649    0.8985    0.8144 C   0  0  0  0  0  0  0  0  0  0  0  0
    1.2673    0.8984    0.8144 C   0  0  0  0  0  0  0  0  0  0  0  0
    0.0012    0.1981   -3.4452 H   0  0  0  0  0  0  0  0  0  0  0  0
    0.0012   -1.0267    0.6879 H   0  0  0  0  0  0  0  0  0  0  0  0
   -2.1620    0.3992    0.4485 H   0  0  0  0  0  0  0  0  0  0  0  0
   -1.3022    1.9420    0.4969 H   0  0  0  0  0  0  0  0  0  0  0  0
   -1.2722    0.8705    1.9055 H   0  0  0  0  0  0  0  0  0  0  0  0
    1.3047    1.9419    0.4969 H   0  0  0  0  0  0  0  0  0  0  0  0
    2.1644    0.3991    0.4485 H   0  0  0  0  0  0  0  0  0  0  0  0
    1.2747    0.8704    1.9055 H   0  0  0  0  0  0  0  0  0  0  0  0
    0.0012   -2.2688    1.0937 C   0  0  0  0  0  0  0  0  0  0  0  0
    0.5145   -2.8899    0.3612 H   0  0  0  0  0  0  0  0  0  0  0  0
   -0.8901   -2.7853    1.4467 H   0  0  0  0  0  0  0  0  0  0  0  0
    0.2803   -1.6599    1.9523 H   0  0  0  0  0  0  0  0  0  0  0  0
  1  2  3  0
  1  6  1  0
  2  3  1  0
  3  4  1  0
  3  5  1  0
  4  8  1  0
  4  9  1  0
  4 10  1  0
  5 11  1  0
  5 12  1  0
  5 13  1  0
  7 14  1  0
 14 15  1  0
 14 16  1  0
 14 17  1  0
M  RAD  1   3   2
M  END
>  <reaction>  (18) 
rxn_1302

>  <mol_properties>  (18) 
{"1": {"label": "*0", "atom_type": "Ct"}, "2": {"label": "*1", "atom_type": "Cs"}, "6": {"label": "*2", "atom_type": "H0"}, "13": {"label": "*3", "atom_type": "Cs"}, "14": {"label": "*4", "atom_type": "H0"}}

>  <type>  (18) 
unop_14

>  <geom_source>  (18) 
gaussian_log

$$$$
