
     RDKit          3D

 12 11  0  0  0  0  0  0  0  0999 V2000
    1.2394   -0.3763   -0.3020 C   0  0  0  0  0  0  0  0  0  0  0  0
    0.1007    0.3023    0.4464 C   0  0  0  0  0  0  0  0  0  0  0  0
   -0.1187    2.0399   -0.0725 S   0  0  0  0  0  0  0  0  0  0  0  0
   -1.1974   -0.4877    0.3552 C   0  0  0  0  0  0  0  0  0  0  0  0
    2.1681    0.1849   -0.2048 H   0  0  0  0  0  0  0  0  0  0  0  0
    1.0031   -0.4606   -1.3656 H   0  0  0  0  0  0  0  0  0  0  0  0
    1.3994   -1.3856    0.0860 H   0  0  0  0  0  0  0  0  0  0  0  0
    0.3796    0.4050    1.4981 H   0  0  0  0  0  0  0  0  0  0  0  0
   -0.4500    1.7779   -1.3452 H   0  0  0  0  0  0  0  0  0  0  0  0
   -1.0545   -1.4978    0.7479 H   0  0  0  0  0  0  0  0  0  0  0  0
   -1.5206   -0.5759   -0.6849 H   0  0  0  0  0  0  0  0  0  0  0  0
   -1.9957   -0.0054    0.9183 H   0  0  0  0  0  0  0  0  0  0  0  0
  1  2  1  0
  1  5  1  0
  1  6  1  0
  1  7  1  0
  2  4  1  0
  2  3  1  0
  2  8  1  0
  3  9  1  0
  4 10  1  0
  4 11  1  0
  4 12  1  0
M  END
>  <reaction>  (1) 
rxn_1945

>  <mol_properties>  (1) 
{"1": {"label": "donator", "atom_type": "Cs"}, "7": {"label": "d_hydrogen", "atom_type": "H0"}}

>  <type>  (1) 
r1h

$$$$

     RDKit          3D

  3  2  0  0  0  0  0  0  0  0999 V2000
   -0.2614    0.0642    0.2600 C   0  0  0  0  0  3  0  0  0  0  0  0
    1.1418    0.6115   -0.1062 S   0  0  0  0  0  0  0  0  0  0  0  0
   -0.8805   -0.7296   -0.1538 H   0  0  0  0  0  0  0  0  0  0  0  0
  1  2  2  0
  1  3  1  0
M  RAD  1   1   2
M  END
>  <reaction>  (2) 
rxn_1945

>  <mol_properties>  (2) 
{"0": {"label": "acceptor", "atom_type": "CS"}}

>  <type>  (2) 
r2

$$$$

     RDKit          3D

  4  3  0  0  0  0  0  0  0  0999 V2000
   -0.1097    0.0067    0.0027 C   0  0  0  0  0  0  0  0  0  0  0  0
    1.4849   -0.0901   -0.0362 S   0  0  0  0  0  0  0  0  0  0  0  0
   -0.6318    0.9620    0.0167 H   0  0  0  0  0  0  0  0  0  0  0  0
   -0.7434   -0.8786    0.0168 H   0  0  0  0  0  0  0  0  0  0  0  0
  1  2  2  0
  1  3  1  0
  1  4  1  0
M  END
>  <reaction>  (3) 
rxn_1945

>  <mol_properties>  (3) 
{"0": {"label": "acceptor", "atom_type": "CS"}, "3": {"label": "a_hydrogen", "atom_type": "H0"}}

>  <type>  (3) 
r2h

$$$$

     RDKit          3D

 15 13  0  0  0  0  0  0  0  0999 V2000
   -1.2213   -0.5800    0.6483 C   0  0  0  0  0  3  0  0  0  0  0  0
   -1.1718   -2.0740    0.1253 S   0  0  0  0  0  0  0  0  0  0  0  0
   -2.1301   -0.0349    0.9108 H   0  0  0  0  0  0  0  0  0  0  0  0
    0.6179    0.9155   -1.5801 C   0  0  0  0  0  0  0  0  0  0  0  0
    0.8441    0.9298   -0.0898 C   0  0  0  0  0  0  0  0  0  0  0  0
    2.2763    0.0319    0.4785 S   0  0  0  0  0  0  0  0  0  0  0  0
    0.7502    2.2853    0.5678 C   0  0  0  0  0  0  0  0  0  0  0  0
    0.5579   -0.1055   -1.9616 H   0  0  0  0  0  0  0  0  0  0  0  0
    1.4312    1.4260   -2.1041 H   0  0  0  0  0  0  0  0  0  0  0  0
   -0.3184    1.4234   -1.8240 H   0  0  0  0  0  0  0  0  0  0  0  0
   -0.1599    0.2188    0.4269 H   0  0  0  0  0  0  0  0  0  0  0  0
    2.0415   -1.0904   -0.2165 H   0  0  0  0  0  0  0  0  0  0  0  0
   -0.2070    2.7504    0.3239 H   0  0  0  0  0  0  0  0  0  0  0  0
    1.5426    2.9524    0.2138 H   0  0  0  0  0  0  0  0  0  0  0  0
    0.8297    2.2109    1.6533 H   0  0  0  0  0  0  0  0  0  0  0  0
  1  2  2  0
  1  3  1  0
  4  5  1  0
  4  8  1  0
  4  9  1  0
  4 10  1  0
  5  7  1  0
  5  6  1  0
  5 11  1  0
  6 12  1  0
  7 13  1  0
  7 14  1  0
  7 15  1  0
M  RAD  1   1   2
M  END
>  <reaction>  (4) 
rxn_1945

>  <mol_properties>  (4) 
{"0": {"label": "*3", "atom_type": "CS"}, "1": {"label": "*4", "atom_type": "S2d"}, "4": {"label": "*1", "atom_type": "Cs"}, "5": {"label": "*0", "atom_type": "S2s"}, "10": {"label": "*2", "atom_type": "H0"}}

>  <type>  (4) 
ts

$$$$

     RDKit          3D

 15 13  0  0  0  0  0  0  0  0999 V2000
   -1.7271   -0.3623    0.2275 C   0  0  0  0  0  0  0  0  0  0  0  0
   -1.6337   -1.6687    1.1430 S   0  0  0  0  0  0  0  0  0  0  0  0
   -2.4106    0.4549    0.4524 H   0  0  0  0  0  0  0  0  0  0  0  0
    0.4045    0.8991   -2.1432 C   0  0  0  0  0  0  0  0  0  0  0  0
    0.4045    0.8991   -0.6209 C   0  0  0  0  0  3  0  0  0  0  0  0
    1.7595   -0.1174    0.0628 S   0  0  0  0  0  0  0  0  0  0  0  0
    0.4045    2.3090   -0.0468 C   0  0  0  0  0  0  0  0  0  0  0  0
    0.3759   -0.1152   -2.5399 H   0  0  0  0  0  0  0  0  0  0  0  0
    1.3029    1.3888   -2.5268 H   0  0  0  0  0  0  0  0  0  0  0  0
   -0.4625    1.4465   -2.5220 H   0  0  0  0  0  0  0  0  0  0  0  0
   -0.6634    0.2672   -0.1959 H   0  0  0  0  0  0  0  0  0  0  0  0
    2.7658    0.6181   -0.4319 H   0  0  0  0  0  0  0  0  0  0  0  0
   -0.4625    2.8663   -0.4110 H   0  0  0  0  0  0  0  0  0  0  0  0
    1.3029    2.8490   -0.3557 H   0  0  0  0  0  0  0  0  0  0  0  0
    0.3759    2.2939    1.0421 H   0  0  0  0  0  0  0  0  0  0  0  0
  1  2  2  0
  1  3  1  0
  1 11  1  0
  4  5  1  0
  4  8  1  0
  4  9  1  0
  4 10  1  0
  5  7  1  0
  5  6  1  0
  6 12  1  0
  7 13  1  0
  7 14  1  0
  7 15  1  0
M  RAD  1   5   2
M  END
>  <reaction>  (5) 
rxn_1945

>  <mol_properties>  (5) 
{"0": {"label": "*3", "atom_type": "CS"}, "1": {"label": "*4", "atom_type": "S2d"}, "4": {"label": "*1", "atom_type": "Cs"}, "5": {"label": "*0", "atom_type": "S2s"}, "10": {"label": "*2", "atom_type": "H0"}}

>  <type>  (5) 
unop_1

>  <geom_source>  (5) 
Heuristics

$$$$

     RDKit          3D

 15 13  0  0  0  0  0  0  0  0999 V2000
   -1.5283   -0.3888    0.6825 C   0  0  0  0  0  0  0  0  0  0  0  0
   -2.2026   -1.5739   -0.1507 S   0  0  0  0  0  0  0  0  0  0  0  0
   -1.7330   -0.2355    1.7409 H   0  0  0  0  0  0  0  0  0  0  0  0
    0.6034    0.8726   -1.6881 C   0  0  0  0  0  0  0  0  0  0  0  0
    0.6034    0.8726   -0.1658 C   0  0  0  0  0  3  0  0  0  0  0  0
    1.9584   -0.1439    0.5178 S   0  0  0  0  0  0  0  0  0  0  0  0
    0.6034    2.2825    0.4082 C   0  0  0  0  0  0  0  0  0  0  0  0
    0.5748   -0.1417   -2.0848 H   0  0  0  0  0  0  0  0  0  0  0  0
    1.5018    1.3623   -2.0717 H   0  0  0  0  0  0  0  0  0  0  0  0
   -0.2636    1.4200   -2.0669 H   0  0  0  0  0  0  0  0  0  0  0  0
   -0.4645    0.2407    0.2592 H   0  0  0  0  0  0  0  0  0  0  0  0
    2.9646    0.5916    0.0232 H   0  0  0  0  0  0  0  0  0  0  0  0
   -0.2636    2.8398    0.0441 H   0  0  0  0  0  0  0  0  0  0  0  0
    1.5018    2.8225    0.0993 H   0  0  0  0  0  0  0  0  0  0  0  0
    0.5748    2.2674    1.4972 H   0  0  0  0  0  0  0  0  0  0  0  0
  1  2  2  0
  1  3  1  0
  1 11  1  0
  4  5  1  0
  4  8  1  0
  4  9  1  0
  4 10  1  0
  5  7  1  0
  5  6  1  0
  6 12  1  0
  7 13  1  0
  7 14  1  0
  7 15  1  0
M  RAD  1   5   2
M  END
>  <reaction>  (6) 
rxn_1945

>  <mol_properties>  (6) 
{"0": {"label": "*3", "atom_type": "CS"}, "1": {"label": "*4", "atom_type": "S2d"}, "4": {"label": "*1", "atom_type": "Cs"}, "5": {"label": "*0", "atom_type": "S2s"}, "10": {"label": "*2", "atom_type": "H0"}}

>  <type>  (6) 
unop_2

>  <geom_source>  (6) 
Heuristics

$$$$

     RDKit          3D

 15 13  0  0  0  0  0  0  0  0999 V2000
   -1.6955   -0.4944    0.1085 C   0  0  0  0  0  0  0  0  0  0  0  0
   -1.7162   -1.2928    1.4925 S   0  0  0  0  0  0  0  0  0  0  0  0
   -2.5532    0.0763   -0.2438 H   0  0  0  0  0  0  0  0  0  0  0  0
    0.4361    0.7669   -2.2622 C   0  0  0  0  0  0  0  0  0  0  0  0
    0.4361    0.7669   -0.7399 C   0  0  0  0  0  3  0  0  0  0  0  0
    1.7911   -0.2495   -0.0562 S   0  0  0  0  0  0  0  0  0  0  0  0
    0.4361    2.1769   -0.1658 C   0  0  0  0  0  0  0  0  0  0  0  0
    0.4075   -0.2473   -2.6589 H   0  0  0  0  0  0  0  0  0  0  0  0
    1.3345    1.2566   -2.6458 H   0  0  0  0  0  0  0  0  0  0  0  0
   -0.4309    1.3143   -2.6410 H   0  0  0  0  0  0  0  0  0  0  0  0
   -0.6318    0.1350   -0.3149 H   0  0  0  0  0  0  0  0  0  0  0  0
    2.7974    0.4860   -0.5509 H   0  0  0  0  0  0  0  0  0  0  0  0
   -0.4309    2.7341   -0.5300 H   0  0  0  0  0  0  0  0  0  0  0  0
    1.3345    2.7168   -0.4747 H   0  0  0  0  0  0  0  0  0  0  0  0
    0.4075    2.1618    0.9231 H   0  0  0  0  0  0  0  0  0  0  0  0
  1  2  2  0
  1  3  1  0
  1 11  1  0
  4  5  1  0
  4  8  1  0
  4  9  1  0
  4 10  1  0
  5  7  1  0
  5  6  1  0
  6 12  1  0
  7 13  1  0
  7 14  1  0
  7 15  1  0
M  RAD  1   5   2
M  END
>  <reaction>  (7) 
rxn_1945

>  <mol_properties>  (7) 
{"0": {"label": "*3", "atom_type": "CS"}, "1": {"label": "*4", "atom_type": "S2d"}, "4": {"label": "*1", "atom_type": "Cs"}, "5": {"label": "*0", "atom_type": "S2s"}, "10": {"label": "*2", "atom_type": "H0"}}

>  <type>  (7) 
unop_3

>  <geom_source>  (7) 
Heuristics

$$$$

     RDKit          3D

 15 13  0  0  0  0  0  0  0  0999 V2000
   -1.3197   -0.8253    0.5597 C   0  0  0  0  0  0  0  0  0  0  0  0
   -2.7972   -0.3379    0.1950 S   0  0  0  0  0  0  0  0  0  0  0  0
   -1.0876   -1.3129    1.5051 H   0  0  0  0  0  0  0  0  0  0  0  0
    0.8119    0.4360   -1.8110 C   0  0  0  0  0  0  0  0  0  0  0  0
    0.8119    0.4360   -0.2887 C   0  0  0  0  0  3  0  0  0  0  0  0
    2.1669   -0.5804    0.3950 S   0  0  0  0  0  0  0  0  0  0  0  0
    0.8119    1.8460    0.2854 C   0  0  0  0  0  0  0  0  0  0  0  0
    0.7833   -0.5783   -2.2076 H   0  0  0  0  0  0  0  0  0  0  0  0
    1.7103    0.9257   -2.1946 H   0  0  0  0  0  0  0  0  0  0  0  0
   -0.0551    0.9834   -2.1898 H   0  0  0  0  0  0  0  0  0  0  0  0
   -0.2560   -0.1959    0.1363 H   0  0  0  0  0  0  0  0  0  0  0  0
    3.1732    0.1551   -0.0997 H   0  0  0  0  0  0  0  0  0  0  0  0
   -0.0551    2.4032   -0.0788 H   0  0  0  0  0  0  0  0  0  0  0  0
    1.7103    2.3859   -0.0235 H   0  0  0  0  0  0  0  0  0  0  0  0
    0.7833    1.8309    1.3743 H   0  0  0  0  0  0  0  0  0  0  0  0
  1  2  2  0
  1  3  1  0
  1 11  1  0
  4  5  1  0
  4  8  1  0
  4  9  1  0
  4 10  1  0
  5  7  1  0
  5  6  1  0
  6 12  1  0
  7 13  1  0
  7 14  1  0
  7 15  1  0
M  RAD  1   5   2
M  END
>  <reaction>  (8) 
rxn_1945

>  <mol_properties>  (8) 
{"0": {"label": "*3", "atom_type": "CS"}, "1": {"label": "*4", "atom_type": "S2d"}, "4": {"label": "*1", "atom_type": "Cs"}, "5": {"label": "*0", "atom_type": "S2s"}, "10": {"label": "*2", "atom_type": "H0"}}

>  <type>  (8) 
unop_4

>  <geom_source>  (8) 
Heuristics

$$$$

     RDKit          3D

 15 13  0  0  0  0  0  0  0  0999 V2000
   -1.6195   -0.6482    0.0667 C   0  0  0  0  0  0  0  0  0  0  0  0
   -1.9342   -0.8344    1.6222 S   0  0  0  0  0  0  0  0  0  0  0  0
   -2.2779   -1.0377   -0.7081 H   0  0  0  0  0  0  0  0  0  0  0  0
    0.5121    0.6132   -2.3040 C   0  0  0  0  0  0  0  0  0  0  0  0
    0.5121    0.6132   -0.7817 C   0  0  0  0  0  3  0  0  0  0  0  0
    1.8671   -0.4033   -0.0980 S   0  0  0  0  0  0  0  0  0  0  0  0
    0.5121    2.0231   -0.2076 C   0  0  0  0  0  0  0  0  0  0  0  0
    0.4835   -0.4011   -2.7006 H   0  0  0  0  0  0  0  0  0  0  0  0
    1.4105    1.1029   -2.6876 H   0  0  0  0  0  0  0  0  0  0  0  0
   -0.3548    1.1606   -2.6828 H   0  0  0  0  0  0  0  0  0  0  0  0
   -0.5558   -0.0187   -0.3567 H   0  0  0  0  0  0  0  0  0  0  0  0
    2.8734    0.3322   -0.5927 H   0  0  0  0  0  0  0  0  0  0  0  0
   -0.3548    2.5804   -0.5718 H   0  0  0  0  0  0  0  0  0  0  0  0
    1.4105    2.5631   -0.5165 H   0  0  0  0  0  0  0  0  0  0  0  0
    0.4835    2.0080    0.8813 H   0  0  0  0  0  0  0  0  0  0  0  0
  1  2  2  0
  1  3  1  0
  1 11  1  0
  4  5  1  0
  4  8  1  0
  4  9  1  0
  4 10  1  0
  5  7  1  0
  5  6  1  0
  6 12  1  0
  7 13  1  0
  7 14  1  0
  7 15  1  0
M  RAD  1   5   2
M  END
>  <reaction>  (9) 
rxn_1945

>  <mol_properties>  (9) 
{"0": {"label": "*3", "atom_type": "CS"}, "1": {"label": "*4", "atom_type": "S2d"}, "4": {"label": "*1", "atom_type": "Cs"}, "5": {"label": "*0", "atom_type": "S2s"}, "10": {"label": "*2", "atom_type": "H0"}}

>  <type>  (9) 
unop_5

>  <geom_source>  (9) 
Heuristics

$$$$

     RDKit          3D

 15 13  0  0  0  0  0  0  0  0999 V2000
   -1.3465   -0.8937    0.3928 C   0  0  0  0  0  0  0  0  0  0  0  0
   -2.7276   -0.1387    0.6682 S   0  0  0  0  0  0  0  0  0  0  0  0
   -0.9599   -1.6575    1.0656 H   0  0  0  0  0  0  0  0  0  0  0  0
    0.7852    0.3676   -1.9778 C   0  0  0  0  0  0  0  0  0  0  0  0
    0.7852    0.3676   -0.4555 C   0  0  0  0  0  3  0  0  0  0  0  0
    2.1402   -0.6488    0.2281 S   0  0  0  0  0  0  0  0  0  0  0  0
    0.7852    1.7776    0.1186 C   0  0  0  0  0  0  0  0  0  0  0  0
    0.7566   -0.6467   -2.3745 H   0  0  0  0  0  0  0  0  0  0  0  0
    1.6836    0.8573   -2.3614 H   0  0  0  0  0  0  0  0  0  0  0  0
   -0.0818    0.9150   -2.3566 H   0  0  0  0  0  0  0  0  0  0  0  0
   -0.2827   -0.2643   -0.0305 H   0  0  0  0  0  0  0  0  0  0  0  0
    3.1465    0.0867   -0.2665 H   0  0  0  0  0  0  0  0  0  0  0  0
   -0.0818    2.3348   -0.2456 H   0  0  0  0  0  0  0  0  0  0  0  0
    1.6836    2.3175   -0.1904 H   0  0  0  0  0  0  0  0  0  0  0  0
    0.7566    1.7625    1.2075 H   0  0  0  0  0  0  0  0  0  0  0  0
  1  2  2  0
  1  3  1  0
  1 11  1  0
  4  5  1  0
  4  8  1  0
  4  9  1  0
  4 10  1  0
  5  7  1  0
  5  6  1  0
  6 12  1  0
  7 13  1  0
  7 14  1  0
  7 15  1  0
M  RAD  1   5   2
M  END
>  <reaction>  (10) 
rxn_1945

>  <mol_properties>  (10) 
{"0": {"label": "*3", "atom_type": "CS"}, "1": {"label": "*4", "atom_type": "S2d"}, "4": {"label": "*1", "atom_type": "Cs"}, "5": {"label": "*0", "atom_type": "S2s"}, "10": {"label": "*2", "atom_type": "H0"}}

>  <type>  (10) 
unop_6

>  <geom_source>  (10) 
Heuristics

$$$$

     RDKit          3D

 15 13  0  0  0  0  0  0  0  0999 V2000
   -1.4207   -0.8801    0.2275 C   0  0  0  0  0  0  0  0  0  0  0  0
   -2.5209   -0.1694    1.1430 S   0  0  0  0  0  0  0  0  0  0  0  0
   -1.0335   -1.8725    0.4524 H   0  0  0  0  0  0  0  0  0  0  0  0
    0.7109    0.3812   -2.1432 C   0  0  0  0  0  0  0  0  0  0  0  0
    0.7109    0.3812   -0.6209 C   0  0  0  0  0  3  0  0  0  0  0  0
    2.0659   -0.6352    0.0628 S   0  0  0  0  0  0  0  0  0  0  0  0
    0.7109    1.7912   -0.0468 C   0  0  0  0  0  0  0  0  0  0  0  0
    0.6823   -0.6330   -2.5399 H   0  0  0  0  0  0  0  0  0  0  0  0
    1.6093    0.8709   -2.5268 H   0  0  0  0  0  0  0  0  0  0  0  0
   -0.1560    0.9286   -2.5220 H   0  0  0  0  0  0  0  0  0  0  0  0
   -0.3570   -0.2507   -0.1959 H   0  0  0  0  0  0  0  0  0  0  0  0
    3.0722    0.1003   -0.4319 H   0  0  0  0  0  0  0  0  0  0  0  0
   -0.1560    2.3484   -0.4110 H   0  0  0  0  0  0  0  0  0  0  0  0
    1.6093    2.3311   -0.3557 H   0  0  0  0  0  0  0  0  0  0  0  0
    0.6823    1.7761    1.0421 H   0  0  0  0  0  0  0  0  0  0  0  0
  1  2  2  0
  1  3  1  0
  1 11  1  0
  4  5  1  0
  4  8  1  0
  4  9  1  0
  4 10  1  0
  5  7  1  0
  5  6  1  0
  6 12  1  0
  7 13  1  0
  7 14  1  0
  7 15  1  0
M  RAD  1   5   2
M  END
>  <reaction>  (11) 
rxn_1945

>  <mol_properties>  (11) 
{"0": {"label": "*3", "atom_type": "CS"}, "1": {"label": "*4", "atom_type": "S2d"}, "4": {"label": "*1", "atom_type": "Cs"}, "5": {"label": "*0", "atom_type": "S2s"}, "10": {"label": "*2", "atom_type": "H0"}}

>  <type>  (11) 
unop_7

>  <geom_source>  (11) 
Heuristics

$$$$

     RDKit          3D

 15 13  0  0  0  0  0  0  0  0999 V2000
   -1.7033   -0.2906    0.3928 C   0  0  0  0  0  0  0  0  0  0  0  0
   -1.7063   -1.8647    0.6682 S   0  0  0  0  0  0  0  0  0  0  0  0
   -2.1867    0.4159    1.0656 H   0  0  0  0  0  0  0  0  0  0  0  0
    0.4283    0.9707   -1.9778 C   0  0  0  0  0  0  0  0  0  0  0  0
    0.4283    0.9707   -0.4555 C   0  0  0  0  0  3  0  0  0  0  0  0
    1.7833   -0.0457    0.2281 S   0  0  0  0  0  0  0  0  0  0  0  0
    0.4283    2.3807    0.1186 C   0  0  0  0  0  0  0  0  0  0  0  0
    0.3997   -0.0436   -2.3745 H   0  0  0  0  0  0  0  0  0  0  0  0
    1.3267    1.4604   -2.3614 H   0  0  0  0  0  0  0  0  0  0  0  0
   -0.4387    1.5181   -2.3566 H   0  0  0  0  0  0  0  0  0  0  0  0
   -0.6396    0.3388   -0.0305 H   0  0  0  0  0  0  0  0  0  0  0  0
    2.7896    0.6898   -0.2665 H   0  0  0  0  0  0  0  0  0  0  0  0
   -0.4387    2.9379   -0.2456 H   0  0  0  0  0  0  0  0  0  0  0  0
    1.3267    2.9206   -0.1904 H   0  0  0  0  0  0  0  0  0  0  0  0
    0.3997    2.3656    1.2075 H   0  0  0  0  0  0  0  0  0  0  0  0
  1  2  2  0
  1  3  1  0
  1 11  1  0
  4  5  1  0
  4  8  1  0
  4  9  1  0
  4 10  1  0
  5  7  1  0
  5  6  1  0
  6 12  1  0
  7 13  1  0
  7 14  1  0
  7 15  1  0
M  RAD  1   5   2
M  END
>  <reaction>  (12) 
rxn_1945

>  <mol_properties>  (12) 
{"0": {"label": "*3", "atom_type": "CS"}, "1": {"label": "*4", "atom_type": "S2d"}, "4": {"label": "*1", "atom_type": "Cs"}, "5": {"label": "*0", "atom_type": "S2s"}, "10": {"label": "*2", "atom_type": "H0"}}

>  <type>  (12) 
unop_8

>  <geom_source>  (12) 
Heuristics

$$$$

     RDKit          3D

 15 13  0  0  0  0  0  0  0  0999 V2000
   -1.3482   -0.6931    0.6825 C   0  0  0  0  0  0  0  0  0  0  0  0
   -2.7116   -0.7136   -0.1507 S   0  0  0  0  0  0  0  0  0  0  0  0
   -1.3125   -0.9462    1.7409 H   0  0  0  0  0  0  0  0  0  0  0  0
    0.7834    0.5683   -1.6881 C   0  0  0  0  0  0  0  0  0  0  0  0
    0.7834    0.5683   -0.1658 C   0  0  0  0  0  3  0  0  0  0  0  0
    2.1384   -0.4482    0.5178 S   0  0  0  0  0  0  0  0  0  0  0  0
    0.7834    1.9782    0.4082 C   0  0  0  0  0  0  0  0  0  0  0  0
    0.7548   -0.4460   -2.0848 H   0  0  0  0  0  0  0  0  0  0  0  0
    1.6818    1.0580   -2.0717 H   0  0  0  0  0  0  0  0  0  0  0  0
   -0.0836    1.1157   -2.0669 H   0  0  0  0  0  0  0  0  0  0  0  0
   -0.2845   -0.0636    0.2592 H   0  0  0  0  0  0  0  0  0  0  0  0
    3.1447    0.2873    0.0232 H   0  0  0  0  0  0  0  0  0  0  0  0
   -0.0836    2.5355    0.0441 H   0  0  0  0  0  0  0  0  0  0  0  0
    1.6818    2.5182    0.0993 H   0  0  0  0  0  0  0  0  0  0  0  0
    0.7548    1.9631    1.4972 H   0  0  0  0  0  0  0  0  0  0  0  0
  1  2  2  0
  1  3  1  0
  1 11  1  0
  4  5  1  0
  4  8  1  0
  4  9  1  0
  4 10  1  0
  5  7  1  0
  5  6  1  0
  6 12  1  0
  7 13  1  0
  7 14  1  0
  7 15  1  0
M  RAD  1   5   2
M  END
>  <reaction>  (13) 
rxn_1945

>  <mol_properties>  (13) 
{"0": {"label": "*3", "atom_type": "CS"}, "1": {"label": "*4", "atom_type": "S2d"}, "4": {"label": "*1", "atom_type": "Cs"}, "5": {"label": "*0", "atom_type": "S2s"}, "10": {"label": "*2", "atom_type": "H0"}}

>  <type>  (13) 
unop_9

>  <geom_source>  (13) 
Heuristics

$$$$

     RDKit          3D

 15 13  0  0  0  0  0  0  0  0999 V2000
   -1.6305   -0.3001    0.5597 C   0  0  0  0  0  0  0  0  0  0  0  0
   -1.9145   -1.8298    0.1950 S   0  0  0  0  0  0  0  0  0  0  0  0
   -1.9461    0.1381    1.5051 H   0  0  0  0  0  0  0  0  0  0  0  0
    0.5011    0.9612   -1.8110 C   0  0  0  0  0  0  0  0  0  0  0  0
    0.5011    0.9612   -0.2887 C   0  0  0  0  0  3  0  0  0  0  0  0
    1.8562   -0.0552    0.3950 S   0  0  0  0  0  0  0  0  0  0  0  0
    0.5011    2.3712    0.2854 C   0  0  0  0  0  0  0  0  0  0  0  0
    0.4726   -0.0530   -2.2076 H   0  0  0  0  0  0  0  0  0  0  0  0
    1.3996    1.4509   -2.1946 H   0  0  0  0  0  0  0  0  0  0  0  0
   -0.3658    1.5086   -2.1898 H   0  0  0  0  0  0  0  0  0  0  0  0
   -0.5667    0.3293    0.1363 H   0  0  0  0  0  0  0  0  0  0  0  0
    2.8624    0.6803   -0.0997 H   0  0  0  0  0  0  0  0  0  0  0  0
   -0.3658    2.9284   -0.0788 H   0  0  0  0  0  0  0  0  0  0  0  0
    1.3996    2.9111   -0.0235 H   0  0  0  0  0  0  0  0  0  0  0  0
    0.4726    2.3561    1.3743 H   0  0  0  0  0  0  0  0  0  0  0  0
  1  2  2  0
  1  3  1  0
  1 11  1  0
  4  5  1  0
  4  8  1  0
  4  9  1  0
  4 10  1  0
  5  7  1  0
  5  6  1  0
  6 12  1  0
  7 13  1  0
  7 14  1  0
  7 15  1  0
M  RAD  1   5   2
M  END
>  <reaction>  (14) 
rxn_1945

>  <mol_properties>  (14) 
{"0": {"label": "*3", "atom_type": "CS"}, "1": {"label": "*4", "atom_type": "S2d"}, "4": {"label": "*1", "atom_type": "Cs"}, "5": {"label": "*0", "atom_type": "S2s"}, "10": {"label": "*2", "atom_type": "H0"}}

>  <type>  (14) 
unop_10

>  <geom_source>  (14) 
Heuristics

$$$$

     RDKit          3D

 15 13  0  0  0  0  0  0  0  0999 V2000
   -1.5214   -0.7888    0.1085 C   0  0  0  0  0  0  0  0  0  0  0  0
   -2.2312   -0.4226    1.4925 S   0  0  0  0  0  0  0  0  0  0  0  0
   -1.4340   -1.8153   -0.2438 H   0  0  0  0  0  0  0  0  0  0  0  0
    0.6103    0.4725   -2.2622 C   0  0  0  0  0  0  0  0  0  0  0  0
    0.6103    0.4725   -0.7399 C   0  0  0  0  0  3  0  0  0  0  0  0
    1.9653   -0.5439   -0.0562 S   0  0  0  0  0  0  0  0  0  0  0  0
    0.6103    1.8825   -0.1658 C   0  0  0  0  0  0  0  0  0  0  0  0
    0.5817   -0.5417   -2.6589 H   0  0  0  0  0  0  0  0  0  0  0  0
    1.5087    0.9622   -2.6458 H   0  0  0  0  0  0  0  0  0  0  0  0
   -0.2567    1.0199   -2.6410 H   0  0  0  0  0  0  0  0  0  0  0  0
   -0.4576   -0.1594   -0.3149 H   0  0  0  0  0  0  0  0  0  0  0  0
    2.9716    0.1916   -0.5509 H   0  0  0  0  0  0  0  0  0  0  0  0
   -0.2567    2.4397   -0.5300 H   0  0  0  0  0  0  0  0  0  0  0  0
    1.5087    2.4224   -0.4747 H   0  0  0  0  0  0  0  0  0  0  0  0
    0.5817    1.8674    0.9231 H   0  0  0  0  0  0  0  0  0  0  0  0
  1  2  2  0
  1  3  1  0
  1 11  1  0
  4  5  1  0
  4  8  1  0
  4  9  1  0
  4 10  1  0
  5  7  1  0
  5  6  1  0
  6 12  1  0
  7 13  1  0
  7 14  1  0
  7 15  1  0
M  RAD  1   5   2
M  END
>  <reaction>  (15) 
rxn_1945

>  <mol_properties>  (15) 
{"0": {"label": "*3", "atom_type": "CS"}, "1": {"label": "*4", "atom_type": "S2d"}, "4": {"label": "*1", "atom_type": "Cs"}, "5": {"label": "*0", "atom_type": "S2s"}, "10": {"label": "*2", "atom_type": "H0"}}

>  <type>  (15) 
unop_11

>  <geom_source>  (15) 
Heuristics

$$$$

     RDKit          3D

 15 13  0  0  0  0  0  0  0  0999 V2000
   -1.4247   -0.5329    0.7277 C   0  0  0  0  0  0  0  0  0  0  0  0
   -2.4941   -1.1656   -0.2771 S   0  0  0  0  0  0  0  0  0  0  0  0
   -1.5360   -0.5988    1.8087 H   0  0  0  0  0  0  0  0  0  0  0  0
    0.7070    0.7284   -1.6430 C   0  0  0  0  0  0  0  0  0  0  0  0
    0.7070    0.7284   -0.1207 C   0  0  0  0  0  3  0  0  0  0  0  0
    2.0620   -0.2880    0.5630 S   0  0  0  0  0  0  0  0  0  0  0  0
    0.7070    2.1384    0.4534 C   0  0  0  0  0  0  0  0  0  0  0  0
    0.6784   -0.2858   -2.0397 H   0  0  0  0  0  0  0  0  0  0  0  0
    1.6054    1.2182   -2.0266 H   0  0  0  0  0  0  0  0  0  0  0  0
   -0.1600    1.2759   -2.0218 H   0  0  0  0  0  0  0  0  0  0  0  0
   -0.3609    0.0966    0.3043 H   0  0  0  0  0  0  0  0  0  0  0  0
    3.0682    0.4475    0.0683 H   0  0  0  0  0  0  0  0  0  0  0  0
   -0.1600    2.6957    0.0892 H   0  0  0  0  0  0  0  0  0  0  0  0
    1.6054    2.6784    0.1445 H   0  0  0  0  0  0  0  0  0  0  0  0
    0.6784    2.1233    1.5423 H   0  0  0  0  0  0  0  0  0  0  0  0
  1  2  2  0
  1  3  1  0
  1 11  1  0
  4  5  1  0
  4  8  1  0
  4  9  1  0
  4 10  1  0
  5  7  1  0
  5  6  1  0
  6 12  1  0
  7 13  1  0
  7 14  1  0
  7 15  1  0
M  RAD  1   5   2
M  END
>  <reaction>  (16) 
rxn_1945

>  <mol_properties>  (16) 
{"0": {"label": "*3", "atom_type": "CS"}, "1": {"label": "*4", "atom_type": "S2d"}, "4": {"label": "*1", "atom_type": "Cs"}, "5": {"label": "*0", "atom_type": "S2s"}, "10": {"label": "*2", "atom_type": "H0"}}

>  <type>  (16) 
unop_12

>  <geom_source>  (16) 
Heuristics

$$$$

     RDKit          3D

 15 13  0  0  0  0  0  0  0  0999 V2000
   -1.1986   -1.2952    1.4812 S   0  0  0  0  0  0  0  0  0  0  0  0
    3.1050   -1.3144   -0.3740 S   0  0  0  0  0  0  0  0  0  0  0  0
   -1.2051   -0.1313   -1.0173 C   0  0  0  0  0  0  0  0  0  0  0  0
   -0.1934    1.1922    0.8768 C   0  0  0  0  0  0  0  0  0  0  0  0
   -0.3919   -0.1949    0.2734 C   0  0  0  0  0  3  0  0  0  0  0  0
    2.1251   -0.2689   -0.3557 C   0  0  0  0  0  0  0  0  0  0  0  0
   -1.2974   -1.1477   -1.4538 H   0  0  0  0  0  0  0  0  0  0  0  0
   -0.6920    0.5185   -1.7572 H   0  0  0  0  0  0  0  0  0  0  0  0
   -2.2212    0.2723   -0.8194 H   0  0  0  0  0  0  0  0  0  0  0  0
    0.4268    1.1152    1.7943 H   0  0  0  0  0  0  0  0  0  0  0  0
   -1.1721    1.6493    1.1375 H   0  0  0  0  0  0  0  0  0  0  0  0
    0.3351    1.8485    0.1537 H   0  0  0  0  0  0  0  0  0  0  0  0
    2.4290    0.7617   -0.5024 H   0  0  0  0  0  0  0  0  0  0  0  0
    0.8650   -0.5574   -0.1621 H   0  0  0  0  0  0  0  0  0  0  0  0
   -0.9143   -2.4479    0.7249 H   0  0  0  0  0  0  0  0  0  0  0  0
  1  5  1  0
  1 15  1  0
  2  6  2  0
  3  5  1  0
  3  7  1  0
  3  8  1  0
  3  9  1  0
  4  5  1  0
  4 10  1  0
  4 11  1  0
  4 12  1  0
  6 13  1  0
  6 14  1  0
M  RAD  1   5   2
M  END
>  <reaction>  (17) 
rxn_1945

>  <mol_properties>  (17) 
{"0": {"label": "*3", "atom_type": "CS"}, "1": {"label": "*4", "atom_type": "S2d"}, "4": {"label": "*1", "atom_type": "Cs"}, "5": {"label": "*0", "atom_type": "S2s"}, "10": {"label": "*2", "atom_type": "H0"}}

>  <type>  (17) 
unop_13

>  <geom_source>  (17) 
AutoTST

$$$$
