
     RDKit          3D

  5  4  0  0  0  0  0  0  0  0999 V2000
    0.0000    0.0000    0.0000 C   0  0  0  0  0  0  0  0  0  0  0  0
   -0.6486   -0.7720   -0.4113 H   0  0  0  0  0  0  0  0  0  0  0  0
   -0.3482    0.9787   -0.3267 H   0  0  0  0  0  0  0  0  0  0  0  0
   -0.0223   -0.0487    1.0876 H   0  0  0  0  0  0  0  0  0  0  0  0
    1.0191   -0.1580   -0.3496 H   0  0  0  0  0  0  0  0  0  0  0  0
  1  2  1  0
  1  3  1  0
  1  4  1  0
  1  5  1  0
M  END
>  <reaction>  (1) 
rxn_850

>  <mol_properties>  (1) 
{"0": {"label": "donator", "atom_type": "Cs"}, "1": {"label": "d_hydrogen", "atom_type": "H0"}}

>  <type>  (1) 
r1h

$$$$

     RDKit          3D

  6  5  0  0  0  0  0  0  0  0999 V2000
   -0.7309   -0.0987    0.0327 C   0  0  0  0  0  0  0  0  0  0  0  0
    0.6208    0.0065   -0.0096 C   0  0  0  0  0  0  0  0  0  0  0  0
    1.6572   -1.2972    0.2837 S   0  0  0  0  0  1  0  0  0  0  0  0
   -1.3651    0.7588   -0.1608 H   0  0  0  0  0  0  0  0  0  0  0  0
   -1.2044   -1.0453    0.2616 H   0  0  0  0  0  0  0  0  0  0  0  0
    1.0609    0.9725   -0.2426 H   0  0  0  0  0  0  0  0  0  0  0  0
  1  2  2  3
  1  4  1  0
  1  5  1  0
  2  3  1  0
  2  6  1  0
M  RAD  1   3   2
M  END
>  <reaction>  (2) 
rxn_850

>  <mol_properties>  (2) 
{"0": {"label": "acceptor", "atom_type": "Cs"}}

>  <type>  (2) 
r2

$$$$

     RDKit          3D

  7  6  0  0  0  0  0  0  0  0999 V2000
   -0.6782    0.0507    0.0301 C   0  0  0  0  0  0  0  0  0  0  0  0
    0.8092    0.0996    0.0213 C   0  0  0  0  0  0  0  0  0  0  0  0
    1.7473    0.7521    1.1507 S   0  0  0  0  0  0  0  0  0  0  0  0
   -1.0667    0.5456   -0.8653 H   0  0  0  0  0  0  0  0  0  0  0  0
   -1.0112   -0.9904   -0.0239 H   0  0  0  0  0  0  0  0  0  0  0  0
   -1.0920    0.5225    0.9188 H   0  0  0  0  0  0  0  0  0  0  0  0
    1.2740   -0.3620   -0.8520 H   0  0  0  0  0  0  0  0  0  0  0  0
  1  2  1  0
  1  4  1  0
  1  5  1  0
  1  6  1  0
  2  3  2  0
  2  7  1  0
M  END
>  <reaction>  (3) 
rxn_850

>  <mol_properties>  (3) 
{"0": {"label": "acceptor", "atom_type": "Cs"}, "6": {"label": "a_hydrogen", "atom_type": "H0"}}

>  <type>  (3) 
r2h

$$$$

     RDKit          3D

 11  9  0  0  0  0  0  0  0  0999 V2000
    0.0817   -0.6227    1.0448 C   0  0  0  0  0  0  0  0  0  0  0  0
   -0.5978    0.1971    0.0565 C   0  0  0  0  0  0  0  0  0  0  0  0
    0.1231    1.0785   -1.0979 S   0  0  0  0  0  0  0  0  0  0  0  0
   -0.4746   -0.7793    1.9680 H   0  0  0  0  0  0  0  0  0  0  0  0
    1.1234   -0.3576    1.2088 H   0  0  0  0  0  0  0  0  0  0  0  0
   -1.6876    0.1575    0.0849 H   0  0  0  0  0  0  0  0  0  0  0  0
    0.3730   -3.1237   -0.0047 C   0  0  0  0  0  3  0  0  0  0  0  0
    0.1541   -1.7607    0.5636 H   0  0  0  0  0  0  0  0  0  0  0  0
    1.0059   -3.6019    0.7333 H   0  0  0  0  0  0  0  0  0  0  0  0
   -0.6412   -3.4994   -0.0750 H   0  0  0  0  0  0  0  0  0  0  0  0
    0.8484   -2.8629   -0.9430 H   0  0  0  0  0  0  0  0  0  0  0  0
  1  2  1  0
  1  4  1  0
  1  5  1  0
  1  8  1  0
  2  3  2  0
  2  6  1  0
  7  9  1  0
  7 10  1  0
  7 11  1  0
M  RAD  1   7   2
M  END
>  <reaction>  (4) 
rxn_850

>  <mol_properties>  (4) 
{"0": {"label": "*1", "atom_type": "Cs"}, "1": {"label": "*0", "atom_type": "CS"}, "6": {"label": "*3", "atom_type": "Cs"}, "7": {"label": "*2", "atom_type": "H0"}, "8": {"label": "*4", "atom_type": "H0"}}

>  <type>  (4) 
ts

$$$$

     RDKit          3D

 11  9  0  0  0  0  0  0  0  0999 V2000
    0.9893   -0.2181   -0.4774 C   0  0  0  0  0  0  0  0  0  0  0  0
   -0.2250    0.0185    0.3498 C   0  0  0  0  0  0  0  0  0  0  0  0
   -0.8601    1.4464    0.7227 S   0  0  0  0  0  1  0  0  0  0  0  0
    1.7262   -0.7796    0.1051 H   0  0  0  0  0  0  0  0  0  0  0  0
    1.4292    0.7147   -0.8238 H   0  0  0  0  0  0  0  0  0  0  0  0
   -0.7048   -0.8885    0.7226 H   0  0  0  0  0  0  0  0  0  0  0  0
    0.9893   -2.6882   -1.3507 C   0  0  0  0  0  0  0  0  0  0  0  0
    0.9893   -1.4562   -0.9151 H   0  0  0  0  0  0  0  0  0  0  0  0
    1.8784   -3.2015   -0.9877 H   0  0  0  0  0  0  0  0  0  0  0  0
    0.1001   -3.2015   -0.9877 H   0  0  0  0  0  0  0  0  0  0  0  0
    0.9893   -2.6882   -2.4396 H   0  0  0  0  0  0  0  0  0  0  0  0
  1  2  2  3
  1  4  1  0
  1  5  1  0
  2  3  1  0
  2  6  1  0
  7  8  1  0
  7  9  1  0
  7 10  1  0
  7 11  1  0
M  RAD  1   3   2
M  END
>  <reaction>  (5) 
rxn_850

>  <mol_properties>  (5) 
{"0": {"label": "*1", "atom_type": "Cs"}, "1": {"label": "*0", "atom_type": "CS"}, "6": {"label": "*3", "atom_type": "Cs"}, "7": {"label": "*2", "atom_type": "H0"}, "8": {"label": "*4", "atom_type": "H0"}}

>  <type>  (5) 
unop_1

>  <geom_source>  (5) 
Heuristics

$$$$

     RDKit          3D

 11  9  0  0  0  0  0  0  0  0999 V2000
    0.2428   -0.6283    0.9480 C   0  0  0  0  0  0  0  0  0  0  0  0
   -0.4582    0.2467   -0.0306 C   0  0  0  0  0  0  0  0  0  0  0  0
   -0.0198    1.7293   -0.4674 S   0  0  0  0  0  1  0  0  0  0  0  0
   -0.4434   -0.8971    1.7570 H   0  0  0  0  0  0  0  0  0  0  0  0
    1.1256   -0.1449    1.3612 H   0  0  0  0  0  0  0  0  0  0  0  0
   -1.3528   -0.1939   -0.4748 H   0  0  0  0  0  0  0  0  0  0  0  0
    0.2428   -3.0984    0.0747 C   0  0  0  0  0  0  0  0  0  0  0  0
    0.2428   -1.8665    0.5102 H   0  0  0  0  0  0  0  0  0  0  0  0
    1.1319   -3.6118    0.4376 H   0  0  0  0  0  0  0  0  0  0  0  0
   -0.6463   -3.6118    0.4376 H   0  0  0  0  0  0  0  0  0  0  0  0
    0.2428   -3.0984   -1.0143 H   0  0  0  0  0  0  0  0  0  0  0  0
  1  2  2  3
  1  4  1  0
  1  5  1  0
  2  3  1  0
  2  6  1  0
  7  8  1  0
  7  9  1  0
  7 10  1  0
  7 11  1  0
M  RAD  1   3   2
M  END
>  <reaction>  (6) 
rxn_850

>  <mol_properties>  (6) 
{"0": {"label": "*1", "atom_type": "Cs"}, "1": {"label": "*0", "atom_type": "CS"}, "6": {"label": "*3", "atom_type": "Cs"}, "7": {"label": "*2", "atom_type": "H0"}, "8": {"label": "*4", "atom_type": "H0"}}

>  <type>  (6) 
unop_2

>  <geom_source>  (6) 
Heuristics

$$$$

     RDKit          3D

 11  9  0  0  0  0  0  0  0  0999 V2000
    0.7592   -0.0446   -0.8486 C   0  0  0  0  0  0  0  0  0  0  0  0
    0.0581    0.0209    0.4625 C   0  0  0  0  0  0  0  0  0  0  0  0
   -0.7697    1.2716    1.0385 S   0  0  0  0  0  1  0  0  0  0  0  0
    1.8202   -0.2585   -0.6869 H   0  0  0  0  0  0  0  0  0  0  0  0
    0.6531    0.8817   -1.4093 H   0  0  0  0  0  0  0  0  0  0  0  0
    0.1349   -0.8864    1.0647 H   0  0  0  0  0  0  0  0  0  0  0  0
    0.7592   -2.5147   -1.7219 C   0  0  0  0  0  0  0  0  0  0  0  0
    0.7592   -1.2827   -1.2863 H   0  0  0  0  0  0  0  0  0  0  0  0
    1.6483   -3.0280   -1.3589 H   0  0  0  0  0  0  0  0  0  0  0  0
   -0.1299   -3.0280   -1.3589 H   0  0  0  0  0  0  0  0  0  0  0  0
    0.7592   -2.5147   -2.8108 H   0  0  0  0  0  0  0  0  0  0  0  0
  1  2  2  3
  1  4  1  0
  1  5  1  0
  2  3  1  0
  2  6  1  0
  7  8  1  0
  7  9  1  0
  7 10  1  0
  7 11  1  0
M  RAD  1   3   2
M  END
>  <reaction>  (7) 
rxn_850

>  <mol_properties>  (7) 
{"0": {"label": "*1", "atom_type": "Cs"}, "1": {"label": "*0", "atom_type": "CS"}, "6": {"label": "*3", "atom_type": "Cs"}, "7": {"label": "*2", "atom_type": "H0"}, "8": {"label": "*4", "atom_type": "H0"}}

>  <type>  (7) 
unop_3

>  <geom_source>  (7) 
Heuristics

$$$$

     RDKit          3D

 11  9  0  0  0  0  0  0  0  0999 V2000
   -1.3239    0.0591    0.1650 C   0  0  0  0  0  0  0  0  0  0  0  0
   -0.1097    0.7630   -0.3297 C   0  0  0  0  0  0  0  0  0  0  0  0
    1.3133    0.8431    0.4119 S   0  0  0  0  0  1  0  0  0  0  0  0
   -2.1501    0.7713    0.2538 H   0  0  0  0  0  0  0  0  0  0  0  0
   -1.1486   -0.4209    1.1255 H   0  0  0  0  0  0  0  0  0  0  0  0
   -0.2343    1.2621   -1.2926 H   0  0  0  0  0  0  0  0  0  0  0  0
   -1.3239   -2.4111   -0.7083 C   0  0  0  0  0  0  0  0  0  0  0  0
   -1.3239   -1.1791   -0.2727 H   0  0  0  0  0  0  0  0  0  0  0  0
   -0.4348   -2.9244   -0.3453 H   0  0  0  0  0  0  0  0  0  0  0  0
   -2.2131   -2.9244   -0.3453 H   0  0  0  0  0  0  0  0  0  0  0  0
   -1.3239   -2.4111   -1.7972 H   0  0  0  0  0  0  0  0  0  0  0  0
  1  2  2  3
  1  4  1  0
  1  5  1  0
  2  3  1  0
  2  6  1  0
  7  8  1  0
  7  9  1  0
  7 10  1  0
  7 11  1  0
M  RAD  1   3   2
M  END
>  <reaction>  (8) 
rxn_850

>  <mol_properties>  (8) 
{"0": {"label": "*1", "atom_type": "Cs"}, "1": {"label": "*0", "atom_type": "CS"}, "6": {"label": "*3", "atom_type": "Cs"}, "7": {"label": "*2", "atom_type": "H0"}, "8": {"label": "*4", "atom_type": "H0"}}

>  <type>  (8) 
unop_4

>  <geom_source>  (8) 
Heuristics

$$$$

     RDKit          3D

 11  9  0  0  0  0  0  0  0  0999 V2000
    0.4563    0.2256   -1.1076 C   0  0  0  0  0  0  0  0  0  0  0  0
    0.4563    0.2284    0.3805 C   0  0  0  0  0  0  0  0  0  0  0  0
   -0.6432    0.9124    1.3317 S   0  0  0  0  0  1  0  0  0  0  0  0
    1.3802    0.6828   -1.4753 H   0  0  0  0  0  0  0  0  0  0  0  0
   -0.4023    0.7575   -1.5119 H   0  0  0  0  0  0  0  0  0  0  0  0
    1.2997   -0.2940    0.8360 H   0  0  0  0  0  0  0  0  0  0  0  0
    0.4563   -2.2445   -1.9809 C   0  0  0  0  0  0  0  0  0  0  0  0
    0.4563   -1.0126   -1.5454 H   0  0  0  0  0  0  0  0  0  0  0  0
    1.3454   -2.7579   -1.6180 H   0  0  0  0  0  0  0  0  0  0  0  0
   -0.4328   -2.7579   -1.6180 H   0  0  0  0  0  0  0  0  0  0  0  0
    0.4563   -2.2445   -3.0699 H   0  0  0  0  0  0  0  0  0  0  0  0
  1  2  2  3
  1  4  1  0
  1  5  1  0
  2  3  1  0
  2  6  1  0
  7  8  1  0
  7  9  1  0
  7 10  1  0
  7 11  1  0
M  RAD  1   3   2
M  END
>  <reaction>  (9) 
rxn_850

>  <mol_properties>  (9) 
{"0": {"label": "*1", "atom_type": "Cs"}, "1": {"label": "*0", "atom_type": "CS"}, "6": {"label": "*3", "atom_type": "Cs"}, "7": {"label": "*2", "atom_type": "H0"}, "8": {"label": "*4", "atom_type": "H0"}}

>  <type>  (9) 
unop_5

>  <geom_source>  (9) 
Heuristics

$$$$

     RDKit          3D

 11  9  0  0  0  0  0  0  0  0999 V2000
   -1.2377    0.3464   -0.4520 C   0  0  0  0  0  0  0  0  0  0  0  0
    0.1644    0.8166   -0.2857 C   0  0  0  0  0  0  0  0  0  0  0  0
    1.1156    0.5470    0.9807 S   0  0  0  0  0  1  0  0  0  0  0  0
   -1.8972    1.2062   -0.6048 H   0  0  0  0  0  0  0  0  0  0  0  0
   -1.5757   -0.2266    0.4089 H   0  0  0  0  0  0  0  0  0  0  0  0
    0.5513    1.3979   -1.1248 H   0  0  0  0  0  0  0  0  0  0  0  0
   -1.2377   -2.1238   -1.3253 C   0  0  0  0  0  0  0  0  0  0  0  0
   -1.2377   -0.8918   -0.8897 H   0  0  0  0  0  0  0  0  0  0  0  0
   -0.3486   -2.6371   -0.9623 H   0  0  0  0  0  0  0  0  0  0  0  0
   -2.1268   -2.6371   -0.9623 H   0  0  0  0  0  0  0  0  0  0  0  0
   -1.2377   -2.1238   -2.4142 H   0  0  0  0  0  0  0  0  0  0  0  0
  1  2  2  3
  1  4  1  0
  1  5  1  0
  2  3  1  0
  2  6  1  0
  7  8  1  0
  7  9  1  0
  7 10  1  0
  7 11  1  0
M  RAD  1   3   2
M  END
>  <reaction>  (10) 
rxn_850

>  <mol_properties>  (10) 
{"0": {"label": "*1", "atom_type": "Cs"}, "1": {"label": "*0", "atom_type": "CS"}, "6": {"label": "*3", "atom_type": "Cs"}, "7": {"label": "*2", "atom_type": "H0"}, "8": {"label": "*4", "atom_type": "H0"}}

>  <type>  (10) 
unop_6

>  <geom_source>  (10) 
Heuristics

$$$$

     RDKit          3D

 11  9  0  0  0  0  0  0  0  0999 V2000
   -0.8013    0.5289   -0.9669 C   0  0  0  0  0  0  0  0  0  0  0  0
    0.4130    0.7654   -0.1397 C   0  0  0  0  0  0  0  0  0  0  0  0
    0.5952    0.3936    1.4127 S   0  0  0  0  0  1  0  0  0  0  0  0
   -1.1575    1.4795   -1.3756 H   0  0  0  0  0  0  0  0  0  0  0  0
   -1.5950    0.0562   -0.3922 H   0  0  0  0  0  0  0  0  0  0  0  0
    1.2402    1.2390   -0.6718 H   0  0  0  0  0  0  0  0  0  0  0  0
   -0.8013   -1.9412   -1.8402 C   0  0  0  0  0  0  0  0  0  0  0  0
   -0.8013   -0.7093   -1.4047 H   0  0  0  0  0  0  0  0  0  0  0  0
    0.0879   -2.4546   -1.4773 H   0  0  0  0  0  0  0  0  0  0  0  0
   -1.6904   -2.4546   -1.4773 H   0  0  0  0  0  0  0  0  0  0  0  0
   -0.8013   -1.9412   -2.9292 H   0  0  0  0  0  0  0  0  0  0  0  0
  1  2  2  3
  1  4  1  0
  1  5  1  0
  2  3  1  0
  2  6  1  0
  7  8  1  0
  7  9  1  0
  7 10  1  0
  7 11  1  0
M  RAD  1   3   2
M  END
>  <reaction>  (11) 
rxn_850

>  <mol_properties>  (11) 
{"0": {"label": "*1", "atom_type": "Cs"}, "1": {"label": "*0", "atom_type": "CS"}, "6": {"label": "*3", "atom_type": "Cs"}, "7": {"label": "*2", "atom_type": "H0"}, "8": {"label": "*4", "atom_type": "H0"}}

>  <type>  (11) 
unop_7

>  <geom_source>  (11) 
Heuristics

$$$$

     RDKit          3D

 11  9  0  0  0  0  0  0  0  0999 V2000
    1.0455   -0.3998    0.0371 C   0  0  0  0  0  0  0  0  0  0  0  0
   -0.3566    0.0704    0.2033 C   0  0  0  0  0  0  0  0  0  0  0  0
   -0.8446    1.5987    0.2915 S   0  0  0  0  0  1  0  0  0  0  0  0
    1.3157   -1.0507    0.8744 H   0  0  0  0  0  0  0  0  0  0  0  0
    1.7452    0.4312   -0.0222 H   0  0  0  0  0  0  0  0  0  0  0  0
   -1.0989   -0.7275    0.2681 H   0  0  0  0  0  0  0  0  0  0  0  0
    1.0455   -2.8699   -0.8362 C   0  0  0  0  0  0  0  0  0  0  0  0
    1.0455   -1.6380   -0.4007 H   0  0  0  0  0  0  0  0  0  0  0  0
    1.9346   -3.3833   -0.4733 H   0  0  0  0  0  0  0  0  0  0  0  0
    0.1563   -3.3833   -0.4733 H   0  0  0  0  0  0  0  0  0  0  0  0
    1.0455   -2.8699   -1.9252 H   0  0  0  0  0  0  0  0  0  0  0  0
  1  2  2  3
  1  4  1  0
  1  5  1  0
  2  3  1  0
  2  6  1  0
  7  8  1  0
  7  9  1  0
  7 10  1  0
  7 11  1  0
M  RAD  1   3   2
M  END
>  <reaction>  (12) 
rxn_850

>  <mol_properties>  (12) 
{"0": {"label": "*1", "atom_type": "Cs"}, "1": {"label": "*0", "atom_type": "CS"}, "6": {"label": "*3", "atom_type": "Cs"}, "7": {"label": "*2", "atom_type": "H0"}, "8": {"label": "*4", "atom_type": "H0"}}

>  <type>  (12) 
unop_8

>  <geom_source>  (12) 
Heuristics

$$$$

     RDKit          3D

 11  9  0  0  0  0  0  0  0  0999 V2000
   -1.0416   -0.2590    0.7060 C   0  0  0  0  0  0  0  0  0  0  0  0
   -0.3405    0.6159   -0.2726 C   0  0  0  0  0  0  0  0  0  0  0  0
    1.1455    1.2089   -0.1263 S   0  0  0  0  0  1  0  0  0  0  0  0
   -1.9725    0.2199    1.0250 H   0  0  0  0  0  0  0  0  0  0  0  0
   -0.4214   -0.4704    1.5745 H   0  0  0  0  0  0  0  0  0  0  0  0
   -0.9222    0.8579   -1.1641 H   0  0  0  0  0  0  0  0  0  0  0  0
   -1.0416   -2.7292   -0.1674 C   0  0  0  0  0  0  0  0  0  0  0  0
   -1.0416   -1.4972    0.2682 H   0  0  0  0  0  0  0  0  0  0  0  0
   -0.1525   -3.2425    0.1956 H   0  0  0  0  0  0  0  0  0  0  0  0
   -1.9307   -3.2425    0.1956 H   0  0  0  0  0  0  0  0  0  0  0  0
   -1.0416   -2.7292   -1.2563 H   0  0  0  0  0  0  0  0  0  0  0  0
  1  2  2  3
  1  4  1  0
  1  5  1  0
  2  3  1  0
  2  6  1  0
  7  8  1  0
  7  9  1  0
  7 10  1  0
  7 11  1  0
M  RAD  1   3   2
M  END
>  <reaction>  (13) 
rxn_850

>  <mol_properties>  (13) 
{"0": {"label": "*1", "atom_type": "Cs"}, "1": {"label": "*0", "atom_type": "CS"}, "6": {"label": "*3", "atom_type": "Cs"}, "7": {"label": "*2", "atom_type": "H0"}, "8": {"label": "*4", "atom_type": "H0"}}

>  <type>  (13) 
unop_9

>  <geom_source>  (13) 
Heuristics

$$$$

     RDKit          3D

 11  9  0  0  0  0  0  0  0  0999 V2000
    0.7965   -0.5639    0.5733 C   0  0  0  0  0  0  0  0  0  0  0  0
   -0.4177    0.1400    0.0786 C   0  0  0  0  0  0  0  0  0  0  0  0
   -0.5699    1.7211   -0.1635 S   0  0  0  0  0  1  0  0  0  0  0  0
    0.5548   -1.1128    1.4887 H   0  0  0  0  0  0  0  0  0  0  0  0
    1.6136    0.1282    0.7656 H   0  0  0  0  0  0  0  0  0  0  0  0
   -1.2680   -0.5122   -0.1297 H   0  0  0  0  0  0  0  0  0  0  0  0
    0.7965   -3.0340   -0.3000 C   0  0  0  0  0  0  0  0  0  0  0  0
    0.7965   -1.8020    0.1355 H   0  0  0  0  0  0  0  0  0  0  0  0
    1.6856   -3.5473    0.0629 H   0  0  0  0  0  0  0  0  0  0  0  0
   -0.0926   -3.5473    0.0629 H   0  0  0  0  0  0  0  0  0  0  0  0
    0.7965   -3.0340   -1.3890 H   0  0  0  0  0  0  0  0  0  0  0  0
  1  2  2  3
  1  4  1  0
  1  5  1  0
  2  3  1  0
  2  6  1  0
  7  8  1  0
  7  9  1  0
  7 10  1  0
  7 11  1  0
M  RAD  1   3   2
M  END
>  <reaction>  (14) 
rxn_850

>  <mol_properties>  (14) 
{"0": {"label": "*1", "atom_type": "Cs"}, "1": {"label": "*0", "atom_type": "CS"}, "6": {"label": "*3", "atom_type": "Cs"}, "7": {"label": "*2", "atom_type": "H0"}, "8": {"label": "*4", "atom_type": "H0"}}

>  <type>  (14) 
unop_10

>  <geom_source>  (14) 
Heuristics

$$$$

     RDKit          3D

 11  9  0  0  0  0  0  0  0  0999 V2000
   -0.1316    0.5097   -1.2118 C   0  0  0  0  0  0  0  0  0  0  0  0
    0.5694    0.5751    0.0992 C   0  0  0  0  0  0  0  0  0  0  0  0
   -0.1148    0.4905    1.5505 S   0  0  0  0  0  1  0  0  0  0  0  0
    0.0779    1.4178   -1.7855 H   0  0  0  0  0  0  0  0  0  0  0  0
   -1.2063    0.3931   -1.0891 H   0  0  0  0  0  0  0  0  0  0  0  0
    1.6526    0.6922    0.0301 H   0  0  0  0  0  0  0  0  0  0  0  0
   -0.1316   -1.9605   -2.0851 C   0  0  0  0  0  0  0  0  0  0  0  0
   -0.1316   -0.7285   -1.6496 H   0  0  0  0  0  0  0  0  0  0  0  0
    0.7575   -2.4738   -1.7221 H   0  0  0  0  0  0  0  0  0  0  0  0
   -1.0207   -2.4738   -1.7221 H   0  0  0  0  0  0  0  0  0  0  0  0
   -0.1316   -1.9605   -3.1741 H   0  0  0  0  0  0  0  0  0  0  0  0
  1  2  2  3
  1  4  1  0
  1  5  1  0
  2  3  1  0
  2  6  1  0
  7  8  1  0
  7  9  1  0
  7 10  1  0
  7 11  1  0
M  RAD  1   3   2
M  END
>  <reaction>  (15) 
rxn_850

>  <mol_properties>  (15) 
{"0": {"label": "*1", "atom_type": "Cs"}, "1": {"label": "*0", "atom_type": "CS"}, "6": {"label": "*3", "atom_type": "Cs"}, "7": {"label": "*2", "atom_type": "H0"}, "8": {"label": "*4", "atom_type": "H0"}}

>  <type>  (15) 
unop_11

>  <geom_source>  (15) 
Heuristics

$$$$

     RDKit          3D

 11  9  0  0  0  0  0  0  0  0999 V2000
   -0.4563   -0.5207    1.0033 C   0  0  0  0  0  0  0  0  0  0  0  0
   -0.4563    0.4169   -0.1524 C   0  0  0  0  0  0  0  0  0  0  0  0
    0.6432    1.5467   -0.4623 S   0  0  0  0  0  1  0  0  0  0  0  0
   -1.3802   -0.3962    1.5766 H   0  0  0  0  0  0  0  0  0  0  0  0
    0.4023   -0.3611    1.6521 H   0  0  0  0  0  0  0  0  0  0  0  0
   -1.2997    0.2968   -0.8350 H   0  0  0  0  0  0  0  0  0  0  0  0
   -0.4563   -2.9909    0.1299 C   0  0  0  0  0  0  0  0  0  0  0  0
   -0.4563   -1.7589    0.5655 H   0  0  0  0  0  0  0  0  0  0  0  0
    0.4328   -3.5042    0.4929 H   0  0  0  0  0  0  0  0  0  0  0  0
   -1.3454   -3.5042    0.4929 H   0  0  0  0  0  0  0  0  0  0  0  0
   -0.4563   -2.9909   -0.9590 H   0  0  0  0  0  0  0  0  0  0  0  0
  1  2  2  3
  1  4  1  0
  1  5  1  0
  2  3  1  0
  2  6  1  0
  7  8  1  0
  7  9  1  0
  7 10  1  0
  7 11  1  0
M  RAD  1   3   2
M  END
>  <reaction>  (16) 
rxn_850

>  <mol_properties>  (16) 
{"0": {"label": "*1", "atom_type": "Cs"}, "1": {"label": "*0", "atom_type": "CS"}, "6": {"label": "*3", "atom_type": "Cs"}, "7": {"label": "*2", "atom_type": "H0"}, "8": {"label": "*4", "atom_type": "H0"}}

>  <type>  (16) 
unop_12

>  <geom_source>  (16) 
Heuristics

$$$$

     RDKit          3D

 11  9  0  0  0  0  0  0  0  0999 V2000
   -3.1519   -0.0481    0.2123 S   0  0  0  0  0  1  0  0  0  0  0  0
   -0.6876   -0.6245   -0.0898 C   0  0  0  0  0  0  0  0  0  0  0  0
   -1.7905    0.3769    0.0456 C   0  0  0  0  0  0  0  0  0  0  0  0
    1.7818    0.2325    0.0314 C   0  0  0  0  0  0  0  0  0  0  0  0
   -0.8539   -1.2626   -0.9841 H   0  0  0  0  0  0  0  0  0  0  0  0
   -0.6331   -1.2631    0.8178 H   0  0  0  0  0  0  0  0  0  0  0  0
    0.5241    0.0435   -0.2381 H   0  0  0  0  0  0  0  0  0  0  0  0
   -1.5602    1.4364    0.0177 H   0  0  0  0  0  0  0  0  0  0  0  0
    1.9245    0.6421    1.0524 H   0  0  0  0  0  0  0  0  0  0  0  0
    2.5216   -0.5739   -0.1503 H   0  0  0  0  0  0  0  0  0  0  0  0
    1.9252    1.0409   -0.7148 H   0  0  0  0  0  0  0  0  0  0  0  0
  1  3  1  0
  2  3  2  3
  2  5  1  0
  2  6  1  0
  3  8  1  0
  4  7  1  0
  4  9  1  0
  4 10  1  0
  4 11  1  0
M  RAD  1   1   2
M  END
>  <reaction>  (17) 
rxn_850

>  <mol_properties>  (17) 
{"0": {"label": "*1", "atom_type": "Cs"}, "1": {"label": "*0", "atom_type": "CS"}, "6": {"label": "*3", "atom_type": "Cs"}, "7": {"label": "*2", "atom_type": "H0"}, "8": {"label": "*4", "atom_type": "H0"}}

>  <type>  (17) 
unop_13

>  <geom_source>  (17) 
AutoTST

$$$$
