
     RDKit          3D

 10  9  0  0  0  0  0  0  0  0999 V2000
   -1.1508    0.0666    0.2839 C   0  0  0  0  0  0  0  0  0  0  0  0
    0.1022   -0.3749   -0.4771 C   0  0  0  0  0  0  0  0  0  0  0  0
    1.3428    0.1620    0.1542 C   0  0  0  0  0  0  0  0  0  0  0  0
    2.5613   -0.6971    0.7526 S   0  0  0  0  0  0  0  0  0  0  0  0
   -1.2137    1.1546    0.3481 H   0  0  0  0  0  0  0  0  0  0  0  0
   -2.0472   -0.2935   -0.2212 H   0  0  0  0  0  0  0  0  0  0  0  0
   -1.1467   -0.3334    1.2987 H   0  0  0  0  0  0  0  0  0  0  0  0
    0.1602   -1.4616   -0.5369 H   0  0  0  0  0  0  0  0  0  0  0  0
    0.0536    0.0174   -1.4997 H   0  0  0  0  0  0  0  0  0  0  0  0
    1.3824    1.2528    0.2110 H   0  0  0  0  0  0  0  0  0  0  0  0
  1  2  1  0
  1  5  1  0
  1  6  1  0
  1  7  1  0
  2  3  1  0
  2  8  1  0
  2  9  1  0
  3  4  2  0
  3 10  1  0
M  END
>  <reaction>  (1) 
rxn_1996

>  <mol_properties>  (1) 
{"1": {"label": "donator", "atom_type": "Cs"}, "7": {"label": "d_hydrogen", "atom_type": "H0"}}

>  <type>  (1) 
r1h

$$$$

     RDKit          3D

  7  6  0  0  0  0  0  0  0  0999 V2000
   -0.6201    0.0189   -0.0017 C   0  0  0  0  0  0  0  0  0  0  0  0
    0.8589   -0.0553    0.0500 C   0  0  0  0  0  3  0  0  0  0  0  0
   -1.0738   -0.9730   -0.0559 H   0  0  0  0  0  0  0  0  0  0  0  0
   -0.9680    0.5706   -0.8872 H   0  0  0  0  0  0  0  0  0  0  0  0
   -1.0303    0.5369    0.8678 H   0  0  0  0  0  0  0  0  0  0  0  0
    1.3939   -0.8386   -0.4695 H   0  0  0  0  0  0  0  0  0  0  0  0
    1.4394    0.7404    0.4965 H   0  0  0  0  0  0  0  0  0  0  0  0
  1  2  1  0
  1  3  1  0
  1  4  1  0
  1  5  1  0
  2  6  1  0
  2  7  1  0
M  RAD  1   2   2
M  END
>  <reaction>  (2) 
rxn_1996

>  <mol_properties>  (2) 
{"1": {"label": "acceptor", "atom_type": "Cs"}}

>  <type>  (2) 
r2

$$$$

     RDKit          3D

  8  7  0  0  0  0  0  0  0  0999 V2000
    0.7610    0.0250    0.0051 C   0  0  0  0  0  0  0  0  0  0  0  0
   -0.7610   -0.0250   -0.0051 C   0  0  0  0  0  0  0  0  0  0  0  0
    1.1904   -0.9237   -0.3217 H   0  0  0  0  0  0  0  0  0  0  0  0
    1.1359    0.8041   -0.6609 H   0  0  0  0  0  0  0  0  0  0  0  0
    1.1435    0.2336    1.0058 H   0  0  0  0  0  0  0  0  0  0  0  0
   -1.1359   -0.8041    0.6609 H   0  0  0  0  0  0  0  0  0  0  0  0
   -1.1435   -0.2336   -1.0058 H   0  0  0  0  0  0  0  0  0  0  0  0
   -1.1904    0.9237    0.3217 H   0  0  0  0  0  0  0  0  0  0  0  0
  1  2  1  0
  1  3  1  0
  1  4  1  0
  1  5  1  0
  2  6  1  0
  2  7  1  0
  2  8  1  0
M  END
>  <reaction>  (3) 
rxn_1996

>  <mol_properties>  (3) 
{"0": {"label": "a_hydrogen", "atom_type": "H0"}, "2": {"label": "acceptor", "atom_type": "Cs"}}

>  <type>  (3) 
r2h

$$$$

     RDKit          3D

 17 15  0  0  0  0  0  0  0  0999 V2000
    1.3749   -0.8250   -1.9885 C   0  0  0  0  0  0  0  0  0  0  0  0
    1.0648   -0.3569   -0.5865 C   0  0  0  0  0  0  0  0  0  0  0  0
    0.5781    0.9984   -0.3810 C   0  0  0  0  0  0  0  0  0  0  0  0
   -0.0559    1.9907   -1.5022 S   0  0  0  0  0  0  0  0  0  0  0  0
    2.2180   -0.2707   -2.4056 H   0  0  0  0  0  0  0  0  0  0  0  0
    1.6269   -1.8863   -1.9872 H   0  0  0  0  0  0  0  0  0  0  0  0
    0.5230   -0.6666   -2.6494 H   0  0  0  0  0  0  0  0  0  0  0  0
    0.1229   -1.0637   -0.2086 H   0  0  0  0  0  0  0  0  0  0  0  0
    1.8296   -0.6240    0.1455 H   0  0  0  0  0  0  0  0  0  0  0  0
    0.6124    1.3381    0.6550 H   0  0  0  0  0  0  0  0  0  0  0  0
   -1.9848   -0.9900    0.7877 C   0  0  0  0  0  0  0  0  0  0  0  0
   -1.0655   -1.9386    0.0919 C   0  0  0  0  0  3  0  0  0  0  0  0
   -2.9462   -1.4665    1.0103 H   0  0  0  0  0  0  0  0  0  0  0  0
   -2.1923   -0.1143    0.1698 H   0  0  0  0  0  0  0  0  0  0  0  0
   -1.5653   -0.6473    1.7352 H   0  0  0  0  0  0  0  0  0  0  0  0
   -1.3296   -2.2381   -0.9178 H   0  0  0  0  0  0  0  0  0  0  0  0
   -0.6095   -2.7261    0.6842 H   0  0  0  0  0  0  0  0  0  0  0  0
  1  2  1  0
  1  5  1  0
  1  6  1  0
  1  7  1  0
  2  3  1  0
  2  8  1  0
  2  9  1  0
  3  4  2  0
  3 10  1  0
 11 12  1  0
 11 13  1  0
 11 14  1  0
 11 15  1  0
 12 16  1  0
 12 17  1  0
M  RAD  1  12   2
M  END
>  <reaction>  (4) 
rxn_1996

>  <mol_properties>  (4) 
{"1": {"label": "*1", "atom_type": "Cs"}, "2": {"label": "*0", "atom_type": "CS"}, "7": {"label": "*2", "atom_type": "H0"}, "10": {"label": "*4", "atom_type": "Cs"}, "11": {"label": "*3", "atom_type": "Cs"}}

>  <type>  (4) 
ts

$$$$

     RDKit          3D

 17 15  0  0  0  0  0  0  0  0999 V2000
    0.8612   -0.2595   -2.2324 C   0  0  0  0  0  0  0  0  0  0  0  0
    0.8612   -0.2595   -0.7013 C   0  0  0  0  0  0  0  0  0  0  0  0
    0.8612    1.1286   -0.1547 C   0  0  0  0  0  0  0  0  0  0  0  0
   -0.2583    1.7843    0.7929 S   0  0  0  0  0  0  0  0  0  0  0  0
    1.7164    0.2906   -2.6295 H   0  0  0  0  0  0  0  0  0  0  0  0
    0.9121   -1.2804   -2.6111 H   0  0  0  0  0  0  0  0  0  0  0  0
   -0.0483    0.2028   -2.6181 H   0  0  0  0  0  0  0  0  0  0  0  0
   -0.1664   -0.9189   -0.2327 H   0  0  0  0  0  0  0  0  0  0  0  0
    1.7716   -0.7562   -0.3459 H   0  0  0  0  0  0  0  0  0  0  0  0
    1.7167    1.7339   -0.4650 H   0  0  0  0  0  0  0  0  0  0  0  0
   -0.7519   -2.7547    1.0970 C   0  0  0  0  0  0  0  0  0  0  0  0
   -1.1955   -1.5792    0.2366 C   0  0  0  0  0  3  0  0  0  0  0  0
   -1.3897   -2.8651    1.9757 H   0  0  0  0  0  0  0  0  0  0  0  0
    0.2735   -2.6241    1.4473 H   0  0  0  0  0  0  0  0  0  0  0  0
   -0.7934   -3.6917    0.5388 H   0  0  0  0  0  0  0  0  0  0  0  0
   -1.1540   -0.6422    0.7948 H   0  0  0  0  0  0  0  0  0  0  0  0
   -2.2209   -1.7098   -0.1137 H   0  0  0  0  0  0  0  0  0  0  0  0
  1  2  1  0
  1  5  1  0
  1  6  1  0
  1  7  1  0
  2  3  1  0
  2  8  1  0
  2  9  1  0
  3  4  2  0
  3 10  1  0
 11 12  1  0
 11 13  1  0
 11 14  1  0
 11 15  1  0
 12 16  1  0
 12 17  1  0
M  RAD  1  12   2
M  END
>  <reaction>  (5) 
rxn_1996

>  <mol_properties>  (5) 
{"1": {"label": "*1", "atom_type": "Cs"}, "2": {"label": "*0", "atom_type": "CS"}, "7": {"label": "*2", "atom_type": "H0"}, "10": {"label": "*4", "atom_type": "Cs"}, "11": {"label": "*3", "atom_type": "Cs"}}

>  <type>  (5) 
unop_1

>  <geom_source>  (5) 
Heuristics

$$$$

     RDKit          3D

 17 15  0  0  0  0  0  0  0  0999 V2000
    0.9872   -0.2625   -1.9650 C   0  0  0  0  0  0  0  0  0  0  0  0
    0.9872   -0.2625   -0.4339 C   0  0  0  0  0  0  0  0  0  0  0  0
    0.9872    1.1257    0.1128 C   0  0  0  0  0  0  0  0  0  0  0  0
   -0.1323    1.7814    1.0603 S   0  0  0  0  0  0  0  0  0  0  0  0
    1.8424    0.2877   -2.3621 H   0  0  0  0  0  0  0  0  0  0  0  0
    1.0381   -1.2834   -2.3436 H   0  0  0  0  0  0  0  0  0  0  0  0
    0.0777    0.1999   -2.3506 H   0  0  0  0  0  0  0  0  0  0  0  0
   -0.0404   -0.9218    0.0348 H   0  0  0  0  0  0  0  0  0  0  0  0
    1.8976   -0.7592   -0.0785 H   0  0  0  0  0  0  0  0  0  0  0  0
    1.8427    1.7310   -0.1975 H   0  0  0  0  0  0  0  0  0  0  0  0
   -1.4910   -2.6956   -0.4453 C   0  0  0  0  0  0  0  0  0  0  0  0
   -1.0695   -1.5821    0.5041 C   0  0  0  0  0  3  0  0  0  0  0  0
   -2.1169   -3.4322    0.0615 H   0  0  0  0  0  0  0  0  0  0  0  0
   -0.6237   -3.2209   -0.8492 H   0  0  0  0  0  0  0  0  0  0  0  0
   -2.0610   -2.3020   -1.2888 H   0  0  0  0  0  0  0  0  0  0  0  0
   -0.4995   -1.9757    1.3475 H   0  0  0  0  0  0  0  0  0  0  0  0
   -1.9368   -1.0568    0.9079 H   0  0  0  0  0  0  0  0  0  0  0  0
  1  2  1  0
  1  5  1  0
  1  6  1  0
  1  7  1  0
  2  3  1  0
  2  8  1  0
  2  9  1  0
  3  4  2  0
  3 10  1  0
 11 12  1  0
 11 13  1  0
 11 14  1  0
 11 15  1  0
 12 16  1  0
 12 17  1  0
M  RAD  1  12   2
M  END
>  <reaction>  (6) 
rxn_1996

>  <mol_properties>  (6) 
{"1": {"label": "*1", "atom_type": "Cs"}, "2": {"label": "*0", "atom_type": "CS"}, "7": {"label": "*2", "atom_type": "H0"}, "10": {"label": "*4", "atom_type": "Cs"}, "11": {"label": "*3", "atom_type": "Cs"}}

>  <type>  (6) 
unop_2

>  <geom_source>  (6) 
Heuristics

$$$$

     RDKit          3D

 17 15  0  0  0  0  0  0  0  0999 V2000
    0.8818   -0.3380   -2.3005 C   0  0  0  0  0  0  0  0  0  0  0  0
    0.8818   -0.3380   -0.7695 C   0  0  0  0  0  0  0  0  0  0  0  0
    0.8818    1.0501   -0.2228 C   0  0  0  0  0  0  0  0  0  0  0  0
   -0.2377    1.7058    0.7248 S   0  0  0  0  0  0  0  0  0  0  0  0
    1.7370    0.2121   -2.6976 H   0  0  0  0  0  0  0  0  0  0  0  0
    0.9327   -1.3590   -2.6792 H   0  0  0  0  0  0  0  0  0  0  0  0
   -0.0277    0.1243   -2.6862 H   0  0  0  0  0  0  0  0  0  0  0  0
   -0.1458   -0.9974   -0.3008 H   0  0  0  0  0  0  0  0  0  0  0  0
    1.7922   -0.8348   -0.4140 H   0  0  0  0  0  0  0  0  0  0  0  0
    1.7373    1.6554   -0.5331 H   0  0  0  0  0  0  0  0  0  0  0  0
   -0.8551   -2.2955    1.5138 C   0  0  0  0  0  0  0  0  0  0  0  0
   -1.1750   -1.6577    0.1685 C   0  0  0  0  0  3  0  0  0  0  0  0
   -1.7514   -2.3924    2.1291 H   0  0  0  0  0  0  0  0  0  0  0  0
   -0.1332   -1.6982    2.0734 H   0  0  0  0  0  0  0  0  0  0  0  0
   -0.4314   -3.2935    1.3880 H   0  0  0  0  0  0  0  0  0  0  0  0
   -1.5987   -0.6598    0.2943 H   0  0  0  0  0  0  0  0  0  0  0  0
   -1.8969   -2.2550   -0.3911 H   0  0  0  0  0  0  0  0  0  0  0  0
  1  2  1  0
  1  5  1  0
  1  6  1  0
  1  7  1  0
  2  3  1  0
  2  8  1  0
  2  9  1  0
  3  4  2  0
  3 10  1  0
 11 12  1  0
 11 13  1  0
 11 14  1  0
 11 15  1  0
 12 16  1  0
 12 17  1  0
M  RAD  1  12   2
M  END
>  <reaction>  (7) 
rxn_1996

>  <mol_properties>  (7) 
{"1": {"label": "*1", "atom_type": "Cs"}, "2": {"label": "*0", "atom_type": "CS"}, "7": {"label": "*2", "atom_type": "H0"}, "10": {"label": "*4", "atom_type": "Cs"}, "11": {"label": "*3", "atom_type": "Cs"}}

>  <type>  (7) 
unop_3

>  <geom_source>  (7) 
Heuristics

$$$$

     RDKit          3D

 17 15  0  0  0  0  0  0  0  0999 V2000
    1.1186   -0.5209   -2.0380 C   0  0  0  0  0  0  0  0  0  0  0  0
    1.1186   -0.5209   -0.5069 C   0  0  0  0  0  0  0  0  0  0  0  0
    1.1186    0.8673    0.0398 C   0  0  0  0  0  0  0  0  0  0  0  0
   -0.0010    1.5230    0.9873 S   0  0  0  0  0  0  0  0  0  0  0  0
    1.9738    0.0293   -2.4351 H   0  0  0  0  0  0  0  0  0  0  0  0
    1.1694   -1.5418   -2.4166 H   0  0  0  0  0  0  0  0  0  0  0  0
    0.2091   -0.0585   -2.4236 H   0  0  0  0  0  0  0  0  0  0  0  0
    0.0909   -1.1803   -0.0383 H   0  0  0  0  0  0  0  0  0  0  0  0
    2.0289   -1.0176   -0.1515 H   0  0  0  0  0  0  0  0  0  0  0  0
    1.9740    1.4726   -0.2706 H   0  0  0  0  0  0  0  0  0  0  0  0
   -2.2499   -1.2219   -0.0335 C   0  0  0  0  0  0  0  0  0  0  0  0
   -0.9382   -1.8406    0.4311 C   0  0  0  0  0  3  0  0  0  0  0  0
   -3.0351   -1.3515    0.7135 H   0  0  0  0  0  0  0  0  0  0  0  0
   -2.5973   -1.6805   -0.9610 H   0  0  0  0  0  0  0  0  0  0  0  0
   -2.1402   -0.1513   -0.2151 H   0  0  0  0  0  0  0  0  0  0  0  0
   -1.0479   -2.9112    0.6127 H   0  0  0  0  0  0  0  0  0  0  0  0
   -0.5908   -1.3820    1.3586 H   0  0  0  0  0  0  0  0  0  0  0  0
  1  2  1  0
  1  5  1  0
  1  6  1  0
  1  7  1  0
  2  3  1  0
  2  8  1  0
  2  9  1  0
  3  4  2  0
  3 10  1  0
 11 12  1  0
 11 13  1  0
 11 14  1  0
 11 15  1  0
 12 16  1  0
 12 17  1  0
M  RAD  1  12   2
M  END
>  <reaction>  (8) 
rxn_1996

>  <mol_properties>  (8) 
{"1": {"label": "*1", "atom_type": "Cs"}, "2": {"label": "*0", "atom_type": "CS"}, "7": {"label": "*2", "atom_type": "H0"}, "10": {"label": "*4", "atom_type": "Cs"}, "11": {"label": "*3", "atom_type": "Cs"}}

>  <type>  (8) 
unop_4

>  <geom_source>  (8) 
Heuristics

$$$$

     RDKit          3D

 17 15  0  0  0  0  0  0  0  0999 V2000
    0.9289   -0.4260   -2.3242 C   0  0  0  0  0  0  0  0  0  0  0  0
    0.9289   -0.4260   -0.7931 C   0  0  0  0  0  0  0  0  0  0  0  0
    0.9289    0.9621   -0.2465 C   0  0  0  0  0  0  0  0  0  0  0  0
   -0.1906    1.6178    0.7011 S   0  0  0  0  0  0  0  0  0  0  0  0
    1.7841    0.1241   -2.7213 H   0  0  0  0  0  0  0  0  0  0  0  0
    0.9798   -1.4470   -2.7029 H   0  0  0  0  0  0  0  0  0  0  0  0
    0.0194    0.0363   -2.7099 H   0  0  0  0  0  0  0  0  0  0  0  0
   -0.0987   -1.0854   -0.3245 H   0  0  0  0  0  0  0  0  0  0  0  0
    1.8393   -0.9227   -0.4377 H   0  0  0  0  0  0  0  0  0  0  0  0
    1.7844    1.5674   -0.5568 H   0  0  0  0  0  0  0  0  0  0  0  0
   -1.1338   -1.7495    1.6676 C   0  0  0  0  0  0  0  0  0  0  0  0
   -1.1278   -1.7457    0.1448 C   0  0  0  0  0  3  0  0  0  0  0  0
   -1.9914   -2.2998    2.0587 H   0  0  0  0  0  0  0  0  0  0  0  0
   -1.1830   -0.7345    2.0658 H   0  0  0  0  0  0  0  0  0  0  0  0
   -0.2317   -2.2173    2.0658 H   0  0  0  0  0  0  0  0  0  0  0  0
   -2.0300   -1.2780   -0.2534 H   0  0  0  0  0  0  0  0  0  0  0  0
   -1.0786   -2.7607   -0.2534 H   0  0  0  0  0  0  0  0  0  0  0  0
  1  2  1  0
  1  5  1  0
  1  6  1  0
  1  7  1  0
  2  3  1  0
  2  8  1  0
  2  9  1  0
  3  4  2  0
  3 10  1  0
 11 12  1  0
 11 13  1  0
 11 14  1  0
 11 15  1  0
 12 16  1  0
 12 17  1  0
M  RAD  1  12   2
M  END
>  <reaction>  (9) 
rxn_1996

>  <mol_properties>  (9) 
{"1": {"label": "*1", "atom_type": "Cs"}, "2": {"label": "*0", "atom_type": "CS"}, "7": {"label": "*2", "atom_type": "H0"}, "10": {"label": "*4", "atom_type": "Cs"}, "11": {"label": "*3", "atom_type": "Cs"}}

>  <type>  (9) 
unop_5

>  <geom_source>  (9) 
Heuristics

$$$$

     RDKit          3D

 17 15  0  0  0  0  0  0  0  0999 V2000
    1.0999   -0.5631   -2.1362 C   0  0  0  0  0  0  0  0  0  0  0  0
    1.0999   -0.5631   -0.6051 C   0  0  0  0  0  0  0  0  0  0  0  0
    1.0999    0.8251   -0.0585 C   0  0  0  0  0  0  0  0  0  0  0  0
   -0.0196    1.4808    0.8891 S   0  0  0  0  0  0  0  0  0  0  0  0
    1.9551   -0.0129   -2.5333 H   0  0  0  0  0  0  0  0  0  0  0  0
    1.1508   -1.5840   -2.5149 H   0  0  0  0  0  0  0  0  0  0  0  0
    0.1904   -0.1007   -2.5219 H   0  0  0  0  0  0  0  0  0  0  0  0
    0.0723   -1.2224   -0.1365 H   0  0  0  0  0  0  0  0  0  0  0  0
    2.0103   -1.0598   -0.2497 H   0  0  0  0  0  0  0  0  0  0  0  0
    1.9554    1.4304   -0.3688 H   0  0  0  0  0  0  0  0  0  0  0  0
   -2.1572   -0.9668    0.5308 C   0  0  0  0  0  0  0  0  0  0  0  0
   -0.9568   -1.8827    0.3328 C   0  0  0  0  0  3  0  0  0  0  0  0
   -2.6968   -1.2138    1.4467 H   0  0  0  0  0  0  0  0  0  0  0  0
   -2.8603   -1.0507   -0.2998 H   0  0  0  0  0  0  0  0  0  0  0  0
   -1.8505    0.0784    0.5996 H   0  0  0  0  0  0  0  0  0  0  0  0
   -1.2636   -2.9279    0.2640 H   0  0  0  0  0  0  0  0  0  0  0  0
   -0.2537   -1.7989    1.1634 H   0  0  0  0  0  0  0  0  0  0  0  0
  1  2  1  0
  1  5  1  0
  1  6  1  0
  1  7  1  0
  2  3  1  0
  2  8  1  0
  2  9  1  0
  3  4  2  0
  3 10  1  0
 11 12  1  0
 11 13  1  0
 11 14  1  0
 11 15  1  0
 12 16  1  0
 12 17  1  0
M  RAD  1  12   2
M  END
>  <reaction>  (10) 
rxn_1996

>  <mol_properties>  (10) 
{"1": {"label": "*1", "atom_type": "Cs"}, "2": {"label": "*0", "atom_type": "CS"}, "7": {"label": "*2", "atom_type": "H0"}, "10": {"label": "*4", "atom_type": "Cs"}, "11": {"label": "*3", "atom_type": "Cs"}}

>  <type>  (10) 
unop_6

>  <geom_source>  (10) 
Heuristics

$$$$

     RDKit          3D

 17 15  0  0  0  0  0  0  0  0999 V2000
    1.0521   -0.5570   -2.2324 C   0  0  0  0  0  0  0  0  0  0  0  0
    1.0521   -0.5570   -0.7013 C   0  0  0  0  0  0  0  0  0  0  0  0
    1.0521    0.8312   -0.1547 C   0  0  0  0  0  0  0  0  0  0  0  0
   -0.0675    1.4869    0.7929 S   0  0  0  0  0  0  0  0  0  0  0  0
    1.9073   -0.0068   -2.6295 H   0  0  0  0  0  0  0  0  0  0  0  0
    1.1029   -1.5779   -2.6111 H   0  0  0  0  0  0  0  0  0  0  0  0
    0.1426   -0.0946   -2.6181 H   0  0  0  0  0  0  0  0  0  0  0  0
    0.0244   -1.2163   -0.2327 H   0  0  0  0  0  0  0  0  0  0  0  0
    1.9624   -1.0537   -0.3459 H   0  0  0  0  0  0  0  0  0  0  0  0
    1.9075    1.4365   -0.4650 H   0  0  0  0  0  0  0  0  0  0  0  0
   -1.8884   -0.9834    1.0970 C   0  0  0  0  0  0  0  0  0  0  0  0
   -1.0047   -1.8766    0.2366 C   0  0  0  0  0  3  0  0  0  0  0  0
   -2.2545   -1.5172    1.9757 H   0  0  0  0  0  0  0  0  0  0  0  0
   -2.7574   -0.6307    0.5388 H   0  0  0  0  0  0  0  0  0  0  0  0
   -1.3423   -0.1058    1.4473 H   0  0  0  0  0  0  0  0  0  0  0  0
   -1.5508   -2.7543   -0.1137 H   0  0  0  0  0  0  0  0  0  0  0  0
   -0.1357   -2.2294    0.7948 H   0  0  0  0  0  0  0  0  0  0  0  0
  1  2  1  0
  1  5  1  0
  1  6  1  0
  1  7  1  0
  2  3  1  0
  2  8  1  0
  2  9  1  0
  3  4  2  0
  3 10  1  0
 11 12  1  0
 11 13  1  0
 11 14  1  0
 11 15  1  0
 12 16  1  0
 12 17  1  0
M  RAD  1  12   2
M  END
>  <reaction>  (11) 
rxn_1996

>  <mol_properties>  (11) 
{"1": {"label": "*1", "atom_type": "Cs"}, "2": {"label": "*0", "atom_type": "CS"}, "7": {"label": "*2", "atom_type": "H0"}, "10": {"label": "*4", "atom_type": "Cs"}, "11": {"label": "*3", "atom_type": "Cs"}}

>  <type>  (11) 
unop_7

>  <geom_source>  (11) 
Heuristics

$$$$

     RDKit          3D

 17 15  0  0  0  0  0  0  0  0999 V2000
    0.8756   -0.2135   -2.1362 C   0  0  0  0  0  0  0  0  0  0  0  0
    0.8756   -0.2135   -0.6051 C   0  0  0  0  0  0  0  0  0  0  0  0
    0.8756    1.1747   -0.0585 C   0  0  0  0  0  0  0  0  0  0  0  0
   -0.2439    1.8304    0.8891 S   0  0  0  0  0  0  0  0  0  0  0  0
    1.7308    0.3367   -2.5333 H   0  0  0  0  0  0  0  0  0  0  0  0
    0.9265   -1.2344   -2.5149 H   0  0  0  0  0  0  0  0  0  0  0  0
   -0.0339    0.2489   -2.5219 H   0  0  0  0  0  0  0  0  0  0  0  0
   -0.1520   -0.8728   -0.1365 H   0  0  0  0  0  0  0  0  0  0  0  0
    1.7860   -0.7102   -0.2497 H   0  0  0  0  0  0  0  0  0  0  0  0
    1.7311    1.7800   -0.3688 H   0  0  0  0  0  0  0  0  0  0  0  0
   -0.8488   -3.0060    0.5308 C   0  0  0  0  0  0  0  0  0  0  0  0
   -1.1812   -1.5331    0.3328 C   0  0  0  0  0  3  0  0  0  0  0  0
   -1.2982   -3.3936    1.4467 H   0  0  0  0  0  0  0  0  0  0  0  0
    0.2291   -3.1628    0.5996 H   0  0  0  0  0  0  0  0  0  0  0  0
   -1.2181   -3.6102   -0.2998 H   0  0  0  0  0  0  0  0  0  0  0  0
   -0.8118   -0.9289    1.1634 H   0  0  0  0  0  0  0  0  0  0  0  0
   -2.2591   -1.3764    0.2640 H   0  0  0  0  0  0  0  0  0  0  0  0
  1  2  1  0
  1  5  1  0
  1  6  1  0
  1  7  1  0
  2  3  1  0
  2  8  1  0
  2  9  1  0
  3  4  2  0
  3 10  1  0
 11 12  1  0
 11 13  1  0
 11 14  1  0
 11 15  1  0
 12 16  1  0
 12 17  1  0
M  RAD  1  12   2
M  END
>  <reaction>  (12) 
rxn_1996

>  <mol_properties>  (12) 
{"1": {"label": "*1", "atom_type": "Cs"}, "2": {"label": "*0", "atom_type": "CS"}, "7": {"label": "*2", "atom_type": "H0"}, "10": {"label": "*4", "atom_type": "Cs"}, "11": {"label": "*3", "atom_type": "Cs"}}

>  <type>  (12) 
unop_8

>  <geom_source>  (12) 
Heuristics

$$$$

     RDKit          3D

 17 15  0  0  0  0  0  0  0  0999 V2000
    1.1019   -0.4412   -1.9650 C   0  0  0  0  0  0  0  0  0  0  0  0
    1.1019   -0.4412   -0.4339 C   0  0  0  0  0  0  0  0  0  0  0  0
    1.1019    0.9470    0.1128 C   0  0  0  0  0  0  0  0  0  0  0  0
   -0.0176    1.6027    1.0603 S   0  0  0  0  0  0  0  0  0  0  0  0
    1.9571    0.1090   -2.3621 H   0  0  0  0  0  0  0  0  0  0  0  0
    1.1528   -1.4621   -2.3436 H   0  0  0  0  0  0  0  0  0  0  0  0
    0.1924    0.0212   -2.3506 H   0  0  0  0  0  0  0  0  0  0  0  0
    0.0743   -1.1006    0.0348 H   0  0  0  0  0  0  0  0  0  0  0  0
    2.0123   -0.9379   -0.0785 H   0  0  0  0  0  0  0  0  0  0  0  0
    1.9574    1.5522   -0.1975 H   0  0  0  0  0  0  0  0  0  0  0  0
   -2.1427   -1.6800   -0.4453 C   0  0  0  0  0  0  0  0  0  0  0  0
   -0.9549   -1.7609    0.5041 C   0  0  0  0  0  3  0  0  0  0  0  0
   -3.0731   -1.9420    0.0615 H   0  0  0  0  0  0  0  0  0  0  0  0
   -2.0225   -2.3622   -1.2888 H   0  0  0  0  0  0  0  0  0  0  0  0
   -2.2587   -0.6726   -0.8492 H   0  0  0  0  0  0  0  0  0  0  0  0
   -0.8388   -2.7682    0.9079 H   0  0  0  0  0  0  0  0  0  0  0  0
   -1.0751   -1.0787    1.3475 H   0  0  0  0  0  0  0  0  0  0  0  0
  1  2  1  0
  1  5  1  0
  1  6  1  0
  1  7  1  0
  2  3  1  0
  2  8  1  0
  2  9  1  0
  3  4  2  0
  3 10  1  0
 11 12  1  0
 11 13  1  0
 11 14  1  0
 11 15  1  0
 12 16  1  0
 12 17  1  0
M  RAD  1  12   2
M  END
>  <reaction>  (13) 
rxn_1996

>  <mol_properties>  (13) 
{"1": {"label": "*1", "atom_type": "Cs"}, "2": {"label": "*0", "atom_type": "CS"}, "7": {"label": "*2", "atom_type": "H0"}, "10": {"label": "*4", "atom_type": "Cs"}, "11": {"label": "*3", "atom_type": "Cs"}}

>  <type>  (13) 
unop_9

>  <geom_source>  (13) 
Heuristics

$$$$

     RDKit          3D

 17 15  0  0  0  0  0  0  0  0999 V2000
    0.9217   -0.2141   -2.0380 C   0  0  0  0  0  0  0  0  0  0  0  0
    0.9217   -0.2141   -0.5069 C   0  0  0  0  0  0  0  0  0  0  0  0
    0.9217    1.1741    0.0398 C   0  0  0  0  0  0  0  0  0  0  0  0
   -0.1978    1.8297    0.9873 S   0  0  0  0  0  0  0  0  0  0  0  0
    1.7770    0.3360   -2.4351 H   0  0  0  0  0  0  0  0  0  0  0  0
    0.9726   -1.2350   -2.4166 H   0  0  0  0  0  0  0  0  0  0  0  0
    0.0123    0.2482   -2.4236 H   0  0  0  0  0  0  0  0  0  0  0  0
   -0.1059   -0.8735   -0.0383 H   0  0  0  0  0  0  0  0  0  0  0  0
    1.8321   -0.7108   -0.1515 H   0  0  0  0  0  0  0  0  0  0  0  0
    1.7772    1.7793   -0.2706 H   0  0  0  0  0  0  0  0  0  0  0  0
   -1.1193   -2.9839   -0.0335 C   0  0  0  0  0  0  0  0  0  0  0  0
   -1.1350   -1.5338    0.4311 C   0  0  0  0  0  3  0  0  0  0  0  0
   -1.5644   -3.6437    0.7135 H   0  0  0  0  0  0  0  0  0  0  0  0
   -0.1004   -3.3304   -0.2151 H   0  0  0  0  0  0  0  0  0  0  0  0
   -1.6810   -3.1086   -0.9610 H   0  0  0  0  0  0  0  0  0  0  0  0
   -0.5734   -1.4091    1.3586 H   0  0  0  0  0  0  0  0  0  0  0  0
   -2.1539   -1.1873    0.6127 H   0  0  0  0  0  0  0  0  0  0  0  0
  1  2  1  0
  1  5  1  0
  1  6  1  0
  1  7  1  0
  2  3  1  0
  2  8  1  0
  2  9  1  0
  3  4  2  0
  3 10  1  0
 11 12  1  0
 11 13  1  0
 11 14  1  0
 11 15  1  0
 12 16  1  0
 12 17  1  0
M  RAD  1  12   2
M  END
>  <reaction>  (14) 
rxn_1996

>  <mol_properties>  (14) 
{"1": {"label": "*1", "atom_type": "Cs"}, "2": {"label": "*0", "atom_type": "CS"}, "7": {"label": "*2", "atom_type": "H0"}, "10": {"label": "*4", "atom_type": "Cs"}, "11": {"label": "*3", "atom_type": "Cs"}}

>  <type>  (14) 
unop_10

>  <geom_source>  (14) 
Heuristics

$$$$

     RDKit          3D

 17 15  0  0  0  0  0  0  0  0999 V2000
    0.9893   -0.5055   -2.3005 C   0  0  0  0  0  0  0  0  0  0  0  0
    0.9893   -0.5055   -0.7695 C   0  0  0  0  0  0  0  0  0  0  0  0
    0.9893    0.8826   -0.2228 C   0  0  0  0  0  0  0  0  0  0  0  0
   -0.1303    1.5383    0.7248 S   0  0  0  0  0  0  0  0  0  0  0  0
    1.8445    0.0446   -2.6976 H   0  0  0  0  0  0  0  0  0  0  0  0
    1.0401   -1.5265   -2.6792 H   0  0  0  0  0  0  0  0  0  0  0  0
    0.0798   -0.0432   -2.6862 H   0  0  0  0  0  0  0  0  0  0  0  0
   -0.0384   -1.1649   -0.3008 H   0  0  0  0  0  0  0  0  0  0  0  0
    1.8996   -1.0022   -0.4140 H   0  0  0  0  0  0  0  0  0  0  0  0
    1.8447    1.4879   -0.5331 H   0  0  0  0  0  0  0  0  0  0  0  0
   -1.5140   -1.2686    1.5138 C   0  0  0  0  0  0  0  0  0  0  0  0
   -1.0675   -1.8252    0.1685 C   0  0  0  0  0  3  0  0  0  0  0  0
   -1.9755   -2.0430    2.1291 H   0  0  0  0  0  0  0  0  0  0  0  0
   -2.2445   -0.4676    1.3880 H   0  0  0  0  0  0  0  0  0  0  0  0
   -0.6701   -0.8613    2.0734 H   0  0  0  0  0  0  0  0  0  0  0  0
   -1.9114   -2.2325   -0.3911 H   0  0  0  0  0  0  0  0  0  0  0  0
   -0.3370   -2.6263    0.2943 H   0  0  0  0  0  0  0  0  0  0  0  0
  1  2  1  0
  1  5  1  0
  1  6  1  0
  1  7  1  0
  2  3  1  0
  2  8  1  0
  2  9  1  0
  3  4  2  0
  3 10  1  0
 11 12  1  0
 11 13  1  0
 11 14  1  0
 11 15  1  0
 12 16  1  0
 12 17  1  0
M  RAD  1  12   2
M  END
>  <reaction>  (15) 
rxn_1996

>  <mol_properties>  (15) 
{"1": {"label": "*1", "atom_type": "Cs"}, "2": {"label": "*0", "atom_type": "CS"}, "7": {"label": "*2", "atom_type": "H0"}, "10": {"label": "*4", "atom_type": "Cs"}, "11": {"label": "*3", "atom_type": "Cs"}}

>  <type>  (15) 
unop_11

>  <geom_source>  (15) 
Heuristics

$$$$

     RDKit          3D

 17 15  0  0  0  0  0  0  0  0999 V2000
    1.0537   -0.3460   -1.9379 C   0  0  0  0  0  0  0  0  0  0  0  0
    1.0537   -0.3460   -0.4069 C   0  0  0  0  0  0  0  0  0  0  0  0
    1.0537    1.0422    0.1398 C   0  0  0  0  0  0  0  0  0  0  0  0
   -0.0658    1.6979    1.0873 S   0  0  0  0  0  0  0  0  0  0  0  0
    1.9089    0.2042   -2.3351 H   0  0  0  0  0  0  0  0  0  0  0  0
    1.1046   -1.3669   -2.3166 H   0  0  0  0  0  0  0  0  0  0  0  0
    0.1442    0.1164   -2.3236 H   0  0  0  0  0  0  0  0  0  0  0  0
    0.0261   -1.0053    0.0618 H   0  0  0  0  0  0  0  0  0  0  0  0
    1.9641   -0.8427   -0.0514 H   0  0  0  0  0  0  0  0  0  0  0  0
    1.9092    1.6475   -0.1705 H   0  0  0  0  0  0  0  0  0  0  0  0
   -1.8650   -2.2187   -0.5958 C   0  0  0  0  0  0  0  0  0  0  0  0
   -1.0031   -1.6656    0.5311 C   0  0  0  0  0  3  0  0  0  0  0  0
   -2.7226   -2.7689   -0.2047 H   0  0  0  0  0  0  0  0  0  0  0  0
   -1.2967   -2.9006   -1.2308 H   0  0  0  0  0  0  0  0  0  0  0  0
   -2.2480   -1.4179   -1.2308 H   0  0  0  0  0  0  0  0  0  0  0  0
   -0.6201   -2.4665    1.1661 H   0  0  0  0  0  0  0  0  0  0  0  0
   -1.5714   -0.9837    1.1661 H   0  0  0  0  0  0  0  0  0  0  0  0
  1  2  1  0
  1  5  1  0
  1  6  1  0
  1  7  1  0
  2  3  1  0
  2  8  1  0
  2  9  1  0
  3  4  2  0
  3 10  1  0
 11 12  1  0
 11 13  1  0
 11 14  1  0
 11 15  1  0
 12 16  1  0
 12 17  1  0
M  RAD  1  12   2
M  END
>  <reaction>  (16) 
rxn_1996

>  <mol_properties>  (16) 
{"1": {"label": "*1", "atom_type": "Cs"}, "2": {"label": "*0", "atom_type": "CS"}, "7": {"label": "*2", "atom_type": "H0"}, "10": {"label": "*4", "atom_type": "Cs"}, "11": {"label": "*3", "atom_type": "Cs"}}

>  <type>  (16) 
unop_12

>  <geom_source>  (16) 
Heuristics

$$$$

     RDKit          3D

 17 15  0  0  0  0  0  0  0  0999 V2000
   -0.7471    2.3761   -0.6695 S   0  0  0  0  0  1  0  0  0  0  0  0
    1.3048    0.2436    0.8899 C   0  0  0  0  0  0  0  0  0  0  0  0
    2.5040    0.0828   -0.0276 C   0  0  0  0  0  0  0  0  0  0  0  0
   -2.0025   -1.2020   -0.0591 C   0  0  0  0  0  0  0  0  0  0  0  0
   -0.9576   -0.1372   -0.3665 C   0  0  0  0  0  0  0  0  0  0  0  0
   -1.5803    1.2156   -0.5425 C   0  0  0  0  0  0  0  0  0  0  0  0
    1.1148    1.3216    1.0765 H   0  0  0  0  0  0  0  0  0  0  0  0
    1.4997   -0.2650    1.8575 H   0  0  0  0  0  0  0  0  0  0  0  0
    0.2861   -0.2692    0.3501 H   0  0  0  0  0  0  0  0  0  0  0  0
    3.4028    0.5329    0.4440 H   0  0  0  0  0  0  0  0  0  0  0  0
    2.6909   -0.9955   -0.2143 H   0  0  0  0  0  0  0  0  0  0  0  0
    2.3063    0.5903   -0.9949 H   0  0  0  0  0  0  0  0  0  0  0  0
   -2.5484   -0.9430    0.8728 H   0  0  0  0  0  0  0  0  0  0  0  0
   -2.7236   -1.2899   -0.8997 H   0  0  0  0  0  0  0  0  0  0  0  0
   -1.4982   -2.1800    0.0855 H   0  0  0  0  0  0  0  0  0  0  0  0
   -0.3928   -0.4201   -1.2816 H   0  0  0  0  0  0  0  0  0  0  0  0
   -2.6591    1.3391   -0.5205 H   0  0  0  0  0  0  0  0  0  0  0  0
  1  6  1  0
  2  3  1  0
  2  7  1  0
  2  8  1  0
  2  9  1  0
  3 10  1  0
  3 11  1  0
  3 12  1  0
  4  5  1  0
  4 13  1  0
  4 14  1  0
  4 15  1  0
  5  6  2  3
  5 16  1  0
  6 17  1  0
M  RAD  1   1   2
M  END
>  <reaction>  (17) 
rxn_1996

>  <mol_properties>  (17) 
{"1": {"label": "*1", "atom_type": "Cs"}, "2": {"label": "*0", "atom_type": "CS"}, "7": {"label": "*2", "atom_type": "H0"}, "10": {"label": "*4", "atom_type": "Cs"}, "11": {"label": "*3", "atom_type": "Cs"}}

>  <type>  (17) 
unop_13

>  <geom_source>  (17) 
AutoTST

$$$$
