
     RDKit          3D

  6  5  0  0  0  0  0  0  0  0999 V2000
   -0.3669    0.0060    0.0609 C   0  0  0  0  0  0  0  0  0  0  0  0
    0.9818   -0.0507    0.4695 O   0  0  0  0  0  0  0  0  0  0  0  0
   -0.6066    0.9462   -0.4488 H   0  0  0  0  0  0  0  0  0  0  0  0
   -0.5221   -0.8115   -0.6420 H   0  0  0  0  0  0  0  0  0  0  0  0
   -1.0602   -0.1268    0.8992 H   0  0  0  0  0  0  0  0  0  0  0  0
    1.1451    0.6595    1.0897 H   0  0  0  0  0  0  0  0  0  0  0  0
  1  2  1  0
  1  3  1  0
  1  4  1  0
  1  5  1  0
  2  6  1  0
M  END
>  <reaction>  (1) 
rxn_192

>  <mol_properties>  (1) 
{"1": {"label": "donator", "atom_type": "O2s"}, "5": {"label": "d_hydrogen", "atom_type": "H0"}}

>  <type>  (1) 
r1h

$$$$

     RDKit          3D

  1  0  0  0  0  0  0  0  0  0999 V2000
    0.0000    0.0000    0.0000 H   0  0  0  0  0 15  0  0  0  0  0  0
M  END
>  <reaction>  (2) 
rxn_192

>  <mol_properties>  (2) 
{"0": {"label": "acceptor", "atom_type": "H0"}}

>  <type>  (2) 
r2

$$$$

     RDKit          3D

  2  1  0  0  0  0  0  0  0  0999 V2000
    0.0000    0.0000    0.3721 H   0  0  0  0  0  0  0  0  0  0  0  0
    0.0000    0.0000   -0.3721 H   0  0  0  0  0  0  0  0  0  0  0  0
  1  2  1  0
M  END
>  <reaction>  (3) 
rxn_192

>  <mol_properties>  (3) 
{"0": {"label": "a_hydrogen", "atom_type": "H0"}, "1": {"label": "acceptor", "atom_type": "H0"}}

>  <type>  (3) 
r2h

$$$$

     RDKit          3D

  7  5  0  0  0  0  0  0  0  0999 V2000
    0.0000   -0.0783   -0.7602 C   0  0  0  0  0  0  0  0  0  0  0  0
   -0.0001   -0.1383    0.6349 O   0  0  0  0  0  0  0  0  0  0  0  0
    0.8963    0.4049   -1.1627 H   0  0  0  0  0  0  0  0  0  0  0  0
   -0.0000   -1.1214   -1.0923 H   0  0  0  0  0  0  0  0  0  0  0  0
   -0.8960    0.4050   -1.1629 H   0  0  0  0  0  0  0  0  0  0  0  0
   -0.0001    0.9798    1.0668 H   0  0  0  0  0  0  0  0  0  0  0  0
   -0.0000    1.8685    1.2269 H   0  0  0  0  0 15  0  0  0  0  0  0
  1  2  1  0
  1  3  1  0
  1  4  1  0
  1  5  1  0
  2  6  1  0
M  END
>  <reaction>  (4) 
rxn_192

>  <mol_properties>  (4) 
{"0": {"label": "*4", "atom_type": "Cs"}, "1": {"label": "*3", "atom_type": "O2s"}, "5": {"label": "*2", "atom_type": "H0"}, "6": {"label": "*1", "atom_type": "H0"}}

>  <type>  (4) 
ts

$$$$

     RDKit          3D

  7  5  0  0  0  0  0  0  0  0999 V2000
   -0.0000   -0.0900   -0.7652 C   0  0  0  0  0  0  0  0  0  0  0  0
   -0.0000   -0.0900    0.6452 O   0  0  0  0  0  0  0  0  0  0  0  0
    0.8908    0.3954   -1.1799 H   0  0  0  0  0  0  0  0  0  0  0  0
    0.0000   -1.1314   -1.0843 H   0  0  0  0  0  0  0  0  0  0  0  0
   -0.8908    0.3953   -1.1799 H   0  0  0  0  0  0  0  0  0  0  0  0
   -0.0000    0.9976    1.0139 H   0  0  0  0  0  0  0  0  0  0  0  0
   -0.0000    1.8433    1.3006 H   0  0  0  0  0 15  0  0  0  0  0  0
  1  2  1  0
  1  3  1  0
  1  4  1  0
  1  5  1  0
  2  6  1  0
M  END
>  <reaction>  (5) 
rxn_192

>  <mol_properties>  (5) 
{"0": {"label": "*4", "atom_type": "Cs"}, "1": {"label": "*3", "atom_type": "O2s"}, "5": {"label": "*2", "atom_type": "H0"}, "6": {"label": "*1", "atom_type": "H0"}}

>  <type>  (5) 
unop_1

>  <geom_source>  (5) 
Heuristics

$$$$

     RDKit          3D

  7  5  0  0  0  0  0  0  0  0999 V2000
    0.4935   -0.5868   -0.0923 O   0  0  0  0  0  0  0  0  0  0  0  0
   -0.7548    0.0256    0.0056 C   0  0  0  0  0  0  0  0  0  0  0  0
   -0.6348    1.1253   -0.0785 H   0  0  0  0  0  0  0  0  0  0  0  0
   -1.4104   -0.3384   -0.8119 H   0  0  0  0  0  0  0  0  0  0  0  0
   -1.2126   -0.2226    0.9852 H   0  0  0  0  0  0  0  0  0  0  0  0
    2.1780    0.4598   -0.0067 H   0  0  0  0  0 15  0  0  0  0  0  0
    1.3411   -0.4629   -0.0015 H   0  0  0  0  0  0  0  0  0  0  0  0
  1  2  1  0
  1  7  1  0
  2  3  1  0
  2  4  1  0
  2  5  1  0
M  END
>  <reaction>  (6) 
rxn_192

>  <mol_properties>  (6) 
{"0": {"label": "*4", "atom_type": "Cs"}, "1": {"label": "*3", "atom_type": "O2s"}, "5": {"label": "*2", "atom_type": "H0"}, "6": {"label": "*1", "atom_type": "H0"}}

>  <type>  (6) 
unop_2

>  <geom_source>  (6) 
AutoTST

$$$$
