
     RDKit          3D

  9  8  0  0  0  0  0  0  0  0999 V2000
    1.1303   -0.2933   -0.7510 C   0  0  0  0  0  0  0  0  0  0  0  0
    0.2866    0.4560   -0.0588 C   0  0  0  0  0  0  0  0  0  0  0  0
   -0.9719   -0.0331    0.5823 C   0  0  0  0  0  0  0  0  0  0  0  0
    2.0274    0.1230   -1.1916 H   0  0  0  0  0  0  0  0  0  0  0  0
    0.9532   -1.3530   -0.9023 H   0  0  0  0  0  0  0  0  0  0  0  0
    0.5065    1.5132    0.0659 H   0  0  0  0  0  0  0  0  0  0  0  0
   -0.9526    0.1426    1.6610 H   0  0  0  0  0  0  0  0  0  0  0  0
   -1.1182   -1.1002    0.4106 H   0  0  0  0  0  0  0  0  0  0  0  0
   -1.8412    0.5010    0.1901 H   0  0  0  0  0  0  0  0  0  0  0  0
  1  2  2  3
  1  4  1  0
  1  5  1  0
  2  3  1  0
  2  6  1  0
  3  7  1  0
  3  8  1  0
  3  9  1  0
M  END
>  <reaction>  (1) 
rxn_1000

>  <mol_properties>  (1) 
{"2": {"label": "donator", "atom_type": "Cs"}, "6": {"label": "d_hydrogen", "atom_type": "H0"}}

>  <type>  (1) 
r1h

$$$$

     RDKit          3D

 11 10  0  0  0  0  0  0  0  0999 V2000
    2.0591    0.2533   -0.1061 C   0  0  0  0  0  0  0  0  0  0  0  0
    0.8045   -0.3111   -0.1535 C   0  0  0  0  0  0  0  0  0  0  0  0
   -0.3816    0.3942   -0.1885 C   0  0  0  0  0  3  0  0  0  0  0  0
   -1.7316   -0.2294   -0.2396 C   0  0  0  0  0  0  0  0  0  0  0  0
    2.9505   -0.3576   -0.0805 H   0  0  0  0  0  0  0  0  0  0  0  0
    2.1872    1.3290   -0.0933 H   0  0  0  0  0  0  0  0  0  0  0  0
    0.7385   -1.3970   -0.1643 H   0  0  0  0  0  0  0  0  0  0  0  0
   -0.3340    1.4795   -0.1783 H   0  0  0  0  0  0  0  0  0  0  0  0
   -1.6704   -1.3186   -0.2461 H   0  0  0  0  0  0  0  0  0  0  0  0
   -2.3404    0.0713    0.6191 H   0  0  0  0  0  0  0  0  0  0  0  0
   -2.2805    0.0851   -1.1331 H   0  0  0  0  0  0  0  0  0  0  0  0
  1  2  2  3
  1  5  1  0
  1  6  1  0
  2  3  1  0
  2  7  1  0
  3  4  1  0
  3  8  1  0
  4  9  1  0
  4 10  1  0
  4 11  1  0
M  RAD  1   3   2
M  END
>  <reaction>  (2) 
rxn_1000

>  <mol_properties>  (2) 
{"2": {"label": "acceptor", "atom_type": "Cs"}}

>  <type>  (2) 
r2

$$$$

     RDKit          3D

 12 11  0  0  0  0  0  0  0  0999 V2000
    1.9877    0.1011    0.4814 C   0  0  0  0  0  0  0  0  0  0  0  0
    0.8179    0.5502    0.0525 C   0  0  0  0  0  0  0  0  0  0  0  0
   -0.2939   -0.2692   -0.5320 C   0  0  0  0  0  0  0  0  0  0  0  0
   -0.0292   -1.7631   -0.6328 C   0  0  0  0  0  0  0  0  0  0  0  0
    2.2522   -0.9490    0.4436 H   0  0  0  0  0  0  0  0  0  0  0  0
    2.7295    0.7757    0.8896 H   0  0  0  0  0  0  0  0  0  0  0  0
    0.6162    1.6164    0.1190 H   0  0  0  0  0  0  0  0  0  0  0  0
   -0.5268    0.1319   -1.5245 H   0  0  0  0  0  0  0  0  0  0  0  0
   -1.1959   -0.0938    0.0644 H   0  0  0  0  0  0  0  0  0  0  0  0
    0.1590   -2.1992    0.3502 H   0  0  0  0  0  0  0  0  0  0  0  0
    0.8382   -1.9701   -1.2626 H   0  0  0  0  0  0  0  0  0  0  0  0
   -0.8879   -2.2759   -1.0672 H   0  0  0  0  0  0  0  0  0  0  0  0
  1  2  2  3
  1  5  1  0
  1  6  1  0
  2  3  1  0
  2  7  1  0
  3  4  1  0
  3  8  1  0
  3  9  1  0
  4 10  1  0
  4 11  1  0
  4 12  1  0
M  END
>  <reaction>  (3) 
rxn_1000

>  <mol_properties>  (3) 
{"2": {"label": "acceptor", "atom_type": "Cs"}, "11": {"label": "a_hydrogen", "atom_type": "H0"}}

>  <type>  (3) 
r2h

$$$$

     RDKit          3D

 20 18  0  0  0  0  0  0  0  0999 V2000
   -1.8449   -1.2787    0.5365 C   0  0  0  0  0  0  0  0  0  0  0  0
   -0.9957   -0.7725    1.4352 C   0  0  0  0  0  0  0  0  0  0  0  0
   -0.3964    0.5550    1.3907 C   0  0  0  0  0  0  0  0  0  0  0  0
   -1.0218    1.6141    0.5202 C   0  0  0  0  0  0  0  0  0  0  0  0
   -2.2087   -2.2943    0.6226 H   0  0  0  0  0  0  0  0  0  0  0  0
   -2.2097   -0.6965   -0.3008 H   0  0  0  0  0  0  0  0  0  0  0  0
   -0.6659   -1.4136    2.2481 H   0  0  0  0  0  0  0  0  0  0  0  0
   -0.0629    0.9150    2.3628 H   0  0  0  0  0  0  0  0  0  0  0  0
   -2.0504    1.8239    0.8272 H   0  0  0  0  0  0  0  0  0  0  0  0
   -0.4545    2.5439    0.5751 H   0  0  0  0  0  0  0  0  0  0  0  0
   -1.0441    1.2997   -0.5255 H   0  0  0  0  0  0  0  0  0  0  0  0
    0.9933    0.1413   -2.3493 C   0  0  0  0  0  0  0  0  0  0  0  0
    1.3673   -0.4804   -1.2222 C   0  0  0  0  0  0  0  0  0  0  0  0
    1.8596    0.1827   -0.0355 C   0  0  0  0  0  3  0  0  0  0  0  0
    0.5947   -0.4079   -3.1919 H   0  0  0  0  0  0  0  0  0  0  0  0
    1.0894    1.2162   -2.4579 H   0  0  0  0  0  0  0  0  0  0  0  0
    1.2489   -1.5583   -1.1634 H   0  0  0  0  0  0  0  0  0  0  0  0
    0.7709    0.3391    0.7764 H   0  0  0  0  0  0  0  0  0  0  0  0
    2.1904    1.2111   -0.1629 H   0  0  0  0  0  0  0  0  0  0  0  0
    2.5014   -0.4021    0.6176 H   0  0  0  0  0  0  0  0  0  0  0  0
  1  2  2  3
  1  5  1  0
  1  6  1  0
  2  3  1  0
  2  7  1  0
  3  4  1  0
  3  8  1  0
  3 18  1  0
  4  9  1  0
  4 10  1  0
  4 11  1  0
 12 13  2  3
 12 15  1  0
 12 16  1  0
 13 14  1  0
 13 17  1  0
 14 19  1  0
 14 20  1  0
M  RAD  1  14   2
M  END
>  <reaction>  (4) 
rxn_1000

>  <mol_properties>  (4) 
{"1": {"label": "*0", "atom_type": "Cd"}, "2": {"label": "*1", "atom_type": "Cs"}, "12": {"label": "*4", "atom_type": "Cd"}, "13": {"label": "*3", "atom_type": "Cs"}, "17": {"label": "*2", "atom_type": "H0"}}

>  <type>  (4) 
ts

$$$$

     RDKit          3D

 20 18  0  0  0  0  0  0  0  0999 V2000
   -0.9476    0.1605    3.0775 C   0  0  0  0  0  0  0  0  0  0  0  0
   -0.2365    0.4719    2.0046 C   0  0  0  0  0  0  0  0  0  0  0  0
   -0.7117    0.4559    0.5822 C   0  0  0  0  0  3  0  0  0  0  0  0
   -2.1586    0.0369    0.3752 C   0  0  0  0  0  0  0  0  0  0  0  0
   -0.5124    0.2031    4.0679 H   0  0  0  0  0  0  0  0  0  0  0  0
   -1.9845   -0.1475    3.0137 H   0  0  0  0  0  0  0  0  0  0  0  0
    0.7994    0.7732    2.1389 H   0  0  0  0  0  0  0  0  0  0  0  0
   -0.5525    1.4537    0.1589 H   0  0  0  0  0  0  0  0  0  0  0  0
   -2.8439    0.7081    0.8965 H   0  0  0  0  0  0  0  0  0  0  0  0
   -2.4147    0.0546   -0.6846 H   0  0  0  0  0  0  0  0  0  0  0  0
   -2.3348   -0.9750    0.7453 H   0  0  0  0  0  0  0  0  0  0  0  0
    1.3972   -0.8074   -3.1667 C   0  0  0  0  0  0  0  0  0  0  0  0
    1.3972   -0.8074   -1.8430 C   0  0  0  0  0  0  0  0  0  0  0  0
    1.3972    0.4148   -0.9825 C   0  0  0  0  0  0  0  0  0  0  0  0
    1.3972   -1.7301   -3.7332 H   0  0  0  0  0  0  0  0  0  0  0  0
    1.3972    0.1182   -3.7327 H   0  0  0  0  0  0  0  0  0  0  0  0
    1.3972   -1.7600   -1.3195 H   0  0  0  0  0  0  0  0  0  0  0  0
    0.3440    0.4353   -0.2010 H   0  0  0  0  0  0  0  0  0  0  0  0
    1.3972    1.3252   -1.5831 H   0  0  0  0  0  0  0  0  0  0  0  0
    2.2749    0.4319   -0.3312 H   0  0  0  0  0  0  0  0  0  0  0  0
  1  2  2  3
  1  5  1  0
  1  6  1  0
  2  3  1  0
  2  7  1  0
  3  4  1  0
  3  8  1  0
  4  9  1  0
  4 10  1  0
  4 11  1  0
 12 13  2  3
 12 15  1  0
 12 16  1  0
 13 14  1  0
 13 17  1  0
 14 18  1  0
 14 19  1  0
 14 20  1  0
M  RAD  1   3   2
M  END
>  <reaction>  (5) 
rxn_1000

>  <mol_properties>  (5) 
{"1": {"label": "*0", "atom_type": "Cd"}, "2": {"label": "*1", "atom_type": "Cs"}, "12": {"label": "*4", "atom_type": "Cd"}, "13": {"label": "*3", "atom_type": "Cs"}, "17": {"label": "*2", "atom_type": "H0"}}

>  <type>  (5) 
unop_1

>  <geom_source>  (5) 
Heuristics

$$$$

     RDKit          3D

 20 18  0  0  0  0  0  0  0  0999 V2000
   -2.0608   -1.2247    1.4254 C   0  0  0  0  0  0  0  0  0  0  0  0
   -0.8296   -0.7461    1.3306 C   0  0  0  0  0  0  0  0  0  0  0  0
   -0.4426    0.6718    1.0326 C   0  0  0  0  0  3  0  0  0  0  0  0
   -1.5962    1.6396    0.8219 C   0  0  0  0  0  0  0  0  0  0  0  0
   -2.2387   -2.2696    1.6455 H   0  0  0  0  0  0  0  0  0  0  0  0
   -2.9354   -0.5997    1.2886 H   0  0  0  0  0  0  0  0  0  0  0  0
    0.0041   -1.4278    1.4791 H   0  0  0  0  0  0  0  0  0  0  0  0
    0.1945    1.0295    1.8489 H   0  0  0  0  0  0  0  0  0  0  0  0
   -2.2310    1.6983    1.7082 H   0  0  0  0  0  0  0  0  0  0  0  0
   -1.2219    2.6421    0.6117 H   0  0  0  0  0  0  0  0  0  0  0  0
   -2.2221    1.3331   -0.0185 H   0  0  0  0  0  0  0  0  0  0  0  0
    1.6663   -0.5915   -2.7164 C   0  0  0  0  0  0  0  0  0  0  0  0
    1.6663   -0.5915   -1.3926 C   0  0  0  0  0  0  0  0  0  0  0  0
    1.6663    0.6307   -0.5321 C   0  0  0  0  0  0  0  0  0  0  0  0
    1.6663   -1.5142   -3.2828 H   0  0  0  0  0  0  0  0  0  0  0  0
    1.6663    0.3341   -3.2824 H   0  0  0  0  0  0  0  0  0  0  0  0
    1.6663   -1.5441   -0.8691 H   0  0  0  0  0  0  0  0  0  0  0  0
    0.6130    0.6512    0.2494 H   0  0  0  0  0  0  0  0  0  0  0  0
    1.6663    1.5411   -1.1327 H   0  0  0  0  0  0  0  0  0  0  0  0
    2.5440    0.6478    0.1191 H   0  0  0  0  0  0  0  0  0  0  0  0
  1  2  2  3
  1  5  1  0
  1  6  1  0
  2  3  1  0
  2  7  1  0
  3  4  1  0
  3  8  1  0
  4  9  1  0
  4 10  1  0
  4 11  1  0
 12 13  2  3
 12 15  1  0
 12 16  1  0
 13 14  1  0
 13 17  1  0
 14 18  1  0
 14 19  1  0
 14 20  1  0
M  RAD  1   3   2
M  END
>  <reaction>  (6) 
rxn_1000

>  <mol_properties>  (6) 
{"1": {"label": "*0", "atom_type": "Cd"}, "2": {"label": "*1", "atom_type": "Cs"}, "12": {"label": "*4", "atom_type": "Cd"}, "13": {"label": "*3", "atom_type": "Cs"}, "17": {"label": "*2", "atom_type": "H0"}}

>  <type>  (6) 
unop_2

>  <geom_source>  (6) 
Heuristics

$$$$

     RDKit          3D

 20 18  0  0  0  0  0  0  0  0999 V2000
   -0.9085    0.8709    3.0202 C   0  0  0  0  0  0  0  0  0  0  0  0
   -0.3988    1.0728    1.8147 C   0  0  0  0  0  0  0  0  0  0  0  0
   -0.7666    0.3454    0.5558 C   0  0  0  0  0  3  0  0  0  0  0  0
   -1.8340   -0.7275    0.7023 C   0  0  0  0  0  0  0  0  0  0  0  0
   -0.5757    1.4506    3.8718 H   0  0  0  0  0  0  0  0  0  0  0  0
   -1.6725    0.1254    3.2067 H   0  0  0  0  0  0  0  0  0  0  0  0
    0.3653    1.8371    1.6965 H   0  0  0  0  0  0  0  0  0  0  0  0
   -1.0876    1.0865   -0.1843 H   0  0  0  0  0  0  0  0  0  0  0  0
   -2.7711   -0.3061    1.0713 H   0  0  0  0  0  0  0  0  0  0  0  0
   -2.0360   -1.2008   -0.2592 H   0  0  0  0  0  0  0  0  0  0  0  0
   -1.5197   -1.5066    1.3994 H   0  0  0  0  0  0  0  0  0  0  0  0
    1.3424   -0.9179   -3.1931 C   0  0  0  0  0  0  0  0  0  0  0  0
    1.3424   -0.9179   -1.8694 C   0  0  0  0  0  0  0  0  0  0  0  0
    1.3424    0.3042   -1.0089 C   0  0  0  0  0  0  0  0  0  0  0  0
    1.3424   -1.8407   -3.7596 H   0  0  0  0  0  0  0  0  0  0  0  0
    1.3424    0.0077   -3.7591 H   0  0  0  0  0  0  0  0  0  0  0  0
    1.3424   -1.8706   -1.3459 H   0  0  0  0  0  0  0  0  0  0  0  0
    0.2891    0.3248   -0.2274 H   0  0  0  0  0  0  0  0  0  0  0  0
    1.3424    1.2147   -1.6095 H   0  0  0  0  0  0  0  0  0  0  0  0
    2.2201    0.3214   -0.3577 H   0  0  0  0  0  0  0  0  0  0  0  0
  1  2  2  3
  1  5  1  0
  1  6  1  0
  2  3  1  0
  2  7  1  0
  3  4  1  0
  3  8  1  0
  4  9  1  0
  4 10  1  0
  4 11  1  0
 12 13  2  3
 12 15  1  0
 12 16  1  0
 13 14  1  0
 13 17  1  0
 14 18  1  0
 14 19  1  0
 14 20  1  0
M  RAD  1   3   2
M  END
>  <reaction>  (7) 
rxn_1000

>  <mol_properties>  (7) 
{"1": {"label": "*0", "atom_type": "Cd"}, "2": {"label": "*1", "atom_type": "Cs"}, "12": {"label": "*4", "atom_type": "Cd"}, "13": {"label": "*3", "atom_type": "Cs"}, "17": {"label": "*2", "atom_type": "H0"}}

>  <type>  (7) 
unop_3

>  <geom_source>  (7) 
Heuristics

$$$$

     RDKit          3D

 20 18  0  0  0  0  0  0  0  0999 V2000
   -2.4270    1.0503    0.0325 C   0  0  0  0  0  0  0  0  0  0  0  0
   -1.7740   -0.0126    0.4774 C   0  0  0  0  0  0  0  0  0  0  0  0
   -0.5503   -0.0112    1.3444 C   0  0  0  0  0  3  0  0  0  0  0  0
   -0.0242    1.3594    1.7400 C   0  0  0  0  0  0  0  0  0  0  0  0
   -3.3054    0.9455   -0.5915 H   0  0  0  0  0  0  0  0  0  0  0  0
   -2.1155    2.0606    0.2701 H   0  0  0  0  0  0  0  0  0  0  0  0
   -2.1399   -0.9985    0.2017 H   0  0  0  0  0  0  0  0  0  0  0  0
   -0.7701   -0.5958    2.2445 H   0  0  0  0  0  0  0  0  0  0  0  0
   -0.7713    1.9236    2.3017 H   0  0  0  0  0  0  0  0  0  0  0  0
    0.8629    1.2631    2.3669 H   0  0  0  0  0  0  0  0  0  0  0  0
    0.2489    1.9476    0.8617 H   0  0  0  0  0  0  0  0  0  0  0  0
    1.5586   -1.2745   -2.4046 C   0  0  0  0  0  0  0  0  0  0  0  0
    1.5586   -1.2745   -1.0808 C   0  0  0  0  0  0  0  0  0  0  0  0
    1.5586   -0.0523   -0.2203 C   0  0  0  0  0  0  0  0  0  0  0  0
    1.5586   -2.1972   -2.9711 H   0  0  0  0  0  0  0  0  0  0  0  0
    1.5586   -0.3489   -2.9706 H   0  0  0  0  0  0  0  0  0  0  0  0
    1.5586   -2.2271   -0.5573 H   0  0  0  0  0  0  0  0  0  0  0  0
    0.5054   -0.0318    0.5611 H   0  0  0  0  0  0  0  0  0  0  0  0
    1.5586    0.8581   -0.8209 H   0  0  0  0  0  0  0  0  0  0  0  0
    2.4363   -0.0352    0.4309 H   0  0  0  0  0  0  0  0  0  0  0  0
  1  2  2  3
  1  5  1  0
  1  6  1  0
  2  3  1  0
  2  7  1  0
  3  4  1  0
  3  8  1  0
  4  9  1  0
  4 10  1  0
  4 11  1  0
 12 13  2  3
 12 15  1  0
 12 16  1  0
 13 14  1  0
 13 17  1  0
 14 18  1  0
 14 19  1  0
 14 20  1  0
M  RAD  1   3   2
M  END
>  <reaction>  (8) 
rxn_1000

>  <mol_properties>  (8) 
{"1": {"label": "*0", "atom_type": "Cd"}, "2": {"label": "*1", "atom_type": "Cs"}, "12": {"label": "*4", "atom_type": "Cd"}, "13": {"label": "*3", "atom_type": "Cs"}, "17": {"label": "*2", "atom_type": "H0"}}

>  <type>  (8) 
unop_4

>  <geom_source>  (8) 
Heuristics

$$$$

     RDKit          3D

 20 18  0  0  0  0  0  0  0  0999 V2000
   -0.8576    1.5157    2.7135 C   0  0  0  0  0  0  0  0  0  0  0  0
   -0.8419    1.4489    1.3910 C   0  0  0  0  0  0  0  0  0  0  0  0
   -0.9034    0.2029    0.5585 C   0  0  0  0  0  3  0  0  0  0  0  0
   -0.9924   -1.1030    1.3321 C   0  0  0  0  0  0  0  0  0  0  0  0
   -0.8087    2.4684    3.2254 H   0  0  0  0  0  0  0  0  0  0  0  0
   -0.9193    0.6307    3.3357 H   0  0  0  0  0  0  0  0  0  0  0  0
   -0.7785    2.3756    0.8260 H   0  0  0  0  0  0  0  0  0  0  0  0
   -1.7592    0.2887   -0.1200 H   0  0  0  0  0  0  0  0  0  0  0  0
   -1.8875   -1.1336    1.9563 H   0  0  0  0  0  0  0  0  0  0  0  0
   -1.0325   -1.9515    0.6482 H   0  0  0  0  0  0  0  0  0  0  0  0
   -0.1259   -1.2380    1.9825 H   0  0  0  0  0  0  0  0  0  0  0  0
    1.2055   -1.0604   -3.1904 C   0  0  0  0  0  0  0  0  0  0  0  0
    1.2055   -1.0604   -1.8667 C   0  0  0  0  0  0  0  0  0  0  0  0
    1.2055    0.1618   -1.0062 C   0  0  0  0  0  0  0  0  0  0  0  0
    1.2055   -1.9831   -3.7569 H   0  0  0  0  0  0  0  0  0  0  0  0
    1.2055   -0.1348   -3.7564 H   0  0  0  0  0  0  0  0  0  0  0  0
    1.2055   -2.0130   -1.3432 H   0  0  0  0  0  0  0  0  0  0  0  0
    0.1523    0.1824   -0.2247 H   0  0  0  0  0  0  0  0  0  0  0  0
    1.2055    1.0723   -1.6068 H   0  0  0  0  0  0  0  0  0  0  0  0
    2.0832    0.1789   -0.3550 H   0  0  0  0  0  0  0  0  0  0  0  0
  1  2  2  3
  1  5  1  0
  1  6  1  0
  2  3  1  0
  2  7  1  0
  3  4  1  0
  3  8  1  0
  4  9  1  0
  4 10  1  0
  4 11  1  0
 12 13  2  3
 12 15  1  0
 12 16  1  0
 13 14  1  0
 13 17  1  0
 14 18  1  0
 14 19  1  0
 14 20  1  0
M  RAD  1   3   2
M  END
>  <reaction>  (9) 
rxn_1000

>  <mol_properties>  (9) 
{"1": {"label": "*0", "atom_type": "Cd"}, "2": {"label": "*1", "atom_type": "Cs"}, "12": {"label": "*4", "atom_type": "Cd"}, "13": {"label": "*3", "atom_type": "Cs"}, "17": {"label": "*2", "atom_type": "H0"}}

>  <type>  (9) 
unop_5

>  <geom_source>  (9) 
Heuristics

$$$$

     RDKit          3D

 20 18  0  0  0  0  0  0  0  0999 V2000
   -2.0224    1.8497    0.4213 C   0  0  0  0  0  0  0  0  0  0  0  0
   -1.8248    0.5409    0.4666 C   0  0  0  0  0  0  0  0  0  0  0  0
   -0.7212   -0.1714    1.1904 C   0  0  0  0  0  3  0  0  0  0  0  0
    0.2571    0.7184    1.9407 C   0  0  0  0  0  0  0  0  0  0  0  0
   -2.8527    2.2705   -0.1315 H   0  0  0  0  0  0  0  0  0  0  0  0
   -1.3701    2.5501    0.9293 H   0  0  0  0  0  0  0  0  0  0  0  0
   -2.5172   -0.1064   -0.0656 H   0  0  0  0  0  0  0  0  0  0  0  0
   -1.1757   -0.8871    1.8843 H   0  0  0  0  0  0  0  0  0  0  0  0
   -0.2508    1.3082    2.7063 H   0  0  0  0  0  0  0  0  0  0  0  0
    1.0213    0.1170    2.4341 H   0  0  0  0  0  0  0  0  0  0  0  0
    0.7615    1.4112    1.2642 H   0  0  0  0  0  0  0  0  0  0  0  0
    1.3877   -1.4347   -2.5586 C   0  0  0  0  0  0  0  0  0  0  0  0
    1.3877   -1.4347   -1.2348 C   0  0  0  0  0  0  0  0  0  0  0  0
    1.3877   -0.2126   -0.3743 C   0  0  0  0  0  0  0  0  0  0  0  0
    1.3877   -2.3575   -3.1250 H   0  0  0  0  0  0  0  0  0  0  0  0
    1.3877   -0.5091   -3.1246 H   0  0  0  0  0  0  0  0  0  0  0  0
    1.3877   -2.3874   -0.7113 H   0  0  0  0  0  0  0  0  0  0  0  0
    0.3344   -0.1920    0.4072 H   0  0  0  0  0  0  0  0  0  0  0  0
    1.3877    0.6979   -0.9749 H   0  0  0  0  0  0  0  0  0  0  0  0
    2.2654   -0.1955    0.2769 H   0  0  0  0  0  0  0  0  0  0  0  0
  1  2  2  3
  1  5  1  0
  1  6  1  0
  2  3  1  0
  2  7  1  0
  3  4  1  0
  3  8  1  0
  4  9  1  0
  4 10  1  0
  4 11  1  0
 12 13  2  3
 12 15  1  0
 12 16  1  0
 13 14  1  0
 13 17  1  0
 14 18  1  0
 14 19  1  0
 14 20  1  0
M  RAD  1   3   2
M  END
>  <reaction>  (10) 
rxn_1000

>  <mol_properties>  (10) 
{"1": {"label": "*0", "atom_type": "Cd"}, "2": {"label": "*1", "atom_type": "Cs"}, "12": {"label": "*4", "atom_type": "Cd"}, "13": {"label": "*3", "atom_type": "Cs"}, "17": {"label": "*2", "atom_type": "H0"}}

>  <type>  (10) 
unop_6

>  <geom_source>  (10) 
Heuristics

$$$$

     RDKit          3D

 20 18  0  0  0  0  0  0  0  0999 V2000
   -1.4808    2.2559    1.1466 C   0  0  0  0  0  0  0  0  0  0  0  0
   -1.6799    1.0463    0.6455 C   0  0  0  0  0  0  0  0  0  0  0  0
   -0.8919   -0.1909    0.9577 C   0  0  0  0  0  3  0  0  0  0  0  0
    0.2449   -0.0151    1.9520 C   0  0  0  0  0  0  0  0  0  0  0  0
   -2.1068    3.0905    0.8574 H   0  0  0  0  0  0  0  0  0  0  0  0
   -0.6919    2.4627    1.8601 H   0  0  0  0  0  0  0  0  0  0  0  0
   -2.4895    0.9072   -0.0665 H   0  0  0  0  0  0  0  0  0  0  0  0
   -1.5874   -0.9542    1.3238 H   0  0  0  0  0  0  0  0  0  0  0  0
   -0.1239    0.3382    2.9170 H   0  0  0  0  0  0  0  0  0  0  0  0
    0.7594   -0.9624    2.1173 H   0  0  0  0  0  0  0  0  0  0  0  0
    0.9799    0.7063    1.5899 H   0  0  0  0  0  0  0  0  0  0  0  0
    1.2170   -1.4542   -2.7913 C   0  0  0  0  0  0  0  0  0  0  0  0
    1.2170   -1.4542   -1.4675 C   0  0  0  0  0  0  0  0  0  0  0  0
    1.2170   -0.2321   -0.6070 C   0  0  0  0  0  0  0  0  0  0  0  0
    1.2170   -2.3770   -3.3577 H   0  0  0  0  0  0  0  0  0  0  0  0
    1.2170   -0.5286   -3.3573 H   0  0  0  0  0  0  0  0  0  0  0  0
    1.2170   -2.4069   -0.9440 H   0  0  0  0  0  0  0  0  0  0  0  0
    0.1637   -0.2115    0.1745 H   0  0  0  0  0  0  0  0  0  0  0  0
    1.2170    0.6784   -1.2076 H   0  0  0  0  0  0  0  0  0  0  0  0
    2.0947   -0.2149    0.0442 H   0  0  0  0  0  0  0  0  0  0  0  0
  1  2  2  3
  1  5  1  0
  1  6  1  0
  2  3  1  0
  2  7  1  0
  3  4  1  0
  3  8  1  0
  4  9  1  0
  4 10  1  0
  4 11  1  0
 12 13  2  3
 12 15  1  0
 12 16  1  0
 13 14  1  0
 13 17  1  0
 14 18  1  0
 14 19  1  0
 14 20  1  0
M  RAD  1   3   2
M  END
>  <reaction>  (11) 
rxn_1000

>  <mol_properties>  (11) 
{"1": {"label": "*0", "atom_type": "Cd"}, "2": {"label": "*1", "atom_type": "Cs"}, "12": {"label": "*4", "atom_type": "Cd"}, "13": {"label": "*3", "atom_type": "Cs"}, "17": {"label": "*2", "atom_type": "H0"}}

>  <type>  (11) 
unop_7

>  <geom_source>  (11) 
Heuristics

$$$$

     RDKit          3D

 20 18  0  0  0  0  0  0  0  0999 V2000
   -1.1462   -0.5882    2.8314 C   0  0  0  0  0  0  0  0  0  0  0  0
   -0.2996   -0.1070    1.9339 C   0  0  0  0  0  0  0  0  0  0  0  0
   -0.6546    0.5908    0.6548 C   0  0  0  0  0  3  0  0  0  0  0  0
   -2.1418    0.7506    0.3818 C   0  0  0  0  0  0  0  0  0  0  0  0
   -0.7903   -1.0785    3.7287 H   0  0  0  0  0  0  0  0  0  0  0  0
   -2.2204   -0.5139    2.7100 H   0  0  0  0  0  0  0  0  0  0  0  0
    0.7666   -0.2149    2.1171 H   0  0  0  0  0  0  0  0  0  0  0  0
   -0.1724    1.5745    0.6584 H   0  0  0  0  0  0  0  0  0  0  0  0
   -2.6285    1.3319    1.1674 H   0  0  0  0  0  0  0  0  0  0  0  0
   -2.3043    1.2665   -0.5652 H   0  0  0  0  0  0  0  0  0  0  0  0
   -2.6406   -0.2188    0.3248 H   0  0  0  0  0  0  0  0  0  0  0  0
    1.4543   -0.6725   -3.0942 C   0  0  0  0  0  0  0  0  0  0  0  0
    1.4543   -0.6725   -1.7705 C   0  0  0  0  0  0  0  0  0  0  0  0
    1.4543    0.5496   -0.9099 C   0  0  0  0  0  0  0  0  0  0  0  0
    1.4543   -1.5953   -3.6607 H   0  0  0  0  0  0  0  0  0  0  0  0
    1.4543    0.2531   -3.6602 H   0  0  0  0  0  0  0  0  0  0  0  0
    1.4543   -1.6252   -1.2469 H   0  0  0  0  0  0  0  0  0  0  0  0
    0.4011    0.5702   -0.1285 H   0  0  0  0  0  0  0  0  0  0  0  0
    1.4543    1.4601   -1.5105 H   0  0  0  0  0  0  0  0  0  0  0  0
    2.3320    0.5668   -0.2587 H   0  0  0  0  0  0  0  0  0  0  0  0
  1  2  2  3
  1  5  1  0
  1  6  1  0
  2  3  1  0
  2  7  1  0
  3  4  1  0
  3  8  1  0
  4  9  1  0
  4 10  1  0
  4 11  1  0
 12 13  2  3
 12 15  1  0
 12 16  1  0
 13 14  1  0
 13 17  1  0
 14 18  1  0
 14 19  1  0
 14 20  1  0
M  RAD  1   3   2
M  END
>  <reaction>  (12) 
rxn_1000

>  <mol_properties>  (12) 
{"1": {"label": "*0", "atom_type": "Cd"}, "2": {"label": "*1", "atom_type": "Cs"}, "12": {"label": "*4", "atom_type": "Cd"}, "13": {"label": "*3", "atom_type": "Cs"}, "17": {"label": "*2", "atom_type": "H0"}}

>  <type>  (12) 
unop_8

>  <geom_source>  (12) 
Heuristics

$$$$

     RDKit          3D

 20 18  0  0  0  0  0  0  0  0999 V2000
   -2.5922    0.0852    0.0917 C   0  0  0  0  0  0  0  0  0  0  0  0
   -1.5396   -0.4734    0.6695 C   0  0  0  0  0  0  0  0  0  0  0  0
   -0.4234    0.2394    1.3729 C   0  0  0  0  0  3  0  0  0  0  0  0
   -0.5321    1.7555    1.4147 C   0  0  0  0  0  0  0  0  0  0  0  0
   -3.3490   -0.5181   -0.3936 H   0  0  0  0  0  0  0  0  0  0  0  0
   -2.7420    1.1583    0.0785 H   0  0  0  0  0  0  0  0  0  0  0  0
   -1.4500   -1.5566    0.6466 H   0  0  0  0  0  0  0  0  0  0  0  0
   -0.3579   -0.1538    2.3934 H   0  0  0  0  0  0  0  0  0  0  0  0
   -1.4412    2.0734    1.9287 H   0  0  0  0  0  0  0  0  0  0  0  0
    0.3190    2.1863    1.9432 H   0  0  0  0  0  0  0  0  0  0  0  0
   -0.5507    2.1791    0.4086 H   0  0  0  0  0  0  0  0  0  0  0  0
    1.6855   -1.0239   -2.3760 C   0  0  0  0  0  0  0  0  0  0  0  0
    1.6855   -1.0239   -1.0523 C   0  0  0  0  0  0  0  0  0  0  0  0
    1.6855    0.1983   -0.1918 C   0  0  0  0  0  0  0  0  0  0  0  0
    1.6855   -1.9466   -2.9425 H   0  0  0  0  0  0  0  0  0  0  0  0
    1.6855   -0.0983   -2.9420 H   0  0  0  0  0  0  0  0  0  0  0  0
    1.6855   -1.9765   -0.5287 H   0  0  0  0  0  0  0  0  0  0  0  0
    0.6323    0.2188    0.5897 H   0  0  0  0  0  0  0  0  0  0  0  0
    1.6855    1.1088   -0.7924 H   0  0  0  0  0  0  0  0  0  0  0  0
    2.5632    0.2154    0.4595 H   0  0  0  0  0  0  0  0  0  0  0  0
  1  2  2  3
  1  5  1  0
  1  6  1  0
  2  3  1  0
  2  7  1  0
  3  4  1  0
  3  8  1  0
  4  9  1  0
  4 10  1  0
  4 11  1  0
 12 13  2  3
 12 15  1  0
 12 16  1  0
 13 14  1  0
 13 17  1  0
 14 18  1  0
 14 19  1  0
 14 20  1  0
M  RAD  1   3   2
M  END
>  <reaction>  (13) 
rxn_1000

>  <mol_properties>  (13) 
{"1": {"label": "*0", "atom_type": "Cd"}, "2": {"label": "*1", "atom_type": "Cs"}, "12": {"label": "*4", "atom_type": "Cd"}, "13": {"label": "*3", "atom_type": "Cs"}, "17": {"label": "*2", "atom_type": "H0"}}

>  <type>  (13) 
unop_9

>  <geom_source>  (13) 
Heuristics

$$$$

     RDKit          3D

 20 18  0  0  0  0  0  0  0  0999 V2000
   -1.5529   -1.1306    2.2463 C   0  0  0  0  0  0  0  0  0  0  0  0
   -0.5171   -0.5336    1.6767 C   0  0  0  0  0  0  0  0  0  0  0  0
   -0.5565    0.6891    0.8091 C   0  0  0  0  0  3  0  0  0  0  0  0
   -1.9349    1.2860    0.5735 C   0  0  0  0  0  0  0  0  0  0  0  0
   -1.4216   -2.0137    2.8586 H   0  0  0  0  0  0  0  0  0  0  0  0
   -2.5666   -0.7668    2.1267 H   0  0  0  0  0  0  0  0  0  0  0  0
    0.4740   -0.9505    1.8373 H   0  0  0  0  0  0  0  0  0  0  0  0
    0.1011    1.4438    1.2543 H   0  0  0  0  0  0  0  0  0  0  0  0
   -2.4014    1.5888    1.5130 H   0  0  0  0  0  0  0  0  0  0  0  0
   -1.8667    2.1673   -0.0652 H   0  0  0  0  0  0  0  0  0  0  0  0
   -2.5988    0.5697    0.0857 H   0  0  0  0  0  0  0  0  0  0  0  0
    1.5524   -0.5742   -2.9398 C   0  0  0  0  0  0  0  0  0  0  0  0
    1.5524   -0.5742   -1.6161 C   0  0  0  0  0  0  0  0  0  0  0  0
    1.5524    0.6479   -0.7556 C   0  0  0  0  0  0  0  0  0  0  0  0
    1.5524   -1.4970   -3.5063 H   0  0  0  0  0  0  0  0  0  0  0  0
    1.5524    0.3514   -3.5059 H   0  0  0  0  0  0  0  0  0  0  0  0
    1.5524   -1.5269   -1.0926 H   0  0  0  0  0  0  0  0  0  0  0  0
    0.4992    0.6685    0.0259 H   0  0  0  0  0  0  0  0  0  0  0  0
    1.5524    1.5584   -1.3562 H   0  0  0  0  0  0  0  0  0  0  0  0
    2.4301    0.6651   -0.1044 H   0  0  0  0  0  0  0  0  0  0  0  0
  1  2  2  3
  1  5  1  0
  1  6  1  0
  2  3  1  0
  2  7  1  0
  3  4  1  0
  3  8  1  0
  4  9  1  0
  4 10  1  0
  4 11  1  0
 12 13  2  3
 12 15  1  0
 12 16  1  0
 13 14  1  0
 13 17  1  0
 14 18  1  0
 14 19  1  0
 14 20  1  0
M  RAD  1   3   2
M  END
>  <reaction>  (14) 
rxn_1000

>  <mol_properties>  (14) 
{"1": {"label": "*0", "atom_type": "Cd"}, "2": {"label": "*1", "atom_type": "Cs"}, "12": {"label": "*4", "atom_type": "Cd"}, "13": {"label": "*3", "atom_type": "Cs"}, "17": {"label": "*2", "atom_type": "H0"}}

>  <type>  (14) 
unop_10

>  <geom_source>  (14) 
Heuristics

$$$$

     RDKit          3D

 20 18  0  0  0  0  0  0  0  0999 V2000
   -0.9994    2.1154    2.0179 C   0  0  0  0  0  0  0  0  0  0  0  0
   -1.3488    1.3902    0.9662 C   0  0  0  0  0  0  0  0  0  0  0  0
   -0.9872   -0.0423    0.7088 C   0  0  0  0  0  3  0  0  0  0  0  0
   -0.1334   -0.7087    1.7759 C   0  0  0  0  0  0  0  0  0  0  0  0
   -1.3118    3.1475    2.1135 H   0  0  0  0  0  0  0  0  0  0  0  0
   -0.3925    1.7135    2.8206 H   0  0  0  0  0  0  0  0  0  0  0  0
   -1.9593    1.8549    0.1960 H   0  0  0  0  0  0  0  0  0  0  0  0
   -1.9152   -0.6084    0.5723 H   0  0  0  0  0  0  0  0  0  0  0  0
   -0.6396   -0.7126    2.7431 H   0  0  0  0  0  0  0  0  0  0  0  0
    0.0791   -1.7437    1.5056 H   0  0  0  0  0  0  0  0  0  0  0  0
    0.8206   -0.1925    1.8994 H   0  0  0  0  0  0  0  0  0  0  0  0
    1.1217   -1.3057   -3.0401 C   0  0  0  0  0  0  0  0  0  0  0  0
    1.1217   -1.3057   -1.7164 C   0  0  0  0  0  0  0  0  0  0  0  0
    1.1217   -0.0835   -0.8559 C   0  0  0  0  0  0  0  0  0  0  0  0
    1.1217   -2.2284   -3.6066 H   0  0  0  0  0  0  0  0  0  0  0  0
    1.1217   -0.3801   -3.6061 H   0  0  0  0  0  0  0  0  0  0  0  0
    1.1217   -2.2583   -1.1929 H   0  0  0  0  0  0  0  0  0  0  0  0
    0.0684   -0.0629   -0.0744 H   0  0  0  0  0  0  0  0  0  0  0  0
    1.1217    0.8270   -1.4565 H   0  0  0  0  0  0  0  0  0  0  0  0
    1.9994   -0.0664   -0.2047 H   0  0  0  0  0  0  0  0  0  0  0  0
  1  2  2  3
  1  5  1  0
  1  6  1  0
  2  3  1  0
  2  7  1  0
  3  4  1  0
  3  8  1  0
  4  9  1  0
  4 10  1  0
  4 11  1  0
 12 13  2  3
 12 15  1  0
 12 16  1  0
 13 14  1  0
 13 17  1  0
 14 18  1  0
 14 19  1  0
 14 20  1  0
M  RAD  1   3   2
M  END
>  <reaction>  (15) 
rxn_1000

>  <mol_properties>  (15) 
{"1": {"label": "*0", "atom_type": "Cd"}, "2": {"label": "*1", "atom_type": "Cs"}, "12": {"label": "*4", "atom_type": "Cd"}, "13": {"label": "*3", "atom_type": "Cs"}, "17": {"label": "*2", "atom_type": "H0"}}

>  <type>  (15) 
unop_11

>  <geom_source>  (15) 
Heuristics

$$$$

     RDKit          3D

 20 18  0  0  0  0  0  0  0  0999 V2000
   -2.4632   -0.7706    0.6095 C   0  0  0  0  0  0  0  0  0  0  0  0
   -1.1916   -0.7288    0.9769 C   0  0  0  0  0  0  0  0  0  0  0  0
   -0.3815    0.5025    1.2540 C   0  0  0  0  0  3  0  0  0  0  0  0
   -1.1146    1.8245    1.0903 C   0  0  0  0  0  0  0  0  0  0  0  0
   -2.9628   -1.7145    0.4320 H   0  0  0  0  0  0  0  0  0  0  0  0
   -3.0542    0.1272    0.4716 H   0  0  0  0  0  0  0  0  0  0  0  0
   -0.6560   -1.6672    1.0975 H   0  0  0  0  0  0  0  0  0  0  0  0
    0.0177    0.4256    2.2713 H   0  0  0  0  0  0  0  0  0  0  0  0
   -1.9703    1.8892    1.7652 H   0  0  0  0  0  0  0  0  0  0  0  0
   -0.4506    2.6608    1.3113 H   0  0  0  0  0  0  0  0  0  0  0  0
   -1.4826    1.9498    0.0702 H   0  0  0  0  0  0  0  0  0  0  0  0
    1.7274   -0.7608   -2.4950 C   0  0  0  0  0  0  0  0  0  0  0  0
    1.7274   -0.7608   -1.1712 C   0  0  0  0  0  0  0  0  0  0  0  0
    1.7274    0.4614   -0.3107 C   0  0  0  0  0  0  0  0  0  0  0  0
    1.7274   -1.6835   -3.0614 H   0  0  0  0  0  0  0  0  0  0  0  0
    1.7274    0.1648   -3.0610 H   0  0  0  0  0  0  0  0  0  0  0  0
    1.7274   -1.7134   -0.6477 H   0  0  0  0  0  0  0  0  0  0  0  0
    0.6741    0.4819    0.4708 H   0  0  0  0  0  0  0  0  0  0  0  0
    1.7274    1.3718   -0.9113 H   0  0  0  0  0  0  0  0  0  0  0  0
    2.6051    0.4785    0.3405 H   0  0  0  0  0  0  0  0  0  0  0  0
  1  2  2  3
  1  5  1  0
  1  6  1  0
  2  3  1  0
  2  7  1  0
  3  4  1  0
  3  8  1  0
  4  9  1  0
  4 10  1  0
  4 11  1  0
 12 13  2  3
 12 15  1  0
 12 16  1  0
 13 14  1  0
 13 17  1  0
 14 18  1  0
 14 19  1  0
 14 20  1  0
M  RAD  1   3   2
M  END
>  <reaction>  (16) 
rxn_1000

>  <mol_properties>  (16) 
{"1": {"label": "*0", "atom_type": "Cd"}, "2": {"label": "*1", "atom_type": "Cs"}, "12": {"label": "*4", "atom_type": "Cd"}, "13": {"label": "*3", "atom_type": "Cs"}, "17": {"label": "*2", "atom_type": "H0"}}

>  <type>  (16) 
unop_12

>  <geom_source>  (16) 
Heuristics

$$$$

     RDKit          3D

 20 18  0  0  0  0  0  0  0  0999 V2000
   -1.5309   -1.8336    0.2038 C   0  0  0  0  0  0  0  0  0  0  0  0
    1.3095   -0.1932   -0.3334 C   0  0  0  0  0  0  0  0  0  0  0  0
   -1.1710   -0.3970    0.5547 C   0  0  0  0  0  0  0  0  0  0  0  0
    2.3259    0.6131    0.4117 C   0  0  0  0  0  0  0  0  0  0  0  0
   -2.2858    0.5365    0.1991 C   0  0  0  0  0  0  0  0  0  0  0  0
    3.5359    0.8455   -0.1017 C   0  0  0  0  0  3  0  0  0  0  0  0
   -2.1173    1.4681   -0.7395 C   0  0  0  0  0  0  0  0  0  0  0  0
   -0.6798   -2.4980    0.4605 H   0  0  0  0  0  0  0  0  0  0  0  0
   -1.7339   -1.9209   -0.8847 H   0  0  0  0  0  0  0  0  0  0  0  0
   -2.4264   -2.1592    0.7752 H   0  0  0  0  0  0  0  0  0  0  0  0
    0.1504   -0.2814    0.4173 H   0  0  0  0  0  0  0  0  0  0  0  0
    1.6979   -1.2172   -0.5178 H   0  0  0  0  0  0  0  0  0  0  0  0
    1.0744    0.2943   -1.3031 H   0  0  0  0  0  0  0  0  0  0  0  0
   -0.9464   -0.3141    1.6393 H   0  0  0  0  0  0  0  0  0  0  0  0
    2.0714    1.0150    1.3874 H   0  0  0  0  0  0  0  0  0  0  0  0
   -3.2427    0.4481    0.7054 H   0  0  0  0  0  0  0  0  0  0  0  0
   -1.1699    1.5700   -1.2606 H   0  0  0  0  0  0  0  0  0  0  0  0
   -2.9330    2.1374   -0.9930 H   0  0  0  0  0  0  0  0  0  0  0  0
    3.8133    0.4537   -1.0759 H   0  0  0  0  0  0  0  0  0  0  0  0
    4.2586    1.4329    0.4552 H   0  0  0  0  0  0  0  0  0  0  0  0
  1  3  1  0
  1  8  1  0
  1  9  1  0
  1 10  1  0
  2  4  2  3
  2 12  1  0
  2 13  1  0
  3  5  1  0
  3 11  1  0
  3 14  1  0
  4  6  1  0
  4 15  1  0
  5  7  2  3
  5 16  1  0
  6 19  1  0
  6 20  1  0
  7 17  1  0
  7 18  1  0
M  RAD  1   6   2
M  END
>  <reaction>  (17) 
rxn_1000

>  <mol_properties>  (17) 
{"1": {"label": "*0", "atom_type": "Cd"}, "2": {"label": "*1", "atom_type": "Cs"}, "12": {"label": "*4", "atom_type": "Cd"}, "13": {"label": "*3", "atom_type": "Cs"}, "17": {"label": "*2", "atom_type": "H0"}}

>  <type>  (17) 
unop_13

>  <geom_source>  (17) 
AutoTST

$$$$
