
     RDKit          3D

 10  9  0  0  0  0  0  0  0  0999 V2000
    1.8334    0.0847   -0.1062 C   0  0  0  0  0  0  0  0  0  0  0  0
    0.5993   -0.4071   -0.0750 C   0  0  0  0  0  0  0  0  0  0  0  0
   -0.5993    0.4071    0.0750 C   0  0  0  0  0  0  0  0  0  0  0  0
   -1.8334   -0.0847    0.1062 C   0  0  0  0  0  0  0  0  0  0  0  0
    2.0179    1.1498   -0.0189 H   0  0  0  0  0  0  0  0  0  0  0  0
    2.6972   -0.5572   -0.2194 H   0  0  0  0  0  0  0  0  0  0  0  0
    0.4465   -1.4793   -0.1649 H   0  0  0  0  0  0  0  0  0  0  0  0
   -0.4465    1.4793    0.1649 H   0  0  0  0  0  0  0  0  0  0  0  0
   -2.0179   -1.1498    0.0189 H   0  0  0  0  0  0  0  0  0  0  0  0
   -2.6972    0.5572    0.2194 H   0  0  0  0  0  0  0  0  0  0  0  0
  1  2  2  3
  1  5  1  0
  1  6  1  0
  2  3  1  0
  2  7  1  0
  3  4  2  3
  3  8  1  0
  4  9  1  0
  4 10  1  0
M  END
>  <reaction>  (1) 
rxn_1652

>  <mol_properties>  (1) 
{"2": {"label": "donator", "atom_type": "Cd"}, "7": {"label": "d_hydrogen", "atom_type": "H0"}}

>  <type>  (1) 
r1h

$$$$

     RDKit          3D

 11 10  0  0  0  0  0  0  0  0999 V2000
    2.0591    0.2533   -0.1061 C   0  0  0  0  0  0  0  0  0  0  0  0
    0.8045   -0.3111   -0.1535 C   0  0  0  0  0  0  0  0  0  0  0  0
   -0.3816    0.3942   -0.1885 C   0  0  0  0  0  3  0  0  0  0  0  0
   -1.7316   -0.2294   -0.2396 C   0  0  0  0  0  0  0  0  0  0  0  0
    2.9505   -0.3576   -0.0805 H   0  0  0  0  0  0  0  0  0  0  0  0
    2.1872    1.3290   -0.0933 H   0  0  0  0  0  0  0  0  0  0  0  0
    0.7385   -1.3970   -0.1643 H   0  0  0  0  0  0  0  0  0  0  0  0
   -0.3340    1.4795   -0.1783 H   0  0  0  0  0  0  0  0  0  0  0  0
   -1.6704   -1.3186   -0.2461 H   0  0  0  0  0  0  0  0  0  0  0  0
   -2.3404    0.0713    0.6191 H   0  0  0  0  0  0  0  0  0  0  0  0
   -2.2805    0.0851   -1.1331 H   0  0  0  0  0  0  0  0  0  0  0  0
  1  2  2  3
  1  5  1  0
  1  6  1  0
  2  3  1  0
  2  7  1  0
  3  4  1  0
  3  8  1  0
  4  9  1  0
  4 10  1  0
  4 11  1  0
M  RAD  1   3   2
M  END
>  <reaction>  (2) 
rxn_1652

>  <mol_properties>  (2) 
{"2": {"label": "acceptor", "atom_type": "Cs"}}

>  <type>  (2) 
r2

$$$$

     RDKit          3D

 12 11  0  0  0  0  0  0  0  0999 V2000
    1.9877    0.1011    0.4814 C   0  0  0  0  0  0  0  0  0  0  0  0
    0.8179    0.5502    0.0525 C   0  0  0  0  0  0  0  0  0  0  0  0
   -0.2939   -0.2692   -0.5320 C   0  0  0  0  0  0  0  0  0  0  0  0
   -0.0292   -1.7631   -0.6328 C   0  0  0  0  0  0  0  0  0  0  0  0
    2.2522   -0.9490    0.4436 H   0  0  0  0  0  0  0  0  0  0  0  0
    2.7295    0.7757    0.8896 H   0  0  0  0  0  0  0  0  0  0  0  0
    0.6162    1.6164    0.1190 H   0  0  0  0  0  0  0  0  0  0  0  0
   -0.5268    0.1319   -1.5245 H   0  0  0  0  0  0  0  0  0  0  0  0
   -1.1959   -0.0938    0.0644 H   0  0  0  0  0  0  0  0  0  0  0  0
    0.1590   -2.1992    0.3502 H   0  0  0  0  0  0  0  0  0  0  0  0
    0.8382   -1.9701   -1.2626 H   0  0  0  0  0  0  0  0  0  0  0  0
   -0.8879   -2.2759   -1.0672 H   0  0  0  0  0  0  0  0  0  0  0  0
  1  2  2  3
  1  5  1  0
  1  6  1  0
  2  3  1  0
  2  7  1  0
  3  4  1  0
  3  8  1  0
  3  9  1  0
  4 10  1  0
  4 11  1  0
  4 12  1  0
M  END
>  <reaction>  (3) 
rxn_1652

>  <mol_properties>  (3) 
{"2": {"label": "acceptor", "atom_type": "Cs"}, "11": {"label": "a_hydrogen", "atom_type": "H0"}}

>  <type>  (3) 
r2h

$$$$

     RDKit          3D

 21 19  0  0  0  0  0  0  0  0999 V2000
   -0.0093    1.4961   -2.4229 C   0  0  0  0  0  0  0  0  0  0  0  0
   -0.7236    1.4265   -1.3026 C   0  0  0  0  0  0  0  0  0  0  0  0
   -0.1897    1.4351    0.0717 C   0  0  0  0  0  0  0  0  0  0  0  0
    1.2833    1.7118    0.2598 C   0  0  0  0  0  0  0  0  0  0  0  0
   -0.4871    1.4590   -3.3934 H   0  0  0  0  0  0  0  0  0  0  0  0
    1.0689    1.6040   -2.4123 H   0  0  0  0  0  0  0  0  0  0  0  0
   -1.8025    1.3249   -1.3825 H   0  0  0  0  0  0  0  0  0  0  0  0
   -0.8171    2.0307    0.7385 H   0  0  0  0  0  0  0  0  0  0  0  0
    1.5522    2.7049   -0.1099 H   0  0  0  0  0  0  0  0  0  0  0  0
    1.5497    1.6576    1.3155 H   0  0  0  0  0  0  0  0  0  0  0  0
    1.8943    0.9797   -0.2723 H   0  0  0  0  0  0  0  0  0  0  0  0
    0.6049   -2.0562   -0.6889 C   0  0  0  0  0  0  0  0  0  0  0  0
    0.1353   -2.1096    0.5539 C   0  0  0  0  0  0  0  0  0  0  0  0
   -0.4611   -0.9955    1.2522 C   0  0  0  0  0  3  0  0  0  0  0  0
   -1.0312   -0.9150    2.4369 C   0  0  0  0  0  0  0  0  0  0  0  0
    0.5559   -1.1445   -1.2731 H   0  0  0  0  0  0  0  0  0  0  0  0
    1.0417   -2.9279   -1.1586 H   0  0  0  0  0  0  0  0  0  0  0  0
    0.1928   -3.0455    1.1106 H   0  0  0  0  0  0  0  0  0  0  0  0
   -0.3776    0.2980    0.5343 H   0  0  0  0  0  0  0  0  0  0  0  0
   -1.1359   -1.7887    3.0786 H   0  0  0  0  0  0  0  0  0  0  0  0
   -1.4221    0.0213    2.8198 H   0  0  0  0  0  0  0  0  0  0  0  0
  1  2  2  3
  1  5  1  0
  1  6  1  0
  2  3  1  0
  2  7  1  0
  3  4  1  0
  3  8  1  0
  3 19  1  0
  4  9  1  0
  4 10  1  0
  4 11  1  0
 12 13  2  3
 12 16  1  0
 12 17  1  0
 13 14  1  0
 13 18  1  0
 14 15  2  3
 15 20  1  0
 15 21  1  0
M  RAD  1  14   2
M  END
>  <reaction>  (4) 
rxn_1652

>  <mol_properties>  (4) 
{"1": {"label": "*0", "atom_type": "Cd"}, "2": {"label": "*1", "atom_type": "Cs"}, "12": {"label": "*4", "atom_type": "Cd"}, "13": {"label": "*3", "atom_type": "Cd"}, "18": {"label": "*2", "atom_type": "H0"}}

>  <type>  (4) 
ts

$$$$

     RDKit          3D

 21 19  0  0  0  0  0  0  0  0999 V2000
   -1.4990    2.8063   -0.5422 C   0  0  0  0  0  0  0  0  0  0  0  0
   -0.9549    1.7929    0.1143 C   0  0  0  0  0  0  0  0  0  0  0  0
    0.2796    1.0357   -0.2753 C   0  0  0  0  0  3  0  0  0  0  0  0
    0.9579    1.4950   -1.5562 C   0  0  0  0  0  0  0  0  0  0  0  0
   -2.3963    3.2904   -0.1782 H   0  0  0  0  0  0  0  0  0  0  0  0
   -1.0759    3.1921   -1.4622 H   0  0  0  0  0  0  0  0  0  0  0  0
   -1.4303    1.4548    1.0317 H   0  0  0  0  0  0  0  0  0  0  0  0
    0.9891    1.0896    0.5576 H   0  0  0  0  0  0  0  0  0  0  0  0
    1.2744    2.5375   -1.4851 H   0  0  0  0  0  0  0  0  0  0  0  0
    1.8424    0.8903   -1.7596 H   0  0  0  0  0  0  0  0  0  0  0  0
    0.2876    1.4064   -2.4133 H   0  0  0  0  0  0  0  0  0  0  0  0
    0.2796   -2.4487   -1.1264 C   0  0  0  0  0  0  0  0  0  0  0  0
    0.2796   -2.4487    0.2025 C   0  0  0  0  0  0  0  0  0  0  0  0
    0.2796   -1.2414    1.0178 C   0  0  0  0  0  0  0  0  0  0  0  0
    0.2796   -1.2414    2.3467 C   0  0  0  0  0  0  0  0  0  0  0  0
    0.2796   -1.5221   -1.6898 H   0  0  0  0  0  0  0  0  0  0  0  0
    0.2796   -3.3703   -1.6936 H   0  0  0  0  0  0  0  0  0  0  0  0
    0.2796   -3.3937    0.7391 H   0  0  0  0  0  0  0  0  0  0  0  0
    0.2796   -0.1075    0.3739 H   0  0  0  0  0  0  0  0  0  0  0  0
    0.2796   -2.1680    2.9101 H   0  0  0  0  0  0  0  0  0  0  0  0
    0.2796   -0.3198    2.9139 H   0  0  0  0  0  0  0  0  0  0  0  0
  1  2  2  3
  1  5  1  0
  1  6  1  0
  2  3  1  0
  2  7  1  0
  3  4  1  0
  3  8  1  0
  4  9  1  0
  4 10  1  0
  4 11  1  0
 12 13  2  3
 12 16  1  0
 12 17  1  0
 13 14  1  0
 13 18  1  0
 14 15  2  3
 14 19  1  0
 15 20  1  0
 15 21  1  0
M  RAD  1   3   2
M  END
>  <reaction>  (5) 
rxn_1652

>  <mol_properties>  (5) 
{"1": {"label": "*0", "atom_type": "Cd"}, "2": {"label": "*1", "atom_type": "Cs"}, "12": {"label": "*4", "atom_type": "Cd"}, "13": {"label": "*3", "atom_type": "Cd"}, "18": {"label": "*2", "atom_type": "H0"}}

>  <type>  (5) 
unop_1

>  <geom_source>  (5) 
Heuristics

$$$$

     RDKit          3D

 21 19  0  0  0  0  0  0  0  0999 V2000
   -0.4157    1.5994   -2.4281 C   0  0  0  0  0  0  0  0  0  0  0  0
   -0.7422    1.0701   -1.2589 C   0  0  0  0  0  0  0  0  0  0  0  0
   -0.0295    1.2744    0.0447 C   0  0  0  0  0  3  0  0  0  0  0  0
    1.1875    2.1846   -0.0049 C   0  0  0  0  0  0  0  0  0  0  0  0
   -0.9962    1.3905   -3.3177 H   0  0  0  0  0  0  0  0  0  0  0  0
    0.4370    2.2576   -2.5460 H   0  0  0  0  0  0  0  0  0  0  0  0
   -1.6103    0.4175   -1.2099 H   0  0  0  0  0  0  0  0  0  0  0  0
   -0.7520    1.6638    0.7703 H   0  0  0  0  0  0  0  0  0  0  0  0
    0.9186    3.1875   -0.3423 H   0  0  0  0  0  0  0  0  0  0  0  0
    1.6394    2.2742    0.9835 H   0  0  0  0  0  0  0  0  0  0  0  0
    1.9464    1.7945   -0.6859 H   0  0  0  0  0  0  0  0  0  0  0  0
   -0.0295   -2.2100   -0.8064 C   0  0  0  0  0  0  0  0  0  0  0  0
   -0.0295   -2.2100    0.5225 C   0  0  0  0  0  0  0  0  0  0  0  0
   -0.0295   -1.0027    1.3378 C   0  0  0  0  0  0  0  0  0  0  0  0
   -0.0295   -1.0027    2.6667 C   0  0  0  0  0  0  0  0  0  0  0  0
   -0.0295   -1.2834   -1.3698 H   0  0  0  0  0  0  0  0  0  0  0  0
   -0.0295   -3.1316   -1.3735 H   0  0  0  0  0  0  0  0  0  0  0  0
   -0.0295   -3.1550    1.0591 H   0  0  0  0  0  0  0  0  0  0  0  0
   -0.0295    0.1312    0.6939 H   0  0  0  0  0  0  0  0  0  0  0  0
   -0.0295   -1.9293    3.2302 H   0  0  0  0  0  0  0  0  0  0  0  0
   -0.0295   -0.0812    3.2339 H   0  0  0  0  0  0  0  0  0  0  0  0
  1  2  2  3
  1  5  1  0
  1  6  1  0
  2  3  1  0
  2  7  1  0
  3  4  1  0
  3  8  1  0
  4  9  1  0
  4 10  1  0
  4 11  1  0
 12 13  2  3
 12 16  1  0
 12 17  1  0
 13 14  1  0
 13 18  1  0
 14 15  2  3
 14 19  1  0
 15 20  1  0
 15 21  1  0
M  RAD  1   3   2
M  END
>  <reaction>  (6) 
rxn_1652

>  <mol_properties>  (6) 
{"1": {"label": "*0", "atom_type": "Cd"}, "2": {"label": "*1", "atom_type": "Cs"}, "12": {"label": "*4", "atom_type": "Cd"}, "13": {"label": "*3", "atom_type": "Cd"}, "18": {"label": "*2", "atom_type": "H0"}}

>  <type>  (6) 
unop_2

>  <geom_source>  (6) 
Heuristics

$$$$

     RDKit          3D

 21 19  0  0  0  0  0  0  0  0999 V2000
   -1.1264    3.0629    0.0257 C   0  0  0  0  0  0  0  0  0  0  0  0
   -0.4403    2.0171    0.4610 C   0  0  0  0  0  0  0  0  0  0  0  0
    0.2724    1.0022   -0.3823 C   0  0  0  0  0  3  0  0  0  0  0  0
    0.1850    1.2154   -1.8852 C   0  0  0  0  0  0  0  0  0  0  0  0
   -1.6082    3.7422    0.7174 H   0  0  0  0  0  0  0  0  0  0  0  0
   -1.2353    3.2834   -1.0296 H   0  0  0  0  0  0  0  0  0  0  0  0
   -0.3702    1.8533    1.5334 H   0  0  0  0  0  0  0  0  0  0  0  0
    1.3232    0.9804   -0.0734 H   0  0  0  0  0  0  0  0  0  0  0  0
    0.6135    2.1770   -2.1745 H   0  0  0  0  0  0  0  0  0  0  0  0
    0.7296    0.4335   -2.4155 H   0  0  0  0  0  0  0  0  0  0  0  0
   -0.8510    1.1937   -2.2289 H   0  0  0  0  0  0  0  0  0  0  0  0
    0.2724   -2.4823   -1.2334 C   0  0  0  0  0  0  0  0  0  0  0  0
    0.2724   -2.4823    0.0955 C   0  0  0  0  0  0  0  0  0  0  0  0
    0.2724   -1.2749    0.9108 C   0  0  0  0  0  0  0  0  0  0  0  0
    0.2724   -1.2749    2.2397 C   0  0  0  0  0  0  0  0  0  0  0  0
    0.2724   -1.5556   -1.7968 H   0  0  0  0  0  0  0  0  0  0  0  0
    0.2724   -3.4038   -1.8005 H   0  0  0  0  0  0  0  0  0  0  0  0
    0.2724   -3.4272    0.6321 H   0  0  0  0  0  0  0  0  0  0  0  0
    0.2724   -0.1410    0.2669 H   0  0  0  0  0  0  0  0  0  0  0  0
    0.2724   -2.2015    2.8032 H   0  0  0  0  0  0  0  0  0  0  0  0
    0.2724   -0.3534    2.8069 H   0  0  0  0  0  0  0  0  0  0  0  0
  1  2  2  3
  1  5  1  0
  1  6  1  0
  2  3  1  0
  2  7  1  0
  3  4  1  0
  3  8  1  0
  4  9  1  0
  4 10  1  0
  4 11  1  0
 12 13  2  3
 12 16  1  0
 12 17  1  0
 13 14  1  0
 13 18  1  0
 14 15  2  3
 14 19  1  0
 15 20  1  0
 15 21  1  0
M  RAD  1   3   2
M  END
>  <reaction>  (7) 
rxn_1652

>  <mol_properties>  (7) 
{"1": {"label": "*0", "atom_type": "Cd"}, "2": {"label": "*1", "atom_type": "Cs"}, "12": {"label": "*4", "atom_type": "Cd"}, "13": {"label": "*3", "atom_type": "Cd"}, "18": {"label": "*2", "atom_type": "H0"}}

>  <type>  (7) 
unop_3

>  <geom_source>  (7) 
Heuristics

$$$$

     RDKit          3D

 21 19  0  0  0  0  0  0  0  0999 V2000
    1.9307    1.8201   -0.9683 C   0  0  0  0  0  0  0  0  0  0  0  0
    0.7583    1.3081   -1.3110 C   0  0  0  0  0  0  0  0  0  0  0  0
   -0.4761    1.2548   -0.4611 C   0  0  0  0  0  3  0  0  0  0  0  0
   -0.3452    1.8547    0.9299 C   0  0  0  0  0  0  0  0  0  0  0  0
    2.7667    1.8112   -1.6561 H   0  0  0  0  0  0  0  0  0  0  0  0
    2.1042    2.2656    0.0041 H   0  0  0  0  0  0  0  0  0  0  0  0
    0.6516    0.8761   -2.3029 H   0  0  0  0  0  0  0  0  0  0  0  0
   -1.2852    1.7556   -1.0041 H   0  0  0  0  0  0  0  0  0  0  0  0
   -0.0786    2.9123    0.8818 H   0  0  0  0  0  0  0  0  0  0  0  0
   -1.2872    1.7718    1.4731 H   0  0  0  0  0  0  0  0  0  0  0  0
    0.4231    1.3418    1.5118 H   0  0  0  0  0  0  0  0  0  0  0  0
   -0.4761   -2.2296   -1.3122 C   0  0  0  0  0  0  0  0  0  0  0  0
   -0.4761   -2.2296    0.0167 C   0  0  0  0  0  0  0  0  0  0  0  0
   -0.4761   -1.0223    0.8320 C   0  0  0  0  0  0  0  0  0  0  0  0
   -0.4761   -1.0223    2.1609 C   0  0  0  0  0  0  0  0  0  0  0  0
   -0.4761   -1.3030   -1.8756 H   0  0  0  0  0  0  0  0  0  0  0  0
   -0.4761   -3.1511   -1.8793 H   0  0  0  0  0  0  0  0  0  0  0  0
   -0.4761   -3.1745    0.5533 H   0  0  0  0  0  0  0  0  0  0  0  0
   -0.4761    0.1116    0.1881 H   0  0  0  0  0  0  0  0  0  0  0  0
   -0.4761   -1.9489    2.7244 H   0  0  0  0  0  0  0  0  0  0  0  0
   -0.4761   -0.1007    2.7281 H   0  0  0  0  0  0  0  0  0  0  0  0
  1  2  2  3
  1  5  1  0
  1  6  1  0
  2  3  1  0
  2  7  1  0
  3  4  1  0
  3  8  1  0
  4  9  1  0
  4 10  1  0
  4 11  1  0
 12 13  2  3
 12 16  1  0
 12 17  1  0
 13 14  1  0
 13 18  1  0
 14 15  2  3
 14 19  1  0
 15 20  1  0
 15 21  1  0
M  RAD  1   3   2
M  END
>  <reaction>  (8) 
rxn_1652

>  <mol_properties>  (8) 
{"1": {"label": "*0", "atom_type": "Cd"}, "2": {"label": "*1", "atom_type": "Cs"}, "12": {"label": "*4", "atom_type": "Cd"}, "13": {"label": "*3", "atom_type": "Cd"}, "18": {"label": "*2", "atom_type": "H0"}}

>  <type>  (8) 
unop_4

>  <geom_source>  (8) 
Heuristics

$$$$

     RDKit          3D

 21 19  0  0  0  0  0  0  0  0999 V2000
   -0.6178    3.1011    0.5497 C   0  0  0  0  0  0  0  0  0  0  0  0
    0.2703    2.1236    0.4517 C   0  0  0  0  0  0  0  0  0  0  0  0
    0.2703    1.0144   -0.5577 C   0  0  0  0  0  3  0  0  0  0  0  0
   -0.8737    1.0344   -1.5591 C   0  0  0  0  0  0  0  0  0  0  0  0
   -0.5311    3.8598    1.3173 H   0  0  0  0  0  0  0  0  0  0  0  0
   -1.4611    3.1851   -0.1255 H   0  0  0  0  0  0  0  0  0  0  0  0
    1.0932    2.0979    1.1617 H   0  0  0  0  0  0  0  0  0  0  0  0
    1.2273    1.0389   -1.0904 H   0  0  0  0  0  0  0  0  0  0  0  0
   -0.8693    1.9541   -2.1473 H   0  0  0  0  0  0  0  0  0  0  0  0
   -0.7924    0.1950   -2.2505 H   0  0  0  0  0  0  0  0  0  0  0  0
   -1.8406    0.9624   -1.0574 H   0  0  0  0  0  0  0  0  0  0  0  0
    0.2703   -2.4700   -1.4087 C   0  0  0  0  0  0  0  0  0  0  0  0
    0.2703   -2.4700   -0.0798 C   0  0  0  0  0  0  0  0  0  0  0  0
    0.2703   -1.2627    0.7355 C   0  0  0  0  0  0  0  0  0  0  0  0
    0.2703   -1.2627    2.0643 C   0  0  0  0  0  0  0  0  0  0  0  0
    0.2703   -1.5434   -1.9722 H   0  0  0  0  0  0  0  0  0  0  0  0
    0.2703   -3.3915   -1.9759 H   0  0  0  0  0  0  0  0  0  0  0  0
    0.2703   -3.4149    0.4568 H   0  0  0  0  0  0  0  0  0  0  0  0
    0.2703   -0.1288    0.0915 H   0  0  0  0  0  0  0  0  0  0  0  0
    0.2703   -2.1893    2.6278 H   0  0  0  0  0  0  0  0  0  0  0  0
    0.2703   -0.3411    2.6315 H   0  0  0  0  0  0  0  0  0  0  0  0
  1  2  2  3
  1  5  1  0
  1  6  1  0
  2  3  1  0
  2  7  1  0
  3  4  1  0
  3  8  1  0
  4  9  1  0
  4 10  1  0
  4 11  1  0
 12 13  2  3
 12 16  1  0
 12 17  1  0
 13 14  1  0
 13 18  1  0
 14 15  2  3
 14 19  1  0
 15 20  1  0
 15 21  1  0
M  RAD  1   3   2
M  END
>  <reaction>  (9) 
rxn_1652

>  <mol_properties>  (9) 
{"1": {"label": "*0", "atom_type": "Cd"}, "2": {"label": "*1", "atom_type": "Cs"}, "12": {"label": "*4", "atom_type": "Cd"}, "13": {"label": "*3", "atom_type": "Cd"}, "18": {"label": "*2", "atom_type": "H0"}}

>  <type>  (9) 
unop_5

>  <geom_source>  (9) 
Heuristics

$$$$

     RDKit          3D

 21 19  0  0  0  0  0  0  0  0999 V2000
    1.8332    2.2383   -0.0589 C   0  0  0  0  0  0  0  0  0  0  0  0
    1.0529    1.5829   -0.9048 C   0  0  0  0  0  0  0  0  0  0  0  0
   -0.3726    1.1776   -0.6746 C   0  0  0  0  0  3  0  0  0  0  0  0
   -0.9600    1.5690    0.6721 C   0  0  0  0  0  0  0  0  0  0  0  0
    2.8545    2.4864   -0.3186 H   0  0  0  0  0  0  0  0  0  0  0  0
    1.4891    2.5521    0.9195 H   0  0  0  0  0  0  0  0  0  0  0  0
    1.4609    1.2972   -1.8711 H   0  0  0  0  0  0  0  0  0  0  0  0
   -0.9816    1.6024   -1.4801 H   0  0  0  0  0  0  0  0  0  0  0  0
   -0.9463    2.6519    0.8106 H   0  0  0  0  0  0  0  0  0  0  0  0
   -1.9952    1.2350    0.7503 H   0  0  0  0  0  0  0  0  0  0  0  0
   -0.4001    1.1192    1.4943 H   0  0  0  0  0  0  0  0  0  0  0  0
   -0.3726   -2.3068   -1.5257 C   0  0  0  0  0  0  0  0  0  0  0  0
   -0.3726   -2.3068   -0.1968 C   0  0  0  0  0  0  0  0  0  0  0  0
   -0.3726   -1.0995    0.6185 C   0  0  0  0  0  0  0  0  0  0  0  0
   -0.3726   -1.0995    1.9474 C   0  0  0  0  0  0  0  0  0  0  0  0
   -0.3726   -1.3802   -2.0891 H   0  0  0  0  0  0  0  0  0  0  0  0
   -0.3726   -3.2284   -2.0929 H   0  0  0  0  0  0  0  0  0  0  0  0
   -0.3726   -3.2517    0.3398 H   0  0  0  0  0  0  0  0  0  0  0  0
   -0.3726    0.0344   -0.0254 H   0  0  0  0  0  0  0  0  0  0  0  0
   -0.3726   -2.0261    2.5108 H   0  0  0  0  0  0  0  0  0  0  0  0
   -0.3726   -0.1779    2.5146 H   0  0  0  0  0  0  0  0  0  0  0  0
  1  2  2  3
  1  5  1  0
  1  6  1  0
  2  3  1  0
  2  7  1  0
  3  4  1  0
  3  8  1  0
  4  9  1  0
  4 10  1  0
  4 11  1  0
 12 13  2  3
 12 16  1  0
 12 17  1  0
 13 14  1  0
 13 18  1  0
 14 15  2  3
 14 19  1  0
 15 20  1  0
 15 21  1  0
M  RAD  1   3   2
M  END
>  <reaction>  (10) 
rxn_1652

>  <mol_properties>  (10) 
{"1": {"label": "*0", "atom_type": "Cd"}, "2": {"label": "*1", "atom_type": "Cs"}, "12": {"label": "*4", "atom_type": "Cd"}, "13": {"label": "*3", "atom_type": "Cd"}, "18": {"label": "*2", "atom_type": "H0"}}

>  <type>  (10) 
unop_6

>  <geom_source>  (10) 
Heuristics

$$$$

     RDKit          3D

 21 19  0  0  0  0  0  0  0  0999 V2000
    1.2210    2.6457    0.6509 C   0  0  0  0  0  0  0  0  0  0  0  0
    1.0765    1.8632   -0.4078 C   0  0  0  0  0  0  0  0  0  0  0  0
   -0.1579    1.1060   -0.7974 C   0  0  0  0  0  3  0  0  0  0  0  0
   -1.3511    1.2679    0.1310 C   0  0  0  0  0  0  0  0  0  0  0  0
    2.1573    3.1524    0.8476 H   0  0  0  0  0  0  0  0  0  0  0  0
    0.4184    2.8123    1.3596 H   0  0  0  0  0  0  0  0  0  0  0  0
    1.9222    1.7390   -1.0796 H   0  0  0  0  0  0  0  0  0  0  0  0
   -0.4368    1.4087   -1.8126 H   0  0  0  0  0  0  0  0  0  0  0  0
   -1.6656    2.3115    0.1937 H   0  0  0  0  0  0  0  0  0  0  0  0
   -2.1990    0.6843   -0.2293 H   0  0  0  0  0  0  0  0  0  0  0  0
   -1.1159    0.9278    1.1414 H   0  0  0  0  0  0  0  0  0  0  0  0
   -0.1579   -2.3785   -1.6484 C   0  0  0  0  0  0  0  0  0  0  0  0
   -0.1579   -2.3785   -0.3195 C   0  0  0  0  0  0  0  0  0  0  0  0
   -0.1579   -1.1711    0.4958 C   0  0  0  0  0  0  0  0  0  0  0  0
   -0.1579   -1.1711    1.8246 C   0  0  0  0  0  0  0  0  0  0  0  0
   -0.1579   -1.4518   -2.2119 H   0  0  0  0  0  0  0  0  0  0  0  0
   -0.1579   -3.3000   -2.2156 H   0  0  0  0  0  0  0  0  0  0  0  0
   -0.1579   -3.3234    0.2171 H   0  0  0  0  0  0  0  0  0  0  0  0
   -0.1579   -0.0372   -0.1482 H   0  0  0  0  0  0  0  0  0  0  0  0
   -0.1579   -2.0977    2.3881 H   0  0  0  0  0  0  0  0  0  0  0  0
   -0.1579   -0.2496    2.3918 H   0  0  0  0  0  0  0  0  0  0  0  0
  1  2  2  3
  1  5  1  0
  1  6  1  0
  2  3  1  0
  2  7  1  0
  3  4  1  0
  3  8  1  0
  4  9  1  0
  4 10  1  0
  4 11  1  0
 12 13  2  3
 12 16  1  0
 12 17  1  0
 13 14  1  0
 13 18  1  0
 14 15  2  3
 14 19  1  0
 15 20  1  0
 15 21  1  0
M  RAD  1   3   2
M  END
>  <reaction>  (11) 
rxn_1652

>  <mol_properties>  (11) 
{"1": {"label": "*0", "atom_type": "Cd"}, "2": {"label": "*1", "atom_type": "Cs"}, "12": {"label": "*4", "atom_type": "Cd"}, "13": {"label": "*3", "atom_type": "Cd"}, "18": {"label": "*2", "atom_type": "H0"}}

>  <type>  (11) 
unop_7

>  <geom_source>  (11) 
Heuristics

$$$$

     RDKit          3D

 21 19  0  0  0  0  0  0  0  0999 V2000
   -1.5933    2.4000   -1.2601 C   0  0  0  0  0  0  0  0  0  0  0  0
   -1.1579    1.5121   -0.3792 C   0  0  0  0  0  0  0  0  0  0  0  0
    0.2676    1.1069   -0.1491 C   0  0  0  0  0  3  0  0  0  0  0  0
    1.2993    1.7977   -1.0267 C   0  0  0  0  0  0  0  0  0  0  0  0
   -2.6482    2.6254   -1.3514 H   0  0  0  0  0  0  0  0  0  0  0  0
   -0.9217    2.9346   -1.9214 H   0  0  0  0  0  0  0  0  0  0  0  0
   -1.8854    1.0111    0.2544 H   0  0  0  0  0  0  0  0  0  0  0  0
    0.5050    1.2811    0.9062 H   0  0  0  0  0  0  0  0  0  0  0  0
    1.2839    2.8794   -0.8796 H   0  0  0  0  0  0  0  0  0  0  0  0
    2.3029    1.4424   -0.7904 H   0  0  0  0  0  0  0  0  0  0  0  0
    1.1150    1.6010   -2.0846 H   0  0  0  0  0  0  0  0  0  0  0  0
    0.2676   -2.3776   -1.0001 C   0  0  0  0  0  0  0  0  0  0  0  0
    0.2676   -2.3776    0.3288 C   0  0  0  0  0  0  0  0  0  0  0  0
    0.2676   -1.1702    1.1441 C   0  0  0  0  0  0  0  0  0  0  0  0
    0.2676   -1.1702    2.4730 C   0  0  0  0  0  0  0  0  0  0  0  0
    0.2676   -1.4510   -1.5636 H   0  0  0  0  0  0  0  0  0  0  0  0
    0.2676   -3.2991   -1.5673 H   0  0  0  0  0  0  0  0  0  0  0  0
    0.2676   -3.3225    0.8654 H   0  0  0  0  0  0  0  0  0  0  0  0
    0.2676   -0.0363    0.5001 H   0  0  0  0  0  0  0  0  0  0  0  0
    0.2676   -2.0968    3.0364 H   0  0  0  0  0  0  0  0  0  0  0  0
    0.2676   -0.2487    3.0401 H   0  0  0  0  0  0  0  0  0  0  0  0
  1  2  2  3
  1  5  1  0
  1  6  1  0
  2  3  1  0
  2  7  1  0
  3  4  1  0
  3  8  1  0
  4  9  1  0
  4 10  1  0
  4 11  1  0
 12 13  2  3
 12 16  1  0
 12 17  1  0
 13 14  1  0
 13 18  1  0
 14 15  2  3
 14 19  1  0
 15 20  1  0
 15 21  1  0
M  RAD  1   3   2
M  END
>  <reaction>  (12) 
rxn_1652

>  <mol_properties>  (12) 
{"1": {"label": "*0", "atom_type": "Cd"}, "2": {"label": "*1", "atom_type": "Cs"}, "12": {"label": "*4", "atom_type": "Cd"}, "13": {"label": "*3", "atom_type": "Cd"}, "18": {"label": "*2", "atom_type": "H0"}}

>  <type>  (12) 
unop_8

>  <geom_source>  (12) 
Heuristics

$$$$

     RDKit          3D

 21 19  0  0  0  0  0  0  0  0999 V2000
    1.4920    1.5185   -1.8269 C   0  0  0  0  0  0  0  0  0  0  0  0
    0.2713    1.1055   -1.5220 C   0  0  0  0  0  0  0  0  0  0  0  0
   -0.4414    1.3098   -0.2184 C   0  0  0  0  0  3  0  0  0  0  0  0
    0.3348    2.0701    0.8453 C   0  0  0  0  0  0  0  0  0  0  0  0
    1.9217    1.3209   -2.8008 H   0  0  0  0  0  0  0  0  0  0  0  0
    2.1087    2.0662   -1.1242 H   0  0  0  0  0  0  0  0  0  0  0  0
   -0.2943    0.5607   -2.2737 H   0  0  0  0  0  0  0  0  0  0  0  0
   -1.3864    1.8246   -0.4240 H   0  0  0  0  0  0  0  0  0  0  0  0
    0.5960    3.0736    0.5036 H   0  0  0  0  0  0  0  0  0  0  0  0
   -0.2588    2.1704    1.7546 H   0  0  0  0  0  0  0  0  0  0  0  0
    1.2607    1.5533    1.1053 H   0  0  0  0  0  0  0  0  0  0  0  0
   -0.4414   -2.1746   -1.0694 C   0  0  0  0  0  0  0  0  0  0  0  0
   -0.4414   -2.1746    0.2595 C   0  0  0  0  0  0  0  0  0  0  0  0
   -0.4414   -0.9673    1.0748 C   0  0  0  0  0  0  0  0  0  0  0  0
   -0.4414   -0.9673    2.4037 C   0  0  0  0  0  0  0  0  0  0  0  0
   -0.4414   -1.2480   -1.6328 H   0  0  0  0  0  0  0  0  0  0  0  0
   -0.4414   -3.0962   -1.6366 H   0  0  0  0  0  0  0  0  0  0  0  0
   -0.4414   -3.1196    0.7961 H   0  0  0  0  0  0  0  0  0  0  0  0
   -0.4414    0.1666    0.4308 H   0  0  0  0  0  0  0  0  0  0  0  0
   -0.4414   -1.8939    2.9671 H   0  0  0  0  0  0  0  0  0  0  0  0
   -0.4414   -0.0457    2.9708 H   0  0  0  0  0  0  0  0  0  0  0  0
  1  2  2  3
  1  5  1  0
  1  6  1  0
  2  3  1  0
  2  7  1  0
  3  4  1  0
  3  8  1  0
  4  9  1  0
  4 10  1  0
  4 11  1  0
 12 13  2  3
 12 16  1  0
 12 17  1  0
 13 14  1  0
 13 18  1  0
 14 15  2  3
 14 19  1  0
 15 20  1  0
 15 21  1  0
M  RAD  1   3   2
M  END
>  <reaction>  (13) 
rxn_1652

>  <mol_properties>  (13) 
{"1": {"label": "*0", "atom_type": "Cd"}, "2": {"label": "*1", "atom_type": "Cs"}, "12": {"label": "*4", "atom_type": "Cd"}, "13": {"label": "*3", "atom_type": "Cd"}, "18": {"label": "*2", "atom_type": "H0"}}

>  <type>  (13) 
unop_9

>  <geom_source>  (13) 
Heuristics

$$$$

     RDKit          3D

 21 19  0  0  0  0  0  0  0  0999 V2000
   -1.2303    1.9559   -1.9771 C   0  0  0  0  0  0  0  0  0  0  0  0
   -1.0648    1.2487   -0.8697 C   0  0  0  0  0  0  0  0  0  0  0  0
    0.1697    1.1954   -0.0197 C   0  0  0  0  0  3  0  0  0  0  0  0
    1.3357    2.0467   -0.4967 C   0  0  0  0  0  0  0  0  0  0  0  0
   -2.1646    1.9280   -2.5234 H   0  0  0  0  0  0  0  0  0  0  0  0
   -0.4477    2.5868   -2.3817 H   0  0  0  0  0  0  0  0  0  0  0  0
   -1.8909    0.6358   -0.5179 H   0  0  0  0  0  0  0  0  0  0  0  0
   -0.1062    1.4858    0.9999 H   0  0  0  0  0  0  0  0  0  0  0  0
    1.0641    3.1033   -0.5377 H   0  0  0  0  0  0  0  0  0  0  0  0
    2.1855    1.9459    0.1793 H   0  0  0  0  0  0  0  0  0  0  0  0
    1.6637    1.7464   -1.4938 H   0  0  0  0  0  0  0  0  0  0  0  0
    0.1697   -2.2890   -0.8708 C   0  0  0  0  0  0  0  0  0  0  0  0
    0.1697   -2.2890    0.4581 C   0  0  0  0  0  0  0  0  0  0  0  0
    0.1697   -1.0817    1.2734 C   0  0  0  0  0  0  0  0  0  0  0  0
    0.1697   -1.0817    2.6023 C   0  0  0  0  0  0  0  0  0  0  0  0
    0.1697   -1.3624   -1.4342 H   0  0  0  0  0  0  0  0  0  0  0  0
    0.1697   -3.2106   -1.4380 H   0  0  0  0  0  0  0  0  0  0  0  0
    0.1697   -3.2340    0.9947 H   0  0  0  0  0  0  0  0  0  0  0  0
    0.1697    0.0522    0.6294 H   0  0  0  0  0  0  0  0  0  0  0  0
    0.1697   -2.0083    3.1657 H   0  0  0  0  0  0  0  0  0  0  0  0
    0.1697   -0.1602    3.1695 H   0  0  0  0  0  0  0  0  0  0  0  0
  1  2  2  3
  1  5  1  0
  1  6  1  0
  2  3  1  0
  2  7  1  0
  3  4  1  0
  3  8  1  0
  4  9  1  0
  4 10  1  0
  4 11  1  0
 12 13  2  3
 12 16  1  0
 12 17  1  0
 13 14  1  0
 13 18  1  0
 14 15  2  3
 14 19  1  0
 15 20  1  0
 15 21  1  0
M  RAD  1   3   2
M  END
>  <reaction>  (14) 
rxn_1652

>  <mol_properties>  (14) 
{"1": {"label": "*0", "atom_type": "Cd"}, "2": {"label": "*1", "atom_type": "Cs"}, "12": {"label": "*4", "atom_type": "Cd"}, "13": {"label": "*3", "atom_type": "Cd"}, "18": {"label": "*2", "atom_type": "H0"}}

>  <type>  (14) 
unop_10

>  <geom_source>  (14) 
Heuristics

$$$$

     RDKit          3D

 21 19  0  0  0  0  0  0  0  0999 V2000
    0.2604    2.9453    0.8991 C   0  0  0  0  0  0  0  0  0  0  0  0
    0.8192    2.0685    0.0788 C   0  0  0  0  0  0  0  0  0  0  0  0
    0.1065    1.0536   -0.7645 C   0  0  0  0  0  3  0  0  0  0  0  0
   -1.4097    1.0492   -0.6501 C   0  0  0  0  0  0  0  0  0  0  0  0
    0.8636    3.6411    1.4683 H   0  0  0  0  0  0  0  0  0  0  0  0
   -0.8128    3.0053    1.0360 H   0  0  0  0  0  0  0  0  0  0  0  0
    1.9026    2.0613   -0.0121 H   0  0  0  0  0  0  0  0  0  0  0  0
    0.3971    1.2139   -1.8085 H   0  0  0  0  0  0  0  0  0  0  0  0
   -1.8321    2.0115   -0.9455 H   0  0  0  0  0  0  0  0  0  0  0  0
   -1.8404    0.2827   -1.2953 H   0  0  0  0  0  0  0  0  0  0  0  0
   -1.7291    0.8433    0.3734 H   0  0  0  0  0  0  0  0  0  0  0  0
    0.1065   -2.4308   -1.6155 C   0  0  0  0  0  0  0  0  0  0  0  0
    0.1065   -2.4308   -0.2866 C   0  0  0  0  0  0  0  0  0  0  0  0
    0.1065   -1.2235    0.5287 C   0  0  0  0  0  0  0  0  0  0  0  0
    0.1065   -1.2235    1.8576 C   0  0  0  0  0  0  0  0  0  0  0  0
    0.1065   -1.5042   -2.1790 H   0  0  0  0  0  0  0  0  0  0  0  0
    0.1065   -3.3523   -2.1827 H   0  0  0  0  0  0  0  0  0  0  0  0
    0.1065   -3.3757    0.2500 H   0  0  0  0  0  0  0  0  0  0  0  0
    0.1065   -0.0896   -0.1153 H   0  0  0  0  0  0  0  0  0  0  0  0
    0.1065   -2.1501    2.4210 H   0  0  0  0  0  0  0  0  0  0  0  0
    0.1065   -0.3019    2.4247 H   0  0  0  0  0  0  0  0  0  0  0  0
  1  2  2  3
  1  5  1  0
  1  6  1  0
  2  3  1  0
  2  7  1  0
  3  4  1  0
  3  8  1  0
  4  9  1  0
  4 10  1  0
  4 11  1  0
 12 13  2  3
 12 16  1  0
 12 17  1  0
 13 14  1  0
 13 18  1  0
 14 15  2  3
 14 19  1  0
 15 20  1  0
 15 21  1  0
M  RAD  1   3   2
M  END
>  <reaction>  (15) 
rxn_1652

>  <mol_properties>  (15) 
{"1": {"label": "*0", "atom_type": "Cd"}, "2": {"label": "*1", "atom_type": "Cs"}, "12": {"label": "*4", "atom_type": "Cd"}, "13": {"label": "*3", "atom_type": "Cd"}, "18": {"label": "*2", "atom_type": "H0"}}

>  <type>  (15) 
unop_11

>  <geom_source>  (15) 
Heuristics

$$$$

     RDKit          3D

 21 19  0  0  0  0  0  0  0  0999 V2000
    0.6178    1.4359   -2.3827 C   0  0  0  0  0  0  0  0  0  0  0  0
   -0.2703    1.0193   -1.4930 C   0  0  0  0  0  0  0  0  0  0  0  0
   -0.2703    1.3179   -0.0233 C   0  0  0  0  0  3  0  0  0  0  0  0
    0.8737    2.1881    0.4726 C   0  0  0  0  0  0  0  0  0  0  0  0
    0.5311    1.1653   -3.4274 H   0  0  0  0  0  0  0  0  0  0  0  0
    1.4611    2.0588   -2.1088 H   0  0  0  0  0  0  0  0  0  0  0  0
   -1.0932    0.3963   -1.8346 H   0  0  0  0  0  0  0  0  0  0  0  0
   -1.2273    1.7879    0.2286 H   0  0  0  0  0  0  0  0  0  0  0  0
    0.8693    3.1644   -0.0160 H   0  0  0  0  0  0  0  0  0  0  0  0
    0.7924    2.3519    1.5477 H   0  0  0  0  0  0  0  0  0  0  0  0
    1.8406    1.7204    0.2774 H   0  0  0  0  0  0  0  0  0  0  0  0
   -0.2703   -2.1665   -0.8743 C   0  0  0  0  0  0  0  0  0  0  0  0
   -0.2703   -2.1665    0.4546 C   0  0  0  0  0  0  0  0  0  0  0  0
   -0.2703   -0.9592    1.2698 C   0  0  0  0  0  0  0  0  0  0  0  0
   -0.2703   -0.9592    2.5987 C   0  0  0  0  0  0  0  0  0  0  0  0
   -0.2703   -1.2399   -1.4378 H   0  0  0  0  0  0  0  0  0  0  0  0
   -0.2703   -3.0881   -1.4415 H   0  0  0  0  0  0  0  0  0  0  0  0
   -0.2703   -3.1115    0.9912 H   0  0  0  0  0  0  0  0  0  0  0  0
   -0.2703    0.1747    0.6259 H   0  0  0  0  0  0  0  0  0  0  0  0
   -0.2703   -1.8858    3.1622 H   0  0  0  0  0  0  0  0  0  0  0  0
   -0.2703   -0.0377    3.1659 H   0  0  0  0  0  0  0  0  0  0  0  0
  1  2  2  3
  1  5  1  0
  1  6  1  0
  2  3  1  0
  2  7  1  0
  3  4  1  0
  3  8  1  0
  4  9  1  0
  4 10  1  0
  4 11  1  0
 12 13  2  3
 12 16  1  0
 12 17  1  0
 13 14  1  0
 13 18  1  0
 14 15  2  3
 14 19  1  0
 15 20  1  0
 15 21  1  0
M  RAD  1   3   2
M  END
>  <reaction>  (16) 
rxn_1652

>  <mol_properties>  (16) 
{"1": {"label": "*0", "atom_type": "Cd"}, "2": {"label": "*1", "atom_type": "Cs"}, "12": {"label": "*4", "atom_type": "Cd"}, "13": {"label": "*3", "atom_type": "Cd"}, "18": {"label": "*2", "atom_type": "H0"}}

>  <type>  (16) 
unop_12

>  <geom_source>  (16) 
Heuristics

$$$$

     RDKit          3D

 21 19  0  0  0  0  0  0  0  0999 V2000
    0.8350   -0.2995    0.0505 C   0  0  0  0  0  3  0  0  0  0  0  0
    1.7447   -1.2825   -0.6781 C   0  0  0  0  0  0  0  0  0  0  0  0
    1.4494    1.0698    0.1211 C   0  0  0  0  0  0  0  0  0  0  0  0
   -2.4156    0.3090    0.4356 C   0  0  0  0  0  0  0  0  0  0  0  0
    2.5031    1.3306    0.9003 C   0  0  0  0  0  0  0  0  0  0  0  0
   -2.0985    1.5132    0.8971 C   0  0  0  0  0  0  0  0  0  0  0  0
   -1.9595   -1.4806   -1.1655 C   0  0  0  0  0  0  0  0  0  0  0  0
   -1.6675   -0.2791   -0.6808 C   0  0  0  0  0  0  0  0  0  0  0  0
    0.6171   -0.6716    1.0751 H   0  0  0  0  0  0  0  0  0  0  0  0
   -0.4539   -0.2071   -0.6967 H   0  0  0  0  0  0  0  0  0  0  0  0
    1.9605   -0.9151   -1.7038 H   0  0  0  0  0  0  0  0  0  0  0  0
    2.6985   -1.4169   -0.1252 H   0  0  0  0  0  0  0  0  0  0  0  0
    1.2360   -2.2660   -0.7533 H   0  0  0  0  0  0  0  0  0  0  0  0
    1.0015    1.8740   -0.4542 H   0  0  0  0  0  0  0  0  0  0  0  0
   -3.2335   -0.2365    0.8918 H   0  0  0  0  0  0  0  0  0  0  0  0
    2.9590    0.5514    1.5036 H   0  0  0  0  0  0  0  0  0  0  0  0
    2.9137    2.3343    0.9400 H   0  0  0  0  0  0  0  0  0  0  0  0
   -2.6547    1.9409    1.7211 H   0  0  0  0  0  0  0  0  0  0  0  0
   -1.2861    2.0826    0.4617 H   0  0  0  0  0  0  0  0  0  0  0  0
   -2.7659   -2.0729   -0.7507 H   0  0  0  0  0  0  0  0  0  0  0  0
   -1.3832   -1.8780   -1.9896 H   0  0  0  0  0  0  0  0  0  0  0  0
  1  2  1  0
  1  3  1  0
  1  9  1  0
  2 11  1  0
  2 12  1  0
  2 13  1  0
  3  5  2  3
  3 14  1  0
  4  6  2  3
  4  8  1  0
  4 15  1  0
  5 16  1  0
  5 17  1  0
  6 18  1  0
  6 19  1  0
  7  8  2  3
  7 20  1  0
  7 21  1  0
  8 10  1  0
M  RAD  1   1   2
M  END
>  <reaction>  (17) 
rxn_1652

>  <mol_properties>  (17) 
{"1": {"label": "*0", "atom_type": "Cd"}, "2": {"label": "*1", "atom_type": "Cs"}, "12": {"label": "*4", "atom_type": "Cd"}, "13": {"label": "*3", "atom_type": "Cd"}, "18": {"label": "*2", "atom_type": "H0"}}

>  <type>  (17) 
unop_13

>  <geom_source>  (17) 
AutoTST

$$$$
