
     RDKit          3D

  9  8  0  0  0  0  0  0  0  0999 V2000
    1.1303   -0.2933   -0.7510 C   0  0  0  0  0  0  0  0  0  0  0  0
    0.2866    0.4560   -0.0588 C   0  0  0  0  0  0  0  0  0  0  0  0
   -0.9719   -0.0331    0.5823 C   0  0  0  0  0  0  0  0  0  0  0  0
    2.0274    0.1230   -1.1916 H   0  0  0  0  0  0  0  0  0  0  0  0
    0.9532   -1.3530   -0.9023 H   0  0  0  0  0  0  0  0  0  0  0  0
    0.5065    1.5132    0.0659 H   0  0  0  0  0  0  0  0  0  0  0  0
   -0.9526    0.1426    1.6610 H   0  0  0  0  0  0  0  0  0  0  0  0
   -1.1182   -1.1002    0.4106 H   0  0  0  0  0  0  0  0  0  0  0  0
   -1.8412    0.5010    0.1901 H   0  0  0  0  0  0  0  0  0  0  0  0
  1  2  2  3
  1  4  1  0
  1  5  1  0
  2  3  1  0
  2  6  1  0
  3  7  1  0
  3  8  1  0
  3  9  1  0
M  END
>  <reaction>  (1) 
rxn_1615

>  <mol_properties>  (1) 
{"1": {"label": "donator", "atom_type": "Cd"}, "5": {"label": "d_hydrogen", "atom_type": "H0"}}

>  <type>  (1) 
r1h

$$$$

     RDKit          3D

 12 11  0  0  0  0  0  0  0  0999 V2000
    2.5164   -0.5559   -0.0242 C   0  0  0  0  0  0  0  0  0  0  0  0
    1.3287   -0.2938   -0.0132 C   0  0  0  0  0  0  0  0  0  0  0  0
   -0.0146    0.0027   -0.0006 C   0  0  0  0  0  3  0  0  0  0  0  0
   -1.0396   -1.0729   -0.1642 C   0  0  0  0  0  0  0  0  0  0  0  0
   -0.4887    1.4091    0.1769 C   0  0  0  0  0  0  0  0  0  0  0  0
    3.5543   -0.7850   -0.0339 H   0  0  0  0  0  0  0  0  0  0  0  0
   -1.7064   -1.1056    0.7044 H   0  0  0  0  0  0  0  0  0  0  0  0
   -0.5831   -2.0533   -0.2854 H   0  0  0  0  0  0  0  0  0  0  0  0
   -1.6716   -0.8741   -1.0367 H   0  0  0  0  0  0  0  0  0  0  0  0
   -1.0951    1.7228   -0.6798 H   0  0  0  0  0  0  0  0  0  0  0  0
    0.3401    2.1059    0.2861 H   0  0  0  0  0  0  0  0  0  0  0  0
   -1.1300    1.4913    1.0613 H   0  0  0  0  0  0  0  0  0  0  0  0
  1  2  3  0
  1  6  1  0
  2  3  1  0
  3  4  1  0
  3  5  1  0
  4  7  1  0
  4  8  1  0
  4  9  1  0
  5 10  1  0
  5 11  1  0
  5 12  1  0
M  RAD  1   3   2
M  END
>  <reaction>  (2) 
rxn_1615

>  <mol_properties>  (2) 
{"2": {"label": "acceptor", "atom_type": "Cs"}}

>  <type>  (2) 
r2

$$$$

     RDKit          3D

 13 12  0  0  0  0  0  0  0  0999 V2000
    2.2975   -0.6134    0.7685 C   0  0  0  0  0  0  0  0  0  0  0  0
    1.1676   -0.5248    0.3802 C   0  0  0  0  0  0  0  0  0  0  0  0
   -0.2109   -0.3926   -0.0948 C   0  0  0  0  0  0  0  0  0  0  0  0
   -0.2501    0.2584   -1.4808 C   0  0  0  0  0  0  0  0  0  0  0  0
   -1.0633    0.3831    0.9141 C   0  0  0  0  0  0  0  0  0  0  0  0
    3.2999   -0.6974    1.1133 H   0  0  0  0  0  0  0  0  0  0  0  0
   -0.6209   -1.4038   -0.1814 H   0  0  0  0  0  0  0  0  0  0  0  0
    0.3402   -0.3102   -2.1992 H   0  0  0  0  0  0  0  0  0  0  0  0
    0.1511    1.2724   -1.4369 H   0  0  0  0  0  0  0  0  0  0  0  0
   -1.2791    0.3109   -1.8407 H   0  0  0  0  0  0  0  0  0  0  0  0
   -0.6861    1.4008    1.0287 H   0  0  0  0  0  0  0  0  0  0  0  0
   -1.0492   -0.0971    1.8924 H   0  0  0  0  0  0  0  0  0  0  0  0
   -2.0971    0.4363    0.5680 H   0  0  0  0  0  0  0  0  0  0  0  0
  1  2  3  0
  1  6  1  0
  2  3  1  0
  3  4  1  0
  3  5  1  0
  3  7  1  0
  4  8  1  0
  4  9  1  0
  4 10  1  0
  5 11  1  0
  5 12  1  0
  5 13  1  0
M  END
>  <reaction>  (3) 
rxn_1615

>  <mol_properties>  (3) 
{"2": {"label": "acceptor", "atom_type": "Cs"}, "12": {"label": "a_hydrogen", "atom_type": "H0"}}

>  <type>  (3) 
r2h

$$$$

     RDKit          3D

 21 19  0  0  0  0  0  0  0  0999 V2000
   -0.7329   -0.2691    2.6775 C   0  0  0  0  0  0  0  0  0  0  0  0
   -0.2467   -0.5659    1.6200 C   0  0  0  0  0  0  0  0  0  0  0  0
    0.3267   -0.8789    0.3342 C   0  0  0  0  0  0  0  0  0  0  0  0
   -0.4369   -1.9494   -0.4288 C   0  0  0  0  0  0  0  0  0  0  0  0
    1.8297   -1.1028    0.3758 C   0  0  0  0  0  0  0  0  0  0  0  0
   -1.1605   -0.0182    3.6181 H   0  0  0  0  0  0  0  0  0  0  0  0
   -0.0388   -2.0431   -1.4408 H   0  0  0  0  0  0  0  0  0  0  0  0
   -1.4961   -1.7020   -0.4974 H   0  0  0  0  0  0  0  0  0  0  0  0
   -0.3442   -2.9196    0.0664 H   0  0  0  0  0  0  0  0  0  0  0  0
    2.0708   -2.0176    0.9237 H   0  0  0  0  0  0  0  0  0  0  0  0
    2.3369   -0.2703    0.8633 H   0  0  0  0  0  0  0  0  0  0  0  0
    2.2218   -1.1988   -0.6383 H   0  0  0  0  0  0  0  0  0  0  0  0
    0.4851    1.2767   -2.3801 C   0  0  0  0  0  0  0  0  0  0  0  0
    0.0181    1.3652   -1.1575 C   0  0  0  0  0  3  0  0  0  0  0  0
   -0.6527    2.4403   -0.3992 C   0  0  0  0  0  0  0  0  0  0  0  0
    0.9547    0.3718   -2.7506 H   0  0  0  0  0  0  0  0  0  0  0  0
    0.4200    2.1127   -3.0762 H   0  0  0  0  0  0  0  0  0  0  0  0
    0.1769    0.1590   -0.3360 H   0  0  0  0  0  0  0  0  0  0  0  0
   -1.6391    2.1164   -0.0604 H   0  0  0  0  0  0  0  0  0  0  0  0
   -0.7715    3.3405   -1.0114 H   0  0  0  0  0  0  0  0  0  0  0  0
   -0.0791    2.6990    0.4934 H   0  0  0  0  0  0  0  0  0  0  0  0
  1  2  3  0
  1  6  1  0
  2  3  1  0
  3  4  1  0
  3  5  1  0
  3 18  1  0
  4  7  1  0
  4  8  1  0
  4  9  1  0
  5 10  1  0
  5 11  1  0
  5 12  1  0
 13 14  2  3
 13 16  1  0
 13 17  1  0
 14 15  1  0
 15 19  1  0
 15 20  1  0
 15 21  1  0
M  RAD  1  14   2
M  END
>  <reaction>  (4) 
rxn_1615

>  <mol_properties>  (4) 
{"1": {"label": "*0", "atom_type": "Ct"}, "2": {"label": "*1", "atom_type": "Cs"}, "12": {"label": "*4", "atom_type": "Cd"}, "13": {"label": "*3", "atom_type": "Cd"}, "17": {"label": "*2", "atom_type": "H0"}}

>  <type>  (4) 
ts

$$$$

     RDKit          3D

 21 19  0  0  0  0  0  0  0  0999 V2000
    2.0191   -1.0360    1.7148 C   0  0  0  0  0  0  0  0  0  0  0  0
    1.0378   -0.9931    1.0288 C   0  0  0  0  0  0  0  0  0  0  0  0
   -0.1737   -0.9515    0.2079 C   0  0  0  0  0  3  0  0  0  0  0  0
   -1.2644   -0.1179    0.8872 C   0  0  0  0  0  0  0  0  0  0  0  0
   -0.6653   -2.3668   -0.1107 C   0  0  0  0  0  0  0  0  0  0  0  0
    2.8900   -1.0742    2.3236 H   0  0  0  0  0  0  0  0  0  0  0  0
   -2.1452   -0.0594    0.2452 H   0  0  0  0  0  0  0  0  0  0  0  0
   -0.9160    0.8945    1.0912 H   0  0  0  0  0  0  0  0  0  0  0  0
   -1.5586   -0.5743    1.8339 H   0  0  0  0  0  0  0  0  0  0  0  0
   -0.9418   -2.8895    0.8066 H   0  0  0  0  0  0  0  0  0  0  0  0
    0.1076   -2.9478   -0.6137 H   0  0  0  0  0  0  0  0  0  0  0  0
   -1.5426   -2.3213   -0.7585 H   0  0  0  0  0  0  0  0  0  0  0  0
   -0.1737    1.3428   -2.3768 C   0  0  0  0  0  0  0  0  0  0  0  0
   -0.1737    1.3428   -1.0530 C   0  0  0  0  0  0  0  0  0  0  0  0
   -0.1737    2.5650   -0.1925 C   0  0  0  0  0  0  0  0  0  0  0  0
   -0.1737    0.4201   -2.9432 H   0  0  0  0  0  0  0  0  0  0  0  0
   -0.1737    2.2684   -2.9428 H   0  0  0  0  0  0  0  0  0  0  0  0
   -0.1737    0.1997   -0.4248 H   0  0  0  0  0  0  0  0  0  0  0  0
   -1.0514    2.5821    0.4587 H   0  0  0  0  0  0  0  0  0  0  0  0
   -0.1737    3.4755   -0.7931 H   0  0  0  0  0  0  0  0  0  0  0  0
    0.7040    2.5821    0.4587 H   0  0  0  0  0  0  0  0  0  0  0  0
  1  2  3  0
  1  6  1  0
  2  3  1  0
  3  4  1  0
  3  5  1  0
  4  7  1  0
  4  8  1  0
  4  9  1  0
  5 10  1  0
  5 11  1  0
  5 12  1  0
 13 14  2  3
 13 16  1  0
 13 17  1  0
 14 15  1  0
 14 18  1  0
 15 19  1  0
 15 20  1  0
 15 21  1  0
M  RAD  1   3   2
M  END
>  <reaction>  (5) 
rxn_1615

>  <mol_properties>  (5) 
{"1": {"label": "*0", "atom_type": "Ct"}, "2": {"label": "*1", "atom_type": "Cs"}, "12": {"label": "*4", "atom_type": "Cd"}, "13": {"label": "*3", "atom_type": "Cd"}, "17": {"label": "*2", "atom_type": "H0"}}

>  <type>  (5) 
unop_1

>  <geom_source>  (5) 
Heuristics

$$$$

     RDKit          3D

 21 19  0  0  0  0  0  0  0  0999 V2000
    1.0907   -2.4764   -0.9627 C   0  0  0  0  0  0  0  0  0  0  0  0
    0.5157   -1.6776   -0.2795 C   0  0  0  0  0  0  0  0  0  0  0  0
   -0.1837   -0.7157    0.5742 C   0  0  0  0  0  3  0  0  0  0  0  0
    0.7436   -0.1860    1.6723 C   0  0  0  0  0  0  0  0  0  0  0  0
   -1.4556   -1.3334    1.1632 C   0  0  0  0  0  0  0  0  0  0  0  0
    1.6009   -3.1854   -1.5690 H   0  0  0  0  0  0  0  0  0  0  0  0
    0.2229    0.5614    2.2736 H   0  0  0  0  0  0  0  0  0  0  0  0
    1.6362    0.2719    1.2462 H   0  0  0  0  0  0  0  0  0  0  0  0
    1.0581   -0.9983    2.3299 H   0  0  0  0  0  0  0  0  0  0  0  0
   -1.2060   -2.1795    1.8058 H   0  0  0  0  0  0  0  0  0  0  0  0
   -2.1212   -1.6884    0.3764 H   0  0  0  0  0  0  0  0  0  0  0  0
   -1.9890   -0.5926    1.7615 H   0  0  0  0  0  0  0  0  0  0  0  0
   -0.1837    1.5786   -2.0104 C   0  0  0  0  0  0  0  0  0  0  0  0
   -0.1837    1.5786   -0.6866 C   0  0  0  0  0  0  0  0  0  0  0  0
   -0.1837    2.8008    0.1739 C   0  0  0  0  0  0  0  0  0  0  0  0
   -0.1837    0.6559   -2.5769 H   0  0  0  0  0  0  0  0  0  0  0  0
   -0.1837    2.5042   -2.5764 H   0  0  0  0  0  0  0  0  0  0  0  0
   -0.1837    0.4355   -0.0584 H   0  0  0  0  0  0  0  0  0  0  0  0
   -1.0614    2.8179    0.8251 H   0  0  0  0  0  0  0  0  0  0  0  0
   -0.1837    3.7113   -0.4267 H   0  0  0  0  0  0  0  0  0  0  0  0
    0.6940    2.8179    0.8251 H   0  0  0  0  0  0  0  0  0  0  0  0
  1  2  3  0
  1  6  1  0
  2  3  1  0
  3  4  1  0
  3  5  1  0
  4  7  1  0
  4  8  1  0
  4  9  1  0
  5 10  1  0
  5 11  1  0
  5 12  1  0
 13 14  2  3
 13 16  1  0
 13 17  1  0
 14 15  1  0
 14 18  1  0
 15 19  1  0
 15 20  1  0
 15 21  1  0
M  RAD  1   3   2
M  END
>  <reaction>  (6) 
rxn_1615

>  <mol_properties>  (6) 
{"1": {"label": "*0", "atom_type": "Ct"}, "2": {"label": "*1", "atom_type": "Cs"}, "12": {"label": "*4", "atom_type": "Cd"}, "13": {"label": "*3", "atom_type": "Cd"}, "17": {"label": "*2", "atom_type": "H0"}}

>  <type>  (6) 
unop_2

>  <geom_source>  (6) 
Heuristics

$$$$

     RDKit          3D

 21 19  0  0  0  0  0  0  0  0999 V2000
    1.2054   -0.5918    2.4860 C   0  0  0  0  0  0  0  0  0  0  0  0
    0.6433   -0.7448    1.4391 C   0  0  0  0  0  0  0  0  0  0  0  0
   -0.0562   -0.9499    0.1694 C   0  0  0  0  0  3  0  0  0  0  0  0
   -1.5605   -0.7112    0.3308 C   0  0  0  0  0  0  0  0  0  0  0  0
    0.2338   -2.3445   -0.3939 C   0  0  0  0  0  0  0  0  0  0  0  0
    1.7043   -0.4559    3.4151 H   0  0  0  0  0  0  0  0  0  0  0  0
   -2.0629   -0.8248   -0.6315 H   0  0  0  0  0  0  0  0  0  0  0  0
   -1.7614    0.2903    0.7110 H   0  0  0  0  0  0  0  0  0  0  0  0
   -1.9880   -1.4328    1.0292 H   0  0  0  0  0  0  0  0  0  0  0  0
   -0.1407   -3.1142    0.2831 H   0  0  0  0  0  0  0  0  0  0  0  0
    1.3043   -2.5001   -0.5272 H   0  0  0  0  0  0  0  0  0  0  0  0
   -0.2582   -2.4675   -1.3604 H   0  0  0  0  0  0  0  0  0  0  0  0
   -0.0562    1.3445   -2.4152 C   0  0  0  0  0  0  0  0  0  0  0  0
   -0.0562    1.3445   -1.0915 C   0  0  0  0  0  0  0  0  0  0  0  0
   -0.0562    2.5666   -0.2309 C   0  0  0  0  0  0  0  0  0  0  0  0
   -0.0562    0.4217   -2.9817 H   0  0  0  0  0  0  0  0  0  0  0  0
   -0.0562    2.2700   -2.9812 H   0  0  0  0  0  0  0  0  0  0  0  0
   -0.0562    0.2013   -0.4632 H   0  0  0  0  0  0  0  0  0  0  0  0
   -0.9339    2.5837    0.4203 H   0  0  0  0  0  0  0  0  0  0  0  0
   -0.0562    3.4771   -0.8315 H   0  0  0  0  0  0  0  0  0  0  0  0
    0.8215    2.5837    0.4203 H   0  0  0  0  0  0  0  0  0  0  0  0
  1  2  3  0
  1  6  1  0
  2  3  1  0
  3  4  1  0
  3  5  1  0
  4  7  1  0
  4  8  1  0
  4  9  1  0
  5 10  1  0
  5 11  1  0
  5 12  1  0
 13 14  2  3
 13 16  1  0
 13 17  1  0
 14 15  1  0
 14 18  1  0
 15 19  1  0
 15 20  1  0
 15 21  1  0
M  RAD  1   3   2
M  END
>  <reaction>  (7) 
rxn_1615

>  <mol_properties>  (7) 
{"1": {"label": "*0", "atom_type": "Ct"}, "2": {"label": "*1", "atom_type": "Cs"}, "12": {"label": "*4", "atom_type": "Cd"}, "13": {"label": "*3", "atom_type": "Cd"}, "17": {"label": "*2", "atom_type": "H0"}}

>  <type>  (7) 
unop_3

>  <geom_source>  (7) 
Heuristics

$$$$

     RDKit          3D

 21 19  0  0  0  0  0  0  0  0999 V2000
   -1.9214   -2.1136   -0.2680 C   0  0  0  0  0  0  0  0  0  0  0  0
   -0.9292   -1.5198    0.0458 C   0  0  0  0  0  0  0  0  0  0  0  0
    0.2822   -0.8046    0.4508 C   0  0  0  0  0  3  0  0  0  0  0  0
    1.4118   -1.7863    0.7771 C   0  0  0  0  0  0  0  0  0  0  0  0
   -0.0053    0.1319    1.6283 C   0  0  0  0  0  0  0  0  0  0  0  0
   -2.8020   -2.6405   -0.5465 H   0  0  0  0  0  0  0  0  0  0  0  0
    2.3203   -1.2393    1.0351 H   0  0  0  0  0  0  0  0  0  0  0  0
    1.6266   -2.4350   -0.0719 H   0  0  0  0  0  0  0  0  0  0  0  0
    1.1365   -2.4154    1.6255 H   0  0  0  0  0  0  0  0  0  0  0  0
   -0.3224   -0.4406    2.5017 H   0  0  0  0  0  0  0  0  0  0  0  0
   -0.7945    0.8423    1.3823 H   0  0  0  0  0  0  0  0  0  0  0  0
    0.8950    0.6901    1.8912 H   0  0  0  0  0  0  0  0  0  0  0  0
    0.2822    1.4898   -2.1338 C   0  0  0  0  0  0  0  0  0  0  0  0
    0.2822    1.4898   -0.8101 C   0  0  0  0  0  0  0  0  0  0  0  0
    0.2822    2.7120    0.0505 C   0  0  0  0  0  0  0  0  0  0  0  0
    0.2822    0.5671   -2.7003 H   0  0  0  0  0  0  0  0  0  0  0  0
    0.2822    2.4154   -2.6998 H   0  0  0  0  0  0  0  0  0  0  0  0
    0.2822    0.3466   -0.1818 H   0  0  0  0  0  0  0  0  0  0  0  0
   -0.5955    2.7291    0.7017 H   0  0  0  0  0  0  0  0  0  0  0  0
    0.2822    3.6224   -0.5501 H   0  0  0  0  0  0  0  0  0  0  0  0
    1.1599    2.7291    0.7017 H   0  0  0  0  0  0  0  0  0  0  0  0
  1  2  3  0
  1  6  1  0
  2  3  1  0
  3  4  1  0
  3  5  1  0
  4  7  1  0
  4  8  1  0
  4  9  1  0
  5 10  1  0
  5 11  1  0
  5 12  1  0
 13 14  2  3
 13 16  1  0
 13 17  1  0
 14 15  1  0
 14 18  1  0
 15 19  1  0
 15 20  1  0
 15 21  1  0
M  RAD  1   3   2
M  END
>  <reaction>  (8) 
rxn_1615

>  <mol_properties>  (8) 
{"1": {"label": "*0", "atom_type": "Ct"}, "2": {"label": "*1", "atom_type": "Cs"}, "12": {"label": "*4", "atom_type": "Cd"}, "13": {"label": "*3", "atom_type": "Cd"}, "17": {"label": "*2", "atom_type": "H0"}}

>  <type>  (8) 
unop_4

>  <geom_source>  (8) 
Heuristics

$$$$

     RDKit          3D

 21 19  0  0  0  0  0  0  0  0999 V2000
   -0.0000   -0.4078    2.7838 C   0  0  0  0  0  0  0  0  0  0  0  0
   -0.0000   -0.6303    1.6065 C   0  0  0  0  0  0  0  0  0  0  0  0
   -0.0000   -0.9256    0.1726 C   0  0  0  0  0  3  0  0  0  0  0  0
   -1.2661   -1.6895   -0.2268 C   0  0  0  0  0  0  0  0  0  0  0  0
    1.2661   -1.6895   -0.2268 C   0  0  0  0  0  0  0  0  0  0  0  0
   -0.0000   -0.2104    3.8286 H   0  0  0  0  0  0  0  0  0  0  0  0
   -1.2735   -1.8646   -1.3041 H   0  0  0  0  0  0  0  0  0  0  0  0
   -2.1632   -1.1309    0.0400 H   0  0  0  0  0  0  0  0  0  0  0  0
   -1.3035   -2.6559    0.2789 H   0  0  0  0  0  0  0  0  0  0  0  0
    1.3035   -2.6559    0.2789 H   0  0  0  0  0  0  0  0  0  0  0  0
    2.1632   -1.1309    0.0400 H   0  0  0  0  0  0  0  0  0  0  0  0
    1.2735   -1.8646   -1.3041 H   0  0  0  0  0  0  0  0  0  0  0  0
    0.0000    1.3688   -2.4120 C   0  0  0  0  0  0  0  0  0  0  0  0
    0.0000    1.3688   -1.0882 C   0  0  0  0  0  0  0  0  0  0  0  0
    0.0000    2.5909   -0.2277 C   0  0  0  0  0  0  0  0  0  0  0  0
    0.0000    0.4460   -2.9785 H   0  0  0  0  0  0  0  0  0  0  0  0
    0.0000    2.2944   -2.9780 H   0  0  0  0  0  0  0  0  0  0  0  0
    0.0000    0.2256   -0.4600 H   0  0  0  0  0  0  0  0  0  0  0  0
   -0.8777    2.6080    0.4235 H   0  0  0  0  0  0  0  0  0  0  0  0
    0.0000    3.5014   -0.8283 H   0  0  0  0  0  0  0  0  0  0  0  0
    0.8777    2.6080    0.4235 H   0  0  0  0  0  0  0  0  0  0  0  0
  1  2  3  0
  1  6  1  0
  2  3  1  0
  3  4  1  0
  3  5  1  0
  4  7  1  0
  4  8  1  0
  4  9  1  0
  5 10  1  0
  5 11  1  0
  5 12  1  0
 13 14  2  3
 13 16  1  0
 13 17  1  0
 14 15  1  0
 14 18  1  0
 15 19  1  0
 15 20  1  0
 15 21  1  0
M  RAD  1   3   2
M  END
>  <reaction>  (9) 
rxn_1615

>  <mol_properties>  (9) 
{"1": {"label": "*0", "atom_type": "Ct"}, "2": {"label": "*1", "atom_type": "Cs"}, "12": {"label": "*4", "atom_type": "Cd"}, "13": {"label": "*3", "atom_type": "Cd"}, "17": {"label": "*2", "atom_type": "H0"}}

>  <type>  (9) 
unop_5

>  <geom_source>  (9) 
Heuristics

$$$$

     RDKit          3D

 21 19  0  0  0  0  0  0  0  0999 V2000
   -2.2685   -1.5908    0.7072 C   0  0  0  0  0  0  0  0  0  0  0  0
   -1.1284   -1.2743    0.5193 C   0  0  0  0  0  0  0  0  0  0  0  0
    0.2705   -0.8959    0.3114 C   0  0  0  0  0  3  0  0  0  0  0  0
    1.1783   -2.1294    0.3340 C   0  0  0  0  0  0  0  0  0  0  0  0
    0.7129    0.1458    1.3436 C   0  0  0  0  0  0  0  0  0  0  0  0
   -3.2804   -1.8718    0.8740 H   0  0  0  0  0  0  0  0  0  0  0  0
    2.2110   -1.8379    0.1347 H   0  0  0  0  0  0  0  0  0  0  0  0
    0.8719   -2.8570   -0.4174 H   0  0  0  0  0  0  0  0  0  0  0  0
    1.1399   -2.6127    1.3118 H   0  0  0  0  0  0  0  0  0  0  0  0
    0.6608   -0.2704    2.3511 H   0  0  0  0  0  0  0  0  0  0  0  0
    0.0768    1.0301    1.3074 H   0  0  0  0  0  0  0  0  0  0  0  0
    1.7429    0.4505    1.1501 H   0  0  0  0  0  0  0  0  0  0  0  0
    0.2705    1.3985   -2.2733 C   0  0  0  0  0  0  0  0  0  0  0  0
    0.2705    1.3985   -0.9495 C   0  0  0  0  0  0  0  0  0  0  0  0
    0.2705    2.6207   -0.0890 C   0  0  0  0  0  0  0  0  0  0  0  0
    0.2705    0.4758   -2.8397 H   0  0  0  0  0  0  0  0  0  0  0  0
    0.2705    2.3241   -2.8393 H   0  0  0  0  0  0  0  0  0  0  0  0
    0.2705    0.2553   -0.3213 H   0  0  0  0  0  0  0  0  0  0  0  0
   -0.6072    2.6378    0.5622 H   0  0  0  0  0  0  0  0  0  0  0  0
    0.2705    3.5311   -0.6896 H   0  0  0  0  0  0  0  0  0  0  0  0
    1.1482    2.6378    0.5622 H   0  0  0  0  0  0  0  0  0  0  0  0
  1  2  3  0
  1  6  1  0
  2  3  1  0
  3  4  1  0
  3  5  1  0
  4  7  1  0
  4  8  1  0
  4  9  1  0
  5 10  1  0
  5 11  1  0
  5 12  1  0
 13 14  2  3
 13 16  1  0
 13 17  1  0
 14 15  1  0
 14 18  1  0
 15 19  1  0
 15 20  1  0
 15 21  1  0
M  RAD  1   3   2
M  END
>  <reaction>  (10) 
rxn_1615

>  <mol_properties>  (10) 
{"1": {"label": "*0", "atom_type": "Ct"}, "2": {"label": "*1", "atom_type": "Cs"}, "12": {"label": "*4", "atom_type": "Cd"}, "13": {"label": "*3", "atom_type": "Cd"}, "17": {"label": "*2", "atom_type": "H0"}}

>  <type>  (10) 
unop_6

>  <geom_source>  (10) 
Heuristics

$$$$

     RDKit          3D

 21 19  0  0  0  0  0  0  0  0999 V2000
   -2.0191   -1.0360    1.7148 C   0  0  0  0  0  0  0  0  0  0  0  0
   -1.0378   -0.9931    1.0288 C   0  0  0  0  0  0  0  0  0  0  0  0
    0.1737   -0.9515    0.2079 C   0  0  0  0  0  3  0  0  0  0  0  0
    0.6653   -2.3668   -0.1107 C   0  0  0  0  0  0  0  0  0  0  0  0
    1.2644   -0.1179    0.8872 C   0  0  0  0  0  0  0  0  0  0  0  0
   -2.8900   -1.0742    2.3236 H   0  0  0  0  0  0  0  0  0  0  0  0
    1.5426   -2.3213   -0.7585 H   0  0  0  0  0  0  0  0  0  0  0  0
   -0.1076   -2.9478   -0.6137 H   0  0  0  0  0  0  0  0  0  0  0  0
    0.9418   -2.8895    0.8066 H   0  0  0  0  0  0  0  0  0  0  0  0
    1.5586   -0.5743    1.8339 H   0  0  0  0  0  0  0  0  0  0  0  0
    0.9160    0.8945    1.0912 H   0  0  0  0  0  0  0  0  0  0  0  0
    2.1452   -0.0594    0.2452 H   0  0  0  0  0  0  0  0  0  0  0  0
    0.1737    1.3428   -2.3768 C   0  0  0  0  0  0  0  0  0  0  0  0
    0.1737    1.3428   -1.0530 C   0  0  0  0  0  0  0  0  0  0  0  0
    0.1737    2.5650   -0.1925 C   0  0  0  0  0  0  0  0  0  0  0  0
    0.1737    0.4201   -2.9432 H   0  0  0  0  0  0  0  0  0  0  0  0
    0.1737    2.2684   -2.9428 H   0  0  0  0  0  0  0  0  0  0  0  0
    0.1737    0.1997   -0.4248 H   0  0  0  0  0  0  0  0  0  0  0  0
   -0.7040    2.5821    0.4587 H   0  0  0  0  0  0  0  0  0  0  0  0
    0.1737    3.4755   -0.7931 H   0  0  0  0  0  0  0  0  0  0  0  0
    1.0514    2.5821    0.4587 H   0  0  0  0  0  0  0  0  0  0  0  0
  1  2  3  0
  1  6  1  0
  2  3  1  0
  3  4  1  0
  3  5  1  0
  4  7  1  0
  4  8  1  0
  4  9  1  0
  5 10  1  0
  5 11  1  0
  5 12  1  0
 13 14  2  3
 13 16  1  0
 13 17  1  0
 14 15  1  0
 14 18  1  0
 15 19  1  0
 15 20  1  0
 15 21  1  0
M  RAD  1   3   2
M  END
>  <reaction>  (11) 
rxn_1615

>  <mol_properties>  (11) 
{"1": {"label": "*0", "atom_type": "Ct"}, "2": {"label": "*1", "atom_type": "Cs"}, "12": {"label": "*4", "atom_type": "Cd"}, "13": {"label": "*3", "atom_type": "Cd"}, "17": {"label": "*2", "atom_type": "H0"}}

>  <type>  (11) 
unop_7

>  <geom_source>  (11) 
Heuristics

$$$$

     RDKit          3D

 21 19  0  0  0  0  0  0  0  0999 V2000
    2.2685   -1.5908    0.7072 C   0  0  0  0  0  0  0  0  0  0  0  0
    1.1284   -1.2743    0.5193 C   0  0  0  0  0  0  0  0  0  0  0  0
   -0.2705   -0.8959    0.3114 C   0  0  0  0  0  3  0  0  0  0  0  0
   -0.7129    0.1458    1.3436 C   0  0  0  0  0  0  0  0  0  0  0  0
   -1.1783   -2.1294    0.3340 C   0  0  0  0  0  0  0  0  0  0  0  0
    3.2804   -1.8718    0.8740 H   0  0  0  0  0  0  0  0  0  0  0  0
   -1.7429    0.4505    1.1501 H   0  0  0  0  0  0  0  0  0  0  0  0
   -0.0768    1.0301    1.3074 H   0  0  0  0  0  0  0  0  0  0  0  0
   -0.6608   -0.2704    2.3511 H   0  0  0  0  0  0  0  0  0  0  0  0
   -1.1399   -2.6127    1.3118 H   0  0  0  0  0  0  0  0  0  0  0  0
   -0.8719   -2.8570   -0.4174 H   0  0  0  0  0  0  0  0  0  0  0  0
   -2.2110   -1.8379    0.1347 H   0  0  0  0  0  0  0  0  0  0  0  0
   -0.2705    1.3985   -2.2733 C   0  0  0  0  0  0  0  0  0  0  0  0
   -0.2705    1.3985   -0.9495 C   0  0  0  0  0  0  0  0  0  0  0  0
   -0.2705    2.6207   -0.0890 C   0  0  0  0  0  0  0  0  0  0  0  0
   -0.2705    0.4758   -2.8397 H   0  0  0  0  0  0  0  0  0  0  0  0
   -0.2705    2.3241   -2.8393 H   0  0  0  0  0  0  0  0  0  0  0  0
   -0.2705    0.2553   -0.3213 H   0  0  0  0  0  0  0  0  0  0  0  0
   -1.1482    2.6378    0.5622 H   0  0  0  0  0  0  0  0  0  0  0  0
   -0.2705    3.5311   -0.6896 H   0  0  0  0  0  0  0  0  0  0  0  0
    0.6072    2.6378    0.5622 H   0  0  0  0  0  0  0  0  0  0  0  0
  1  2  3  0
  1  6  1  0
  2  3  1  0
  3  4  1  0
  3  5  1  0
  4  7  1  0
  4  8  1  0
  4  9  1  0
  5 10  1  0
  5 11  1  0
  5 12  1  0
 13 14  2  3
 13 16  1  0
 13 17  1  0
 14 15  1  0
 14 18  1  0
 15 19  1  0
 15 20  1  0
 15 21  1  0
M  RAD  1   3   2
M  END
>  <reaction>  (12) 
rxn_1615

>  <mol_properties>  (12) 
{"1": {"label": "*0", "atom_type": "Ct"}, "2": {"label": "*1", "atom_type": "Cs"}, "12": {"label": "*4", "atom_type": "Cd"}, "13": {"label": "*3", "atom_type": "Cd"}, "17": {"label": "*2", "atom_type": "H0"}}

>  <type>  (12) 
unop_8

>  <geom_source>  (12) 
Heuristics

$$$$

     RDKit          3D

 21 19  0  0  0  0  0  0  0  0999 V2000
   -1.0907   -2.4764   -0.9627 C   0  0  0  0  0  0  0  0  0  0  0  0
   -0.5157   -1.6776   -0.2795 C   0  0  0  0  0  0  0  0  0  0  0  0
    0.1837   -0.7157    0.5742 C   0  0  0  0  0  3  0  0  0  0  0  0
    1.4556   -1.3334    1.1632 C   0  0  0  0  0  0  0  0  0  0  0  0
   -0.7436   -0.1860    1.6723 C   0  0  0  0  0  0  0  0  0  0  0  0
   -1.6009   -3.1854   -1.5690 H   0  0  0  0  0  0  0  0  0  0  0  0
    1.9890   -0.5926    1.7615 H   0  0  0  0  0  0  0  0  0  0  0  0
    2.1212   -1.6884    0.3764 H   0  0  0  0  0  0  0  0  0  0  0  0
    1.2060   -2.1795    1.8058 H   0  0  0  0  0  0  0  0  0  0  0  0
   -1.0581   -0.9983    2.3299 H   0  0  0  0  0  0  0  0  0  0  0  0
   -1.6362    0.2719    1.2462 H   0  0  0  0  0  0  0  0  0  0  0  0
   -0.2229    0.5614    2.2736 H   0  0  0  0  0  0  0  0  0  0  0  0
    0.1837    1.5786   -2.0104 C   0  0  0  0  0  0  0  0  0  0  0  0
    0.1837    1.5786   -0.6866 C   0  0  0  0  0  0  0  0  0  0  0  0
    0.1837    2.8008    0.1739 C   0  0  0  0  0  0  0  0  0  0  0  0
    0.1837    0.6559   -2.5769 H   0  0  0  0  0  0  0  0  0  0  0  0
    0.1837    2.5042   -2.5764 H   0  0  0  0  0  0  0  0  0  0  0  0
    0.1837    0.4355   -0.0584 H   0  0  0  0  0  0  0  0  0  0  0  0
   -0.6940    2.8179    0.8251 H   0  0  0  0  0  0  0  0  0  0  0  0
    0.1837    3.7113   -0.4267 H   0  0  0  0  0  0  0  0  0  0  0  0
    1.0614    2.8179    0.8251 H   0  0  0  0  0  0  0  0  0  0  0  0
  1  2  3  0
  1  6  1  0
  2  3  1  0
  3  4  1  0
  3  5  1  0
  4  7  1  0
  4  8  1  0
  4  9  1  0
  5 10  1  0
  5 11  1  0
  5 12  1  0
 13 14  2  3
 13 16  1  0
 13 17  1  0
 14 15  1  0
 14 18  1  0
 15 19  1  0
 15 20  1  0
 15 21  1  0
M  RAD  1   3   2
M  END
>  <reaction>  (13) 
rxn_1615

>  <mol_properties>  (13) 
{"1": {"label": "*0", "atom_type": "Ct"}, "2": {"label": "*1", "atom_type": "Cs"}, "12": {"label": "*4", "atom_type": "Cd"}, "13": {"label": "*3", "atom_type": "Cd"}, "17": {"label": "*2", "atom_type": "H0"}}

>  <type>  (13) 
unop_9

>  <geom_source>  (13) 
Heuristics

$$$$

     RDKit          3D

 21 19  0  0  0  0  0  0  0  0999 V2000
    1.9214   -2.1136   -0.2680 C   0  0  0  0  0  0  0  0  0  0  0  0
    0.9292   -1.5198    0.0458 C   0  0  0  0  0  0  0  0  0  0  0  0
   -0.2822   -0.8046    0.4508 C   0  0  0  0  0  3  0  0  0  0  0  0
    0.0053    0.1319    1.6283 C   0  0  0  0  0  0  0  0  0  0  0  0
   -1.4118   -1.7863    0.7771 C   0  0  0  0  0  0  0  0  0  0  0  0
    2.8020   -2.6405   -0.5465 H   0  0  0  0  0  0  0  0  0  0  0  0
   -0.8950    0.6901    1.8912 H   0  0  0  0  0  0  0  0  0  0  0  0
    0.7945    0.8423    1.3823 H   0  0  0  0  0  0  0  0  0  0  0  0
    0.3224   -0.4406    2.5017 H   0  0  0  0  0  0  0  0  0  0  0  0
   -1.1365   -2.4154    1.6255 H   0  0  0  0  0  0  0  0  0  0  0  0
   -1.6266   -2.4350   -0.0719 H   0  0  0  0  0  0  0  0  0  0  0  0
   -2.3203   -1.2392    1.0351 H   0  0  0  0  0  0  0  0  0  0  0  0
   -0.2822    1.4898   -2.1338 C   0  0  0  0  0  0  0  0  0  0  0  0
   -0.2822    1.4898   -0.8101 C   0  0  0  0  0  0  0  0  0  0  0  0
   -0.2822    2.7120    0.0505 C   0  0  0  0  0  0  0  0  0  0  0  0
   -0.2822    0.5671   -2.7003 H   0  0  0  0  0  0  0  0  0  0  0  0
   -0.2822    2.4154   -2.6998 H   0  0  0  0  0  0  0  0  0  0  0  0
   -0.2822    0.3466   -0.1818 H   0  0  0  0  0  0  0  0  0  0  0  0
   -1.1599    2.7291    0.7017 H   0  0  0  0  0  0  0  0  0  0  0  0
   -0.2822    3.6224   -0.5501 H   0  0  0  0  0  0  0  0  0  0  0  0
    0.5955    2.7291    0.7017 H   0  0  0  0  0  0  0  0  0  0  0  0
  1  2  3  0
  1  6  1  0
  2  3  1  0
  3  4  1  0
  3  5  1  0
  4  7  1  0
  4  8  1  0
  4  9  1  0
  5 10  1  0
  5 11  1  0
  5 12  1  0
 13 14  2  3
 13 16  1  0
 13 17  1  0
 14 15  1  0
 14 18  1  0
 15 19  1  0
 15 20  1  0
 15 21  1  0
M  RAD  1   3   2
M  END
>  <reaction>  (14) 
rxn_1615

>  <mol_properties>  (14) 
{"1": {"label": "*0", "atom_type": "Ct"}, "2": {"label": "*1", "atom_type": "Cs"}, "12": {"label": "*4", "atom_type": "Cd"}, "13": {"label": "*3", "atom_type": "Cd"}, "17": {"label": "*2", "atom_type": "H0"}}

>  <type>  (14) 
unop_10

>  <geom_source>  (14) 
Heuristics

$$$$

     RDKit          3D

 21 19  0  0  0  0  0  0  0  0999 V2000
   -1.2054   -0.5918    2.4860 C   0  0  0  0  0  0  0  0  0  0  0  0
   -0.6433   -0.7448    1.4391 C   0  0  0  0  0  0  0  0  0  0  0  0
    0.0562   -0.9499    0.1694 C   0  0  0  0  0  3  0  0  0  0  0  0
   -0.2338   -2.3445   -0.3939 C   0  0  0  0  0  0  0  0  0  0  0  0
    1.5605   -0.7112    0.3308 C   0  0  0  0  0  0  0  0  0  0  0  0
   -1.7043   -0.4559    3.4151 H   0  0  0  0  0  0  0  0  0  0  0  0
    0.2582   -2.4675   -1.3604 H   0  0  0  0  0  0  0  0  0  0  0  0
   -1.3043   -2.5001   -0.5272 H   0  0  0  0  0  0  0  0  0  0  0  0
    0.1407   -3.1142    0.2831 H   0  0  0  0  0  0  0  0  0  0  0  0
    1.9880   -1.4328    1.0292 H   0  0  0  0  0  0  0  0  0  0  0  0
    1.7614    0.2903    0.7110 H   0  0  0  0  0  0  0  0  0  0  0  0
    2.0629   -0.8248   -0.6315 H   0  0  0  0  0  0  0  0  0  0  0  0
    0.0562    1.3445   -2.4152 C   0  0  0  0  0  0  0  0  0  0  0  0
    0.0562    1.3445   -1.0915 C   0  0  0  0  0  0  0  0  0  0  0  0
    0.0562    2.5666   -0.2309 C   0  0  0  0  0  0  0  0  0  0  0  0
    0.0562    0.4217   -2.9817 H   0  0  0  0  0  0  0  0  0  0  0  0
    0.0562    2.2700   -2.9812 H   0  0  0  0  0  0  0  0  0  0  0  0
    0.0562    0.2013   -0.4632 H   0  0  0  0  0  0  0  0  0  0  0  0
   -0.8215    2.5837    0.4203 H   0  0  0  0  0  0  0  0  0  0  0  0
    0.0562    3.4771   -0.8315 H   0  0  0  0  0  0  0  0  0  0  0  0
    0.9339    2.5837    0.4203 H   0  0  0  0  0  0  0  0  0  0  0  0
  1  2  3  0
  1  6  1  0
  2  3  1  0
  3  4  1  0
  3  5  1  0
  4  7  1  0
  4  8  1  0
  4  9  1  0
  5 10  1  0
  5 11  1  0
  5 12  1  0
 13 14  2  3
 13 16  1  0
 13 17  1  0
 14 15  1  0
 14 18  1  0
 15 19  1  0
 15 20  1  0
 15 21  1  0
M  RAD  1   3   2
M  END
>  <reaction>  (15) 
rxn_1615

>  <mol_properties>  (15) 
{"1": {"label": "*0", "atom_type": "Ct"}, "2": {"label": "*1", "atom_type": "Cs"}, "12": {"label": "*4", "atom_type": "Cd"}, "13": {"label": "*3", "atom_type": "Cd"}, "17": {"label": "*2", "atom_type": "H0"}}

>  <type>  (15) 
unop_11

>  <geom_source>  (15) 
Heuristics

$$$$

     RDKit          3D

 21 19  0  0  0  0  0  0  0  0999 V2000
   -0.0000   -2.6038   -1.2122 C   0  0  0  0  0  0  0  0  0  0  0  0
   -0.0000   -1.7293   -0.3933 C   0  0  0  0  0  0  0  0  0  0  0  0
   -0.0000   -0.6772    0.6247 C   0  0  0  0  0  3  0  0  0  0  0  0
    1.2661   -0.7495    1.4837 C   0  0  0  0  0  0  0  0  0  0  0  0
   -1.2661   -0.7495    1.4837 C   0  0  0  0  0  0  0  0  0  0  0  0
   -0.0000   -3.3800   -1.9390 H   0  0  0  0  0  0  0  0  0  0  0  0
    1.2735    0.0660    2.2090 H   0  0  0  0  0  0  0  0  0  0  0  0
    2.1632   -0.6753    0.8691 H   0  0  0  0  0  0  0  0  0  0  0  0
    1.3035   -1.6945    2.0283 H   0  0  0  0  0  0  0  0  0  0  0  0
   -1.3035   -1.6945    2.0283 H   0  0  0  0  0  0  0  0  0  0  0  0
   -2.1632   -0.6753    0.8691 H   0  0  0  0  0  0  0  0  0  0  0  0
   -1.2735    0.0660    2.2090 H   0  0  0  0  0  0  0  0  0  0  0  0
    0.0000    1.6172   -1.9599 C   0  0  0  0  0  0  0  0  0  0  0  0
    0.0000    1.6172   -0.6362 C   0  0  0  0  0  0  0  0  0  0  0  0
    0.0000    2.8394    0.2243 C   0  0  0  0  0  0  0  0  0  0  0  0
    0.0000    0.6945   -2.5264 H   0  0  0  0  0  0  0  0  0  0  0  0
    0.0000    2.5428   -2.5259 H   0  0  0  0  0  0  0  0  0  0  0  0
    0.0000    0.4740   -0.0080 H   0  0  0  0  0  0  0  0  0  0  0  0
   -0.8777    2.8565    0.8755 H   0  0  0  0  0  0  0  0  0  0  0  0
    0.0000    3.7498   -0.3763 H   0  0  0  0  0  0  0  0  0  0  0  0
    0.8777    2.8565    0.8755 H   0  0  0  0  0  0  0  0  0  0  0  0
  1  2  3  0
  1  6  1  0
  2  3  1  0
  3  4  1  0
  3  5  1  0
  4  7  1  0
  4  8  1  0
  4  9  1  0
  5 10  1  0
  5 11  1  0
  5 12  1  0
 13 14  2  3
 13 16  1  0
 13 17  1  0
 14 15  1  0
 14 18  1  0
 15 19  1  0
 15 20  1  0
 15 21  1  0
M  RAD  1   3   2
M  END
>  <reaction>  (16) 
rxn_1615

>  <mol_properties>  (16) 
{"1": {"label": "*0", "atom_type": "Ct"}, "2": {"label": "*1", "atom_type": "Cs"}, "12": {"label": "*4", "atom_type": "Cd"}, "13": {"label": "*3", "atom_type": "Cd"}, "17": {"label": "*2", "atom_type": "H0"}}

>  <type>  (16) 
unop_12

>  <geom_source>  (16) 
Heuristics

$$$$

     RDKit          3D

 21 19  0  0  0  0  0  0  0  0999 V2000
   -0.9764   -0.1646   -0.1309 C   0  0  0  0  0  3  0  0  0  0  0  0
   -1.8195    0.0985    1.1172 C   0  0  0  0  0  0  0  0  0  0  0  0
   -1.3316   -1.5123   -0.7595 C   0  0  0  0  0  0  0  0  0  0  0  0
    2.2314   -0.2821    1.4275 C   0  0  0  0  0  0  0  0  0  0  0  0
    2.1763    0.8086   -0.7893 C   0  0  0  0  0  0  0  0  0  0  0  0
    1.5209    0.3759    0.2884 C   0  0  0  0  0  0  0  0  0  0  0  0
   -1.1712    0.9163   -1.1092 C   0  0  0  0  0  0  0  0  0  0  0  0
   -1.3296    1.8026   -1.9112 C   0  0  0  0  0  0  0  0  0  0  0  0
    0.3921   -0.1882    0.2452 H   0  0  0  0  0  0  0  0  0  0  0  0
   -2.9019    0.1268    0.8647 H   0  0  0  0  0  0  0  0  0  0  0  0
   -1.5294    1.0686    1.5743 H   0  0  0  0  0  0  0  0  0  0  0  0
   -1.6452   -0.7018    1.8673 H   0  0  0  0  0  0  0  0  0  0  0  0
   -2.3986   -1.5347   -1.0710 H   0  0  0  0  0  0  0  0  0  0  0  0
   -0.6915   -1.6975   -1.6485 H   0  0  0  0  0  0  0  0  0  0  0  0
   -1.1522   -2.3296   -0.0293 H   0  0  0  0  0  0  0  0  0  0  0  0
    2.7452   -1.2014    1.0752 H   0  0  0  0  0  0  0  0  0  0  0  0
    2.9764    0.4157    1.8650 H   0  0  0  0  0  0  0  0  0  0  0  0
    1.4924   -0.5574    2.2077 H   0  0  0  0  0  0  0  0  0  0  0  0
    3.2532    0.6950   -0.8720 H   0  0  0  0  0  0  0  0  0  0  0  0
    1.6281    1.2813   -1.5966 H   0  0  0  0  0  0  0  0  0  0  0  0
   -1.4689    2.5804   -2.6150 H   0  0  0  0  0  0  0  0  0  0  0  0
  1  2  1  0
  1  3  1  0
  1  7  1  0
  2 10  1  0
  2 11  1  0
  2 12  1  0
  3 13  1  0
  3 14  1  0
  3 15  1  0
  4  6  1  0
  4 16  1  0
  4 17  1  0
  4 18  1  0
  5  6  2  3
  5 19  1  0
  5 20  1  0
  6  9  1  0
  7  8  3  0
  8 21  1  0
M  RAD  1   1   2
M  END
>  <reaction>  (17) 
rxn_1615

>  <mol_properties>  (17) 
{"1": {"label": "*0", "atom_type": "Ct"}, "2": {"label": "*1", "atom_type": "Cs"}, "12": {"label": "*4", "atom_type": "Cd"}, "13": {"label": "*3", "atom_type": "Cd"}, "17": {"label": "*2", "atom_type": "H0"}}

>  <type>  (17) 
unop_13

>  <geom_source>  (17) 
AutoTST

$$$$
