
     RDKit          3D

  8  7  0  0  0  0  0  0  0  0999 V2000
    0.7610    0.0250    0.0051 C   0  0  0  0  0  0  0  0  0  0  0  0
   -0.7610   -0.0250   -0.0051 C   0  0  0  0  0  0  0  0  0  0  0  0
    1.1904   -0.9237   -0.3217 H   0  0  0  0  0  0  0  0  0  0  0  0
    1.1359    0.8041   -0.6609 H   0  0  0  0  0  0  0  0  0  0  0  0
    1.1435    0.2336    1.0058 H   0  0  0  0  0  0  0  0  0  0  0  0
   -1.1435   -0.2336   -1.0058 H   0  0  0  0  0  0  0  0  0  0  0  0
   -1.1904    0.9237    0.3216 H   0  0  0  0  0  0  0  0  0  0  0  0
   -1.1359   -0.8041    0.6609 H   0  0  0  0  0  0  0  0  0  0  0  0
  1  2  1  0
  1  3  1  0
  1  4  1  0
  1  5  1  0
  2  6  1  0
  2  7  1  0
  2  8  1  0
M  END
>  <reaction>  (1) 
rxn_873

>  <mol_properties>  (1) 
{"1": {"label": "donator", "atom_type": "Cs"}, "5": {"label": "d_hydrogen", "atom_type": "H0"}}

>  <type>  (1) 
r1h

$$$$

     RDKit          3D

 12 11  0  0  0  0  0  0  0  0999 V2000
   -2.3791    0.4612   -0.5870 C   0  0  0  0  0  0  0  0  0  0  0  0
   -1.3422   -0.3138   -0.1893 C   0  0  0  0  0  0  0  0  0  0  0  0
   -1.4723   -1.6058    0.3589 C   0  0  0  0  0  3  0  0  0  0  0  0
   -0.3798   -2.3973    0.7671 C   0  0  0  0  0  0  0  0  0  0  0  0
   -0.4849   -3.6397    1.2956 C   0  0  0  0  0  0  0  0  0  0  0  0
   -2.2205    1.4472   -1.0017 H   0  0  0  0  0  0  0  0  0  0  0  0
   -3.4026    0.1153   -0.5011 H   0  0  0  0  0  0  0  0  0  0  0  0
   -0.3330    0.0765   -0.2952 H   0  0  0  0  0  0  0  0  0  0  0  0
   -2.4723   -2.0151    0.4735 H   0  0  0  0  0  0  0  0  0  0  0  0
    0.6117   -1.9687    0.6436 H   0  0  0  0  0  0  0  0  0  0  0  0
    0.3893   -4.2030    1.5920 H   0  0  0  0  0  0  0  0  0  0  0  0
   -1.4516   -4.1084    1.4378 H   0  0  0  0  0  0  0  0  0  0  0  0
  1  2  2  3
  1  6  1  0
  1  7  1  0
  2  3  1  0
  2  8  1  0
  3  4  1  0
  3  9  1  0
  4  5  2  3
  4 10  1  0
  5 11  1  0
  5 12  1  0
M  RAD  1   3   2
M  END
>  <reaction>  (2) 
rxn_873

>  <mol_properties>  (2) 
{"2": {"label": "acceptor", "atom_type": "Cs"}}

>  <type>  (2) 
r2

$$$$

     RDKit          3D

 13 12  0  0  0  0  0  0  0  0999 V2000
    3.0977   -0.3549   -0.5105 C   0  0  0  0  0  0  0  0  0  0  0  0
    2.0556    0.4221   -0.2627 C   0  0  0  0  0  0  0  0  0  0  0  0
    0.6313   -0.0354   -0.2366 C   0  0  0  0  0  0  0  0  0  0  0  0
   -0.2567    0.6038   -1.2694 C   0  0  0  0  0  0  0  0  0  0  0  0
    0.1459    1.3456   -2.2891 C   0  0  0  0  0  0  0  0  0  0  0  0
    4.1081    0.0344   -0.5074 H   0  0  0  0  0  0  0  0  0  0  0  0
    2.9777   -1.4116   -0.7243 H   0  0  0  0  0  0  0  0  0  0  0  0
    2.2171    1.4781   -0.0618 H   0  0  0  0  0  0  0  0  0  0  0  0
    0.5865   -1.1233   -0.3540 H   0  0  0  0  0  0  0  0  0  0  0  0
    0.2065    0.1743    0.7521 H   0  0  0  0  0  0  0  0  0  0  0  0
   -1.3190    0.4126   -1.1445 H   0  0  0  0  0  0  0  0  0  0  0  0
    1.1948    1.5564   -2.4628 H   0  0  0  0  0  0  0  0  0  0  0  0
   -0.5644    1.7621   -2.9918 H   0  0  0  0  0  0  0  0  0  0  0  0
  1  2  2  3
  1  6  1  0
  1  7  1  0
  2  3  1  0
  2  8  1  0
  3  4  1  0
  3  9  1  0
  3 10  1  0
  4  5  2  3
  4 11  1  0
  5 12  1  0
  5 13  1  0
M  END
>  <reaction>  (3) 
rxn_873

>  <mol_properties>  (3) 
{"2": {"label": "acceptor", "atom_type": "Cs"}, "12": {"label": "a_hydrogen", "atom_type": "H0"}}

>  <type>  (3) 
r2h

$$$$

     RDKit          3D

 20 18  0  0  0  0  0  0  0  0999 V2000
   -0.0398    2.4390   -0.8624 C   0  0  0  0  0  0  0  0  0  0  0  0
    0.3245    1.2983   -0.2858 C   0  0  0  0  0  0  0  0  0  0  0  0
   -0.5619    0.4415    0.5186 C   0  0  0  0  0  0  0  0  0  0  0  0
   -0.0059   -0.2637    1.6928 C   0  0  0  0  0  0  0  0  0  0  0  0
    1.2575   -0.2636    2.1060 C   0  0  0  0  0  0  0  0  0  0  0  0
    0.6458    3.0039   -1.4809 H   0  0  0  0  0  0  0  0  0  0  0  0
   -1.0355    2.8482   -0.7293 H   0  0  0  0  0  0  0  0  0  0  0  0
    1.3328    0.9292   -0.4524 H   0  0  0  0  0  0  0  0  0  0  0  0
   -1.5202    0.9161    0.7381 H   0  0  0  0  0  0  0  0  0  0  0  0
   -0.7262   -0.8633    2.2434 H   0  0  0  0  0  0  0  0  0  0  0  0
    1.5601   -0.8463    2.9664 H   0  0  0  0  0  0  0  0  0  0  0  0
    2.0265    0.3238    1.6193 H   0  0  0  0  0  0  0  0  0  0  0  0
    0.1883   -1.9307   -1.6783 C   0  0  0  0  0  0  0  0  0  0  0  0
   -1.1832   -1.6026   -1.1761 C   0  0  0  0  0  3  0  0  0  0  0  0
    0.6184   -1.0898   -2.2257 H   0  0  0  0  0  0  0  0  0  0  0  0
    0.8603   -2.1769   -0.8529 H   0  0  0  0  0  0  0  0  0  0  0  0
    0.1752   -2.7905   -2.3573 H   0  0  0  0  0  0  0  0  0  0  0  0
   -0.9256   -0.4869   -0.2499 H   0  0  0  0  0  0  0  0  0  0  0  0
   -1.6489   -2.3313   -0.5177 H   0  0  0  0  0  0  0  0  0  0  0  0
   -1.8722   -1.1540   -1.8864 H   0  0  0  0  0  0  0  0  0  0  0  0
  1  2  2  3
  1  6  1  0
  1  7  1  0
  2  3  1  0
  2  8  1  0
  3  4  1  0
  3  9  1  0
  3 18  1  0
  4  5  2  3
  4 10  1  0
  5 11  1  0
  5 12  1  0
 13 14  1  0
 13 15  1  0
 13 16  1  0
 13 17  1  0
 14 19  1  0
 14 20  1  0
M  RAD  1  14   2
M  END
>  <reaction>  (4) 
rxn_873

>  <mol_properties>  (4) 
{"1": {"label": "*0", "atom_type": "Cd"}, "2": {"label": "*1", "atom_type": "Cs"}, "12": {"label": "*4", "atom_type": "Cs"}, "13": {"label": "*3", "atom_type": "Cs"}, "17": {"label": "*2", "atom_type": "H0"}}

>  <type>  (4) 
ts

$$$$

     RDKit          3D

 20 18  0  0  0  0  0  0  0  0999 V2000
   -1.1326    0.0436    2.2818 C   0  0  0  0  0  0  0  0  0  0  0  0
   -1.0077    0.4166    1.0184 C   0  0  0  0  0  0  0  0  0  0  0  0
    0.2172    0.2184    0.1823 C   0  0  0  0  0  3  0  0  0  0  0  0
    0.8639    1.4877   -0.3019 C   0  0  0  0  0  0  0  0  0  0  0  0
    0.5743    2.7128    0.1071 C   0  0  0  0  0  0  0  0  0  0  0  0
   -2.0501    0.2079    2.8330 H   0  0  0  0  0  0  0  0  0  0  0  0
   -0.3202   -0.4426    2.8114 H   0  0  0  0  0  0  0  0  0  0  0  0
   -1.8421    0.9091    0.5257 H   0  0  0  0  0  0  0  0  0  0  0  0
    0.9572   -0.3677    0.7375 H   0  0  0  0  0  0  0  0  0  0  0  0
    1.6418    1.3519   -1.0482 H   0  0  0  0  0  0  0  0  0  0  0  0
    1.0969    3.5731   -0.2915 H   0  0  0  0  0  0  0  0  0  0  0  0
   -0.1858    2.8998    0.8568 H   0  0  0  0  0  0  0  0  0  0  0  0
    0.2172   -2.2281   -2.2926 C   0  0  0  0  0  0  0  0  0  0  0  0
    0.2172   -2.2281   -0.7698 C   0  0  0  0  0  0  0  0  0  0  0  0
   -0.6636   -1.7196   -2.6884 H   0  0  0  0  0  0  0  0  0  0  0  0
    1.0981   -1.7196   -2.6884 H   0  0  0  0  0  0  0  0  0  0  0  0
    0.2172   -3.2453   -2.6884 H   0  0  0  0  0  0  0  0  0  0  0  0
    0.2172   -1.0076   -0.2948 H   0  0  0  0  0  0  0  0  0  0  0  0
    1.0981   -2.7367   -0.3740 H   0  0  0  0  0  0  0  0  0  0  0  0
   -0.6636   -2.7367   -0.3740 H   0  0  0  0  0  0  0  0  0  0  0  0
  1  2  2  3
  1  6  1  0
  1  7  1  0
  2  3  1  0
  2  8  1  0
  3  4  1  0
  3  9  1  0
  4  5  2  3
  4 10  1  0
  5 11  1  0
  5 12  1  0
 13 14  1  0
 13 15  1  0
 13 16  1  0
 13 17  1  0
 14 18  1  0
 14 19  1  0
 14 20  1  0
M  RAD  1   3   2
M  END
>  <reaction>  (5) 
rxn_873

>  <mol_properties>  (5) 
{"1": {"label": "*0", "atom_type": "Cd"}, "2": {"label": "*1", "atom_type": "Cs"}, "12": {"label": "*4", "atom_type": "Cs"}, "13": {"label": "*3", "atom_type": "Cs"}, "17": {"label": "*2", "atom_type": "H0"}}

>  <type>  (5) 
unop_1

>  <geom_source>  (5) 
Heuristics

$$$$

     RDKit          3D

 20 18  0  0  0  0  0  0  0  0999 V2000
   -1.9628    1.4365   -0.2073 C   0  0  0  0  0  0  0  0  0  0  0  0
   -0.7284    0.9839   -0.3572 C   0  0  0  0  0  0  0  0  0  0  0  0
   -0.0212    0.0848    0.6074 C   0  0  0  0  0  3  0  0  0  0  0  0
    1.2152    0.6741    1.2301 C   0  0  0  0  0  0  0  0  0  0  0  0
    1.5934    1.9407    1.1593 C   0  0  0  0  0  0  0  0  0  0  0  0
   -2.4240    2.0796   -0.9464 H   0  0  0  0  0  0  0  0  0  0  0  0
   -2.5588    1.1780    0.6614 H   0  0  0  0  0  0  0  0  0  0  0  0
   -0.1605    1.2731   -1.2378 H   0  0  0  0  0  0  0  0  0  0  0  0
   -0.7078   -0.2225    1.4032 H   0  0  0  0  0  0  0  0  0  0  0  0
    1.8274   -0.0275    1.7900 H   0  0  0  0  0  0  0  0  0  0  0  0
    2.4983    2.2817    1.6460 H   0  0  0  0  0  0  0  0  0  0  0  0
    1.0119    2.6810    0.6221 H   0  0  0  0  0  0  0  0  0  0  0  0
   -0.0212   -2.3617   -1.8676 C   0  0  0  0  0  0  0  0  0  0  0  0
   -0.0212   -2.3617   -0.3448 C   0  0  0  0  0  0  0  0  0  0  0  0
   -0.9020   -1.8531   -2.2634 H   0  0  0  0  0  0  0  0  0  0  0  0
    0.8597   -1.8531   -2.2634 H   0  0  0  0  0  0  0  0  0  0  0  0
   -0.0212   -3.3788   -2.2634 H   0  0  0  0  0  0  0  0  0  0  0  0
   -0.0212   -1.1411    0.1302 H   0  0  0  0  0  0  0  0  0  0  0  0
    0.8597   -2.8702    0.0511 H   0  0  0  0  0  0  0  0  0  0  0  0
   -0.9020   -2.8702    0.0511 H   0  0  0  0  0  0  0  0  0  0  0  0
  1  2  2  3
  1  6  1  0
  1  7  1  0
  2  3  1  0
  2  8  1  0
  3  4  1  0
  3  9  1  0
  4  5  2  3
  4 10  1  0
  5 11  1  0
  5 12  1  0
 13 14  1  0
 13 15  1  0
 13 16  1  0
 13 17  1  0
 14 18  1  0
 14 19  1  0
 14 20  1  0
M  RAD  1   3   2
M  END
>  <reaction>  (6) 
rxn_873

>  <mol_properties>  (6) 
{"1": {"label": "*0", "atom_type": "Cd"}, "2": {"label": "*1", "atom_type": "Cs"}, "12": {"label": "*4", "atom_type": "Cs"}, "13": {"label": "*3", "atom_type": "Cs"}, "17": {"label": "*2", "atom_type": "H0"}}

>  <type>  (6) 
unop_2

>  <geom_source>  (6) 
Heuristics

$$$$

     RDKit          3D

 20 18  0  0  0  0  0  0  0  0999 V2000
    0.0933    0.1282    2.6409 C   0  0  0  0  0  0  0  0  0  0  0  0
   -0.4961    0.2530    1.4627 C   0  0  0  0  0  0  0  0  0  0  0  0
    0.2111    0.2425    0.1442 C   0  0  0  0  0  3  0  0  0  0  0  0
    0.0878    1.5151   -0.6490 C   0  0  0  0  0  0  0  0  0  0  0  0
   -0.3947    2.6647   -0.2045 C   0  0  0  0  0  0  0  0  0  0  0  0
   -0.4753    0.1354    3.5624 H   0  0  0  0  0  0  0  0  0  0  0  0
    1.1685    0.0121    2.7264 H   0  0  0  0  0  0  0  0  0  0  0  0
   -1.5752    0.3763    1.4197 H   0  0  0  0  0  0  0  0  0  0  0  0
    1.2727    0.0175    0.2918 H   0  0  0  0  0  0  0  0  0  0  0  0
    0.4445    1.4549   -1.6736 H   0  0  0  0  0  0  0  0  0  0  0  0
   -0.4401    3.5366   -0.8446 H   0  0  0  0  0  0  0  0  0  0  0  0
   -0.7530    2.7786    0.8122 H   0  0  0  0  0  0  0  0  0  0  0  0
    0.2111   -2.2040   -2.3308 C   0  0  0  0  0  0  0  0  0  0  0  0
    0.2111   -2.2040   -0.8080 C   0  0  0  0  0  0  0  0  0  0  0  0
   -0.6697   -1.6954   -2.7266 H   0  0  0  0  0  0  0  0  0  0  0  0
    1.0920   -1.6954   -2.7266 H   0  0  0  0  0  0  0  0  0  0  0  0
    0.2111   -3.2211   -2.7266 H   0  0  0  0  0  0  0  0  0  0  0  0
    0.2111   -0.9834   -0.3329 H   0  0  0  0  0  0  0  0  0  0  0  0
    1.0920   -2.7125   -0.4121 H   0  0  0  0  0  0  0  0  0  0  0  0
   -0.6697   -2.7125   -0.4121 H   0  0  0  0  0  0  0  0  0  0  0  0
  1  2  2  3
  1  6  1  0
  1  7  1  0
  2  3  1  0
  2  8  1  0
  3  4  1  0
  3  9  1  0
  4  5  2  3
  4 10  1  0
  5 11  1  0
  5 12  1  0
 13 14  1  0
 13 15  1  0
 13 16  1  0
 13 17  1  0
 14 18  1  0
 14 19  1  0
 14 20  1  0
M  RAD  1   3   2
M  END
>  <reaction>  (7) 
rxn_873

>  <mol_properties>  (7) 
{"1": {"label": "*0", "atom_type": "Cd"}, "2": {"label": "*1", "atom_type": "Cs"}, "12": {"label": "*4", "atom_type": "Cs"}, "13": {"label": "*3", "atom_type": "Cs"}, "17": {"label": "*2", "atom_type": "H0"}}

>  <type>  (7) 
unop_3

>  <geom_source>  (7) 
Heuristics

$$$$

     RDKit          3D

 20 18  0  0  0  0  0  0  0  0999 V2000
    0.7725    2.5713   -0.4523 C   0  0  0  0  0  0  0  0  0  0  0  0
    0.6723    1.2628   -0.2825 C   0  0  0  0  0  0  0  0  0  0  0  0
   -0.5527    0.5516    0.1996 C   0  0  0  0  0  3  0  0  0  0  0  0
   -0.3852   -0.1834    1.5018 C   0  0  0  0  0  0  0  0  0  0  0  0
    0.6469   -0.0824    2.3244 C   0  0  0  0  0  0  0  0  0  0  0  0
    1.6860    3.0274   -0.8128 H   0  0  0  0  0  0  0  0  0  0  0  0
   -0.0583    3.2351   -0.2382 H   0  0  0  0  0  0  0  0  0  0  0  0
    1.5307    0.6323   -0.4998 H   0  0  0  0  0  0  0  0  0  0  0  0
   -1.3820    1.2601    0.2959 H   0  0  0  0  0  0  0  0  0  0  0  0
   -1.2075   -0.8421    1.7673 H   0  0  0  0  0  0  0  0  0  0  0  0
    0.6820   -0.6450    3.2486 H   0  0  0  0  0  0  0  0  0  0  0  0
    1.4866    0.5686    2.1098 H   0  0  0  0  0  0  0  0  0  0  0  0
   -0.5527   -1.8949   -2.2753 C   0  0  0  0  0  0  0  0  0  0  0  0
   -0.5527   -1.8949   -0.7525 C   0  0  0  0  0  0  0  0  0  0  0  0
   -1.4335   -1.3864   -2.6712 H   0  0  0  0  0  0  0  0  0  0  0  0
    0.3282   -1.3864   -2.6712 H   0  0  0  0  0  0  0  0  0  0  0  0
   -0.5527   -2.9120   -2.6712 H   0  0  0  0  0  0  0  0  0  0  0  0
   -0.5527   -0.6744   -0.2775 H   0  0  0  0  0  0  0  0  0  0  0  0
    0.3282   -2.4035   -0.3567 H   0  0  0  0  0  0  0  0  0  0  0  0
   -1.4335   -2.4035   -0.3567 H   0  0  0  0  0  0  0  0  0  0  0  0
  1  2  2  3
  1  6  1  0
  1  7  1  0
  2  3  1  0
  2  8  1  0
  3  4  1  0
  3  9  1  0
  4  5  2  3
  4 10  1  0
  5 11  1  0
  5 12  1  0
 13 14  1  0
 13 15  1  0
 13 16  1  0
 13 17  1  0
 14 18  1  0
 14 19  1  0
 14 20  1  0
M  RAD  1   3   2
M  END
>  <reaction>  (8) 
rxn_873

>  <mol_properties>  (8) 
{"1": {"label": "*0", "atom_type": "Cd"}, "2": {"label": "*1", "atom_type": "Cs"}, "12": {"label": "*4", "atom_type": "Cs"}, "13": {"label": "*3", "atom_type": "Cs"}, "17": {"label": "*2", "atom_type": "H0"}}

>  <type>  (8) 
unop_4

>  <geom_source>  (8) 
Heuristics

$$$$

     RDKit          3D

 20 18  0  0  0  0  0  0  0  0999 V2000
    1.2451    0.8439    2.3464 C   0  0  0  0  0  0  0  0  0  0  0  0
    0.3162    0.3149    1.5665 C   0  0  0  0  0  0  0  0  0  0  0  0
    0.3162    0.3732    0.0713 C   0  0  0  0  0  3  0  0  0  0  0  0
   -0.8502    1.1072   -0.5323 C   0  0  0  0  0  0  0  0  0  0  0  0
   -1.7239    1.8532    0.1251 C   0  0  0  0  0  0  0  0  0  0  0  0
    1.1936    0.7614    3.4249 H   0  0  0  0  0  0  0  0  0  0  0  0
    2.0939    1.3785    1.9333 H   0  0  0  0  0  0  0  0  0  0  0  0
   -0.5237   -0.2055    2.0196 H   0  0  0  0  0  0  0  0  0  0  0  0
    1.2458    0.8299   -0.2843 H   0  0  0  0  0  0  0  0  0  0  0  0
   -0.9519    1.0030   -1.6091 H   0  0  0  0  0  0  0  0  0  0  0  0
   -2.5323    2.3539   -0.3923 H   0  0  0  0  0  0  0  0  0  0  0  0
   -1.6594    1.9969    1.1975 H   0  0  0  0  0  0  0  0  0  0  0  0
    0.3162   -2.0733   -2.4036 C   0  0  0  0  0  0  0  0  0  0  0  0
    0.3162   -2.0733   -0.8808 C   0  0  0  0  0  0  0  0  0  0  0  0
   -0.5646   -1.5648   -2.7994 H   0  0  0  0  0  0  0  0  0  0  0  0
    1.1971   -1.5648   -2.7994 H   0  0  0  0  0  0  0  0  0  0  0  0
    0.3162   -3.0904   -2.7994 H   0  0  0  0  0  0  0  0  0  0  0  0
    0.3162   -0.8528   -0.4058 H   0  0  0  0  0  0  0  0  0  0  0  0
    1.1971   -2.5819   -0.4850 H   0  0  0  0  0  0  0  0  0  0  0  0
   -0.5646   -2.5819   -0.4850 H   0  0  0  0  0  0  0  0  0  0  0  0
  1  2  2  3
  1  6  1  0
  1  7  1  0
  2  3  1  0
  2  8  1  0
  3  4  1  0
  3  9  1  0
  4  5  2  3
  4 10  1  0
  5 11  1  0
  5 12  1  0
 13 14  1  0
 13 15  1  0
 13 16  1  0
 13 17  1  0
 14 18  1  0
 14 19  1  0
 14 20  1  0
M  RAD  1   3   2
M  END
>  <reaction>  (9) 
rxn_873

>  <mol_properties>  (9) 
{"1": {"label": "*0", "atom_type": "Cd"}, "2": {"label": "*1", "atom_type": "Cs"}, "12": {"label": "*4", "atom_type": "Cs"}, "13": {"label": "*3", "atom_type": "Cs"}, "17": {"label": "*2", "atom_type": "H0"}}

>  <type>  (9) 
unop_5

>  <geom_source>  (9) 
Heuristics

$$$$

     RDKit          3D

 20 18  0  0  0  0  0  0  0  0999 V2000
    1.4181    2.4183    0.2429 C   0  0  0  0  0  0  0  0  0  0  0  0
    1.0326    1.1557    0.1524 C   0  0  0  0  0  0  0  0  0  0  0  0
   -0.3818    0.7009   -0.0245 C   0  0  0  0  0  3  0  0  0  0  0  0
   -0.9211   -0.1387    1.1015 C   0  0  0  0  0  0  0  0  0  0  0  0
   -0.3450   -0.3230    2.2789 C   0  0  0  0  0  0  0  0  0  0  0  0
    2.4606    2.6852    0.3626 H   0  0  0  0  0  0  0  0  0  0  0  0
    0.7030    3.2329    0.1986 H   0  0  0  0  0  0  0  0  0  0  0  0
    1.7792    0.3677    0.2103 H   0  0  0  0  0  0  0  0  0  0  0  0
   -1.0370    1.5666   -0.1674 H   0  0  0  0  0  0  0  0  0  0  0  0
   -1.8765   -0.6164    0.9024 H   0  0  0  0  0  0  0  0  0  0  0  0
   -0.8090   -0.9403    3.0375 H   0  0  0  0  0  0  0  0  0  0  0  0
    0.6025    0.1400    2.5297 H   0  0  0  0  0  0  0  0  0  0  0  0
   -0.3818   -1.7456   -2.4995 C   0  0  0  0  0  0  0  0  0  0  0  0
   -0.3818   -1.7456   -0.9767 C   0  0  0  0  0  0  0  0  0  0  0  0
   -1.2626   -1.2370   -2.8953 H   0  0  0  0  0  0  0  0  0  0  0  0
    0.4991   -1.2370   -2.8953 H   0  0  0  0  0  0  0  0  0  0  0  0
   -0.3818   -2.7627   -2.8953 H   0  0  0  0  0  0  0  0  0  0  0  0
   -0.3818   -0.5251   -0.5017 H   0  0  0  0  0  0  0  0  0  0  0  0
    0.4991   -2.2541   -0.5808 H   0  0  0  0  0  0  0  0  0  0  0  0
   -1.2626   -2.2541   -0.5808 H   0  0  0  0  0  0  0  0  0  0  0  0
  1  2  2  3
  1  6  1  0
  1  7  1  0
  2  3  1  0
  2  8  1  0
  3  4  1  0
  3  9  1  0
  4  5  2  3
  4 10  1  0
  5 11  1  0
  5 12  1  0
 13 14  1  0
 13 15  1  0
 13 16  1  0
 13 17  1  0
 14 18  1  0
 14 19  1  0
 14 20  1  0
M  RAD  1   3   2
M  END
>  <reaction>  (10) 
rxn_873

>  <mol_properties>  (10) 
{"1": {"label": "*0", "atom_type": "Cd"}, "2": {"label": "*1", "atom_type": "Cs"}, "12": {"label": "*4", "atom_type": "Cs"}, "13": {"label": "*3", "atom_type": "Cs"}, "17": {"label": "*2", "atom_type": "H0"}}

>  <type>  (10) 
unop_6

>  <geom_source>  (10) 
Heuristics

$$$$

     RDKit          3D

 20 18  0  0  0  0  0  0  0  0999 V2000
    1.6643    2.1180    1.0109 C   0  0  0  0  0  0  0  0  0  0  0  0
    1.1428    0.9435    0.6956 C   0  0  0  0  0  0  0  0  0  0  0  0
   -0.0822    0.7452   -0.1404 C   0  0  0  0  0  3  0  0  0  0  0  0
   -1.2269    0.0712    0.5660 C   0  0  0  0  0  0  0  0  0  0  0  0
   -1.3105   -0.1593    1.8667 C   0  0  0  0  0  0  0  0  0  0  0  0
    2.5598    2.1966    1.6146 H   0  0  0  0  0  0  0  0  0  0  0  0
    1.2143    3.0459    0.6741 H   0  0  0  0  0  0  0  0  0  0  0  0
    1.6185    0.0366    1.0602 H   0  0  0  0  0  0  0  0  0  0  0  0
   -0.4252    1.7078   -0.5341 H   0  0  0  0  0  0  0  0  0  0  0  0
   -2.0483   -0.2340   -0.0765 H   0  0  0  0  0  0  0  0  0  0  0  0
   -2.1783   -0.6459    2.2934 H   0  0  0  0  0  0  0  0  0  0  0  0
   -0.5228    0.1352    2.5506 H   0  0  0  0  0  0  0  0  0  0  0  0
   -0.0822   -1.7013   -2.6154 C   0  0  0  0  0  0  0  0  0  0  0  0
   -0.0822   -1.7013   -1.0926 C   0  0  0  0  0  0  0  0  0  0  0  0
   -0.9630   -1.1927   -3.0112 H   0  0  0  0  0  0  0  0  0  0  0  0
    0.7987   -1.1927   -3.0112 H   0  0  0  0  0  0  0  0  0  0  0  0
   -0.0822   -2.7184   -3.0112 H   0  0  0  0  0  0  0  0  0  0  0  0
   -0.0822   -0.4808   -0.6176 H   0  0  0  0  0  0  0  0  0  0  0  0
    0.7987   -2.2098   -0.6967 H   0  0  0  0  0  0  0  0  0  0  0  0
   -0.9630   -2.2098   -0.6967 H   0  0  0  0  0  0  0  0  0  0  0  0
  1  2  2  3
  1  6  1  0
  1  7  1  0
  2  3  1  0
  2  8  1  0
  3  4  1  0
  3  9  1  0
  4  5  2  3
  4 10  1  0
  5 11  1  0
  5 12  1  0
 13 14  1  0
 13 15  1  0
 13 16  1  0
 13 17  1  0
 14 18  1  0
 14 19  1  0
 14 20  1  0
M  RAD  1   3   2
M  END
>  <reaction>  (11) 
rxn_873

>  <mol_properties>  (11) 
{"1": {"label": "*0", "atom_type": "Cd"}, "2": {"label": "*1", "atom_type": "Cs"}, "12": {"label": "*4", "atom_type": "Cs"}, "13": {"label": "*3", "atom_type": "Cs"}, "17": {"label": "*2", "atom_type": "H0"}}

>  <type>  (11) 
unop_7

>  <geom_source>  (11) 
Heuristics

$$$$

     RDKit          3D

 20 18  0  0  0  0  0  0  0  0999 V2000
   -1.9270    0.3398    1.5164 C   0  0  0  0  0  0  0  0  0  0  0  0
   -1.1619    0.6278    0.4759 C   0  0  0  0  0  0  0  0  0  0  0  0
    0.2525    0.1730    0.2989 C   0  0  0  0  0  3  0  0  0  0  0  0
    1.2686    1.2807    0.2319 C   0  0  0  0  0  0  0  0  0  0  0  0
    1.0496    2.5549    0.5157 C   0  0  0  0  0  0  0  0  0  0  0  0
   -2.9485    0.6926    1.5834 H   0  0  0  0  0  0  0  0  0  0  0  0
   -1.5588   -0.2625    2.3402 H   0  0  0  0  0  0  0  0  0  0  0  0
   -1.5651    1.2419   -0.3253 H   0  0  0  0  0  0  0  0  0  0  0  0
    0.5278   -0.5131    1.1068 H   0  0  0  0  0  0  0  0  0  0  0  0
    2.2656    0.9727   -0.0711 H   0  0  0  0  0  0  0  0  0  0  0  0
    1.8440    3.2871    0.4475 H   0  0  0  0  0  0  0  0  0  0  0  0
    0.0757    2.9101    0.8325 H   0  0  0  0  0  0  0  0  0  0  0  0
    0.2525   -2.2735   -2.1760 C   0  0  0  0  0  0  0  0  0  0  0  0
    0.2525   -2.2735   -0.6533 C   0  0  0  0  0  0  0  0  0  0  0  0
   -0.6283   -1.7649   -2.5719 H   0  0  0  0  0  0  0  0  0  0  0  0
    1.1334   -1.7649   -2.5719 H   0  0  0  0  0  0  0  0  0  0  0  0
    0.2525   -3.2906   -2.5719 H   0  0  0  0  0  0  0  0  0  0  0  0
    0.2525   -1.0530   -0.1782 H   0  0  0  0  0  0  0  0  0  0  0  0
    1.1334   -2.7820   -0.2574 H   0  0  0  0  0  0  0  0  0  0  0  0
   -0.6283   -2.7821   -0.2574 H   0  0  0  0  0  0  0  0  0  0  0  0
  1  2  2  3
  1  6  1  0
  1  7  1  0
  2  3  1  0
  2  8  1  0
  3  4  1  0
  3  9  1  0
  4  5  2  3
  4 10  1  0
  5 11  1  0
  5 12  1  0
 13 14  1  0
 13 15  1  0
 13 16  1  0
 13 17  1  0
 14 18  1  0
 14 19  1  0
 14 20  1  0
M  RAD  1   3   2
M  END
>  <reaction>  (12) 
rxn_873

>  <mol_properties>  (12) 
{"1": {"label": "*0", "atom_type": "Cd"}, "2": {"label": "*1", "atom_type": "Cs"}, "12": {"label": "*4", "atom_type": "Cs"}, "13": {"label": "*3", "atom_type": "Cs"}, "17": {"label": "*2", "atom_type": "H0"}}

>  <type>  (12) 
unop_8

>  <geom_source>  (12) 
Heuristics

$$$$

     RDKit          3D

 20 18  0  0  0  0  0  0  0  0999 V2000
   -0.2130    2.4693   -0.8401 C   0  0  0  0  0  0  0  0  0  0  0  0
    0.1758    1.2462   -0.5179 C   0  0  0  0  0  0  0  0  0  0  0  0
   -0.5314    0.3471    0.4467 C   0  0  0  0  0  3  0  0  0  0  0  0
    0.2706   -0.0311    1.6622 C   0  0  0  0  0  0  0  0  0  0  0  0
    1.4191    0.5108    2.0354 C   0  0  0  0  0  0  0  0  0  0  0  0
    0.3381    3.0696   -1.5529 H   0  0  0  0  0  0  0  0  0  0  0  0
   -1.1002    2.9148   -0.4026 H   0  0  0  0  0  0  0  0  0  0  0  0
    1.0756    0.8388   -0.9717 H   0  0  0  0  0  0  0  0  0  0  0  0
   -1.4693    0.8108    0.7701 H   0  0  0  0  0  0  0  0  0  0  0  0
   -0.1640   -0.8171    2.2737 H   0  0  0  0  0  0  0  0  0  0  0  0
    1.9270    0.1812    2.9329 H   0  0  0  0  0  0  0  0  0  0  0  0
    1.8879    1.3047    1.4654 H   0  0  0  0  0  0  0  0  0  0  0  0
   -0.5314   -2.0994   -2.0283 C   0  0  0  0  0  0  0  0  0  0  0  0
   -0.5314   -2.0994   -0.5055 C   0  0  0  0  0  0  0  0  0  0  0  0
   -1.4123   -1.5908   -2.4241 H   0  0  0  0  0  0  0  0  0  0  0  0
    0.3494   -1.5908   -2.4241 H   0  0  0  0  0  0  0  0  0  0  0  0
   -0.5314   -3.1165   -2.4241 H   0  0  0  0  0  0  0  0  0  0  0  0
   -0.5314   -0.8788   -0.0305 H   0  0  0  0  0  0  0  0  0  0  0  0
    0.3494   -2.6079   -0.1096 H   0  0  0  0  0  0  0  0  0  0  0  0
   -1.4123   -2.6079   -0.1096 H   0  0  0  0  0  0  0  0  0  0  0  0
  1  2  2  3
  1  6  1  0
  1  7  1  0
  2  3  1  0
  2  8  1  0
  3  4  1  0
  3  9  1  0
  4  5  2  3
  4 10  1  0
  5 11  1  0
  5 12  1  0
 13 14  1  0
 13 15  1  0
 13 16  1  0
 13 17  1  0
 14 18  1  0
 14 19  1  0
 14 20  1  0
M  RAD  1   3   2
M  END
>  <reaction>  (13) 
rxn_873

>  <mol_properties>  (13) 
{"1": {"label": "*0", "atom_type": "Cd"}, "2": {"label": "*1", "atom_type": "Cs"}, "12": {"label": "*4", "atom_type": "Cs"}, "13": {"label": "*3", "atom_type": "Cs"}, "17": {"label": "*2", "atom_type": "H0"}}

>  <type>  (13) 
unop_9

>  <geom_source>  (13) 
Heuristics

$$$$

     RDKit          3D

 20 18  0  0  0  0  0  0  0  0999 V2000
   -2.2015    0.8323    0.6131 C   0  0  0  0  0  0  0  0  0  0  0  0
   -1.0352    0.8212   -0.0119 C   0  0  0  0  0  0  0  0  0  0  0  0
    0.1897    0.1099    0.4702 C   0  0  0  0  0  3  0  0  0  0  0  0
    1.3610    1.0041    0.7743 C   0  0  0  0  0  0  0  0  0  0  0  0
    1.3316    2.3253    0.8493 C   0  0  0  0  0  0  0  0  0  0  0  0
   -3.0560    1.3604    0.2086 H   0  0  0  0  0  0  0  0  0  0  0  0
   -2.3448    0.3108    1.5534 H   0  0  0  0  0  0  0  0  0  0  0  0
   -0.9297    1.3637   -0.9479 H   0  0  0  0  0  0  0  0  0  0  0  0
   -0.0478   -0.4798    1.3619 H   0  0  0  0  0  0  0  0  0  0  0  0
    2.3000    0.4874    0.9528 H   0  0  0  0  0  0  0  0  0  0  0  0
    2.2244    2.8917    1.0818 H   0  0  0  0  0  0  0  0  0  0  0  0
    0.4179    2.8861    0.6899 H   0  0  0  0  0  0  0  0  0  0  0  0
    0.1897   -2.3366   -2.0047 C   0  0  0  0  0  0  0  0  0  0  0  0
    0.1897   -2.3366   -0.4819 C   0  0  0  0  0  0  0  0  0  0  0  0
   -0.6911   -1.8280   -2.4006 H   0  0  0  0  0  0  0  0  0  0  0  0
    1.0706   -1.8280   -2.4006 H   0  0  0  0  0  0  0  0  0  0  0  0
    0.1897   -3.3537   -2.4006 H   0  0  0  0  0  0  0  0  0  0  0  0
    0.1897   -1.1161   -0.0069 H   0  0  0  0  0  0  0  0  0  0  0  0
    1.0706   -2.8451   -0.0861 H   0  0  0  0  0  0  0  0  0  0  0  0
   -0.6911   -2.8451   -0.0861 H   0  0  0  0  0  0  0  0  0  0  0  0
  1  2  2  3
  1  6  1  0
  1  7  1  0
  2  3  1  0
  2  8  1  0
  3  4  1  0
  3  9  1  0
  4  5  2  3
  4 10  1  0
  5 11  1  0
  5 12  1  0
 13 14  1  0
 13 15  1  0
 13 16  1  0
 13 17  1  0
 14 18  1  0
 14 19  1  0
 14 20  1  0
M  RAD  1   3   2
M  END
>  <reaction>  (14) 
rxn_873

>  <mol_properties>  (14) 
{"1": {"label": "*0", "atom_type": "Cd"}, "2": {"label": "*1", "atom_type": "Cs"}, "12": {"label": "*4", "atom_type": "Cs"}, "13": {"label": "*3", "atom_type": "Cs"}, "17": {"label": "*2", "atom_type": "H0"}}

>  <type>  (14) 
unop_10

>  <geom_source>  (14) 
Heuristics

$$$$

     RDKit          3D

 20 18  0  0  0  0  0  0  0  0999 V2000
    1.6325    1.6589    1.7030 C   0  0  0  0  0  0  0  0  0  0  0  0
    0.9344    0.6418    1.2245 C   0  0  0  0  0  0  0  0  0  0  0  0
    0.2272    0.6313   -0.0940 C   0  0  0  0  0  3  0  0  0  0  0  0
   -1.2663    0.4698   -0.0086 C   0  0  0  0  0  0  0  0  0  0  0  0
   -1.9947    0.5453    1.0940 C   0  0  0  0  0  0  0  0  0  0  0  0
    2.1298    1.6029    2.6633 H   0  0  0  0  0  0  0  0  0  0  0  0
    1.7338    2.5863    1.1493 H   0  0  0  0  0  0  0  0  0  0  0  0
    0.8494   -0.2674    1.8141 H   0  0  0  0  0  0  0  0  0  0  0  0
    0.4541    1.5491   -0.6465 H   0  0  0  0  0  0  0  0  0  0  0  0
   -1.7639    0.2846   -0.9566 H   0  0  0  0  0  0  0  0  0  0  0  0
   -3.0699    0.4233    1.0628 H   0  0  0  0  0  0  0  0  0  0  0  0
   -1.5470    0.7386    2.0620 H   0  0  0  0  0  0  0  0  0  0  0  0
    0.2272   -1.8152   -2.5689 C   0  0  0  0  0  0  0  0  0  0  0  0
    0.2272   -1.8152   -1.0462 C   0  0  0  0  0  0  0  0  0  0  0  0
   -0.6537   -1.3067   -2.9648 H   0  0  0  0  0  0  0  0  0  0  0  0
    1.1080   -1.3067   -2.9648 H   0  0  0  0  0  0  0  0  0  0  0  0
    0.2272   -2.8323   -2.9648 H   0  0  0  0  0  0  0  0  0  0  0  0
    0.2272   -0.5947   -0.5711 H   0  0  0  0  0  0  0  0  0  0  0  0
    1.1080   -2.3238   -0.6503 H   0  0  0  0  0  0  0  0  0  0  0  0
   -0.6537   -2.3238   -0.6503 H   0  0  0  0  0  0  0  0  0  0  0  0
  1  2  2  3
  1  6  1  0
  1  7  1  0
  2  3  1  0
  2  8  1  0
  3  4  1  0
  3  9  1  0
  4  5  2  3
  4 10  1  0
  5 11  1  0
  5 12  1  0
 13 14  1  0
 13 15  1  0
 13 16  1  0
 13 17  1  0
 14 18  1  0
 14 19  1  0
 14 20  1  0
M  RAD  1   3   2
M  END
>  <reaction>  (15) 
rxn_873

>  <mol_properties>  (15) 
{"1": {"label": "*0", "atom_type": "Cd"}, "2": {"label": "*1", "atom_type": "Cs"}, "12": {"label": "*4", "atom_type": "Cs"}, "13": {"label": "*3", "atom_type": "Cs"}, "17": {"label": "*2", "atom_type": "H0"}}

>  <type>  (15) 
unop_11

>  <geom_source>  (15) 
Heuristics

$$$$

     RDKit          3D

 20 18  0  0  0  0  0  0  0  0999 V2000
   -1.2451    2.0488   -0.7494 C   0  0  0  0  0  0  0  0  0  0  0  0
   -0.3162    1.1317   -0.5322 C   0  0  0  0  0  0  0  0  0  0  0  0
   -0.3162    0.1640    0.6089 C   0  0  0  0  0  3  0  0  0  0  0  0
    0.8502    0.2968    1.5499 C   0  0  0  0  0  0  0  0  0  0  0  0
    1.7239    1.2910    1.5698 C   0  0  0  0  0  0  0  0  0  0  0  0
   -1.1936    2.7170   -1.5999 H   0  0  0  0  0  0  0  0  0  0  0  0
   -2.0939    2.1635   -0.0836 H   0  0  0  0  0  0  0  0  0  0  0  0
    0.5237    1.0545   -1.2180 H   0  0  0  0  0  0  0  0  0  0  0  0
   -1.2458    0.2601    1.1798 H   0  0  0  0  0  0  0  0  0  0  0  0
    0.9519   -0.5078    2.2730 H   0  0  0  0  0  0  0  0  0  0  0  0
    2.5323    1.3101    2.2895 H   0  0  0  0  0  0  0  0  0  0  0  0
    1.6594    2.1218    0.8766 H   0  0  0  0  0  0  0  0  0  0  0  0
   -0.3162   -2.2825   -1.8660 C   0  0  0  0  0  0  0  0  0  0  0  0
   -0.3162   -2.2825   -0.3432 C   0  0  0  0  0  0  0  0  0  0  0  0
   -1.1971   -1.7740   -2.2619 H   0  0  0  0  0  0  0  0  0  0  0  0
    0.5646   -1.7740   -2.2619 H   0  0  0  0  0  0  0  0  0  0  0  0
   -0.3162   -3.2996   -2.2619 H   0  0  0  0  0  0  0  0  0  0  0  0
   -0.3162   -1.0620    0.1318 H   0  0  0  0  0  0  0  0  0  0  0  0
    0.5646   -2.7911    0.0526 H   0  0  0  0  0  0  0  0  0  0  0  0
   -1.1971   -2.7911    0.0526 H   0  0  0  0  0  0  0  0  0  0  0  0
  1  2  2  3
  1  6  1  0
  1  7  1  0
  2  3  1  0
  2  8  1  0
  3  4  1  0
  3  9  1  0
  4  5  2  3
  4 10  1  0
  5 11  1  0
  5 12  1  0
 13 14  1  0
 13 15  1  0
 13 16  1  0
 13 17  1  0
 14 18  1  0
 14 19  1  0
 14 20  1  0
M  RAD  1   3   2
M  END
>  <reaction>  (16) 
rxn_873

>  <mol_properties>  (16) 
{"1": {"label": "*0", "atom_type": "Cd"}, "2": {"label": "*1", "atom_type": "Cs"}, "12": {"label": "*4", "atom_type": "Cs"}, "13": {"label": "*3", "atom_type": "Cs"}, "17": {"label": "*2", "atom_type": "H0"}}

>  <type>  (16) 
unop_12

>  <geom_source>  (16) 
Heuristics

$$$$

     RDKit          3D

 20 18  0  0  0  0  0  0  0  0999 V2000
    0.6484   -0.2186   -0.3060 C   0  0  0  0  0  3  0  0  0  0  0  0
   -2.7838   -0.2542    0.6261 C   0  0  0  0  0  0  0  0  0  0  0  0
    1.6421    0.9050   -0.3992 C   0  0  0  0  0  0  0  0  0  0  0  0
    1.0818   -1.2516    0.6941 C   0  0  0  0  0  0  0  0  0  0  0  0
   -1.8172    0.7023   -0.0472 C   0  0  0  0  0  0  0  0  0  0  0  0
    1.4136    1.9501   -1.1966 C   0  0  0  0  0  0  0  0  0  0  0  0
    2.1103   -2.0710    0.4565 C   0  0  0  0  0  0  0  0  0  0  0  0
    0.5135   -0.6924   -1.3028 H   0  0  0  0  0  0  0  0  0  0  0  0
   -0.6474    0.3348    0.1235 H   0  0  0  0  0  0  0  0  0  0  0  0
   -2.8669   -1.1835    0.0250 H   0  0  0  0  0  0  0  0  0  0  0  0
   -2.4094   -0.5095    1.6393 H   0  0  0  0  0  0  0  0  0  0  0  0
   -3.7850    0.2181    0.7127 H   0  0  0  0  0  0  0  0  0  0  0  0
    2.5577    0.8801    0.1863 H   0  0  0  0  0  0  0  0  0  0  0  0
    0.5318   -1.3431    1.6254 H   0  0  0  0  0  0  0  0  0  0  0  0
   -1.7218    1.6316    0.5531 H   0  0  0  0  0  0  0  0  0  0  0  0
   -2.1804    0.9559   -1.0653 H   0  0  0  0  0  0  0  0  0  0  0  0
    2.1367    2.7572   -1.2552 H   0  0  0  0  0  0  0  0  0  0  0  0
    0.5087    2.0090   -1.7941 H   0  0  0  0  0  0  0  0  0  0  0  0
    2.3953   -2.8133    1.1949 H   0  0  0  0  0  0  0  0  0  0  0  0
    2.6720   -2.0067   -0.4706 H   0  0  0  0  0  0  0  0  0  0  0  0
  1  3  1  0
  1  4  1  0
  1  8  1  0
  2  5  1  0
  2 10  1  0
  2 11  1  0
  2 12  1  0
  3  6  2  3
  3 13  1  0
  4  7  2  3
  4 14  1  0
  5  9  1  0
  5 15  1  0
  5 16  1  0
  6 17  1  0
  6 18  1  0
  7 19  1  0
  7 20  1  0
M  RAD  1   1   2
M  END
>  <reaction>  (17) 
rxn_873

>  <mol_properties>  (17) 
{"1": {"label": "*0", "atom_type": "Cd"}, "2": {"label": "*1", "atom_type": "Cs"}, "12": {"label": "*4", "atom_type": "Cs"}, "13": {"label": "*3", "atom_type": "Cs"}, "17": {"label": "*2", "atom_type": "H0"}}

>  <type>  (17) 
unop_13

>  <geom_source>  (17) 
AutoTST

$$$$
