
     RDKit          3D

 10  9  0  0  0  0  0  0  0  0999 V2000
    2.2738    0.0217   -0.0992 C   0  0  0  0  0  0  0  0  0  0  0  0
    1.1083    0.2960   -0.0695 C   0  0  0  0  0  0  0  0  0  0  0  0
   -0.3173    0.6046   -0.0227 C   0  0  0  0  0  0  0  0  0  0  0  0
   -1.1561   -0.5495    0.5292 C   0  0  0  0  0  0  0  0  0  0  0  0
    3.3097   -0.2166   -0.1277 H   0  0  0  0  0  0  0  0  0  0  0  0
   -0.6542    0.8617   -1.0302 H   0  0  0  0  0  0  0  0  0  0  0  0
   -0.4633    1.4978    0.5900 H   0  0  0  0  0  0  0  0  0  0  0  0
   -0.8485   -0.7997    1.5447 H   0  0  0  0  0  0  0  0  0  0  0  0
   -2.2115   -0.2752    0.5459 H   0  0  0  0  0  0  0  0  0  0  0  0
   -1.0409   -1.4407   -0.0879 H   0  0  0  0  0  0  0  0  0  0  0  0
  1  2  3  0
  1  5  1  0
  2  3  1  0
  3  4  1  0
  3  6  1  0
  3  7  1  0
  4  8  1  0
  4  9  1  0
  4 10  1  0
M  END
>  <reaction>  (1) 
rxn_1271

>  <mol_properties>  (1) 
{"2": {"label": "donator", "atom_type": "Cs"}, "5": {"label": "d_hydrogen", "atom_type": "H0"}}

>  <type>  (1) 
r1h

$$$$

     RDKit          3D

 14 14  0  0  0  0  0  0  0  0999 V2000
    2.3111    0.1295    0.0255 C   0  0  0  0  0  0  0  0  0  0  0  0
    0.9132    0.0511    0.0101 C   0  0  0  0  0  0  0  0  0  0  0  0
    0.2446   -1.1981    0.0389 C   0  0  0  0  0  3  0  0  0  0  0  0
   -1.1306   -1.2689    0.0235 C   0  0  0  0  0  0  0  0  0  0  0  0
   -1.8967   -0.1062   -0.0209 C   0  0  0  0  0  0  0  0  0  0  0  0
   -1.2644    1.1347   -0.0499 C   0  0  0  0  0  0  0  0  0  0  0  0
    0.1101    1.2180   -0.0350 C   0  0  0  0  0  0  0  0  0  0  0  0
    2.9188   -0.7647    0.0599 H   0  0  0  0  0  0  0  0  0  0  0  0
    2.8158    1.0859    0.0034 H   0  0  0  0  0  0  0  0  0  0  0  0
    0.8353   -2.1058    0.0735 H   0  0  0  0  0  0  0  0  0  0  0  0
   -1.6191   -2.2351    0.0461 H   0  0  0  0  0  0  0  0  0  0  0  0
   -2.9772   -0.1668   -0.0328 H   0  0  0  0  0  0  0  0  0  0  0  0
   -1.8572    2.0404   -0.0845 H   0  0  0  0  0  0  0  0  0  0  0  0
    0.5964    2.1860   -0.0577 H   0  0  0  0  0  0  0  0  0  0  0  0
  1  2  2  3
  1  8  1  0
  1  9  1  0
  2  3  1  0
  2  7  1  0
  3  4  1  0
  3 10  1  0
  4  5  2  0
  4 11  1  0
  5  6  1  0
  5 12  1  0
  6  7  2  0
  6 13  1  0
  7 14  1  0
M  RAD  1   3   2
M  END
>  <reaction>  (2) 
rxn_1271

>  <mol_properties>  (2) 
{"0": {"label": "acceptor", "atom_type": "Cs"}}

>  <type>  (2) 
r2

$$$$

     RDKit          3D

 15 15  0  0  0  0  0  0  0  0999 V2000
    2.2031   -0.2111   -0.1693 C   0  0  0  0  0  0  0  0  0  0  0  0
    0.7140   -0.0314   -0.0623 C   0  0  0  0  0  0  0  0  0  0  0  0
   -0.0114    0.5491   -1.0982 C   0  0  0  0  0  0  0  0  0  0  0  0
   -1.3882    0.6886   -1.0150 C   0  0  0  0  0  0  0  0  0  0  0  0
   -2.0661    0.2493    0.1118 C   0  0  0  0  0  0  0  0  0  0  0  0
   -1.3551   -0.3278    1.1528 C   0  0  0  0  0  0  0  0  0  0  0  0
    0.0216   -0.4648    1.0642 C   0  0  0  0  0  0  0  0  0  0  0  0
    2.6776   -0.1836    0.8122 H   0  0  0  0  0  0  0  0  0  0  0  0
    2.4446   -1.1749   -0.6249 H   0  0  0  0  0  0  0  0  0  0  0  0
    2.6532    0.5664   -0.7875 H   0  0  0  0  0  0  0  0  0  0  0  0
    0.5104    0.8989   -1.9819 H   0  0  0  0  0  0  0  0  0  0  0  0
   -1.9328    1.1452   -1.8322 H   0  0  0  0  0  0  0  0  0  0  0  0
   -3.1409    0.3597    0.1800 H   0  0  0  0  0  0  0  0  0  0  0  0
   -1.8736   -0.6702    2.0398 H   0  0  0  0  0  0  0  0  0  0  0  0
    0.5695   -0.9141    1.8849 H   0  0  0  0  0  0  0  0  0  0  0  0
  1  2  1  0
  1  8  1  0
  1  9  1  0
  1 10  1  0
  2  3  2  0
  2  7  1  0
  3  4  1  0
  3 11  1  0
  4  5  2  0
  4 12  1  0
  5  6  1  0
  5 13  1  0
  6  7  2  0
  6 14  1  0
  7 15  1  0
M  END
>  <reaction>  (3) 
rxn_1271

>  <mol_properties>  (3) 
{"0": {"label": "a_hydrogen", "atom_type": "H0"}, "1": {"label": "acceptor", "atom_type": "Cs"}}

>  <type>  (3) 
r2h

$$$$

     RDKit          3D

 24 23  0  0  0  0  0  0  0  0999 V2000
   -2.8592   -0.3162   -2.2544 C   0  0  0  0  0  0  0  0  0  0  0  0
   -2.7446   -0.0294   -1.0916 C   0  0  0  0  0  0  0  0  0  0  0  0
   -2.5393    0.2680    0.2869 C   0  0  0  0  0  0  0  0  0  0  0  0
   -1.8616    1.5801    0.6118 C   0  0  0  0  0  0  0  0  0  0  0  0
   -2.9823   -0.5535   -3.2835 H   0  0  0  0  0  0  0  0  0  0  0  0
   -1.6547   -0.6538    0.7007 H   0  0  0  0  0  0  0  0  0  0  0  0
   -3.4058    0.0415    0.9068 H   0  0  0  0  0  0  0  0  0  0  0  0
   -2.4969    2.4281    0.3442 H   0  0  0  0  0  0  0  0  0  0  0  0
   -1.6421    1.6405    1.6785 H   0  0  0  0  0  0  0  0  0  0  0  0
   -0.9226    1.6738    0.0648 H   0  0  0  0  0  0  0  0  0  0  0  0
   -0.6433   -1.4978    1.0078 C   0  0  0  0  0  0  0  0  0  0  0  0
    0.5739   -0.7787    0.6476 C   0  0  0  0  0  0  0  0  0  0  0  0
    1.3151   -0.0809    1.6070 C   0  0  0  0  0  3  0  0  0  0  0  0
    2.4229    0.6651    1.2462 C   0  0  0  0  0  0  0  0  0  0  0  0
    2.8137    0.7378   -0.0841 C   0  0  0  0  0  0  0  0  0  0  0  0
    2.0871    0.0530   -1.0489 C   0  0  0  0  0  0  0  0  0  0  0  0
    0.9810   -0.6958   -0.6888 C   0  0  0  0  0  0  0  0  0  0  0  0
   -0.7844   -1.7029    2.0657 H   0  0  0  0  0  0  0  0  0  0  0  0
   -0.9141   -2.3317    0.3653 H   0  0  0  0  0  0  0  0  0  0  0  0
    1.0131   -0.1295    2.6470 H   0  0  0  0  0  0  0  0  0  0  0  0
    2.9856    1.1939    2.0055 H   0  0  0  0  0  0  0  0  0  0  0  0
    3.6795    1.3228   -0.3666 H   0  0  0  0  0  0  0  0  0  0  0  0
    2.3846    0.1052   -2.0888 H   0  0  0  0  0  0  0  0  0  0  0  0
    0.4089   -1.2176   -1.4470 H   0  0  0  0  0  0  0  0  0  0  0  0
  1  2  3  0
  1  5  1  0
  2  3  1  0
  3  4  1  0
  3  6  1  0
  3  7  1  0
  4  8  1  0
  4  9  1  0
  4 10  1  0
 11 12  2  3
 11 18  1  0
 11 19  1  0
 12 13  1  0
 12 17  1  0
 13 14  1  0
 13 20  1  0
 14 15  2  0
 14 21  1  0
 15 16  1  0
 15 22  1  0
 16 17  2  0
 16 23  1  0
 17 24  1  0
M  RAD  1  13   2
M  END
>  <reaction>  (4) 
rxn_1271

>  <mol_properties>  (4) 
{"1": {"label": "*0", "atom_type": "Ct"}, "2": {"label": "*1", "atom_type": "Cs"}, "5": {"label": "*2", "atom_type": "H0"}, "10": {"label": "*3", "atom_type": "Cd"}, "11": {"label": "*4", "atom_type": "Cd"}}

>  <type>  (4) 
ts

$$$$

     RDKit          3D

 24 23  0  0  0  0  0  0  0  0999 V2000
   -2.2574   -0.2510   -3.7544 C   0  0  0  0  0  0  0  0  0  0  0  0
   -2.2574   -0.2510   -2.5567 C   0  0  0  0  0  0  0  0  0  0  0  0
   -2.2574   -0.2228   -1.0975 C   0  0  0  0  0  3  0  0  0  0  0  0
   -2.2573    1.1986   -0.5319 C   0  0  0  0  0  0  0  0  0  0  0  0
   -2.2574   -0.2510   -4.8177 H   0  0  0  0  0  0  0  0  0  0  0  0
   -1.2068   -0.8769   -0.6635 H   0  0  0  0  0  0  0  0  0  0  0  0
   -3.1329   -0.7679   -0.7358 H   0  0  0  0  0  0  0  0  0  0  0  0
   -3.1396    1.7464   -0.8634 H   0  0  0  0  0  0  0  0  0  0  0  0
   -2.2573    1.1713    0.5584 H   0  0  0  0  0  0  0  0  0  0  0  0
   -1.3751    1.7464   -0.8634 H   0  0  0  0  0  0  0  0  0  0  0  0
   -0.1585   -1.5296   -0.2304 C   0  0  0  0  0  0  0  0  0  0  0  0
    0.7364   -0.6437    0.5916 C   0  0  0  0  0  0  0  0  0  0  0  0
    0.8733   -0.8416    1.9622 C   0  0  0  0  0  0  0  0  0  0  0  0
    1.7206   -0.0457    2.7175 C   0  0  0  0  0  0  0  0  0  0  0  0
    2.4479    0.9677    2.1123 C   0  0  0  0  0  0  0  0  0  0  0  0
    2.3183    1.1780    0.7480 C   0  0  0  0  0  0  0  0  0  0  0  0
    1.4695    0.3790   -0.0024 C   0  0  0  0  0  0  0  0  0  0  0  0
   -0.9980   -1.9010    0.3582 H   0  0  0  0  0  0  0  0  0  0  0  0
    0.3923   -2.3973   -0.6024 H   0  0  0  0  0  0  0  0  0  0  0  0
    0.3059   -1.6294    2.4450 H   0  0  0  0  0  0  0  0  0  0  0  0
    1.8104   -0.2159    3.7832 H   0  0  0  0  0  0  0  0  0  0  0  0
    3.1082    1.5921    2.7006 H   0  0  0  0  0  0  0  0  0  0  0  0
    2.8779    1.9698    0.2655 H   0  0  0  0  0  0  0  0  0  0  0  0
    1.3720    0.5534   -1.0681 H   0  0  0  0  0  0  0  0  0  0  0  0
  1  2  3  0
  1  5  1  0
  2  3  1  0
  3  4  1  0
  3  7  1  0
  4  8  1  0
  4  9  1  0
  4 10  1  0
  6 11  1  0
 11 12  1  0
 11 18  1  0
 11 19  1  0
 12 13  2  0
 12 17  1  0
 13 14  1  0
 13 20  1  0
 14 15  2  0
 14 21  1  0
 15 16  1  0
 15 22  1  0
 16 17  2  0
 16 23  1  0
 17 24  1  0
M  RAD  1   3   2
M  END
>  <reaction>  (5) 
rxn_1271

>  <mol_properties>  (5) 
{"1": {"label": "*0", "atom_type": "Ct"}, "2": {"label": "*1", "atom_type": "Cs"}, "5": {"label": "*2", "atom_type": "H0"}, "10": {"label": "*3", "atom_type": "Cd"}, "11": {"label": "*4", "atom_type": "Cd"}}

>  <type>  (5) 
unop_1

>  <geom_source>  (5) 
Heuristics

$$$$

     RDKit          3D

 24 23  0  0  0  0  0  0  0  0999 V2000
   -2.5069    0.5751   -1.9004 C   0  0  0  0  0  0  0  0  0  0  0  0
   -2.5069    0.5751   -0.7027 C   0  0  0  0  0  0  0  0  0  0  0  0
   -2.5069    0.6033    0.7564 C   0  0  0  0  0  3  0  0  0  0  0  0
   -2.5069    2.0247    1.3220 C   0  0  0  0  0  0  0  0  0  0  0  0
   -2.5069    0.5751   -2.9637 H   0  0  0  0  0  0  0  0  0  0  0  0
   -1.4563   -0.0508    1.1905 H   0  0  0  0  0  0  0  0  0  0  0  0
   -3.3824    0.0582    1.1182 H   0  0  0  0  0  0  0  0  0  0  0  0
   -3.3891    2.5725    0.9906 H   0  0  0  0  0  0  0  0  0  0  0  0
   -2.5069    1.9974    2.4123 H   0  0  0  0  0  0  0  0  0  0  0  0
   -1.6246    2.5725    0.9906 H   0  0  0  0  0  0  0  0  0  0  0  0
   -0.4080   -0.7035    1.6236 C   0  0  0  0  0  0  0  0  0  0  0  0
    0.7334   -0.6140    0.6487 C   0  0  0  0  0  0  0  0  0  0  0  0
    2.0192   -0.3041    1.0811 C   0  0  0  0  0  0  0  0  0  0  0  0
    3.0791   -0.2506    0.1891 C   0  0  0  0  0  0  0  0  0  0  0  0
    2.8698   -0.5057   -1.1575 C   0  0  0  0  0  0  0  0  0  0  0  0
    1.5929   -0.8124   -1.6024 C   0  0  0  0  0  0  0  0  0  0  0  0
    0.5368   -0.8645   -0.7059 C   0  0  0  0  0  0  0  0  0  0  0  0
   -0.2594   -0.0334    2.4710 H   0  0  0  0  0  0  0  0  0  0  0  0
   -0.5006   -1.7184    2.0186 H   0  0  0  0  0  0  0  0  0  0  0  0
    2.1920   -0.0995    2.1318 H   0  0  0  0  0  0  0  0  0  0  0  0
    4.0714   -0.0054    0.5470 H   0  0  0  0  0  0  0  0  0  0  0  0
    3.6955   -0.4618   -1.8563 H   0  0  0  0  0  0  0  0  0  0  0  0
    1.4169   -1.0088   -2.6528 H   0  0  0  0  0  0  0  0  0  0  0  0
   -0.4589   -1.1016   -1.0638 H   0  0  0  0  0  0  0  0  0  0  0  0
  1  2  3  0
  1  5  1  0
  2  3  1  0
  3  4  1  0
  3  7  1  0
  4  8  1  0
  4  9  1  0
  4 10  1  0
  6 11  1  0
 11 12  1  0
 11 18  1  0
 11 19  1  0
 12 13  2  0
 12 17  1  0
 13 14  1  0
 13 20  1  0
 14 15  2  0
 14 21  1  0
 15 16  1  0
 15 22  1  0
 16 17  2  0
 16 23  1  0
 17 24  1  0
M  RAD  1   3   2
M  END
>  <reaction>  (6) 
rxn_1271

>  <mol_properties>  (6) 
{"1": {"label": "*0", "atom_type": "Ct"}, "2": {"label": "*1", "atom_type": "Cs"}, "5": {"label": "*2", "atom_type": "H0"}, "10": {"label": "*3", "atom_type": "Cd"}, "11": {"label": "*4", "atom_type": "Cd"}}

>  <type>  (6) 
unop_2

>  <geom_source>  (6) 
Heuristics

$$$$

     RDKit          3D

 24 23  0  0  0  0  0  0  0  0999 V2000
   -1.8344    0.0921   -4.2595 C   0  0  0  0  0  0  0  0  0  0  0  0
   -1.8344    0.0921   -3.0618 C   0  0  0  0  0  0  0  0  0  0  0  0
   -1.8344    0.1203   -1.6026 C   0  0  0  0  0  3  0  0  0  0  0  0
   -1.8344    1.5417   -1.0370 C   0  0  0  0  0  0  0  0  0  0  0  0
   -1.8344    0.0921   -5.3228 H   0  0  0  0  0  0  0  0  0  0  0  0
   -0.7838   -0.5338   -1.1686 H   0  0  0  0  0  0  0  0  0  0  0  0
   -2.7099   -0.4247   -1.2409 H   0  0  0  0  0  0  0  0  0  0  0  0
   -2.7166    2.0896   -1.3685 H   0  0  0  0  0  0  0  0  0  0  0  0
   -1.8344    1.5144    0.0533 H   0  0  0  0  0  0  0  0  0  0  0  0
   -0.9522    2.0895   -1.3685 H   0  0  0  0  0  0  0  0  0  0  0  0
    0.2645   -1.1865   -0.7355 C   0  0  0  0  0  0  0  0  0  0  0  0
    0.7466   -0.6370    0.5786 C   0  0  0  0  0  0  0  0  0  0  0  0
    0.8372   -1.4516    1.7031 C   0  0  0  0  0  0  0  0  0  0  0  0
    1.3098   -0.9553    2.9082 C   0  0  0  0  0  0  0  0  0  0  0  0
    1.7003    0.3711    3.0102 C   0  0  0  0  0  0  0  0  0  0  0  0
    1.6118    1.1947    1.8984 C   0  0  0  0  0  0  0  0  0  0  0  0
    1.1385    0.6930    0.6958 C   0  0  0  0  0  0  0  0  0  0  0  0
   -0.4447   -2.0017   -0.5884 H   0  0  0  0  0  0  0  0  0  0  0  0
    1.1002   -1.5787   -1.3206 H   0  0  0  0  0  0  0  0  0  0  0  0
    0.5309   -2.4894    1.6340 H   0  0  0  0  0  0  0  0  0  0  0  0
    1.3701   -1.6066    3.7714 H   0  0  0  0  0  0  0  0  0  0  0  0
    2.0671    0.7614    3.9510 H   0  0  0  0  0  0  0  0  0  0  0  0
    1.9096    2.2337    1.9677 H   0  0  0  0  0  0  0  0  0  0  0  0
    1.0696    1.3457   -0.1672 H   0  0  0  0  0  0  0  0  0  0  0  0
  1  2  3  0
  1  5  1  0
  2  3  1  0
  3  4  1  0
  3  7  1  0
  4  8  1  0
  4  9  1  0
  4 10  1  0
  6 11  1  0
 11 12  1  0
 11 18  1  0
 11 19  1  0
 12 13  2  0
 12 17  1  0
 13 14  1  0
 13 20  1  0
 14 15  2  0
 14 21  1  0
 15 16  1  0
 15 22  1  0
 16 17  2  0
 16 23  1  0
 17 24  1  0
M  RAD  1   3   2
M  END
>  <reaction>  (7) 
rxn_1271

>  <mol_properties>  (7) 
{"1": {"label": "*0", "atom_type": "Ct"}, "2": {"label": "*1", "atom_type": "Cs"}, "5": {"label": "*2", "atom_type": "H0"}, "10": {"label": "*3", "atom_type": "Cd"}, "11": {"label": "*4", "atom_type": "Cd"}}

>  <type>  (7) 
unop_3

>  <geom_source>  (7) 
Heuristics

$$$$

     RDKit          3D

 24 23  0  0  0  0  0  0  0  0999 V2000
   -1.2942    2.1376   -2.4446 C   0  0  0  0  0  0  0  0  0  0  0  0
   -1.2942    2.1376   -1.2469 C   0  0  0  0  0  0  0  0  0  0  0  0
   -1.2942    2.1658    0.2122 C   0  0  0  0  0  3  0  0  0  0  0  0
   -1.2942    3.5872    0.7779 C   0  0  0  0  0  0  0  0  0  0  0  0
   -1.2942    2.1376   -3.5079 H   0  0  0  0  0  0  0  0  0  0  0  0
   -0.2436    1.5117    0.6463 H   0  0  0  0  0  0  0  0  0  0  0  0
   -2.1697    1.6207    0.5740 H   0  0  0  0  0  0  0  0  0  0  0  0
   -2.1764    4.1350    0.4464 H   0  0  0  0  0  0  0  0  0  0  0  0
   -1.2942    3.5599    1.8681 H   0  0  0  0  0  0  0  0  0  0  0  0
   -0.4120    4.1350    0.4464 H   0  0  0  0  0  0  0  0  0  0  0  0
    0.8047    0.8590    1.0794 C   0  0  0  0  0  0  0  0  0  0  0  0
    0.7863   -0.5726    0.6195 C   0  0  0  0  0  0  0  0  0  0  0  0
    1.7800   -1.4625    1.0153 C   0  0  0  0  0  0  0  0  0  0  0  0
    1.7493   -2.7902    0.6176 C   0  0  0  0  0  0  0  0  0  0  0  0
    0.7200   -3.2524   -0.1881 C   0  0  0  0  0  0  0  0  0  0  0  0
   -0.2748   -2.3755   -0.5926 C   0  0  0  0  0  0  0  0  0  0  0  0
   -0.2390   -1.0488   -0.1918 C   0  0  0  0  0  0  0  0  0  0  0  0
    1.8241    1.2102    1.2427 H   0  0  0  0  0  0  0  0  0  0  0  0
    0.2634    0.9692    2.0225 H   0  0  0  0  0  0  0  0  0  0  0  0
    2.5910   -1.1095    1.6425 H   0  0  0  0  0  0  0  0  0  0  0  0
    2.5343   -3.4652    0.9357 H   0  0  0  0  0  0  0  0  0  0  0  0
    0.6954   -4.2882   -0.5020 H   0  0  0  0  0  0  0  0  0  0  0  0
   -1.0811   -2.7244   -1.2259 H   0  0  0  0  0  0  0  0  0  0  0  0
   -1.0195   -0.3696   -0.5162 H   0  0  0  0  0  0  0  0  0  0  0  0
  1  2  3  0
  1  5  1  0
  2  3  1  0
  3  4  1  0
  3  7  1  0
  4  8  1  0
  4  9  1  0
  4 10  1  0
  6 11  1  0
 11 12  1  0
 11 18  1  0
 11 19  1  0
 12 13  2  0
 12 17  1  0
 13 14  1  0
 13 20  1  0
 14 15  2  0
 14 21  1  0
 15 16  1  0
 15 22  1  0
 16 17  2  0
 16 23  1  0
 17 24  1  0
M  RAD  1   3   2
M  END
>  <reaction>  (8) 
rxn_1271

>  <mol_properties>  (8) 
{"1": {"label": "*0", "atom_type": "Ct"}, "2": {"label": "*1", "atom_type": "Cs"}, "5": {"label": "*2", "atom_type": "H0"}, "10": {"label": "*3", "atom_type": "Cd"}, "11": {"label": "*4", "atom_type": "Cd"}}

>  <type>  (8) 
unop_4

>  <geom_source>  (8) 
Heuristics

$$$$

     RDKit          3D

 24 23  0  0  0  0  0  0  0  0999 V2000
   -1.3977    0.6543   -4.4558 C   0  0  0  0  0  0  0  0  0  0  0  0
   -1.3977    0.6543   -3.2581 C   0  0  0  0  0  0  0  0  0  0  0  0
   -1.3977    0.6825   -1.7990 C   0  0  0  0  0  3  0  0  0  0  0  0
   -1.3977    2.1039   -1.2334 C   0  0  0  0  0  0  0  0  0  0  0  0
   -1.3977    0.6543   -5.5191 H   0  0  0  0  0  0  0  0  0  0  0  0
   -0.3471    0.0284   -1.3649 H   0  0  0  0  0  0  0  0  0  0  0  0
   -2.2732    0.1374   -1.4373 H   0  0  0  0  0  0  0  0  0  0  0  0
   -2.2799    2.6517   -1.5648 H   0  0  0  0  0  0  0  0  0  0  0  0
   -1.3977    2.0766   -0.1431 H   0  0  0  0  0  0  0  0  0  0  0  0
   -0.5155    2.6517   -1.5648 H   0  0  0  0  0  0  0  0  0  0  0  0
    0.7012   -0.6243   -0.9318 C   0  0  0  0  0  0  0  0  0  0  0  0
    0.7588   -0.6316    0.5708 C   0  0  0  0  0  0  0  0  0  0  0  0
    1.3611   -1.6815    1.2572 C   0  0  0  0  0  0  0  0  0  0  0  0
    1.4424   -1.6764    2.6412 C   0  0  0  0  0  0  0  0  0  0  0  0
    0.9188   -0.6167    3.3659 C   0  0  0  0  0  0  0  0  0  0  0  0
    0.3128    0.4343    2.6946 C   0  0  0  0  0  0  0  0  0  0  0  0
    0.2343    0.4239    1.3106 C   0  0  0  0  0  0  0  0  0  0  0  0
    0.6611   -1.6379   -1.3322 H   0  0  0  0  0  0  0  0  0  0  0  0
    1.5869   -0.1397   -1.3505 H   0  0  0  0  0  0  0  0  0  0  0  0
    1.7702   -2.5163    0.6993 H   0  0  0  0  0  0  0  0  0  0  0  0
    1.9137   -2.5049    3.1552 H   0  0  0  0  0  0  0  0  0  0  0  0
    0.9789   -0.6119    4.4468 H   0  0  0  0  0  0  0  0  0  0  0  0
   -0.1038    1.2650    3.2507 H   0  0  0  0  0  0  0  0  0  0  0  0
   -0.2446    1.2486    0.7947 H   0  0  0  0  0  0  0  0  0  0  0  0
  1  2  3  0
  1  5  1  0
  2  3  1  0
  3  4  1  0
  3  7  1  0
  4  8  1  0
  4  9  1  0
  4 10  1  0
  6 11  1  0
 11 12  1  0
 11 18  1  0
 11 19  1  0
 12 13  2  0
 12 17  1  0
 13 14  1  0
 13 20  1  0
 14 15  2  0
 14 21  1  0
 15 16  1  0
 15 22  1  0
 16 17  2  0
 16 23  1  0
 17 24  1  0
M  RAD  1   3   2
M  END
>  <reaction>  (9) 
rxn_1271

>  <mol_properties>  (9) 
{"1": {"label": "*0", "atom_type": "Ct"}, "2": {"label": "*1", "atom_type": "Cs"}, "5": {"label": "*2", "atom_type": "H0"}, "10": {"label": "*3", "atom_type": "Cd"}, "11": {"label": "*4", "atom_type": "Cd"}}

>  <type>  (9) 
unop_5

>  <geom_source>  (9) 
Heuristics

$$$$

     RDKit          3D

 24 23  0  0  0  0  0  0  0  0999 V2000
   -0.9960    2.1551   -3.1326 C   0  0  0  0  0  0  0  0  0  0  0  0
   -0.9960    2.1551   -1.9349 C   0  0  0  0  0  0  0  0  0  0  0  0
   -0.9960    2.1833   -0.4757 C   0  0  0  0  0  3  0  0  0  0  0  0
   -0.9960    3.6047    0.0899 C   0  0  0  0  0  0  0  0  0  0  0  0
   -0.9960    2.1551   -4.1959 H   0  0  0  0  0  0  0  0  0  0  0  0
    0.0546    1.5292   -0.0417 H   0  0  0  0  0  0  0  0  0  0  0  0
   -1.8715    1.6383   -0.1140 H   0  0  0  0  0  0  0  0  0  0  0  0
   -1.8782    4.1526   -0.2416 H   0  0  0  0  0  0  0  0  0  0  0  0
   -0.9960    3.5774    1.1802 H   0  0  0  0  0  0  0  0  0  0  0  0
   -0.1137    4.1526   -0.2416 H   0  0  0  0  0  0  0  0  0  0  0  0
    1.1029    0.8765    0.3914 C   0  0  0  0  0  0  0  0  0  0  0  0
    0.7941   -0.5809    0.5954 C   0  0  0  0  0  0  0  0  0  0  0  0
    1.6931   -1.4163    1.2512 C   0  0  0  0  0  0  0  0  0  0  0  0
    1.3981   -2.7536    1.4674 C   0  0  0  0  0  0  0  0  0  0  0  0
    0.1936   -3.2811    1.0278 C   0  0  0  0  0  0  0  0  0  0  0  0
   -0.7098   -2.4606    0.3698 C   0  0  0  0  0  0  0  0  0  0  0  0
   -0.4095   -1.1241    0.1564 C   0  0  0  0  0  0  0  0  0  0  0  0
    2.1765    1.0459    0.3023 H   0  0  0  0  0  0  0  0  0  0  0  0
    0.7451    1.4697    1.2369 H   0  0  0  0  0  0  0  0  0  0  0  0
    2.6392   -1.0137    1.5955 H   0  0  0  0  0  0  0  0  0  0  0  0
    2.1133   -3.3863    1.9783 H   0  0  0  0  0  0  0  0  0  0  0  0
   -0.0377   -4.3256    1.1932 H   0  0  0  0  0  0  0  0  0  0  0  0
   -1.6516   -2.8630    0.0179 H   0  0  0  0  0  0  0  0  0  0  0  0
   -1.1207   -0.4911   -0.3623 H   0  0  0  0  0  0  0  0  0  0  0  0
  1  2  3  0
  1  5  1  0
  2  3  1  0
  3  4  1  0
  3  7  1  0
  4  8  1  0
  4  9  1  0
  4 10  1  0
  6 11  1  0
 11 12  1  0
 11 18  1  0
 11 19  1  0
 12 13  2  0
 12 17  1  0
 13 14  1  0
 13 20  1  0
 14 15  2  0
 14 21  1  0
 15 16  1  0
 15 22  1  0
 16 17  2  0
 16 23  1  0
 17 24  1  0
M  RAD  1   3   2
M  END
>  <reaction>  (10) 
rxn_1271

>  <mol_properties>  (10) 
{"1": {"label": "*0", "atom_type": "Ct"}, "2": {"label": "*1", "atom_type": "Cs"}, "5": {"label": "*2", "atom_type": "H0"}, "10": {"label": "*3", "atom_type": "Cd"}, "11": {"label": "*4", "atom_type": "Cd"}}

>  <type>  (10) 
unop_6

>  <geom_source>  (10) 
Heuristics

$$$$

     RDKit          3D

 24 23  0  0  0  0  0  0  0  0999 V2000
   -0.9086    1.8457   -3.8099 C   0  0  0  0  0  0  0  0  0  0  0  0
   -0.9086    1.8457   -2.6122 C   0  0  0  0  0  0  0  0  0  0  0  0
   -0.9086    1.8739   -1.1531 C   0  0  0  0  0  3  0  0  0  0  0  0
   -0.9086    3.2953   -0.5875 C   0  0  0  0  0  0  0  0  0  0  0  0
   -0.9086    1.8457   -4.8732 H   0  0  0  0  0  0  0  0  0  0  0  0
    0.1420    1.2198   -0.7190 H   0  0  0  0  0  0  0  0  0  0  0  0
   -1.7841    1.3289   -0.7914 H   0  0  0  0  0  0  0  0  0  0  0  0
   -1.7908    3.8432   -0.9189 H   0  0  0  0  0  0  0  0  0  0  0  0
   -0.9086    3.2680    0.5028 H   0  0  0  0  0  0  0  0  0  0  0  0
   -0.0263    3.8432   -0.9189 H   0  0  0  0  0  0  0  0  0  0  0  0
    1.1903    0.5671   -0.2859 C   0  0  0  0  0  0  0  0  0  0  0  0
    0.7913   -0.5988    0.5758 C   0  0  0  0  0  0  0  0  0  0  0  0
    1.7389   -1.2924    1.3222 C   0  0  0  0  0  0  0  0  0  0  0  0
    1.3697   -2.3486    2.1408 C   0  0  0  0  0  0  0  0  0  0  0  0
    0.0400   -2.7320    2.2260 C   0  0  0  0  0  0  0  0  0  0  0  0
   -0.9140   -2.0517    1.4849 C   0  0  0  0  0  0  0  0  0  0  0  0
   -0.5391   -0.9963    0.6680 C   0  0  0  0  0  0  0  0  0  0  0  0
    2.2090    0.4548   -0.6585 H   0  0  0  0  0  0  0  0  0  0  0  0
    1.1484    1.5000    0.2821 H   0  0  0  0  0  0  0  0  0  0  0  0
    2.7817   -1.0022    1.2593 H   0  0  0  0  0  0  0  0  0  0  0  0
    2.1241   -2.8759    2.7115 H   0  0  0  0  0  0  0  0  0  0  0  0
   -0.2502   -3.5582    2.8626 H   0  0  0  0  0  0  0  0  0  0  0  0
   -1.9549   -2.3456    1.5401 H   0  0  0  0  0  0  0  0  0  0  0  0
   -1.2918   -0.4726    0.0894 H   0  0  0  0  0  0  0  0  0  0  0  0
  1  2  3  0
  1  5  1  0
  2  3  1  0
  3  4  1  0
  3  7  1  0
  4  8  1  0
  4  9  1  0
  4 10  1  0
  6 11  1  0
 11 12  1  0
 11 18  1  0
 11 19  1  0
 12 13  2  0
 12 17  1  0
 13 14  1  0
 13 20  1  0
 14 15  2  0
 14 21  1  0
 15 16  1  0
 15 22  1  0
 16 17  2  0
 16 23  1  0
 17 24  1  0
M  RAD  1   3   2
M  END
>  <reaction>  (11) 
rxn_1271

>  <mol_properties>  (11) 
{"1": {"label": "*0", "atom_type": "Ct"}, "2": {"label": "*1", "atom_type": "Cs"}, "5": {"label": "*2", "atom_type": "H0"}, "10": {"label": "*3", "atom_type": "Cd"}, "11": {"label": "*4", "atom_type": "Cd"}}

>  <type>  (11) 
unop_7

>  <geom_source>  (11) 
Heuristics

$$$$

     RDKit          3D

 24 23  0  0  0  0  0  0  0  0999 V2000
   -2.5561   -0.2772   -3.0707 C   0  0  0  0  0  0  0  0  0  0  0  0
   -2.5561   -0.2772   -1.8730 C   0  0  0  0  0  0  0  0  0  0  0  0
   -2.5561   -0.2490   -0.4138 C   0  0  0  0  0  3  0  0  0  0  0  0
   -2.5561    1.1724    0.1518 C   0  0  0  0  0  0  0  0  0  0  0  0
   -2.5561   -0.2772   -4.1340 H   0  0  0  0  0  0  0  0  0  0  0  0
   -1.5055   -0.9031    0.0202 H   0  0  0  0  0  0  0  0  0  0  0  0
   -3.4316   -0.7941   -0.0521 H   0  0  0  0  0  0  0  0  0  0  0  0
   -3.4383    1.7202   -0.1797 H   0  0  0  0  0  0  0  0  0  0  0  0
   -2.5561    1.1451    1.2421 H   0  0  0  0  0  0  0  0  0  0  0  0
   -1.6739    1.7202   -0.1797 H   0  0  0  0  0  0  0  0  0  0  0  0
   -0.4572   -1.5558    0.4533 C   0  0  0  0  0  0  0  0  0  0  0  0
    0.7280   -0.6440    0.6115 C   0  0  0  0  0  0  0  0  0  0  0  0
    1.2330   -0.3415    1.8723 C   0  0  0  0  0  0  0  0  0  0  0  0
    2.3440    0.4745    2.0197 C   0  0  0  0  0  0  0  0  0  0  0  0
    2.9710    1.0059    0.9031 C   0  0  0  0  0  0  0  0  0  0  0  0
    2.4761    0.7154   -0.3590 C   0  0  0  0  0  0  0  0  0  0  0  0
    1.3648   -0.1013   -0.5004 C   0  0  0  0  0  0  0  0  0  0  0  0
   -1.1259   -1.4898    1.3122 H   0  0  0  0  0  0  0  0  0  0  0  0
   -0.1355   -2.5967    0.3658 H   0  0  0  0  0  0  0  0  0  0  0  0
    0.7472   -0.7495    2.7516 H   0  0  0  0  0  0  0  0  0  0  0  0
    2.7191    0.6986    3.0106 H   0  0  0  0  0  0  0  0  0  0  0  0
    3.8371    1.6455    1.0159 H   0  0  0  0  0  0  0  0  0  0  0  0
    2.9550    1.1288   -1.2380 H   0  0  0  0  0  0  0  0  0  0  0  0
    0.9829   -0.3199   -1.4913 H   0  0  0  0  0  0  0  0  0  0  0  0
  1  2  3  0
  1  5  1  0
  2  3  1  0
  3  4  1  0
  3  7  1  0
  4  8  1  0
  4  9  1  0
  4 10  1  0
  6 11  1  0
 11 12  1  0
 11 18  1  0
 11 19  1  0
 12 13  2  0
 12 17  1  0
 13 14  1  0
 13 20  1  0
 14 15  2  0
 14 21  1  0
 15 16  1  0
 15 22  1  0
 16 17  2  0
 16 23  1  0
 17 24  1  0
M  RAD  1   3   2
M  END
>  <reaction>  (12) 
rxn_1271

>  <mol_properties>  (12) 
{"1": {"label": "*0", "atom_type": "Ct"}, "2": {"label": "*1", "atom_type": "Cs"}, "5": {"label": "*2", "atom_type": "H0"}, "10": {"label": "*3", "atom_type": "Cd"}, "11": {"label": "*4", "atom_type": "Cd"}}

>  <type>  (12) 
unop_8

>  <geom_source>  (12) 
Heuristics

$$$$

     RDKit          3D

 24 23  0  0  0  0  0  0  0  0999 V2000
   -1.7233    1.7973   -1.9313 C   0  0  0  0  0  0  0  0  0  0  0  0
   -1.7233    1.7973   -0.7336 C   0  0  0  0  0  0  0  0  0  0  0  0
   -1.7233    1.8255    0.7255 C   0  0  0  0  0  3  0  0  0  0  0  0
   -1.7233    3.2469    1.2912 C   0  0  0  0  0  0  0  0  0  0  0  0
   -1.7233    1.7973   -2.9946 H   0  0  0  0  0  0  0  0  0  0  0  0
   -0.6727    1.1714    1.1596 H   0  0  0  0  0  0  0  0  0  0  0  0
   -2.5988    1.2804    1.0873 H   0  0  0  0  0  0  0  0  0  0  0  0
   -2.6055    3.7948    0.9597 H   0  0  0  0  0  0  0  0  0  0  0  0
   -1.7233    3.2196    2.3814 H   0  0  0  0  0  0  0  0  0  0  0  0
   -0.8410    3.7947    0.9597 H   0  0  0  0  0  0  0  0  0  0  0  0
    0.3756    0.5187    1.5927 C   0  0  0  0  0  0  0  0  0  0  0  0
    0.7700   -0.5765    0.6407 C   0  0  0  0  0  0  0  0  0  0  0  0
    1.9806   -1.2470    0.7857 C   0  0  0  0  0  0  0  0  0  0  0  0
    2.3334   -2.2774   -0.0721 C   0  0  0  0  0  0  0  0  0  0  0  0
    1.4779   -2.6555   -1.0956 C   0  0  0  0  0  0  0  0  0  0  0  0
    0.2700   -1.9934   -1.2535 C   0  0  0  0  0  0  0  0  0  0  0  0
   -0.0776   -0.9638   -0.3927 C   0  0  0  0  0  0  0  0  0  0  0  0
    1.2506    1.0412    1.9807 H   0  0  0  0  0  0  0  0  0  0  0  0
   -0.1699    0.1104    2.4473 H   0  0  0  0  0  0  0  0  0  0  0  0
    2.6577   -0.9560    1.5810 H   0  0  0  0  0  0  0  0  0  0  0  0
    3.2815   -2.7844    0.0578 H   0  0  0  0  0  0  0  0  0  0  0  0
    1.7526   -3.4581   -1.7682 H   0  0  0  0  0  0  0  0  0  0  0  0
   -0.4038   -2.2772   -2.0524 H   0  0  0  0  0  0  0  0  0  0  0  0
   -1.0227   -0.4495   -0.5263 H   0  0  0  0  0  0  0  0  0  0  0  0
  1  2  3  0
  1  5  1  0
  2  3  1  0
  3  4  1  0
  3  7  1  0
  4  8  1  0
  4  9  1  0
  4 10  1  0
  6 11  1  0
 11 12  1  0
 11 18  1  0
 11 19  1  0
 12 13  2  0
 12 17  1  0
 13 14  1  0
 13 20  1  0
 14 15  2  0
 14 21  1  0
 15 16  1  0
 15 22  1  0
 16 17  2  0
 16 23  1  0
 17 24  1  0
M  RAD  1   3   2
M  END
>  <reaction>  (13) 
rxn_1271

>  <mol_properties>  (13) 
{"1": {"label": "*0", "atom_type": "Ct"}, "2": {"label": "*1", "atom_type": "Cs"}, "5": {"label": "*2", "atom_type": "H0"}, "10": {"label": "*3", "atom_type": "Cd"}, "11": {"label": "*4", "atom_type": "Cd"}}

>  <type>  (13) 
unop_9

>  <geom_source>  (13) 
Heuristics

$$$$

     RDKit          3D

 24 23  0  0  0  0  0  0  0  0999 V2000
   -2.6484    0.0247   -2.3914 C   0  0  0  0  0  0  0  0  0  0  0  0
   -2.6484    0.0247   -1.1937 C   0  0  0  0  0  0  0  0  0  0  0  0
   -2.6484    0.0529    0.2654 C   0  0  0  0  0  3  0  0  0  0  0  0
   -2.6484    1.4743    0.8310 C   0  0  0  0  0  0  0  0  0  0  0  0
   -2.6484    0.0247   -3.4547 H   0  0  0  0  0  0  0  0  0  0  0  0
   -1.5978   -0.6012    0.6995 H   0  0  0  0  0  0  0  0  0  0  0  0
   -3.5239   -0.4922    0.6271 H   0  0  0  0  0  0  0  0  0  0  0  0
   -3.5306    2.0221    0.4996 H   0  0  0  0  0  0  0  0  0  0  0  0
   -2.6484    1.4470    1.9213 H   0  0  0  0  0  0  0  0  0  0  0  0
   -1.7662    2.0221    0.4996 H   0  0  0  0  0  0  0  0  0  0  0  0
   -0.5495   -1.2539    1.1326 C   0  0  0  0  0  0  0  0  0  0  0  0
    0.7260   -0.6336    0.6330 C   0  0  0  0  0  0  0  0  0  0  0  0
    1.6736   -0.1353    1.5218 C   0  0  0  0  0  0  0  0  0  0  0  0
    2.8638    0.4097    1.0653 C   0  0  0  0  0  0  0  0  0  0  0  0
    3.1271    0.4674   -0.2947 C   0  0  0  0  0  0  0  0  0  0  0  0
    2.1900   -0.0224   -1.1914 C   0  0  0  0  0  0  0  0  0  0  0  0
    1.0015   -0.5663   -0.7293 C   0  0  0  0  0  0  0  0  0  0  0  0
   -0.8624   -0.8105    2.0785 H   0  0  0  0  0  0  0  0  0  0  0  0
   -0.4189   -2.3262    1.2989 H   0  0  0  0  0  0  0  0  0  0  0  0
    1.4750   -0.1728    2.5871 H   0  0  0  0  0  0  0  0  0  0  0  0
    3.5865    0.7936    1.7747 H   0  0  0  0  0  0  0  0  0  0  0  0
    4.0547    0.8950   -0.6535 H   0  0  0  0  0  0  0  0  0  0  0  0
    2.3830    0.0219   -2.2562 H   0  0  0  0  0  0  0  0  0  0  0  0
    0.2732   -0.9435   -1.4384 H   0  0  0  0  0  0  0  0  0  0  0  0
  1  2  3  0
  1  5  1  0
  2  3  1  0
  3  4  1  0
  3  7  1  0
  4  8  1  0
  4  9  1  0
  4 10  1  0
  6 11  1  0
 11 12  1  0
 11 18  1  0
 11 19  1  0
 12 13  2  0
 12 17  1  0
 13 14  1  0
 13 20  1  0
 14 15  2  0
 14 21  1  0
 15 16  1  0
 15 22  1  0
 16 17  2  0
 16 23  1  0
 17 24  1  0
M  RAD  1   3   2
M  END
>  <reaction>  (14) 
rxn_1271

>  <mol_properties>  (14) 
{"1": {"label": "*0", "atom_type": "Ct"}, "2": {"label": "*1", "atom_type": "Cs"}, "5": {"label": "*2", "atom_type": "H0"}, "10": {"label": "*3", "atom_type": "Cd"}, "11": {"label": "*4", "atom_type": "Cd"}}

>  <type>  (14) 
unop_10

>  <geom_source>  (14) 
Heuristics

$$$$

     RDKit          3D

 24 23  0  0  0  0  0  0  0  0999 V2000
   -1.0563    1.2941   -4.2940 C   0  0  0  0  0  0  0  0  0  0  0  0
   -1.0563    1.2941   -3.0963 C   0  0  0  0  0  0  0  0  0  0  0  0
   -1.0563    1.3223   -1.6372 C   0  0  0  0  0  3  0  0  0  0  0  0
   -1.0563    2.7437   -1.0716 C   0  0  0  0  0  0  0  0  0  0  0  0
   -1.0563    1.2941   -5.3574 H   0  0  0  0  0  0  0  0  0  0  0  0
   -0.0057    0.6682   -1.2031 H   0  0  0  0  0  0  0  0  0  0  0  0
   -1.9318    0.7773   -1.2755 H   0  0  0  0  0  0  0  0  0  0  0  0
   -1.9385    3.2916   -1.4030 H   0  0  0  0  0  0  0  0  0  0  0  0
   -1.0563    2.7164    0.0187 H   0  0  0  0  0  0  0  0  0  0  0  0
   -0.1741    3.2916   -1.4030 H   0  0  0  0  0  0  0  0  0  0  0  0
    1.0426    0.0156   -0.7700 C   0  0  0  0  0  0  0  0  0  0  0  0
    0.7776   -0.6196    0.5670 C   0  0  0  0  0  0  0  0  0  0  0  0
    1.7612   -1.3635    1.2116 C   0  0  0  0  0  0  0  0  0  0  0  0
    1.5300   -1.9250    2.4578 C   0  0  0  0  0  0  0  0  0  0  0  0
    0.3046   -1.7525    3.0832 C   0  0  0  0  0  0  0  0  0  0  0  0
   -0.6854   -1.0164    2.4505 C   0  0  0  0  0  0  0  0  0  0  0  0
   -0.4487   -0.4572    1.2042 C   0  0  0  0  0  0  0  0  0  0  0  0
    1.7614   -0.5648   -1.3495 H   0  0  0  0  0  0  0  0  0  0  0  0
    1.4543    1.0204   -0.6461 H   0  0  0  0  0  0  0  0  0  0  0  0
    2.7214   -1.5069    0.7288 H   0  0  0  0  0  0  0  0  0  0  0  0
    2.3090   -2.5020    2.9406 H   0  0  0  0  0  0  0  0  0  0  0  0
    0.1211   -2.1922    4.0552 H   0  0  0  0  0  0  0  0  0  0  0  0
   -1.6480   -0.8791    2.9275 H   0  0  0  0  0  0  0  0  0  0  0  0
   -1.2303    0.1138    0.7157 H   0  0  0  0  0  0  0  0  0  0  0  0
  1  2  3  0
  1  5  1  0
  2  3  1  0
  3  4  1  0
  3  7  1  0
  4  8  1  0
  4  9  1  0
  4 10  1  0
  6 11  1  0
 11 12  1  0
 11 18  1  0
 11 19  1  0
 12 13  2  0
 12 17  1  0
 13 14  1  0
 13 20  1  0
 14 15  2  0
 14 21  1  0
 15 16  1  0
 15 22  1  0
 16 17  2  0
 16 23  1  0
 17 24  1  0
M  RAD  1   3   2
M  END
>  <reaction>  (15) 
rxn_1271

>  <mol_properties>  (15) 
{"1": {"label": "*0", "atom_type": "Ct"}, "2": {"label": "*1", "atom_type": "Cs"}, "5": {"label": "*2", "atom_type": "H0"}, "10": {"label": "*3", "atom_type": "Cd"}, "11": {"label": "*4", "atom_type": "Cd"}}

>  <type>  (15) 
unop_11

>  <geom_source>  (15) 
Heuristics

$$$$

     RDKit          3D

 24 23  0  0  0  0  0  0  0  0999 V2000
   -2.1679    1.2250   -1.7316 C   0  0  0  0  0  0  0  0  0  0  0  0
   -2.1679    1.2250   -0.5339 C   0  0  0  0  0  0  0  0  0  0  0  0
   -2.1679    1.2532    0.9252 C   0  0  0  0  0  3  0  0  0  0  0  0
   -2.1679    2.6746    1.4908 C   0  0  0  0  0  0  0  0  0  0  0  0
   -2.1679    1.2250   -2.7950 H   0  0  0  0  0  0  0  0  0  0  0  0
   -1.1173    0.5991    1.3593 H   0  0  0  0  0  0  0  0  0  0  0  0
   -3.0434    0.7081    1.2869 H   0  0  0  0  0  0  0  0  0  0  0  0
   -3.0501    3.2224    1.1594 H   0  0  0  0  0  0  0  0  0  0  0  0
   -2.1679    2.6473    2.5811 H   0  0  0  0  0  0  0  0  0  0  0  0
   -1.2856    3.2224    1.1594 H   0  0  0  0  0  0  0  0  0  0  0  0
   -0.0690   -0.0536    1.7924 C   0  0  0  0  0  0  0  0  0  0  0  0
    0.7499   -0.5920    0.6519 C   0  0  0  0  0  0  0  0  0  0  0  0
    2.1235   -0.7724    0.7818 C   0  0  0  0  0  0  0  0  0  0  0  0
    2.8763   -1.2968   -0.2575 C   0  0  0  0  0  0  0  0  0  0  0  0
    2.2655   -1.6501   -1.4509 C   0  0  0  0  0  0  0  0  0  0  0  0
    0.8980   -1.4724   -1.5950 C   0  0  0  0  0  0  0  0  0  0  0  0
    0.1501   -0.9476   -0.5524 C   0  0  0  0  0  0  0  0  0  0  0  0
    0.5173    0.6199    2.4184 H   0  0  0  0  0  0  0  0  0  0  0  0
   -0.4272   -0.8667    2.4290 H   0  0  0  0  0  0  0  0  0  0  0  0
    2.6107   -0.4956    1.7100 H   0  0  0  0  0  0  0  0  0  0  0  0
    3.9446   -1.4268   -0.1355 H   0  0  0  0  0  0  0  0  0  0  0  0
    2.8518   -2.0574   -2.2648 H   0  0  0  0  0  0  0  0  0  0  0  0
    0.4110   -1.7405   -2.5245 H   0  0  0  0  0  0  0  0  0  0  0  0
   -0.9182   -0.8089   -0.6757 H   0  0  0  0  0  0  0  0  0  0  0  0
  1  2  3  0
  1  5  1  0
  2  3  1  0
  3  4  1  0
  3  7  1  0
  4  8  1  0
  4  9  1  0
  4 10  1  0
  6 11  1  0
 11 12  1  0
 11 18  1  0
 11 19  1  0
 12 13  2  0
 12 17  1  0
 13 14  1  0
 13 20  1  0
 14 15  2  0
 14 21  1  0
 15 16  1  0
 15 22  1  0
 16 17  2  0
 16 23  1  0
 17 24  1  0
M  RAD  1   3   2
M  END
>  <reaction>  (16) 
rxn_1271

>  <mol_properties>  (16) 
{"1": {"label": "*0", "atom_type": "Ct"}, "2": {"label": "*1", "atom_type": "Cs"}, "5": {"label": "*2", "atom_type": "H0"}, "10": {"label": "*3", "atom_type": "Cd"}, "11": {"label": "*4", "atom_type": "Cd"}}

>  <type>  (16) 
unop_12

>  <geom_source>  (16) 
Heuristics

$$$$

     RDKit          3D

 24 23  0  0  0  0  0  0  0  0999 V2000
    0.1989   -0.4448   -1.2508 C   0  0  0  0  0  0  0  0  0  0  0  0
    2.4050    1.2274    0.9892 C   0  0  0  0  0  0  0  0  0  0  0  0
   -1.1388   -0.2117   -0.6162 C   0  0  0  0  0  0  0  0  0  0  0  0
   -1.3892    0.9773    0.0868 C   0  0  0  0  0  0  0  0  0  0  0  0
   -2.1716   -1.1496   -0.7763 C   0  0  0  0  0  0  0  0  0  0  0  0
   -2.6490    1.2104    0.6481 C   0  0  0  0  0  0  0  0  0  0  0  0
   -3.4300   -0.9130   -0.2136 C   0  0  0  0  0  0  0  0  0  0  0  0
   -3.6678    0.2649    0.5002 C   0  0  0  0  0  0  0  0  0  0  0  0
    2.4789    0.2264   -0.1546 C   0  0  0  0  0  3  0  0  0  0  0  0
    3.3074   -0.9262    0.2157 C   0  0  0  0  0  0  0  0  0  0  0  0
    3.9879   -1.8738    0.5193 C   0  0  0  0  0  0  0  0  0  0  0  0
    0.1865   -0.0588   -2.2914 H   0  0  0  0  0  0  0  0  0  0  0  0
    0.4392   -1.5292   -1.2682 H   0  0  0  0  0  0  0  0  0  0  0  0
    1.1259    0.1596   -0.5883 H   0  0  0  0  0  0  0  0  0  0  0  0
    3.4188    1.6090    1.2376 H   0  0  0  0  0  0  0  0  0  0  0  0
    1.9580    0.7505    1.8874 H   0  0  0  0  0  0  0  0  0  0  0  0
    1.7648    2.0821    0.6870 H   0  0  0  0  0  0  0  0  0  0  0  0
   -0.6117    1.7226    0.2006 H   0  0  0  0  0  0  0  0  0  0  0  0
   -2.0025   -2.0620   -1.3349 H   0  0  0  0  0  0  0  0  0  0  0  0
   -2.8365    2.1258    1.1945 H   0  0  0  0  0  0  0  0  0  0  0  0
   -4.2217   -1.6412   -0.3341 H   0  0  0  0  0  0  0  0  0  0  0  0
   -4.6425    0.4474    0.9340 H   0  0  0  0  0  0  0  0  0  0  0  0
    2.9046    0.7126   -1.0576 H   0  0  0  0  0  0  0  0  0  0  0  0
    4.5854   -2.7057    0.7859 H   0  0  0  0  0  0  0  0  0  0  0  0
  1  3  1  0
  1 12  1  0
  1 13  1  0
  1 14  1  0
  2  9  1  0
  2 15  1  0
  2 16  1  0
  2 17  1  0
  3  4  2  0
  3  5  1  0
  4  6  1  0
  4 18  1  0
  5  7  2  0
  5 19  1  0
  6  8  2  0
  6 20  1  0
  7  8  1  0
  7 21  1  0
  8 22  1  0
  9 10  1  0
  9 23  1  0
 10 11  3  0
 11 24  1  0
M  RAD  1   9   2
M  END
>  <reaction>  (17) 
rxn_1271

>  <mol_properties>  (17) 
{"1": {"label": "*0", "atom_type": "Ct"}, "2": {"label": "*1", "atom_type": "Cs"}, "5": {"label": "*2", "atom_type": "H0"}, "10": {"label": "*3", "atom_type": "Cd"}, "11": {"label": "*4", "atom_type": "Cd"}}

>  <type>  (17) 
unop_13

>  <geom_source>  (17) 
AutoTST

$$$$

     RDKit          3D

 24 23  0  0  0  0  0  0  0  0999 V2000
   -2.5069    0.5751   -1.9004 C   0  0  0  0  0  0  0  0  0  0  0  0
   -2.5069    0.5751   -0.7027 C   0  0  0  0  0  0  0  0  0  0  0  0
   -2.5069    0.6033    0.7564 C   0  0  0  0  0  3  0  0  0  0  0  0
   -2.5069    2.0247    1.3220 C   0  0  0  0  0  0  0  0  0  0  0  0
   -2.5069    0.5751   -2.9637 H   0  0  0  0  0  0  0  0  0  0  0  0
   -1.4563   -0.0508    1.1905 H   0  0  0  0  0  0  0  0  0  0  0  0
   -3.3824    0.0582    1.1181 H   0  0  0  0  0  0  0  0  0  0  0  0
   -3.3891    2.5725    0.9906 H   0  0  0  0  0  0  0  0  0  0  0  0
   -2.5069    1.9974    2.4123 H   0  0  0  0  0  0  0  0  0  0  0  0
   -1.6246    2.5725    0.9906 H   0  0  0  0  0  0  0  0  0  0  0  0
   -0.4080   -0.7035    1.6236 C   0  0  0  0  0  0  0  0  0  0  0  0
    0.7334   -0.6140    0.6487 C   0  0  0  0  0  0  0  0  0  0  0  0
    2.0192   -0.3041    1.0811 C   0  0  0  0  0  0  0  0  0  0  0  0
    3.0791   -0.2505    0.1891 C   0  0  0  0  0  0  0  0  0  0  0  0
    2.8698   -0.5057   -1.1575 C   0  0  0  0  0  0  0  0  0  0  0  0
    1.5929   -0.8124   -1.6024 C   0  0  0  0  0  0  0  0  0  0  0  0
    0.5368   -0.8645   -0.7059 C   0  0  0  0  0  0  0  0  0  0  0  0
   -0.2594   -0.0334    2.4710 H   0  0  0  0  0  0  0  0  0  0  0  0
   -0.5006   -1.7184    2.0186 H   0  0  0  0  0  0  0  0  0  0  0  0
    2.1920   -0.0995    2.1318 H   0  0  0  0  0  0  0  0  0  0  0  0
    4.0713   -0.0054    0.5470 H   0  0  0  0  0  0  0  0  0  0  0  0
    3.6955   -0.4618   -1.8563 H   0  0  0  0  0  0  0  0  0  0  0  0
    1.4169   -1.0088   -2.6528 H   0  0  0  0  0  0  0  0  0  0  0  0
   -0.4589   -1.1016   -1.0638 H   0  0  0  0  0  0  0  0  0  0  0  0
  1  2  3  0
  1  5  1  0
  2  3  1  0
  3  4  1  0
  3  7  1  0
  4  8  1  0
  4  9  1  0
  4 10  1  0
  6 11  1  0
 11 12  1  0
 11 18  1  0
 11 19  1  0
 12 13  2  0
 12 17  1  0
 13 14  1  0
 13 20  1  0
 14 15  2  0
 14 21  1  0
 15 16  1  0
 15 22  1  0
 16 17  2  0
 16 23  1  0
 17 24  1  0
M  RAD  1   3   2
M  END
>  <reaction>  (18) 
rxn_1271

>  <mol_properties>  (18) 
{"1": {"label": "*0", "atom_type": "Ct"}, "2": {"label": "*1", "atom_type": "Cs"}, "5": {"label": "*2", "atom_type": "H0"}, "10": {"label": "*3", "atom_type": "Cd"}, "11": {"label": "*4", "atom_type": "Cd"}}

>  <type>  (18) 
unop_14

>  <geom_source>  (18) 
gaussian_log

$$$$
