
     RDKit          3D

  8  7  0  0  0  0  0  0  0  0999 V2000
    0.7610    0.0250    0.0051 C   0  0  0  0  0  0  0  0  0  0  0  0
   -0.7610   -0.0250   -0.0051 C   0  0  0  0  0  0  0  0  0  0  0  0
    1.1904   -0.9237   -0.3217 H   0  0  0  0  0  0  0  0  0  0  0  0
    1.1359    0.8041   -0.6609 H   0  0  0  0  0  0  0  0  0  0  0  0
    1.1435    0.2336    1.0058 H   0  0  0  0  0  0  0  0  0  0  0  0
   -1.1435   -0.2336   -1.0058 H   0  0  0  0  0  0  0  0  0  0  0  0
   -1.1904    0.9237    0.3216 H   0  0  0  0  0  0  0  0  0  0  0  0
   -1.1359   -0.8041    0.6609 H   0  0  0  0  0  0  0  0  0  0  0  0
  1  2  1  0
  1  3  1  0
  1  4  1  0
  1  5  1  0
  2  6  1  0
  2  7  1  0
  2  8  1  0
M  END
>  <reaction>  (1) 
rxn_906

>  <mol_properties>  (1) 
{"1": {"label": "donator", "atom_type": "Cs"}, "5": {"label": "d_hydrogen", "atom_type": "H0"}}

>  <type>  (1) 
r1h

$$$$

     RDKit          3D

  4  3  0  0  0  0  0  0  0  0999 V2000
   -0.7528   -0.8706   -0.3839 S   0  0  0  0  0  0  0  0  0  0  0  0
    0.7502   -0.2564   -0.0649 C   0  0  0  0  0  3  0  0  0  0  0  0
    1.5655    0.9691    0.4633 S   0  0  0  0  0  0  0  0  0  0  0  0
   -1.5629    0.1579   -0.0146 H   0  0  0  0  0  0  0  0  0  0  0  0
  1  2  1  0
  1  4  1  0
  2  3  2  0
M  RAD  1   2   2
M  END
>  <reaction>  (2) 
rxn_906

>  <mol_properties>  (2) 
{"1": {"label": "acceptor", "atom_type": "CS"}}

>  <type>  (2) 
r2

$$$$

     RDKit          3D

  5  4  0  0  0  0  0  0  0  0999 V2000
    1.2280   -0.4626    0.1225 S   0  0  0  0  0  0  0  0  0  0  0  0
   -0.4732   -0.2566   -0.0746 C   0  0  0  0  0  0  0  0  0  0  0  0
   -1.3314    1.1074   -0.0947 S   0  0  0  0  0  0  0  0  0  0  0  0
    1.5289    0.8405    0.2416 H   0  0  0  0  0  0  0  0  0  0  0  0
   -0.9523   -1.2286   -0.1949 H   0  0  0  0  0  0  0  0  0  0  0  0
  1  2  1  0
  1  4  1  0
  2  3  2  0
  2  5  1  0
M  END
>  <reaction>  (3) 
rxn_906

>  <mol_properties>  (3) 
{"1": {"label": "acceptor", "atom_type": "CS"}, "4": {"label": "a_hydrogen", "atom_type": "H0"}}

>  <type>  (3) 
r2h

$$$$

     RDKit          3D

 12 10  0  0  0  0  0  0  0  0999 V2000
   -0.9705    1.0265    1.0459 S   0  0  0  0  0  0  0  0  0  0  0  0
    0.0682    0.4546   -0.1852 C   0  0  0  0  0  0  0  0  0  0  0  0
    1.2981    1.1309   -0.9493 S   0  0  0  0  0  0  0  0  0  0  0  0
   -0.4447    2.2565    1.1990 H   0  0  0  0  0  0  0  0  0  0  0  0
    0.5712   -2.4839   -1.7119 C   0  0  0  0  0  0  0  0  0  0  0  0
   -0.6004   -2.0748   -0.8703 C   0  0  0  0  0  3  0  0  0  0  0  0
    0.7058   -1.8086   -2.5587 H   0  0  0  0  0  0  0  0  0  0  0  0
    1.4966   -2.4821   -1.1338 H   0  0  0  0  0  0  0  0  0  0  0  0
    0.4348   -3.4940   -2.1137 H   0  0  0  0  0  0  0  0  0  0  0  0
   -0.3003   -0.7653   -0.4797 H   0  0  0  0  0  0  0  0  0  0  0  0
   -0.7135   -2.5937    0.0794 H   0  0  0  0  0  0  0  0  0  0  0  0
   -1.5454   -1.9518   -1.3953 H   0  0  0  0  0  0  0  0  0  0  0  0
  1  2  1  0
  1  4  1  0
  2  3  2  0
  2 10  1  0
  5  6  1  0
  5  7  1  0
  5  8  1  0
  5  9  1  0
  6 11  1  0
  6 12  1  0
M  RAD  1   6   2
M  END
>  <reaction>  (4) 
rxn_906

>  <mol_properties>  (4) 
{"0": {"label": "*0", "atom_type": "S2s"}, "1": {"label": "*1", "atom_type": "CS"}, "4": {"label": "*4", "atom_type": "Cs"}, "5": {"label": "*3", "atom_type": "Cs"}, "9": {"label": "*2", "atom_type": "H0"}}

>  <type>  (4) 
ts

$$$$

     RDKit          3D

 12 10  0  0  0  0  0  0  0  0999 V2000
   -1.4278    0.6965    1.0658 S   0  0  0  0  0  0  0  0  0  0  0  0
   -0.0227    0.4449    0.0974 C   0  0  0  0  0  0  0  0  0  0  0  0
    1.4838    0.9600    0.3477 S   0  0  0  0  0  0  0  0  0  0  0  0
   -0.8283    1.4234    2.0224 H   0  0  0  0  0  0  0  0  0  0  0  0
   -0.0227   -1.9949   -2.3749 C   0  0  0  0  0  0  0  0  0  0  0  0
   -0.0227   -1.9949   -0.8521 C   0  0  0  0  0  3  0  0  0  0  0  0
   -0.9036   -1.4863   -2.7707 H   0  0  0  0  0  0  0  0  0  0  0  0
    0.8581   -1.4863   -2.7707 H   0  0  0  0  0  0  0  0  0  0  0  0
   -0.0227   -3.0120   -2.7707 H   0  0  0  0  0  0  0  0  0  0  0  0
   -0.0227   -0.7743   -0.3771 H   0  0  0  0  0  0  0  0  0  0  0  0
    0.8581   -2.5034   -0.4562 H   0  0  0  0  0  0  0  0  0  0  0  0
   -0.9036   -2.5034   -0.4562 H   0  0  0  0  0  0  0  0  0  0  0  0
  1  2  1  0
  1  4  1  0
  2  3  2  0
  2 10  1  0
  5  6  1  0
  5  7  1  0
  5  8  1  0
  5  9  1  0
  6 11  1  0
  6 12  1  0
M  RAD  1   6   2
M  END
>  <reaction>  (5) 
rxn_906

>  <mol_properties>  (5) 
{"0": {"label": "*0", "atom_type": "S2s"}, "1": {"label": "*1", "atom_type": "CS"}, "4": {"label": "*4", "atom_type": "Cs"}, "5": {"label": "*3", "atom_type": "Cs"}, "9": {"label": "*2", "atom_type": "H0"}}

>  <type>  (5) 
unop_1

>  <geom_source>  (5) 
Heuristics

$$$$

     RDKit          3D

 12 10  0  0  0  0  0  0  0  0999 V2000
   -0.6606    1.3358   -0.7532 S   0  0  0  0  0  0  0  0  0  0  0  0
    0.1506    0.2804    0.3438 C   0  0  0  0  0  0  0  0  0  0  0  0
    0.4902    0.5084    1.9027 S   0  0  0  0  0  0  0  0  0  0  0  0
   -0.8781    2.3308    0.1217 H   0  0  0  0  0  0  0  0  0  0  0  0
    0.1506   -2.1594   -2.1286 C   0  0  0  0  0  0  0  0  0  0  0  0
    0.1506   -2.1594   -0.6058 C   0  0  0  0  0  3  0  0  0  0  0  0
   -0.7302   -1.6508   -2.5244 H   0  0  0  0  0  0  0  0  0  0  0  0
    1.0315   -1.6509   -2.5244 H   0  0  0  0  0  0  0  0  0  0  0  0
    0.1506   -3.1765   -2.5244 H   0  0  0  0  0  0  0  0  0  0  0  0
    0.1506   -0.9389   -0.1308 H   0  0  0  0  0  0  0  0  0  0  0  0
    1.0315   -2.6680   -0.2099 H   0  0  0  0  0  0  0  0  0  0  0  0
   -0.7302   -2.6680   -0.2099 H   0  0  0  0  0  0  0  0  0  0  0  0
  1  2  1  0
  1  4  1  0
  2  3  2  0
  2 10  1  0
  5  6  1  0
  5  7  1  0
  5  8  1  0
  5  9  1  0
  6 11  1  0
  6 12  1  0
M  RAD  1   6   2
M  END
>  <reaction>  (6) 
rxn_906

>  <mol_properties>  (6) 
{"0": {"label": "*0", "atom_type": "S2s"}, "1": {"label": "*1", "atom_type": "CS"}, "4": {"label": "*4", "atom_type": "Cs"}, "5": {"label": "*3", "atom_type": "Cs"}, "9": {"label": "*2", "atom_type": "H0"}}

>  <type>  (6) 
unop_2

>  <geom_source>  (6) 
Heuristics

$$$$

     RDKit          3D

 12 10  0  0  0  0  0  0  0  0999 V2000
   -0.9187    0.4116    1.6899 S   0  0  0  0  0  0  0  0  0  0  0  0
   -0.1075    0.3754    0.1681 C   0  0  0  0  0  0  0  0  0  0  0  0
    1.0679    1.3352   -0.3748 S   0  0  0  0  0  0  0  0  0  0  0  0
   -0.2478    1.4577    2.1980 H   0  0  0  0  0  0  0  0  0  0  0  0
   -0.1075   -2.0644   -2.3043 C   0  0  0  0  0  0  0  0  0  0  0  0
   -0.1075   -2.0644   -0.7815 C   0  0  0  0  0  3  0  0  0  0  0  0
   -0.9883   -1.5559   -2.7001 H   0  0  0  0  0  0  0  0  0  0  0  0
    0.7734   -1.5559   -2.7001 H   0  0  0  0  0  0  0  0  0  0  0  0
   -0.1075   -3.0815   -2.7001 H   0  0  0  0  0  0  0  0  0  0  0  0
   -0.1075   -0.8439   -0.3064 H   0  0  0  0  0  0  0  0  0  0  0  0
    0.7733   -2.5730   -0.3856 H   0  0  0  0  0  0  0  0  0  0  0  0
   -0.9883   -2.5730   -0.3856 H   0  0  0  0  0  0  0  0  0  0  0  0
  1  2  1  0
  1  4  1  0
  2  3  2  0
  2 10  1  0
  5  6  1  0
  5  7  1  0
  5  8  1  0
  5  9  1  0
  6 11  1  0
  6 12  1  0
M  RAD  1   6   2
M  END
>  <reaction>  (7) 
rxn_906

>  <mol_properties>  (7) 
{"0": {"label": "*0", "atom_type": "S2s"}, "1": {"label": "*1", "atom_type": "CS"}, "4": {"label": "*4", "atom_type": "Cs"}, "5": {"label": "*3", "atom_type": "Cs"}, "9": {"label": "*2", "atom_type": "H0"}}

>  <type>  (7) 
unop_3

>  <geom_source>  (7) 
Heuristics

$$$$

     RDKit          3D

 12 10  0  0  0  0  0  0  0  0999 V2000
    1.2120    1.2063   -0.3201 S   0  0  0  0  0  0  0  0  0  0  0  0
   -0.1930    0.3662    0.2234 C   0  0  0  0  0  0  0  0  0  0  0  0
   -1.0009    0.5360    1.6077 S   0  0  0  0  0  0  0  0  0  0  0  0
    1.3553    1.9857    0.7637 H   0  0  0  0  0  0  0  0  0  0  0  0
   -0.1930   -2.0736   -2.2489 C   0  0  0  0  0  0  0  0  0  0  0  0
   -0.1930   -2.0736   -0.7261 C   0  0  0  0  0  3  0  0  0  0  0  0
   -1.0739   -1.5650   -2.6448 H   0  0  0  0  0  0  0  0  0  0  0  0
    0.6878   -1.5650   -2.6448 H   0  0  0  0  0  0  0  0  0  0  0  0
   -0.1930   -3.0907   -2.6448 H   0  0  0  0  0  0  0  0  0  0  0  0
   -0.1930   -0.8530   -0.2511 H   0  0  0  0  0  0  0  0  0  0  0  0
    0.6878   -2.5821   -0.3303 H   0  0  0  0  0  0  0  0  0  0  0  0
   -1.0739   -2.5821   -0.3303 H   0  0  0  0  0  0  0  0  0  0  0  0
  1  2  1  0
  1  4  1  0
  2  3  2  0
  2 10  1  0
  5  6  1  0
  5  7  1  0
  5  8  1  0
  5  9  1  0
  6 11  1  0
  6 12  1  0
M  RAD  1   6   2
M  END
>  <reaction>  (8) 
rxn_906

>  <mol_properties>  (8) 
{"0": {"label": "*0", "atom_type": "S2s"}, "1": {"label": "*1", "atom_type": "CS"}, "4": {"label": "*4", "atom_type": "Cs"}, "5": {"label": "*3", "atom_type": "Cs"}, "9": {"label": "*2", "atom_type": "H0"}}

>  <type>  (8) 
unop_4

>  <geom_source>  (8) 
Heuristics

$$$$

     RDKit          3D

 12 10  0  0  0  0  0  0  0  0999 V2000
   -0.0000    0.2590    1.9637 S   0  0  0  0  0  0  0  0  0  0  0  0
   -0.0000    0.3016    0.2394 C   0  0  0  0  0  0  0  0  0  0  0  0
    0.0000    1.5809   -0.7409 S   0  0  0  0  0  0  0  0  0  0  0  0
    0.0000    1.5884    2.1514 H   0  0  0  0  0  0  0  0  0  0  0  0
   -0.0000   -2.1382   -2.2330 C   0  0  0  0  0  0  0  0  0  0  0  0
   -0.0000   -2.1382   -0.7102 C   0  0  0  0  0  3  0  0  0  0  0  0
   -0.8808   -1.6297   -2.6288 H   0  0  0  0  0  0  0  0  0  0  0  0
    0.8808   -1.6297   -2.6288 H   0  0  0  0  0  0  0  0  0  0  0  0
   -0.0000   -3.1554   -2.6288 H   0  0  0  0  0  0  0  0  0  0  0  0
   -0.0000   -0.9177   -0.2352 H   0  0  0  0  0  0  0  0  0  0  0  0
    0.8808   -2.6468   -0.3143 H   0  0  0  0  0  0  0  0  0  0  0  0
   -0.8808   -2.6468   -0.3143 H   0  0  0  0  0  0  0  0  0  0  0  0
  1  2  1  0
  1  4  1  0
  2  3  2  0
  2 10  1  0
  5  6  1  0
  5  7  1  0
  5  8  1  0
  5  9  1  0
  6 11  1  0
  6 12  1  0
M  RAD  1   6   2
M  END
>  <reaction>  (9) 
rxn_906

>  <mol_properties>  (9) 
{"0": {"label": "*0", "atom_type": "S2s"}, "1": {"label": "*1", "atom_type": "CS"}, "4": {"label": "*4", "atom_type": "Cs"}, "5": {"label": "*3", "atom_type": "Cs"}, "9": {"label": "*2", "atom_type": "H0"}}

>  <type>  (9) 
unop_5

>  <geom_source>  (9) 
Heuristics

$$$$

     RDKit          3D

 12 10  0  0  0  0  0  0  0  0999 V2000
    1.5074    0.9810    0.3334 S   0  0  0  0  0  0  0  0  0  0  0  0
   -0.1150    0.4352    0.1210 C   0  0  0  0  0  0  0  0  0  0  0  0
   -1.3971    0.6817    1.0660 S   0  0  0  0  0  0  0  0  0  0  0  0
    1.3015    1.6322    1.4894 H   0  0  0  0  0  0  0  0  0  0  0  0
   -0.1150   -2.0046   -2.3513 C   0  0  0  0  0  0  0  0  0  0  0  0
   -0.1150   -2.0046   -0.8286 C   0  0  0  0  0  3  0  0  0  0  0  0
   -0.9959   -1.4960   -2.7472 H   0  0  0  0  0  0  0  0  0  0  0  0
    0.7658   -1.4960   -2.7472 H   0  0  0  0  0  0  0  0  0  0  0  0
   -0.1150   -3.0217   -2.7472 H   0  0  0  0  0  0  0  0  0  0  0  0
   -0.1150   -0.7841   -0.3535 H   0  0  0  0  0  0  0  0  0  0  0  0
    0.7658   -2.5132   -0.4327 H   0  0  0  0  0  0  0  0  0  0  0  0
   -0.9959   -2.5132   -0.4327 H   0  0  0  0  0  0  0  0  0  0  0  0
  1  2  1  0
  1  4  1  0
  2  3  2  0
  2 10  1  0
  5  6  1  0
  5  7  1  0
  5  8  1  0
  5  9  1  0
  6 11  1  0
  6 12  1  0
M  RAD  1   6   2
M  END
>  <reaction>  (10) 
rxn_906

>  <mol_properties>  (10) 
{"0": {"label": "*0", "atom_type": "S2s"}, "1": {"label": "*1", "atom_type": "CS"}, "4": {"label": "*4", "atom_type": "Cs"}, "5": {"label": "*3", "atom_type": "Cs"}, "9": {"label": "*2", "atom_type": "H0"}}

>  <type>  (10) 
unop_6

>  <geom_source>  (10) 
Heuristics

$$$$

     RDKit          3D

 12 10  0  0  0  0  0  0  0  0999 V2000
    1.4278    0.6965    1.0658 S   0  0  0  0  0  0  0  0  0  0  0  0
    0.0227    0.4449    0.0974 C   0  0  0  0  0  0  0  0  0  0  0  0
   -1.4838    0.9600    0.3477 S   0  0  0  0  0  0  0  0  0  0  0  0
    0.8283    1.4234    2.0224 H   0  0  0  0  0  0  0  0  0  0  0  0
    0.0227   -1.9949   -2.3749 C   0  0  0  0  0  0  0  0  0  0  0  0
    0.0227   -1.9949   -0.8521 C   0  0  0  0  0  3  0  0  0  0  0  0
   -0.8581   -1.4863   -2.7707 H   0  0  0  0  0  0  0  0  0  0  0  0
    0.9036   -1.4863   -2.7707 H   0  0  0  0  0  0  0  0  0  0  0  0
    0.0227   -3.0120   -2.7707 H   0  0  0  0  0  0  0  0  0  0  0  0
    0.0227   -0.7743   -0.3771 H   0  0  0  0  0  0  0  0  0  0  0  0
    0.9036   -2.5034   -0.4562 H   0  0  0  0  0  0  0  0  0  0  0  0
   -0.8581   -2.5034   -0.4562 H   0  0  0  0  0  0  0  0  0  0  0  0
  1  2  1  0
  1  4  1  0
  2  3  2  0
  2 10  1  0
  5  6  1  0
  5  7  1  0
  5  8  1  0
  5  9  1  0
  6 11  1  0
  6 12  1  0
M  RAD  1   6   2
M  END
>  <reaction>  (11) 
rxn_906

>  <mol_properties>  (11) 
{"0": {"label": "*0", "atom_type": "S2s"}, "1": {"label": "*1", "atom_type": "CS"}, "4": {"label": "*4", "atom_type": "Cs"}, "5": {"label": "*3", "atom_type": "Cs"}, "9": {"label": "*2", "atom_type": "H0"}}

>  <type>  (11) 
unop_7

>  <geom_source>  (11) 
Heuristics

$$$$

     RDKit          3D

 12 10  0  0  0  0  0  0  0  0999 V2000
   -1.5074    0.9810    0.3334 S   0  0  0  0  0  0  0  0  0  0  0  0
    0.1150    0.4352    0.1210 C   0  0  0  0  0  0  0  0  0  0  0  0
    1.3971    0.6817    1.0660 S   0  0  0  0  0  0  0  0  0  0  0  0
   -1.3015    1.6322    1.4894 H   0  0  0  0  0  0  0  0  0  0  0  0
    0.1150   -2.0046   -2.3513 C   0  0  0  0  0  0  0  0  0  0  0  0
    0.1150   -2.0046   -0.8286 C   0  0  0  0  0  3  0  0  0  0  0  0
   -0.7658   -1.4960   -2.7472 H   0  0  0  0  0  0  0  0  0  0  0  0
    0.9959   -1.4960   -2.7472 H   0  0  0  0  0  0  0  0  0  0  0  0
    0.1150   -3.0217   -2.7472 H   0  0  0  0  0  0  0  0  0  0  0  0
    0.1150   -0.7841   -0.3535 H   0  0  0  0  0  0  0  0  0  0  0  0
    0.9959   -2.5132   -0.4327 H   0  0  0  0  0  0  0  0  0  0  0  0
   -0.7658   -2.5132   -0.4327 H   0  0  0  0  0  0  0  0  0  0  0  0
  1  2  1  0
  1  4  1  0
  2  3  2  0
  2 10  1  0
  5  6  1  0
  5  7  1  0
  5  8  1  0
  5  9  1  0
  6 11  1  0
  6 12  1  0
M  RAD  1   6   2
M  END
>  <reaction>  (12) 
rxn_906

>  <mol_properties>  (12) 
{"0": {"label": "*0", "atom_type": "S2s"}, "1": {"label": "*1", "atom_type": "CS"}, "4": {"label": "*4", "atom_type": "Cs"}, "5": {"label": "*3", "atom_type": "Cs"}, "9": {"label": "*2", "atom_type": "H0"}}

>  <type>  (12) 
unop_8

>  <geom_source>  (12) 
Heuristics

$$$$

     RDKit          3D

 12 10  0  0  0  0  0  0  0  0999 V2000
    0.6606    1.3358   -0.7532 S   0  0  0  0  0  0  0  0  0  0  0  0
   -0.1506    0.2804    0.3438 C   0  0  0  0  0  0  0  0  0  0  0  0
   -0.4902    0.5084    1.9027 S   0  0  0  0  0  0  0  0  0  0  0  0
    0.8781    2.3308    0.1217 H   0  0  0  0  0  0  0  0  0  0  0  0
   -0.1506   -2.1594   -2.1286 C   0  0  0  0  0  0  0  0  0  0  0  0
   -0.1506   -2.1594   -0.6058 C   0  0  0  0  0  3  0  0  0  0  0  0
   -1.0315   -1.6508   -2.5244 H   0  0  0  0  0  0  0  0  0  0  0  0
    0.7302   -1.6509   -2.5244 H   0  0  0  0  0  0  0  0  0  0  0  0
   -0.1506   -3.1765   -2.5244 H   0  0  0  0  0  0  0  0  0  0  0  0
   -0.1506   -0.9389   -0.1308 H   0  0  0  0  0  0  0  0  0  0  0  0
    0.7302   -2.6680   -0.2099 H   0  0  0  0  0  0  0  0  0  0  0  0
   -1.0315   -2.6680   -0.2099 H   0  0  0  0  0  0  0  0  0  0  0  0
  1  2  1  0
  1  4  1  0
  2  3  2  0
  2 10  1  0
  5  6  1  0
  5  7  1  0
  5  8  1  0
  5  9  1  0
  6 11  1  0
  6 12  1  0
M  RAD  1   6   2
M  END
>  <reaction>  (13) 
rxn_906

>  <mol_properties>  (13) 
{"0": {"label": "*0", "atom_type": "S2s"}, "1": {"label": "*1", "atom_type": "CS"}, "4": {"label": "*4", "atom_type": "Cs"}, "5": {"label": "*3", "atom_type": "Cs"}, "9": {"label": "*2", "atom_type": "H0"}}

>  <type>  (13) 
unop_9

>  <geom_source>  (13) 
Heuristics

$$$$

     RDKit          3D

 12 10  0  0  0  0  0  0  0  0999 V2000
   -1.2120    1.2063   -0.3201 S   0  0  0  0  0  0  0  0  0  0  0  0
    0.1930    0.3662    0.2234 C   0  0  0  0  0  0  0  0  0  0  0  0
    1.0009    0.5360    1.6077 S   0  0  0  0  0  0  0  0  0  0  0  0
   -1.3553    1.9857    0.7637 H   0  0  0  0  0  0  0  0  0  0  0  0
    0.1930   -2.0736   -2.2489 C   0  0  0  0  0  0  0  0  0  0  0  0
    0.1930   -2.0736   -0.7261 C   0  0  0  0  0  3  0  0  0  0  0  0
   -0.6878   -1.5650   -2.6448 H   0  0  0  0  0  0  0  0  0  0  0  0
    1.0739   -1.5650   -2.6448 H   0  0  0  0  0  0  0  0  0  0  0  0
    0.1930   -3.0907   -2.6448 H   0  0  0  0  0  0  0  0  0  0  0  0
    0.1930   -0.8530   -0.2511 H   0  0  0  0  0  0  0  0  0  0  0  0
    1.0739   -2.5821   -0.3303 H   0  0  0  0  0  0  0  0  0  0  0  0
   -0.6878   -2.5821   -0.3303 H   0  0  0  0  0  0  0  0  0  0  0  0
  1  2  1  0
  1  4  1  0
  2  3  2  0
  2 10  1  0
  5  6  1  0
  5  7  1  0
  5  8  1  0
  5  9  1  0
  6 11  1  0
  6 12  1  0
M  RAD  1   6   2
M  END
>  <reaction>  (14) 
rxn_906

>  <mol_properties>  (14) 
{"0": {"label": "*0", "atom_type": "S2s"}, "1": {"label": "*1", "atom_type": "CS"}, "4": {"label": "*4", "atom_type": "Cs"}, "5": {"label": "*3", "atom_type": "Cs"}, "9": {"label": "*2", "atom_type": "H0"}}

>  <type>  (14) 
unop_10

>  <geom_source>  (14) 
Heuristics

$$$$

     RDKit          3D

 12 10  0  0  0  0  0  0  0  0999 V2000
    0.9187    0.4116    1.6899 S   0  0  0  0  0  0  0  0  0  0  0  0
    0.1075    0.3754    0.1681 C   0  0  0  0  0  0  0  0  0  0  0  0
   -1.0679    1.3352   -0.3748 S   0  0  0  0  0  0  0  0  0  0  0  0
    0.2478    1.4577    2.1980 H   0  0  0  0  0  0  0  0  0  0  0  0
    0.1075   -2.0644   -2.3043 C   0  0  0  0  0  0  0  0  0  0  0  0
    0.1075   -2.0644   -0.7815 C   0  0  0  0  0  3  0  0  0  0  0  0
   -0.7733   -1.5559   -2.7001 H   0  0  0  0  0  0  0  0  0  0  0  0
    0.9883   -1.5559   -2.7001 H   0  0  0  0  0  0  0  0  0  0  0  0
    0.1075   -3.0815   -2.7001 H   0  0  0  0  0  0  0  0  0  0  0  0
    0.1075   -0.8439   -0.3064 H   0  0  0  0  0  0  0  0  0  0  0  0
    0.9883   -2.5730   -0.3856 H   0  0  0  0  0  0  0  0  0  0  0  0
   -0.7733   -2.5730   -0.3856 H   0  0  0  0  0  0  0  0  0  0  0  0
  1  2  1  0
  1  4  1  0
  2  3  2  0
  2 10  1  0
  5  6  1  0
  5  7  1  0
  5  8  1  0
  5  9  1  0
  6 11  1  0
  6 12  1  0
M  RAD  1   6   2
M  END
>  <reaction>  (15) 
rxn_906

>  <mol_properties>  (15) 
{"0": {"label": "*0", "atom_type": "S2s"}, "1": {"label": "*1", "atom_type": "CS"}, "4": {"label": "*4", "atom_type": "Cs"}, "5": {"label": "*3", "atom_type": "Cs"}, "9": {"label": "*2", "atom_type": "H0"}}

>  <type>  (15) 
unop_11

>  <geom_source>  (15) 
Heuristics

$$$$

     RDKit          3D

 12 10  0  0  0  0  0  0  0  0999 V2000
    0.0000    1.3738   -0.9007 S   0  0  0  0  0  0  0  0  0  0  0  0
    0.0000    0.2395    0.3988 C   0  0  0  0  0  0  0  0  0  0  0  0
   -0.0000    0.5196    1.9860 S   0  0  0  0  0  0  0  0  0  0  0  0
   -0.0000    2.4803   -0.1402 H   0  0  0  0  0  0  0  0  0  0  0  0
    0.0000   -2.2003   -2.0735 C   0  0  0  0  0  0  0  0  0  0  0  0
    0.0000   -2.2003   -0.5507 C   0  0  0  0  0  3  0  0  0  0  0  0
   -0.8808   -1.6918   -2.4693 H   0  0  0  0  0  0  0  0  0  0  0  0
    0.8808   -1.6918   -2.4693 H   0  0  0  0  0  0  0  0  0  0  0  0
   -0.0000   -3.2174   -2.4693 H   0  0  0  0  0  0  0  0  0  0  0  0
    0.0000   -0.9798   -0.0757 H   0  0  0  0  0  0  0  0  0  0  0  0
    0.8808   -2.7089   -0.1549 H   0  0  0  0  0  0  0  0  0  0  0  0
   -0.8808   -2.7089   -0.1549 H   0  0  0  0  0  0  0  0  0  0  0  0
  1  2  1  0
  1  4  1  0
  2  3  2  0
  2 10  1  0
  5  6  1  0
  5  7  1  0
  5  8  1  0
  5  9  1  0
  6 11  1  0
  6 12  1  0
M  RAD  1   6   2
M  END
>  <reaction>  (16) 
rxn_906

>  <mol_properties>  (16) 
{"0": {"label": "*0", "atom_type": "S2s"}, "1": {"label": "*1", "atom_type": "CS"}, "4": {"label": "*4", "atom_type": "Cs"}, "5": {"label": "*3", "atom_type": "Cs"}, "9": {"label": "*2", "atom_type": "H0"}}

>  <type>  (16) 
unop_12

>  <geom_source>  (16) 
Heuristics

$$$$

     RDKit          3D

 12 10  0  0  0  0  0  0  0  0999 V2000
    3.0953   -0.1950   -0.8850 S   0  0  0  0  0  0  0  0  0  0  0  0
    2.1730    0.3161    1.7057 S   0  0  0  0  0  0  0  0  0  0  0  0
   -1.8819    0.5491   -0.3885 C   0  0  0  0  0  0  0  0  0  0  0  0
   -0.7409   -0.2801    0.1712 C   0  0  0  0  0  0  0  0  0  0  0  0
    1.8190    0.1011    0.3336 C   0  0  0  0  0  3  0  0  0  0  0  0
   -2.7839    0.4303    0.2482 H   0  0  0  0  0  0  0  0  0  0  0  0
   -1.5875    1.6189   -0.4123 H   0  0  0  0  0  0  0  0  0  0  0  0
   -2.1142    0.2135   -1.4206 H   0  0  0  0  0  0  0  0  0  0  0  0
   -1.0246   -1.3534    0.1901 H   0  0  0  0  0  0  0  0  0  0  0  0
   -0.4965    0.0556    1.2010 H   0  0  0  0  0  0  0  0  0  0  0  0
    0.5152    0.1326   -0.0438 H   0  0  0  0  0  0  0  0  0  0  0  0
    3.0270   -1.5888   -0.6997 H   0  0  0  0  0  0  0  0  0  0  0  0
  1  5  1  0
  1 12  1  0
  2  5  2  0
  3  4  1  0
  3  6  1  0
  3  7  1  0
  3  8  1  0
  4  9  1  0
  4 10  1  0
  4 11  1  0
M  RAD  1   5   2
M  END
>  <reaction>  (17) 
rxn_906

>  <mol_properties>  (17) 
{"0": {"label": "*0", "atom_type": "S2s"}, "1": {"label": "*1", "atom_type": "CS"}, "4": {"label": "*4", "atom_type": "Cs"}, "5": {"label": "*3", "atom_type": "Cs"}, "9": {"label": "*2", "atom_type": "H0"}}

>  <type>  (17) 
unop_13

>  <geom_source>  (17) 
AutoTST

$$$$
