
     RDKit          3D

  8  7  0  0  0  0  0  0  0  0999 V2000
    0.7610    0.0250    0.0051 C   0  0  0  0  0  0  0  0  0  0  0  0
   -0.7610   -0.0250   -0.0051 C   0  0  0  0  0  0  0  0  0  0  0  0
    1.1904   -0.9237   -0.3217 H   0  0  0  0  0  0  0  0  0  0  0  0
    1.1359    0.8041   -0.6609 H   0  0  0  0  0  0  0  0  0  0  0  0
    1.1435    0.2336    1.0058 H   0  0  0  0  0  0  0  0  0  0  0  0
   -1.1435   -0.2336   -1.0058 H   0  0  0  0  0  0  0  0  0  0  0  0
   -1.1904    0.9237    0.3216 H   0  0  0  0  0  0  0  0  0  0  0  0
   -1.1359   -0.8041    0.6609 H   0  0  0  0  0  0  0  0  0  0  0  0
  1  2  1  0
  1  3  1  0
  1  4  1  0
  1  5  1  0
  2  6  1  0
  2  7  1  0
  2  8  1  0
M  END
>  <reaction>  (1) 
rxn_908

>  <mol_properties>  (1) 
{"1": {"label": "donator", "atom_type": "Cs"}, "5": {"label": "d_hydrogen", "atom_type": "H0"}}

>  <type>  (1) 
r1h

$$$$

     RDKit          3D

  5  4  0  0  0  0  0  0  0  0999 V2000
    2.6215   -0.7329   -0.0432 S   0  0  0  0  0  0  0  0  0  0  0  0
    1.1451   -0.2888    0.0676 C   0  0  0  0  0  3  0  0  0  0  0  0
   -0.1275    0.0446    0.1771 C   0  0  0  0  0  0  0  0  0  0  0  0
   -1.3027    0.3736    0.2722 C   0  0  0  0  0  0  0  0  0  0  0  0
   -2.3365    0.6036    0.3729 H   0  0  0  0  0  0  0  0  0  0  0  0
  1  2  2  0
  2  3  1  0
  3  4  3  0
  4  5  1  0
M  RAD  1   2   2
M  END
>  <reaction>  (2) 
rxn_908

>  <mol_properties>  (2) 
{"1": {"label": "acceptor", "atom_type": "CS"}}

>  <type>  (2) 
r2

$$$$

     RDKit          3D

  6  5  0  0  0  0  0  0  0  0999 V2000
   -1.9761    1.0978   -0.6585 S   0  0  0  0  0  0  0  0  0  0  0  0
   -1.0502    0.0275    0.1158 C   0  0  0  0  0  0  0  0  0  0  0  0
    0.3587   -0.0566   -0.0000 C   0  0  0  0  0  0  0  0  0  0  0  0
    1.5530   -0.1477   -0.0815 C   0  0  0  0  0  0  0  0  0  0  0  0
   -1.4972   -0.7045    0.7881 H   0  0  0  0  0  0  0  0  0  0  0  0
    2.6118   -0.2165   -0.1639 H   0  0  0  0  0  0  0  0  0  0  0  0
  1  2  2  0
  2  3  1  0
  2  5  1  0
  3  4  3  0
  4  6  1  0
M  END
>  <reaction>  (3) 
rxn_908

>  <mol_properties>  (3) 
{"1": {"label": "acceptor", "atom_type": "CS"}, "5": {"label": "a_hydrogen", "atom_type": "H0"}}

>  <type>  (3) 
r2h

$$$$

     RDKit          3D

 13 11  0  0  0  0  0  0  0  0999 V2000
    0.1582    1.4358   -0.8367 S   0  0  0  0  0  0  0  0  0  0  0  0
    0.0646    0.2926    0.2769 C   0  0  0  0  0  0  0  0  0  0  0  0
   -0.0037    0.4115    1.6700 C   0  0  0  0  0  0  0  0  0  0  0  0
   -0.0656    0.4128    2.8719 C   0  0  0  0  0  0  0  0  0  0  0  0
   -0.1191    0.4434    3.9342 H   0  0  0  0  0  0  0  0  0  0  0  0
   -0.0430   -2.0806   -2.1087 C   0  0  0  0  0  0  0  0  0  0  0  0
    0.0321   -2.2591   -0.6233 C   0  0  0  0  0  3  0  0  0  0  0  0
   -0.9553   -1.5589   -2.4020 H   0  0  0  0  0  0  0  0  0  0  0  0
    0.8056   -1.5059   -2.4837 H   0  0  0  0  0  0  0  0  0  0  0  0
   -0.0378   -3.0486   -2.6228 H   0  0  0  0  0  0  0  0  0  0  0  0
    0.0468   -0.9372   -0.1015 H   0  0  0  0  0  0  0  0  0  0  0  0
    0.9635   -2.6620   -0.2318 H   0  0  0  0  0  0  0  0  0  0  0  0
   -0.8464   -2.6813   -0.1407 H   0  0  0  0  0  0  0  0  0  0  0  0
  1  2  2  0
  2  3  1  0
  2 11  1  0
  3  4  3  0
  4  5  1  0
  6  7  1  0
  6  8  1  0
  6  9  1  0
  6 10  1  0
  7 12  1  0
  7 13  1  0
M  RAD  1   7   2
M  END
>  <reaction>  (4) 
rxn_908

>  <mol_properties>  (4) 
{"0": {"label": "*0", "atom_type": "S2d"}, "1": {"label": "*1", "atom_type": "CS"}, "5": {"label": "*4", "atom_type": "Cs"}, "6": {"label": "*3", "atom_type": "Cs"}, "10": {"label": "*2", "atom_type": "H0"}}

>  <type>  (4) 
ts

$$$$

     RDKit          3D

 13 11  0  0  0  0  0  0  0  0999 V2000
   -1.3275    1.0000    1.0679 S   0  0  0  0  0  0  0  0  0  0  0  0
   -0.1228    0.4910    0.1235 C   0  0  0  0  0  0  0  0  0  0  0  0
    1.2524    0.7185    0.3735 C   0  0  0  0  0  0  0  0  0  0  0  0
    2.4241    0.8984    0.5638 C   0  0  0  0  0  0  0  0  0  0  0  0
    3.4627    1.0579    0.7324 H   0  0  0  0  0  0  0  0  0  0  0  0
   -0.1228   -1.9483   -2.3486 C   0  0  0  0  0  0  0  0  0  0  0  0
   -0.1228   -1.9483   -0.8258 C   0  0  0  0  0  3  0  0  0  0  0  0
   -1.0037   -1.4397   -2.7445 H   0  0  0  0  0  0  0  0  0  0  0  0
    0.7580   -1.4397   -2.7445 H   0  0  0  0  0  0  0  0  0  0  0  0
   -0.1228   -2.9654   -2.7445 H   0  0  0  0  0  0  0  0  0  0  0  0
   -0.1228   -0.7277   -0.3508 H   0  0  0  0  0  0  0  0  0  0  0  0
    0.7580   -2.4568   -0.4300 H   0  0  0  0  0  0  0  0  0  0  0  0
   -1.0037   -2.4568   -0.4300 H   0  0  0  0  0  0  0  0  0  0  0  0
  1  2  2  0
  2  3  1  0
  2 11  1  0
  3  4  3  0
  4  5  1  0
  6  7  1  0
  6  8  1  0
  6  9  1  0
  6 10  1  0
  7 12  1  0
  7 13  1  0
M  RAD  1   7   2
M  END
>  <reaction>  (5) 
rxn_908

>  <mol_properties>  (5) 
{"0": {"label": "*0", "atom_type": "S2d"}, "1": {"label": "*1", "atom_type": "CS"}, "5": {"label": "*4", "atom_type": "Cs"}, "6": {"label": "*3", "atom_type": "Cs"}, "10": {"label": "*2", "atom_type": "H0"}}

>  <type>  (5) 
unop_1

>  <geom_source>  (5) 
Heuristics

$$$$

     RDKit          3D

 13 11  0  0  0  0  0  0  0  0999 V2000
   -0.5923    1.5346   -0.5531 S   0  0  0  0  0  0  0  0  0  0  0  0
    0.1032    0.3364    0.2733 C   0  0  0  0  0  0  0  0  0  0  0  0
    0.4262    0.3853    1.6513 C   0  0  0  0  0  0  0  0  0  0  0  0
    0.7094    0.4027    2.8178 C   0  0  0  0  0  0  0  0  0  0  0  0
    0.9605    0.4180    3.8519 H   0  0  0  0  0  0  0  0  0  0  0  0
    0.1032   -2.1029   -2.1988 C   0  0  0  0  0  0  0  0  0  0  0  0
    0.1032   -2.1029   -0.6760 C   0  0  0  0  0  3  0  0  0  0  0  0
   -0.7776   -1.5943   -2.5947 H   0  0  0  0  0  0  0  0  0  0  0  0
    0.9841   -1.5943   -2.5947 H   0  0  0  0  0  0  0  0  0  0  0  0
    0.1032   -3.1200   -2.5947 H   0  0  0  0  0  0  0  0  0  0  0  0
    0.1032   -0.8823   -0.2010 H   0  0  0  0  0  0  0  0  0  0  0  0
    0.9841   -2.6114   -0.2802 H   0  0  0  0  0  0  0  0  0  0  0  0
   -0.7776   -2.6114   -0.2802 H   0  0  0  0  0  0  0  0  0  0  0  0
  1  2  2  0
  2  3  1  0
  2 11  1  0
  3  4  3  0
  4  5  1  0
  6  7  1  0
  6  8  1  0
  6  9  1  0
  6 10  1  0
  7 12  1  0
  7 13  1  0
M  RAD  1   7   2
M  END
>  <reaction>  (6) 
rxn_908

>  <mol_properties>  (6) 
{"0": {"label": "*0", "atom_type": "S2d"}, "1": {"label": "*1", "atom_type": "CS"}, "5": {"label": "*4", "atom_type": "Cs"}, "6": {"label": "*3", "atom_type": "Cs"}, "10": {"label": "*2", "atom_type": "H0"}}

>  <type>  (6) 
unop_2

>  <geom_source>  (6) 
Heuristics

$$$$

     RDKit          3D

 13 11  0  0  0  0  0  0  0  0999 V2000
   -0.9085    0.7296    1.6618 S   0  0  0  0  0  0  0  0  0  0  0  0
   -0.2129    0.4052    0.2429 C   0  0  0  0  0  0  0  0  0  0  0  0
    0.9652    1.0246   -0.2408 C   0  0  0  0  0  0  0  0  0  0  0  0
    1.9624    1.5353   -0.6723 C   0  0  0  0  0  0  0  0  0  0  0  0
    2.8463    1.9880   -1.0548 H   0  0  0  0  0  0  0  0  0  0  0  0
   -0.2129   -2.0340   -2.2293 C   0  0  0  0  0  0  0  0  0  0  0  0
   -0.2129   -2.0340   -0.7065 C   0  0  0  0  0  3  0  0  0  0  0  0
   -1.0938   -1.5255   -2.6251 H   0  0  0  0  0  0  0  0  0  0  0  0
    0.6679   -1.5255   -2.6251 H   0  0  0  0  0  0  0  0  0  0  0  0
   -0.2130   -3.0512   -2.6251 H   0  0  0  0  0  0  0  0  0  0  0  0
   -0.2129   -0.8135   -0.2315 H   0  0  0  0  0  0  0  0  0  0  0  0
    0.6679   -2.5426   -0.3106 H   0  0  0  0  0  0  0  0  0  0  0  0
   -1.0938   -2.5426   -0.3106 H   0  0  0  0  0  0  0  0  0  0  0  0
  1  2  2  0
  2  3  1  0
  2 11  1  0
  3  4  3  0
  4  5  1  0
  6  7  1  0
  6  8  1  0
  6  9  1  0
  6 10  1  0
  7 12  1  0
  7 13  1  0
M  RAD  1   7   2
M  END
>  <reaction>  (7) 
rxn_908

>  <mol_properties>  (7) 
{"0": {"label": "*0", "atom_type": "S2d"}, "1": {"label": "*1", "atom_type": "CS"}, "5": {"label": "*4", "atom_type": "Cs"}, "6": {"label": "*3", "atom_type": "Cs"}, "10": {"label": "*2", "atom_type": "H0"}}

>  <type>  (7) 
unop_3

>  <geom_source>  (7) 
Heuristics

$$$$

     RDKit          3D

 13 11  0  0  0  0  0  0  0  0999 V2000
    1.0879    1.4276   -0.1703 S   0  0  0  0  0  0  0  0  0  0  0  0
   -0.1168    0.4141    0.1816 C   0  0  0  0  0  0  0  0  0  0  0  0
   -0.8439    0.4128    1.3969 C   0  0  0  0  0  0  0  0  0  0  0  0
   -1.4745    0.3920    2.4183 C   0  0  0  0  0  0  0  0  0  0  0  0
   -2.0335    0.3735    3.3237 H   0  0  0  0  0  0  0  0  0  0  0  0
   -0.1168   -2.0252   -2.2905 C   0  0  0  0  0  0  0  0  0  0  0  0
   -0.1168   -2.0252   -0.7677 C   0  0  0  0  0  3  0  0  0  0  0  0
   -0.9976   -1.5167   -2.6864 H   0  0  0  0  0  0  0  0  0  0  0  0
    0.7640   -1.5167   -2.6864 H   0  0  0  0  0  0  0  0  0  0  0  0
   -0.1168   -3.0423   -2.6864 H   0  0  0  0  0  0  0  0  0  0  0  0
   -0.1168   -0.8047   -0.2927 H   0  0  0  0  0  0  0  0  0  0  0  0
    0.7640   -2.5338   -0.3719 H   0  0  0  0  0  0  0  0  0  0  0  0
   -0.9976   -2.5338   -0.3719 H   0  0  0  0  0  0  0  0  0  0  0  0
  1  2  2  0
  2  3  1  0
  2 11  1  0
  3  4  3  0
  4  5  1  0
  6  7  1  0
  6  8  1  0
  6  9  1  0
  6 10  1  0
  7 12  1  0
  7 13  1  0
M  RAD  1   7   2
M  END
>  <reaction>  (8) 
rxn_908

>  <mol_properties>  (8) 
{"0": {"label": "*0", "atom_type": "S2d"}, "1": {"label": "*1", "atom_type": "CS"}, "5": {"label": "*4", "atom_type": "Cs"}, "6": {"label": "*3", "atom_type": "Cs"}, "10": {"label": "*2", "atom_type": "H0"}}

>  <type>  (8) 
unop_4

>  <geom_source>  (8) 
Heuristics

$$$$

     RDKit          3D

 13 11  0  0  0  0  0  0  0  0999 V2000
    0.0000    0.5359    1.9647 S   0  0  0  0  0  0  0  0  0  0  0  0
    0.0000    0.2792    0.3721 C   0  0  0  0  0  0  0  0  0  0  0  0
   -0.0000    1.2981   -0.6115 C   0  0  0  0  0  0  0  0  0  0  0  0
   -0.0000    2.1436   -1.4637 C   0  0  0  0  0  0  0  0  0  0  0  0
   -0.0000    2.8932   -2.2192 H   0  0  0  0  0  0  0  0  0  0  0  0
    0.0000   -2.1601   -2.1000 C   0  0  0  0  0  0  0  0  0  0  0  0
    0.0000   -2.1601   -0.5772 C   0  0  0  0  0  3  0  0  0  0  0  0
   -0.8808   -1.6516   -2.4959 H   0  0  0  0  0  0  0  0  0  0  0  0
    0.8808   -1.6516   -2.4959 H   0  0  0  0  0  0  0  0  0  0  0  0
   -0.0000   -3.1772   -2.4959 H   0  0  0  0  0  0  0  0  0  0  0  0
    0.0000   -0.9396   -0.1022 H   0  0  0  0  0  0  0  0  0  0  0  0
    0.8808   -2.6687   -0.1814 H   0  0  0  0  0  0  0  0  0  0  0  0
   -0.8808   -2.6687   -0.1814 H   0  0  0  0  0  0  0  0  0  0  0  0
  1  2  2  0
  2  3  1  0
  2 11  1  0
  3  4  3  0
  4  5  1  0
  6  7  1  0
  6  8  1  0
  6  9  1  0
  6 10  1  0
  7 12  1  0
  7 13  1  0
M  RAD  1   7   2
M  END
>  <reaction>  (9) 
rxn_908

>  <mol_properties>  (9) 
{"0": {"label": "*0", "atom_type": "S2d"}, "1": {"label": "*1", "atom_type": "CS"}, "5": {"label": "*4", "atom_type": "Cs"}, "6": {"label": "*3", "atom_type": "Cs"}, "10": {"label": "*2", "atom_type": "H0"}}

>  <type>  (9) 
unop_5

>  <geom_source>  (9) 
Heuristics

$$$$

     RDKit          3D

 13 11  0  0  0  0  0  0  0  0999 V2000
    1.3665    1.2418    0.4083 S   0  0  0  0  0  0  0  0  0  0  0  0
   -0.0246    0.4805    0.1120 C   0  0  0  0  0  0  0  0  0  0  0  0
   -1.1625    0.5180    0.9543 C   0  0  0  0  0  0  0  0  0  0  0  0
   -2.1396    0.5344    1.6515 C   0  0  0  0  0  0  0  0  0  0  0  0
   -3.0059    0.5490    2.2697 H   0  0  0  0  0  0  0  0  0  0  0  0
   -0.0246   -1.9588   -2.3601 C   0  0  0  0  0  0  0  0  0  0  0  0
   -0.0246   -1.9588   -0.8373 C   0  0  0  0  0  3  0  0  0  0  0  0
   -0.9054   -1.4502   -2.7559 H   0  0  0  0  0  0  0  0  0  0  0  0
    0.8563   -1.4502   -2.7559 H   0  0  0  0  0  0  0  0  0  0  0  0
   -0.0246   -2.9759   -2.7559 H   0  0  0  0  0  0  0  0  0  0  0  0
   -0.0246   -0.7383   -0.3623 H   0  0  0  0  0  0  0  0  0  0  0  0
    0.8563   -2.4673   -0.4415 H   0  0  0  0  0  0  0  0  0  0  0  0
   -0.9054   -2.4673   -0.4415 H   0  0  0  0  0  0  0  0  0  0  0  0
  1  2  2  0
  2  3  1  0
  2 11  1  0
  3  4  3  0
  4  5  1  0
  6  7  1  0
  6  8  1  0
  6  9  1  0
  6 10  1  0
  7 12  1  0
  7 13  1  0
M  RAD  1   7   2
M  END
>  <reaction>  (10) 
rxn_908

>  <mol_properties>  (10) 
{"0": {"label": "*0", "atom_type": "S2d"}, "1": {"label": "*1", "atom_type": "CS"}, "5": {"label": "*4", "atom_type": "Cs"}, "6": {"label": "*3", "atom_type": "Cs"}, "10": {"label": "*2", "atom_type": "H0"}}

>  <type>  (10) 
unop_6

>  <geom_source>  (10) 
Heuristics

$$$$

     RDKit          3D

 13 11  0  0  0  0  0  0  0  0999 V2000
    1.3275    1.0000    1.0679 S   0  0  0  0  0  0  0  0  0  0  0  0
    0.1228    0.4910    0.1235 C   0  0  0  0  0  0  0  0  0  0  0  0
   -1.2524    0.7185    0.3735 C   0  0  0  0  0  0  0  0  0  0  0  0
   -2.4241    0.8984    0.5638 C   0  0  0  0  0  0  0  0  0  0  0  0
   -3.4627    1.0579    0.7324 H   0  0  0  0  0  0  0  0  0  0  0  0
    0.1228   -1.9483   -2.3486 C   0  0  0  0  0  0  0  0  0  0  0  0
    0.1228   -1.9483   -0.8258 C   0  0  0  0  0  3  0  0  0  0  0  0
   -0.7580   -1.4397   -2.7445 H   0  0  0  0  0  0  0  0  0  0  0  0
    1.0037   -1.4397   -2.7445 H   0  0  0  0  0  0  0  0  0  0  0  0
    0.1228   -2.9654   -2.7445 H   0  0  0  0  0  0  0  0  0  0  0  0
    0.1228   -0.7277   -0.3508 H   0  0  0  0  0  0  0  0  0  0  0  0
    1.0037   -2.4568   -0.4300 H   0  0  0  0  0  0  0  0  0  0  0  0
   -0.7580   -2.4568   -0.4300 H   0  0  0  0  0  0  0  0  0  0  0  0
  1  2  2  0
  2  3  1  0
  2 11  1  0
  3  4  3  0
  4  5  1  0
  6  7  1  0
  6  8  1  0
  6  9  1  0
  6 10  1  0
  7 12  1  0
  7 13  1  0
M  RAD  1   7   2
M  END
>  <reaction>  (11) 
rxn_908

>  <mol_properties>  (11) 
{"0": {"label": "*0", "atom_type": "S2d"}, "1": {"label": "*1", "atom_type": "CS"}, "5": {"label": "*4", "atom_type": "Cs"}, "6": {"label": "*3", "atom_type": "Cs"}, "10": {"label": "*2", "atom_type": "H0"}}

>  <type>  (11) 
unop_7

>  <geom_source>  (11) 
Heuristics

$$$$

     RDKit          3D

 13 11  0  0  0  0  0  0  0  0999 V2000
   -1.3665    1.2418    0.4083 S   0  0  0  0  0  0  0  0  0  0  0  0
    0.0246    0.4805    0.1120 C   0  0  0  0  0  0  0  0  0  0  0  0
    1.1625    0.5180    0.9543 C   0  0  0  0  0  0  0  0  0  0  0  0
    2.1396    0.5344    1.6515 C   0  0  0  0  0  0  0  0  0  0  0  0
    3.0059    0.5490    2.2696 H   0  0  0  0  0  0  0  0  0  0  0  0
    0.0246   -1.9588   -2.3601 C   0  0  0  0  0  0  0  0  0  0  0  0
    0.0246   -1.9588   -0.8373 C   0  0  0  0  0  3  0  0  0  0  0  0
   -0.8563   -1.4502   -2.7559 H   0  0  0  0  0  0  0  0  0  0  0  0
    0.9054   -1.4502   -2.7559 H   0  0  0  0  0  0  0  0  0  0  0  0
    0.0246   -2.9759   -2.7559 H   0  0  0  0  0  0  0  0  0  0  0  0
    0.0246   -0.7383   -0.3623 H   0  0  0  0  0  0  0  0  0  0  0  0
    0.9054   -2.4673   -0.4415 H   0  0  0  0  0  0  0  0  0  0  0  0
   -0.8563   -2.4673   -0.4415 H   0  0  0  0  0  0  0  0  0  0  0  0
  1  2  2  0
  2  3  1  0
  2 11  1  0
  3  4  3  0
  4  5  1  0
  6  7  1  0
  6  8  1  0
  6  9  1  0
  6 10  1  0
  7 12  1  0
  7 13  1  0
M  RAD  1   7   2
M  END
>  <reaction>  (12) 
rxn_908

>  <mol_properties>  (12) 
{"0": {"label": "*0", "atom_type": "S2d"}, "1": {"label": "*1", "atom_type": "CS"}, "5": {"label": "*4", "atom_type": "Cs"}, "6": {"label": "*3", "atom_type": "Cs"}, "10": {"label": "*2", "atom_type": "H0"}}

>  <type>  (12) 
unop_8

>  <geom_source>  (12) 
Heuristics

$$$$

     RDKit          3D

 13 11  0  0  0  0  0  0  0  0999 V2000
    0.5923    1.5346   -0.5531 S   0  0  0  0  0  0  0  0  0  0  0  0
   -0.1032    0.3364    0.2733 C   0  0  0  0  0  0  0  0  0  0  0  0
   -0.4262    0.3853    1.6513 C   0  0  0  0  0  0  0  0  0  0  0  0
   -0.7094    0.4027    2.8178 C   0  0  0  0  0  0  0  0  0  0  0  0
   -0.9605    0.4180    3.8519 H   0  0  0  0  0  0  0  0  0  0  0  0
   -0.1032   -2.1029   -2.1988 C   0  0  0  0  0  0  0  0  0  0  0  0
   -0.1032   -2.1029   -0.6760 C   0  0  0  0  0  3  0  0  0  0  0  0
   -0.9841   -1.5943   -2.5947 H   0  0  0  0  0  0  0  0  0  0  0  0
    0.7776   -1.5943   -2.5947 H   0  0  0  0  0  0  0  0  0  0  0  0
   -0.1032   -3.1200   -2.5947 H   0  0  0  0  0  0  0  0  0  0  0  0
   -0.1032   -0.8823   -0.2010 H   0  0  0  0  0  0  0  0  0  0  0  0
    0.7776   -2.6114   -0.2802 H   0  0  0  0  0  0  0  0  0  0  0  0
   -0.9841   -2.6114   -0.2802 H   0  0  0  0  0  0  0  0  0  0  0  0
  1  2  2  0
  2  3  1  0
  2 11  1  0
  3  4  3  0
  4  5  1  0
  6  7  1  0
  6  8  1  0
  6  9  1  0
  6 10  1  0
  7 12  1  0
  7 13  1  0
M  RAD  1   7   2
M  END
>  <reaction>  (13) 
rxn_908

>  <mol_properties>  (13) 
{"0": {"label": "*0", "atom_type": "S2d"}, "1": {"label": "*1", "atom_type": "CS"}, "5": {"label": "*4", "atom_type": "Cs"}, "6": {"label": "*3", "atom_type": "Cs"}, "10": {"label": "*2", "atom_type": "H0"}}

>  <type>  (13) 
unop_9

>  <geom_source>  (13) 
Heuristics

$$$$

     RDKit          3D

 13 11  0  0  0  0  0  0  0  0999 V2000
   -1.0879    1.4276   -0.1703 S   0  0  0  0  0  0  0  0  0  0  0  0
    0.1168    0.4141    0.1816 C   0  0  0  0  0  0  0  0  0  0  0  0
    0.8439    0.4128    1.3969 C   0  0  0  0  0  0  0  0  0  0  0  0
    1.4745    0.3920    2.4183 C   0  0  0  0  0  0  0  0  0  0  0  0
    2.0335    0.3735    3.3237 H   0  0  0  0  0  0  0  0  0  0  0  0
    0.1168   -2.0252   -2.2905 C   0  0  0  0  0  0  0  0  0  0  0  0
    0.1168   -2.0252   -0.7677 C   0  0  0  0  0  3  0  0  0  0  0  0
   -0.7640   -1.5167   -2.6864 H   0  0  0  0  0  0  0  0  0  0  0  0
    0.9977   -1.5167   -2.6864 H   0  0  0  0  0  0  0  0  0  0  0  0
    0.1168   -3.0423   -2.6864 H   0  0  0  0  0  0  0  0  0  0  0  0
    0.1168   -0.8047   -0.2927 H   0  0  0  0  0  0  0  0  0  0  0  0
    0.9977   -2.5338   -0.3719 H   0  0  0  0  0  0  0  0  0  0  0  0
   -0.7640   -2.5338   -0.3719 H   0  0  0  0  0  0  0  0  0  0  0  0
  1  2  2  0
  2  3  1  0
  2 11  1  0
  3  4  3  0
  4  5  1  0
  6  7  1  0
  6  8  1  0
  6  9  1  0
  6 10  1  0
  7 12  1  0
  7 13  1  0
M  RAD  1   7   2
M  END
>  <reaction>  (14) 
rxn_908

>  <mol_properties>  (14) 
{"0": {"label": "*0", "atom_type": "S2d"}, "1": {"label": "*1", "atom_type": "CS"}, "5": {"label": "*4", "atom_type": "Cs"}, "6": {"label": "*3", "atom_type": "Cs"}, "10": {"label": "*2", "atom_type": "H0"}}

>  <type>  (14) 
unop_10

>  <geom_source>  (14) 
Heuristics

$$$$

     RDKit          3D

 13 11  0  0  0  0  0  0  0  0999 V2000
    0.9085    0.7296    1.6618 S   0  0  0  0  0  0  0  0  0  0  0  0
    0.2130    0.4052    0.2429 C   0  0  0  0  0  0  0  0  0  0  0  0
   -0.9652    1.0246   -0.2408 C   0  0  0  0  0  0  0  0  0  0  0  0
   -1.9624    1.5353   -0.6723 C   0  0  0  0  0  0  0  0  0  0  0  0
   -2.8463    1.9880   -1.0548 H   0  0  0  0  0  0  0  0  0  0  0  0
    0.2130   -2.0340   -2.2293 C   0  0  0  0  0  0  0  0  0  0  0  0
    0.2130   -2.0340   -0.7065 C   0  0  0  0  0  3  0  0  0  0  0  0
   -0.6679   -1.5255   -2.6251 H   0  0  0  0  0  0  0  0  0  0  0  0
    1.0938   -1.5255   -2.6251 H   0  0  0  0  0  0  0  0  0  0  0  0
    0.2129   -3.0512   -2.6251 H   0  0  0  0  0  0  0  0  0  0  0  0
    0.2130   -0.8135   -0.2315 H   0  0  0  0  0  0  0  0  0  0  0  0
    1.0938   -2.5426   -0.3106 H   0  0  0  0  0  0  0  0  0  0  0  0
   -0.6679   -2.5426   -0.3106 H   0  0  0  0  0  0  0  0  0  0  0  0
  1  2  2  0
  2  3  1  0
  2 11  1  0
  3  4  3  0
  4  5  1  0
  6  7  1  0
  6  8  1  0
  6  9  1  0
  6 10  1  0
  7 12  1  0
  7 13  1  0
M  RAD  1   7   2
M  END
>  <reaction>  (15) 
rxn_908

>  <mol_properties>  (15) 
{"0": {"label": "*0", "atom_type": "S2d"}, "1": {"label": "*1", "atom_type": "CS"}, "5": {"label": "*4", "atom_type": "Cs"}, "6": {"label": "*3", "atom_type": "Cs"}, "10": {"label": "*2", "atom_type": "H0"}}

>  <type>  (15) 
unop_11

>  <geom_source>  (15) 
Heuristics

$$$$

     RDKit          3D

 13 11  0  0  0  0  0  0  0  0999 V2000
   -0.0000    1.5669   -0.6843 S   0  0  0  0  0  0  0  0  0  0  0  0
   -0.0000    0.3011    0.3158 C   0  0  0  0  0  0  0  0  0  0  0  0
    0.0000    0.3871    1.7294 C   0  0  0  0  0  0  0  0  0  0  0  0
    0.0000    0.4341    2.9290 C   0  0  0  0  0  0  0  0  0  0  0  0
    0.0000    0.4757    3.9924 H   0  0  0  0  0  0  0  0  0  0  0  0
   -0.0000   -2.1382   -2.1564 C   0  0  0  0  0  0  0  0  0  0  0  0
   -0.0000   -2.1382   -0.6336 C   0  0  0  0  0  3  0  0  0  0  0  0
   -0.8808   -1.6297   -2.5522 H   0  0  0  0  0  0  0  0  0  0  0  0
    0.8808   -1.6297   -2.5522 H   0  0  0  0  0  0  0  0  0  0  0  0
   -0.0000   -3.1553   -2.5522 H   0  0  0  0  0  0  0  0  0  0  0  0
   -0.0000   -0.9177   -0.1586 H   0  0  0  0  0  0  0  0  0  0  0  0
    0.8808   -2.6468   -0.2377 H   0  0  0  0  0  0  0  0  0  0  0  0
   -0.8808   -2.6468   -0.2377 H   0  0  0  0  0  0  0  0  0  0  0  0
  1  2  2  0
  2  3  1  0
  2 11  1  0
  3  4  3  0
  4  5  1  0
  6  7  1  0
  6  8  1  0
  6  9  1  0
  6 10  1  0
  7 12  1  0
  7 13  1  0
M  RAD  1   7   2
M  END
>  <reaction>  (16) 
rxn_908

>  <mol_properties>  (16) 
{"0": {"label": "*0", "atom_type": "S2d"}, "1": {"label": "*1", "atom_type": "CS"}, "5": {"label": "*4", "atom_type": "Cs"}, "6": {"label": "*3", "atom_type": "Cs"}, "10": {"label": "*2", "atom_type": "H0"}}

>  <type>  (16) 
unop_12

>  <geom_source>  (16) 
Heuristics

$$$$

     RDKit          3D

 13 11  0  0  0  0  0  0  0  0999 V2000
   -0.8189    2.4986   -0.7808 S   0  0  0  0  0  0  0  0  0  0  0  0
    1.8119   -0.0686   -0.3159 C   0  0  0  0  0  0  0  0  0  0  0  0
    0.6921   -1.0916   -0.2683 C   0  0  0  0  0  0  0  0  0  0  0  0
   -0.8615    0.9749   -0.1968 C   0  0  0  0  0  3  0  0  0  0  0  0
   -2.0073    0.5179    0.5366 C   0  0  0  0  0  0  0  0  0  0  0  0
   -2.9693    0.1331    1.1528 C   0  0  0  0  0  0  0  0  0  0  0  0
    1.7584    0.4975   -1.2690 H   0  0  0  0  0  0  0  0  0  0  0  0
    1.7059    0.6387    0.5328 H   0  0  0  0  0  0  0  0  0  0  0  0
    2.7950   -0.5801   -0.2472 H   0  0  0  0  0  0  0  0  0  0  0  0
    0.7862   -1.7981   -1.1198 H   0  0  0  0  0  0  0  0  0  0  0  0
    0.7336   -1.6565    0.6867 H   0  0  0  0  0  0  0  0  0  0  0  0
    0.1879    0.1389   -0.4049 H   0  0  0  0  0  0  0  0  0  0  0  0
   -3.8139   -0.2047    1.6937 H   0  0  0  0  0  0  0  0  0  0  0  0
  1  4  2  0
  2  3  1  0
  2  7  1  0
  2  8  1  0
  2  9  1  0
  3 10  1  0
  3 11  1  0
  3 12  1  0
  4  5  1  0
  5  6  3  0
  6 13  1  0
M  RAD  1   4   2
M  END
>  <reaction>  (17) 
rxn_908

>  <mol_properties>  (17) 
{"0": {"label": "*0", "atom_type": "S2d"}, "1": {"label": "*1", "atom_type": "CS"}, "5": {"label": "*4", "atom_type": "Cs"}, "6": {"label": "*3", "atom_type": "Cs"}, "10": {"label": "*2", "atom_type": "H0"}}

>  <type>  (17) 
unop_13

>  <geom_source>  (17) 
AutoTST

$$$$
