
     RDKit          3D

 10  9  0  0  0  0  0  0  0  0999 V2000
    1.2734    0.0490    0.2233 C   0  0  0  0  0  0  0  0  0  0  0  0
    0.0091   -0.5167   -0.3796 C   0  0  0  0  0  0  0  0  0  0  0  0
   -1.2750    0.2005   -0.0353 C   0  0  0  0  0  0  0  0  0  0  0  0
    0.0241   -1.4856   -1.0949 O   0  0  0  0  0  0  0  0  0  0  0  0
    1.2000    0.0499    1.3134 H   0  0  0  0  0  0  0  0  0  0  0  0
    1.4040    1.0879   -0.0883 H   0  0  0  0  0  0  0  0  0  0  0  0
    2.1329   -0.5399   -0.0877 H   0  0  0  0  0  0  0  0  0  0  0  0
   -1.2178    1.2439   -0.3544 H   0  0  0  0  0  0  0  0  0  0  0  0
   -2.1179   -0.2871   -0.5191 H   0  0  0  0  0  0  0  0  0  0  0  0
   -1.4218    0.2058    1.0473 H   0  0  0  0  0  0  0  0  0  0  0  0
  1  2  1  0
  1  5  1  0
  1  6  1  0
  1  7  1  0
  2  3  1  0
  2  4  2  0
  3  8  1  0
  3  9  1  0
  3 10  1  0
M  END
>  <reaction>  (1) 
rxn_139

>  <mol_properties>  (1) 
{"0": {"label": "donator", "atom_type": "Cs"}, "4": {"label": "d_hydrogen", "atom_type": "H0"}}

>  <type>  (1) 
r1h

$$$$

     RDKit          3D

  1  0  0  0  0  0  0  0  0  0999 V2000
    0.0000    0.0000    0.0000 Cl  0  0  0  0  0 15  0  0  0  0  0  0
M  END
>  <reaction>  (2) 
rxn_139

>  <mol_properties>  (2) 
{"0": {"label": "acceptor", "atom_type": "Cl1s"}}

>  <type>  (2) 
r2

$$$$

     RDKit          3D

  2  1  0  0  0  0  0  0  0  0999 V2000
    0.0000    0.0000    0.6391 Cl  0  0  0  0  0  0  0  0  0  0  0  0
    0.0000    0.0000   -0.6391 H   0  0  0  0  0  0  0  0  0  0  0  0
  1  2  1  0
M  END
>  <reaction>  (3) 
rxn_139

>  <mol_properties>  (3) 
{"0": {"label": "acceptor", "atom_type": "Cl1s"}, "1": {"label": "a_hydrogen", "atom_type": "H0"}}

>  <type>  (3) 
r2h

$$$$

     RDKit          3D

 11  9  0  0  0  0  0  0  0  0999 V2000
   -1.4232    1.5828    0.0259 Cl  0  0  0  0  0 15  0  0  0  0  0  0
    0.9436    0.2142    0.7540 C   0  0  0  0  0  0  0  0  0  0  0  0
    0.8319   -1.1077    0.0705 C   0  0  0  0  0  0  0  0  0  0  0  0
    0.8881   -1.1163   -1.4308 C   0  0  0  0  0  0  0  0  0  0  0  0
    0.7091   -2.1054    0.7383 O   0  0  0  0  0  0  0  0  0  0  0  0
   -0.2001    0.8061    0.4345 H   0  0  0  0  0  0  0  0  0  0  0  0
    1.6586    0.9210    0.3397 H   0  0  0  0  0  0  0  0  0  0  0  0
    0.9010    0.1730    1.8379 H   0  0  0  0  0  0  0  0  0  0  0  0
    1.8347   -0.6927   -1.7733 H   0  0  0  0  0  0  0  0  0  0  0  0
    0.7817   -2.1321   -1.8024 H   0  0  0  0  0  0  0  0  0  0  0  0
    0.0891   -0.4858   -1.8280 H   0  0  0  0  0  0  0  0  0  0  0  0
  2  3  1  0
  2  6  1  0
  2  7  1  0
  2  8  1  0
  3  4  1  0
  3  5  2  0
  4  9  1  0
  4 10  1  0
  4 11  1  0
M  END
>  <reaction>  (4) 
rxn_139

>  <mol_properties>  (4) 
{"0": {"label": "*3", "atom_type": "Cl1s"}, "1": {"label": "*1", "atom_type": "Cs"}, "2": {"label": "*0", "atom_type": "CO"}, "5": {"label": "*2", "atom_type": "H0"}}

>  <type>  (4) 
ts

$$$$

     RDKit          3D

 11  9  0  0  0  0  0  0  0  0999 V2000
   -1.4249    1.7171   -0.0540 Cl  0  0  0  0  0 15  0  0  0  0  0  0
    0.8615    0.2307    0.7565 C   0  0  0  0  0  0  0  0  0  0  0  0
    0.8615   -1.1237    0.0878 C   0  0  0  0  0  0  0  0  0  0  0  0
    0.8615   -1.1237   -1.4228 C   0  0  0  0  0  0  0  0  0  0  0  0
    0.8615   -2.1467    0.7236 O   0  0  0  0  0  0  0  0  0  0  0  0
   -0.1921    0.9157    0.3830 H   0  0  0  0  0  0  0  0  0  0  0  0
    1.7396    0.8015    0.4453 H   0  0  0  0  0  0  0  0  0  0  0  0
    0.8615    0.1149    1.8377 H   0  0  0  0  0  0  0  0  0  0  0  0
    1.7395   -0.5920   -1.7968 H   0  0  0  0  0  0  0  0  0  0  0  0
    0.8615   -2.1445   -1.7975 H   0  0  0  0  0  0  0  0  0  0  0  0
   -0.0165   -0.5920   -1.7968 H   0  0  0  0  0  0  0  0  0  0  0  0
  2  3  1  0
  2  6  1  0
  2  7  1  0
  2  8  1  0
  3  4  1  0
  3  5  2  0
  4  9  1  0
  4 10  1  0
  4 11  1  0
M  END
>  <reaction>  (5) 
rxn_139

>  <mol_properties>  (5) 
{"0": {"label": "*3", "atom_type": "Cl1s"}, "1": {"label": "*1", "atom_type": "Cs"}, "2": {"label": "*0", "atom_type": "CO"}, "5": {"label": "*2", "atom_type": "H0"}}

>  <type>  (5) 
unop_1

>  <geom_source>  (5) 
Heuristics

$$$$
