
     RDKit          3D

  7  6  0  0  0  0  0  0  0  0999 V2000
   -0.6782    0.0507    0.0301 C   0  0  0  0  0  0  0  0  0  0  0  0
    0.8092    0.0996    0.0213 C   0  0  0  0  0  0  0  0  0  0  0  0
    1.7473    0.7521    1.1507 S   0  0  0  0  0  0  0  0  0  0  0  0
   -1.0667    0.5456   -0.8653 H   0  0  0  0  0  0  0  0  0  0  0  0
   -1.0112   -0.9904   -0.0239 H   0  0  0  0  0  0  0  0  0  0  0  0
   -1.0920    0.5225    0.9188 H   0  0  0  0  0  0  0  0  0  0  0  0
    1.2740   -0.3620   -0.8520 H   0  0  0  0  0  0  0  0  0  0  0  0
  1  2  1  0
  1  4  1  0
  1  5  1  0
  1  6  1  0
  2  3  2  0
  2  7  1  0
M  END
>  <reaction>  (1) 
rxn_1984

>  <mol_properties>  (1) 
{"0": {"label": "donator", "atom_type": "Cs"}, "3": {"label": "d_hydrogen", "atom_type": "H0"}}

>  <type>  (1) 
r1h

$$$$

     RDKit          3D

 10  9  0  0  0  0  0  0  0  0999 V2000
   -1.3354   -0.2069    0.0525 C   0  0  0  0  0  0  0  0  0  0  0  0
    0.0851    0.2624    0.0266 C   0  0  0  0  0  0  0  0  0  0  0  0
    0.4841    1.3876    0.7359 C   0  0  0  0  0  0  0  0  0  0  0  0
    2.0191    2.0303    0.8057 S   0  0  0  0  0  1  0  0  0  0  0  0
    1.1566   -0.6823   -0.9297 S   0  0  0  0  0  0  0  0  0  0  0  0
   -1.7589   -0.2174   -0.9545 H   0  0  0  0  0  0  0  0  0  0  0  0
   -1.4004   -1.2253    0.4427 H   0  0  0  0  0  0  0  0  0  0  0  0
   -1.9442    0.4442    0.6783 H   0  0  0  0  0  0  0  0  0  0  0  0
   -0.3073    1.8814    1.2951 H   0  0  0  0  0  0  0  0  0  0  0  0
    2.2383    0.0827   -0.6554 H   0  0  0  0  0  0  0  0  0  0  0  0
  1  2  1  0
  1  6  1  0
  1  7  1  0
  1  8  1  0
  2  3  2  3
  2  5  1  0
  3  4  1  0
  3  9  1  0
  5 10  1  0
M  RAD  1   4   2
M  END
>  <reaction>  (2) 
rxn_1984

>  <mol_properties>  (2) 
{"1": {"label": "acceptor", "atom_type": "Cs"}}

>  <type>  (2) 
r2

$$$$

     RDKit          3D

 11 10  0  0  0  0  0  0  0  0999 V2000
   -1.0997   -0.5860   -0.1182 C   0  0  0  0  0  0  0  0  0  0  0  0
    0.0827    0.2961    0.2270 C   0  0  0  0  0  0  0  0  0  0  0  0
    0.1622    1.6171   -0.4774 C   0  0  0  0  0  0  0  0  0  0  0  0
   -0.9879    2.3087   -1.3633 S   0  0  0  0  0  0  0  0  0  0  0  0
    0.2176    0.6619    2.0187 S   0  0  0  0  0  0  0  0  0  0  0  0
   -1.1052   -0.8107   -1.1861 H   0  0  0  0  0  0  0  0  0  0  0  0
   -2.0402   -0.0893    0.1198 H   0  0  0  0  0  0  0  0  0  0  0  0
   -1.0438   -1.5182    0.4423 H   0  0  0  0  0  0  0  0  0  0  0  0
    1.0207   -0.2324    0.0280 H   0  0  0  0  0  0  0  0  0  0  0  0
    1.1091    2.1333   -0.3182 H   0  0  0  0  0  0  0  0  0  0  0  0
   -0.9205    1.3661    2.0994 H   0  0  0  0  0  0  0  0  0  0  0  0
  1  2  1  0
  1  6  1  0
  1  7  1  0
  1  8  1  0
  2  3  1  0
  2  5  1  0
  2  9  1  0
  3  4  2  0
  3 10  1  0
  5 11  1  0
M  END
>  <reaction>  (3) 
rxn_1984

>  <mol_properties>  (3) 
{"1": {"label": "acceptor", "atom_type": "Cs"}, "10": {"label": "a_hydrogen", "atom_type": "H0"}}

>  <type>  (3) 
r2h

$$$$

     RDKit          3D

 17 15  0  0  0  0  0  0  0  0999 V2000
   -1.5197   -0.7570    0.2761 C   0  0  0  0  0  0  0  0  0  0  0  0
   -0.4574    0.0979    0.9185 C   0  0  1  0  0  0  0  0  0  0  0  0
   -0.6925    1.5274    1.1066 C   0  0  0  0  0  0  0  0  0  0  0  0
   -1.8005    2.4231    0.3382 S   0  0  0  0  0  0  0  0  0  0  0  0
    0.4040   -0.6089    2.3100 S   0  0  0  0  0  0  0  0  0  0  0  0
   -2.3305   -0.9425    0.9828 H   0  0  0  0  0  0  0  0  0  0  0  0
   -1.9335   -0.2487   -0.5941 H   0  0  0  0  0  0  0  0  0  0  0  0
   -1.0987   -1.7131   -0.0376 H   0  0  0  0  0  0  0  0  0  0  0  0
   -0.0006    2.0130    1.7967 H   0  0  0  0  0  0  0  0  0  0  0  0
    0.5041   -1.8480    1.8097 H   0  0  0  0  0  0  0  0  0  0  0  0
    1.3208   -0.0395   -1.0951 C   0  0  0  0  0  0  0  0  0  0  0  0
    2.1726   -1.0851   -0.6687 C   0  0  0  0  0  0  0  0  0  0  0  0
    1.8630   -2.6896   -0.8809 S   0  0  0  0  0  1  0  0  0  0  0  0
    0.4671    0.1308   -0.0062 H   0  0  0  0  0  0  0  0  0  0  0  0
    1.7226    0.9699   -1.1260 H   0  0  0  0  0  0  0  0  0  0  0  0
    0.5657   -0.2751   -1.8388 H   0  0  0  0  0  0  0  0  0  0  0  0
    3.0676   -0.7915   -0.1234 H   0  0  0  0  0  0  0  0  0  0  0  0
  1  2  1  0
  1  6  1  0
  1  7  1  0
  1  8  1  0
  2  3  1  0
  2  5  1  0
  2 14  1  6
  3  4  2  0
  3  9  1  0
  5 10  1  0
 11 12  2  3
 11 15  1  0
 11 16  1  0
 12 13  1  0
 12 17  1  0
M  RAD  1  13   2
M  END
>  <reaction>  (4) 
rxn_1984

>  <mol_properties>  (4) 
{"1": {"label": "*1", "atom_type": "Cs"}, "2": {"label": "*0", "atom_type": "CS"}, "10": {"label": "*3", "atom_type": "Cd"}, "11": {"label": "*4", "atom_type": "Cd"}, "13": {"label": "*2", "atom_type": "H0"}}

>  <type>  (4) 
ts

$$$$

     RDKit          3D

 17 15  0  0  0  0  0  0  0  0999 V2000
    0.2041    0.1239    2.4602 C   0  0  0  0  0  0  0  0  0  0  0  0
   -0.2274    0.1432    1.0080 C   0  0  0  0  0  0  0  0  0  0  0  0
   -1.6310   -0.2978    0.7195 C   0  0  0  0  0  0  0  0  0  0  0  0
   -2.8032   -0.5475    1.7914 S   0  0  0  0  0  1  0  0  0  0  0  0
   -0.0326    1.7844    0.2140 S   0  0  0  0  0  0  0  0  0  0  0  0
   -0.4214    0.7826    3.0623 H   0  0  0  0  0  0  0  0  0  0  0  0
    0.1126   -0.8839    2.8687 H   0  0  0  0  0  0  0  0  0  0  0  0
    1.2398    0.4503    2.5442 H   0  0  0  0  0  0  0  0  0  0  0  0
   -1.8328   -0.4220   -0.3446 H   0  0  0  0  0  0  0  0  0  0  0  0
   -0.9433    2.4111    0.9727 H   0  0  0  0  0  0  0  0  0  0  0  0
    1.8758    0.2077   -0.5650 C   0  0  0  0  0  0  0  0  0  0  0  0
    1.8758   -0.9908   -1.4472 C   0  0  0  0  0  0  0  0  0  0  0  0
    1.8758   -0.9908   -3.0539 S   0  0  0  0  0  0  0  0  0  0  0  0
    0.8244    0.1754    0.2213 H   0  0  0  0  0  0  0  0  0  0  0  0
    2.7519    0.1808    0.0902 H   0  0  0  0  0  0  0  0  0  0  0  0
    1.8758    1.1315   -1.1397 H   0  0  0  0  0  0  0  0  0  0  0  0
    1.8758   -1.9452   -0.9173 H   0  0  0  0  0  0  0  0  0  0  0  0
  1  2  1  0
  1  6  1  0
  1  7  1  0
  1  8  1  0
  2  3  2  3
  2  5  1  0
  3  4  1  0
  3  9  1  0
  5 10  1  0
 11 12  1  0
 11 14  1  0
 11 15  1  0
 11 16  1  0
 12 13  2  0
 12 17  1  0
M  RAD  1   4   2
M  END
>  <reaction>  (5) 
rxn_1984

>  <mol_properties>  (5) 
{"1": {"label": "*1", "atom_type": "Cs"}, "2": {"label": "*0", "atom_type": "CS"}, "10": {"label": "*3", "atom_type": "Cd"}, "11": {"label": "*4", "atom_type": "Cd"}, "13": {"label": "*2", "atom_type": "H0"}}

>  <type>  (5) 
unop_1

>  <geom_source>  (5) 
Heuristics

$$$$

     RDKit          3D

 17 15  0  0  0  0  0  0  0  0999 V2000
   -0.7228   -1.3623    1.1198 C   0  0  0  0  0  0  0  0  0  0  0  0
   -0.3271    0.0715    0.8318 C   0  0  0  0  0  0  0  0  0  0  0  0
   -1.4460    1.0440    0.6081 C   0  0  0  0  0  0  0  0  0  0  0  0
   -3.0103    0.7951    0.8850 S   0  0  0  0  0  1  0  0  0  0  0  0
    0.7381    0.8060    2.1310 S   0  0  0  0  0  0  0  0  0  0  0  0
   -1.3290   -1.4263    2.0233 H   0  0  0  0  0  0  0  0  0  0  0  0
   -1.3142   -1.7645    0.2955 H   0  0  0  0  0  0  0  0  0  0  0  0
    0.1685   -1.9743    1.2513 H   0  0  0  0  0  0  0  0  0  0  0  0
   -1.1066    2.0141    0.2445 H   0  0  0  0  0  0  0  0  0  0  0  0
   -0.1869    0.7702    3.1010 H   0  0  0  0  0  0  0  0  0  0  0  0
    1.7761    0.1361   -0.7411 C   0  0  0  0  0  0  0  0  0  0  0  0
    1.7761   -1.0624   -1.6233 C   0  0  0  0  0  0  0  0  0  0  0  0
    1.7761   -1.0624   -3.2300 S   0  0  0  0  0  0  0  0  0  0  0  0
    0.7247    0.1038    0.0451 H   0  0  0  0  0  0  0  0  0  0  0  0
    2.6522    0.1092   -0.0859 H   0  0  0  0  0  0  0  0  0  0  0  0
    1.7761    1.0599   -1.3158 H   0  0  0  0  0  0  0  0  0  0  0  0
    1.7761   -2.0168   -1.0934 H   0  0  0  0  0  0  0  0  0  0  0  0
  1  2  1  0
  1  6  1  0
  1  7  1  0
  1  8  1  0
  2  3  2  3
  2  5  1  0
  3  4  1  0
  3  9  1  0
  5 10  1  0
 11 12  1  0
 11 14  1  0
 11 15  1  0
 11 16  1  0
 12 13  2  0
 12 17  1  0
M  RAD  1   4   2
M  END
>  <reaction>  (6) 
rxn_1984

>  <mol_properties>  (6) 
{"1": {"label": "*1", "atom_type": "Cs"}, "2": {"label": "*0", "atom_type": "CS"}, "10": {"label": "*3", "atom_type": "Cd"}, "11": {"label": "*4", "atom_type": "Cd"}, "13": {"label": "*2", "atom_type": "H0"}}

>  <type>  (6) 
unop_2

>  <geom_source>  (6) 
Heuristics

$$$$

     RDKit          3D

 17 15  0  0  0  0  0  0  0  0999 V2000
    0.0956    1.0734    2.3182 C   0  0  0  0  0  0  0  0  0  0  0  0
   -0.2098    0.3813    1.0055 C   0  0  0  0  0  0  0  0  0  0  0  0
   -1.2214   -0.7243    1.0496 C   0  0  0  0  0  0  0  0  0  0  0  0
   -2.1977   -1.0901    2.2738 S   0  0  0  0  0  1  0  0  0  0  0  0
   -0.7649    1.5315   -0.3101 S   0  0  0  0  0  0  0  0  0  0  0  0
   -0.7998    1.5351    2.7339 H   0  0  0  0  0  0  0  0  0  0  0  0
    0.4658    0.3523    3.0489 H   0  0  0  0  0  0  0  0  0  0  0  0
    0.8491    1.8448    2.1649 H   0  0  0  0  0  0  0  0  0  0  0  0
   -1.2794   -1.2917    0.1206 H   0  0  0  0  0  0  0  0  0  0  0  0
   -1.9054    1.8911    0.2964 H   0  0  0  0  0  0  0  0  0  0  0  0
    1.8935    0.4459   -0.5675 C   0  0  0  0  0  0  0  0  0  0  0  0
    1.8935   -0.7526   -1.4497 C   0  0  0  0  0  0  0  0  0  0  0  0
    1.8935   -0.7526   -3.0563 S   0  0  0  0  0  0  0  0  0  0  0  0
    0.8421    0.4136    0.2188 H   0  0  0  0  0  0  0  0  0  0  0  0
    2.7696    0.4190    0.0877 H   0  0  0  0  0  0  0  0  0  0  0  0
    1.8934    1.3697   -1.1421 H   0  0  0  0  0  0  0  0  0  0  0  0
    1.8935   -1.7070   -0.9197 H   0  0  0  0  0  0  0  0  0  0  0  0
  1  2  1  0
  1  6  1  0
  1  7  1  0
  1  8  1  0
  2  3  2  3
  2  5  1  0
  3  4  1  0
  3  9  1  0
  5 10  1  0
 11 12  1  0
 11 14  1  0
 11 15  1  0
 11 16  1  0
 12 13  2  0
 12 17  1  0
M  RAD  1   4   2
M  END
>  <reaction>  (7) 
rxn_1984

>  <mol_properties>  (7) 
{"1": {"label": "*1", "atom_type": "Cs"}, "2": {"label": "*0", "atom_type": "CS"}, "10": {"label": "*3", "atom_type": "Cd"}, "11": {"label": "*4", "atom_type": "Cd"}, "13": {"label": "*2", "atom_type": "H0"}}

>  <type>  (7) 
unop_3

>  <geom_source>  (7) 
Heuristics

$$$$

     RDKit          3D

 17 15  0  0  0  0  0  0  0  0999 V2000
   -1.8864   -0.1497   -0.0300 C   0  0  0  0  0  0  0  0  0  0  0  0
   -0.6151   -0.1432    0.7942 C   0  0  0  0  0  0  0  0  0  0  0  0
   -0.0847    1.1996    1.1982 C   0  0  0  0  0  0  0  0  0  0  0  0
   -0.8407    2.6132    1.0724 S   0  0  0  0  0  1  0  0  0  0  0  0
   -0.7435   -1.1283    2.3353 S   0  0  0  0  0  0  0  0  0  0  0  0
   -2.7066    0.3190    0.5134 H   0  0  0  0  0  0  0  0  0  0  0  0
   -1.7402    0.4099   -0.9555 H   0  0  0  0  0  0  0  0  0  0  0  0
   -2.1664   -1.1739   -0.2728 H   0  0  0  0  0  0  0  0  0  0  0  0
    0.9100    1.1535    1.6420 H   0  0  0  0  0  0  0  0  0  0  0  0
   -1.6713   -0.3530    2.9149 H   0  0  0  0  0  0  0  0  0  0  0  0
    1.4881   -0.0786   -0.7788 C   0  0  0  0  0  0  0  0  0  0  0  0
    1.4881   -1.2771   -1.6610 C   0  0  0  0  0  0  0  0  0  0  0  0
    1.4881   -1.2771   -3.2677 S   0  0  0  0  0  0  0  0  0  0  0  0
    0.4368   -0.1109    0.0075 H   0  0  0  0  0  0  0  0  0  0  0  0
    2.3643   -0.1055   -0.1236 H   0  0  0  0  0  0  0  0  0  0  0  0
    1.4881    0.8452   -1.3535 H   0  0  0  0  0  0  0  0  0  0  0  0
    1.4881   -2.2315   -1.1311 H   0  0  0  0  0  0  0  0  0  0  0  0
  1  2  1  0
  1  6  1  0
  1  7  1  0
  1  8  1  0
  2  3  2  3
  2  5  1  0
  3  4  1  0
  3  9  1  0
  5 10  1  0
 11 12  1  0
 11 14  1  0
 11 15  1  0
 11 16  1  0
 12 13  2  0
 12 17  1  0
M  RAD  1   4   2
M  END
>  <reaction>  (8) 
rxn_1984

>  <mol_properties>  (8) 
{"1": {"label": "*1", "atom_type": "Cs"}, "2": {"label": "*0", "atom_type": "CS"}, "10": {"label": "*3", "atom_type": "Cd"}, "11": {"label": "*4", "atom_type": "Cd"}, "13": {"label": "*2", "atom_type": "H0"}}

>  <type>  (8) 
unop_4

>  <geom_source>  (8) 
Heuristics

$$$$

     RDKit          3D

 17 15  0  0  0  0  0  0  0  0999 V2000
   -0.4416    1.8354    1.6882 C   0  0  0  0  0  0  0  0  0  0  0  0
   -0.4265    0.6209    0.7826 C   0  0  0  0  0  0  0  0  0  0  0  0
   -0.4330   -0.7183    1.4564 C   0  0  0  0  0  0  0  0  0  0  0  0
   -0.7061   -1.0135    3.0133 S   0  0  0  0  0  1  0  0  0  0  0  0
   -1.8092    0.5953   -0.4214 S   0  0  0  0  0  0  0  0  0  0  0  0
   -1.3342    1.8454    2.3135 H   0  0  0  0  0  0  0  0  0  0  0  0
    0.4260    1.8245    2.3502 H   0  0  0  0  0  0  0  0  0  0  0  0
   -0.4224    2.7452    1.0897 H   0  0  0  0  0  0  0  0  0  0  0  0
   -0.2551   -1.5463    0.7699 H   0  0  0  0  0  0  0  0  0  0  0  0
   -2.7828    0.4753    0.4927 H   0  0  0  0  0  0  0  0  0  0  0  0
    1.6767    0.6854   -0.7904 C   0  0  0  0  0  0  0  0  0  0  0  0
    1.6767   -0.5130   -1.6726 C   0  0  0  0  0  0  0  0  0  0  0  0
    1.6767   -0.5130   -3.2792 S   0  0  0  0  0  0  0  0  0  0  0  0
    0.6254    0.6531   -0.0041 H   0  0  0  0  0  0  0  0  0  0  0  0
    2.5529    0.6585   -0.1352 H   0  0  0  0  0  0  0  0  0  0  0  0
    1.6767    1.6092   -1.3650 H   0  0  0  0  0  0  0  0  0  0  0  0
    1.6767   -1.4675   -1.1426 H   0  0  0  0  0  0  0  0  0  0  0  0
  1  2  1  0
  1  6  1  0
  1  7  1  0
  1  8  1  0
  2  3  2  3
  2  5  1  0
  3  4  1  0
  3  9  1  0
  5 10  1  0
 11 12  1  0
 11 14  1  0
 11 15  1  0
 11 16  1  0
 12 13  2  0
 12 17  1  0
M  RAD  1   4   2
M  END
>  <reaction>  (9) 
rxn_1984

>  <mol_properties>  (9) 
{"1": {"label": "*1", "atom_type": "Cs"}, "2": {"label": "*0", "atom_type": "CS"}, "10": {"label": "*3", "atom_type": "Cd"}, "11": {"label": "*4", "atom_type": "Cd"}, "13": {"label": "*2", "atom_type": "H0"}}

>  <type>  (9) 
unop_5

>  <geom_source>  (9) 
Heuristics

$$$$

     RDKit          3D

 17 15  0  0  0  0  0  0  0  0999 V2000
   -1.9563    0.6582    0.0062 C   0  0  0  0  0  0  0  0  0  0  0  0
   -0.7870   -0.0449    0.6649 C   0  0  0  0  0  0  0  0  0  0  0  0
    0.1984    0.8246    1.3864 C   0  0  0  0  0  0  0  0  0  0  0  0
    0.0245    2.3804    1.7534 S   0  0  0  0  0  1  0  0  0  0  0  0
   -1.2969   -1.3406    1.8579 S   0  0  0  0  0  0  0  0  0  0  0  0
   -2.5518    1.1985    0.7418 H   0  0  0  0  0  0  0  0  0  0  0  0
   -1.5979    1.3832   -0.7264 H   0  0  0  0  0  0  0  0  0  0  0  0
   -2.5932   -0.0698   -0.4944 H   0  0  0  0  0  0  0  0  0  0  0  0
    1.0974    0.2910    1.6956 H   0  0  0  0  0  0  0  0  0  0  0  0
   -1.8788   -0.5024    2.7278 H   0  0  0  0  0  0  0  0  0  0  0  0
    1.3163    0.0196   -0.9081 C   0  0  0  0  0  0  0  0  0  0  0  0
    1.3163   -1.1788   -1.7903 C   0  0  0  0  0  0  0  0  0  0  0  0
    1.3163   -1.1788   -3.3969 S   0  0  0  0  0  0  0  0  0  0  0  0
    0.2649   -0.0126   -0.1218 H   0  0  0  0  0  0  0  0  0  0  0  0
    2.1924   -0.0072   -0.2528 H   0  0  0  0  0  0  0  0  0  0  0  0
    1.3162    0.9434   -1.4827 H   0  0  0  0  0  0  0  0  0  0  0  0
    1.3163   -2.1333   -1.2603 H   0  0  0  0  0  0  0  0  0  0  0  0
  1  2  1  0
  1  6  1  0
  1  7  1  0
  1  8  1  0
  2  3  2  3
  2  5  1  0
  3  4  1  0
  3  9  1  0
  5 10  1  0
 11 12  1  0
 11 14  1  0
 11 15  1  0
 11 16  1  0
 12 13  2  0
 12 17  1  0
M  RAD  1   4   2
M  END
>  <reaction>  (10) 
rxn_1984

>  <mol_properties>  (10) 
{"1": {"label": "*1", "atom_type": "Cs"}, "2": {"label": "*0", "atom_type": "CS"}, "10": {"label": "*3", "atom_type": "Cd"}, "11": {"label": "*4", "atom_type": "Cd"}, "13": {"label": "*2", "atom_type": "H0"}}

>  <type>  (10) 
unop_6

>  <geom_source>  (10) 
Heuristics

$$$$

     RDKit          3D

 17 15  0  0  0  0  0  0  0  0999 V2000
   -1.7360    1.4096    0.3345 C   0  0  0  0  0  0  0  0  0  0  0  0
   -0.8695    0.1888    0.5670 C   0  0  0  0  0  0  0  0  0  0  0  0
    0.2965    0.3605    1.4937 C   0  0  0  0  0  0  0  0  0  0  0  0
    0.5853    1.6139    2.4587 S   0  0  0  0  0  1  0  0  0  0  0  0
   -1.8071   -1.2602    1.1863 S   0  0  0  0  0  0  0  0  0  0  0  0
   -2.1749    1.7607    1.2682 H   0  0  0  0  0  0  0  0  0  0  0  0
   -1.1385    2.2248   -0.0773 H   0  0  0  0  0  0  0  0  0  0  0  0
   -2.5383    1.1685   -0.3615 H   0  0  0  0  0  0  0  0  0  0  0  0
    0.9745   -0.4931    1.4948 H   0  0  0  0  0  0  0  0  0  0  0  0
   -2.1493   -0.7089    2.3596 H   0  0  0  0  0  0  0  0  0  0  0  0
    1.2338    0.2533   -1.0059 C   0  0  0  0  0  0  0  0  0  0  0  0
    1.2338   -0.9451   -1.8881 C   0  0  0  0  0  0  0  0  0  0  0  0
    1.2338   -0.9451   -3.4948 S   0  0  0  0  0  0  0  0  0  0  0  0
    0.1824    0.2210   -0.2196 H   0  0  0  0  0  0  0  0  0  0  0  0
    2.1099    0.2264   -0.3507 H   0  0  0  0  0  0  0  0  0  0  0  0
    1.2337    1.1771   -1.5806 H   0  0  0  0  0  0  0  0  0  0  0  0
    1.2338   -1.8996   -1.3582 H   0  0  0  0  0  0  0  0  0  0  0  0
  1  2  1  0
  1  6  1  0
  1  7  1  0
  1  8  1  0
  2  3  2  3
  2  5  1  0
  3  4  1  0
  3  9  1  0
  5 10  1  0
 11 12  1  0
 11 14  1  0
 11 15  1  0
 11 16  1  0
 12 13  2  0
 12 17  1  0
M  RAD  1   4   2
M  END
>  <reaction>  (11) 
rxn_1984

>  <mol_properties>  (11) 
{"1": {"label": "*1", "atom_type": "Cs"}, "2": {"label": "*0", "atom_type": "CS"}, "10": {"label": "*3", "atom_type": "Cd"}, "11": {"label": "*4", "atom_type": "Cd"}, "13": {"label": "*2", "atom_type": "H0"}}

>  <type>  (11) 
unop_7

>  <geom_source>  (11) 
Heuristics

$$$$

     RDKit          3D

 17 15  0  0  0  0  0  0  0  0999 V2000
    0.0345   -0.6786    2.1995 C   0  0  0  0  0  0  0  0  0  0  0  0
   -0.2950    0.0503    0.9128 C   0  0  0  0  0  0  0  0  0  0  0  0
   -1.7491    0.1967    0.5784 C   0  0  0  0  0  0  0  0  0  0  0  0
   -2.9968   -0.1076    1.5460 S   0  0  0  0  0  1  0  0  0  0  0  0
    0.4223    1.7357    0.8285 S   0  0  0  0  0  0  0  0  0  0  0  0
   -0.3963   -0.1667    3.0598 H   0  0  0  0  0  0  0  0  0  0  0  0
   -0.3750   -1.6899    2.1770 H   0  0  0  0  0  0  0  0  0  0  0  0
    1.1146   -0.7338    2.3289 H   0  0  0  0  0  0  0  0  0  0  0  0
   -1.9229    0.5773   -0.4282 H   0  0  0  0  0  0  0  0  0  0  0  0
   -0.2981    2.2405    1.8404 H   0  0  0  0  0  0  0  0  0  0  0  0
    1.8082    0.1149   -0.6602 C   0  0  0  0  0  0  0  0  0  0  0  0
    1.8082   -1.0836   -1.5424 C   0  0  0  0  0  0  0  0  0  0  0  0
    1.8082   -1.0836   -3.1490 S   0  0  0  0  0  0  0  0  0  0  0  0
    0.7568    0.0826    0.1261 H   0  0  0  0  0  0  0  0  0  0  0  0
    2.6843    0.0880   -0.0050 H   0  0  0  0  0  0  0  0  0  0  0  0
    1.8082    1.0387   -1.2348 H   0  0  0  0  0  0  0  0  0  0  0  0
    1.8082   -2.0380   -1.0124 H   0  0  0  0  0  0  0  0  0  0  0  0
  1  2  1  0
  1  6  1  0
  1  7  1  0
  1  8  1  0
  2  3  2  3
  2  5  1  0
  3  4  1  0
  3  9  1  0
  5 10  1  0
 11 12  1  0
 11 14  1  0
 11 15  1  0
 11 16  1  0
 12 13  2  0
 12 17  1  0
M  RAD  1   4   2
M  END
>  <reaction>  (12) 
rxn_1984

>  <mol_properties>  (12) 
{"1": {"label": "*1", "atom_type": "Cs"}, "2": {"label": "*0", "atom_type": "CS"}, "10": {"label": "*3", "atom_type": "Cd"}, "11": {"label": "*4", "atom_type": "Cd"}, "13": {"label": "*2", "atom_type": "H0"}}

>  <type>  (12) 
unop_8

>  <geom_source>  (12) 
Heuristics

$$$$

     RDKit          3D

 17 15  0  0  0  0  0  0  0  0999 V2000
   -1.5833   -0.8186    0.1953 C   0  0  0  0  0  0  0  0  0  0  0  0
   -0.4381   -0.1007    0.8800 C   0  0  0  0  0  0  0  0  0  0  0  0
   -0.5299    1.3940    0.9504 C   0  0  0  0  0  0  0  0  0  0  0  0
   -1.8145    2.2988    0.6084 S   0  0  0  0  0  1  0  0  0  0  0  0
   -0.1413   -0.6771    2.5951 S   0  0  0  0  0  0  0  0  0  0  0  0
   -2.5269   -0.6236    0.7047 H   0  0  0  0  0  0  0  0  0  0  0  0
   -1.6855   -0.4720   -0.8344 H   0  0  0  0  0  0  0  0  0  0  0  0
   -1.4007   -1.8923    0.1940 H   0  0  0  0  0  0  0  0  0  0  0  0
    0.3885    1.8655    1.3006 H   0  0  0  0  0  0  0  0  0  0  0  0
   -1.3126   -0.2483    3.0870 H   0  0  0  0  0  0  0  0  0  0  0  0
    1.6651   -0.0361   -0.6929 C   0  0  0  0  0  0  0  0  0  0  0  0
    1.6651   -1.2346   -1.5751 C   0  0  0  0  0  0  0  0  0  0  0  0
    1.6651   -1.2346   -3.1818 S   0  0  0  0  0  0  0  0  0  0  0  0
    0.6137   -0.0684    0.0934 H   0  0  0  0  0  0  0  0  0  0  0  0
    2.5412   -0.0630   -0.0377 H   0  0  0  0  0  0  0  0  0  0  0  0
    1.6651    0.8877   -1.2676 H   0  0  0  0  0  0  0  0  0  0  0  0
    1.6651   -2.1890   -1.0452 H   0  0  0  0  0  0  0  0  0  0  0  0
  1  2  1  0
  1  6  1  0
  1  7  1  0
  1  8  1  0
  2  3  2  3
  2  5  1  0
  3  4  1  0
  3  9  1  0
  5 10  1  0
 11 12  1  0
 11 14  1  0
 11 15  1  0
 11 16  1  0
 12 13  2  0
 12 17  1  0
M  RAD  1   4   2
M  END
>  <reaction>  (13) 
rxn_1984

>  <mol_properties>  (13) 
{"1": {"label": "*1", "atom_type": "Cs"}, "2": {"label": "*0", "atom_type": "CS"}, "10": {"label": "*3", "atom_type": "Cd"}, "11": {"label": "*4", "atom_type": "Cd"}, "13": {"label": "*2", "atom_type": "H0"}}

>  <type>  (13) 
unop_9

>  <geom_source>  (13) 
Heuristics

$$$$

     RDKit          3D

 17 15  0  0  0  0  0  0  0  0999 V2000
   -0.3055   -1.1895    1.6966 C   0  0  0  0  0  0  0  0  0  0  0  0
   -0.3323    0.0572    0.8360 C   0  0  0  0  0  0  0  0  0  0  0  0
   -1.6802    0.6521    0.5590 C   0  0  0  0  0  0  0  0  0  0  0  0
   -3.0693    0.2677    1.2720 S   0  0  0  0  0  1  0  0  0  0  0  0
    0.7026    1.4187    1.4974 S   0  0  0  0  0  0  0  0  0  0  0  0
   -0.7283   -0.9932    2.6818 H   0  0  0  0  0  0  0  0  0  0  0  0
   -0.8974   -1.9812    1.2343 H   0  0  0  0  0  0  0  0  0  0  0  0
    0.7202   -1.5352    1.8177 H   0  0  0  0  0  0  0  0  0  0  0  0
   -1.6560    1.4410   -0.1930 H   0  0  0  0  0  0  0  0  0  0  0  0
   -0.0216    1.6118    2.6092 H   0  0  0  0  0  0  0  0  0  0  0  0
    1.7710    0.1218   -0.7369 C   0  0  0  0  0  0  0  0  0  0  0  0
    1.7710   -1.0767   -1.6191 C   0  0  0  0  0  0  0  0  0  0  0  0
    1.7710   -1.0767   -3.2258 S   0  0  0  0  0  0  0  0  0  0  0  0
    0.7196    0.0895    0.0494 H   0  0  0  0  0  0  0  0  0  0  0  0
    2.6471    0.0949   -0.0817 H   0  0  0  0  0  0  0  0  0  0  0  0
    1.7709    1.0456   -1.3116 H   0  0  0  0  0  0  0  0  0  0  0  0
    1.7710   -2.0311   -1.0892 H   0  0  0  0  0  0  0  0  0  0  0  0
  1  2  1  0
  1  6  1  0
  1  7  1  0
  1  8  1  0
  2  3  2  3
  2  5  1  0
  3  4  1  0
  3  9  1  0
  5 10  1  0
 11 12  1  0
 11 14  1  0
 11 15  1  0
 11 16  1  0
 12 13  2  0
 12 17  1  0
M  RAD  1   4   2
M  END
>  <reaction>  (14) 
rxn_1984

>  <mol_properties>  (14) 
{"1": {"label": "*1", "atom_type": "Cs"}, "2": {"label": "*0", "atom_type": "CS"}, "10": {"label": "*3", "atom_type": "Cd"}, "11": {"label": "*4", "atom_type": "Cd"}, "13": {"label": "*2", "atom_type": "H0"}}

>  <type>  (14) 
unop_10

>  <geom_source>  (14) 
Heuristics

$$$$

     RDKit          3D

 17 15  0  0  0  0  0  0  0  0999 V2000
   -1.2102    1.8972    0.9162 C   0  0  0  0  0  0  0  0  0  0  0  0
   -0.7662    0.4891    0.5762 C   0  0  0  0  0  0  0  0  0  0  0  0
    0.1583   -0.1764    1.5509 C   0  0  0  0  0  0  0  0  0  0  0  0
    0.5304    0.3335    3.0298 S   0  0  0  0  0  1  0  0  0  0  0  0
   -2.1628   -0.6712    0.3205 S   0  0  0  0  0  0  0  0  0  0  0  0
   -1.7467    1.9193    1.8646 H   0  0  0  0  0  0  0  0  0  0  0  0
   -0.3443    2.5546    1.0105 H   0  0  0  0  0  0  0  0  0  0  0  0
   -1.8648    2.2792    0.1340 H   0  0  0  0  0  0  0  0  0  0  0  0
    0.5738   -1.1132    1.1790 H   0  0  0  0  0  0  0  0  0  0  0  0
   -2.6120   -0.6229    1.5830 H   0  0  0  0  0  0  0  0  0  0  0  0
    1.3370    0.5536   -0.9968 C   0  0  0  0  0  0  0  0  0  0  0  0
    1.3370   -0.6448   -1.8790 C   0  0  0  0  0  0  0  0  0  0  0  0
    1.3370   -0.6448   -3.4856 S   0  0  0  0  0  0  0  0  0  0  0  0
    0.2857    0.5214   -0.2105 H   0  0  0  0  0  0  0  0  0  0  0  0
    2.2132    0.5268   -0.3416 H   0  0  0  0  0  0  0  0  0  0  0  0
    1.3370    1.4774   -1.5715 H   0  0  0  0  0  0  0  0  0  0  0  0
    1.3370   -1.5993   -1.3490 H   0  0  0  0  0  0  0  0  0  0  0  0
  1  2  1  0
  1  6  1  0
  1  7  1  0
  1  8  1  0
  2  3  2  3
  2  5  1  0
  3  4  1  0
  3  9  1  0
  5 10  1  0
 11 12  1  0
 11 14  1  0
 11 15  1  0
 11 16  1  0
 12 13  2  0
 12 17  1  0
M  RAD  1   4   2
M  END
>  <reaction>  (15) 
rxn_1984

>  <mol_properties>  (15) 
{"1": {"label": "*1", "atom_type": "Cs"}, "2": {"label": "*0", "atom_type": "CS"}, "10": {"label": "*3", "atom_type": "Cd"}, "11": {"label": "*4", "atom_type": "Cd"}, "13": {"label": "*2", "atom_type": "H0"}}

>  <type>  (15) 
unop_11

>  <geom_source>  (15) 
Heuristics

$$$$

     RDKit          3D

 17 15  0  0  0  0  0  0  0  0999 V2000
   -1.1619   -1.2301    0.5992 C   0  0  0  0  0  0  0  0  0  0  0  0
   -0.3372    0.0102    0.8768 C   0  0  0  0  0  0  0  0  0  0  0  0
   -1.0378    1.3277    0.7317 C   0  0  0  0  0  0  0  0  0  0  0  0
   -2.6189    1.5660    0.5616 S   0  0  0  0  0  1  0  0  0  0  0  0
    0.4263    0.0167    2.5439 S   0  0  0  0  0  0  0  0  0  0  0  0
   -2.0125   -1.2936    1.2777 H   0  0  0  0  0  0  0  0  0  0  0  0
   -1.5524   -1.2046   -0.4195 H   0  0  0  0  0  0  0  0  0  0  0  0
   -0.5470   -2.1204    0.7234 H   0  0  0  0  0  0  0  0  0  0  0  0
   -0.3621    2.1818    0.7799 H   0  0  0  0  0  0  0  0  0  0  0  0
   -0.7291    0.0714    3.2220 H   0  0  0  0  0  0  0  0  0  0  0  0
    1.7660    0.0748   -0.6961 C   0  0  0  0  0  0  0  0  0  0  0  0
    1.7660   -1.1237   -1.5783 C   0  0  0  0  0  0  0  0  0  0  0  0
    1.7660   -1.1237   -3.1850 S   0  0  0  0  0  0  0  0  0  0  0  0
    0.7146    0.0425    0.0902 H   0  0  0  0  0  0  0  0  0  0  0  0
    2.6421    0.0479   -0.0409 H   0  0  0  0  0  0  0  0  0  0  0  0
    1.7660    0.9986   -1.2708 H   0  0  0  0  0  0  0  0  0  0  0  0
    1.7660   -2.0781   -1.0484 H   0  0  0  0  0  0  0  0  0  0  0  0
  1  2  1  0
  1  6  1  0
  1  7  1  0
  1  8  1  0
  2  3  2  3
  2  5  1  0
  3  4  1  0
  3  9  1  0
  5 10  1  0
 11 12  1  0
 11 14  1  0
 11 15  1  0
 11 16  1  0
 12 13  2  0
 12 17  1  0
M  RAD  1   4   2
M  END
>  <reaction>  (16) 
rxn_1984

>  <mol_properties>  (16) 
{"1": {"label": "*1", "atom_type": "Cs"}, "2": {"label": "*0", "atom_type": "CS"}, "10": {"label": "*3", "atom_type": "Cd"}, "11": {"label": "*4", "atom_type": "Cd"}, "13": {"label": "*2", "atom_type": "H0"}}

>  <type>  (16) 
unop_12

>  <geom_source>  (16) 
Heuristics

$$$$

     RDKit          3D

 17 15  0  0  0  0  0  0  0  0999 V2000
   -1.4156   -1.3979    1.1822 S   0  0  0  0  0  0  0  0  0  0  0  0
   -3.1151   -0.3120   -1.4650 S   0  0  0  0  0  1  0  0  0  0  0  0
    3.8579    0.1129    0.2065 S   0  0  0  0  0  0  0  0  0  0  0  0
   -0.9584   -0.1288   -0.0494 C   0  0  0  0  0  0  0  0  0  0  0  0
   -1.2046    1.2757    0.5061 C   0  0  0  0  0  0  0  0  0  0  0  0
   -1.6798   -0.3580   -1.3562 C   0  0  0  0  0  0  0  0  0  0  0  0
    1.5315   -0.8695   -0.1326 C   0  0  0  0  0  0  0  0  0  0  0  0
    2.4572    0.3010   -0.0467 C   0  0  0  0  0  0  0  0  0  0  0  0
    0.3776   -0.2518   -0.2887 H   0  0  0  0  0  0  0  0  0  0  0  0
   -0.5723    1.4406    1.4036 H   0  0  0  0  0  0  0  0  0  0  0  0
   -0.9342    2.0380   -0.2551 H   0  0  0  0  0  0  0  0  0  0  0  0
   -2.2701    1.4070    0.7913 H   0  0  0  0  0  0  0  0  0  0  0  0
   -1.0941   -0.5664   -2.2451 H   0  0  0  0  0  0  0  0  0  0  0  0
    2.0648    1.3033   -0.1775 H   0  0  0  0  0  0  0  0  0  0  0  0
    1.5165   -1.4299    0.8266 H   0  0  0  0  0  0  0  0  0  0  0  0
    1.8254   -1.5427   -0.9661 H   0  0  0  0  0  0  0  0  0  0  0  0
   -0.3866   -1.0216    2.0663 H   0  0  0  0  0  0  0  0  0  0  0  0
  1  4  1  0
  1 17  1  0
  2  6  1  0
  3  8  2  0
  4  5  1  0
  4  6  2  3
  5 10  1  0
  5 11  1  0
  5 12  1  0
  6 13  1  0
  7  8  1  0
  7  9  1  0
  7 15  1  0
  7 16  1  0
  8 14  1  0
M  RAD  1   2   2
M  END
>  <reaction>  (17) 
rxn_1984

>  <mol_properties>  (17) 
{"1": {"label": "*1", "atom_type": "Cs"}, "2": {"label": "*0", "atom_type": "CS"}, "10": {"label": "*3", "atom_type": "Cd"}, "11": {"label": "*4", "atom_type": "Cd"}, "13": {"label": "*2", "atom_type": "H0"}}

>  <type>  (17) 
unop_13

>  <geom_source>  (17) 
AutoTST

$$$$
