
     RDKit          3D

  9  8  0  0  0  0  0  0  0  0999 V2000
   -0.9895    0.3048    0.1041 C   0  0  0  0  0  0  0  0  0  0  0  0
    0.3761   -0.3562    0.0721 C   0  0  0  0  0  0  0  0  0  0  0  0
    0.3441   -1.6564   -0.4834 O   0  0  0  0  0  0  0  0  0  0  0  0
   -1.6997   -0.3114    0.6572 H   0  0  0  0  0  0  0  0  0  0  0  0
   -0.9320    1.2848    0.5822 H   0  0  0  0  0  0  0  0  0  0  0  0
   -1.3774    0.4507   -0.9077 H   0  0  0  0  0  0  0  0  0  0  0  0
    0.7581   -0.4813    1.0862 H   0  0  0  0  0  0  0  0  0  0  0  0
    1.0900    0.2787   -0.4681 H   0  0  0  0  0  0  0  0  0  0  0  0
    0.0089   -1.5959   -1.3792 H   0  0  0  0  0  0  0  0  0  0  0  0
  1  2  1  0
  1  4  1  0
  1  5  1  0
  1  6  1  0
  2  3  1  0
  2  7  1  0
  2  8  1  0
  3  9  1  0
M  END
>  <reaction>  (1) 
rxn_229

>  <mol_properties>  (1) 
{"0": {"label": "donator", "atom_type": "Cs"}, "3": {"label": "d_hydrogen", "atom_type": "H0"}}

>  <type>  (1) 
r1h

$$$$

     RDKit          3D

  3  2  0  0  0  0  0  0  0  0999 V2000
    0.9943   -0.1797    0.0000 O   0  0  0  0  0  1  0  0  0  0  0  0
   -0.1595    0.4394    0.0000 O   0  0  0  0  0  0  0  0  0  0  0  0
   -0.8348   -0.2597    0.0000 H   0  0  0  0  0  0  0  0  0  0  0  0
  1  2  1  0
  2  3  1  0
M  RAD  1   1   2
M  END
>  <reaction>  (2) 
rxn_229

>  <mol_properties>  (2) 
{"0": {"label": "acceptor", "atom_type": "O2s"}}

>  <type>  (2) 
r2

$$$$

     RDKit          3D

  4  3  0  0  0  0  0  0  0  0999 V2000
    0.5949   -0.3853    0.2659 O   0  0  0  0  0  0  0  0  0  0  0  0
   -0.5918    0.4028    0.2462 O   0  0  0  0  0  0  0  0  0  0  0  0
    1.1865    0.1539   -0.2689 H   0  0  0  0  0  0  0  0  0  0  0  0
   -1.1896   -0.1714   -0.2432 H   0  0  0  0  0  0  0  0  0  0  0  0
  1  2  1  0
  1  3  1  0
  2  4  1  0
M  END
>  <reaction>  (3) 
rxn_229

>  <mol_properties>  (3) 
{"0": {"label": "a_hydrogen", "atom_type": "H0"}, "1": {"label": "acceptor", "atom_type": "O2s"}}

>  <type>  (3) 
r2h

$$$$

     RDKit          3D

 12 10  0  0  0  0  0  0  0  0999 V2000
    0.7810   -0.2272    1.2113 C   0  0  0  0  0  3  0  0  0  0  0  0
    0.5340   -1.3842    0.2918 C   0  0  0  0  0  0  0  0  0  0  0  0
    0.4691   -1.0129   -1.0753 O   0  0  0  0  0  0  0  0  0  0  0  0
   -0.2795    0.6316    0.9512 H   0  0  0  0  0  0  0  0  0  0  0  0
    0.6995   -0.4478    2.2729 H   0  0  0  0  0  0  0  0  0  0  0  0
    1.6225    0.4170    0.9600 H   0  0  0  0  0  0  0  0  0  0  0  0
   -0.4272   -1.8472    0.5189 H   0  0  0  0  0  0  0  0  0  0  0  0
    1.3045   -2.1553    0.4429 H   0  0  0  0  0  0  0  0  0  0  0  0
    1.3263   -0.6767   -1.3436 H   0  0  0  0  0  0  0  0  0  0  0  0
   -1.1614    1.2000    0.5163 O   0  0  0  0  0  0  0  0  0  0  0  0
   -0.7022    1.6712   -0.7069 O   0  0  0  0  0  0  0  0  0  0  0  0
   -0.7422    0.8790   -1.2629 H   0  0  0  0  0  0  0  0  0  0  0  0
  1  2  1  0
  1  5  1  0
  1  6  1  0
  2  3  1  0
  2  7  1  0
  2  8  1  0
  3  9  1  0
  4 10  1  0
 10 11  1  0
 11 12  1  0
M  RAD  1   1   2
M  END
>  <reaction>  (4) 
rxn_229

>  <mol_properties>  (4) 
{"0": {"label": "*3", "atom_type": "Cs"}, "1": {"label": "*4", "atom_type": "Cs"}, "3": {"label": "*2", "atom_type": "H0"}, "9": {"label": "*1", "atom_type": "O2s"}, "10": {"label": "*0", "atom_type": "O2s"}}

>  <type>  (4) 
ts

$$$$

     RDKit          3D

 12 10  0  0  0  0  0  0  0  0999 V2000
    0.9375   -0.0682    0.6035 C   0  0  0  0  0  3  0  0  0  0  0  0
    0.9375   -1.4666    0.0141 C   0  0  0  0  0  0  0  0  0  0  0  0
    0.9375   -1.4666   -1.4002 O   0  0  0  0  0  0  0  0  0  0  0  0
   -0.0897    0.6145    0.1652 H   0  0  0  0  0  0  0  0  0  0  0  0
    0.8891   -0.1096    1.6936 H   0  0  0  0  0  0  0  0  0  0  0  0
    1.8490    0.4710    0.3314 H   0  0  0  0  0  0  0  0  0  0  0  0
    0.0311   -1.9986    0.3060 H   0  0  0  0  0  0  0  0  0  0  0  0
    1.7897   -2.0394    0.4017 H   0  0  0  0  0  0  0  0  0  0  0  0
    1.7195   -1.0031   -1.7040 H   0  0  0  0  0  0  0  0  0  0  0  0
   -0.9963    1.2169   -0.2217 O   0  0  0  0  0  0  0  0  0  0  0  0
   -1.6688    1.5185    0.9975 O   0  0  0  0  0  0  0  0  0  0  0  0
   -1.0981    2.2028    1.3617 H   0  0  0  0  0  0  0  0  0  0  0  0
  1  2  1  0
  1  5  1  0
  1  6  1  0
  2  3  1  0
  2  7  1  0
  2  8  1  0
  3  9  1  0
  4 10  1  0
 10 11  1  0
 11 12  1  0
M  RAD  1   1   2
M  END
>  <reaction>  (5) 
rxn_229

>  <mol_properties>  (5) 
{"0": {"label": "*3", "atom_type": "Cs"}, "1": {"label": "*4", "atom_type": "Cs"}, "3": {"label": "*2", "atom_type": "H0"}, "9": {"label": "*1", "atom_type": "O2s"}, "10": {"label": "*0", "atom_type": "O2s"}}

>  <type>  (5) 
unop_1

>  <geom_source>  (5) 
Heuristics

$$$$

     RDKit          3D

 12 10  0  0  0  0  0  0  0  0999 V2000
    1.0114    0.2285    0.9042 C   0  0  0  0  0  3  0  0  0  0  0  0
    1.0114   -1.1698    0.3147 C   0  0  0  0  0  0  0  0  0  0  0  0
    1.0114   -1.1698   -1.0995 O   0  0  0  0  0  0  0  0  0  0  0  0
   -0.0159    0.9112    0.4658 H   0  0  0  0  0  0  0  0  0  0  0  0
    0.9629    0.1871    1.9942 H   0  0  0  0  0  0  0  0  0  0  0  0
    1.9228    0.7677    0.6321 H   0  0  0  0  0  0  0  0  0  0  0  0
    0.1049   -1.7019    0.6067 H   0  0  0  0  0  0  0  0  0  0  0  0
    1.8635   -1.7427    0.7024 H   0  0  0  0  0  0  0  0  0  0  0  0
    1.7933   -0.7064   -1.4033 H   0  0  0  0  0  0  0  0  0  0  0  0
   -0.9224    1.5136    0.0790 O   0  0  0  0  0  0  0  0  0  0  0  0
   -1.8765    0.4760   -0.1278 O   0  0  0  0  0  0  0  0  0  0  0  0
   -2.3448    0.4822    0.7132 H   0  0  0  0  0  0  0  0  0  0  0  0
  1  2  1  0
  1  5  1  0
  1  6  1  0
  2  3  1  0
  2  7  1  0
  2  8  1  0
  3  9  1  0
  4 10  1  0
 10 11  1  0
 11 12  1  0
M  RAD  1   1   2
M  END
>  <reaction>  (6) 
rxn_229

>  <mol_properties>  (6) 
{"0": {"label": "*3", "atom_type": "Cs"}, "1": {"label": "*4", "atom_type": "Cs"}, "3": {"label": "*2", "atom_type": "H0"}, "9": {"label": "*1", "atom_type": "O2s"}, "10": {"label": "*0", "atom_type": "O2s"}}

>  <type>  (6) 
unop_2

>  <geom_source>  (6) 
Heuristics

$$$$

     RDKit          3D

 12 10  0  0  0  0  0  0  0  0999 V2000
    0.8449   -0.1914    0.6363 C   0  0  0  0  0  3  0  0  0  0  0  0
    0.8449   -1.5898    0.0469 C   0  0  0  0  0  0  0  0  0  0  0  0
    0.8449   -1.5898   -1.3674 O   0  0  0  0  0  0  0  0  0  0  0  0
   -0.1824    0.4913    0.1980 H   0  0  0  0  0  0  0  0  0  0  0  0
    0.7965   -0.2328    1.7264 H   0  0  0  0  0  0  0  0  0  0  0  0
    1.7563    0.3478    0.3642 H   0  0  0  0  0  0  0  0  0  0  0  0
   -0.0616   -2.1218    0.3388 H   0  0  0  0  0  0  0  0  0  0  0  0
    1.6971   -2.1626    0.4345 H   0  0  0  0  0  0  0  0  0  0  0  0
    1.6269   -1.1263   -1.6712 H   0  0  0  0  0  0  0  0  0  0  0  0
   -1.0889    1.0937   -0.1888 O   0  0  0  0  0  0  0  0  0  0  0  0
   -1.3320    1.9652    0.9116 O   0  0  0  0  0  0  0  0  0  0  0  0
   -0.7406    2.6962    0.7055 H   0  0  0  0  0  0  0  0  0  0  0  0
  1  2  1  0
  1  5  1  0
  1  6  1  0
  2  3  1  0
  2  7  1  0
  2  8  1  0
  3  9  1  0
  4 10  1  0
 10 11  1  0
 11 12  1  0
M  RAD  1   1   2
M  END
>  <reaction>  (7) 
rxn_229

>  <mol_properties>  (7) 
{"0": {"label": "*3", "atom_type": "Cs"}, "1": {"label": "*4", "atom_type": "Cs"}, "3": {"label": "*2", "atom_type": "H0"}, "9": {"label": "*1", "atom_type": "O2s"}, "10": {"label": "*0", "atom_type": "O2s"}}

>  <type>  (7) 
unop_3

>  <geom_source>  (7) 
Heuristics

$$$$

     RDKit          3D

 12 10  0  0  0  0  0  0  0  0999 V2000
    0.7604    0.0078    1.1769 C   0  0  0  0  0  3  0  0  0  0  0  0
    0.7604   -1.3905    0.5875 C   0  0  0  0  0  0  0  0  0  0  0  0
    0.7604   -1.3905   -0.8268 O   0  0  0  0  0  0  0  0  0  0  0  0
   -0.2669    0.6905    0.7386 H   0  0  0  0  0  0  0  0  0  0  0  0
    0.7120   -0.0336    2.2670 H   0  0  0  0  0  0  0  0  0  0  0  0
    1.6718    0.5470    0.9048 H   0  0  0  0  0  0  0  0  0  0  0  0
   -0.1461   -1.9226    0.8795 H   0  0  0  0  0  0  0  0  0  0  0  0
    1.6126   -1.9633    0.9751 H   0  0  0  0  0  0  0  0  0  0  0  0
    1.5423   -0.9270   -1.1306 H   0  0  0  0  0  0  0  0  0  0  0  0
   -1.1734    1.2929    0.3518 O   0  0  0  0  0  0  0  0  0  0  0  0
   -0.9354    1.2801   -1.0528 O   0  0  0  0  0  0  0  0  0  0  0  0
   -1.8347    1.3058   -1.3952 H   0  0  0  0  0  0  0  0  0  0  0  0
  1  2  1  0
  1  5  1  0
  1  6  1  0
  2  3  1  0
  2  7  1  0
  2  8  1  0
  3  9  1  0
  4 10  1  0
 10 11  1  0
 11 12  1  0
M  RAD  1   1   2
M  END
>  <reaction>  (8) 
rxn_229

>  <mol_properties>  (8) 
{"0": {"label": "*3", "atom_type": "Cs"}, "1": {"label": "*4", "atom_type": "Cs"}, "3": {"label": "*2", "atom_type": "H0"}, "9": {"label": "*1", "atom_type": "O2s"}, "10": {"label": "*0", "atom_type": "O2s"}}

>  <type>  (8) 
unop_4

>  <geom_source>  (8) 
Heuristics

$$$$

     RDKit          3D

 12 10  0  0  0  0  0  0  0  0999 V2000
    0.7564   -0.2702    0.7375 C   0  0  0  0  0  3  0  0  0  0  0  0
    0.7564   -1.6686    0.1481 C   0  0  0  0  0  0  0  0  0  0  0  0
    0.7564   -1.6686   -1.2662 O   0  0  0  0  0  0  0  0  0  0  0  0
   -0.2709    0.4125    0.2992 H   0  0  0  0  0  0  0  0  0  0  0  0
    0.7079   -0.3116    1.8276 H   0  0  0  0  0  0  0  0  0  0  0  0
    1.6678    0.2690    0.4654 H   0  0  0  0  0  0  0  0  0  0  0  0
   -0.1501   -2.2006    0.4400 H   0  0  0  0  0  0  0  0  0  0  0  0
    1.6086   -2.2414    0.5357 H   0  0  0  0  0  0  0  0  0  0  0  0
    1.5383   -1.2051   -1.5700 H   0  0  0  0  0  0  0  0  0  0  0  0
   -1.1774    1.0149   -0.0877 O   0  0  0  0  0  0  0  0  0  0  0  0
   -0.9842    2.2615    0.5744 O   0  0  0  0  0  0  0  0  0  0  0  0
   -0.8102    2.8445   -0.1716 H   0  0  0  0  0  0  0  0  0  0  0  0
  1  2  1  0
  1  5  1  0
  1  6  1  0
  2  3  1  0
  2  7  1  0
  2  8  1  0
  3  9  1  0
  4 10  1  0
 10 11  1  0
 11 12  1  0
M  RAD  1   1   2
M  END
>  <reaction>  (9) 
rxn_229

>  <mol_properties>  (9) 
{"0": {"label": "*3", "atom_type": "Cs"}, "1": {"label": "*4", "atom_type": "Cs"}, "3": {"label": "*2", "atom_type": "H0"}, "9": {"label": "*1", "atom_type": "O2s"}, "10": {"label": "*0", "atom_type": "O2s"}}

>  <type>  (9) 
unop_5

>  <geom_source>  (9) 
Heuristics

$$$$

     RDKit          3D

 12 10  0  0  0  0  0  0  0  0999 V2000
    0.6930   -0.1255    1.1291 C   0  0  0  0  0  3  0  0  0  0  0  0
    0.6930   -1.5239    0.5396 C   0  0  0  0  0  0  0  0  0  0  0  0
    0.6930   -1.5239   -0.8746 O   0  0  0  0  0  0  0  0  0  0  0  0
   -0.3343    0.5571    0.6907 H   0  0  0  0  0  0  0  0  0  0  0  0
    0.6445   -0.1669    2.2191 H   0  0  0  0  0  0  0  0  0  0  0  0
    1.6044    0.4137    0.8570 H   0  0  0  0  0  0  0  0  0  0  0  0
   -0.2135   -2.0559    0.8316 H   0  0  0  0  0  0  0  0  0  0  0  0
    1.5451   -2.0967    0.9273 H   0  0  0  0  0  0  0  0  0  0  0  0
    1.4749   -1.0604   -1.1784 H   0  0  0  0  0  0  0  0  0  0  0  0
   -1.2408    1.1596    0.3039 O   0  0  0  0  0  0  0  0  0  0  0  0
   -0.6954    1.7588   -0.8679 O   0  0  0  0  0  0  0  0  0  0  0  0
   -1.4917    1.9170   -1.3851 H   0  0  0  0  0  0  0  0  0  0  0  0
  1  2  1  0
  1  5  1  0
  1  6  1  0
  2  3  1  0
  2  7  1  0
  2  8  1  0
  3  9  1  0
  4 10  1  0
 10 11  1  0
 11 12  1  0
M  RAD  1   1   2
M  END
>  <reaction>  (10) 
rxn_229

>  <mol_properties>  (10) 
{"0": {"label": "*3", "atom_type": "Cs"}, "1": {"label": "*4", "atom_type": "Cs"}, "3": {"label": "*2", "atom_type": "H0"}, "9": {"label": "*1", "atom_type": "O2s"}, "10": {"label": "*0", "atom_type": "O2s"}}

>  <type>  (10) 
unop_6

>  <geom_source>  (10) 
Heuristics

$$$$

     RDKit          3D

 12 10  0  0  0  0  0  0  0  0999 V2000
    0.6691   -0.2322    1.0185 C   0  0  0  0  0  3  0  0  0  0  0  0
    0.6691   -1.6305    0.4290 C   0  0  0  0  0  0  0  0  0  0  0  0
    0.6691   -1.6305   -0.9852 O   0  0  0  0  0  0  0  0  0  0  0  0
   -0.3582    0.4505    0.5801 H   0  0  0  0  0  0  0  0  0  0  0  0
    0.6207   -0.2736    2.1086 H   0  0  0  0  0  0  0  0  0  0  0  0
    1.5805    0.3070    0.7464 H   0  0  0  0  0  0  0  0  0  0  0  0
   -0.2374   -2.1625    0.7210 H   0  0  0  0  0  0  0  0  0  0  0  0
    1.5213   -2.2033    0.8167 H   0  0  0  0  0  0  0  0  0  0  0  0
    1.4511   -1.1670   -1.2890 H   0  0  0  0  0  0  0  0  0  0  0  0
   -1.2647    1.0529    0.1933 O   0  0  0  0  0  0  0  0  0  0  0  0
   -0.6162    2.1423   -0.4565 O   0  0  0  0  0  0  0  0  0  0  0  0
   -1.2801    2.3945   -1.1064 H   0  0  0  0  0  0  0  0  0  0  0  0
  1  2  1  0
  1  5  1  0
  1  6  1  0
  2  3  1  0
  2  7  1  0
  2  8  1  0
  3  9  1  0
  4 10  1  0
 10 11  1  0
 11 12  1  0
M  RAD  1   1   2
M  END
>  <reaction>  (11) 
rxn_229

>  <mol_properties>  (11) 
{"0": {"label": "*3", "atom_type": "Cs"}, "1": {"label": "*4", "atom_type": "Cs"}, "3": {"label": "*2", "atom_type": "H0"}, "9": {"label": "*1", "atom_type": "O2s"}, "10": {"label": "*0", "atom_type": "O2s"}}

>  <type>  (11) 
unop_7

>  <geom_source>  (11) 
Heuristics

$$$$

     RDKit          3D

 12 10  0  0  0  0  0  0  0  0999 V2000
    1.0069    0.0657    0.6486 C   0  0  0  0  0  3  0  0  0  0  0  0
    1.0069   -1.3327    0.0592 C   0  0  0  0  0  0  0  0  0  0  0  0
    1.0069   -1.3327   -1.3550 O   0  0  0  0  0  0  0  0  0  0  0  0
   -0.0204    0.7483    0.2103 H   0  0  0  0  0  0  0  0  0  0  0  0
    0.9584    0.0243    1.7387 H   0  0  0  0  0  0  0  0  0  0  0  0
    1.9183    0.6049    0.3766 H   0  0  0  0  0  0  0  0  0  0  0  0
    0.1004   -1.8647    0.3512 H   0  0  0  0  0  0  0  0  0  0  0  0
    1.8590   -1.9055    0.4469 H   0  0  0  0  0  0  0  0  0  0  0  0
    1.7888   -0.8692   -1.6588 H   0  0  0  0  0  0  0  0  0  0  0  0
   -0.9269    1.3508   -0.1765 O   0  0  0  0  0  0  0  0  0  0  0  0
   -1.9069    1.0403    0.8099 O   0  0  0  0  0  0  0  0  0  0  0  0
   -1.5858    1.5511    1.5599 H   0  0  0  0  0  0  0  0  0  0  0  0
  1  2  1  0
  1  5  1  0
  1  6  1  0
  2  3  1  0
  2  7  1  0
  2  8  1  0
  3  9  1  0
  4 10  1  0
 10 11  1  0
 11 12  1  0
M  RAD  1   1   2
M  END
>  <reaction>  (12) 
rxn_229

>  <mol_properties>  (12) 
{"0": {"label": "*3", "atom_type": "Cs"}, "1": {"label": "*4", "atom_type": "Cs"}, "3": {"label": "*2", "atom_type": "H0"}, "9": {"label": "*1", "atom_type": "O2s"}, "10": {"label": "*0", "atom_type": "O2s"}}

>  <type>  (12) 
unop_8

>  <geom_source>  (12) 
Heuristics

$$$$

     RDKit          3D

 12 10  0  0  0  0  0  0  0  0999 V2000
    0.8535    0.1322    1.1472 C   0  0  0  0  0  3  0  0  0  0  0  0
    0.8535   -1.2661    0.5577 C   0  0  0  0  0  0  0  0  0  0  0  0
    0.8535   -1.2661   -0.8565 O   0  0  0  0  0  0  0  0  0  0  0  0
   -0.1738    0.8149    0.7088 H   0  0  0  0  0  0  0  0  0  0  0  0
    0.8051    0.0908    2.2373 H   0  0  0  0  0  0  0  0  0  0  0  0
    1.7649    0.6714    0.8751 H   0  0  0  0  0  0  0  0  0  0  0  0
   -0.0530   -1.7982    0.8497 H   0  0  0  0  0  0  0  0  0  0  0  0
    1.7057   -1.8390    0.9454 H   0  0  0  0  0  0  0  0  0  0  0  0
    1.6354   -0.8027   -1.1603 H   0  0  0  0  0  0  0  0  0  0  0  0
   -1.0803    1.4173    0.3220 O   0  0  0  0  0  0  0  0  0  0  0  0
   -1.2717    0.8345   -0.9638 O   0  0  0  0  0  0  0  0  0  0  0  0
   -2.2274    0.7201   -0.9770 H   0  0  0  0  0  0  0  0  0  0  0  0
  1  2  1  0
  1  5  1  0
  1  6  1  0
  2  3  1  0
  2  7  1  0
  2  8  1  0
  3  9  1  0
  4 10  1  0
 10 11  1  0
 11 12  1  0
M  RAD  1   1   2
M  END
>  <reaction>  (13) 
rxn_229

>  <mol_properties>  (13) 
{"0": {"label": "*3", "atom_type": "Cs"}, "1": {"label": "*4", "atom_type": "Cs"}, "3": {"label": "*2", "atom_type": "H0"}, "9": {"label": "*1", "atom_type": "O2s"}, "10": {"label": "*0", "atom_type": "O2s"}}

>  <type>  (13) 
unop_9

>  <geom_source>  (13) 
Heuristics

$$$$

     RDKit          3D

 12 10  0  0  0  0  0  0  0  0999 V2000
    1.0337    0.1743    0.7587 C   0  0  0  0  0  3  0  0  0  0  0  0
    1.0337   -1.2241    0.1693 C   0  0  0  0  0  0  0  0  0  0  0  0
    1.0337   -1.2241   -1.2450 O   0  0  0  0  0  0  0  0  0  0  0  0
    0.0064    0.8569    0.3204 H   0  0  0  0  0  0  0  0  0  0  0  0
    0.9852    0.1329    1.8488 H   0  0  0  0  0  0  0  0  0  0  0  0
    1.9451    0.7135    0.4866 H   0  0  0  0  0  0  0  0  0  0  0  0
    0.1272   -1.7561    0.4612 H   0  0  0  0  0  0  0  0  0  0  0  0
    1.8859   -1.7969    0.5569 H   0  0  0  0  0  0  0  0  0  0  0  0
    1.8156   -0.7606   -1.5488 H   0  0  0  0  0  0  0  0  0  0  0  0
   -0.9001    1.4594   -0.0665 O   0  0  0  0  0  0  0  0  0  0  0  0
   -1.9831    0.6587    0.3980 O   0  0  0  0  0  0  0  0  0  0  0  0
   -2.0270    0.9217    1.3229 H   0  0  0  0  0  0  0  0  0  0  0  0
  1  2  1  0
  1  5  1  0
  1  6  1  0
  2  3  1  0
  2  7  1  0
  2  8  1  0
  3  9  1  0
  4 10  1  0
 10 11  1  0
 11 12  1  0
M  RAD  1   1   2
M  END
>  <reaction>  (14) 
rxn_229

>  <mol_properties>  (14) 
{"0": {"label": "*3", "atom_type": "Cs"}, "1": {"label": "*4", "atom_type": "Cs"}, "3": {"label": "*2", "atom_type": "H0"}, "9": {"label": "*1", "atom_type": "O2s"}, "10": {"label": "*0", "atom_type": "O2s"}}

>  <type>  (14) 
unop_10

>  <geom_source>  (14) 
Heuristics

$$$$

     RDKit          3D

 12 10  0  0  0  0  0  0  0  0999 V2000
    0.6933   -0.2846    0.8760 C   0  0  0  0  0  3  0  0  0  0  0  0
    0.6933   -1.6829    0.2866 C   0  0  0  0  0  0  0  0  0  0  0  0
    0.6933   -1.6829   -1.1276 O   0  0  0  0  0  0  0  0  0  0  0  0
   -0.3339    0.3981    0.4377 H   0  0  0  0  0  0  0  0  0  0  0  0
    0.6449   -0.3260    1.9661 H   0  0  0  0  0  0  0  0  0  0  0  0
    1.6047    0.2546    0.6039 H   0  0  0  0  0  0  0  0  0  0  0  0
   -0.2132   -2.2150    0.5786 H   0  0  0  0  0  0  0  0  0  0  0  0
    1.5455   -2.2558    0.6743 H   0  0  0  0  0  0  0  0  0  0  0  0
    1.4753   -1.2195   -1.4315 H   0  0  0  0  0  0  0  0  0  0  0  0
   -1.2405    1.0005    0.0509 O   0  0  0  0  0  0  0  0  0  0  0  0
   -0.7209    2.3269    0.0722 O   0  0  0  0  0  0  0  0  0  0  0  0
   -1.1081    2.6924   -0.7297 H   0  0  0  0  0  0  0  0  0  0  0  0
  1  2  1  0
  1  5  1  0
  1  6  1  0
  2  3  1  0
  2  7  1  0
  2  8  1  0
  3  9  1  0
  4 10  1  0
 10 11  1  0
 11 12  1  0
M  RAD  1   1   2
M  END
>  <reaction>  (15) 
rxn_229

>  <mol_properties>  (15) 
{"0": {"label": "*3", "atom_type": "Cs"}, "1": {"label": "*4", "atom_type": "Cs"}, "3": {"label": "*2", "atom_type": "H0"}, "9": {"label": "*1", "atom_type": "O2s"}, "10": {"label": "*0", "atom_type": "O2s"}}

>  <type>  (15) 
unop_11

>  <geom_source>  (15) 
Heuristics

$$$$

     RDKit          3D

 12 10  0  0  0  0  0  0  0  0999 V2000
    0.9457    0.2133    1.0467 C   0  0  0  0  0  3  0  0  0  0  0  0
    0.9457   -1.1850    0.4573 C   0  0  0  0  0  0  0  0  0  0  0  0
    0.9457   -1.1850   -0.9569 O   0  0  0  0  0  0  0  0  0  0  0  0
   -0.0815    0.8960    0.6084 H   0  0  0  0  0  0  0  0  0  0  0  0
    0.8973    0.1719    2.1368 H   0  0  0  0  0  0  0  0  0  0  0  0
    1.8572    0.7526    0.7746 H   0  0  0  0  0  0  0  0  0  0  0  0
    0.0393   -1.7170    0.7493 H   0  0  0  0  0  0  0  0  0  0  0  0
    1.7979   -1.7578    0.8450 H   0  0  0  0  0  0  0  0  0  0  0  0
    1.7277   -0.7215   -1.2607 H   0  0  0  0  0  0  0  0  0  0  0  0
   -0.9881    1.4984    0.2216 O   0  0  0  0  0  0  0  0  0  0  0  0
   -1.6158    0.5406   -0.6258 O   0  0  0  0  0  0  0  0  0  0  0  0
   -2.4447    0.3928   -0.1593 H   0  0  0  0  0  0  0  0  0  0  0  0
  1  2  1  0
  1  5  1  0
  1  6  1  0
  2  3  1  0
  2  7  1  0
  2  8  1  0
  3  9  1  0
  4 10  1  0
 10 11  1  0
 11 12  1  0
M  RAD  1   1   2
M  END
>  <reaction>  (16) 
rxn_229

>  <mol_properties>  (16) 
{"0": {"label": "*3", "atom_type": "Cs"}, "1": {"label": "*4", "atom_type": "Cs"}, "3": {"label": "*2", "atom_type": "H0"}, "9": {"label": "*1", "atom_type": "O2s"}, "10": {"label": "*0", "atom_type": "O2s"}}

>  <type>  (16) 
unop_12

>  <geom_source>  (16) 
Heuristics

$$$$

     RDKit          3D

 12 10  0  0  0  0  0  0  0  0999 V2000
   -2.3201    0.7199   -0.1819 O   0  0  0  0  0  0  0  0  0  0  0  0
    2.8737   -0.6820    0.3963 O   0  0  0  0  0  0  0  0  0  0  0  0
    1.6265   -0.9894    0.6832 O   0  0  0  0  0  1  0  0  0  0  0  0
   -1.3153   -0.2239    0.0710 C   0  0  0  0  0  0  0  0  0  0  0  0
   -0.0438    0.1397   -0.6819 C   0  0  0  0  0  0  0  0  0  0  0  0
   -1.6634   -1.2203   -0.2722 H   0  0  0  0  0  0  0  0  0  0  0  0
   -1.1023   -0.2888    1.1617 H   0  0  0  0  0  0  0  0  0  0  0  0
   -0.2412    0.1845   -1.7739 H   0  0  0  0  0  0  0  0  0  0  0  0
    0.3478    1.1182   -0.3316 H   0  0  0  0  0  0  0  0  0  0  0  0
   -2.1006    1.5208    0.3623 H   0  0  0  0  0  0  0  0  0  0  0  0
    3.0449    0.1566    0.8949 H   0  0  0  0  0  0  0  0  0  0  0  0
    0.8937   -0.4352   -0.3279 H   0  0  0  0  0  0  0  0  0  0  0  0
  1  4  1  0
  1 10  1  0
  2  3  1  0
  2 11  1  0
  4  5  1  0
  4  6  1  0
  4  7  1  0
  5  8  1  0
  5  9  1  0
  5 12  1  0
M  RAD  1   3   2
M  END
>  <reaction>  (17) 
rxn_229

>  <mol_properties>  (17) 
{"0": {"label": "*3", "atom_type": "Cs"}, "1": {"label": "*4", "atom_type": "Cs"}, "3": {"label": "*2", "atom_type": "H0"}, "9": {"label": "*1", "atom_type": "O2s"}, "10": {"label": "*0", "atom_type": "O2s"}}

>  <type>  (17) 
unop_13

>  <geom_source>  (17) 
AutoTST

$$$$
