
     RDKit          3D

 12 11  0  0  0  0  0  0  0  0999 V2000
    1.9877    0.1011    0.4814 C   0  0  0  0  0  0  0  0  0  0  0  0
    0.8179    0.5502    0.0525 C   0  0  0  0  0  0  0  0  0  0  0  0
   -0.2939   -0.2692   -0.5320 C   0  0  0  0  0  0  0  0  0  0  0  0
   -0.0292   -1.7631   -0.6328 C   0  0  0  0  0  0  0  0  0  0  0  0
    2.2522   -0.9490    0.4436 H   0  0  0  0  0  0  0  0  0  0  0  0
    2.7295    0.7757    0.8896 H   0  0  0  0  0  0  0  0  0  0  0  0
    0.6162    1.6164    0.1190 H   0  0  0  0  0  0  0  0  0  0  0  0
   -0.5268    0.1319   -1.5245 H   0  0  0  0  0  0  0  0  0  0  0  0
   -1.1959   -0.0938    0.0644 H   0  0  0  0  0  0  0  0  0  0  0  0
    0.1590   -2.1992    0.3502 H   0  0  0  0  0  0  0  0  0  0  0  0
    0.8382   -1.9701   -1.2626 H   0  0  0  0  0  0  0  0  0  0  0  0
   -0.8879   -2.2759   -1.0672 H   0  0  0  0  0  0  0  0  0  0  0  0
  1  2  2  3
  1  5  1  0
  1  6  1  0
  2  3  1  0
  2  7  1  0
  3  4  1  0
  3  8  1  0
  3  9  1  0
  4 10  1  0
  4 11  1  0
  4 12  1  0
M  END
>  <reaction>  (1) 
rxn_1039

>  <mol_properties>  (1) 
{"2": {"label": "donator", "atom_type": "Cs"}, "7": {"label": "d_hydrogen", "atom_type": "H0"}}

>  <type>  (1) 
r1h

$$$$

     RDKit          3D

  7  6  0  0  0  0  0  0  0  0999 V2000
   -0.6201    0.0189   -0.0017 C   0  0  0  0  0  0  0  0  0  0  0  0
    0.8589   -0.0553    0.0500 C   0  0  0  0  0  3  0  0  0  0  0  0
   -1.0738   -0.9730   -0.0559 H   0  0  0  0  0  0  0  0  0  0  0  0
   -0.9680    0.5706   -0.8872 H   0  0  0  0  0  0  0  0  0  0  0  0
   -1.0303    0.5369    0.8678 H   0  0  0  0  0  0  0  0  0  0  0  0
    1.3939   -0.8386   -0.4695 H   0  0  0  0  0  0  0  0  0  0  0  0
    1.4394    0.7404    0.4965 H   0  0  0  0  0  0  0  0  0  0  0  0
  1  2  1  0
  1  3  1  0
  1  4  1  0
  1  5  1  0
  2  6  1  0
  2  7  1  0
M  RAD  1   2   2
M  END
>  <reaction>  (2) 
rxn_1039

>  <mol_properties>  (2) 
{"1": {"label": "acceptor", "atom_type": "Cs"}}

>  <type>  (2) 
r2

$$$$

     RDKit          3D

  8  7  0  0  0  0  0  0  0  0999 V2000
    0.7610    0.0250    0.0051 C   0  0  0  0  0  0  0  0  0  0  0  0
   -0.7610   -0.0250   -0.0051 C   0  0  0  0  0  0  0  0  0  0  0  0
    1.1904   -0.9237   -0.3217 H   0  0  0  0  0  0  0  0  0  0  0  0
    1.1359    0.8041   -0.6609 H   0  0  0  0  0  0  0  0  0  0  0  0
    1.1435    0.2336    1.0058 H   0  0  0  0  0  0  0  0  0  0  0  0
   -1.1435   -0.2336   -1.0058 H   0  0  0  0  0  0  0  0  0  0  0  0
   -1.1904    0.9237    0.3216 H   0  0  0  0  0  0  0  0  0  0  0  0
   -1.1359   -0.8041    0.6609 H   0  0  0  0  0  0  0  0  0  0  0  0
  1  2  1  0
  1  3  1  0
  1  4  1  0
  1  5  1  0
  2  6  1  0
  2  7  1  0
  2  8  1  0
M  END
>  <reaction>  (3) 
rxn_1039

>  <mol_properties>  (3) 
{"0": {"label": "a_hydrogen", "atom_type": "H0"}, "2": {"label": "acceptor", "atom_type": "Cs"}}

>  <type>  (3) 
r2h

$$$$

     RDKit          3D

 19 17  0  0  0  0  0  0  0  0999 V2000
   -0.5641   -0.7133   -2.0469 C   0  0  0  0  0  0  0  0  0  0  0  0
   -0.7946   -0.8368   -0.7398 C   0  0  0  0  0  0  0  0  0  0  0  0
   -0.9774    0.2597    0.2193 C   0  0  0  0  0  0  0  0  0  0  0  0
   -1.1863    1.6538   -0.3222 C   0  0  0  0  0  0  0  0  0  0  0  0
   -0.5334    0.2521   -2.5377 H   0  0  0  0  0  0  0  0  0  0  0  0
   -0.4101   -1.5837   -2.6715 H   0  0  0  0  0  0  0  0  0  0  0  0
   -0.8190   -1.8372   -0.3157 H   0  0  0  0  0  0  0  0  0  0  0  0
    0.1134    0.3299    0.8785 H   0  0  0  0  0  0  0  0  0  0  0  0
   -1.6838   -0.0008    1.0088 H   0  0  0  0  0  0  0  0  0  0  0  0
   -2.0908    1.7144   -0.9335 H   0  0  0  0  0  0  0  0  0  0  0  0
   -0.3449    1.9667   -0.9444 H   0  0  0  0  0  0  0  0  0  0  0  0
   -1.2795    2.3729    0.4926 H   0  0  0  0  0  0  0  0  0  0  0  0
    2.0946   -0.8293    1.1779 C   0  0  0  0  0  0  0  0  0  0  0  0
    1.3939    0.4529    1.5146 C   0  0  0  0  0  3  0  0  0  0  0  0
    3.1217   -0.8409    1.5589 H   0  0  0  0  0  0  0  0  0  0  0  0
    2.1439   -0.9774    0.0972 H   0  0  0  0  0  0  0  0  0  0  0  0
    1.5782   -1.6892    1.6093 H   0  0  0  0  0  0  0  0  0  0  0  0
    1.7889    1.3506    1.0450 H   0  0  0  0  0  0  0  0  0  0  0  0
    1.1357    0.6024    2.5601 H   0  0  0  0  0  0  0  0  0  0  0  0
  1  2  2  3
  1  5  1  0
  1  6  1  0
  2  3  1  0
  2  7  1  0
  3  4  1  0
  3  8  1  0
  3  9  1  0
  4 10  1  0
  4 11  1  0
  4 12  1  0
 13 14  1  0
 13 15  1  0
 13 16  1  0
 13 17  1  0
 14 18  1  0
 14 19  1  0
M  RAD  1  14   2
M  END
>  <reaction>  (4) 
rxn_1039

>  <mol_properties>  (4) 
{"1": {"label": "*0", "atom_type": "Cd"}, "2": {"label": "*1", "atom_type": "Cs"}, "7": {"label": "*2", "atom_type": "H0"}, "12": {"label": "*4", "atom_type": "Cs"}, "13": {"label": "*3", "atom_type": "Cs"}}

>  <type>  (4) 
ts

$$$$

     RDKit          3D

 19 17  0  0  0  0  0  0  0  0999 V2000
   -0.8817   -1.2175   -2.1152 C   0  0  0  0  0  0  0  0  0  0  0  0
   -0.8817   -1.2175   -0.7909 C   0  0  0  0  0  0  0  0  0  0  0  0
   -0.8817   -0.0130    0.1026 C   0  0  0  0  0  3  0  0  0  0  0  0
   -0.8817    1.3327   -0.6051 C   0  0  0  0  0  0  0  0  0  0  0  0
   -0.8817   -0.3006   -2.6927 H   0  0  0  0  0  0  0  0  0  0  0  0
   -0.8817   -2.1449   -2.6739 H   0  0  0  0  0  0  0  0  0  0  0  0
   -0.8817   -2.1733   -0.2727 H   0  0  0  0  0  0  0  0  0  0  0  0
    0.1616   -0.0946    0.8983 H   0  0  0  0  0  0  0  0  0  0  0  0
   -1.7511   -0.0810    0.7657 H   0  0  0  0  0  0  0  0  0  0  0  0
   -1.7641    1.4477   -1.2376 H   0  0  0  0  0  0  0  0  0  0  0  0
    0.0008    1.4477   -1.2376 H   0  0  0  0  0  0  0  0  0  0  0  0
   -0.8817    2.1471    0.1202 H   0  0  0  0  0  0  0  0  0  0  0  0
    2.1315    1.0151    1.5056 C   0  0  0  0  0  0  0  0  0  0  0  0
    1.2009   -0.1759    1.6911 C   0  0  0  0  0  0  0  0  0  0  0  0
    2.5275    1.3609    2.4621 H   0  0  0  0  0  0  0  0  0  0  0  0
    1.6121    1.8547    1.0402 H   0  0  0  0  0  0  0  0  0  0  0  0
    2.9808    0.7587    0.8698 H   0  0  0  0  0  0  0  0  0  0  0  0
    0.3517    0.0806    2.3269 H   0  0  0  0  0  0  0  0  0  0  0  0
    1.7204   -1.0154    2.1565 H   0  0  0  0  0  0  0  0  0  0  0  0
  1  2  2  3
  1  5  1  0
  1  6  1  0
  2  3  1  0
  2  7  1  0
  3  4  1  0
  3  9  1  0
  4 10  1  0
  4 11  1  0
  4 12  1  0
  8 14  1  0
 13 14  1  0
 13 15  1  0
 13 16  1  0
 13 17  1  0
 14 18  1  0
 14 19  1  0
M  RAD  1   3   2
M  END
>  <reaction>  (5) 
rxn_1039

>  <mol_properties>  (5) 
{"1": {"label": "*0", "atom_type": "Cd"}, "2": {"label": "*1", "atom_type": "Cs"}, "7": {"label": "*2", "atom_type": "H0"}, "12": {"label": "*4", "atom_type": "Cs"}, "13": {"label": "*3", "atom_type": "Cs"}}

>  <type>  (5) 
unop_1

>  <geom_source>  (5) 
Heuristics

$$$$

     RDKit          3D

 19 17  0  0  0  0  0  0  0  0999 V2000
   -0.9265   -0.8741   -2.0246 C   0  0  0  0  0  0  0  0  0  0  0  0
   -0.9265   -0.8741   -0.7003 C   0  0  0  0  0  0  0  0  0  0  0  0
   -0.9265    0.3304    0.1932 C   0  0  0  0  0  3  0  0  0  0  0  0
   -0.9265    1.6762   -0.5145 C   0  0  0  0  0  0  0  0  0  0  0  0
   -0.9265    0.0429   -2.6020 H   0  0  0  0  0  0  0  0  0  0  0  0
   -0.9265   -1.8014   -2.5833 H   0  0  0  0  0  0  0  0  0  0  0  0
   -0.9265   -1.8298   -0.1821 H   0  0  0  0  0  0  0  0  0  0  0  0
    0.1167    0.2489    0.9890 H   0  0  0  0  0  0  0  0  0  0  0  0
   -1.7959    0.2625    0.8563 H   0  0  0  0  0  0  0  0  0  0  0  0
   -1.8090    1.7912   -1.1469 H   0  0  0  0  0  0  0  0  0  0  0  0
   -0.0441    1.7912   -1.1469 H   0  0  0  0  0  0  0  0  0  0  0  0
   -0.9265    2.4906    0.2108 H   0  0  0  0  0  0  0  0  0  0  0  0
    2.3038   -0.5771    1.1131 C   0  0  0  0  0  0  0  0  0  0  0  0
    1.1561    0.1676    1.7817 C   0  0  0  0  0  0  0  0  0  0  0  0
    3.2513   -0.3790    1.6173 H   0  0  0  0  0  0  0  0  0  0  0  0
    2.4158   -0.2773    0.0697 H   0  0  0  0  0  0  0  0  0  0  0  0
    2.1393   -1.6560    1.1310 H   0  0  0  0  0  0  0  0  0  0  0  0
    1.3205    1.2464    1.7639 H   0  0  0  0  0  0  0  0  0  0  0  0
    1.0441   -0.1323    2.8251 H   0  0  0  0  0  0  0  0  0  0  0  0
  1  2  2  3
  1  5  1  0
  1  6  1  0
  2  3  1  0
  2  7  1  0
  3  4  1  0
  3  9  1  0
  4 10  1  0
  4 11  1  0
  4 12  1  0
  8 14  1  0
 13 14  1  0
 13 15  1  0
 13 16  1  0
 13 17  1  0
 14 18  1  0
 14 19  1  0
M  RAD  1   3   2
M  END
>  <reaction>  (6) 
rxn_1039

>  <mol_properties>  (6) 
{"1": {"label": "*0", "atom_type": "Cd"}, "2": {"label": "*1", "atom_type": "Cs"}, "7": {"label": "*2", "atom_type": "H0"}, "12": {"label": "*4", "atom_type": "Cs"}, "13": {"label": "*3", "atom_type": "Cs"}}

>  <type>  (6) 
unop_2

>  <geom_source>  (6) 
Heuristics

$$$$

     RDKit          3D

 19 17  0  0  0  0  0  0  0  0999 V2000
   -0.8084   -1.2470   -2.2164 C   0  0  0  0  0  0  0  0  0  0  0  0
   -0.8084   -1.2470   -0.8920 C   0  0  0  0  0  0  0  0  0  0  0  0
   -0.8084   -0.0425    0.0014 C   0  0  0  0  0  3  0  0  0  0  0  0
   -0.8084    1.3032   -0.7063 C   0  0  0  0  0  0  0  0  0  0  0  0
   -0.8084   -0.3301   -2.7938 H   0  0  0  0  0  0  0  0  0  0  0  0
   -0.8084   -2.1743   -2.7750 H   0  0  0  0  0  0  0  0  0  0  0  0
   -0.8084   -2.2027   -0.3738 H   0  0  0  0  0  0  0  0  0  0  0  0
    0.2349   -0.1241    0.7972 H   0  0  0  0  0  0  0  0  0  0  0  0
   -1.6778   -0.1105    0.6646 H   0  0  0  0  0  0  0  0  0  0  0  0
   -1.6908    1.4183   -1.3387 H   0  0  0  0  0  0  0  0  0  0  0  0
    0.0741    1.4183   -1.3387 H   0  0  0  0  0  0  0  0  0  0  0  0
   -0.8084    2.1176    0.0190 H   0  0  0  0  0  0  0  0  0  0  0  0
    1.7842    1.1768    1.9756 C   0  0  0  0  0  0  0  0  0  0  0  0
    1.2742   -0.2053    1.5900 C   0  0  0  0  0  0  0  0  0  0  0  0
    2.2612    1.1631    2.9571 H   0  0  0  0  0  0  0  0  0  0  0  0
    0.9700    1.9026    2.0140 H   0  0  0  0  0  0  0  0  0  0  0  0
    2.5190    1.5425    1.2562 H   0  0  0  0  0  0  0  0  0  0  0  0
    0.5394   -0.5710    2.3093 H   0  0  0  0  0  0  0  0  0  0  0  0
    2.0885   -0.9312    1.5515 H   0  0  0  0  0  0  0  0  0  0  0  0
  1  2  2  3
  1  5  1  0
  1  6  1  0
  2  3  1  0
  2  7  1  0
  3  4  1  0
  3  9  1  0
  4 10  1  0
  4 11  1  0
  4 12  1  0
  8 14  1  0
 13 14  1  0
 13 15  1  0
 13 16  1  0
 13 17  1  0
 14 18  1  0
 14 19  1  0
M  RAD  1   3   2
M  END
>  <reaction>  (7) 
rxn_1039

>  <mol_properties>  (7) 
{"1": {"label": "*0", "atom_type": "Cd"}, "2": {"label": "*1", "atom_type": "Cs"}, "7": {"label": "*2", "atom_type": "H0"}, "12": {"label": "*4", "atom_type": "Cs"}, "13": {"label": "*3", "atom_type": "Cs"}}

>  <type>  (7) 
unop_3

>  <geom_source>  (7) 
Heuristics

$$$$

     RDKit          3D

 19 17  0  0  0  0  0  0  0  0999 V2000
   -0.7087   -0.7827   -2.2990 C   0  0  0  0  0  0  0  0  0  0  0  0
   -0.7087   -0.7827   -0.9746 C   0  0  0  0  0  0  0  0  0  0  0  0
   -0.7087    0.4218   -0.0812 C   0  0  0  0  0  3  0  0  0  0  0  0
   -0.7087    1.7675   -0.7889 C   0  0  0  0  0  0  0  0  0  0  0  0
   -0.7087    0.1342   -2.8764 H   0  0  0  0  0  0  0  0  0  0  0  0
   -0.7087   -1.7101   -2.8577 H   0  0  0  0  0  0  0  0  0  0  0  0
   -0.7087   -1.7385   -0.4564 H   0  0  0  0  0  0  0  0  0  0  0  0
    0.3346    0.3402    0.7146 H   0  0  0  0  0  0  0  0  0  0  0  0
   -1.5781    0.3538    0.5820 H   0  0  0  0  0  0  0  0  0  0  0  0
   -1.5912    1.8825   -1.4213 H   0  0  0  0  0  0  0  0  0  0  0  0
    0.1737    1.8825   -1.4213 H   0  0  0  0  0  0  0  0  0  0  0  0
   -0.7087    2.5819   -0.0636 H   0  0  0  0  0  0  0  0  0  0  0  0
    1.3199   -1.0006    2.3615 C   0  0  0  0  0  0  0  0  0  0  0  0
    1.3739    0.2589    1.5074 C   0  0  0  0  0  0  0  0  0  0  0  0
    1.7875   -0.8395    3.3344 H   0  0  0  0  0  0  0  0  0  0  0  0
    1.8403   -1.8293    1.8781 H   0  0  0  0  0  0  0  0  0  0  0  0
    0.2899   -1.3153    2.5380 H   0  0  0  0  0  0  0  0  0  0  0  0
    2.4040    0.5736    1.3308 H   0  0  0  0  0  0  0  0  0  0  0  0
    0.8535    1.0876    1.9908 H   0  0  0  0  0  0  0  0  0  0  0  0
  1  2  2  3
  1  5  1  0
  1  6  1  0
  2  3  1  0
  2  7  1  0
  3  4  1  0
  3  9  1  0
  4 10  1  0
  4 11  1  0
  4 12  1  0
  8 14  1  0
 13 14  1  0
 13 15  1  0
 13 16  1  0
 13 17  1  0
 14 18  1  0
 14 19  1  0
M  RAD  1   3   2
M  END
>  <reaction>  (8) 
rxn_1039

>  <mol_properties>  (8) 
{"1": {"label": "*0", "atom_type": "Cd"}, "2": {"label": "*1", "atom_type": "Cs"}, "7": {"label": "*2", "atom_type": "H0"}, "12": {"label": "*4", "atom_type": "Cs"}, "13": {"label": "*3", "atom_type": "Cs"}}

>  <type>  (8) 
unop_4

>  <geom_source>  (8) 
Heuristics

$$$$

     RDKit          3D

 19 17  0  0  0  0  0  0  0  0999 V2000
   -0.7353   -1.2131   -2.3109 C   0  0  0  0  0  0  0  0  0  0  0  0
   -0.7353   -1.2131   -0.9866 C   0  0  0  0  0  0  0  0  0  0  0  0
   -0.7353   -0.0086   -0.0931 C   0  0  0  0  0  3  0  0  0  0  0  0
   -0.7353    1.3371   -0.8009 C   0  0  0  0  0  0  0  0  0  0  0  0
   -0.7353   -0.2962   -2.8884 H   0  0  0  0  0  0  0  0  0  0  0  0
   -0.7353   -2.1404   -2.8696 H   0  0  0  0  0  0  0  0  0  0  0  0
   -0.7353   -2.1688   -0.4684 H   0  0  0  0  0  0  0  0  0  0  0  0
    0.3079   -0.0902    0.7026 H   0  0  0  0  0  0  0  0  0  0  0  0
   -1.6047   -0.0766    0.5700 H   0  0  0  0  0  0  0  0  0  0  0  0
   -1.6178    1.4522   -1.4333 H   0  0  0  0  0  0  0  0  0  0  0  0
    0.1471    1.4522   -1.4333 H   0  0  0  0  0  0  0  0  0  0  0  0
   -0.7353    2.1515   -0.0755 H   0  0  0  0  0  0  0  0  0  0  0  0
    1.4174    1.0222    2.4383 C   0  0  0  0  0  0  0  0  0  0  0  0
    1.3473   -0.1714    1.4954 C   0  0  0  0  0  0  0  0  0  0  0  0
    2.2835    0.9545    3.0989 H   0  0  0  0  0  0  0  0  0  0  0  0
    0.5268    1.0834    3.0663 H   0  0  0  0  0  0  0  0  0  0  0  0
    1.4964    1.9597    1.8850 H   0  0  0  0  0  0  0  0  0  0  0  0
    1.2682   -1.1089    2.0487 H   0  0  0  0  0  0  0  0  0  0  0  0
    2.2378   -0.2326    0.8674 H   0  0  0  0  0  0  0  0  0  0  0  0
  1  2  2  3
  1  5  1  0
  1  6  1  0
  2  3  1  0
  2  7  1  0
  3  4  1  0
  3  9  1  0
  4 10  1  0
  4 11  1  0
  4 12  1  0
  8 14  1  0
 13 14  1  0
 13 15  1  0
 13 16  1  0
 13 17  1  0
 14 18  1  0
 14 19  1  0
M  RAD  1   3   2
M  END
>  <reaction>  (9) 
rxn_1039

>  <mol_properties>  (9) 
{"1": {"label": "*0", "atom_type": "Cd"}, "2": {"label": "*1", "atom_type": "Cs"}, "7": {"label": "*2", "atom_type": "H0"}, "12": {"label": "*4", "atom_type": "Cs"}, "13": {"label": "*3", "atom_type": "Cs"}}

>  <type>  (9) 
unop_5

>  <geom_source>  (9) 
Heuristics

$$$$

     RDKit          3D

 19 17  0  0  0  0  0  0  0  0999 V2000
   -0.6579   -0.8780   -2.3739 C   0  0  0  0  0  0  0  0  0  0  0  0
   -0.6579   -0.8780   -1.0496 C   0  0  0  0  0  0  0  0  0  0  0  0
   -0.6579    0.3265   -0.1561 C   0  0  0  0  0  3  0  0  0  0  0  0
   -0.6579    1.6723   -0.8638 C   0  0  0  0  0  0  0  0  0  0  0  0
   -0.6579    0.0389   -2.9513 H   0  0  0  0  0  0  0  0  0  0  0  0
   -0.6579   -1.8053   -2.9326 H   0  0  0  0  0  0  0  0  0  0  0  0
   -0.6579   -1.8337   -0.5314 H   0  0  0  0  0  0  0  0  0  0  0  0
    0.3854    0.2449    0.6397 H   0  0  0  0  0  0  0  0  0  0  0  0
   -1.5273    0.2585    0.5070 H   0  0  0  0  0  0  0  0  0  0  0  0
   -1.5404    1.7873   -1.4962 H   0  0  0  0  0  0  0  0  0  0  0  0
    0.2245    1.7873   -1.4962 H   0  0  0  0  0  0  0  0  0  0  0  0
   -0.6579    2.4866   -0.1385 H   0  0  0  0  0  0  0  0  0  0  0  0
    1.0820   -0.5765    2.7183 C   0  0  0  0  0  0  0  0  0  0  0  0
    1.4247    0.1637    1.4324 C   0  0  0  0  0  0  0  0  0  0  0  0
    1.5645   -0.1147    3.5815 H   0  0  0  0  0  0  0  0  0  0  0  0
    1.4081   -1.6171    2.6751 H   0  0  0  0  0  0  0  0  0  0  0  0
    0.0060   -0.5748    2.9013 H   0  0  0  0  0  0  0  0  0  0  0  0
    2.5007    0.1620    1.2495 H   0  0  0  0  0  0  0  0  0  0  0  0
    1.0985    1.2043    1.4757 H   0  0  0  0  0  0  0  0  0  0  0  0
  1  2  2  3
  1  5  1  0
  1  6  1  0
  2  3  1  0
  2  7  1  0
  3  4  1  0
  3  9  1  0
  4 10  1  0
  4 11  1  0
  4 12  1  0
  8 14  1  0
 13 14  1  0
 13 15  1  0
 13 16  1  0
 13 17  1  0
 14 18  1  0
 14 19  1  0
M  RAD  1   3   2
M  END
>  <reaction>  (10) 
rxn_1039

>  <mol_properties>  (10) 
{"1": {"label": "*0", "atom_type": "Cd"}, "2": {"label": "*1", "atom_type": "Cs"}, "7": {"label": "*2", "atom_type": "H0"}, "12": {"label": "*4", "atom_type": "Cs"}, "13": {"label": "*3", "atom_type": "Cs"}}

>  <type>  (10) 
unop_6

>  <geom_source>  (10) 
Heuristics

$$$$

     RDKit          3D

 19 17  0  0  0  0  0  0  0  0999 V2000
   -0.6461   -1.0047   -2.4022 C   0  0  0  0  0  0  0  0  0  0  0  0
   -0.6461   -1.0047   -1.0779 C   0  0  0  0  0  0  0  0  0  0  0  0
   -0.6461    0.1998   -0.1844 C   0  0  0  0  0  3  0  0  0  0  0  0
   -0.6461    1.5456   -0.8921 C   0  0  0  0  0  0  0  0  0  0  0  0
   -0.6461   -0.0878   -2.9797 H   0  0  0  0  0  0  0  0  0  0  0  0
   -0.6461   -1.9320   -2.9609 H   0  0  0  0  0  0  0  0  0  0  0  0
   -0.6461   -1.9604   -0.5597 H   0  0  0  0  0  0  0  0  0  0  0  0
    0.3971    0.1183    0.6113 H   0  0  0  0  0  0  0  0  0  0  0  0
   -1.5155    0.1319    0.4787 H   0  0  0  0  0  0  0  0  0  0  0  0
   -1.5286    1.6606   -1.5245 H   0  0  0  0  0  0  0  0  0  0  0  0
    0.2363    1.6606   -1.5245 H   0  0  0  0  0  0  0  0  0  0  0  0
   -0.6461    2.3600   -0.1668 H   0  0  0  0  0  0  0  0  0  0  0  0
    1.0143    0.0054    2.8668 C   0  0  0  0  0  0  0  0  0  0  0  0
    1.4365    0.0370    1.4041 C   0  0  0  0  0  0  0  0  0  0  0  0
    1.6871    0.6014    3.4860 H   0  0  0  0  0  0  0  0  0  0  0  0
    1.0201   -1.0133    3.2586 H   0  0  0  0  0  0  0  0  0  0  0  0
    0.0063    0.4034    2.9966 H   0  0  0  0  0  0  0  0  0  0  0  0
    2.4444   -0.3610    1.2743 H   0  0  0  0  0  0  0  0  0  0  0  0
    1.4306    1.0557    1.0123 H   0  0  0  0  0  0  0  0  0  0  0  0
  1  2  2  3
  1  5  1  0
  1  6  1  0
  2  3  1  0
  2  7  1  0
  3  4  1  0
  3  9  1  0
  4 10  1  0
  4 11  1  0
  4 12  1  0
  8 14  1  0
 13 14  1  0
 13 15  1  0
 13 16  1  0
 13 17  1  0
 14 18  1  0
 14 19  1  0
M  RAD  1   3   2
M  END
>  <reaction>  (11) 
rxn_1039

>  <mol_properties>  (11) 
{"1": {"label": "*0", "atom_type": "Cd"}, "2": {"label": "*1", "atom_type": "Cs"}, "7": {"label": "*2", "atom_type": "H0"}, "12": {"label": "*4", "atom_type": "Cs"}, "13": {"label": "*3", "atom_type": "Cs"}}

>  <type>  (11) 
unop_7

>  <geom_source>  (11) 
Heuristics

$$$$

     RDKit          3D

 19 17  0  0  0  0  0  0  0  0999 V2000
   -0.9348   -1.1282   -2.0366 C   0  0  0  0  0  0  0  0  0  0  0  0
   -0.9348   -1.1282   -0.7122 C   0  0  0  0  0  0  0  0  0  0  0  0
   -0.9348    0.0763    0.1812 C   0  0  0  0  0  3  0  0  0  0  0  0
   -0.9348    1.4220   -0.5265 C   0  0  0  0  0  0  0  0  0  0  0  0
   -0.9348   -0.2113   -2.6140 H   0  0  0  0  0  0  0  0  0  0  0  0
   -0.9348   -2.0555   -2.5953 H   0  0  0  0  0  0  0  0  0  0  0  0
   -0.9348   -2.0839   -0.1941 H   0  0  0  0  0  0  0  0  0  0  0  0
    0.1085   -0.0053    0.9770 H   0  0  0  0  0  0  0  0  0  0  0  0
   -1.8042    0.0083    0.8443 H   0  0  0  0  0  0  0  0  0  0  0  0
   -1.8172    1.5371   -1.1589 H   0  0  0  0  0  0  0  0  0  0  0  0
   -0.0523    1.5371   -1.1589 H   0  0  0  0  0  0  0  0  0  0  0  0
   -0.9348    2.2364    0.1988 H   0  0  0  0  0  0  0  0  0  0  0  0
    2.3672    0.5851    1.1524 C   0  0  0  0  0  0  0  0  0  0  0  0
    1.1479   -0.0865    1.7697 C   0  0  0  0  0  0  0  0  0  0  0  0
    2.9417    1.1300    1.9036 H   0  0  0  0  0  0  0  0  0  0  0  0
    2.0772    1.2971    0.3777 H   0  0  0  0  0  0  0  0  0  0  0  0
    3.0336   -0.1481    0.6946 H   0  0  0  0  0  0  0  0  0  0  0  0
    0.4815    0.6466    2.2276 H   0  0  0  0  0  0  0  0  0  0  0  0
    1.4379   -0.7985    2.5445 H   0  0  0  0  0  0  0  0  0  0  0  0
  1  2  2  3
  1  5  1  0
  1  6  1  0
  2  3  1  0
  2  7  1  0
  3  4  1  0
  3  9  1  0
  4 10  1  0
  4 11  1  0
  4 12  1  0
  8 14  1  0
 13 14  1  0
 13 15  1  0
 13 16  1  0
 13 17  1  0
 14 18  1  0
 14 19  1  0
M  RAD  1   3   2
M  END
>  <reaction>  (12) 
rxn_1039

>  <mol_properties>  (12) 
{"1": {"label": "*0", "atom_type": "Cd"}, "2": {"label": "*1", "atom_type": "Cs"}, "7": {"label": "*2", "atom_type": "H0"}, "12": {"label": "*4", "atom_type": "Cs"}, "13": {"label": "*3", "atom_type": "Cs"}}

>  <type>  (12) 
unop_8

>  <geom_source>  (12) 
Heuristics

$$$$

     RDKit          3D

 19 17  0  0  0  0  0  0  0  0999 V2000
   -0.7850   -0.7461   -2.1971 C   0  0  0  0  0  0  0  0  0  0  0  0
   -0.7850   -0.7461   -0.8727 C   0  0  0  0  0  0  0  0  0  0  0  0
   -0.7850    0.4584    0.0207 C   0  0  0  0  0  3  0  0  0  0  0  0
   -0.7850    1.8041   -0.6870 C   0  0  0  0  0  0  0  0  0  0  0  0
   -0.7850    0.1708   -2.7745 H   0  0  0  0  0  0  0  0  0  0  0  0
   -0.7850   -1.6735   -2.7558 H   0  0  0  0  0  0  0  0  0  0  0  0
   -0.7850   -1.7018   -0.3546 H   0  0  0  0  0  0  0  0  0  0  0  0
    0.2583    0.3768    0.8165 H   0  0  0  0  0  0  0  0  0  0  0  0
   -1.6544    0.3904    0.6839 H   0  0  0  0  0  0  0  0  0  0  0  0
   -1.6674    1.9192   -1.3194 H   0  0  0  0  0  0  0  0  0  0  0  0
    0.0975    1.9192   -1.3194 H   0  0  0  0  0  0  0  0  0  0  0  0
   -0.7850    2.6185    0.0383 H   0  0  0  0  0  0  0  0  0  0  0  0
    1.6643   -1.1551    1.8923 C   0  0  0  0  0  0  0  0  0  0  0  0
    1.2976    0.2955    1.6092 C   0  0  0  0  0  0  0  0  0  0  0  0
    2.3014   -1.2374    2.7746 H   0  0  0  0  0  0  0  0  0  0  0  0
    2.2033   -1.5981    1.0530 H   0  0  0  0  0  0  0  0  0  0  0  0
    0.7741   -1.7610    2.0699 H   0  0  0  0  0  0  0  0  0  0  0  0
    2.1879    0.9014    1.4316 H   0  0  0  0  0  0  0  0  0  0  0  0
    0.7586    0.7386    2.4485 H   0  0  0  0  0  0  0  0  0  0  0  0
  1  2  2  3
  1  5  1  0
  1  6  1  0
  2  3  1  0
  2  7  1  0
  3  4  1  0
  3  9  1  0
  4 10  1  0
  4 11  1  0
  4 12  1  0
  8 14  1  0
 13 14  1  0
 13 15  1  0
 13 16  1  0
 13 17  1  0
 14 18  1  0
 14 19  1  0
M  RAD  1   3   2
M  END
>  <reaction>  (13) 
rxn_1039

>  <mol_properties>  (13) 
{"1": {"label": "*0", "atom_type": "Cd"}, "2": {"label": "*1", "atom_type": "Cs"}, "7": {"label": "*2", "atom_type": "H0"}, "12": {"label": "*4", "atom_type": "Cs"}, "13": {"label": "*3", "atom_type": "Cs"}}

>  <type>  (13) 
unop_9

>  <geom_source>  (13) 
Heuristics

$$$$

     RDKit          3D

 19 17  0  0  0  0  0  0  0  0999 V2000
   -0.9516   -1.0023   -2.0030 C   0  0  0  0  0  0  0  0  0  0  0  0
   -0.9516   -1.0023   -0.6786 C   0  0  0  0  0  0  0  0  0  0  0  0
   -0.9516    0.2022    0.2148 C   0  0  0  0  0  3  0  0  0  0  0  0
   -0.9516    1.5480   -0.4929 C   0  0  0  0  0  0  0  0  0  0  0  0
   -0.9516   -0.0854   -2.5804 H   0  0  0  0  0  0  0  0  0  0  0  0
   -0.9516   -1.9296   -2.5617 H   0  0  0  0  0  0  0  0  0  0  0  0
   -0.9516   -1.9580   -0.1605 H   0  0  0  0  0  0  0  0  0  0  0  0
    0.0916    0.1206    1.0106 H   0  0  0  0  0  0  0  0  0  0  0  0
   -1.8210    0.1342    0.8779 H   0  0  0  0  0  0  0  0  0  0  0  0
   -1.8341    1.6630   -1.1253 H   0  0  0  0  0  0  0  0  0  0  0  0
   -0.0692    1.6630   -1.1253 H   0  0  0  0  0  0  0  0  0  0  0  0
   -0.9516    2.3623    0.2324 H   0  0  0  0  0  0  0  0  0  0  0  0
    2.4298    0.0025    1.0092 C   0  0  0  0  0  0  0  0  0  0  0  0
    1.1310    0.0394    1.8033 C   0  0  0  0  0  0  0  0  0  0  0  0
    3.2440    0.4769    1.5597 H   0  0  0  0  0  0  0  0  0  0  0  0
    2.3264    0.5252    0.0567 H   0  0  0  0  0  0  0  0  0  0  0  0
    2.7318   -1.0236    0.7918 H   0  0  0  0  0  0  0  0  0  0  0  0
    0.8289    1.0654    2.0207 H   0  0  0  0  0  0  0  0  0  0  0  0
    1.2344   -0.4834    2.7558 H   0  0  0  0  0  0  0  0  0  0  0  0
  1  2  2  3
  1  5  1  0
  1  6  1  0
  2  3  1  0
  2  7  1  0
  3  4  1  0
  3  9  1  0
  4 10  1  0
  4 11  1  0
  4 12  1  0
  8 14  1  0
 13 14  1  0
 13 15  1  0
 13 16  1  0
 13 17  1  0
 14 18  1  0
 14 19  1  0
M  RAD  1   3   2
M  END
>  <reaction>  (14) 
rxn_1039

>  <mol_properties>  (14) 
{"1": {"label": "*0", "atom_type": "Cd"}, "2": {"label": "*1", "atom_type": "Cs"}, "7": {"label": "*2", "atom_type": "H0"}, "12": {"label": "*4", "atom_type": "Cs"}, "13": {"label": "*3", "atom_type": "Cs"}}

>  <type>  (14) 
unop_10

>  <geom_source>  (14) 
Heuristics

$$$$

     RDKit          3D

 19 17  0  0  0  0  0  0  0  0999 V2000
   -0.6757   -1.1271   -2.3780 C   0  0  0  0  0  0  0  0  0  0  0  0
   -0.6757   -1.1271   -1.0536 C   0  0  0  0  0  0  0  0  0  0  0  0
   -0.6757    0.0774   -0.1602 C   0  0  0  0  0  3  0  0  0  0  0  0
   -0.6757    1.4231   -0.8679 C   0  0  0  0  0  0  0  0  0  0  0  0
   -0.6757   -0.2102   -2.9554 H   0  0  0  0  0  0  0  0  0  0  0  0
   -0.6757   -2.0545   -2.9366 H   0  0  0  0  0  0  0  0  0  0  0  0
   -0.6757   -2.0829   -0.5354 H   0  0  0  0  0  0  0  0  0  0  0  0
    0.3675   -0.0042    0.6356 H   0  0  0  0  0  0  0  0  0  0  0  0
   -1.5451    0.0094    0.5030 H   0  0  0  0  0  0  0  0  0  0  0  0
   -1.5582    1.5381   -1.5003 H   0  0  0  0  0  0  0  0  0  0  0  0
    0.2067    1.5381   -1.5003 H   0  0  0  0  0  0  0  0  0  0  0  0
   -0.6757    2.2375   -0.1426 H   0  0  0  0  0  0  0  0  0  0  0  0
    1.1358    0.5907    2.7656 C   0  0  0  0  0  0  0  0  0  0  0  0
    1.4069   -0.0855    1.4284 C   0  0  0  0  0  0  0  0  0  0  0  0
    2.0558    0.9775    3.2073 H   0  0  0  0  0  0  0  0  0  0  0  0
    0.6942   -0.1067    3.4796 H   0  0  0  0  0  0  0  0  0  0  0  0
    0.4458    1.4288    2.6526 H   0  0  0  0  0  0  0  0  0  0  0  0
    2.0968   -0.9236    1.5413 H   0  0  0  0  0  0  0  0  0  0  0  0
    1.8484    0.6120    0.7144 H   0  0  0  0  0  0  0  0  0  0  0  0
  1  2  2  3
  1  5  1  0
  1  6  1  0
  2  3  1  0
  2  7  1  0
  3  4  1  0
  3  9  1  0
  4 10  1  0
  4 11  1  0
  4 12  1  0
  8 14  1  0
 13 14  1  0
 13 15  1  0
 13 16  1  0
 13 17  1  0
 14 18  1  0
 14 19  1  0
M  RAD  1   3   2
M  END
>  <reaction>  (15) 
rxn_1039

>  <mol_properties>  (15) 
{"1": {"label": "*0", "atom_type": "Cd"}, "2": {"label": "*1", "atom_type": "Cs"}, "7": {"label": "*2", "atom_type": "H0"}, "12": {"label": "*4", "atom_type": "Cs"}, "13": {"label": "*3", "atom_type": "Cs"}}

>  <type>  (15) 
unop_11

>  <geom_source>  (15) 
Heuristics

$$$$

     RDKit          3D

 19 17  0  0  0  0  0  0  0  0999 V2000
   -0.8653   -0.7796   -2.0961 C   0  0  0  0  0  0  0  0  0  0  0  0
   -0.8653   -0.7796   -0.7717 C   0  0  0  0  0  0  0  0  0  0  0  0
   -0.8653    0.4249    0.1217 C   0  0  0  0  0  3  0  0  0  0  0  0
   -0.8653    1.7707   -0.5860 C   0  0  0  0  0  0  0  0  0  0  0  0
   -0.8653    0.1373   -2.6735 H   0  0  0  0  0  0  0  0  0  0  0  0
   -0.8653   -1.7069   -2.6547 H   0  0  0  0  0  0  0  0  0  0  0  0
   -0.8653   -1.7353   -0.2535 H   0  0  0  0  0  0  0  0  0  0  0  0
    0.1779    0.3434    0.9175 H   0  0  0  0  0  0  0  0  0  0  0  0
   -1.7347    0.3570    0.7849 H   0  0  0  0  0  0  0  0  0  0  0  0
   -1.7478    1.8857   -1.2184 H   0  0  0  0  0  0  0  0  0  0  0  0
    0.0171    1.8857   -1.2184 H   0  0  0  0  0  0  0  0  0  0  0  0
   -0.8653    2.5851    0.1393 H   0  0  0  0  0  0  0  0  0  0  0  0
    2.0238   -1.0001    1.4359 C   0  0  0  0  0  0  0  0  0  0  0  0
    1.2173    0.2621    1.7103 C   0  0  0  0  0  0  0  0  0  0  0  0
    2.8899   -1.0678    2.0966 H   0  0  0  0  0  0  0  0  0  0  0  0
    2.3900   -1.0203    0.4080 H   0  0  0  0  0  0  0  0  0  0  0  0
    1.4204   -1.8965    1.5893 H   0  0  0  0  0  0  0  0  0  0  0  0
    1.8207    1.1586    1.5569 H   0  0  0  0  0  0  0  0  0  0  0  0
    0.8511    0.2823    2.7382 H   0  0  0  0  0  0  0  0  0  0  0  0
  1  2  2  3
  1  5  1  0
  1  6  1  0
  2  3  1  0
  2  7  1  0
  3  4  1  0
  3  9  1  0
  4 10  1  0
  4 11  1  0
  4 12  1  0
  8 14  1  0
 13 14  1  0
 13 15  1  0
 13 16  1  0
 13 17  1  0
 14 18  1  0
 14 19  1  0
M  RAD  1   3   2
M  END
>  <reaction>  (16) 
rxn_1039

>  <mol_properties>  (16) 
{"1": {"label": "*0", "atom_type": "Cd"}, "2": {"label": "*1", "atom_type": "Cs"}, "7": {"label": "*2", "atom_type": "H0"}, "12": {"label": "*4", "atom_type": "Cs"}, "13": {"label": "*3", "atom_type": "Cs"}}

>  <type>  (16) 
unop_12

>  <geom_source>  (16) 
Heuristics

$$$$

     RDKit          3D

 19 17  0  0  0  0  0  0  0  0999 V2000
    1.5965   -0.8454   -0.2578 C   0  0  0  0  0  0  0  0  0  0  0  0
    2.9642   -0.2638    0.0535 C   0  0  0  0  0  0  0  0  0  0  0  0
   -1.2609    1.8636    0.1017 C   0  0  0  0  0  0  0  0  0  0  0  0
   -0.6328    0.4752    0.1036 C   0  0  0  0  0  3  0  0  0  0  0  0
   -1.5540   -0.5580   -0.4774 C   0  0  0  0  0  0  0  0  0  0  0  0
   -2.6490   -0.9681    0.1689 C   0  0  0  0  0  0  0  0  0  0  0  0
    1.5055   -1.8563    0.1925 H   0  0  0  0  0  0  0  0  0  0  0  0
    1.4611   -0.9227   -1.3572 H   0  0  0  0  0  0  0  0  0  0  0  0
    0.7095   -0.1063    0.2130 H   0  0  0  0  0  0  0  0  0  0  0  0
    3.0970   -0.1858    1.1529 H   0  0  0  0  0  0  0  0  0  0  0  0
    3.7569   -0.9195   -0.3643 H   0  0  0  0  0  0  0  0  0  0  0  0
    3.0526    0.7475   -0.3961 H   0  0  0  0  0  0  0  0  0  0  0  0
   -0.5205    2.6002    0.4768 H   0  0  0  0  0  0  0  0  0  0  0  0
   -2.1547    1.8881    0.7606 H   0  0  0  0  0  0  0  0  0  0  0  0
   -1.5537    2.1486   -0.9309 H   0  0  0  0  0  0  0  0  0  0  0  0
   -0.3154    0.1869    1.1290 H   0  0  0  0  0  0  0  0  0  0  0  0
   -1.3013   -1.0020   -1.4348 H   0  0  0  0  0  0  0  0  0  0  0  0
   -2.9141   -0.5550    1.1375 H   0  0  0  0  0  0  0  0  0  0  0  0
   -3.2869   -1.7274   -0.2716 H   0  0  0  0  0  0  0  0  0  0  0  0
  1  2  1  0
  1  7  1  0
  1  8  1  0
  1  9  1  0
  2 10  1  0
  2 11  1  0
  2 12  1  0
  3  4  1  0
  3 13  1  0
  3 14  1  0
  3 15  1  0
  4  5  1  0
  4 16  1  0
  5  6  2  3
  5 17  1  0
  6 18  1  0
  6 19  1  0
M  RAD  1   4   2
M  END
>  <reaction>  (17) 
rxn_1039

>  <mol_properties>  (17) 
{"1": {"label": "*0", "atom_type": "Cd"}, "2": {"label": "*1", "atom_type": "Cs"}, "7": {"label": "*2", "atom_type": "H0"}, "12": {"label": "*4", "atom_type": "Cs"}, "13": {"label": "*3", "atom_type": "Cs"}}

>  <type>  (17) 
unop_13

>  <geom_source>  (17) 
AutoTST

$$$$
