
     RDKit          3D

 17 17  0  0  0  0  0  0  0  0999 V2000
    3.5625   -0.5497    0.1136 C   0  0  0  0  0  0  0  0  0  0  0  0
    2.4838    0.1716    0.1011 C   0  0  0  0  0  0  0  0  0  0  0  0
    1.3964    0.8925    0.0883 C   0  0  0  0  0  0  0  0  0  0  0  0
    0.0219    0.3691    0.0154 C   0  0  0  0  0  0  0  0  0  0  0  0
   -1.0480    1.2607    0.0100 C   0  0  0  0  0  0  0  0  0  0  0  0
   -2.3544    0.8021   -0.0577 C   0  0  0  0  0  0  0  0  0  0  0  0
   -2.6112   -0.5577   -0.1212 C   0  0  0  0  0  0  0  0  0  0  0  0
   -1.5513   -1.4554   -0.1165 C   0  0  0  0  0  0  0  0  0  0  0  0
   -0.2481   -0.9981   -0.0489 C   0  0  0  0  0  0  0  0  0  0  0  0
    3.9949   -0.8969    1.0456 H   0  0  0  0  0  0  0  0  0  0  0  0
    4.0653   -0.8236   -0.8075 H   0  0  0  0  0  0  0  0  0  0  0  0
    1.5047    1.9725    0.1352 H   0  0  0  0  0  0  0  0  0  0  0  0
   -0.8532    2.3258    0.0596 H   0  0  0  0  0  0  0  0  0  0  0  0
   -3.1731    1.5107   -0.0608 H   0  0  0  0  0  0  0  0  0  0  0  0
   -3.6304   -0.9185   -0.1742 H   0  0  0  0  0  0  0  0  0  0  0  0
   -1.7437   -2.5198   -0.1659 H   0  0  0  0  0  0  0  0  0  0  0  0
    0.5746   -1.7031   -0.0455 H   0  0  0  0  0  0  0  0  0  0  0  0
  1  2  2  0
  1 10  1  0
  1 11  1  0
  2  3  2  0
  3  4  1  0
  3 12  1  0
  4  5  2  0
  4  9  1  0
  5  6  1  0
  5 13  1  0
  6  7  2  0
  6 14  1  0
  7  8  1  0
  7 15  1  0
  8  9  2  0
  8 16  1  0
  9 17  1  0
M  END
>  <reaction>  (1) 
rxn_185

>  <mol_properties>  (1) 
{"4": {"label": "donator", "atom_type": "Cd"}, "12": {"label": "d_hydrogen", "atom_type": "H0"}}

>  <type>  (1) 
r1h

$$$$

     RDKit          3D

  1  0  0  0  0  0  0  0  0  0999 V2000
    0.0000    0.0000    0.0000 H   0  0  0  0  0 15  0  0  0  0  0  0
M  END
>  <reaction>  (2) 
rxn_185

>  <mol_properties>  (2) 
{"0": {"label": "acceptor", "atom_type": "H0"}}

>  <type>  (2) 
r2

$$$$

     RDKit          3D

  2  1  0  0  0  0  0  0  0  0999 V2000
    0.0000    0.0000    0.3721 H   0  0  0  0  0  0  0  0  0  0  0  0
    0.0000    0.0000   -0.3721 H   0  0  0  0  0  0  0  0  0  0  0  0
  1  2  1  0
M  END
>  <reaction>  (3) 
rxn_185

>  <mol_properties>  (3) 
{"0": {"label": "a_hydrogen", "atom_type": "H0"}, "1": {"label": "acceptor", "atom_type": "H0"}}

>  <type>  (3) 
r2h

$$$$

     RDKit          3D

 18 17  0  0  0  0  0  0  0  0999 V2000
   -0.1362   -1.5117   -3.3196 C   0  0  0  0  0  0  0  0  0  0  0  0
   -0.1368   -1.5193   -2.0221 C   0  0  0  0  0  0  0  0  0  0  0  0
   -0.1370   -1.5223   -0.7176 C   0  0  0  0  0  0  0  0  0  0  0  0
   -0.0289   -0.3241    0.1305 C   0  0  0  0  0  0  0  0  0  0  0  0
   -0.0379   -0.4255    1.5074 C   0  0  0  0  0  0  0  0  0  0  0  0
    0.0578    0.6354    2.3733 C   0  0  0  0  0  0  0  0  0  0  0  0
    0.1725    1.9087    1.8288 C   0  0  0  0  0  0  0  0  0  0  0  0
    0.1865    2.0649    0.4479 C   0  0  0  0  0  0  0  0  0  0  0  0
    0.0877    0.9691   -0.3911 C   0  0  0  0  0  0  0  0  0  0  0  0
   -1.0605   -1.4276   -3.8805 H   0  0  0  0  0  0  0  0  0  0  0  0
    0.7882   -1.5942   -3.8806 H   0  0  0  0  0  0  0  0  0  0  0  0
   -0.2229   -2.4755   -0.2057 H   0  0  0  0  0  0  0  0  0  0  0  0
   -0.1571   -1.7483    2.0953 H   0  0  0  0  0  0  0  0  0  0  0  0
    0.0442    0.4847    3.4458 H   0  0  0  0  0  0  0  0  0  0  0  0
    0.2504    2.7722    2.4775 H   0  0  0  0  0  0  0  0  0  0  0  0
    0.2758    3.0556    0.0206 H   0  0  0  0  0  0  0  0  0  0  0  0
    0.0998    1.1041   -1.4666 H   0  0  0  0  0  0  0  0  0  0  0  0
   -0.2276   -2.5306    2.4562 H   0  0  0  0  0 15  0  0  0  0  0  0
  1  2  2  0
  1 10  1  0
  1 11  1  0
  2  3  2  0
  3  4  1  0
  3 12  1  0
  4  5  2  0
  4  9  1  0
  5  6  1  0
  5 13  1  0
  6  7  2  0
  6 14  1  0
  7  8  1  0
  7 15  1  0
  8  9  2  0
  8 16  1  0
  9 17  1  0
M  END
>  <reaction>  (4) 
rxn_185

>  <mol_properties>  (4) 
{"3": {"label": "*4", "atom_type": "Cd"}, "4": {"label": "*3", "atom_type": "Cd"}, "12": {"label": "*2", "atom_type": "H0"}, "17": {"label": "*1", "atom_type": "H0"}}

>  <type>  (4) 
ts

$$$$

     RDKit          3D

 18 17  0  0  0  0  0  0  0  0999 V2000
   -0.1373   -1.5170   -3.3115 C   0  0  0  0  0  0  0  0  0  0  0  0
   -0.1373   -1.5170   -2.0137 C   0  0  0  0  0  0  0  0  0  0  0  0
   -0.1373   -1.5170   -0.7090 C   0  0  0  0  0  0  0  0  0  0  0  0
   -0.0294   -0.3244    0.1481 C   0  0  0  0  0  0  0  0  0  0  0  0
   -0.0431   -0.4759    1.5325 C   0  0  0  0  0  0  0  0  0  0  0  0
    0.0565    0.6252    2.3685 C   0  0  0  0  0  0  0  0  0  0  0  0
    0.1716    1.8971    1.8318 C   0  0  0  0  0  0  0  0  0  0  0  0
    0.1863    2.0592    0.4524 C   0  0  0  0  0  0  0  0  0  0  0  0
    0.0869    0.9609   -0.3816 C   0  0  0  0  0  0  0  0  0  0  0  0
   -1.0617   -1.4352   -3.8728 H   0  0  0  0  0  0  0  0  0  0  0  0
    0.7866   -1.6024   -3.8728 H   0  0  0  0  0  0  0  0  0  0  0  0
   -0.2163   -2.4752   -0.2030 H   0  0  0  0  0  0  0  0  0  0  0  0
   -0.1509   -1.6673    2.0433 H   0  0  0  0  0  0  0  0  0  0  0  0
    0.0440    0.4873    3.4424 H   0  0  0  0  0  0  0  0  0  0  0  0
    0.2496    2.7588    2.4824 H   0  0  0  0  0  0  0  0  0  0  0  0
    0.2759    3.0502    0.0252 H   0  0  0  0  0  0  0  0  0  0  0  0
    0.0989    1.0936   -1.4569 H   0  0  0  0  0  0  0  0  0  0  0  0
   -0.2249   -2.4852    2.3939 H   0  0  0  0  0 15  0  0  0  0  0  0
  1  2  2  0
  1 10  1  0
  1 11  1  0
  2  3  2  0
  3  4  1  0
  3 12  1  0
  4  5  2  0
  4  9  1  0
  5  6  1  0
  5 13  1  0
  6  7  2  0
  6 14  1  0
  7  8  1  0
  7 15  1  0
  8  9  2  0
  8 16  1  0
  9 17  1  0
M  END
>  <reaction>  (5) 
rxn_185

>  <mol_properties>  (5) 
{"3": {"label": "*4", "atom_type": "Cd"}, "4": {"label": "*3", "atom_type": "Cd"}, "12": {"label": "*2", "atom_type": "H0"}, "17": {"label": "*1", "atom_type": "H0"}}

>  <type>  (5) 
unop_1

>  <geom_source>  (5) 
Heuristics

$$$$

     RDKit          3D

 18 17  0  0  0  0  0  0  0  0999 V2000
    0.0537    0.0969   -0.4324 C   0  0  0  0  0  0  0  0  0  0  0  0
   -0.0116   -0.6890    0.7363 C   0  0  0  0  0  0  0  0  0  0  0  0
   -1.2357   -1.2152    1.1630 C   0  0  0  0  0  0  0  0  0  0  0  0
   -2.4002   -0.9641    0.4323 C   0  0  0  0  0  0  0  0  0  0  0  0
    1.3181    0.6779   -0.9299 C   0  0  0  0  0  0  0  0  0  0  0  0
   -2.3427   -0.1861   -0.7268 C   0  0  0  0  0  0  0  0  0  0  0  0
    3.5999    0.3273    0.2872 C   0  0  0  0  0  0  0  0  0  0  0  0
   -1.1216    0.3406   -1.1552 C   0  0  0  0  0  0  0  0  0  0  0  0
    2.4609    0.5022   -0.3201 C   0  0  0  0  0  0  0  0  0  0  0  0
   -3.3462   -1.3721    0.7641 H   0  0  0  0  0  0  0  0  0  0  0  0
   -1.2812   -1.8181    2.0609 H   0  0  0  0  0  0  0  0  0  0  0  0
    0.8769   -0.8969    1.3186 H   0  0  0  0  0  0  0  0  0  0  0  0
   -3.2420    0.0104   -1.2950 H   0  0  0  0  0  0  0  0  0  0  0  0
    1.3077    1.2738   -1.8340 H   0  0  0  0  0  0  0  0  0  0  0  0
    4.4985    0.7812   -0.1076 H   0  0  0  0  0  0  0  0  0  0  0  0
    3.6464   -0.2721    1.1861 H   0  0  0  0  0  0  0  0  0  0  0  0
   -1.4928    2.2048   -0.1110 H   0  0  0  0  0 15  0  0  0  0  0  0
   -1.2881    1.1985   -1.0363 H   0  0  0  0  0  0  0  0  0  0  0  0
  1  5  1  0
  1  2  2  0
  1  8  1  0
  2  3  1  0
  2 12  1  0
  3  4  2  0
  3 11  1  0
  4  6  1  0
  4 10  1  0
  5  9  2  0
  5 14  1  0
  6  8  2  0
  6 13  1  0
  7  9  2  0
  7 15  1  0
  7 16  1  0
  8 18  1  0
M  END
>  <reaction>  (6) 
rxn_185

>  <mol_properties>  (6) 
{"3": {"label": "*4", "atom_type": "Cd"}, "4": {"label": "*3", "atom_type": "Cd"}, "12": {"label": "*2", "atom_type": "H0"}, "17": {"label": "*1", "atom_type": "H0"}}

>  <type>  (6) 
unop_2

>  <geom_source>  (6) 
AutoTST

$$$$

     RDKit          3D

 18 17  0  0  0  0  0  0  0  0999 V2000
    0.0577    0.2496    0.0078 C   0  0  0  0  0  0  0  0  0  0  0  0
   -1.0161    1.1514   -0.0578 C   0  0  0  0  0  0  0  0  0  0  0  0
   -0.2141   -1.1309    0.1030 C   0  0  0  0  0  0  0  0  0  0  0  0
   -2.3345    0.6881   -0.0292 C   0  0  0  0  0  0  0  0  0  0  0  0
   -2.5943   -0.6810    0.0652 C   0  0  0  0  0  0  0  0  0  0  0  0
   -1.5351   -1.5894    0.1312 C   0  0  0  0  0  0  0  0  0  0  0  0
    1.4380    0.7816   -0.0254 C   0  0  0  0  0  0  0  0  0  0  0  0
    3.5412   -0.7595    0.0874 C   0  0  0  0  0  0  0  0  0  0  0  0
    2.4913    0.0094    0.0311 C   0  0  0  0  0  0  0  0  0  0  0  0
   -0.7818    2.5146   -0.1520 H   0  0  0  0  0  0  0  0  0  0  0  0
   -3.1537    1.3930   -0.0805 H   0  0  0  0  0  0  0  0  0  0  0  0
   -3.6159   -1.0379    0.0872 H   0  0  0  0  0  0  0  0  0  0  0  0
   -1.7376   -2.6502    0.2044 H   0  0  0  0  0  0  0  0  0  0  0  0
    0.5889   -1.8549    0.1555 H   0  0  0  0  0  0  0  0  0  0  0  0
    1.5950    1.8502   -0.0993 H   0  0  0  0  0  0  0  0  0  0  0  0
    4.5313   -0.3256    0.0595 H   0  0  0  0  0  0  0  0  0  0  0  0
    3.4221   -1.8318    0.1620 H   0  0  0  0  0  0  0  0  0  0  0  0
   -0.6823    3.2234   -0.6501 H   0  0  0  0  0 15  0  0  0  0  0  0
  1  7  1  0
  1  2  2  0
  1  3  1  0
  2  4  1  0
  2 10  1  0
  3  6  2  0
  3 14  1  0
  4  5  2  0
  4 11  1  0
  5  6  1  0
  5 12  1  0
  6 13  1  0
  7  9  2  0
  7 15  1  0
  8  9  2  0
  8 16  1  0
  8 17  1  0
M  END
>  <reaction>  (7) 
rxn_185

>  <mol_properties>  (7) 
{"3": {"label": "*4", "atom_type": "Cd"}, "4": {"label": "*3", "atom_type": "Cd"}, "12": {"label": "*2", "atom_type": "H0"}, "17": {"label": "*1", "atom_type": "H0"}}

>  <type>  (7) 
unop_3

>  <geom_source>  (7) 
gaussian_log

$$$$
