
     RDKit          3D

 22 23  0  0  0  0  0  0  0  0999 V2000
   -2.1093   -0.3263    0.3079 C   0  0  0  0  0  0  0  0  0  0  0  0
   -1.3270    0.9803    0.4115 C   0  0  0  0  0  0  0  0  0  0  0  0
   -0.1818    0.8289   -0.6044 C   0  0  0  0  0  0  0  0  0  0  0  0
    1.1682    1.3904   -0.1341 C   0  0  0  0  0  0  0  0  0  0  0  0
    1.8508    0.2041    0.5479 C   0  0  0  0  0  0  0  0  0  0  0  0
    1.4982   -0.9663   -0.3710 C   0  0  0  0  0  0  0  0  0  0  0  0
    0.0340   -0.7124   -0.7594 C   0  0  0  0  0  0  0  0  0  0  0  0
   -0.9986   -1.3650    0.1756 C   0  0  0  0  0  0  0  0  0  0  0  0
   -2.7686   -0.5042    1.1589 H   0  0  0  0  0  0  0  0  0  0  0  0
   -2.7285   -0.3223   -0.5943 H   0  0  0  0  0  0  0  0  0  0  0  0
   -1.9339    1.8682    0.2289 H   0  0  0  0  0  0  0  0  0  0  0  0
   -0.9144    1.0729    1.4218 H   0  0  0  0  0  0  0  0  0  0  0  0
   -0.4804    1.2763   -1.5535 H   0  0  0  0  0  0  0  0  0  0  0  0
    1.7667    1.7058   -0.9931 H   0  0  0  0  0  0  0  0  0  0  0  0
    1.0540    2.2578    0.5189 H   0  0  0  0  0  0  0  0  0  0  0  0
    1.4197    0.0438    1.5410 H   0  0  0  0  0  0  0  0  0  0  0  0
    2.9248    0.3413    0.6788 H   0  0  0  0  0  0  0  0  0  0  0  0
    2.1362   -0.9329   -1.2584 H   0  0  0  0  0  0  0  0  0  0  0  0
    1.6421   -1.9421    0.0966 H   0  0  0  0  0  0  0  0  0  0  0  0
   -0.1575   -1.0299   -1.7854 H   0  0  0  0  0  0  0  0  0  0  0  0
   -1.3459   -2.3310   -0.1933 H   0  0  0  0  0  0  0  0  0  0  0  0
   -0.5489   -1.5373    1.1593 H   0  0  0  0  0  0  0  0  0  0  0  0
  1  2  1  0
  1  8  1  0
  1  9  1  0
  1 10  1  0
  2  3  1  0
  2 11  1  0
  2 12  1  0
  3  4  1  0
  3  7  1  0
  3 13  1  0
  4  5  1  0
  4 14  1  0
  4 15  1  0
  5  6  1  0
  5 16  1  0
  5 17  1  0
  6  7  1  0
  6 18  1  0
  6 19  1  0
  7  8  1  0
  7 20  1  0
  8 21  1  0
  8 22  1  0
M  END
>  <reaction>  (1) 
rxn_560

>  <mol_properties>  (1) 
{"2": {"label": "donator", "atom_type": "Cs"}, "12": {"label": "d_hydrogen", "atom_type": "H0"}}

>  <type>  (1) 
r1h

$$$$

     RDKit          3D

 11 10  0  0  0  0  0  0  0  0999 V2000
    2.0591    0.2533   -0.1061 C   0  0  0  0  0  0  0  0  0  0  0  0
    0.8045   -0.3111   -0.1535 C   0  0  0  0  0  0  0  0  0  0  0  0
   -0.3816    0.3942   -0.1885 C   0  0  0  0  0  3  0  0  0  0  0  0
   -1.7316   -0.2294   -0.2396 C   0  0  0  0  0  0  0  0  0  0  0  0
    2.9505   -0.3576   -0.0805 H   0  0  0  0  0  0  0  0  0  0  0  0
    2.1872    1.3290   -0.0933 H   0  0  0  0  0  0  0  0  0  0  0  0
    0.7385   -1.3970   -0.1643 H   0  0  0  0  0  0  0  0  0  0  0  0
   -0.3340    1.4795   -0.1783 H   0  0  0  0  0  0  0  0  0  0  0  0
   -1.6704   -1.3186   -0.2461 H   0  0  0  0  0  0  0  0  0  0  0  0
   -2.3404    0.0713    0.6191 H   0  0  0  0  0  0  0  0  0  0  0  0
   -2.2805    0.0851   -1.1331 H   0  0  0  0  0  0  0  0  0  0  0  0
  1  2  2  3
  1  5  1  0
  1  6  1  0
  2  3  1  0
  2  7  1  0
  3  4  1  0
  3  8  1  0
  4  9  1  0
  4 10  1  0
  4 11  1  0
M  RAD  1   3   2
M  END
>  <reaction>  (2) 
rxn_560

>  <mol_properties>  (2) 
{"2": {"label": "acceptor", "atom_type": "Cs"}}

>  <type>  (2) 
r2

$$$$

     RDKit          3D

 12 11  0  0  0  0  0  0  0  0999 V2000
    1.9877    0.1011    0.4814 C   0  0  0  0  0  0  0  0  0  0  0  0
    0.8179    0.5502    0.0525 C   0  0  0  0  0  0  0  0  0  0  0  0
   -0.2939   -0.2692   -0.5320 C   0  0  0  0  0  0  0  0  0  0  0  0
   -0.0292   -1.7631   -0.6328 C   0  0  0  0  0  0  0  0  0  0  0  0
    2.2522   -0.9490    0.4436 H   0  0  0  0  0  0  0  0  0  0  0  0
    2.7295    0.7757    0.8896 H   0  0  0  0  0  0  0  0  0  0  0  0
    0.6162    1.6164    0.1190 H   0  0  0  0  0  0  0  0  0  0  0  0
   -0.5268    0.1319   -1.5245 H   0  0  0  0  0  0  0  0  0  0  0  0
   -1.1959   -0.0938    0.0644 H   0  0  0  0  0  0  0  0  0  0  0  0
    0.1590   -2.1992    0.3502 H   0  0  0  0  0  0  0  0  0  0  0  0
    0.8382   -1.9701   -1.2626 H   0  0  0  0  0  0  0  0  0  0  0  0
   -0.8879   -2.2759   -1.0672 H   0  0  0  0  0  0  0  0  0  0  0  0
  1  2  2  3
  1  5  1  0
  1  6  1  0
  2  3  1  0
  2  7  1  0
  3  4  1  0
  3  8  1  0
  3  9  1  0
  4 10  1  0
  4 11  1  0
  4 12  1  0
M  END
>  <reaction>  (3) 
rxn_560

>  <mol_properties>  (3) 
{"2": {"label": "acceptor", "atom_type": "Cs"}, "11": {"label": "a_hydrogen", "atom_type": "H0"}}

>  <type>  (3) 
r2h

$$$$

     RDKit          3D

 33 33  0  0  0  0  0  0  0  0999 V2000
   -2.4090   -2.2874   -0.7981 C   0  0  0  0  0  0  0  0  0  0  0  0
   -1.7492   -2.1381    0.3523 C   0  0  0  0  0  0  0  0  0  0  0  0
   -1.6903   -0.9250    1.1699 C   0  0  0  0  0  0  0  0  0  0  0  0
   -2.6778    0.1808    0.8846 C   0  0  0  0  0  0  0  0  0  0  0  0
   -2.3606   -3.2146   -1.3541 H   0  0  0  0  0  0  0  0  0  0  0  0
   -3.0250   -1.4991   -1.2144 H   0  0  0  0  0  0  0  0  0  0  0  0
   -1.1548   -2.9738    0.7132 H   0  0  0  0  0  0  0  0  0  0  0  0
   -1.5836   -1.1438    2.2327 H   0  0  0  0  0  0  0  0  0  0  0  0
   -3.7098   -0.1618    1.0045 H   0  0  0  0  0  0  0  0  0  0  0  0
   -2.5219    1.0229    1.5599 H   0  0  0  0  0  0  0  0  0  0  0  0
   -2.5734    0.5548   -0.1365 H   0  0  0  0  0  0  0  0  0  0  0  0
    1.7871   -1.3481   -0.9300 C   0  0  0  0  0  0  0  0  0  0  0  0
    1.6864   -0.8835    0.5270 C   0  0  0  0  0  0  0  0  0  0  0  0
    0.6421    0.2168    0.4996 C   0  0  0  0  0  3  0  0  0  0  0  0
    0.8290    1.4730    1.3260 C   0  0  0  0  0  0  0  0  0  0  0  0
    1.2611    2.5229    0.2921 C   0  0  0  0  0  0  0  0  0  0  0  0
    0.4331    2.1654   -0.9461 C   0  0  0  0  0  0  0  0  0  0  0  0
    0.4143    0.6309   -0.9589 C   0  0  0  0  0  0  0  0  0  0  0  0
    1.5538   -0.0617   -1.7214 C   0  0  0  0  0  0  0  0  0  0  0  0
    2.7364   -1.8333   -1.1602 H   0  0  0  0  0  0  0  0  0  0  0  0
    0.9854   -2.0594   -1.1458 H   0  0  0  0  0  0  0  0  0  0  0  0
    1.4332   -1.6940    1.2163 H   0  0  0  0  0  0  0  0  0  0  0  0
    2.6478   -0.4745    0.8613 H   0  0  0  0  0  0  0  0  0  0  0  0
   -0.5360   -0.4011    0.9062 H   0  0  0  0  0  0  0  0  0  0  0  0
   -0.1178    1.7806    1.7834 H   0  0  0  0  0  0  0  0  0  0  0  0
    1.5498    1.3414    2.1348 H   0  0  0  0  0  0  0  0  0  0  0  0
    2.3267    2.4051    0.0745 H   0  0  0  0  0  0  0  0  0  0  0  0
    1.1087    3.5489    0.6297 H   0  0  0  0  0  0  0  0  0  0  0  0
   -0.5837    2.5494   -0.8270 H   0  0  0  0  0  0  0  0  0  0  0  0
    0.8361    2.5883   -1.8679 H   0  0  0  0  0  0  0  0  0  0  0  0
   -0.5379    0.2465   -1.3367 H   0  0  0  0  0  0  0  0  0  0  0  0
    1.3147   -0.2355   -2.7714 H   0  0  0  0  0  0  0  0  0  0  0  0
    2.4542    0.5613   -1.6861 H   0  0  0  0  0  0  0  0  0  0  0  0
  1  2  2  3
  1  5  1  0
  1  6  1  0
  2  3  1  0
  2  7  1  0
  3  4  1  0
  3  8  1  0
  3 24  1  0
  4  9  1  0
  4 10  1  0
  4 11  1  0
 12 19  1  0
 12 13  1  0
 12 20  1  0
 12 21  1  0
 13 14  1  0
 13 22  1  0
 13 23  1  0
 14 15  1  0
 14 18  1  0
 15 16  1  0
 15 25  1  0
 15 26  1  0
 16 17  1  0
 16 27  1  0
 16 28  1  0
 17 18  1  0
 17 29  1  0
 17 30  1  0
 18 19  1  0
 18 31  1  0
 19 32  1  0
 19 33  1  0
M  RAD  1  14   2
M  END
>  <reaction>  (4) 
rxn_560

>  <mol_properties>  (4) 
{"1": {"label": "*0", "atom_type": "Cd"}, "2": {"label": "*1", "atom_type": "Cs"}, "13": {"label": "*3", "atom_type": "Cs"}, "17": {"label": "*4", "atom_type": "Cs"}, "23": {"label": "*2", "atom_type": "H0"}}

>  <type>  (4) 
ts

$$$$

     RDKit          3D

 33 33  0  0  0  0  0  0  0  0999 V2000
   -3.1562   -1.2160    2.5310 C   0  0  0  0  0  0  0  0  0  0  0  0
   -2.1998   -0.6166    1.8382 C   0  0  0  0  0  0  0  0  0  0  0  0
   -1.8008   -0.9144    0.4236 C   0  0  0  0  0  3  0  0  0  0  0  0
   -2.5868   -2.0191   -0.2645 C   0  0  0  0  0  0  0  0  0  0  0  0
   -3.3701   -0.9284    3.5526 H   0  0  0  0  0  0  0  0  0  0  0  0
   -3.7605   -2.0119    2.1120 H   0  0  0  0  0  0  0  0  0  0  0  0
   -1.6303    0.1750    2.3188 H   0  0  0  0  0  0  0  0  0  0  0  0
   -1.8826    0.0121   -0.1554 H   0  0  0  0  0  0  0  0  0  0  0  0
   -3.6502   -1.7769   -0.3140 H   0  0  0  0  0  0  0  0  0  0  0  0
   -2.2294   -2.1656   -1.2844 H   0  0  0  0  0  0  0  0  0  0  0  0
   -2.4838   -2.9679    0.2657 H   0  0  0  0  0  0  0  0  0  0  0  0
    1.5577   -1.0544   -1.8894 C   0  0  0  0  0  0  0  0  0  0  0  0
    1.5577   -1.0544   -0.3629 C   0  0  0  0  0  0  0  0  0  0  0  0
    0.5943    0.0804    0.0254 C   0  0  0  0  0  0  0  0  0  0  0  0
    1.0471    0.9189    1.2299 C   0  0  0  0  0  0  0  0  0  0  0  0
    1.8591    2.0571    0.6105 C   0  0  0  0  0  0  0  0  0  0  0  0
    1.0471    2.4168   -0.6344 C   0  0  0  0  0  0  0  0  0  0  0  0
    0.5943    1.0599   -1.1938 C   0  0  0  0  0  0  0  0  0  0  0  0
    1.5577    0.4362   -2.2182 C   0  0  0  0  0  0  0  0  0  0  0  0
    2.4025   -1.5926   -2.3218 H   0  0  0  0  0  0  0  0  0  0  0  0
    0.6418   -1.5212   -2.2644 H   0  0  0  0  0  0  0  0  0  0  0  0
    1.2734   -2.0127    0.0737 H   0  0  0  0  0  0  0  0  0  0  0  0
    2.5658   -0.8218   -0.0036 H   0  0  0  0  0  0  0  0  0  0  0  0
   -0.6007   -0.4160    0.2241 H   0  0  0  0  0  0  0  0  0  0  0  0
    0.1793    1.3358    1.7483 H   0  0  0  0  0  0  0  0  0  0  0  0
    1.6102    0.3322    1.9581 H   0  0  0  0  0  0  0  0  0  0  0  0
    2.8502    1.6953    0.3198 H   0  0  0  0  0  0  0  0  0  0  0  0
    2.0070    2.8995    1.2872 H   0  0  0  0  0  0  0  0  0  0  0  0
    0.1793    3.0128   -0.3391 H   0  0  0  0  0  0  0  0  0  0  0  0
    1.6102    3.0015   -1.3643 H   0  0  0  0  0  0  0  0  0  0  0  0
   -0.4015    1.1325   -1.6334 H   0  0  0  0  0  0  0  0  0  0  0  0
    1.2734    0.6561   -3.2481 H   0  0  0  0  0  0  0  0  0  0  0  0
    2.5658    0.8372   -2.0685 H   0  0  0  0  0  0  0  0  0  0  0  0
  1  2  2  3
  1  5  1  0
  1  6  1  0
  2  3  1  0
  2  7  1  0
  3  4  1  0
  3  8  1  0
  4  9  1  0
  4 10  1  0
  4 11  1  0
 12 13  1  0
 12 19  1  0
 12 20  1  0
 12 21  1  0
 13 14  1  0
 13 22  1  0
 13 23  1  0
 14 15  1  0
 14 18  1  0
 14 24  1  0
 15 16  1  0
 15 25  1  0
 15 26  1  0
 16 17  1  0
 16 27  1  0
 16 28  1  0
 17 18  1  0
 17 29  1  0
 17 30  1  0
 18 19  1  0
 18 31  1  0
 19 32  1  0
 19 33  1  0
M  RAD  1   3   2
M  END
>  <reaction>  (5) 
rxn_560

>  <mol_properties>  (5) 
{"1": {"label": "*0", "atom_type": "Cd"}, "2": {"label": "*1", "atom_type": "Cs"}, "13": {"label": "*3", "atom_type": "Cs"}, "17": {"label": "*4", "atom_type": "Cs"}, "23": {"label": "*2", "atom_type": "H0"}}

>  <type>  (5) 
unop_1

>  <geom_source>  (5) 
Heuristics

$$$$

     RDKit          3D

 33 33  0  0  0  0  0  0  0  0999 V2000
   -2.4789   -3.1613    0.8559 C   0  0  0  0  0  0  0  0  0  0  0  0
   -1.7197   -2.1243    1.1755 C   0  0  0  0  0  0  0  0  0  0  0  0
   -1.8757   -0.7168    0.6817 C   0  0  0  0  0  3  0  0  0  0  0  0
   -3.0281   -0.4801   -0.2817 C   0  0  0  0  0  0  0  0  0  0  0  0
   -2.2847   -4.1437    1.2673 H   0  0  0  0  0  0  0  0  0  0  0  0
   -3.3186   -3.0746    0.1766 H   0  0  0  0  0  0  0  0  0  0  0  0
   -0.8924   -2.2802    1.8634 H   0  0  0  0  0  0  0  0  0  0  0  0
   -1.9821   -0.0604    1.5523 H   0  0  0  0  0  0  0  0  0  0  0  0
   -3.9865   -0.7279    0.1786 H   0  0  0  0  0  0  0  0  0  0  0  0
   -3.0641    0.5664   -0.5863 H   0  0  0  0  0  0  0  0  0  0  0  0
   -2.9224   -1.0875   -1.1826 H   0  0  0  0  0  0  0  0  0  0  0  0
    1.4827   -0.8568   -1.6313 C   0  0  0  0  0  0  0  0  0  0  0  0
    1.4827   -0.8568   -0.1049 C   0  0  0  0  0  0  0  0  0  0  0  0
    0.5194    0.2779    0.2835 C   0  0  0  0  0  0  0  0  0  0  0  0
    0.9721    1.1165    1.4879 C   0  0  0  0  0  0  0  0  0  0  0  0
    1.7841    2.2547    0.8686 C   0  0  0  0  0  0  0  0  0  0  0  0
    0.9721    2.6143   -0.3763 C   0  0  0  0  0  0  0  0  0  0  0  0
    0.5194    1.2575   -0.9357 C   0  0  0  0  0  0  0  0  0  0  0  0
    1.4827    0.6337   -1.9602 C   0  0  0  0  0  0  0  0  0  0  0  0
    2.3276   -1.3950   -2.0637 H   0  0  0  0  0  0  0  0  0  0  0  0
    0.5669   -1.3237   -2.0064 H   0  0  0  0  0  0  0  0  0  0  0  0
    1.1984   -1.8152    0.3317 H   0  0  0  0  0  0  0  0  0  0  0  0
    2.4909   -0.6243    0.2544 H   0  0  0  0  0  0  0  0  0  0  0  0
   -0.6757   -0.2184    0.4822 H   0  0  0  0  0  0  0  0  0  0  0  0
    0.1043    1.5333    2.0064 H   0  0  0  0  0  0  0  0  0  0  0  0
    1.5352    0.5297    2.2162 H   0  0  0  0  0  0  0  0  0  0  0  0
    2.7752    1.8928    0.5778 H   0  0  0  0  0  0  0  0  0  0  0  0
    1.9320    3.0970    1.5453 H   0  0  0  0  0  0  0  0  0  0  0  0
    0.1043    3.2103   -0.0810 H   0  0  0  0  0  0  0  0  0  0  0  0
    1.5352    3.1990   -1.1062 H   0  0  0  0  0  0  0  0  0  0  0  0
   -0.4765    1.3300   -1.3753 H   0  0  0  0  0  0  0  0  0  0  0  0
    1.1984    0.8536   -2.9901 H   0  0  0  0  0  0  0  0  0  0  0  0
    2.4909    1.0347   -1.8105 H   0  0  0  0  0  0  0  0  0  0  0  0
  1  2  2  3
  1  5  1  0
  1  6  1  0
  2  3  1  0
  2  7  1  0
  3  4  1  0
  3  8  1  0
  4  9  1  0
  4 10  1  0
  4 11  1  0
 12 13  1  0
 12 19  1  0
 12 20  1  0
 12 21  1  0
 13 14  1  0
 13 22  1  0
 13 23  1  0
 14 15  1  0
 14 18  1  0
 14 24  1  0
 15 16  1  0
 15 25  1  0
 15 26  1  0
 16 17  1  0
 16 27  1  0
 16 28  1  0
 17 18  1  0
 17 29  1  0
 17 30  1  0
 18 19  1  0
 18 31  1  0
 19 32  1  0
 19 33  1  0
M  RAD  1   3   2
M  END
>  <reaction>  (6) 
rxn_560

>  <mol_properties>  (6) 
{"1": {"label": "*0", "atom_type": "Cd"}, "2": {"label": "*1", "atom_type": "Cs"}, "13": {"label": "*3", "atom_type": "Cs"}, "17": {"label": "*4", "atom_type": "Cs"}, "23": {"label": "*2", "atom_type": "H0"}}

>  <type>  (6) 
unop_2

>  <geom_source>  (6) 
Heuristics

$$$$

     RDKit          3D

 33 33  0  0  0  0  0  0  0  0999 V2000
   -3.4053   -0.5362    2.3002 C   0  0  0  0  0  0  0  0  0  0  0  0
   -2.4824   -0.1376    1.4381 C   0  0  0  0  0  0  0  0  0  0  0  0
   -1.7891   -0.9871    0.4150 C   0  0  0  0  0  3  0  0  0  0  0  0
   -2.2032   -2.4498    0.3826 C   0  0  0  0  0  0  0  0  0  0  0  0
   -3.8491    0.1567    3.0038 H   0  0  0  0  0  0  0  0  0  0  0  0
   -3.7539   -1.5614    2.3401 H   0  0  0  0  0  0  0  0  0  0  0  0
   -2.1775    0.9058    1.4510 H   0  0  0  0  0  0  0  0  0  0  0  0
   -1.9524   -0.5356   -0.5697 H   0  0  0  0  0  0  0  0  0  0  0  0
   -3.2679   -2.5553    0.1655 H   0  0  0  0  0  0  0  0  0  0  0  0
   -1.6500   -2.9877   -0.3880 H   0  0  0  0  0  0  0  0  0  0  0  0
   -2.0064   -2.9386    1.3387 H   0  0  0  0  0  0  0  0  0  0  0  0
    1.5694   -1.1271   -1.8979 C   0  0  0  0  0  0  0  0  0  0  0  0
    1.5694   -1.1271   -0.3715 C   0  0  0  0  0  0  0  0  0  0  0  0
    0.6060    0.0076    0.0169 C   0  0  0  0  0  0  0  0  0  0  0  0
    1.0588    0.8462    1.2213 C   0  0  0  0  0  0  0  0  0  0  0  0
    1.8708    1.9844    0.6019 C   0  0  0  0  0  0  0  0  0  0  0  0
    1.0588    2.3440   -0.6430 C   0  0  0  0  0  0  0  0  0  0  0  0
    0.6060    0.9872   -1.2024 C   0  0  0  0  0  0  0  0  0  0  0  0
    1.5694    0.3634   -2.2268 C   0  0  0  0  0  0  0  0  0  0  0  0
    2.4142   -1.6653   -2.3303 H   0  0  0  0  0  0  0  0  0  0  0  0
    0.6535   -1.5940   -2.2730 H   0  0  0  0  0  0  0  0  0  0  0  0
    1.2850   -2.0855    0.0651 H   0  0  0  0  0  0  0  0  0  0  0  0
    2.5775   -0.8946   -0.0122 H   0  0  0  0  0  0  0  0  0  0  0  0
   -0.5890   -0.4887    0.2155 H   0  0  0  0  0  0  0  0  0  0  0  0
    0.1909    1.2630    1.7397 H   0  0  0  0  0  0  0  0  0  0  0  0
    1.6218    0.2594    1.9496 H   0  0  0  0  0  0  0  0  0  0  0  0
    2.8619    1.6225    0.3112 H   0  0  0  0  0  0  0  0  0  0  0  0
    2.0187    2.8267    1.2787 H   0  0  0  0  0  0  0  0  0  0  0  0
    0.1909    2.9400   -0.3476 H   0  0  0  0  0  0  0  0  0  0  0  0
    1.6218    2.9287   -1.3728 H   0  0  0  0  0  0  0  0  0  0  0  0
   -0.3899    1.0597   -1.6419 H   0  0  0  0  0  0  0  0  0  0  0  0
    1.2850    0.5833   -3.2567 H   0  0  0  0  0  0  0  0  0  0  0  0
    2.5775    0.7644   -2.0771 H   0  0  0  0  0  0  0  0  0  0  0  0
  1  2  2  3
  1  5  1  0
  1  6  1  0
  2  3  1  0
  2  7  1  0
  3  4  1  0
  3  8  1  0
  4  9  1  0
  4 10  1  0
  4 11  1  0
 12 13  1  0
 12 19  1  0
 12 20  1  0
 12 21  1  0
 13 14  1  0
 13 22  1  0
 13 23  1  0
 14 15  1  0
 14 18  1  0
 14 24  1  0
 15 16  1  0
 15 25  1  0
 15 26  1  0
 16 17  1  0
 16 27  1  0
 16 28  1  0
 17 18  1  0
 17 29  1  0
 17 30  1  0
 18 19  1  0
 18 31  1  0
 19 32  1  0
 19 33  1  0
M  RAD  1   3   2
M  END
>  <reaction>  (7) 
rxn_560

>  <mol_properties>  (7) 
{"1": {"label": "*0", "atom_type": "Cd"}, "2": {"label": "*1", "atom_type": "Cs"}, "13": {"label": "*3", "atom_type": "Cs"}, "17": {"label": "*4", "atom_type": "Cs"}, "23": {"label": "*2", "atom_type": "H0"}}

>  <type>  (7) 
unop_3

>  <geom_source>  (7) 
Heuristics

$$$$

     RDKit          3D

 33 33  0  0  0  0  0  0  0  0999 V2000
   -3.0001   -1.1729   -1.3184 C   0  0  0  0  0  0  0  0  0  0  0  0
   -2.3008   -1.7400   -0.3472 C   0  0  0  0  0  0  0  0  0  0  0  0
   -1.8490   -1.0889    0.9260 C   0  0  0  0  0  3  0  0  0  0  0  0
   -2.2450    0.3691    1.0974 C   0  0  0  0  0  0  0  0  0  0  0  0
   -3.2798   -1.7295   -2.2039 H   0  0  0  0  0  0  0  0  0  0  0  0
   -3.3202   -0.1387   -1.2715 H   0  0  0  0  0  0  0  0  0  0  0  0
   -2.0114   -2.7821   -0.4575 H   0  0  0  0  0  0  0  0  0  0  0  0
   -2.2359   -1.6772    1.7652 H   0  0  0  0  0  0  0  0  0  0  0  0
   -3.3301    0.4889    1.0862 H   0  0  0  0  0  0  0  0  0  0  0  0
   -1.8755    0.7574    2.0471 H   0  0  0  0  0  0  0  0  0  0  0  0
   -1.8316    0.9884    0.2990 H   0  0  0  0  0  0  0  0  0  0  0  0
    1.5094   -1.2289   -1.3870 C   0  0  0  0  0  0  0  0  0  0  0  0
    1.5094   -1.2289    0.1395 C   0  0  0  0  0  0  0  0  0  0  0  0
    0.5461   -0.0941    0.5278 C   0  0  0  0  0  0  0  0  0  0  0  0
    0.9988    0.7444    1.7323 C   0  0  0  0  0  0  0  0  0  0  0  0
    1.8108    1.8826    1.1129 C   0  0  0  0  0  0  0  0  0  0  0  0
    0.9988    2.2422   -0.1320 C   0  0  0  0  0  0  0  0  0  0  0  0
    0.5461    0.8854   -0.6914 C   0  0  0  0  0  0  0  0  0  0  0  0
    1.5094    0.2617   -1.7158 C   0  0  0  0  0  0  0  0  0  0  0  0
    2.3543   -1.7671   -1.8194 H   0  0  0  0  0  0  0  0  0  0  0  0
    0.5936   -1.6957   -1.7620 H   0  0  0  0  0  0  0  0  0  0  0  0
    1.2251   -2.1872    0.5761 H   0  0  0  0  0  0  0  0  0  0  0  0
    2.5176   -0.9963    0.4988 H   0  0  0  0  0  0  0  0  0  0  0  0
   -0.6490   -0.5905    0.7265 H   0  0  0  0  0  0  0  0  0  0  0  0
    0.1310    1.1612    2.2507 H   0  0  0  0  0  0  0  0  0  0  0  0
    1.5619    0.1577    2.4605 H   0  0  0  0  0  0  0  0  0  0  0  0
    2.8019    1.5208    0.8222 H   0  0  0  0  0  0  0  0  0  0  0  0
    1.9587    2.7249    1.7896 H   0  0  0  0  0  0  0  0  0  0  0  0
    0.1310    2.8383    0.1633 H   0  0  0  0  0  0  0  0  0  0  0  0
    1.5619    2.8270   -0.8619 H   0  0  0  0  0  0  0  0  0  0  0  0
   -0.4498    0.9580   -1.1310 H   0  0  0  0  0  0  0  0  0  0  0  0
    1.2251    0.4816   -2.7457 H   0  0  0  0  0  0  0  0  0  0  0  0
    2.5176    0.6627   -1.5661 H   0  0  0  0  0  0  0  0  0  0  0  0
  1  2  2  3
  1  5  1  0
  1  6  1  0
  2  3  1  0
  2  7  1  0
  3  4  1  0
  3  8  1  0
  4  9  1  0
  4 10  1  0
  4 11  1  0
 12 13  1  0
 12 19  1  0
 12 20  1  0
 12 21  1  0
 13 14  1  0
 13 22  1  0
 13 23  1  0
 14 15  1  0
 14 18  1  0
 14 24  1  0
 15 16  1  0
 15 25  1  0
 15 26  1  0
 16 17  1  0
 16 27  1  0
 16 28  1  0
 17 18  1  0
 17 29  1  0
 17 30  1  0
 18 19  1  0
 18 31  1  0
 19 32  1  0
 19 33  1  0
M  RAD  1   3   2
M  END
>  <reaction>  (8) 
rxn_560

>  <mol_properties>  (8) 
{"1": {"label": "*0", "atom_type": "Cd"}, "2": {"label": "*1", "atom_type": "Cs"}, "13": {"label": "*3", "atom_type": "Cs"}, "17": {"label": "*4", "atom_type": "Cs"}, "23": {"label": "*2", "atom_type": "H0"}}

>  <type>  (8) 
unop_4

>  <geom_source>  (8) 
Heuristics

$$$$

     RDKit          3D

 33 33  0  0  0  0  0  0  0  0999 V2000
   -3.4618    0.1142    1.8820 C   0  0  0  0  0  0  0  0  0  0  0  0
   -2.7300    0.0263    0.7817 C   0  0  0  0  0  0  0  0  0  0  0  0
   -1.8141   -1.1001    0.4054 C   0  0  0  0  0  3  0  0  0  0  0  0
   -1.7335   -2.2453    1.4023 C   0  0  0  0  0  0  0  0  0  0  0  0
   -4.0955    0.9728    2.0643 H   0  0  0  0  0  0  0  0  0  0  0  0
   -3.4595   -0.6598    2.6403 H   0  0  0  0  0  0  0  0  0  0  0  0
   -2.7786    0.8385    0.0607 H   0  0  0  0  0  0  0  0  0  0  0  0
   -2.1290   -1.4831   -0.5716 H   0  0  0  0  0  0  0  0  0  0  0  0
   -2.7100   -2.7104    1.5512 H   0  0  0  0  0  0  0  0  0  0  0  0
   -1.0473   -3.0149    1.0472 H   0  0  0  0  0  0  0  0  0  0  0  0
   -1.3754   -1.9001    2.3741 H   0  0  0  0  0  0  0  0  0  0  0  0
    1.5443   -1.2401   -1.9076 C   0  0  0  0  0  0  0  0  0  0  0  0
    1.5443   -1.2401   -0.3812 C   0  0  0  0  0  0  0  0  0  0  0  0
    0.5810   -0.1054    0.0072 C   0  0  0  0  0  0  0  0  0  0  0  0
    1.0337    0.7332    1.2116 C   0  0  0  0  0  0  0  0  0  0  0  0
    1.8457    1.8714    0.5923 C   0  0  0  0  0  0  0  0  0  0  0  0
    1.0337    2.2310   -0.6526 C   0  0  0  0  0  0  0  0  0  0  0  0
    0.5810    0.8742   -1.2120 C   0  0  0  0  0  0  0  0  0  0  0  0
    1.5443    0.2505   -2.2364 C   0  0  0  0  0  0  0  0  0  0  0  0
    2.3892   -1.7783   -2.3400 H   0  0  0  0  0  0  0  0  0  0  0  0
    0.6285   -1.7070   -2.2827 H   0  0  0  0  0  0  0  0  0  0  0  0
    1.2600   -2.1985    0.0554 H   0  0  0  0  0  0  0  0  0  0  0  0
    2.5525   -1.0075   -0.0219 H   0  0  0  0  0  0  0  0  0  0  0  0
   -0.6141   -0.6017    0.2059 H   0  0  0  0  0  0  0  0  0  0  0  0
    0.1659    1.1500    1.7301 H   0  0  0  0  0  0  0  0  0  0  0  0
    1.5968    0.1465    1.9399 H   0  0  0  0  0  0  0  0  0  0  0  0
    2.8368    1.5095    0.3016 H   0  0  0  0  0  0  0  0  0  0  0  0
    1.9936    2.7137    1.2690 H   0  0  0  0  0  0  0  0  0  0  0  0
    0.1659    2.8271   -0.3573 H   0  0  0  0  0  0  0  0  0  0  0  0
    1.5968    2.8158   -1.3825 H   0  0  0  0  0  0  0  0  0  0  0  0
   -0.4149    0.9467   -1.6516 H   0  0  0  0  0  0  0  0  0  0  0  0
    1.2600    0.4703   -3.2664 H   0  0  0  0  0  0  0  0  0  0  0  0
    2.5525    0.6514   -2.0867 H   0  0  0  0  0  0  0  0  0  0  0  0
  1  2  2  3
  1  5  1  0
  1  6  1  0
  2  3  1  0
  2  7  1  0
  3  4  1  0
  3  8  1  0
  4  9  1  0
  4 10  1  0
  4 11  1  0
 12 13  1  0
 12 19  1  0
 12 20  1  0
 12 21  1  0
 13 14  1  0
 13 22  1  0
 13 23  1  0
 14 15  1  0
 14 18  1  0
 14 24  1  0
 15 16  1  0
 15 25  1  0
 15 26  1  0
 16 17  1  0
 16 27  1  0
 16 28  1  0
 17 18  1  0
 17 29  1  0
 17 30  1  0
 18 19  1  0
 18 31  1  0
 19 32  1  0
 19 33  1  0
M  RAD  1   3   2
M  END
>  <reaction>  (9) 
rxn_560

>  <mol_properties>  (9) 
{"1": {"label": "*0", "atom_type": "Cd"}, "2": {"label": "*1", "atom_type": "Cs"}, "13": {"label": "*3", "atom_type": "Cs"}, "17": {"label": "*4", "atom_type": "Cs"}, "23": {"label": "*2", "atom_type": "H0"}}

>  <type>  (9) 
unop_5

>  <geom_source>  (9) 
Heuristics

$$$$

     RDKit          3D

 33 33  0  0  0  0  0  0  0  0999 V2000
   -3.2503   -0.1735   -0.9753 C   0  0  0  0  0  0  0  0  0  0  0  0
   -2.5753   -1.1960   -0.4725 C   0  0  0  0  0  0  0  0  0  0  0  0
   -1.8363   -1.2238    0.8321 C   0  0  0  0  0  3  0  0  0  0  0  0
   -1.8801    0.0622    1.6421 C   0  0  0  0  0  0  0  0  0  0  0  0
   -3.7535   -0.2518   -1.9307 H   0  0  0  0  0  0  0  0  0  0  0  0
   -3.3287    0.7763   -0.4596 H   0  0  0  0  0  0  0  0  0  0  0  0
   -2.5363   -2.1213   -1.0419 H   0  0  0  0  0  0  0  0  0  0  0  0
   -2.2338   -2.0506    1.4310 H   0  0  0  0  0  0  0  0  0  0  0  0
   -2.9056    0.3321    1.9019 H   0  0  0  0  0  0  0  0  0  0  0  0
   -1.3187   -0.0502    2.5703 H   0  0  0  0  0  0  0  0  0  0  0  0
   -1.4451    0.8953    1.0866 H   0  0  0  0  0  0  0  0  0  0  0  0
    1.5221   -1.3638   -1.4808 C   0  0  0  0  0  0  0  0  0  0  0  0
    1.5221   -1.3638    0.0456 C   0  0  0  0  0  0  0  0  0  0  0  0
    0.5588   -0.2291    0.4340 C   0  0  0  0  0  0  0  0  0  0  0  0
    1.0115    0.6095    1.6384 C   0  0  0  0  0  0  0  0  0  0  0  0
    1.8235    1.7477    1.0190 C   0  0  0  0  0  0  0  0  0  0  0  0
    1.0115    2.1073   -0.2259 C   0  0  0  0  0  0  0  0  0  0  0  0
    0.5588    0.7505   -0.7853 C   0  0  0  0  0  0  0  0  0  0  0  0
    1.5221    0.1268   -1.8097 C   0  0  0  0  0  0  0  0  0  0  0  0
    2.3670   -1.9020   -1.9132 H   0  0  0  0  0  0  0  0  0  0  0  0
    0.6063   -1.8306   -1.8559 H   0  0  0  0  0  0  0  0  0  0  0  0
    1.2378   -2.3222    0.4822 H   0  0  0  0  0  0  0  0  0  0  0  0
    2.5303   -1.1312    0.4049 H   0  0  0  0  0  0  0  0  0  0  0  0
   -0.6363   -0.7254    0.6326 H   0  0  0  0  0  0  0  0  0  0  0  0
    0.1437    1.0263    2.1568 H   0  0  0  0  0  0  0  0  0  0  0  0
    1.5746    0.0228    2.3667 H   0  0  0  0  0  0  0  0  0  0  0  0
    2.8146    1.3859    0.7283 H   0  0  0  0  0  0  0  0  0  0  0  0
    1.9715    2.5900    1.6958 H   0  0  0  0  0  0  0  0  0  0  0  0
    0.1437    2.7034    0.0695 H   0  0  0  0  0  0  0  0  0  0  0  0
    1.5746    2.6921   -0.9557 H   0  0  0  0  0  0  0  0  0  0  0  0
   -0.4371    0.8231   -1.2248 H   0  0  0  0  0  0  0  0  0  0  0  0
    1.2378    0.3467   -2.8396 H   0  0  0  0  0  0  0  0  0  0  0  0
    2.5303    0.5277   -1.6600 H   0  0  0  0  0  0  0  0  0  0  0  0
  1  2  2  3
  1  5  1  0
  1  6  1  0
  2  3  1  0
  2  7  1  0
  3  4  1  0
  3  8  1  0
  4  9  1  0
  4 10  1  0
  4 11  1  0
 12 13  1  0
 12 19  1  0
 12 20  1  0
 12 21  1  0
 13 14  1  0
 13 22  1  0
 13 23  1  0
 14 15  1  0
 14 18  1  0
 14 24  1  0
 15 16  1  0
 15 25  1  0
 15 26  1  0
 16 17  1  0
 16 27  1  0
 16 28  1  0
 17 18  1  0
 17 29  1  0
 17 30  1  0
 18 19  1  0
 18 31  1  0
 19 32  1  0
 19 33  1  0
M  RAD  1   3   2
M  END
>  <reaction>  (10) 
rxn_560

>  <mol_properties>  (10) 
{"1": {"label": "*0", "atom_type": "Cd"}, "2": {"label": "*1", "atom_type": "Cs"}, "13": {"label": "*3", "atom_type": "Cs"}, "17": {"label": "*4", "atom_type": "Cs"}, "23": {"label": "*2", "atom_type": "H0"}}

>  <type>  (10) 
unop_6

>  <geom_source>  (10) 
Heuristics

$$$$

     RDKit          3D

 33 33  0  0  0  0  0  0  0  0999 V2000
   -3.4017    0.5188   -0.1278 C   0  0  0  0  0  0  0  0  0  0  0  0
   -2.7764   -0.6369   -0.2926 C   0  0  0  0  0  0  0  0  0  0  0  0
   -1.8342   -1.2888    0.6750 C   0  0  0  0  0  3  0  0  0  0  0  0
   -1.5870   -0.5285    1.9683 C   0  0  0  0  0  0  0  0  0  0  0  0
   -4.0661    0.9080   -0.8889 H   0  0  0  0  0  0  0  0  0  0  0  0
   -3.2782    1.1200    0.7652 H   0  0  0  0  0  0  0  0  0  0  0  0
   -2.9446   -1.1905   -1.2130 H   0  0  0  0  0  0  0  0  0  0  0  0
   -2.2185   -2.2891    0.9030 H   0  0  0  0  0  0  0  0  0  0  0  0
   -2.5139   -0.3850    2.5269 H   0  0  0  0  0  0  0  0  0  0  0  0
   -0.8927   -1.0751    2.6075 H   0  0  0  0  0  0  0  0  0  0  0  0
   -1.1578    0.4562    1.7731 H   0  0  0  0  0  0  0  0  0  0  0  0
    1.5242   -1.4288   -1.6379 C   0  0  0  0  0  0  0  0  0  0  0  0
    1.5242   -1.4288   -0.1115 C   0  0  0  0  0  0  0  0  0  0  0  0
    0.5609   -0.2941    0.2769 C   0  0  0  0  0  0  0  0  0  0  0  0
    1.0136    0.5445    1.4813 C   0  0  0  0  0  0  0  0  0  0  0  0
    1.8256    1.6827    0.8619 C   0  0  0  0  0  0  0  0  0  0  0  0
    1.0136    2.0423   -0.3830 C   0  0  0  0  0  0  0  0  0  0  0  0
    0.5609    0.6855   -0.9424 C   0  0  0  0  0  0  0  0  0  0  0  0
    1.5242    0.0617   -1.9668 C   0  0  0  0  0  0  0  0  0  0  0  0
    2.3691   -1.9670   -2.0703 H   0  0  0  0  0  0  0  0  0  0  0  0
    0.6084   -1.8957   -2.0130 H   0  0  0  0  0  0  0  0  0  0  0  0
    1.2399   -2.3872    0.3251 H   0  0  0  0  0  0  0  0  0  0  0  0
    2.5324   -1.1963    0.2478 H   0  0  0  0  0  0  0  0  0  0  0  0
   -0.6342   -0.7904    0.4755 H   0  0  0  0  0  0  0  0  0  0  0  0
    0.1458    0.9613    1.9997 H   0  0  0  0  0  0  0  0  0  0  0  0
    1.5767   -0.0423    2.2096 H   0  0  0  0  0  0  0  0  0  0  0  0
    2.8168    1.3208    0.5712 H   0  0  0  0  0  0  0  0  0  0  0  0
    1.9736    2.5250    1.5387 H   0  0  0  0  0  0  0  0  0  0  0  0
    0.1458    2.6383   -0.0876 H   0  0  0  0  0  0  0  0  0  0  0  0
    1.5767    2.6270   -1.1128 H   0  0  0  0  0  0  0  0  0  0  0  0
   -0.4350    0.7580   -1.3819 H   0  0  0  0  0  0  0  0  0  0  0  0
    1.2399    0.2816   -2.9967 H   0  0  0  0  0  0  0  0  0  0  0  0
    2.5324    0.4627   -1.8171 H   0  0  0  0  0  0  0  0  0  0  0  0
  1  2  2  3
  1  5  1  0
  1  6  1  0
  2  3  1  0
  2  7  1  0
  3  4  1  0
  3  8  1  0
  4  9  1  0
  4 10  1  0
  4 11  1  0
 12 13  1  0
 12 19  1  0
 12 20  1  0
 12 21  1  0
 13 14  1  0
 13 22  1  0
 13 23  1  0
 14 15  1  0
 14 18  1  0
 14 24  1  0
 15 16  1  0
 15 25  1  0
 15 26  1  0
 16 17  1  0
 16 27  1  0
 16 28  1  0
 17 18  1  0
 17 29  1  0
 17 30  1  0
 18 19  1  0
 18 31  1  0
 19 32  1  0
 19 33  1  0
M  RAD  1   3   2
M  END
>  <reaction>  (11) 
rxn_560

>  <mol_properties>  (11) 
{"1": {"label": "*0", "atom_type": "Cd"}, "2": {"label": "*1", "atom_type": "Cs"}, "13": {"label": "*3", "atom_type": "Cs"}, "17": {"label": "*4", "atom_type": "Cs"}, "23": {"label": "*2", "atom_type": "H0"}}

>  <type>  (11) 
unop_7

>  <geom_source>  (11) 
Heuristics

$$$$

     RDKit          3D

 33 33  0  0  0  0  0  0  0  0999 V2000
   -2.8368   -2.0286    2.4309 C   0  0  0  0  0  0  0  0  0  0  0  0
   -1.9435   -1.2090    1.8978 C   0  0  0  0  0  0  0  0  0  0  0  0
   -1.8317   -0.8278    0.4517 C   0  0  0  0  0  3  0  0  0  0  0  0
   -2.8574   -1.4576   -0.4773 C   0  0  0  0  0  0  0  0  0  0  0  0
   -2.8358   -2.2421    3.4923 H   0  0  0  0  0  0  0  0  0  0  0  0
   -3.6000   -2.5166    1.8363 H   0  0  0  0  0  0  0  0  0  0  0  0
   -1.2045   -0.7521    2.5513 H   0  0  0  0  0  0  0  0  0  0  0  0
   -1.8918    0.2638    0.3817 H   0  0  0  0  0  0  0  0  0  0  0  0
   -3.8741   -1.1837   -0.1888 H   0  0  0  0  0  0  0  0  0  0  0  0
   -2.7000   -1.1249   -1.5038 H   0  0  0  0  0  0  0  0  0  0  0  0
   -2.7877   -2.5471   -0.4642 H   0  0  0  0  0  0  0  0  0  0  0  0
    1.5268   -0.9679   -1.8612 C   0  0  0  0  0  0  0  0  0  0  0  0
    1.5268   -0.9679   -0.3348 C   0  0  0  0  0  0  0  0  0  0  0  0
    0.5634    0.1669    0.0536 C   0  0  0  0  0  0  0  0  0  0  0  0
    1.0162    1.0055    1.2580 C   0  0  0  0  0  0  0  0  0  0  0  0
    1.8282    2.1437    0.6386 C   0  0  0  0  0  0  0  0  0  0  0  0
    1.0162    2.5033   -0.6063 C   0  0  0  0  0  0  0  0  0  0  0  0
    0.5634    1.1465   -1.1657 C   0  0  0  0  0  0  0  0  0  0  0  0
    1.5268    0.5227   -2.1901 C   0  0  0  0  0  0  0  0  0  0  0  0
    2.3716   -1.5060   -2.2936 H   0  0  0  0  0  0  0  0  0  0  0  0
    0.6109   -1.4347   -2.2363 H   0  0  0  0  0  0  0  0  0  0  0  0
    1.2425   -1.9262    0.1018 H   0  0  0  0  0  0  0  0  0  0  0  0
    2.5349   -0.7353    0.0245 H   0  0  0  0  0  0  0  0  0  0  0  0
   -0.6316   -0.3294    0.2522 H   0  0  0  0  0  0  0  0  0  0  0  0
    0.1484    1.4223    1.7764 H   0  0  0  0  0  0  0  0  0  0  0  0
    1.5793    0.4187    1.9863 H   0  0  0  0  0  0  0  0  0  0  0  0
    2.8193    1.7818    0.3479 H   0  0  0  0  0  0  0  0  0  0  0  0
    1.9761    2.9860    1.3154 H   0  0  0  0  0  0  0  0  0  0  0  0
    0.1484    3.0993   -0.3110 H   0  0  0  0  0  0  0  0  0  0  0  0
    1.5793    3.0880   -1.3361 H   0  0  0  0  0  0  0  0  0  0  0  0
   -0.4324    1.2190   -1.6052 H   0  0  0  0  0  0  0  0  0  0  0  0
    1.2425    0.7426   -3.2200 H   0  0  0  0  0  0  0  0  0  0  0  0
    2.5349    0.9237   -2.0404 H   0  0  0  0  0  0  0  0  0  0  0  0
  1  2  2  3
  1  5  1  0
  1  6  1  0
  2  3  1  0
  2  7  1  0
  3  4  1  0
  3  8  1  0
  4  9  1  0
  4 10  1  0
  4 11  1  0
 12 13  1  0
 12 19  1  0
 12 20  1  0
 12 21  1  0
 13 14  1  0
 13 22  1  0
 13 23  1  0
 14 15  1  0
 14 18  1  0
 14 24  1  0
 15 16  1  0
 15 25  1  0
 15 26  1  0
 16 17  1  0
 16 27  1  0
 16 28  1  0
 17 18  1  0
 17 29  1  0
 17 30  1  0
 18 19  1  0
 18 31  1  0
 19 32  1  0
 19 33  1  0
M  RAD  1   3   2
M  END
>  <reaction>  (12) 
rxn_560

>  <mol_properties>  (12) 
{"1": {"label": "*0", "atom_type": "Cd"}, "2": {"label": "*1", "atom_type": "Cs"}, "13": {"label": "*3", "atom_type": "Cs"}, "17": {"label": "*4", "atom_type": "Cs"}, "23": {"label": "*2", "atom_type": "H0"}}

>  <type>  (12) 
unop_8

>  <geom_source>  (12) 
Heuristics

$$$$

     RDKit          3D

 33 33  0  0  0  0  0  0  0  0999 V2000
   -2.7351   -2.2007   -1.0649 C   0  0  0  0  0  0  0  0  0  0  0  0
   -2.0223   -2.1266    0.0488 C   0  0  0  0  0  0  0  0  0  0  0  0
   -1.8647   -0.9237    0.9304 C   0  0  0  0  0  3  0  0  0  0  0  0
   -2.6069    0.3249    0.4808 C   0  0  0  0  0  0  0  0  0  0  0  0
   -2.7868   -3.1196   -1.6350 H   0  0  0  0  0  0  0  0  0  0  0  0
   -3.2920   -1.3553   -1.4513 H   0  0  0  0  0  0  0  0  0  0  0  0
   -1.4868   -3.0124    0.3812 H   0  0  0  0  0  0  0  0  0  0  0  0
   -2.1841   -1.1985    1.9417 H   0  0  0  0  0  0  0  0  0  0  0  0
   -3.6832    0.1490    0.4293 H   0  0  0  0  0  0  0  0  0  0  0  0
   -2.4352    1.1450    1.1788 H   0  0  0  0  0  0  0  0  0  0  0  0
   -2.2732    0.6502   -0.5065 H   0  0  0  0  0  0  0  0  0  0  0  0
    1.4937   -1.0637   -1.3826 C   0  0  0  0  0  0  0  0  0  0  0  0
    1.4937   -1.0637    0.1439 C   0  0  0  0  0  0  0  0  0  0  0  0
    0.5303    0.0711    0.5322 C   0  0  0  0  0  0  0  0  0  0  0  0
    0.9831    0.9096    1.7367 C   0  0  0  0  0  0  0  0  0  0  0  0
    1.7951    2.0478    1.1173 C   0  0  0  0  0  0  0  0  0  0  0  0
    0.9831    2.4074   -0.1276 C   0  0  0  0  0  0  0  0  0  0  0  0
    0.5303    1.0506   -0.6870 C   0  0  0  0  0  0  0  0  0  0  0  0
    1.4937    0.4269   -1.7114 C   0  0  0  0  0  0  0  0  0  0  0  0
    2.3385   -1.6019   -1.8150 H   0  0  0  0  0  0  0  0  0  0  0  0
    0.5778   -1.5305   -1.7576 H   0  0  0  0  0  0  0  0  0  0  0  0
    1.2094   -2.0220    0.5805 H   0  0  0  0  0  0  0  0  0  0  0  0
    2.5018   -0.8311    0.5032 H   0  0  0  0  0  0  0  0  0  0  0  0
   -0.6647   -0.4253    0.7309 H   0  0  0  0  0  0  0  0  0  0  0  0
    0.1153    1.3264    2.2551 H   0  0  0  0  0  0  0  0  0  0  0  0
    1.5462    0.3229    2.4649 H   0  0  0  0  0  0  0  0  0  0  0  0
    2.7862    1.6860    0.8266 H   0  0  0  0  0  0  0  0  0  0  0  0
    1.9430    2.8902    1.7940 H   0  0  0  0  0  0  0  0  0  0  0  0
    0.1153    3.0035    0.1677 H   0  0  0  0  0  0  0  0  0  0  0  0
    1.5462    2.9922   -0.8574 H   0  0  0  0  0  0  0  0  0  0  0  0
   -0.4655    1.1232   -1.1266 H   0  0  0  0  0  0  0  0  0  0  0  0
    1.2094    0.6468   -2.7413 H   0  0  0  0  0  0  0  0  0  0  0  0
    2.5018    0.8279   -1.5617 H   0  0  0  0  0  0  0  0  0  0  0  0
  1  2  2  3
  1  5  1  0
  1  6  1  0
  2  3  1  0
  2  7  1  0
  3  4  1  0
  3  8  1  0
  4  9  1  0
  4 10  1  0
  4 11  1  0
 12 13  1  0
 12 19  1  0
 12 20  1  0
 12 21  1  0
 13 14  1  0
 13 22  1  0
 13 23  1  0
 14 15  1  0
 14 18  1  0
 14 24  1  0
 15 16  1  0
 15 25  1  0
 15 26  1  0
 16 17  1  0
 16 27  1  0
 16 28  1  0
 17 18  1  0
 17 29  1  0
 17 30  1  0
 18 19  1  0
 18 31  1  0
 19 32  1  0
 19 33  1  0
M  RAD  1   3   2
M  END
>  <reaction>  (13) 
rxn_560

>  <mol_properties>  (13) 
{"1": {"label": "*0", "atom_type": "Cd"}, "2": {"label": "*1", "atom_type": "Cs"}, "13": {"label": "*3", "atom_type": "Cs"}, "17": {"label": "*4", "atom_type": "Cs"}, "23": {"label": "*2", "atom_type": "H0"}}

>  <type>  (13) 
unop_9

>  <geom_source>  (13) 
Heuristics

$$$$

     RDKit          3D

 33 33  0  0  0  0  0  0  0  0999 V2000
   -2.5824   -2.7767    1.8510 C   0  0  0  0  0  0  0  0  0  0  0  0
   -1.7695   -1.7514    1.6466 C   0  0  0  0  0  0  0  0  0  0  0  0
   -1.8608   -0.7461    0.5376 C   0  0  0  0  0  3  0  0  0  0  0  0
   -3.0101   -0.9436   -0.4383 C   0  0  0  0  0  0  0  0  0  0  0  0
   -2.4328   -3.4507    2.6850 H   0  0  0  0  0  0  0  0  0  0  0  0
   -3.4239   -2.9850    1.2009 H   0  0  0  0  0  0  0  0  0  0  0  0
   -0.9438   -1.5991    2.3372 H   0  0  0  0  0  0  0  0  0  0  0  0
   -1.9254    0.2511    0.9865 H   0  0  0  0  0  0  0  0  0  0  0  0
   -3.9747   -0.8942    0.0705 H   0  0  0  0  0  0  0  0  0  0  0  0
   -2.9974   -0.1700   -1.2068 H   0  0  0  0  0  0  0  0  0  0  0  0
   -2.9440   -1.9124   -0.9373 H   0  0  0  0  0  0  0  0  0  0  0  0
    1.4976   -0.8861   -1.7754 C   0  0  0  0  0  0  0  0  0  0  0  0
    1.4976   -0.8861   -0.2490 C   0  0  0  0  0  0  0  0  0  0  0  0
    0.5343    0.2486    0.1394 C   0  0  0  0  0  0  0  0  0  0  0  0
    0.9870    1.0872    1.3438 C   0  0  0  0  0  0  0  0  0  0  0  0
    1.7990    2.2254    0.7244 C   0  0  0  0  0  0  0  0  0  0  0  0
    0.9870    2.5850   -0.5205 C   0  0  0  0  0  0  0  0  0  0  0  0
    0.5343    1.2282   -1.0798 C   0  0  0  0  0  0  0  0  0  0  0  0
    1.4976    0.6045   -2.1043 C   0  0  0  0  0  0  0  0  0  0  0  0
    2.3424   -1.4243   -2.2078 H   0  0  0  0  0  0  0  0  0  0  0  0
    0.5818   -1.3530   -2.1505 H   0  0  0  0  0  0  0  0  0  0  0  0
    1.2133   -1.8445    0.1876 H   0  0  0  0  0  0  0  0  0  0  0  0
    2.5058   -0.6535    0.1103 H   0  0  0  0  0  0  0  0  0  0  0  0
   -0.6608   -0.2477    0.3381 H   0  0  0  0  0  0  0  0  0  0  0  0
    0.1192    1.5040    1.8623 H   0  0  0  0  0  0  0  0  0  0  0  0
    1.5501    0.5005    2.0721 H   0  0  0  0  0  0  0  0  0  0  0  0
    2.7901    1.8635    0.4337 H   0  0  0  0  0  0  0  0  0  0  0  0
    1.9469    3.0677    1.4012 H   0  0  0  0  0  0  0  0  0  0  0  0
    0.1192    3.1811   -0.2251 H   0  0  0  0  0  0  0  0  0  0  0  0
    1.5501    3.1698   -1.2503 H   0  0  0  0  0  0  0  0  0  0  0  0
   -0.4616    1.3007   -1.5194 H   0  0  0  0  0  0  0  0  0  0  0  0
    1.2133    0.8243   -3.1342 H   0  0  0  0  0  0  0  0  0  0  0  0
    2.5058    1.0054   -1.9546 H   0  0  0  0  0  0  0  0  0  0  0  0
  1  2  2  3
  1  5  1  0
  1  6  1  0
  2  3  1  0
  2  7  1  0
  3  4  1  0
  3  8  1  0
  4  9  1  0
  4 10  1  0
  4 11  1  0
 12 13  1  0
 12 19  1  0
 12 20  1  0
 12 21  1  0
 13 14  1  0
 13 22  1  0
 13 23  1  0
 14 15  1  0
 14 18  1  0
 14 24  1  0
 15 16  1  0
 15 25  1  0
 15 26  1  0
 16 17  1  0
 16 27  1  0
 16 28  1  0
 17 18  1  0
 17 29  1  0
 17 30  1  0
 18 19  1  0
 18 31  1  0
 19 32  1  0
 19 33  1  0
M  RAD  1   3   2
M  END
>  <reaction>  (14) 
rxn_560

>  <mol_properties>  (14) 
{"1": {"label": "*0", "atom_type": "Cd"}, "2": {"label": "*1", "atom_type": "Cs"}, "13": {"label": "*3", "atom_type": "Cs"}, "17": {"label": "*4", "atom_type": "Cs"}, "23": {"label": "*2", "atom_type": "H0"}}

>  <type>  (14) 
unop_10

>  <geom_source>  (14) 
Heuristics

$$$$

     RDKit          3D

 33 33  0  0  0  0  0  0  0  0999 V2000
   -3.4406    0.6396    0.9875 C   0  0  0  0  0  0  0  0  0  0  0  0
   -2.8429   -0.1926    0.1484 C   0  0  0  0  0  0  0  0  0  0  0  0
   -1.8360   -1.2466    0.5007 C   0  0  0  0  0  3  0  0  0  0  0  0
   -1.4808   -1.3524    1.9753 C   0  0  0  0  0  0  0  0  0  0  0  0
   -4.1575    1.3699    0.6344 H   0  0  0  0  0  0  0  0  0  0  0  0
   -3.2416    0.6274    2.0526 H   0  0  0  0  0  0  0  0  0  0  0  0
   -3.0881   -0.1273   -0.9088 H   0  0  0  0  0  0  0  0  0  0  0  0
   -2.2127   -2.2108    0.1420 H   0  0  0  0  0  0  0  0  0  0  0  0
   -2.3601   -1.5860    2.5788 H   0  0  0  0  0  0  0  0  0  0  0  0
   -0.7453   -2.1412    2.1367 H   0  0  0  0  0  0  0  0  0  0  0  0
   -1.0570   -0.4181    2.3487 H   0  0  0  0  0  0  0  0  0  0  0  0
    1.5224   -1.3867   -1.8123 C   0  0  0  0  0  0  0  0  0  0  0  0
    1.5224   -1.3867   -0.2858 C   0  0  0  0  0  0  0  0  0  0  0  0
    0.5591   -0.2519    0.1025 C   0  0  0  0  0  0  0  0  0  0  0  0
    1.0118    0.5867    1.3070 C   0  0  0  0  0  0  0  0  0  0  0  0
    1.8238    1.7249    0.6876 C   0  0  0  0  0  0  0  0  0  0  0  0
    1.0118    2.0845   -0.5573 C   0  0  0  0  0  0  0  0  0  0  0  0
    0.5591    0.7277   -1.1167 C   0  0  0  0  0  0  0  0  0  0  0  0
    1.5224    0.1039   -2.1411 C   0  0  0  0  0  0  0  0  0  0  0  0
    2.3673   -1.9248   -2.2447 H   0  0  0  0  0  0  0  0  0  0  0  0
    0.6066   -1.8535   -2.1873 H   0  0  0  0  0  0  0  0  0  0  0  0
    1.2381   -2.3450    0.1508 H   0  0  0  0  0  0  0  0  0  0  0  0
    2.5306   -1.1541    0.0735 H   0  0  0  0  0  0  0  0  0  0  0  0
   -0.6360   -0.7482    0.3012 H   0  0  0  0  0  0  0  0  0  0  0  0
    0.1440    1.0035    1.8254 H   0  0  0  0  0  0  0  0  0  0  0  0
    1.5749   -0.0001    2.0352 H   0  0  0  0  0  0  0  0  0  0  0  0
    2.8149    1.3630    0.3969 H   0  0  0  0  0  0  0  0  0  0  0  0
    1.9718    2.5672    1.3643 H   0  0  0  0  0  0  0  0  0  0  0  0
    0.1440    2.6805   -0.2620 H   0  0  0  0  0  0  0  0  0  0  0  0
    1.5749    2.6692   -1.2872 H   0  0  0  0  0  0  0  0  0  0  0  0
   -0.4368    0.8002   -1.5563 H   0  0  0  0  0  0  0  0  0  0  0  0
    1.2381    0.3238   -3.1710 H   0  0  0  0  0  0  0  0  0  0  0  0
    2.5306    0.5049   -1.9914 H   0  0  0  0  0  0  0  0  0  0  0  0
  1  2  2  3
  1  5  1  0
  1  6  1  0
  2  3  1  0
  2  7  1  0
  3  4  1  0
  3  8  1  0
  4  9  1  0
  4 10  1  0
  4 11  1  0
 12 13  1  0
 12 19  1  0
 12 20  1  0
 12 21  1  0
 13 14  1  0
 13 22  1  0
 13 23  1  0
 14 15  1  0
 14 18  1  0
 14 24  1  0
 15 16  1  0
 15 25  1  0
 15 26  1  0
 16 17  1  0
 16 27  1  0
 16 28  1  0
 17 18  1  0
 17 29  1  0
 17 30  1  0
 18 19  1  0
 18 31  1  0
 19 32  1  0
 19 33  1  0
M  RAD  1   3   2
M  END
>  <reaction>  (15) 
rxn_560

>  <mol_properties>  (15) 
{"1": {"label": "*0", "atom_type": "Cd"}, "2": {"label": "*1", "atom_type": "Cs"}, "13": {"label": "*3", "atom_type": "Cs"}, "17": {"label": "*4", "atom_type": "Cs"}, "23": {"label": "*2", "atom_type": "H0"}}

>  <type>  (15) 
unop_11

>  <geom_source>  (15) 
Heuristics

$$$$

     RDKit          3D

 33 33  0  0  0  0  0  0  0  0999 V2000
   -2.5420   -2.9557   -0.2549 C   0  0  0  0  0  0  0  0  0  0  0  0
   -1.8103   -2.2600    0.6021 C   0  0  0  0  0  0  0  0  0  0  0  0
   -1.8752   -0.7803    0.8370 C   0  0  0  0  0  3  0  0  0  0  0  0
   -2.8903   -0.0231   -0.0046 C   0  0  0  0  0  0  0  0  0  0  0  0
   -2.4206   -4.0271   -0.3521 H   0  0  0  0  0  0  0  0  0  0  0  0
   -3.2862   -2.4899   -0.8899 H   0  0  0  0  0  0  0  0  0  0  0  0
   -1.0808   -2.7895    1.2099 H   0  0  0  0  0  0  0  0  0  0  0  0
   -2.0795   -0.6129    1.9002 H   0  0  0  0  0  0  0  0  0  0  0  0
   -3.9043   -0.3847    0.1773 H   0  0  0  0  0  0  0  0  0  0  0  0
   -2.8673    1.0410    0.2326 H   0  0  0  0  0  0  0  0  0  0  0  0
   -2.6819   -0.1330   -1.0706 H   0  0  0  0  0  0  0  0  0  0  0  0
    1.4832   -0.9203   -1.4760 C   0  0  0  0  0  0  0  0  0  0  0  0
    1.4832   -0.9203    0.0504 C   0  0  0  0  0  0  0  0  0  0  0  0
    0.5199    0.2145    0.4388 C   0  0  0  0  0  0  0  0  0  0  0  0
    0.9726    1.0531    1.6432 C   0  0  0  0  0  0  0  0  0  0  0  0
    1.7846    2.1912    1.0239 C   0  0  0  0  0  0  0  0  0  0  0  0
    0.9726    2.5509   -0.2210 C   0  0  0  0  0  0  0  0  0  0  0  0
    0.5199    1.1940   -0.7804 C   0  0  0  0  0  0  0  0  0  0  0  0
    1.4832    0.5703   -1.8049 C   0  0  0  0  0  0  0  0  0  0  0  0
    2.3281   -1.4584   -1.9084 H   0  0  0  0  0  0  0  0  0  0  0  0
    0.5674   -1.3871   -1.8511 H   0  0  0  0  0  0  0  0  0  0  0  0
    1.1989   -1.8786    0.4870 H   0  0  0  0  0  0  0  0  0  0  0  0
    2.4914   -0.6877    0.4097 H   0  0  0  0  0  0  0  0  0  0  0  0
   -0.6752   -0.2818    0.6375 H   0  0  0  0  0  0  0  0  0  0  0  0
    0.1048    1.4699    2.1617 H   0  0  0  0  0  0  0  0  0  0  0  0
    1.5357    0.4663    2.3715 H   0  0  0  0  0  0  0  0  0  0  0  0
    2.7757    1.8294    0.7331 H   0  0  0  0  0  0  0  0  0  0  0  0
    1.9325    3.0336    1.7006 H   0  0  0  0  0  0  0  0  0  0  0  0
    0.1048    3.1469    0.0743 H   0  0  0  0  0  0  0  0  0  0  0  0
    1.5357    3.1356   -0.9509 H   0  0  0  0  0  0  0  0  0  0  0  0
   -0.4760    1.2666   -1.2200 H   0  0  0  0  0  0  0  0  0  0  0  0
    1.1989    0.7902   -2.8348 H   0  0  0  0  0  0  0  0  0  0  0  0
    2.4914    0.9713   -1.6552 H   0  0  0  0  0  0  0  0  0  0  0  0
  1  2  2  3
  1  5  1  0
  1  6  1  0
  2  3  1  0
  2  7  1  0
  3  4  1  0
  3  8  1  0
  4  9  1  0
  4 10  1  0
  4 11  1  0
 12 13  1  0
 12 19  1  0
 12 20  1  0
 12 21  1  0
 13 14  1  0
 13 22  1  0
 13 23  1  0
 14 15  1  0
 14 18  1  0
 14 24  1  0
 15 16  1  0
 15 25  1  0
 15 26  1  0
 16 17  1  0
 16 27  1  0
 16 28  1  0
 17 18  1  0
 17 29  1  0
 17 30  1  0
 18 19  1  0
 18 31  1  0
 19 32  1  0
 19 33  1  0
M  RAD  1   3   2
M  END
>  <reaction>  (16) 
rxn_560

>  <mol_properties>  (16) 
{"1": {"label": "*0", "atom_type": "Cd"}, "2": {"label": "*1", "atom_type": "Cs"}, "13": {"label": "*3", "atom_type": "Cs"}, "17": {"label": "*4", "atom_type": "Cs"}, "23": {"label": "*2", "atom_type": "H0"}}

>  <type>  (16) 
unop_12

>  <geom_source>  (16) 
Heuristics

$$$$

     RDKit          3D

 33 33  0  0  0  0  0  0  0  0999 V2000
   -1.7521    0.1209    0.0752 C   0  0  0  0  0  0  0  0  0  0  0  0
   -1.6239    1.6262    0.1508 C   0  0  0  0  0  0  0  0  0  0  0  0
   -1.4446   -0.7947    1.2392 C   0  0  0  0  0  0  0  0  0  0  0  0
   -1.2780    2.0153   -1.3082 C   0  0  0  0  0  0  0  0  0  0  0  0
   -0.9736   -2.0940    0.5392 C   0  0  0  0  0  0  0  0  0  0  0  0
   -0.8468    0.7177   -2.0269 C   0  0  0  0  0  0  0  0  0  0  0  0
   -0.6659   -1.7248   -0.9288 C   0  0  0  0  0  0  0  0  0  0  0  0
    1.3169    0.3463    0.7493 C   0  0  0  0  0  3  0  0  0  0  0  0
    1.5032   -0.9712    1.4944 C   0  0  0  0  0  0  0  0  0  0  0  0
   -0.6655   -0.2219   -0.8664 C   0  0  0  0  0  0  0  0  0  0  0  0
    2.4268    0.5822   -0.2359 C   0  0  0  0  0  0  0  0  0  0  0  0
    3.6684    0.8790    0.1590 C   0  0  0  0  0  0  0  0  0  0  0  0
   -2.7497   -0.1457   -0.3536 H   0  0  0  0  0  0  0  0  0  0  0  0
   -0.7972    1.9181    0.8364 H   0  0  0  0  0  0  0  0  0  0  0  0
   -2.5747    2.0945    0.4849 H   0  0  0  0  0  0  0  0  0  0  0  0
   -0.4532    2.7608   -1.3189 H   0  0  0  0  0  0  0  0  0  0  0  0
   -2.1664    2.4518   -1.8143 H   0  0  0  0  0  0  0  0  0  0  0  0
   -0.6274   -0.3744    1.8670 H   0  0  0  0  0  0  0  0  0  0  0  0
   -2.3477   -0.9699    1.8627 H   0  0  0  0  0  0  0  0  0  0  0  0
   -1.7726   -2.8662    0.5766 H   0  0  0  0  0  0  0  0  0  0  0  0
   -0.0643   -2.4900    1.0418 H   0  0  0  0  0  0  0  0  0  0  0  0
    1.2669    1.1879    1.4739 H   0  0  0  0  0  0  0  0  0  0  0  0
    0.1152    0.2958    0.0620 H   0  0  0  0  0  0  0  0  0  0  0  0
    0.1066    0.8497   -2.5805 H   0  0  0  0  0  0  0  0  0  0  0  0
   -1.6491    0.3537   -2.7062 H   0  0  0  0  0  0  0  0  0  0  0  0
   -1.4681   -2.0902   -1.6074 H   0  0  0  0  0  0  0  0  0  0  0  0
    0.3256   -2.1066   -1.2513 H   0  0  0  0  0  0  0  0  0  0  0  0
    2.4346   -0.9504    2.0990 H   0  0  0  0  0  0  0  0  0  0  0  0
    1.5495   -1.8151    0.7737 H   0  0  0  0  0  0  0  0  0  0  0  0
    0.6418   -1.1330    2.1755 H   0  0  0  0  0  0  0  0  0  0  0  0
    2.2026    0.5411   -1.2972 H   0  0  0  0  0  0  0  0  0  0  0  0
    4.4441    1.0585   -0.5783 H   0  0  0  0  0  0  0  0  0  0  0  0
    3.9184    0.9485    1.2133 H   0  0  0  0  0  0  0  0  0  0  0  0
  1  2  1  0
  1  3  1  0
  1 10  1  0
  1 13  1  0
  2  4  1  0
  2 14  1  0
  2 15  1  0
  3  5  1  0
  3 18  1  0
  3 19  1  0
  4  6  1  0
  4 16  1  0
  4 17  1  0
  5  7  1  0
  5 20  1  0
  5 21  1  0
  6 10  1  0
  6 24  1  0
  6 25  1  0
  7 10  1  0
  7 26  1  0
  7 27  1  0
  8  9  1  0
  8 11  1  0
  8 22  1  0
  9 28  1  0
  9 29  1  0
  9 30  1  0
 10 23  1  0
 11 12  2  3
 11 31  1  0
 12 32  1  0
 12 33  1  0
M  RAD  1   8   2
M  END
>  <reaction>  (17) 
rxn_560

>  <mol_properties>  (17) 
{"1": {"label": "*0", "atom_type": "Cd"}, "2": {"label": "*1", "atom_type": "Cs"}, "13": {"label": "*3", "atom_type": "Cs"}, "17": {"label": "*4", "atom_type": "Cs"}, "23": {"label": "*2", "atom_type": "H0"}}

>  <type>  (17) 
unop_13

>  <geom_source>  (17) 
AutoTST

$$$$
