
     RDKit          3D

  9  8  0  0  0  0  0  0  0  0999 V2000
   -0.8818   -0.3578    0.1297 C   0  0  0  0  0  0  0  0  0  0  0  0
    0.6153   -0.3021   -0.1188 C   0  0  0  0  0  0  0  0  0  0  0  0
    1.5354   -1.7170    0.5545 S   0  0  0  0  0  0  0  0  0  0  0  0
   -1.1018   -0.3317    1.1984 H   0  0  0  0  0  0  0  0  0  0  0  0
   -1.3114   -1.2723   -0.2799 H   0  0  0  0  0  0  0  0  0  0  0  0
   -1.3767    0.4976   -0.3363 H   0  0  0  0  0  0  0  0  0  0  0  0
    1.0467    0.6194    0.2718 H   0  0  0  0  0  0  0  0  0  0  0  0
    0.8295   -0.3275   -1.1882 H   0  0  0  0  0  0  0  0  0  0  0  0
    1.2306   -1.5077    1.8423 H   0  0  0  0  0  0  0  0  0  0  0  0
  1  2  1  0
  1  4  1  0
  1  5  1  0
  1  6  1  0
  2  3  1  0
  2  7  1  0
  2  8  1  0
  3  9  1  0
M  END
>  <reaction>  (1) 
rxn_1874

>  <mol_properties>  (1) 
{"1": {"label": "donator", "atom_type": "Cs"}, "6": {"label": "d_hydrogen", "atom_type": "H0"}}

>  <type>  (1) 
r1h

$$$$

     RDKit          3D

  9  8  0  0  0  0  0  0  0  0999 V2000
    2.3038   -0.0269    0.1590 C   0  0  0  0  0  0  0  0  0  0  0  0
    1.1426    0.1377   -0.1648 C   0  0  0  0  0  0  0  0  0  0  0  0
   -0.1694    0.3175   -0.5203 C   0  0  0  0  0  3  0  0  0  0  0  0
   -1.3163   -0.1910    0.2856 C   0  0  0  0  0  0  0  0  0  0  0  0
    3.3199   -0.1683    0.4378 H   0  0  0  0  0  0  0  0  0  0  0  0
   -0.3786    0.8584   -1.4360 H   0  0  0  0  0  0  0  0  0  0  0  0
   -1.9694    0.6309    0.5951 H   0  0  0  0  0  0  0  0  0  0  0  0
   -1.9325   -0.8770   -0.3039 H   0  0  0  0  0  0  0  0  0  0  0  0
   -0.9753   -0.7144    1.1774 H   0  0  0  0  0  0  0  0  0  0  0  0
  1  2  3  0
  1  5  1  0
  2  3  1  0
  3  4  1  0
  3  6  1  0
  4  7  1  0
  4  8  1  0
  4  9  1  0
M  RAD  1   3   2
M  END
>  <reaction>  (2) 
rxn_1874

>  <mol_properties>  (2) 
{"2": {"label": "acceptor", "atom_type": "Cs"}}

>  <type>  (2) 
r2

$$$$

     RDKit          3D

 10  9  0  0  0  0  0  0  0  0999 V2000
    2.2738    0.0217   -0.0992 C   0  0  0  0  0  0  0  0  0  0  0  0
    1.1083    0.2960   -0.0695 C   0  0  0  0  0  0  0  0  0  0  0  0
   -0.3173    0.6046   -0.0227 C   0  0  0  0  0  0  0  0  0  0  0  0
   -1.1561   -0.5495    0.5292 C   0  0  0  0  0  0  0  0  0  0  0  0
    3.3097   -0.2166   -0.1277 H   0  0  0  0  0  0  0  0  0  0  0  0
   -0.6542    0.8617   -1.0302 H   0  0  0  0  0  0  0  0  0  0  0  0
   -0.4633    1.4978    0.5900 H   0  0  0  0  0  0  0  0  0  0  0  0
   -0.8485   -0.7997    1.5447 H   0  0  0  0  0  0  0  0  0  0  0  0
   -2.2115   -0.2752    0.5459 H   0  0  0  0  0  0  0  0  0  0  0  0
   -1.0409   -1.4407   -0.0879 H   0  0  0  0  0  0  0  0  0  0  0  0
  1  2  3  0
  1  5  1  0
  2  3  1  0
  3  4  1  0
  3  6  1  0
  3  7  1  0
  4  8  1  0
  4  9  1  0
  4 10  1  0
M  END
>  <reaction>  (3) 
rxn_1874

>  <mol_properties>  (3) 
{"2": {"label": "acceptor", "atom_type": "Cs"}, "9": {"label": "a_hydrogen", "atom_type": "H0"}}

>  <type>  (3) 
r2h

$$$$

     RDKit          3D

 18 16  0  0  0  0  0  0  0  0999 V2000
    2.3956   -1.0854   -1.3946 C   0  0  0  0  0  0  0  0  0  0  0  0
    1.6650   -1.1611   -0.4408 C   0  0  0  0  0  0  0  0  0  0  0  0
    0.7591   -1.1809    0.6614 C   0  0  0  0  0  0  0  0  0  0  0  0
    1.2492   -0.5714    1.9572 C   0  0  0  0  0  0  0  0  0  0  0  0
    3.0596   -1.0458   -2.2242 H   0  0  0  0  0  0  0  0  0  0  0  0
    0.2604   -2.1425    0.7786 H   0  0  0  0  0  0  0  0  0  0  0  0
    0.4482   -0.5609    2.6976 H   0  0  0  0  0  0  0  0  0  0  0  0
    2.0883   -1.1362    2.3705 H   0  0  0  0  0  0  0  0  0  0  0  0
    1.5788    0.4557    1.7942 H   0  0  0  0  0  0  0  0  0  0  0  0
   -1.6164   -0.1837   -1.4935 C   0  0  0  0  0  0  0  0  0  0  0  0
   -1.1350    0.5007   -0.2429 C   0  0  0  0  0  3  0  0  0  0  0  0
   -0.2694    2.0352   -0.4181 S   0  0  0  0  0  0  0  0  0  0  0  0
   -0.7772   -0.4042   -2.1570 H   0  0  0  0  0  0  0  0  0  0  0  0
   -2.3283    0.4386   -2.0420 H   0  0  0  0  0  0  0  0  0  0  0  0
   -2.1057   -1.1276   -1.2443 H   0  0  0  0  0  0  0  0  0  0  0  0
   -0.2282   -0.3795    0.2768 H   0  0  0  0  0  0  0  0  0  0  0  0
   -1.8842    0.6121    0.5391 H   0  0  0  0  0  0  0  0  0  0  0  0
    0.6355    1.5967   -1.3067 H   0  0  0  0  0  0  0  0  0  0  0  0
  1  2  3  0
  1  5  1  0
  2  3  1  0
  3  4  1  0
  3  6  1  0
  3 16  1  0
  4  7  1  0
  4  8  1  0
  4  9  1  0
 10 11  1  0
 10 13  1  0
 10 14  1  0
 10 15  1  0
 11 12  1  0
 11 17  1  0
 12 18  1  0
M  RAD  1  11   2
M  END
>  <reaction>  (4) 
rxn_1874

>  <mol_properties>  (4) 
{"1": {"label": "*0", "atom_type": "Ct"}, "2": {"label": "*1", "atom_type": "Cs"}, "10": {"label": "*3", "atom_type": "Cs"}, "11": {"label": "*4", "atom_type": "S2s"}, "15": {"label": "*2", "atom_type": "H0"}}

>  <type>  (4) 
ts

$$$$

     RDKit          3D

 18 16  0  0  0  0  0  0  0  0999 V2000
    2.4626    0.2197    1.6416 C   0  0  0  0  0  0  0  0  0  0  0  0
    1.8022   -0.5068    0.9557 C   0  0  0  0  0  0  0  0  0  0  0  0
    0.9803   -1.3967    0.1417 C   0  0  0  0  0  3  0  0  0  0  0  0
   -0.2087   -1.9748    0.9111 C   0  0  0  0  0  0  0  0  0  0  0  0
    3.0488    0.8647    2.2506 H   0  0  0  0  0  0  0  0  0  0  0  0
    1.6088   -2.2067   -0.2369 H   0  0  0  0  0  0  0  0  0  0  0  0
   -0.7930   -2.6317    0.2657 H   0  0  0  0  0  0  0  0  0  0  0  0
    0.1311   -2.5504    1.7723 H   0  0  0  0  0  0  0  0  0  0  0  0
   -0.8594   -1.1783    1.2725 H   0  0  0  0  0  0  0  0  0  0  0  0
   -1.0464   -0.0361   -2.3266 C   0  0  0  0  0  0  0  0  0  0  0  0
   -1.0464   -0.0361   -0.8080 C   0  0  0  0  0  0  0  0  0  0  0  0
   -1.0464    1.6213   -0.0630 S   0  0  0  0  0  0  0  0  0  0  0  0
   -0.1397    0.4294   -2.7174 H   0  0  0  0  0  0  0  0  0  0  0  0
   -1.9023    0.5152   -2.7167 H   0  0  0  0  0  0  0  0  0  0  0  0
   -1.0894   -1.0594   -2.7069 H   0  0  0  0  0  0  0  0  0  0  0  0
   -0.0345   -0.7154   -0.3338 H   0  0  0  0  0  0  0  0  0  0  0  0
   -1.9540   -0.5031   -0.4228 H   0  0  0  0  0  0  0  0  0  0  0  0
    0.1284    2.0230   -0.5665 H   0  0  0  0  0  0  0  0  0  0  0  0
  1  2  3  0
  1  5  1  0
  2  3  1  0
  3  4  1  0
  3  6  1  0
  4  7  1  0
  4  8  1  0
  4  9  1  0
 10 11  1  0
 10 13  1  0
 10 14  1  0
 10 15  1  0
 11 12  1  0
 11 16  1  0
 11 17  1  0
 12 18  1  0
M  RAD  1   3   2
M  END
>  <reaction>  (5) 
rxn_1874

>  <mol_properties>  (5) 
{"1": {"label": "*0", "atom_type": "Ct"}, "2": {"label": "*1", "atom_type": "Cs"}, "10": {"label": "*3", "atom_type": "Cs"}, "11": {"label": "*4", "atom_type": "S2s"}, "15": {"label": "*2", "atom_type": "H0"}}

>  <type>  (5) 
unop_1

>  <geom_source>  (5) 
Heuristics

$$$$

     RDKit          3D

 18 16  0  0  0  0  0  0  0  0999 V2000
    2.7315   -1.1688   -1.0773 C   0  0  0  0  0  0  0  0  0  0  0  0
    1.8116   -1.2565   -0.3154 C   0  0  0  0  0  0  0  0  0  0  0  0
    0.7034   -1.3448    0.6301 C   0  0  0  0  0  3  0  0  0  0  0  0
    0.8988   -0.4532    1.8578 C   0  0  0  0  0  0  0  0  0  0  0  0
    3.5482   -1.0910   -1.7537 H   0  0  0  0  0  0  0  0  0  0  0  0
    0.5888   -2.3865    0.9405 H   0  0  0  0  0  0  0  0  0  0  0  0
    0.0493   -0.5510    2.5347 H   0  0  0  0  0  0  0  0  0  0  0  0
    1.8040   -0.7317    2.3976 H   0  0  0  0  0  0  0  0  0  0  0  0
    0.9882    0.5931    1.5652 H   0  0  0  0  0  0  0  0  0  0  0  0
   -1.3233    0.0158   -1.8381 C   0  0  0  0  0  0  0  0  0  0  0  0
   -1.3233    0.0158   -0.3195 C   0  0  0  0  0  0  0  0  0  0  0  0
   -1.3233    1.6731    0.4255 S   0  0  0  0  0  0  0  0  0  0  0  0
   -0.4167    0.4812   -2.2289 H   0  0  0  0  0  0  0  0  0  0  0  0
   -2.1793    0.5670   -2.2282 H   0  0  0  0  0  0  0  0  0  0  0  0
   -1.3664   -1.0076   -2.2184 H   0  0  0  0  0  0  0  0  0  0  0  0
   -0.3114   -0.6636    0.1547 H   0  0  0  0  0  0  0  0  0  0  0  0
   -2.2309   -0.4513    0.0657 H   0  0  0  0  0  0  0  0  0  0  0  0
   -0.1485    2.0748   -0.0780 H   0  0  0  0  0  0  0  0  0  0  0  0
  1  2  3  0
  1  5  1  0
  2  3  1  0
  3  4  1  0
  3  6  1  0
  4  7  1  0
  4  8  1  0
  4  9  1  0
 10 11  1  0
 10 13  1  0
 10 14  1  0
 10 15  1  0
 11 12  1  0
 11 16  1  0
 11 17  1  0
 12 18  1  0
M  RAD  1   3   2
M  END
>  <reaction>  (6) 
rxn_1874

>  <mol_properties>  (6) 
{"1": {"label": "*0", "atom_type": "Ct"}, "2": {"label": "*1", "atom_type": "Cs"}, "10": {"label": "*3", "atom_type": "Cs"}, "11": {"label": "*4", "atom_type": "S2s"}, "15": {"label": "*2", "atom_type": "H0"}}

>  <type>  (6) 
unop_2

>  <geom_source>  (6) 
Heuristics

$$$$

     RDKit          3D

 18 16  0  0  0  0  0  0  0  0999 V2000
    1.7766   -0.1904    2.4317 C   0  0  0  0  0  0  0  0  0  0  0  0
    1.4717   -0.6442    1.3661 C   0  0  0  0  0  0  0  0  0  0  0  0
    1.0840   -1.2162    0.0806 C   0  0  0  0  0  3  0  0  0  0  0  0
    0.1227   -2.3976    0.2231 C   0  0  0  0  0  0  0  0  0  0  0  0
    2.0473    0.2125    3.3778 H   0  0  0  0  0  0  0  0  0  0  0  0
    1.9861   -1.5316   -0.4497 H   0  0  0  0  0  0  0  0  0  0  0  0
   -0.1392   -2.7922   -0.7594 H   0  0  0  0  0  0  0  0  0  0  0  0
    0.5779   -3.1982    0.8063 H   0  0  0  0  0  0  0  0  0  0  0  0
   -0.7939   -2.0914    0.7275 H   0  0  0  0  0  0  0  0  0  0  0  0
   -0.9427    0.1444   -2.3876 C   0  0  0  0  0  0  0  0  0  0  0  0
   -0.9427    0.1444   -0.8690 C   0  0  0  0  0  0  0  0  0  0  0  0
   -0.9427    1.8017   -0.1240 S   0  0  0  0  0  0  0  0  0  0  0  0
   -0.0360    0.6098   -2.7784 H   0  0  0  0  0  0  0  0  0  0  0  0
   -1.7986    0.6956   -2.7777 H   0  0  0  0  0  0  0  0  0  0  0  0
   -0.9857   -0.8790   -2.7679 H   0  0  0  0  0  0  0  0  0  0  0  0
    0.0692   -0.5350   -0.3948 H   0  0  0  0  0  0  0  0  0  0  0  0
   -1.8503   -0.3227   -0.4838 H   0  0  0  0  0  0  0  0  0  0  0  0
    0.2321    2.2034   -0.6275 H   0  0  0  0  0  0  0  0  0  0  0  0
  1  2  3  0
  1  5  1  0
  2  3  1  0
  3  4  1  0
  3  6  1  0
  4  7  1  0
  4  8  1  0
  4  9  1  0
 10 11  1  0
 10 13  1  0
 10 14  1  0
 10 15  1  0
 11 12  1  0
 11 16  1  0
 11 17  1  0
 12 18  1  0
M  RAD  1   3   2
M  END
>  <reaction>  (7) 
rxn_1874

>  <mol_properties>  (7) 
{"1": {"label": "*0", "atom_type": "Ct"}, "2": {"label": "*1", "atom_type": "Cs"}, "10": {"label": "*3", "atom_type": "Cs"}, "11": {"label": "*4", "atom_type": "S2s"}, "15": {"label": "*2", "atom_type": "H0"}}

>  <type>  (7) 
unop_3

>  <geom_source>  (7) 
Heuristics

$$$$

     RDKit          3D

 18 16  0  0  0  0  0  0  0  0999 V2000
    0.7648   -3.3333   -0.2587 C   0  0  0  0  0  0  0  0  0  0  0  0
    0.8209   -2.2012    0.1282 C   0  0  0  0  0  0  0  0  0  0  0  0
    0.9173   -0.8242    0.6022 C   0  0  0  0  0  3  0  0  0  0  0  0
    2.3541   -0.4053    0.9190 C   0  0  0  0  0  0  0  0  0  0  0  0
    0.7150   -4.3383   -0.6022 H   0  0  0  0  0  0  0  0  0  0  0  0
    0.2923   -0.7147    1.4921 H   0  0  0  0  0  0  0  0  0  0  0  0
    2.3781    0.6274    1.2686 H   0  0  0  0  0  0  0  0  0  0  0  0
    2.7803   -1.0421    1.6944 H   0  0  0  0  0  0  0  0  0  0  0  0
    2.9840   -0.4844    0.0328 H   0  0  0  0  0  0  0  0  0  0  0  0
   -1.1094    0.5364   -1.8661 C   0  0  0  0  0  0  0  0  0  0  0  0
   -1.1094    0.5364   -0.3474 C   0  0  0  0  0  0  0  0  0  0  0  0
   -1.1094    2.1937    0.3976 S   0  0  0  0  0  0  0  0  0  0  0  0
   -0.2028    1.0018   -2.2568 H   0  0  0  0  0  0  0  0  0  0  0  0
   -1.9654    1.0876   -2.2562 H   0  0  0  0  0  0  0  0  0  0  0  0
   -1.1525   -0.4870   -2.2464 H   0  0  0  0  0  0  0  0  0  0  0  0
   -0.0975   -0.1430    0.1267 H   0  0  0  0  0  0  0  0  0  0  0  0
   -2.0170    0.0693    0.0377 H   0  0  0  0  0  0  0  0  0  0  0  0
    0.0654    2.5954   -0.1060 H   0  0  0  0  0  0  0  0  0  0  0  0
  1  2  3  0
  1  5  1  0
  2  3  1  0
  3  4  1  0
  3  6  1  0
  4  7  1  0
  4  8  1  0
  4  9  1  0
 10 11  1  0
 10 13  1  0
 10 14  1  0
 10 15  1  0
 11 12  1  0
 11 16  1  0
 11 17  1  0
 12 18  1  0
M  RAD  1   3   2
M  END
>  <reaction>  (8) 
rxn_1874

>  <mol_properties>  (8) 
{"1": {"label": "*0", "atom_type": "Ct"}, "2": {"label": "*1", "atom_type": "Cs"}, "10": {"label": "*3", "atom_type": "Cs"}, "11": {"label": "*4", "atom_type": "S2s"}, "15": {"label": "*2", "atom_type": "H0"}}

>  <type>  (8) 
unop_4

>  <geom_source>  (8) 
Heuristics

$$$$

     RDKit          3D

 18 16  0  0  0  0  0  0  0  0999 V2000
    0.9953   -0.9777    2.7767 C   0  0  0  0  0  0  0  0  0  0  0  0
    1.0396   -0.9839    1.5798 C   0  0  0  0  0  0  0  0  0  0  0  0
    1.0929   -1.0197    0.1218 C   0  0  0  0  0  3  0  0  0  0  0  0
    1.0734   -2.4434   -0.4376 C   0  0  0  0  0  0  0  0  0  0  0  0
    0.9559   -0.9723    3.8392 H   0  0  0  0  0  0  0  0  0  0  0  0
    1.9963   -0.5014   -0.2094 H   0  0  0  0  0  0  0  0  0  0  0  0
    1.1145   -2.4217   -1.5272 H   0  0  0  0  0  0  0  0  0  0  0  0
    1.9268   -3.0142   -0.0713 H   0  0  0  0  0  0  0  0  0  0  0  0
    0.1643   -2.9644   -0.1369 H   0  0  0  0  0  0  0  0  0  0  0  0
   -0.9338    0.3410   -2.3465 C   0  0  0  0  0  0  0  0  0  0  0  0
   -0.9338    0.3410   -0.8278 C   0  0  0  0  0  0  0  0  0  0  0  0
   -0.9338    1.9983   -0.0828 S   0  0  0  0  0  0  0  0  0  0  0  0
   -0.0272    0.8064   -2.7372 H   0  0  0  0  0  0  0  0  0  0  0  0
   -1.7898    0.8922   -2.7366 H   0  0  0  0  0  0  0  0  0  0  0  0
   -0.9769   -0.6824   -2.7268 H   0  0  0  0  0  0  0  0  0  0  0  0
    0.0781   -0.3384   -0.3537 H   0  0  0  0  0  0  0  0  0  0  0  0
   -1.8415   -0.1261   -0.4427 H   0  0  0  0  0  0  0  0  0  0  0  0
    0.2410    2.4000   -0.5864 H   0  0  0  0  0  0  0  0  0  0  0  0
  1  2  3  0
  1  5  1  0
  2  3  1  0
  3  4  1  0
  3  6  1  0
  4  7  1  0
  4  8  1  0
  4  9  1  0
 10 11  1  0
 10 13  1  0
 10 14  1  0
 10 15  1  0
 11 12  1  0
 11 16  1  0
 11 17  1  0
 12 18  1  0
M  RAD  1   3   2
M  END
>  <reaction>  (9) 
rxn_1874

>  <mol_properties>  (9) 
{"1": {"label": "*0", "atom_type": "Ct"}, "2": {"label": "*1", "atom_type": "Cs"}, "10": {"label": "*3", "atom_type": "Cs"}, "11": {"label": "*4", "atom_type": "S2s"}, "15": {"label": "*2", "atom_type": "H0"}}

>  <type>  (9) 
unop_5

>  <geom_source>  (9) 
Heuristics

$$$$

     RDKit          3D

 18 16  0  0  0  0  0  0  0  0999 V2000
    0.2830   -3.3285    0.7578 C   0  0  0  0  0  0  0  0  0  0  0  0
    0.5952   -2.1807    0.6178 C   0  0  0  0  0  0  0  0  0  0  0  0
    1.0027   -0.7897    0.4478 C   0  0  0  0  0  3  0  0  0  0  0  0
    2.5223   -0.6174    0.4104 C   0  0  0  0  0  0  0  0  0  0  0  0
    0.0059   -4.3475    0.8821 H   0  0  0  0  0  0  0  0  0  0  0  0
    0.5805   -0.1979    1.2639 H   0  0  0  0  0  0  0  0  0  0  0  0
    2.7802    0.4346    0.2824 H   0  0  0  0  0  0  0  0  0  0  0  0
    2.9746   -0.9733    1.3361 H   0  0  0  0  0  0  0  0  0  0  0  0
    2.9550   -1.1817   -0.4159 H   0  0  0  0  0  0  0  0  0  0  0  0
   -1.0240    0.5709   -2.0205 C   0  0  0  0  0  0  0  0  0  0  0  0
   -1.0240    0.5709   -0.5018 C   0  0  0  0  0  0  0  0  0  0  0  0
   -1.0240    2.2283    0.2432 S   0  0  0  0  0  0  0  0  0  0  0  0
   -0.1173    1.0363   -2.4112 H   0  0  0  0  0  0  0  0  0  0  0  0
   -1.8799    1.1221   -2.4106 H   0  0  0  0  0  0  0  0  0  0  0  0
   -1.0670   -0.4524   -2.4008 H   0  0  0  0  0  0  0  0  0  0  0  0
   -0.0120   -0.1084   -0.0277 H   0  0  0  0  0  0  0  0  0  0  0  0
   -1.9316    0.1039   -0.1167 H   0  0  0  0  0  0  0  0  0  0  0  0
    0.1508    2.6300   -0.2604 H   0  0  0  0  0  0  0  0  0  0  0  0
  1  2  3  0
  1  5  1  0
  2  3  1  0
  3  4  1  0
  3  6  1  0
  4  7  1  0
  4  8  1  0
  4  9  1  0
 10 11  1  0
 10 13  1  0
 10 14  1  0
 10 15  1  0
 11 12  1  0
 11 16  1  0
 11 17  1  0
 12 18  1  0
M  RAD  1   3   2
M  END
>  <reaction>  (10) 
rxn_1874

>  <mol_properties>  (10) 
{"1": {"label": "*0", "atom_type": "Ct"}, "2": {"label": "*1", "atom_type": "Cs"}, "10": {"label": "*3", "atom_type": "Cs"}, "11": {"label": "*4", "atom_type": "S2s"}, "15": {"label": "*2", "atom_type": "H0"}}

>  <type>  (10) 
unop_6

>  <geom_source>  (10) 
Heuristics

$$$$

     RDKit          3D

 18 16  0  0  0  0  0  0  0  0999 V2000
    0.1306   -2.8407    1.7823 C   0  0  0  0  0  0  0  0  0  0  0  0
    0.5307   -1.9292    1.1163 C   0  0  0  0  0  0  0  0  0  0  0  0
    1.0430   -0.8315    0.3023 C   0  0  0  0  0  3  0  0  0  0  0  0
    2.4905   -1.0486   -0.1425 C   0  0  0  0  0  0  0  0  0  0  0  0
   -0.2246   -3.6499    2.3736 H   0  0  0  0  0  0  0  0  0  0  0  0
    0.9640    0.0964    0.8743 H   0  0  0  0  0  0  0  0  0  0  0  0
    2.8305   -0.2064   -0.7462 H   0  0  0  0  0  0  0  0  0  0  0  0
    3.1499   -1.1430    0.7205 H   0  0  0  0  0  0  0  0  0  0  0  0
    2.5799   -1.9579   -0.7371 H   0  0  0  0  0  0  0  0  0  0  0  0
   -0.9837    0.5291   -2.1660 C   0  0  0  0  0  0  0  0  0  0  0  0
   -0.9837    0.5291   -0.6473 C   0  0  0  0  0  0  0  0  0  0  0  0
   -0.9837    2.1864    0.0976 S   0  0  0  0  0  0  0  0  0  0  0  0
   -0.0770    0.9945   -2.5568 H   0  0  0  0  0  0  0  0  0  0  0  0
   -1.8396    1.0803   -2.5561 H   0  0  0  0  0  0  0  0  0  0  0  0
   -1.0268   -0.4943   -2.5463 H   0  0  0  0  0  0  0  0  0  0  0  0
    0.0282   -0.1503   -0.1732 H   0  0  0  0  0  0  0  0  0  0  0  0
   -1.8913    0.0620   -0.2622 H   0  0  0  0  0  0  0  0  0  0  0  0
    0.1911    2.5881   -0.4059 H   0  0  0  0  0  0  0  0  0  0  0  0
  1  2  3  0
  1  5  1  0
  2  3  1  0
  3  4  1  0
  3  6  1  0
  4  7  1  0
  4  8  1  0
  4  9  1  0
 10 11  1  0
 10 13  1  0
 10 14  1  0
 10 15  1  0
 11 12  1  0
 11 16  1  0
 11 17  1  0
 12 18  1  0
M  RAD  1   3   2
M  END
>  <reaction>  (11) 
rxn_1874

>  <mol_properties>  (11) 
{"1": {"label": "*0", "atom_type": "Ct"}, "2": {"label": "*1", "atom_type": "Cs"}, "10": {"label": "*3", "atom_type": "Cs"}, "11": {"label": "*4", "atom_type": "S2s"}, "15": {"label": "*2", "atom_type": "H0"}}

>  <type>  (11) 
unop_7

>  <geom_source>  (11) 
Heuristics

$$$$

     RDKit          3D

 18 16  0  0  0  0  0  0  0  0999 V2000
    2.9080    0.1671    0.6166 C   0  0  0  0  0  0  0  0  0  0  0  0
    1.9867   -0.5813    0.4566 C   0  0  0  0  0  0  0  0  0  0  0  0
    0.8536   -1.4852    0.2867 C   0  0  0  0  0  3  0  0  0  0  0  0
   -0.1184   -1.4463    1.4674 C   0  0  0  0  0  0  0  0  0  0  0  0
    3.7260    0.8314    0.7587 H   0  0  0  0  0  0  0  0  0  0  0  0
    1.2324   -2.5011    0.1491 H   0  0  0  0  0  0  0  0  0  0  0  0
   -0.9468   -2.1350    1.2976 H   0  0  0  0  0  0  0  0  0  0  0  0
    0.3844   -1.7323    2.3914 H   0  0  0  0  0  0  0  0  0  0  0  0
   -0.5250   -0.4436    1.6003 H   0  0  0  0  0  0  0  0  0  0  0  0
   -1.1731   -0.1246   -2.1816 C   0  0  0  0  0  0  0  0  0  0  0  0
   -1.1731   -0.1246   -0.6630 C   0  0  0  0  0  0  0  0  0  0  0  0
   -1.1731    1.5328    0.0820 S   0  0  0  0  0  0  0  0  0  0  0  0
   -0.2665    0.3408   -2.5724 H   0  0  0  0  0  0  0  0  0  0  0  0
   -2.0291    0.4266   -2.5717 H   0  0  0  0  0  0  0  0  0  0  0  0
   -1.2162   -1.1479   -2.5619 H   0  0  0  0  0  0  0  0  0  0  0  0
   -0.1612   -0.8039   -0.1888 H   0  0  0  0  0  0  0  0  0  0  0  0
   -2.0807   -0.5916   -0.2778 H   0  0  0  0  0  0  0  0  0  0  0  0
    0.0017    1.9345   -0.4215 H   0  0  0  0  0  0  0  0  0  0  0  0
  1  2  3  0
  1  5  1  0
  2  3  1  0
  3  4  1  0
  3  6  1  0
  4  7  1  0
  4  8  1  0
  4  9  1  0
 10 11  1  0
 10 13  1  0
 10 14  1  0
 10 15  1  0
 11 12  1  0
 11 16  1  0
 11 17  1  0
 12 18  1  0
M  RAD  1   3   2
M  END
>  <reaction>  (12) 
rxn_1874

>  <mol_properties>  (12) 
{"1": {"label": "*0", "atom_type": "Ct"}, "2": {"label": "*1", "atom_type": "Cs"}, "10": {"label": "*3", "atom_type": "Cs"}, "11": {"label": "*4", "atom_type": "S2s"}, "15": {"label": "*2", "atom_type": "H0"}}

>  <type>  (12) 
unop_8

>  <geom_source>  (12) 
Heuristics

$$$$

     RDKit          3D

 18 16  0  0  0  0  0  0  0  0999 V2000
    1.4454   -2.8780   -1.0070 C   0  0  0  0  0  0  0  0  0  0  0  0
    1.1456   -2.0127   -0.2351 C   0  0  0  0  0  0  0  0  0  0  0  0
    0.8078   -0.9535    0.7104 C   0  0  0  0  0  3  0  0  0  0  0  0
    2.0421   -0.2968    1.3312 C   0  0  0  0  0  0  0  0  0  0  0  0
    1.7115   -3.6462   -1.6923 H   0  0  0  0  0  0  0  0  0  0  0  0
    0.1740   -1.3730    1.4958 H   0  0  0  0  0  0  0  0  0  0  0  0
    1.7428    0.4861    2.0289 H   0  0  0  0  0  0  0  0  0  0  0  0
    2.6397   -1.0309    1.8719 H   0  0  0  0  0  0  0  0  0  0  0  0
    2.6711    0.1495    0.5607 H   0  0  0  0  0  0  0  0  0  0  0  0
   -1.2189    0.4071   -1.7579 C   0  0  0  0  0  0  0  0  0  0  0  0
   -1.2189    0.4071   -0.2392 C   0  0  0  0  0  0  0  0  0  0  0  0
   -1.2189    2.0644    0.5058 S   0  0  0  0  0  0  0  0  0  0  0  0
   -0.3123    0.8725   -2.1486 H   0  0  0  0  0  0  0  0  0  0  0  0
   -2.0749    0.9583   -2.1480 H   0  0  0  0  0  0  0  0  0  0  0  0
   -1.2620   -0.6163   -2.1382 H   0  0  0  0  0  0  0  0  0  0  0  0
   -0.2070   -0.2723    0.2349 H   0  0  0  0  0  0  0  0  0  0  0  0
   -2.1265   -0.0600    0.1459 H   0  0  0  0  0  0  0  0  0  0  0  0
   -0.0441    2.4661    0.0023 H   0  0  0  0  0  0  0  0  0  0  0  0
  1  2  3  0
  1  5  1  0
  2  3  1  0
  3  4  1  0
  3  6  1  0
  4  7  1  0
  4  8  1  0
  4  9  1  0
 10 11  1  0
 10 13  1  0
 10 14  1  0
 10 15  1  0
 11 12  1  0
 11 16  1  0
 11 17  1  0
 12 18  1  0
M  RAD  1   3   2
M  END
>  <reaction>  (13) 
rxn_1874

>  <mol_properties>  (13) 
{"1": {"label": "*0", "atom_type": "Ct"}, "2": {"label": "*1", "atom_type": "Cs"}, "10": {"label": "*3", "atom_type": "Cs"}, "11": {"label": "*4", "atom_type": "S2s"}, "15": {"label": "*2", "atom_type": "H0"}}

>  <type>  (13) 
unop_9

>  <geom_source>  (13) 
Heuristics

$$$$

     RDKit          3D

 18 16  0  0  0  0  0  0  0  0999 V2000
    3.0067   -0.3411   -0.3770 C   0  0  0  0  0  0  0  0  0  0  0  0
    1.9905   -0.8556   -0.0068 C   0  0  0  0  0  0  0  0  0  0  0  0
    0.7525   -1.4662    0.4672 C   0  0  0  0  0  3  0  0  0  0  0  0
    0.2819   -0.8912    1.8045 C   0  0  0  0  0  0  0  0  0  0  0  0
    3.9090    0.1156   -0.7056 H   0  0  0  0  0  0  0  0  0  0  0  0
    0.9053   -2.5445    0.5582 H   0  0  0  0  0  0  0  0  0  0  0  0
   -0.6433   -1.3752    2.1191 H   0  0  0  0  0  0  0  0  0  0  0  0
    1.0336   -1.0476    2.5783 H   0  0  0  0  0  0  0  0  0  0  0  0
    0.1000    0.1804    1.7218 H   0  0  0  0  0  0  0  0  0  0  0  0
   -1.2742   -0.1055   -2.0011 C   0  0  0  0  0  0  0  0  0  0  0  0
   -1.2742   -0.1055   -0.4824 C   0  0  0  0  0  0  0  0  0  0  0  0
   -1.2742    1.5518    0.2626 S   0  0  0  0  0  0  0  0  0  0  0  0
   -0.3675    0.3599   -2.3918 H   0  0  0  0  0  0  0  0  0  0  0  0
   -2.1301    0.4457   -2.3912 H   0  0  0  0  0  0  0  0  0  0  0  0
   -1.3172   -1.1289   -2.3813 H   0  0  0  0  0  0  0  0  0  0  0  0
   -0.2623   -0.7849   -0.0083 H   0  0  0  0  0  0  0  0  0  0  0  0
   -2.1818   -0.5726   -0.0973 H   0  0  0  0  0  0  0  0  0  0  0  0
   -0.0994    1.9535   -0.2409 H   0  0  0  0  0  0  0  0  0  0  0  0
  1  2  3  0
  1  5  1  0
  2  3  1  0
  3  4  1  0
  3  6  1  0
  4  7  1  0
  4  8  1  0
  4  9  1  0
 10 11  1  0
 10 13  1  0
 10 14  1  0
 10 15  1  0
 11 12  1  0
 11 16  1  0
 11 17  1  0
 12 18  1  0
M  RAD  1   3   2
M  END
>  <reaction>  (14) 
rxn_1874

>  <mol_properties>  (14) 
{"1": {"label": "*0", "atom_type": "Ct"}, "2": {"label": "*1", "atom_type": "Cs"}, "10": {"label": "*3", "atom_type": "Cs"}, "11": {"label": "*4", "atom_type": "S2s"}, "15": {"label": "*2", "atom_type": "H0"}}

>  <type>  (14) 
unop_10

>  <geom_source>  (14) 
Heuristics

$$$$

     RDKit          3D

 18 16  0  0  0  0  0  0  0  0999 V2000
    0.3745   -1.9745    2.5354 C   0  0  0  0  0  0  0  0  0  0  0  0
    0.6743   -1.4845    1.4844 C   0  0  0  0  0  0  0  0  0  0  0  0
    1.0569   -0.9091    0.1990 C   0  0  0  0  0  3  0  0  0  0  0  0
    2.0783   -1.7644   -0.5531 C   0  0  0  0  0  0  0  0  0  0  0  0
    0.1084   -2.4095    3.4684 H   0  0  0  0  0  0  0  0  0  0  0  0
    1.4619    0.0917    0.3689 H   0  0  0  0  0  0  0  0  0  0  0  0
    2.3343   -1.2974   -1.5049 H   0  0  0  0  0  0  0  0  0  0  0  0
    2.9912   -1.8794    0.0314 H   0  0  0  0  0  0  0  0  0  0  0  0
    1.6776   -2.7583   -0.7530 H   0  0  0  0  0  0  0  0  0  0  0  0
   -0.9698    0.4515   -2.2693 C   0  0  0  0  0  0  0  0  0  0  0  0
   -0.9698    0.4515   -0.7506 C   0  0  0  0  0  0  0  0  0  0  0  0
   -0.9698    2.1089   -0.0057 S   0  0  0  0  0  0  0  0  0  0  0  0
   -0.0631    0.9170   -2.6601 H   0  0  0  0  0  0  0  0  0  0  0  0
   -1.8257    1.0027   -2.6594 H   0  0  0  0  0  0  0  0  0  0  0  0
   -1.0128   -0.5718   -2.6496 H   0  0  0  0  0  0  0  0  0  0  0  0
    0.0421   -0.2278   -0.2765 H   0  0  0  0  0  0  0  0  0  0  0  0
   -1.8774   -0.0155   -0.3655 H   0  0  0  0  0  0  0  0  0  0  0  0
    0.2050    2.5106   -0.5092 H   0  0  0  0  0  0  0  0  0  0  0  0
  1  2  3  0
  1  5  1  0
  2  3  1  0
  3  4  1  0
  3  6  1  0
  4  7  1  0
  4  8  1  0
  4  9  1  0
 10 11  1  0
 10 13  1  0
 10 14  1  0
 10 15  1  0
 11 12  1  0
 11 16  1  0
 11 17  1  0
 12 18  1  0
M  RAD  1   3   2
M  END
>  <reaction>  (15) 
rxn_1874

>  <mol_properties>  (15) 
{"1": {"label": "*0", "atom_type": "Ct"}, "2": {"label": "*1", "atom_type": "Cs"}, "10": {"label": "*3", "atom_type": "Cs"}, "11": {"label": "*4", "atom_type": "S2s"}, "15": {"label": "*2", "atom_type": "H0"}}

>  <type>  (15) 
unop_11

>  <geom_source>  (15) 
Heuristics

$$$$

     RDKit          3D

 18 16  0  0  0  0  0  0  0  0999 V2000
    2.1593   -2.0922   -1.3044 C   0  0  0  0  0  0  0  0  0  0  0  0
    1.5015   -1.6742   -0.3950 C   0  0  0  0  0  0  0  0  0  0  0  0
    0.7227   -1.1513    0.7231 C   0  0  0  0  0  3  0  0  0  0  0  0
    1.5496   -0.2696    1.6607 C   0  0  0  0  0  0  0  0  0  0  0  0
    2.7433   -2.4633   -2.1118 H   0  0  0  0  0  0  0  0  0  0  0  0
    0.2987   -1.9914    1.2789 H   0  0  0  0  0  0  0  0  0  0  0  0
    0.9289    0.0978    2.4789 H   0  0  0  0  0  0  0  0  0  0  0  0
    2.3824   -0.8309    2.0846 H   0  0  0  0  0  0  0  0  0  0  0  0
    1.9576    0.5878    1.1253 H   0  0  0  0  0  0  0  0  0  0  0  0
   -1.3040    0.2093   -1.7452 C   0  0  0  0  0  0  0  0  0  0  0  0
   -1.3040    0.2093   -0.2265 C   0  0  0  0  0  0  0  0  0  0  0  0
   -1.3040    1.8667    0.5185 S   0  0  0  0  0  0  0  0  0  0  0  0
   -0.3973    0.6747   -2.1359 H   0  0  0  0  0  0  0  0  0  0  0  0
   -2.1599    0.7605   -2.1353 H   0  0  0  0  0  0  0  0  0  0  0  0
   -1.3470   -0.8141   -2.1255 H   0  0  0  0  0  0  0  0  0  0  0  0
   -0.2921   -0.4700    0.2476 H   0  0  0  0  0  0  0  0  0  0  0  0
   -2.2116   -0.2577    0.1586 H   0  0  0  0  0  0  0  0  0  0  0  0
   -0.1292    2.2683    0.0149 H   0  0  0  0  0  0  0  0  0  0  0  0
  1  2  3  0
  1  5  1  0
  2  3  1  0
  3  4  1  0
  3  6  1  0
  4  7  1  0
  4  8  1  0
  4  9  1  0
 10 11  1  0
 10 13  1  0
 10 14  1  0
 10 15  1  0
 11 12  1  0
 11 16  1  0
 11 17  1  0
 12 18  1  0
M  RAD  1   3   2
M  END
>  <reaction>  (16) 
rxn_1874

>  <mol_properties>  (16) 
{"1": {"label": "*0", "atom_type": "Ct"}, "2": {"label": "*1", "atom_type": "Cs"}, "10": {"label": "*3", "atom_type": "Cs"}, "11": {"label": "*4", "atom_type": "S2s"}, "15": {"label": "*2", "atom_type": "H0"}}

>  <type>  (16) 
unop_12

>  <geom_source>  (16) 
Heuristics

$$$$

     RDKit          3D

 18 16  0  0  0  0  0  0  0  0999 V2000
    2.2557   -1.1188    1.5147 S   0  0  0  0  0  0  0  0  0  0  0  0
   -0.9801    0.3188   -0.2724 C   0  0  0  0  0  0  0  0  0  0  0  0
   -1.9107    1.2899    0.4411 C   0  0  0  0  0  0  0  0  0  0  0  0
    2.1613   -0.0627   -1.0175 C   0  0  0  0  0  0  0  0  0  0  0  0
    1.5550    0.1031    0.3657 C   0  0  0  0  0  3  0  0  0  0  0  0
   -1.5855   -1.0153   -0.3474 C   0  0  0  0  0  0  0  0  0  0  0  0
   -2.0820   -2.1121   -0.4092 C   0  0  0  0  0  0  0  0  0  0  0  0
   -0.7760    0.6843   -1.3010 H   0  0  0  0  0  0  0  0  0  0  0  0
    0.1913    0.2376    0.4063 H   0  0  0  0  0  0  0  0  0  0  0  0
   -1.4322    2.2904    0.4887 H   0  0  0  0  0  0  0  0  0  0  0  0
   -2.1084    0.9419    1.4776 H   0  0  0  0  0  0  0  0  0  0  0  0
   -2.8726    1.3802   -0.1081 H   0  0  0  0  0  0  0  0  0  0  0  0
    1.7152    0.6840   -1.7069 H   0  0  0  0  0  0  0  0  0  0  0  0
    3.2602    0.0940   -0.9767 H   0  0  0  0  0  0  0  0  0  0  0  0
    1.9460   -1.0803   -1.4056 H   0  0  0  0  0  0  0  0  0  0  0  0
    1.7537    1.1273    0.7462 H   0  0  0  0  0  0  0  0  0  0  0  0
    1.4274   -0.6874    2.5677 H   0  0  0  0  0  0  0  0  0  0  0  0
   -2.5181   -3.0749   -0.4633 H   0  0  0  0  0  0  0  0  0  0  0  0
  1  5  1  0
  1 17  1  0
  2  3  1  0
  2  6  1  0
  2  8  1  0
  2  9  1  0
  3 10  1  0
  3 11  1  0
  3 12  1  0
  4  5  1  0
  4 13  1  0
  4 14  1  0
  4 15  1  0
  5 16  1  0
  6  7  3  0
  7 18  1  0
M  RAD  1   5   2
M  END
>  <reaction>  (17) 
rxn_1874

>  <mol_properties>  (17) 
{"1": {"label": "*0", "atom_type": "Ct"}, "2": {"label": "*1", "atom_type": "Cs"}, "10": {"label": "*3", "atom_type": "Cs"}, "11": {"label": "*4", "atom_type": "S2s"}, "15": {"label": "*2", "atom_type": "H0"}}

>  <type>  (17) 
unop_13

>  <geom_source>  (17) 
AutoTST

$$$$
