
     RDKit          3D

 12 11  0  0  0  0  0  0  0  0999 V2000
    1.2394   -0.3763   -0.3020 C   0  0  0  0  0  0  0  0  0  0  0  0
    0.1007    0.3023    0.4464 C   0  0  0  0  0  0  0  0  0  0  0  0
   -0.1187    2.0399   -0.0725 S   0  0  0  0  0  0  0  0  0  0  0  0
   -1.1974   -0.4877    0.3552 C   0  0  0  0  0  0  0  0  0  0  0  0
    2.1681    0.1849   -0.2048 H   0  0  0  0  0  0  0  0  0  0  0  0
    1.0031   -0.4606   -1.3656 H   0  0  0  0  0  0  0  0  0  0  0  0
    1.3994   -1.3856    0.0860 H   0  0  0  0  0  0  0  0  0  0  0  0
    0.3796    0.4050    1.4981 H   0  0  0  0  0  0  0  0  0  0  0  0
   -0.4500    1.7779   -1.3452 H   0  0  0  0  0  0  0  0  0  0  0  0
   -1.0545   -1.4978    0.7479 H   0  0  0  0  0  0  0  0  0  0  0  0
   -1.5206   -0.5759   -0.6849 H   0  0  0  0  0  0  0  0  0  0  0  0
   -1.9957   -0.0054    0.9183 H   0  0  0  0  0  0  0  0  0  0  0  0
  1  2  1  0
  1  5  1  0
  1  6  1  0
  1  7  1  0
  2  4  1  0
  2  3  1  0
  2  8  1  0
  3  9  1  0
  4 10  1  0
  4 11  1  0
  4 12  1  0
M  END
>  <reaction>  (1) 
rxn_1920

>  <mol_properties>  (1) 
{"1": {"label": "donator", "atom_type": "Cs"}, "7": {"label": "d_hydrogen", "atom_type": "H0"}}

>  <type>  (1) 
r1h

$$$$

     RDKit          3D

  8  7  0  0  0  0  0  0  0  0999 V2000
   -2.2129    0.4855    0.7390 C   0  0  0  0  0  0  0  0  0  0  0  0
   -1.2226    0.0526    0.1974 C   0  0  0  0  0  0  0  0  0  0  0  0
   -0.1006   -0.4575   -0.4419 C   0  0  0  0  0  3  0  0  0  0  0  0
    1.1960   -0.1737   -0.0342 C   0  0  0  0  0  0  0  0  0  0  0  0
    2.3329    0.0603    0.3036 C   0  0  0  0  0  0  0  0  0  0  0  0
   -3.0803    0.8696    1.2198 H   0  0  0  0  0  0  0  0  0  0  0  0
   -0.2433   -1.1067   -1.2980 H   0  0  0  0  0  0  0  0  0  0  0  0
    3.3308    0.2700    0.6058 H   0  0  0  0  0  0  0  0  0  0  0  0
  1  2  3  0
  1  6  1  0
  2  3  1  0
  3  4  1  0
  3  7  1  0
  4  5  3  0
  5  8  1  0
M  RAD  1   3   2
M  END
>  <reaction>  (2) 
rxn_1920

>  <mol_properties>  (2) 
{"2": {"label": "acceptor", "atom_type": "Cs"}}

>  <type>  (2) 
r2

$$$$

     RDKit          3D

  9  8  0  0  0  0  0  0  0  0999 V2000
   -2.1022   -0.6873    0.3932 C   0  0  0  0  0  0  0  0  0  0  0  0
   -1.2072   -0.1086   -0.1482 C   0  0  0  0  0  0  0  0  0  0  0  0
   -0.1242    0.6105   -0.8193 C   0  0  0  0  0  0  0  0  0  0  0  0
    1.2067    0.1106   -0.4741 C   0  0  0  0  0  0  0  0  0  0  0  0
    2.3005   -0.2875   -0.2012 C   0  0  0  0  0  0  0  0  0  0  0  0
   -2.8942   -1.2059    0.8778 H   0  0  0  0  0  0  0  0  0  0  0  0
   -0.1862    1.6723   -0.5649 H   0  0  0  0  0  0  0  0  0  0  0  0
   -0.2641    0.5418   -1.9017 H   0  0  0  0  0  0  0  0  0  0  0  0
    3.2709   -0.6459    0.0455 H   0  0  0  0  0  0  0  0  0  0  0  0
  1  2  3  0
  1  6  1  0
  2  3  1  0
  3  4  1  0
  3  7  1  0
  3  8  1  0
  4  5  3  0
  5  9  1  0
M  END
>  <reaction>  (3) 
rxn_1920

>  <mol_properties>  (3) 
{"2": {"label": "acceptor", "atom_type": "Cs"}, "8": {"label": "a_hydrogen", "atom_type": "H0"}}

>  <type>  (3) 
r2h

$$$$

     RDKit          3D

 20 18  0  0  0  0  0  0  0  0999 V2000
   -3.1686    0.5895   -0.6682 C   0  0  0  0  0  0  0  0  0  0  0  0
   -2.2617   -0.0167   -0.1672 C   0  0  0  0  0  0  0  0  0  0  0  0
   -1.1276   -0.7095    0.3721 C   0  0  0  0  0  0  0  0  0  0  0  0
   -0.8198   -0.4918    1.7556 C   0  0  0  0  0  0  0  0  0  0  0  0
   -0.4924   -0.2883    2.8926 C   0  0  0  0  0  0  0  0  0  0  0  0
   -3.9909    1.1135   -1.0923 H   0  0  0  0  0  0  0  0  0  0  0  0
   -1.0789   -1.7583    0.0805 H   0  0  0  0  0  0  0  0  0  0  0  0
   -0.2350   -0.1219    3.9108 H   0  0  0  0  0  0  0  0  0  0  0  0
    0.7099    0.2088   -2.3468 C   0  0  0  0  0  0  0  0  0  0  0  0
    0.9775    0.4114   -0.8779 C   0  0  0  0  0  3  0  0  0  0  0  0
    2.4135   -0.4771   -0.3297 S   0  0  0  0  0  0  0  0  0  0  0  0
    0.8163    1.8188   -0.3685 C   0  0  0  0  0  0  0  0  0  0  0  0
    0.7778   -0.8429   -2.6285 H   0  0  0  0  0  0  0  0  0  0  0  0
    1.4220    0.7724   -2.9585 H   0  0  0  0  0  0  0  0  0  0  0  0
   -0.2942    0.5644   -2.5865 H   0  0  0  0  0  0  0  0  0  0  0  0
   -0.0794   -0.2225   -0.2668 H   0  0  0  0  0  0  0  0  0  0  0  0
    2.3600   -0.0916    0.9528 H   0  0  0  0  0  0  0  0  0  0  0  0
   -0.1609    2.2079   -0.6632 H   0  0  0  0  0  0  0  0  0  0  0  0
    1.5891    2.4739   -0.7823 H   0  0  0  0  0  0  0  0  0  0  0  0
    0.8799    1.8578    0.7200 H   0  0  0  0  0  0  0  0  0  0  0  0
  1  2  3  0
  1  6  1  0
  2  3  1  0
  3  4  1  0
  3  7  1  0
  3 16  1  0
  4  5  3  0
  5  8  1  0
  9 10  1  0
  9 13  1  0
  9 14  1  0
  9 15  1  0
 10 12  1  0
 10 11  1  0
 11 17  1  0
 12 18  1  0
 12 19  1  0
 12 20  1  0
M  RAD  1  10   2
M  END
>  <reaction>  (4) 
rxn_1920

>  <mol_properties>  (4) 
{"1": {"label": "*0", "atom_type": "Ct"}, "2": {"label": "*1", "atom_type": "Cs"}, "9": {"label": "*3", "atom_type": "Cs"}, "10": {"label": "*4", "atom_type": "S2s"}, "15": {"label": "*2", "atom_type": "H0"}}

>  <type>  (4) 
ts

$$$$

     RDKit          3D

 20 18  0  0  0  0  0  0  0  0999 V2000
   -0.4913   -2.3771    1.7945 C   0  0  0  0  0  0  0  0  0  0  0  0
   -0.8270   -1.4395    1.1331 C   0  0  0  0  0  0  0  0  0  0  0  0
   -1.2378   -0.2921    0.3238 C   0  0  0  0  0  3  0  0  0  0  0  0
   -2.6122   -0.3901   -0.1681 C   0  0  0  0  0  0  0  0  0  0  0  0
   -3.7352   -0.4702   -0.5701 C   0  0  0  0  0  0  0  0  0  0  0  0
   -0.1927   -3.2112    2.3828 H   0  0  0  0  0  0  0  0  0  0  0  0
   -1.1325    0.6213    0.9159 H   0  0  0  0  0  0  0  0  0  0  0  0
   -4.7343   -0.5415   -0.9276 H   0  0  0  0  0  0  0  0  0  0  0  0
    0.8985    0.9720   -2.0488 C   0  0  0  0  0  0  0  0  0  0  0  0
    0.8985    0.9720   -0.5264 C   0  0  0  0  0  0  0  0  0  0  0  0
    2.2535   -0.0444    0.1572 S   0  0  0  0  0  0  0  0  0  0  0  0
    0.8985    2.3820    0.0476 C   0  0  0  0  0  0  0  0  0  0  0  0
    0.8699   -0.0423   -2.4454 H   0  0  0  0  0  0  0  0  0  0  0  0
    1.7969    1.4617   -2.4324 H   0  0  0  0  0  0  0  0  0  0  0  0
    0.0315    1.5194   -2.4276 H   0  0  0  0  0  0  0  0  0  0  0  0
   -0.1694    0.3401   -0.1015 H   0  0  0  0  0  0  0  0  0  0  0  0
    3.2598    0.6911   -0.3375 H   0  0  0  0  0  0  0  0  0  0  0  0
    0.0315    2.9392   -0.3166 H   0  0  0  0  0  0  0  0  0  0  0  0
    1.7969    2.9219   -0.2613 H   0  0  0  0  0  0  0  0  0  0  0  0
    0.8699    2.3669    1.1366 H   0  0  0  0  0  0  0  0  0  0  0  0
  1  2  3  0
  1  6  1  0
  2  3  1  0
  3  4  1  0
  3  7  1  0
  4  5  3  0
  5  8  1  0
  9 10  1  0
  9 13  1  0
  9 14  1  0
  9 15  1  0
 10 12  1  0
 10 11  1  0
 10 16  1  0
 11 17  1  0
 12 18  1  0
 12 19  1  0
 12 20  1  0
M  RAD  1   3   2
M  END
>  <reaction>  (5) 
rxn_1920

>  <mol_properties>  (5) 
{"1": {"label": "*0", "atom_type": "Ct"}, "2": {"label": "*1", "atom_type": "Cs"}, "9": {"label": "*3", "atom_type": "Cs"}, "10": {"label": "*4", "atom_type": "S2s"}, "15": {"label": "*2", "atom_type": "H0"}}

>  <type>  (5) 
unop_1

>  <geom_source>  (5) 
Heuristics

$$$$

     RDKit          3D

 20 18  0  0  0  0  0  0  0  0999 V2000
   -1.7734   -2.3838   -1.2637 C   0  0  0  0  0  0  0  0  0  0  0  0
   -1.4685   -1.5474   -0.4658 C   0  0  0  0  0  0  0  0  0  0  0  0
   -1.0953   -0.5238    0.5106 C   0  0  0  0  0  3  0  0  0  0  0  0
   -2.2436    0.1784    1.0841 C   0  0  0  0  0  0  0  0  0  0  0  0
   -3.1819    0.7521    1.5527 C   0  0  0  0  0  0  0  0  0  0  0  0
   -2.0446   -3.1279   -1.9735 H   0  0  0  0  0  0  0  0  0  0  0  0
   -0.5196   -0.9885    1.3160 H   0  0  0  0  0  0  0  0  0  0  0  0
   -4.0166    1.2625    1.9696 H   0  0  0  0  0  0  0  0  0  0  0  0
    1.0410    0.7403   -1.8619 C   0  0  0  0  0  0  0  0  0  0  0  0
    1.0410    0.7403   -0.3396 C   0  0  0  0  0  0  0  0  0  0  0  0
    2.3960   -0.2761    0.3441 S   0  0  0  0  0  0  0  0  0  0  0  0
    1.0410    2.1503    0.2345 C   0  0  0  0  0  0  0  0  0  0  0  0
    1.0124   -0.2739   -2.2586 H   0  0  0  0  0  0  0  0  0  0  0  0
    1.9394    1.2300   -2.2455 H   0  0  0  0  0  0  0  0  0  0  0  0
    0.1740    1.2877   -2.2407 H   0  0  0  0  0  0  0  0  0  0  0  0
   -0.0269    0.1084    0.0854 H   0  0  0  0  0  0  0  0  0  0  0  0
    3.4023    0.4594   -0.1506 H   0  0  0  0  0  0  0  0  0  0  0  0
    0.1740    2.7075   -0.1297 H   0  0  0  0  0  0  0  0  0  0  0  0
    1.9394    2.6902   -0.0744 H   0  0  0  0  0  0  0  0  0  0  0  0
    1.0124    2.1352    1.3234 H   0  0  0  0  0  0  0  0  0  0  0  0
  1  2  3  0
  1  6  1  0
  2  3  1  0
  3  4  1  0
  3  7  1  0
  4  5  3  0
  5  8  1  0
  9 10  1  0
  9 13  1  0
  9 14  1  0
  9 15  1  0
 10 12  1  0
 10 11  1  0
 10 16  1  0
 11 17  1  0
 12 18  1  0
 12 19  1  0
 12 20  1  0
M  RAD  1   3   2
M  END
>  <reaction>  (6) 
rxn_1920

>  <mol_properties>  (6) 
{"1": {"label": "*0", "atom_type": "Ct"}, "2": {"label": "*1", "atom_type": "Cs"}, "9": {"label": "*3", "atom_type": "Cs"}, "10": {"label": "*4", "atom_type": "S2s"}, "15": {"label": "*2", "atom_type": "H0"}}

>  <type>  (6) 
unop_2

>  <geom_source>  (6) 
Heuristics

$$$$

     RDKit          3D

 20 18  0  0  0  0  0  0  0  0999 V2000
   -0.7694   -1.4055    2.6199 C   0  0  0  0  0  0  0  0  0  0  0  0
   -1.0099   -0.8918    1.5675 C   0  0  0  0  0  0  0  0  0  0  0  0
   -1.3042   -0.2632    0.2797 C   0  0  0  0  0  3  0  0  0  0  0  0
   -2.2955   -0.9935   -0.5105 C   0  0  0  0  0  0  0  0  0  0  0  0
   -3.1056   -1.5902   -1.1562 C   0  0  0  0  0  0  0  0  0  0  0  0
   -0.5554   -1.8625    3.5560 H   0  0  0  0  0  0  0  0  0  0  0  0
   -1.6614    0.7561    0.4508 H   0  0  0  0  0  0  0  0  0  0  0  0
   -3.8262   -2.1211   -1.7305 H   0  0  0  0  0  0  0  0  0  0  0  0
    0.8322    1.0009   -2.0929 C   0  0  0  0  0  0  0  0  0  0  0  0
    0.8322    1.0009   -0.5705 C   0  0  0  0  0  0  0  0  0  0  0  0
    2.1872   -0.0155    0.1131 S   0  0  0  0  0  0  0  0  0  0  0  0
    0.8322    2.4109    0.0035 C   0  0  0  0  0  0  0  0  0  0  0  0
    0.8036   -0.0133   -2.4895 H   0  0  0  0  0  0  0  0  0  0  0  0
    1.7306    1.4906   -2.4765 H   0  0  0  0  0  0  0  0  0  0  0  0
   -0.0348    1.5483   -2.4717 H   0  0  0  0  0  0  0  0  0  0  0  0
   -0.2357    0.3690   -0.1455 H   0  0  0  0  0  0  0  0  0  0  0  0
    3.1934    0.7200   -0.3816 H   0  0  0  0  0  0  0  0  0  0  0  0
   -0.0348    2.9681   -0.3606 H   0  0  0  0  0  0  0  0  0  0  0  0
    1.7306    2.9508   -0.3054 H   0  0  0  0  0  0  0  0  0  0  0  0
    0.8036    2.3958    1.0925 H   0  0  0  0  0  0  0  0  0  0  0  0
  1  2  3  0
  1  6  1  0
  2  3  1  0
  3  4  1  0
  3  7  1  0
  4  5  3  0
  5  8  1  0
  9 10  1  0
  9 13  1  0
  9 14  1  0
  9 15  1  0
 10 12  1  0
 10 11  1  0
 10 16  1  0
 11 17  1  0
 12 18  1  0
 12 19  1  0
 12 20  1  0
M  RAD  1   3   2
M  END
>  <reaction>  (7) 
rxn_1920

>  <mol_properties>  (7) 
{"1": {"label": "*0", "atom_type": "Ct"}, "2": {"label": "*1", "atom_type": "Cs"}, "9": {"label": "*3", "atom_type": "Cs"}, "10": {"label": "*4", "atom_type": "S2s"}, "15": {"label": "*2", "atom_type": "H0"}}

>  <type>  (7) 
unop_3

>  <geom_source>  (7) 
Heuristics

$$$$

     RDKit          3D

 20 18  0  0  0  0  0  0  0  0999 V2000
   -3.4623    0.3323   -0.7043 C   0  0  0  0  0  0  0  0  0  0  0  0
   -2.4871   -0.2270   -0.2974 C   0  0  0  0  0  0  0  0  0  0  0  0
   -1.2938   -0.9114    0.2005 C   0  0  0  0  0  3  0  0  0  0  0  0
   -0.8414   -0.4183    1.5015 C   0  0  0  0  0  0  0  0  0  0  0  0
   -0.4717   -0.0154    2.5646 C   0  0  0  0  0  0  0  0  0  0  0  0
   -4.3297    0.8298   -1.0663 H   0  0  0  0  0  0  0  0  0  0  0  0
   -1.4987   -1.9831    0.2740 H   0  0  0  0  0  0  0  0  0  0  0  0
   -0.1429    0.3430    3.5104 H   0  0  0  0  0  0  0  0  0  0  0  0
    0.8425    0.3527   -2.1720 C   0  0  0  0  0  0  0  0  0  0  0  0
    0.8425    0.3527   -0.6497 C   0  0  0  0  0  0  0  0  0  0  0  0
    2.1976   -0.6637    0.0339 S   0  0  0  0  0  0  0  0  0  0  0  0
    0.8425    1.7627   -0.0756 C   0  0  0  0  0  0  0  0  0  0  0  0
    0.8139   -0.6616   -2.5687 H   0  0  0  0  0  0  0  0  0  0  0  0
    1.7410    0.8424   -2.5556 H   0  0  0  0  0  0  0  0  0  0  0  0
   -0.0244    0.9001   -2.5508 H   0  0  0  0  0  0  0  0  0  0  0  0
   -0.2254   -0.2792   -0.2247 H   0  0  0  0  0  0  0  0  0  0  0  0
    3.2038    0.0718   -0.4607 H   0  0  0  0  0  0  0  0  0  0  0  0
   -0.0244    2.3199   -0.4398 H   0  0  0  0  0  0  0  0  0  0  0  0
    1.7410    2.3026   -0.3846 H   0  0  0  0  0  0  0  0  0  0  0  0
    0.8139    1.7476    1.0133 H   0  0  0  0  0  0  0  0  0  0  0  0
  1  2  3  0
  1  6  1  0
  2  3  1  0
  3  4  1  0
  3  7  1  0
  4  5  3  0
  5  8  1  0
  9 10  1  0
  9 13  1  0
  9 14  1  0
  9 15  1  0
 10 12  1  0
 10 11  1  0
 10 16  1  0
 11 17  1  0
 12 18  1  0
 12 19  1  0
 12 20  1  0
M  RAD  1   3   2
M  END
>  <reaction>  (8) 
rxn_1920

>  <mol_properties>  (8) 
{"1": {"label": "*0", "atom_type": "Ct"}, "2": {"label": "*1", "atom_type": "Cs"}, "9": {"label": "*3", "atom_type": "Cs"}, "10": {"label": "*4", "atom_type": "S2s"}, "15": {"label": "*2", "atom_type": "H0"}}

>  <type>  (8) 
unop_4

>  <geom_source>  (8) 
Heuristics

$$$$

     RDKit          3D

 20 18  0  0  0  0  0  0  0  0999 V2000
   -1.4843   -0.2701    2.8424 C   0  0  0  0  0  0  0  0  0  0  0  0
   -1.4795   -0.2672    1.6469 C   0  0  0  0  0  0  0  0  0  0  0  0
   -1.4736   -0.2637    0.1839 C   0  0  0  0  0  3  0  0  0  0  0  0
   -1.5030   -1.6046   -0.4005 C   0  0  0  0  0  0  0  0  0  0  0  0
   -1.5270   -2.7003   -0.8782 C   0  0  0  0  0  0  0  0  0  0  0  0
   -1.4886   -0.2726    3.9059 H   0  0  0  0  0  0  0  0  0  0  0  0
   -2.3352    0.3046   -0.1774 H   0  0  0  0  0  0  0  0  0  0  0  0
   -1.5484   -3.6749   -1.3030 H   0  0  0  0  0  0  0  0  0  0  0  0
    0.6628    1.0004   -2.1886 C   0  0  0  0  0  0  0  0  0  0  0  0
    0.6628    1.0004   -0.6663 C   0  0  0  0  0  0  0  0  0  0  0  0
    2.0178   -0.0161    0.0174 S   0  0  0  0  0  0  0  0  0  0  0  0
    0.6628    2.4103   -0.0922 C   0  0  0  0  0  0  0  0  0  0  0  0
    0.6342   -0.0139   -2.5853 H   0  0  0  0  0  0  0  0  0  0  0  0
    1.5612    1.4901   -2.5722 H   0  0  0  0  0  0  0  0  0  0  0  0
   -0.2042    1.5478   -2.5674 H   0  0  0  0  0  0  0  0  0  0  0  0
   -0.4051    0.3685   -0.2413 H   0  0  0  0  0  0  0  0  0  0  0  0
    3.0240    0.7194   -0.4773 H   0  0  0  0  0  0  0  0  0  0  0  0
   -0.2042    2.9676   -0.4564 H   0  0  0  0  0  0  0  0  0  0  0  0
    1.5612    2.9503   -0.4011 H   0  0  0  0  0  0  0  0  0  0  0  0
    0.6342    2.3953    0.9967 H   0  0  0  0  0  0  0  0  0  0  0  0
  1  2  3  0
  1  6  1  0
  2  3  1  0
  3  4  1  0
  3  7  1  0
  4  5  3  0
  5  8  1  0
  9 10  1  0
  9 13  1  0
  9 14  1  0
  9 15  1  0
 10 12  1  0
 10 11  1  0
 10 16  1  0
 11 17  1  0
 12 18  1  0
 12 19  1  0
 12 20  1  0
M  RAD  1   3   2
M  END
>  <reaction>  (9) 
rxn_1920

>  <mol_properties>  (9) 
{"1": {"label": "*0", "atom_type": "Ct"}, "2": {"label": "*1", "atom_type": "Cs"}, "9": {"label": "*3", "atom_type": "Cs"}, "10": {"label": "*4", "atom_type": "S2s"}, "15": {"label": "*2", "atom_type": "H0"}}

>  <type>  (9) 
unop_5

>  <geom_source>  (9) 
Heuristics

$$$$

     RDKit          3D

 20 18  0  0  0  0  0  0  0  0999 V2000
   -3.4258    0.8966    0.3539 C   0  0  0  0  0  0  0  0  0  0  0  0
   -2.5311    0.1140    0.2266 C   0  0  0  0  0  0  0  0  0  0  0  0
   -1.4361   -0.8437    0.0709 C   0  0  0  0  0  3  0  0  0  0  0  0
   -0.5321   -0.8848    1.2204 C   0  0  0  0  0  0  0  0  0  0  0  0
    0.2067   -0.9184    2.1597 C   0  0  0  0  0  0  0  0  0  0  0  0
   -4.2217    1.5928    0.4670 H   0  0  0  0  0  0  0  0  0  0  0  0
   -1.8524   -1.8414   -0.0945 H   0  0  0  0  0  0  0  0  0  0  0  0
    0.8639   -0.9482    2.9953 H   0  0  0  0  0  0  0  0  0  0  0  0
    0.7002    0.4204   -2.3016 C   0  0  0  0  0  0  0  0  0  0  0  0
    0.7002    0.4204   -0.7793 C   0  0  0  0  0  0  0  0  0  0  0  0
    2.0552   -0.5961   -0.0957 S   0  0  0  0  0  0  0  0  0  0  0  0
    0.7002    1.8303   -0.2052 C   0  0  0  0  0  0  0  0  0  0  0  0
    0.6716   -0.5939   -2.6983 H   0  0  0  0  0  0  0  0  0  0  0  0
    1.5986    0.9101   -2.6852 H   0  0  0  0  0  0  0  0  0  0  0  0
   -0.1668    0.9678   -2.6804 H   0  0  0  0  0  0  0  0  0  0  0  0
   -0.3677   -0.2115   -0.3543 H   0  0  0  0  0  0  0  0  0  0  0  0
    3.0615    0.1394   -0.5903 H   0  0  0  0  0  0  0  0  0  0  0  0
   -0.1668    2.3876   -0.5694 H   0  0  0  0  0  0  0  0  0  0  0  0
    1.5986    2.3703   -0.5142 H   0  0  0  0  0  0  0  0  0  0  0  0
    0.6716    1.8152    0.8837 H   0  0  0  0  0  0  0  0  0  0  0  0
  1  2  3  0
  1  6  1  0
  2  3  1  0
  3  4  1  0
  3  7  1  0
  4  5  3  0
  5  8  1  0
  9 10  1  0
  9 13  1  0
  9 14  1  0
  9 15  1  0
 10 12  1  0
 10 11  1  0
 10 16  1  0
 11 17  1  0
 12 18  1  0
 12 19  1  0
 12 20  1  0
M  RAD  1   3   2
M  END
>  <reaction>  (10) 
rxn_1920

>  <mol_properties>  (10) 
{"1": {"label": "*0", "atom_type": "Ct"}, "2": {"label": "*1", "atom_type": "Cs"}, "9": {"label": "*3", "atom_type": "Cs"}, "10": {"label": "*4", "atom_type": "S2s"}, "15": {"label": "*2", "atom_type": "H0"}}

>  <type>  (10) 
unop_6

>  <geom_source>  (10) 
Heuristics

$$$$

     RDKit          3D

 20 18  0  0  0  0  0  0  0  0999 V2000
   -3.0264    0.9782    1.4779 C   0  0  0  0  0  0  0  0  0  0  0  0
   -2.3661    0.2326    0.8166 C   0  0  0  0  0  0  0  0  0  0  0  0
   -1.5582   -0.6798    0.0072 C   0  0  0  0  0  3  0  0  0  0  0  0
   -0.4682   -1.3084    0.7536 C   0  0  0  0  0  0  0  0  0  0  0  0
    0.4226   -1.8221    1.3635 C   0  0  0  0  0  0  0  0  0  0  0  0
   -3.6137    1.6414    2.0663 H   0  0  0  0  0  0  0  0  0  0  0  0
   -2.2038   -1.4579   -0.4094 H   0  0  0  0  0  0  0  0  0  0  0  0
    1.2149   -2.2791    1.9060 H   0  0  0  0  0  0  0  0  0  0  0  0
    0.5782    0.5843   -2.3653 C   0  0  0  0  0  0  0  0  0  0  0  0
    0.5782    0.5843   -0.8430 C   0  0  0  0  0  0  0  0  0  0  0  0
    1.9332   -0.4321   -0.1594 S   0  0  0  0  0  0  0  0  0  0  0  0
    0.5782    1.9943   -0.2689 C   0  0  0  0  0  0  0  0  0  0  0  0
    0.5496   -0.4299   -2.7620 H   0  0  0  0  0  0  0  0  0  0  0  0
    1.4766    1.0740   -2.7489 H   0  0  0  0  0  0  0  0  0  0  0  0
   -0.2888    1.1317   -2.7441 H   0  0  0  0  0  0  0  0  0  0  0  0
   -0.4897   -0.0476   -0.4180 H   0  0  0  0  0  0  0  0  0  0  0  0
    2.9395    0.3034   -0.6540 H   0  0  0  0  0  0  0  0  0  0  0  0
   -0.2888    2.5515   -0.6331 H   0  0  0  0  0  0  0  0  0  0  0  0
    1.4766    2.5342   -0.5779 H   0  0  0  0  0  0  0  0  0  0  0  0
    0.5496    1.9792    0.8200 H   0  0  0  0  0  0  0  0  0  0  0  0
  1  2  3  0
  1  6  1  0
  2  3  1  0
  3  4  1  0
  3  7  1  0
  4  5  3  0
  5  8  1  0
  9 10  1  0
  9 13  1  0
  9 14  1  0
  9 15  1  0
 10 12  1  0
 10 11  1  0
 10 16  1  0
 11 17  1  0
 12 18  1  0
 12 19  1  0
 12 20  1  0
M  RAD  1   3   2
M  END
>  <reaction>  (11) 
rxn_1920

>  <mol_properties>  (11) 
{"1": {"label": "*0", "atom_type": "Ct"}, "2": {"label": "*1", "atom_type": "Cs"}, "9": {"label": "*3", "atom_type": "Cs"}, "10": {"label": "*4", "atom_type": "S2s"}, "15": {"label": "*2", "atom_type": "H0"}}

>  <type>  (11) 
unop_7

>  <geom_source>  (11) 
Heuristics

$$$$

     RDKit          3D

 20 18  0  0  0  0  0  0  0  0999 V2000
   -0.6309   -2.8968    0.6707 C   0  0  0  0  0  0  0  0  0  0  0  0
   -0.8862   -1.7358    0.5435 C   0  0  0  0  0  0  0  0  0  0  0  0
   -1.1987   -0.3151    0.3878 C   0  0  0  0  0  3  0  0  0  0  0  0
   -2.6331   -0.0420    0.2978 C   0  0  0  0  0  0  0  0  0  0  0  0
   -3.8053    0.1812    0.2242 C   0  0  0  0  0  0  0  0  0  0  0  0
   -0.4038   -3.9296    0.7839 H   0  0  0  0  0  0  0  0  0  0  0  0
   -0.7797    0.2395    1.2321 H   0  0  0  0  0  0  0  0  0  0  0  0
   -4.8480    0.3798    0.1588 H   0  0  0  0  0  0  0  0  0  0  0  0
    0.9377    0.9490   -1.9848 C   0  0  0  0  0  0  0  0  0  0  0  0
    0.9377    0.9490   -0.4624 C   0  0  0  0  0  0  0  0  0  0  0  0
    2.2927   -0.0674    0.2212 S   0  0  0  0  0  0  0  0  0  0  0  0
    0.9377    2.3590    0.1116 C   0  0  0  0  0  0  0  0  0  0  0  0
    0.9091   -0.0652   -2.3814 H   0  0  0  0  0  0  0  0  0  0  0  0
    1.8361    1.4387   -2.3684 H   0  0  0  0  0  0  0  0  0  0  0  0
    0.0707    1.4964   -2.3636 H   0  0  0  0  0  0  0  0  0  0  0  0
   -0.1302    0.3171   -0.0374 H   0  0  0  0  0  0  0  0  0  0  0  0
    3.2990    0.6681   -0.2735 H   0  0  0  0  0  0  0  0  0  0  0  0
    0.0707    2.9162   -0.2525 H   0  0  0  0  0  0  0  0  0  0  0  0
    1.8361    2.8989   -0.1973 H   0  0  0  0  0  0  0  0  0  0  0  0
    0.9091    2.3439    1.2006 H   0  0  0  0  0  0  0  0  0  0  0  0
  1  2  3  0
  1  6  1  0
  2  3  1  0
  3  4  1  0
  3  7  1  0
  4  5  3  0
  5  8  1  0
  9 10  1  0
  9 13  1  0
  9 14  1  0
  9 15  1  0
 10 12  1  0
 10 11  1  0
 10 16  1  0
 11 17  1  0
 12 18  1  0
 12 19  1  0
 12 20  1  0
M  RAD  1   3   2
M  END
>  <reaction>  (12) 
rxn_1920

>  <mol_properties>  (12) 
{"1": {"label": "*0", "atom_type": "Ct"}, "2": {"label": "*1", "atom_type": "Cs"}, "9": {"label": "*3", "atom_type": "Cs"}, "10": {"label": "*4", "atom_type": "S2s"}, "15": {"label": "*2", "atom_type": "H0"}}

>  <type>  (12) 
unop_8

>  <geom_source>  (12) 
Heuristics

$$$$

     RDKit          3D

 20 18  0  0  0  0  0  0  0  0999 V2000
   -3.1228   -0.5650   -1.4210 C   0  0  0  0  0  0  0  0  0  0  0  0
   -2.2429   -0.7003   -0.6231 C   0  0  0  0  0  0  0  0  0  0  0  0
   -1.1661   -0.8660    0.3533 C   0  0  0  0  0  3  0  0  0  0  0  0
   -1.3257   -0.0285    1.5422 C   0  0  0  0  0  0  0  0  0  0  0  0
   -1.4561    0.6559    2.5137 C   0  0  0  0  0  0  0  0  0  0  0  0
   -3.9055   -0.4446   -2.1308 H   0  0  0  0  0  0  0  0  0  0  0  0
   -1.1151   -1.9152    0.6573 H   0  0  0  0  0  0  0  0  0  0  0  0
   -1.5722    1.2648    3.3779 H   0  0  0  0  0  0  0  0  0  0  0  0
    0.9703    0.3981   -2.0192 C   0  0  0  0  0  0  0  0  0  0  0  0
    0.9703    0.3981   -0.4969 C   0  0  0  0  0  0  0  0  0  0  0  0
    2.3253   -0.6183    0.1867 S   0  0  0  0  0  0  0  0  0  0  0  0
    0.9703    1.8081    0.0772 C   0  0  0  0  0  0  0  0  0  0  0  0
    0.9417   -0.6161   -2.4159 H   0  0  0  0  0  0  0  0  0  0  0  0
    1.8687    0.8878   -2.4028 H   0  0  0  0  0  0  0  0  0  0  0  0
    0.1033    0.9455   -2.3980 H   0  0  0  0  0  0  0  0  0  0  0  0
   -0.0976   -0.2338   -0.0719 H   0  0  0  0  0  0  0  0  0  0  0  0
    3.3316    0.1172   -0.3079 H   0  0  0  0  0  0  0  0  0  0  0  0
    0.1033    2.3653   -0.2870 H   0  0  0  0  0  0  0  0  0  0  0  0
    1.8687    2.3480   -0.2318 H   0  0  0  0  0  0  0  0  0  0  0  0
    0.9417    1.7930    1.1661 H   0  0  0  0  0  0  0  0  0  0  0  0
  1  2  3  0
  1  6  1  0
  2  3  1  0
  3  4  1  0
  3  7  1  0
  4  5  3  0
  5  8  1  0
  9 10  1  0
  9 13  1  0
  9 14  1  0
  9 15  1  0
 10 12  1  0
 10 11  1  0
 10 16  1  0
 11 17  1  0
 12 18  1  0
 12 19  1  0
 12 20  1  0
M  RAD  1   3   2
M  END
>  <reaction>  (13) 
rxn_1920

>  <mol_properties>  (13) 
{"1": {"label": "*0", "atom_type": "Ct"}, "2": {"label": "*1", "atom_type": "Cs"}, "9": {"label": "*3", "atom_type": "Cs"}, "10": {"label": "*4", "atom_type": "S2s"}, "15": {"label": "*2", "atom_type": "H0"}}

>  <type>  (13) 
unop_9

>  <geom_source>  (13) 
Heuristics

$$$$

     RDKit          3D

 20 18  0  0  0  0  0  0  0  0999 V2000
   -1.1006   -2.8814   -0.4393 C   0  0  0  0  0  0  0  0  0  0  0  0
   -1.1214   -1.7574   -0.0325 C   0  0  0  0  0  0  0  0  0  0  0  0
   -1.1469   -0.3820    0.4655 C   0  0  0  0  0  3  0  0  0  0  0  0
   -2.4971    0.1154    0.7300 C   0  0  0  0  0  0  0  0  0  0  0  0
   -3.6004    0.5218    0.9461 C   0  0  0  0  0  0  0  0  0  0  0  0
   -1.0820   -3.8812   -0.8013 H   0  0  0  0  0  0  0  0  0  0  0  0
   -0.5555   -0.3213    1.3834 H   0  0  0  0  0  0  0  0  0  0  0  0
   -4.5819    0.8834    1.1384 H   0  0  0  0  0  0  0  0  0  0  0  0
    0.9895    0.8821   -1.9071 C   0  0  0  0  0  0  0  0  0  0  0  0
    0.9895    0.8821   -0.3847 C   0  0  0  0  0  0  0  0  0  0  0  0
    2.3445   -0.1343    0.2989 S   0  0  0  0  0  0  0  0  0  0  0  0
    0.9895    2.2921    0.1893 C   0  0  0  0  0  0  0  0  0  0  0  0
    0.9609   -0.1322   -2.3037 H   0  0  0  0  0  0  0  0  0  0  0  0
    1.8879    1.3718   -2.2907 H   0  0  0  0  0  0  0  0  0  0  0  0
    0.1225    1.4295   -2.2859 H   0  0  0  0  0  0  0  0  0  0  0  0
   -0.0784    0.2502    0.0403 H   0  0  0  0  0  0  0  0  0  0  0  0
    3.3507    0.6012   -0.1958 H   0  0  0  0  0  0  0  0  0  0  0  0
    0.1225    2.8493   -0.1748 H   0  0  0  0  0  0  0  0  0  0  0  0
    1.8879    2.8320   -0.1196 H   0  0  0  0  0  0  0  0  0  0  0  0
    0.9609    2.2770    1.2783 H   0  0  0  0  0  0  0  0  0  0  0  0
  1  2  3  0
  1  6  1  0
  2  3  1  0
  3  4  1  0
  3  7  1  0
  4  5  3  0
  5  8  1  0
  9 10  1  0
  9 13  1  0
  9 14  1  0
  9 15  1  0
 10 12  1  0
 10 11  1  0
 10 16  1  0
 11 17  1  0
 12 18  1  0
 12 19  1  0
 12 20  1  0
M  RAD  1   3   2
M  END
>  <reaction>  (14) 
rxn_1920

>  <mol_properties>  (14) 
{"1": {"label": "*0", "atom_type": "Ct"}, "2": {"label": "*1", "atom_type": "Cs"}, "9": {"label": "*3", "atom_type": "Cs"}, "10": {"label": "*4", "atom_type": "S2s"}, "15": {"label": "*2", "atom_type": "H0"}}

>  <type>  (14) 
unop_10

>  <geom_source>  (14) 
Heuristics

$$$$

     RDKit          3D

 20 18  0  0  0  0  0  0  0  0999 V2000
   -2.3449    0.5702    2.3858 C   0  0  0  0  0  0  0  0  0  0  0  0
   -2.0104    0.1121    1.3335 C   0  0  0  0  0  0  0  0  0  0  0  0
   -1.6010   -0.4485    0.0456 C   0  0  0  0  0  3  0  0  0  0  0  0
   -0.7389   -1.6238    0.1711 C   0  0  0  0  0  0  0  0  0  0  0  0
   -0.0345   -2.5842    0.2736 C   0  0  0  0  0  0  0  0  0  0  0  0
   -2.6425    0.9777    3.3220 H   0  0  0  0  0  0  0  0  0  0  0  0
   -2.4920   -0.7163   -0.5291 H   0  0  0  0  0  0  0  0  0  0  0  0
    0.5922   -3.4386    0.3647 H   0  0  0  0  0  0  0  0  0  0  0  0
    0.5353    0.8156   -2.3269 C   0  0  0  0  0  0  0  0  0  0  0  0
    0.5353    0.8156   -0.8046 C   0  0  0  0  0  0  0  0  0  0  0  0
    1.8903   -0.2008   -0.1210 S   0  0  0  0  0  0  0  0  0  0  0  0
    0.5353    2.2256   -0.2305 C   0  0  0  0  0  0  0  0  0  0  0  0
    0.5067   -0.1986   -2.7236 H   0  0  0  0  0  0  0  0  0  0  0  0
    1.4337    1.3053   -2.7105 H   0  0  0  0  0  0  0  0  0  0  0  0
   -0.3317    1.3630   -2.7057 H   0  0  0  0  0  0  0  0  0  0  0  0
   -0.5326    0.1837   -0.3796 H   0  0  0  0  0  0  0  0  0  0  0  0
    2.8966    0.5347   -0.6156 H   0  0  0  0  0  0  0  0  0  0  0  0
   -0.3317    2.7828   -0.5947 H   0  0  0  0  0  0  0  0  0  0  0  0
    1.4337    2.7655   -0.5395 H   0  0  0  0  0  0  0  0  0  0  0  0
    0.5067    2.2105    0.8584 H   0  0  0  0  0  0  0  0  0  0  0  0
  1  2  3  0
  1  6  1  0
  2  3  1  0
  3  4  1  0
  3  7  1  0
  4  5  3  0
  5  8  1  0
  9 10  1  0
  9 13  1  0
  9 14  1  0
  9 15  1  0
 10 12  1  0
 10 11  1  0
 10 16  1  0
 11 17  1  0
 12 18  1  0
 12 19  1  0
 12 20  1  0
M  RAD  1   3   2
M  END
>  <reaction>  (15) 
rxn_1920

>  <mol_properties>  (15) 
{"1": {"label": "*0", "atom_type": "Ct"}, "2": {"label": "*1", "atom_type": "Cs"}, "9": {"label": "*3", "atom_type": "Cs"}, "10": {"label": "*4", "atom_type": "S2s"}, "15": {"label": "*2", "atom_type": "H0"}}

>  <type>  (15) 
unop_11

>  <geom_source>  (15) 
Heuristics

$$$$

     RDKit          3D

 20 18  0  0  0  0  0  0  0  0999 V2000
   -2.5028   -1.5493   -1.6187 C   0  0  0  0  0  0  0  0  0  0  0  0
   -1.8682   -1.1738   -0.6777 C   0  0  0  0  0  0  0  0  0  0  0  0
   -1.0916   -0.7143    0.4739 C   0  0  0  0  0  3  0  0  0  0  0  0
   -1.8447    0.1635    1.3698 C   0  0  0  0  0  0  0  0  0  0  0  0
   -2.4601    0.8808    2.1019 C   0  0  0  0  0  0  0  0  0  0  0  0
   -3.0673   -1.8834   -2.4558 H   0  0  0  0  0  0  0  0  0  0  0  0
   -0.7358   -1.5820    1.0365 H   0  0  0  0  0  0  0  0  0  0  0  0
   -3.0075    1.5190    2.7531 H   0  0  0  0  0  0  0  0  0  0  0  0
    1.0448    0.5498   -1.8987 C   0  0  0  0  0  0  0  0  0  0  0  0
    1.0448    0.5498   -0.3763 C   0  0  0  0  0  0  0  0  0  0  0  0
    2.3998   -0.4667    0.3073 S   0  0  0  0  0  0  0  0  0  0  0  0
    1.0448    1.9597    0.1977 C   0  0  0  0  0  0  0  0  0  0  0  0
    1.0162   -0.4645   -2.2953 H   0  0  0  0  0  0  0  0  0  0  0  0
    1.9432    1.0395   -2.2823 H   0  0  0  0  0  0  0  0  0  0  0  0
    0.1778    1.0972   -2.2775 H   0  0  0  0  0  0  0  0  0  0  0  0
   -0.0231   -0.0821    0.0487 H   0  0  0  0  0  0  0  0  0  0  0  0
    3.4061    0.2688   -0.1874 H   0  0  0  0  0  0  0  0  0  0  0  0
    0.1778    2.5170   -0.1664 H   0  0  0  0  0  0  0  0  0  0  0  0
    1.9432    2.4997   -0.1112 H   0  0  0  0  0  0  0  0  0  0  0  0
    1.0162    1.9446    1.2867 H   0  0  0  0  0  0  0  0  0  0  0  0
  1  2  3  0
  1  6  1  0
  2  3  1  0
  3  4  1  0
  3  7  1  0
  4  5  3  0
  5  8  1  0
  9 10  1  0
  9 13  1  0
  9 14  1  0
  9 15  1  0
 10 12  1  0
 10 11  1  0
 10 16  1  0
 11 17  1  0
 12 18  1  0
 12 19  1  0
 12 20  1  0
M  RAD  1   3   2
M  END
>  <reaction>  (16) 
rxn_1920

>  <mol_properties>  (16) 
{"1": {"label": "*0", "atom_type": "Ct"}, "2": {"label": "*1", "atom_type": "Cs"}, "9": {"label": "*3", "atom_type": "Cs"}, "10": {"label": "*4", "atom_type": "S2s"}, "15": {"label": "*2", "atom_type": "H0"}}

>  <type>  (16) 
unop_12

>  <geom_source>  (16) 
Heuristics

$$$$

     RDKit          3D

 20 18  0  0  0  0  0  0  0  0999 V2000
   -1.7340    1.5055    1.1551 S   0  0  0  0  0  0  0  0  0  0  0  0
   -1.7227   -1.1784    0.5277 C   0  0  0  0  0  0  0  0  0  0  0  0
   -1.7680    0.4611   -1.3887 C   0  0  0  0  0  0  0  0  0  0  0  0
    1.3535    0.3200   -0.3306 C   0  0  0  0  0  3  0  0  0  0  0  0
   -1.2382    0.1749    0.0131 C   0  0  0  0  0  0  0  0  0  0  0  0
    2.0356    1.1526    0.6620 C   0  0  0  0  0  0  0  0  0  0  0  0
    2.0963   -0.9268   -0.5243 C   0  0  0  0  0  0  0  0  0  0  0  0
    2.5957    1.8396    1.4794 C   0  0  0  0  0  0  0  0  0  0  0  0
    2.7063   -1.9544   -0.6849 C   0  0  0  0  0  0  0  0  0  0  0  0
    1.2936    0.8677   -1.2937 H   0  0  0  0  0  0  0  0  0  0  0  0
    0.0904    0.0331    0.1078 H   0  0  0  0  0  0  0  0  0  0  0  0
   -1.2886   -1.3767    1.5299 H   0  0  0  0  0  0  0  0  0  0  0  0
   -1.3921   -1.9858   -0.1592 H   0  0  0  0  0  0  0  0  0  0  0  0
   -2.8311   -1.1939    0.6027 H   0  0  0  0  0  0  0  0  0  0  0  0
   -1.4299   -0.3298   -2.0909 H   0  0  0  0  0  0  0  0  0  0  0  0
   -1.3729    1.4352   -1.7457 H   0  0  0  0  0  0  0  0  0  0  0  0
   -2.8785    0.4982   -1.3874 H   0  0  0  0  0  0  0  0  0  0  0  0
   -0.8448    1.0717    2.1565 H   0  0  0  0  0  0  0  0  0  0  0  0
    3.0874    2.4424    2.1969 H   0  0  0  0  0  0  0  0  0  0  0  0
    3.2419   -2.8562   -0.8258 H   0  0  0  0  0  0  0  0  0  0  0  0
  1  5  1  0
  1 18  1  0
  2  5  1  0
  2 12  1  0
  2 13  1  0
  2 14  1  0
  3  5  1  0
  3 15  1  0
  3 16  1  0
  3 17  1  0
  4  6  1  0
  4  7  1  0
  4 10  1  0
  5 11  1  0
  6  8  3  0
  7  9  3  0
  8 19  1  0
  9 20  1  0
M  RAD  1   4   2
M  END
>  <reaction>  (17) 
rxn_1920

>  <mol_properties>  (17) 
{"1": {"label": "*0", "atom_type": "Ct"}, "2": {"label": "*1", "atom_type": "Cs"}, "9": {"label": "*3", "atom_type": "Cs"}, "10": {"label": "*4", "atom_type": "S2s"}, "15": {"label": "*2", "atom_type": "H0"}}

>  <type>  (17) 
unop_13

>  <geom_source>  (17) 
AutoTST

$$$$
