
     RDKit          3D

 16 15  0  0  0  0  0  0  0  0999 V2000
    1.7961   -0.3807    1.6176 C   0  0  0  0  0  0  0  0  0  0  0  0
    0.8562   -0.8708    0.8256 C   0  0  0  0  0  0  0  0  0  0  0  0
    0.0895   -0.0826   -0.2048 C   0  0  0  0  0  0  0  0  0  0  0  0
   -1.4061   -0.1111    0.0982 C   0  0  0  0  0  0  0  0  0  0  0  0
    0.4476   -0.5902   -1.5797 C   0  0  0  0  0  0  0  0  0  0  0  0
   -0.3793   -1.1113   -2.4728 C   0  0  0  0  0  0  0  0  0  0  0  0
    2.3110   -1.0032    2.3386 H   0  0  0  0  0  0  0  0  0  0  0  0
    2.0846    0.6643    1.5737 H   0  0  0  0  0  0  0  0  0  0  0  0
    0.5921   -1.9241    0.8925 H   0  0  0  0  0  0  0  0  0  0  0  0
    0.4358    0.9557   -0.1462 H   0  0  0  0  0  0  0  0  0  0  0  0
   -1.5968    0.3080    1.0865 H   0  0  0  0  0  0  0  0  0  0  0  0
   -1.9674    0.4693   -0.6359 H   0  0  0  0  0  0  0  0  0  0  0  0
   -1.7902   -1.1338    0.0883 H   0  0  0  0  0  0  0  0  0  0  0  0
    1.5049   -0.5197   -1.8214 H   0  0  0  0  0  0  0  0  0  0  0  0
   -1.4421   -1.2131   -2.2889 H   0  0  0  0  0  0  0  0  0  0  0  0
   -0.0162   -1.4558   -3.4328 H   0  0  0  0  0  0  0  0  0  0  0  0
  1  2  2  3
  1  7  1  0
  1  8  1  0
  2  3  1  0
  2  9  1  0
  3  4  1  0
  3  5  1  0
  3 10  1  0
  4 11  1  0
  4 12  1  0
  4 13  1  0
  5  6  2  3
  5 14  1  0
  6 15  1  0
  6 16  1  0
M  END
>  <reaction>  (1) 
rxn_1202

>  <mol_properties>  (1) 
{"2": {"label": "donator", "atom_type": "Cs"}, "9": {"label": "d_hydrogen", "atom_type": "H0"}}

>  <type>  (1) 
r1h

$$$$

     RDKit          3D

  7  6  0  0  0  0  0  0  0  0999 V2000
    1.8092   -0.3013   -0.2242 S   0  0  0  0  0  0  0  0  0  0  0  0
    0.1552   -0.6967   -0.1137 C   0  0  0  0  0  0  0  0  0  0  0  0
   -0.8921    0.1788    0.1148 C   0  0  0  0  0  0  0  0  0  0  0  0
   -0.7548    1.8245    0.3328 S   0  0  0  0  0  1  0  0  0  0  0  0
    1.6168    1.0210   -0.0187 H   0  0  0  0  0  0  0  0  0  0  0  0
   -0.0550   -1.7522   -0.2412 H   0  0  0  0  0  0  0  0  0  0  0  0
   -1.8791   -0.2740    0.1502 H   0  0  0  0  0  0  0  0  0  0  0  0
  1  2  1  0
  1  5  1  0
  2  3  2  3
  2  6  1  0
  3  4  1  0
  3  7  1  0
M  RAD  1   4   2
M  END
>  <reaction>  (2) 
rxn_1202

>  <mol_properties>  (2) 
{"1": {"label": "acceptor", "atom_type": "Cs"}}

>  <type>  (2) 
r2

$$$$

     RDKit          3D

  8  7  0  0  0  0  0  0  0  0999 V2000
    1.7301   -0.0562    0.5281 S   0  0  0  0  0  0  0  0  0  0  0  0
    0.1858    0.6127   -0.1669 C   0  0  0  0  0  0  0  0  0  0  0  0
   -0.9621   -0.2567    0.2171 C   0  0  0  0  0  0  0  0  0  0  0  0
   -1.8663   -1.1002   -0.8086 S   0  0  0  0  0  0  0  0  0  0  0  0
    1.7025   -1.2092   -0.1540 H   0  0  0  0  0  0  0  0  0  0  0  0
    0.2619    0.7246   -1.2458 H   0  0  0  0  0  0  0  0  0  0  0  0
    0.0809    1.5982    0.2929 H   0  0  0  0  0  0  0  0  0  0  0  0
   -1.1456   -0.3126    1.2907 H   0  0  0  0  0  0  0  0  0  0  0  0
  1  2  1  0
  1  5  1  0
  2  3  1  0
  2  6  1  0
  2  7  1  0
  3  4  2  0
  3  8  1  0
M  END
>  <reaction>  (3) 
rxn_1202

>  <mol_properties>  (3) 
{"1": {"label": "acceptor", "atom_type": "Cs"}, "7": {"label": "a_hydrogen", "atom_type": "H0"}}

>  <type>  (3) 
r2h

$$$$

     RDKit          3D

 23 21  0  0  0  0  0  0  0  0999 V2000
   -1.9336    0.8505   -1.3426 S   0  0  0  0  0  0  0  0  0  0  0  0
   -0.6229    1.2159   -0.2235 C   0  0  0  0  0  0  0  0  0  0  0  0
    0.7187    1.4431   -0.6726 C   0  0  0  0  0  0  0  0  0  0  0  0
    1.3604    1.0387   -2.1216 S   0  0  0  0  0  0  0  0  0  0  0  0
   -1.1122    0.4718   -2.3412 H   0  0  0  0  0  0  0  0  0  0  0  0
   -0.9553    1.8421    0.6017 H   0  0  0  0  0  0  0  0  0  0  0  0
    1.3681    1.8712    0.0902 H   0  0  0  0  0  0  0  0  0  0  0  0
    0.6074   -2.4988   -0.6574 C   0  0  0  0  0  0  0  0  0  0  0  0
   -0.4098   -2.0244    0.0674 C   0  0  0  0  0  0  0  0  0  0  0  0
   -0.3120   -1.0842    1.1818 C   0  0  0  0  0  3  0  0  0  0  0  0
    1.0442   -0.8329    1.7891 C   0  0  0  0  0  0  0  0  0  0  0  0
   -1.4886   -1.0259    2.0558 C   0  0  0  0  0  0  0  0  0  0  0  0
   -1.5159   -0.6227    3.3261 C   0  0  0  0  0  0  0  0  0  0  0  0
    0.4258   -3.1652   -1.4899 H   0  0  0  0  0  0  0  0  0  0  0  0
    1.6395   -2.2480   -0.4504 H   0  0  0  0  0  0  0  0  0  0  0  0
   -1.4183   -2.3166   -0.2082 H   0  0  0  0  0  0  0  0  0  0  0  0
   -0.4631    0.0771    0.4789 H   0  0  0  0  0  0  0  0  0  0  0  0
    1.7916   -0.6492    1.0171 H   0  0  0  0  0  0  0  0  0  0  0  0
    1.0270    0.0396    2.4428 H   0  0  0  0  0  0  0  0  0  0  0  0
    1.3690   -1.6938    2.3783 H   0  0  0  0  0  0  0  0  0  0  0  0
   -2.4236   -1.3197    1.5867 H   0  0  0  0  0  0  0  0  0  0  0  0
   -0.6236   -0.3261    3.8630 H   0  0  0  0  0  0  0  0  0  0  0  0
   -2.4467   -0.5974    3.8770 H   0  0  0  0  0  0  0  0  0  0  0  0
  1  2  1  0
  1  5  1  0
  2  3  1  0
  2  6  1  0
  2 17  1  0
  3  4  2  0
  3  7  1  0
  8  9  2  3
  8 14  1  0
  8 15  1  0
  9 10  1  0
  9 16  1  0
 10 11  1  0
 10 12  1  0
 11 18  1  0
 11 19  1  0
 11 20  1  0
 12 13  2  3
 12 21  1  0
 13 22  1  0
 13 23  1  0
M  RAD  1  10   2
M  END
>  <reaction>  (4) 
rxn_1202

>  <mol_properties>  (4) 
{"1": {"label": "*1", "atom_type": "Cs"}, "2": {"label": "*0", "atom_type": "CS"}, "8": {"label": "*4", "atom_type": "Cd"}, "9": {"label": "*3", "atom_type": "Cs"}, "16": {"label": "*2", "atom_type": "H0"}}

>  <type>  (4) 
ts

$$$$

     RDKit          3D

 23 21  0  0  0  0  0  0  0  0999 V2000
   -1.2404    2.1071   -0.0443 S   0  0  0  0  0  0  0  0  0  0  0  0
    0.2212    1.0492   -0.2896 C   0  0  0  0  0  0  0  0  0  0  0  0
    0.8893    1.3966   -1.5755 C   0  0  0  0  0  0  0  0  0  0  0  0
    1.0245    0.4163   -2.8412 S   0  0  0  0  0  0  0  0  0  0  0  0
   -1.9144    1.6645   -1.1145 H   0  0  0  0  0  0  0  0  0  0  0  0
    0.8775    1.2869    0.5510 H   0  0  0  0  0  0  0  0  0  0  0  0
    1.2766    2.4151   -1.6214 H   0  0  0  0  0  0  0  0  0  0  0  0
    0.1483   -2.2620   -0.8909 C   0  0  0  0  0  0  0  0  0  0  0  0
    0.1483   -2.2620    0.4323 C   0  0  0  0  0  0  0  0  0  0  0  0
    0.1483   -1.0312    1.3017 C   0  0  0  0  0  3  0  0  0  0  0  0
    1.3867   -1.0014    2.1933 C   0  0  0  0  0  0  0  0  0  0  0  0
   -1.1552   -0.9626    2.0582 C   0  0  0  0  0  0  0  0  0  0  0  0
   -1.3099   -0.9624    3.3732 C   0  0  0  0  0  0  0  0  0  0  0  0
    0.1475   -3.1846   -1.4576 H   0  0  0  0  0  0  0  0  0  0  0  0
    0.1501   -1.3362   -1.4566 H   0  0  0  0  0  0  0  0  0  0  0  0
    0.1435   -3.2078    0.9699 H   0  0  0  0  0  0  0  0  0  0  0  0
    0.1849    0.0132    0.5029 H   0  0  0  0  0  0  0  0  0  0  0  0
    2.2894   -1.0098    1.5821 H   0  0  0  0  0  0  0  0  0  0  0  0
    1.4013   -0.1056    2.8164 H   0  0  0  0  0  0  0  0  0  0  0  0
    1.4192   -1.8732    2.8509 H   0  0  0  0  0  0  0  0  0  0  0  0
   -2.0384   -0.9269    1.4257 H   0  0  0  0  0  0  0  0  0  0  0  0
   -0.4695   -1.0017    4.0557 H   0  0  0  0  0  0  0  0  0  0  0  0
   -2.2963   -0.9193    3.8174 H   0  0  0  0  0  0  0  0  0  0  0  0
  1  2  1  0
  1  5  1  0
  2  3  1  0
  2  6  1  0
  2 17  1  0
  3  4  2  0
  3  7  1  0
  8  9  2  3
  8 14  1  0
  8 15  1  0
  9 10  1  0
  9 16  1  0
 10 11  1  0
 10 12  1  0
 11 18  1  0
 11 19  1  0
 11 20  1  0
 12 13  2  3
 12 21  1  0
 13 22  1  0
 13 23  1  0
M  RAD  1  10   2
M  END
>  <reaction>  (5) 
rxn_1202

>  <mol_properties>  (5) 
{"1": {"label": "*1", "atom_type": "Cs"}, "2": {"label": "*0", "atom_type": "CS"}, "8": {"label": "*4", "atom_type": "Cd"}, "9": {"label": "*3", "atom_type": "Cs"}, "16": {"label": "*2", "atom_type": "H0"}}

>  <type>  (5) 
unop_1

>  <geom_source>  (5) 
Heuristics

$$$$

     RDKit          3D

 23 21  0  0  0  0  0  0  0  0999 V2000
   -1.1121    0.7243   -2.0864 S   0  0  0  0  0  0  0  0  0  0  0  0
   -0.2930    1.0889   -0.5016 C   0  0  0  0  0  0  0  0  0  0  0  0
    0.9067    1.9416   -0.7346 C   0  0  0  0  0  0  0  0  0  0  0  0
    2.4241    1.5017   -0.4427 S   0  0  0  0  0  0  0  0  0  0  0  0
   -0.0883    0.0439   -2.6196 H   0  0  0  0  0  0  0  0  0  0  0  0
   -1.0400    1.6405    0.0741 H   0  0  0  0  0  0  0  0  0  0  0  0
    0.6875    2.9207   -1.1620 H   0  0  0  0  0  0  0  0  0  0  0  0
   -0.3659   -2.2223   -1.1030 C   0  0  0  0  0  0  0  0  0  0  0  0
   -0.3659   -2.2223    0.2203 C   0  0  0  0  0  0  0  0  0  0  0  0
   -0.3659   -0.9915    1.0897 C   0  0  0  0  0  3  0  0  0  0  0  0
    0.8725   -0.9617    1.9813 C   0  0  0  0  0  0  0  0  0  0  0  0
   -1.6694   -0.9229    1.8462 C   0  0  0  0  0  0  0  0  0  0  0  0
   -1.8240   -0.9227    3.1611 C   0  0  0  0  0  0  0  0  0  0  0  0
   -0.3666   -3.1449   -1.6697 H   0  0  0  0  0  0  0  0  0  0  0  0
   -0.3641   -1.2965   -1.6687 H   0  0  0  0  0  0  0  0  0  0  0  0
   -0.3706   -3.1681    0.7579 H   0  0  0  0  0  0  0  0  0  0  0  0
   -0.3293    0.0528    0.2908 H   0  0  0  0  0  0  0  0  0  0  0  0
    1.7752   -0.9701    1.3700 H   0  0  0  0  0  0  0  0  0  0  0  0
    0.8871   -0.0660    2.6044 H   0  0  0  0  0  0  0  0  0  0  0  0
    0.9051   -1.8335    2.6389 H   0  0  0  0  0  0  0  0  0  0  0  0
   -2.5526   -0.8872    1.2136 H   0  0  0  0  0  0  0  0  0  0  0  0
   -0.9837   -0.9620    3.8436 H   0  0  0  0  0  0  0  0  0  0  0  0
   -2.8104   -0.8796    3.6053 H   0  0  0  0  0  0  0  0  0  0  0  0
  1  2  1  0
  1  5  1  0
  2  3  1  0
  2  6  1  0
  2 17  1  0
  3  4  2  0
  3  7  1  0
  8  9  2  3
  8 14  1  0
  8 15  1  0
  9 10  1  0
  9 16  1  0
 10 11  1  0
 10 12  1  0
 11 18  1  0
 11 19  1  0
 11 20  1  0
 12 13  2  3
 12 21  1  0
 13 22  1  0
 13 23  1  0
M  RAD  1  10   2
M  END
>  <reaction>  (6) 
rxn_1202

>  <mol_properties>  (6) 
{"1": {"label": "*1", "atom_type": "Cs"}, "2": {"label": "*0", "atom_type": "CS"}, "8": {"label": "*4", "atom_type": "Cd"}, "9": {"label": "*3", "atom_type": "Cs"}, "16": {"label": "*2", "atom_type": "H0"}}

>  <type>  (6) 
unop_2

>  <geom_source>  (6) 
Heuristics

$$$$

     RDKit          3D

 23 21  0  0  0  0  0  0  0  0999 V2000
   -0.3854    2.4774    0.3666 S   0  0  0  0  0  0  0  0  0  0  0  0
    0.4593    1.0517   -0.3879 C   0  0  0  0  0  0  0  0  0  0  0  0
    0.4018    1.1554   -1.8734 C   0  0  0  0  0  0  0  0  0  0  0  0
   -0.3661    0.1295   -2.8425 S   0  0  0  0  0  0  0  0  0  0  0  0
   -1.5997    2.1970   -0.1258 H   0  0  0  0  0  0  0  0  0  0  0  0
    1.4938    1.1316   -0.0455 H   0  0  0  0  0  0  0  0  0  0  0  0
    0.9131    2.0266   -2.2845 H   0  0  0  0  0  0  0  0  0  0  0  0
    0.3864   -2.2595   -0.9892 C   0  0  0  0  0  0  0  0  0  0  0  0
    0.3864   -2.2595    0.3340 C   0  0  0  0  0  0  0  0  0  0  0  0
    0.3864   -1.0287    1.2034 C   0  0  0  0  0  3  0  0  0  0  0  0
    1.6248   -0.9989    2.0950 C   0  0  0  0  0  0  0  0  0  0  0  0
   -0.9171   -0.9601    1.9599 C   0  0  0  0  0  0  0  0  0  0  0  0
   -1.0717   -0.9599    3.2748 C   0  0  0  0  0  0  0  0  0  0  0  0
    0.3857   -3.1821   -1.5559 H   0  0  0  0  0  0  0  0  0  0  0  0
    0.3882   -1.3337   -1.5549 H   0  0  0  0  0  0  0  0  0  0  0  0
    0.3817   -3.2053    0.8716 H   0  0  0  0  0  0  0  0  0  0  0  0
    0.4230    0.0157    0.4046 H   0  0  0  0  0  0  0  0  0  0  0  0
    2.5275   -1.0073    1.4838 H   0  0  0  0  0  0  0  0  0  0  0  0
    1.6395   -0.1031    2.7181 H   0  0  0  0  0  0  0  0  0  0  0  0
    1.6574   -1.8707    2.7526 H   0  0  0  0  0  0  0  0  0  0  0  0
   -1.8003   -0.9244    1.3274 H   0  0  0  0  0  0  0  0  0  0  0  0
   -0.2314   -0.9992    3.9574 H   0  0  0  0  0  0  0  0  0  0  0  0
   -2.0581   -0.9168    3.7191 H   0  0  0  0  0  0  0  0  0  0  0  0
  1  2  1  0
  1  5  1  0
  2  3  1  0
  2  6  1  0
  2 17  1  0
  3  4  2  0
  3  7  1  0
  8  9  2  3
  8 14  1  0
  8 15  1  0
  9 10  1  0
  9 16  1  0
 10 11  1  0
 10 12  1  0
 11 18  1  0
 11 19  1  0
 11 20  1  0
 12 13  2  3
 12 21  1  0
 13 22  1  0
 13 23  1  0
M  RAD  1  10   2
M  END
>  <reaction>  (7) 
rxn_1202

>  <mol_properties>  (7) 
{"1": {"label": "*1", "atom_type": "Cs"}, "2": {"label": "*0", "atom_type": "CS"}, "8": {"label": "*4", "atom_type": "Cd"}, "9": {"label": "*3", "atom_type": "Cs"}, "16": {"label": "*2", "atom_type": "H0"}}

>  <type>  (7) 
unop_3

>  <geom_source>  (7) 
Heuristics

$$$$

     RDKit          3D

 23 21  0  0  0  0  0  0  0  0999 V2000
    1.2902    1.0484   -2.2494 S   0  0  0  0  0  0  0  0  0  0  0  0
   -0.2076    1.0737   -1.2143 C   0  0  0  0  0  0  0  0  0  0  0  0
    0.0484    1.8525    0.0302 C   0  0  0  0  0  0  0  0  0  0  0  0
    0.0352    1.2474    1.5184 S   0  0  0  0  0  0  0  0  0  0  0  0
    2.0555    0.3858   -1.3716 H   0  0  0  0  0  0  0  0  0  0  0  0
   -0.9573    1.5801   -1.8268 H   0  0  0  0  0  0  0  0  0  0  0  0
    0.2846    2.9040   -0.1368 H   0  0  0  0  0  0  0  0  0  0  0  0
   -0.2805   -2.2375   -1.8156 C   0  0  0  0  0  0  0  0  0  0  0  0
   -0.2805   -2.2375   -0.4924 C   0  0  0  0  0  0  0  0  0  0  0  0
   -0.2805   -1.0067    0.3770 C   0  0  0  0  0  3  0  0  0  0  0  0
    0.9579   -0.9769    1.2686 C   0  0  0  0  0  0  0  0  0  0  0  0
   -1.5840   -0.9381    1.1335 C   0  0  0  0  0  0  0  0  0  0  0  0
   -1.7386   -0.9379    2.4485 C   0  0  0  0  0  0  0  0  0  0  0  0
   -0.2812   -3.1601   -2.3823 H   0  0  0  0  0  0  0  0  0  0  0  0
   -0.2787   -1.3117   -2.3813 H   0  0  0  0  0  0  0  0  0  0  0  0
   -0.2852   -3.1833    0.0452 H   0  0  0  0  0  0  0  0  0  0  0  0
   -0.2439    0.0377   -0.4218 H   0  0  0  0  0  0  0  0  0  0  0  0
    1.8606   -0.9853    0.6574 H   0  0  0  0  0  0  0  0  0  0  0  0
    0.9726   -0.0811    1.8917 H   0  0  0  0  0  0  0  0  0  0  0  0
    0.9905   -1.8487    1.9262 H   0  0  0  0  0  0  0  0  0  0  0  0
   -2.4672   -0.9024    0.5010 H   0  0  0  0  0  0  0  0  0  0  0  0
   -0.8983   -0.9772    3.1310 H   0  0  0  0  0  0  0  0  0  0  0  0
   -2.7250   -0.8948    2.8927 H   0  0  0  0  0  0  0  0  0  0  0  0
  1  2  1  0
  1  5  1  0
  2  3  1  0
  2  6  1  0
  2 17  1  0
  3  4  2  0
  3  7  1  0
  8  9  2  3
  8 14  1  0
  8 15  1  0
  9 10  1  0
  9 16  1  0
 10 11  1  0
 10 12  1  0
 11 18  1  0
 11 19  1  0
 11 20  1  0
 12 13  2  3
 12 21  1  0
 13 22  1  0
 13 23  1  0
M  RAD  1  10   2
M  END
>  <reaction>  (8) 
rxn_1202

>  <mol_properties>  (8) 
{"1": {"label": "*1", "atom_type": "Cs"}, "2": {"label": "*0", "atom_type": "CS"}, "8": {"label": "*4", "atom_type": "Cd"}, "9": {"label": "*3", "atom_type": "Cs"}, "16": {"label": "*2", "atom_type": "H0"}}

>  <type>  (8) 
unop_4

>  <geom_source>  (8) 
Heuristics

$$$$

     RDKit          3D

 23 21  0  0  0  0  0  0  0  0999 V2000
    0.6726    2.6044    0.2075 S   0  0  0  0  0  0  0  0  0  0  0  0
    0.6693    1.0545   -0.7481 C   0  0  0  0  0  0  0  0  0  0  0  0
   -0.4695    1.0531   -1.7092 C   0  0  0  0  0  0  0  0  0  0  0  0
   -1.7112    0.0343   -1.6695 S   0  0  0  0  0  0  0  0  0  0  0  0
   -0.5095    2.4025    0.8052 H   0  0  0  0  0  0  0  0  0  0  0  0
    1.6181    1.0629   -1.2899 H   0  0  0  0  0  0  0  0  0  0  0  0
   -0.4243    1.8403   -2.4627 H   0  0  0  0  0  0  0  0  0  0  0  0
    0.5964   -2.2567   -1.3495 C   0  0  0  0  0  0  0  0  0  0  0  0
    0.5964   -2.2567   -0.0262 C   0  0  0  0  0  0  0  0  0  0  0  0
    0.5964   -1.0259    0.8432 C   0  0  0  0  0  3  0  0  0  0  0  0
    1.8348   -0.9961    1.7348 C   0  0  0  0  0  0  0  0  0  0  0  0
   -0.7071   -0.9573    1.5997 C   0  0  0  0  0  0  0  0  0  0  0  0
   -0.8617   -0.9571    2.9146 C   0  0  0  0  0  0  0  0  0  0  0  0
    0.5957   -3.1793   -1.9162 H   0  0  0  0  0  0  0  0  0  0  0  0
    0.5982   -1.3309   -1.9152 H   0  0  0  0  0  0  0  0  0  0  0  0
    0.5917   -3.2025    0.5114 H   0  0  0  0  0  0  0  0  0  0  0  0
    0.6330    0.0184    0.0443 H   0  0  0  0  0  0  0  0  0  0  0  0
    2.7376   -1.0045    1.1235 H   0  0  0  0  0  0  0  0  0  0  0  0
    1.8495   -0.1004    2.3579 H   0  0  0  0  0  0  0  0  0  0  0  0
    1.8674   -1.8679    2.3924 H   0  0  0  0  0  0  0  0  0  0  0  0
   -1.5903   -0.9216    0.9671 H   0  0  0  0  0  0  0  0  0  0  0  0
   -0.0213   -0.9964    3.5972 H   0  0  0  0  0  0  0  0  0  0  0  0
   -1.8481   -0.9140    3.3588 H   0  0  0  0  0  0  0  0  0  0  0  0
  1  2  1  0
  1  5  1  0
  2  3  1  0
  2  6  1  0
  2 17  1  0
  3  4  2  0
  3  7  1  0
  8  9  2  3
  8 14  1  0
  8 15  1  0
  9 10  1  0
  9 16  1  0
 10 11  1  0
 10 12  1  0
 11 18  1  0
 11 19  1  0
 11 20  1  0
 12 13  2  3
 12 21  1  0
 13 22  1  0
 13 23  1  0
M  RAD  1  10   2
M  END
>  <reaction>  (9) 
rxn_1202

>  <mol_properties>  (9) 
{"1": {"label": "*1", "atom_type": "Cs"}, "2": {"label": "*0", "atom_type": "CS"}, "8": {"label": "*4", "atom_type": "Cd"}, "9": {"label": "*3", "atom_type": "Cs"}, "16": {"label": "*2", "atom_type": "H0"}}

>  <type>  (9) 
unop_5

>  <geom_source>  (9) 
Heuristics

$$$$

     RDKit          3D

 23 22  0  0  0  0  0  0  0  0999 V2000
    1.7237    1.5451   -1.6792 S   0  0  0  0  0  0  0  0  0  0  0  0
    0.0056    1.0574   -1.3248 C   0  0  0  0  0  0  0  0  0  0  0  0
   -0.4424    1.6716   -0.0430 C   0  0  0  0  0  3  0  0  0  0  0  0
   -0.8366    0.8567    1.2843 S   0  0  0  0  0  0  0  0  0  0  0  0
    2.2617    0.9524   -0.6046 H   0  0  0  0  0  0  0  0  0  0  0  0
   -0.5733    1.4627   -2.1581 H   0  0  0  0  0  0  0  0  0  0  0  0
   -0.4619    2.7620   -0.0484 H   0  0  0  0  0  0  0  0  0  0  0  0
   -0.0673   -2.2537   -1.9261 C   0  0  0  0  0  3  0  0  0  0  0  0
   -0.0673   -2.2537   -0.6029 C   0  0  0  0  0  0  0  0  0  0  0  0
   -0.0673   -1.0229    0.2665 C   0  0  0  0  0  0  0  0  0  0  0  0
    1.1711   -0.9932    1.1581 C   0  0  0  0  0  0  0  0  0  0  0  0
   -1.3708   -0.9544    1.0230 C   0  0  0  0  0  0  0  0  0  0  0  0
   -1.5255   -0.9541    2.3380 C   0  0  0  0  0  3  0  0  0  0  0  0
   -0.0681   -3.1763   -2.4928 H   0  0  0  0  0  0  0  0  0  0  0  0
   -0.0655   -1.3279   -2.4918 H   0  0  0  0  0  0  0  0  0  0  0  0
   -0.0721   -3.1995   -0.0653 H   0  0  0  0  0  0  0  0  0  0  0  0
   -0.0307    0.0214   -0.5323 H   0  0  0  0  0  0  0  0  0  0  0  0
    2.0738   -1.0015    0.5469 H   0  0  0  0  0  0  0  0  0  0  0  0
    1.1857   -0.0974    1.7812 H   0  0  0  0  0  0  0  0  0  0  0  0
    1.2036   -1.8649    1.8157 H   0  0  0  0  0  0  0  0  0  0  0  0
   -2.2540   -0.9186    0.3905 H   0  0  0  0  0  0  0  0  0  0  0  0
   -0.6851   -0.9935    3.0205 H   0  0  0  0  0  0  0  0  0  0  0  0
   -2.5119   -0.9110    2.7822 H   0  0  0  0  0  0  0  0  0  0  0  0
  1  2  1  0
  1  5  1  0
  2  3  1  0
  2  6  1  0
  2 17  1  0
  3  4  1  0
  3  7  1  0
  4 12  1  0
  8  9  1  0
  8 14  1  0
  8 15  1  0
  9 10  2  3
  9 16  1  0
 10 11  1  0
 10 12  1  0
 11 18  1  0
 11 19  1  0
 11 20  1  0
 12 13  1  0
 12 21  1  0
 13 22  1  0
 13 23  1  0
M  CHG  2   8   1  13  -1
M  RAD  1   3   2
M  END
>  <reaction>  (10) 
rxn_1202

>  <mol_properties>  (10) 
{"1": {"label": "*1", "atom_type": "Cs"}, "2": {"label": "*0", "atom_type": "CS"}, "8": {"label": "*4", "atom_type": "Cd"}, "9": {"label": "*3", "atom_type": "Cs"}, "16": {"label": "*2", "atom_type": "H0"}}

>  <type>  (10) 
unop_6

>  <geom_source>  (10) 
Heuristics

$$$$

     RDKit          3D

 23 21  0  0  0  0  0  0  0  0999 V2000
    1.7419    2.0579   -1.0131 S   0  0  0  0  0  0  0  0  0  0  0  0
    0.2589    1.0496   -1.3286 C   0  0  0  0  0  0  0  0  0  0  0  0
   -0.8222    1.4242   -0.3738 C   0  0  0  0  0  2  0  0  0  0  0  0
   -1.4429    0.4542    0.7466 S   0  0  0  0  0  1  0  0  0  0  0  0
    1.9626    1.5981    0.2259 H   0  0  0  0  0  0  0  0  0  0  0  0
   -0.0360    1.3052   -2.3491 H   0  0  0  0  0  0  0  0  0  0  0  0
   -1.1665    2.4550   -0.4647 H   0  0  0  0  0  0  0  0  0  0  0  0
    0.1860   -2.2616   -1.9299 C   0  0  0  0  0  0  0  0  0  0  0  0
    0.1860   -2.2616   -0.6067 C   0  0  0  0  0  0  0  0  0  0  0  0
    0.1860   -1.0308    0.2627 C   0  0  0  0  0  3  0  0  0  0  0  0
    1.4244   -1.0010    1.1543 C   0  0  0  0  0  0  0  0  0  0  0  0
   -1.1175   -0.9622    1.0192 C   0  0  0  0  0  0  0  0  0  0  0  0
   -1.2721   -0.9620    2.3342 C   0  0  0  0  0  3  0  0  0  0  0  0
    0.1853   -3.1842   -2.4966 H   0  0  0  0  0  0  0  0  0  0  0  0
    0.1878   -1.3358   -2.4956 H   0  0  0  0  0  0  0  0  0  0  0  0
    0.1813   -3.2074   -0.0691 H   0  0  0  0  0  0  0  0  0  0  0  0
    0.2226    0.0136   -0.5361 H   0  0  0  0  0  0  0  0  0  0  0  0
    2.3272   -1.0094    0.5431 H   0  0  0  0  0  0  0  0  0  0  0  0
    1.4391   -0.1052    1.7774 H   0  0  0  0  0  0  0  0  0  0  0  0
    1.4570   -1.8728    1.8119 H   0  0  0  0  0  0  0  0  0  0  0  0
   -2.0007   -0.9265    0.3867 H   0  0  0  0  0  0  0  0  0  0  0  0
   -0.4318   -1.0013    3.0167 H   0  0  0  0  0  0  0  0  0  0  0  0
   -2.2585   -0.9189    2.7784 H   0  0  0  0  0  0  0  0  0  0  0  0
  1  2  1  0
  1  5  1  0
  2  3  1  0
  2  6  1  0
  2 17  1  0
  3  7  1  0
  4 12  1  0
  8  9  2  3
  8 14  1  0
  8 15  1  0
  9 10  1  0
  9 16  1  0
 10 11  1  0
 10 12  1  0
 11 18  1  0
 11 19  1  0
 11 20  1  0
 12 13  1  0
 12 21  1  0
 13 22  1  0
 13 23  1  0
M  CHG  2   4  -1  13   1
M  RAD  2   3   3  10   2
M  END
>  <reaction>  (11) 
rxn_1202

>  <mol_properties>  (11) 
{"1": {"label": "*1", "atom_type": "Cs"}, "2": {"label": "*0", "atom_type": "CS"}, "8": {"label": "*4", "atom_type": "Cd"}, "9": {"label": "*3", "atom_type": "Cs"}, "16": {"label": "*2", "atom_type": "H0"}}

>  <type>  (11) 
unop_7

>  <geom_source>  (11) 
Heuristics

$$$$

     RDKit          3D

 23 21  0  0  0  0  0  0  0  0999 V2000
   -1.6443    1.6008   -0.7285 S   0  0  0  0  0  0  0  0  0  0  0  0
    0.0376    1.0559   -0.2931 C   0  0  0  0  0  0  0  0  0  0  0  0
    1.0242    1.6482   -1.2399 C   0  0  0  0  0  0  0  0  0  0  0  0
    1.9378    0.8136   -2.2647 S   0  0  0  0  0  0  0  0  0  0  0  0
   -1.6713    1.0198   -1.9356 H   0  0  0  0  0  0  0  0  0  0  0  0
    0.2019    1.4469    0.7139 H   0  0  0  0  0  0  0  0  0  0  0  0
    1.0737    2.7374   -1.2163 H   0  0  0  0  0  0  0  0  0  0  0  0
   -0.0353   -2.2553   -0.8944 C   0  0  0  0  0  0  0  0  0  0  0  0
   -0.0353   -2.2553    0.4288 C   0  0  0  0  0  0  0  0  0  0  0  0
   -0.0353   -1.0245    1.2982 C   0  0  0  0  0  3  0  0  0  0  0  0
    1.2031   -0.9947    2.1898 C   0  0  0  0  0  0  0  0  0  0  0  0
   -1.3388   -0.9559    2.0547 C   0  0  0  0  0  0  0  0  0  0  0  0
   -1.4934   -0.9557    3.3697 C   0  0  0  0  0  0  0  0  0  0  0  0
   -0.0360   -3.1779   -1.4611 H   0  0  0  0  0  0  0  0  0  0  0  0
   -0.0335   -1.3295   -1.4601 H   0  0  0  0  0  0  0  0  0  0  0  0
   -0.0400   -3.2011    0.9664 H   0  0  0  0  0  0  0  0  0  0  0  0
    0.0013    0.0198    0.4994 H   0  0  0  0  0  0  0  0  0  0  0  0
    2.1059   -1.0031    1.5786 H   0  0  0  0  0  0  0  0  0  0  0  0
    1.2178   -0.0990    2.8129 H   0  0  0  0  0  0  0  0  0  0  0  0
    1.2357   -1.8665    2.8474 H   0  0  0  0  0  0  0  0  0  0  0  0
   -2.2219   -0.9202    1.4222 H   0  0  0  0  0  0  0  0  0  0  0  0
   -0.6530   -0.9950    4.0522 H   0  0  0  0  0  0  0  0  0  0  0  0
   -2.4798   -0.9126    3.8139 H   0  0  0  0  0  0  0  0  0  0  0  0
  1  2  1  0
  1  5  1  0
  2  3  1  0
  2  6  1  0
  2 17  1  0
  3  4  2  0
  3  7  1  0
  8  9  2  3
  8 14  1  0
  8 15  1  0
  9 10  1  0
  9 16  1  0
 10 11  1  0
 10 12  1  0
 11 18  1  0
 11 19  1  0
 11 20  1  0
 12 13  2  3
 12 21  1  0
 13 22  1  0
 13 23  1  0
M  RAD  1  10   2
M  END
>  <reaction>  (12) 
rxn_1202

>  <mol_properties>  (12) 
{"1": {"label": "*1", "atom_type": "Cs"}, "2": {"label": "*0", "atom_type": "CS"}, "8": {"label": "*4", "atom_type": "Cd"}, "9": {"label": "*3", "atom_type": "Cs"}, "16": {"label": "*2", "atom_type": "H0"}}

>  <type>  (12) 
unop_8

>  <geom_source>  (12) 
Heuristics

$$$$

     RDKit          3D

 23 21  0  0  0  0  0  0  0  0999 V2000
    0.5254    0.6973   -2.5529 S   0  0  0  0  0  0  0  0  0  0  0  0
   -0.3555    1.0904   -1.0086 C   0  0  0  0  0  0  0  0  0  0  0  0
    0.4999    1.9479   -0.1403 C   0  0  0  0  0  0  0  0  0  0  0  0
    1.0769    1.5226    1.2976 S   0  0  0  0  0  0  0  0  0  0  0  0
    1.5240    0.0162   -1.9746 H   0  0  0  0  0  0  0  0  0  0  0  0
   -1.2403    1.6453   -1.3297 H   0  0  0  0  0  0  0  0  0  0  0  0
    0.7476    2.9191   -0.5701 H   0  0  0  0  0  0  0  0  0  0  0  0
   -0.4284   -2.2207   -1.6099 C   0  0  0  0  0  0  0  0  0  0  0  0
   -0.4284   -2.2207   -0.2867 C   0  0  0  0  0  0  0  0  0  0  0  0
   -0.4284   -0.9900    0.5827 C   0  0  0  0  0  3  0  0  0  0  0  0
    0.8099   -0.9602    1.4743 C   0  0  0  0  0  0  0  0  0  0  0  0
   -1.7319   -0.9214    1.3392 C   0  0  0  0  0  0  0  0  0  0  0  0
   -1.8866   -0.9211    2.6542 C   0  0  0  0  0  0  0  0  0  0  0  0
   -0.4292   -3.1434   -2.1766 H   0  0  0  0  0  0  0  0  0  0  0  0
   -0.4267   -1.2950   -2.1756 H   0  0  0  0  0  0  0  0  0  0  0  0
   -0.4332   -3.1666    0.2510 H   0  0  0  0  0  0  0  0  0  0  0  0
   -0.3918    0.0544   -0.2161 H   0  0  0  0  0  0  0  0  0  0  0  0
    1.7127   -0.9685    0.8631 H   0  0  0  0  0  0  0  0  0  0  0  0
    0.8246   -0.0644    2.0974 H   0  0  0  0  0  0  0  0  0  0  0  0
    0.8425   -1.8319    2.1319 H   0  0  0  0  0  0  0  0  0  0  0  0
   -2.6151   -0.8857    0.7067 H   0  0  0  0  0  0  0  0  0  0  0  0
   -1.0462   -0.9605    3.3367 H   0  0  0  0  0  0  0  0  0  0  0  0
   -2.8730   -0.8780    3.0984 H   0  0  0  0  0  0  0  0  0  0  0  0
  1  2  1  0
  1  5  1  0
  2  3  1  0
  2  6  1  0
  2 17  1  0
  3  4  2  0
  3  7  1  0
  8  9  2  3
  8 14  1  0
  8 15  1  0
  9 10  1  0
  9 16  1  0
 10 11  1  0
 10 12  1  0
 11 18  1  0
 11 19  1  0
 11 20  1  0
 12 13  2  3
 12 21  1  0
 13 22  1  0
 13 23  1  0
M  RAD  1  10   2
M  END
>  <reaction>  (13) 
rxn_1202

>  <mol_properties>  (13) 
{"1": {"label": "*1", "atom_type": "Cs"}, "2": {"label": "*0", "atom_type": "CS"}, "8": {"label": "*4", "atom_type": "Cd"}, "9": {"label": "*3", "atom_type": "Cs"}, "16": {"label": "*2", "atom_type": "H0"}}

>  <type>  (13) 
unop_9

>  <geom_source>  (13) 
Heuristics

$$$$

     RDKit          3D

 23 21  0  0  0  0  0  0  0  0999 V2000
   -1.5791    1.0959   -1.4616 S   0  0  0  0  0  0  0  0  0  0  0  0
   -0.1323    1.0716   -0.3563 C   0  0  0  0  0  0  0  0  0  0  0  0
    0.9886    1.8377   -0.9705 C   0  0  0  0  0  0  0  0  0  0  0  0
    2.3954    1.2106   -1.4277 S   0  0  0  0  0  0  0  0  0  0  0  0
   -0.9942    0.4381   -2.4718 H   0  0  0  0  0  0  0  0  0  0  0  0
   -0.4731    1.5696    0.5546 H   0  0  0  0  0  0  0  0  0  0  0  0
    0.7791    2.8967   -1.1254 H   0  0  0  0  0  0  0  0  0  0  0  0
   -0.2052   -2.2396   -0.9576 C   0  0  0  0  0  0  0  0  0  0  0  0
   -0.2052   -2.2396    0.3656 C   0  0  0  0  0  0  0  0  0  0  0  0
   -0.2052   -1.0088    1.2350 C   0  0  0  0  0  3  0  0  0  0  0  0
    1.0331   -0.9790    2.1266 C   0  0  0  0  0  0  0  0  0  0  0  0
   -1.5088   -0.9402    1.9915 C   0  0  0  0  0  0  0  0  0  0  0  0
   -1.6634   -0.9400    3.3065 C   0  0  0  0  0  0  0  0  0  0  0  0
   -0.2060   -3.1622   -1.5243 H   0  0  0  0  0  0  0  0  0  0  0  0
   -0.2035   -1.3138   -1.5233 H   0  0  0  0  0  0  0  0  0  0  0  0
   -0.2100   -3.1854    0.9032 H   0  0  0  0  0  0  0  0  0  0  0  0
   -0.1686    0.0355    0.4362 H   0  0  0  0  0  0  0  0  0  0  0  0
    1.9359   -0.9874    1.5154 H   0  0  0  0  0  0  0  0  0  0  0  0
    1.0478   -0.0833    2.7497 H   0  0  0  0  0  0  0  0  0  0  0  0
    1.0657   -1.8508    2.7842 H   0  0  0  0  0  0  0  0  0  0  0  0
   -2.3919   -0.9045    1.3590 H   0  0  0  0  0  0  0  0  0  0  0  0
   -0.8230   -0.9793    3.9890 H   0  0  0  0  0  0  0  0  0  0  0  0
   -2.6498   -0.8969    3.7507 H   0  0  0  0  0  0  0  0  0  0  0  0
  1  2  1  0
  1  5  1  0
  2  3  1  0
  2  6  1  0
  2 17  1  0
  3  4  2  0
  3  7  1  0
  8  9  2  3
  8 14  1  0
  8 15  1  0
  9 10  1  0
  9 16  1  0
 10 11  1  0
 10 12  1  0
 11 18  1  0
 11 19  1  0
 11 20  1  0
 12 13  2  3
 12 21  1  0
 13 22  1  0
 13 23  1  0
M  RAD  1  10   2
M  END
>  <reaction>  (14) 
rxn_1202

>  <mol_properties>  (14) 
{"1": {"label": "*1", "atom_type": "Cs"}, "2": {"label": "*0", "atom_type": "CS"}, "8": {"label": "*4", "atom_type": "Cd"}, "9": {"label": "*3", "atom_type": "Cs"}, "16": {"label": "*2", "atom_type": "H0"}}

>  <type>  (14) 
unop_10

>  <geom_source>  (14) 
Heuristics

$$$$

     RDKit          3D

 23 21  0  0  0  0  0  0  0  0999 V2000
    1.3897    2.4483   -0.3741 S   0  0  0  0  0  0  0  0  0  0  0  0
    0.5344    1.0512   -1.1691 C   0  0  0  0  0  0  0  0  0  0  0  0
   -0.9370    1.1770   -0.9697 C   0  0  0  0  0  0  0  0  0  0  0  0
   -1.8472    0.1517   -0.1321 S   0  0  0  0  0  0  0  0  0  0  0  0
    1.0090    2.1522    0.8760 H   0  0  0  0  0  0  0  0  0  0  0  0
    0.7793    1.1458   -2.2297 H   0  0  0  0  0  0  0  0  0  0  0  0
   -1.3792    2.0643   -1.4243 H   0  0  0  0  0  0  0  0  0  0  0  0
    0.4615   -2.2599   -1.7704 C   0  0  0  0  0  0  0  0  0  0  0  0
    0.4615   -2.2599   -0.4472 C   0  0  0  0  0  0  0  0  0  0  0  0
    0.4615   -1.0292    0.4222 C   0  0  0  0  0  3  0  0  0  0  0  0
    1.6999   -0.9994    1.3138 C   0  0  0  0  0  0  0  0  0  0  0  0
   -0.8420   -0.9606    1.1787 C   0  0  0  0  0  0  0  0  0  0  0  0
   -0.9966   -0.9603    2.4937 C   0  0  0  0  0  0  0  0  0  0  0  0
    0.4608   -3.1826   -2.3371 H   0  0  0  0  0  0  0  0  0  0  0  0
    0.4633   -1.3342   -2.3361 H   0  0  0  0  0  0  0  0  0  0  0  0
    0.4568   -3.2058    0.0904 H   0  0  0  0  0  0  0  0  0  0  0  0
    0.4981    0.0152   -0.3766 H   0  0  0  0  0  0  0  0  0  0  0  0
    2.6027   -1.0077    0.7026 H   0  0  0  0  0  0  0  0  0  0  0  0
    1.7146   -0.1036    1.9369 H   0  0  0  0  0  0  0  0  0  0  0  0
    1.7325   -1.8711    1.9714 H   0  0  0  0  0  0  0  0  0  0  0  0
   -1.7252   -0.9249    0.5462 H   0  0  0  0  0  0  0  0  0  0  0  0
   -0.1563   -0.9997    3.1762 H   0  0  0  0  0  0  0  0  0  0  0  0
   -1.9830   -0.9172    2.9379 H   0  0  0  0  0  0  0  0  0  0  0  0
  1  2  1  0
  1  5  1  0
  2  3  1  0
  2  6  1  0
  2 17  1  0
  3  4  2  0
  3  7  1  0
  8  9  2  3
  8 14  1  0
  8 15  1  0
  9 10  1  0
  9 16  1  0
 10 11  1  0
 10 12  1  0
 11 18  1  0
 11 19  1  0
 11 20  1  0
 12 13  2  3
 12 21  1  0
 13 22  1  0
 13 23  1  0
M  RAD  1  10   2
M  END
>  <reaction>  (15) 
rxn_1202

>  <mol_properties>  (15) 
{"1": {"label": "*1", "atom_type": "Cs"}, "2": {"label": "*0", "atom_type": "CS"}, "8": {"label": "*4", "atom_type": "Cd"}, "9": {"label": "*3", "atom_type": "Cs"}, "16": {"label": "*2", "atom_type": "H0"}}

>  <type>  (15) 
unop_11

>  <geom_source>  (15) 
Heuristics

$$$$

     RDKit          3D

 23 21  0  0  0  0  0  0  0  0999 V2000
   -0.3558    0.5798   -2.4864 S   0  0  0  0  0  0  0  0  0  0  0  0
   -0.3887    1.0971   -0.7409 C   0  0  0  0  0  0  0  0  0  0  0  0
    0.7808    1.9733   -0.4489 C   0  0  0  0  0  0  0  0  0  0  0  0
    1.9742    1.6145    0.5651 S   0  0  0  0  0  0  0  0  0  0  0  0
    0.7954   -0.1014   -2.4086 H   0  0  0  0  0  0  0  0  0  0  0  0
   -1.3174    1.6637   -0.6389 H   0  0  0  0  0  0  0  0  0  0  0  0
    0.7959    2.9072   -1.0119 H   0  0  0  0  0  0  0  0  0  0  0  0
   -0.4616   -2.2141   -1.3422 C   0  0  0  0  0  0  0  0  0  0  0  0
   -0.4616   -2.2141   -0.0190 C   0  0  0  0  0  0  0  0  0  0  0  0
   -0.4616   -0.9833    0.8504 C   0  0  0  0  0  3  0  0  0  0  0  0
    0.7767   -0.9535    1.7420 C   0  0  0  0  0  0  0  0  0  0  0  0
   -1.7651   -0.9147    1.6069 C   0  0  0  0  0  0  0  0  0  0  0  0
   -1.9198   -0.9145    2.9219 C   0  0  0  0  0  0  0  0  0  0  0  0
   -0.4624   -3.1367   -1.9089 H   0  0  0  0  0  0  0  0  0  0  0  0
   -0.4599   -1.2883   -1.9079 H   0  0  0  0  0  0  0  0  0  0  0  0
   -0.4664   -3.1599    0.5186 H   0  0  0  0  0  0  0  0  0  0  0  0
   -0.4250    0.0611    0.0516 H   0  0  0  0  0  0  0  0  0  0  0  0
    1.6795   -0.9619    1.1308 H   0  0  0  0  0  0  0  0  0  0  0  0
    0.7914   -0.0577    2.3651 H   0  0  0  0  0  0  0  0  0  0  0  0
    0.8093   -1.8253    2.3996 H   0  0  0  0  0  0  0  0  0  0  0  0
   -2.6483   -0.8790    0.9744 H   0  0  0  0  0  0  0  0  0  0  0  0
   -1.0794   -0.9538    3.6044 H   0  0  0  0  0  0  0  0  0  0  0  0
   -2.9062   -0.8714    3.3661 H   0  0  0  0  0  0  0  0  0  0  0  0
  1  2  1  0
  1  5  1  0
  2  3  1  0
  2  6  1  0
  2 17  1  0
  3  4  2  0
  3  7  1  0
  8  9  2  3
  8 14  1  0
  8 15  1  0
  9 10  1  0
  9 16  1  0
 10 11  1  0
 10 12  1  0
 11 18  1  0
 11 19  1  0
 11 20  1  0
 12 13  2  3
 12 21  1  0
 13 22  1  0
 13 23  1  0
M  RAD  1  10   2
M  END
>  <reaction>  (16) 
rxn_1202

>  <mol_properties>  (16) 
{"1": {"label": "*1", "atom_type": "Cs"}, "2": {"label": "*0", "atom_type": "CS"}, "8": {"label": "*4", "atom_type": "Cd"}, "9": {"label": "*3", "atom_type": "Cs"}, "16": {"label": "*2", "atom_type": "H0"}}

>  <type>  (16) 
unop_12

>  <geom_source>  (16) 
Heuristics

$$$$

     RDKit          3D

 23 21  0  0  0  0  0  0  0  0999 V2000
    2.2853    0.3388    1.6175 S   0  0  0  0  0  0  0  0  0  0  0  0
    3.9845   -0.6070   -1.1709 S   0  0  0  0  0  1  0  0  0  0  0  0
    1.7603    0.0777   -0.1055 C   0  0  0  0  0  0  0  0  0  0  0  0
   -2.0589   -0.7266   -1.1436 C   0  0  0  0  0  0  0  0  0  0  0  0
   -0.8124   -0.2622   -0.3913 C   0  0  0  0  0  0  0  0  0  0  0  0
   -0.4944    1.1900   -0.6353 C   0  0  0  0  0  0  0  0  0  0  0  0
   -0.8979   -0.5741    1.0747 C   0  0  0  0  0  0  0  0  0  0  0  0
    2.6403   -0.9328   -0.7791 C   0  0  0  0  0  0  0  0  0  0  0  0
   -1.3161    2.1808   -0.2707 C   0  0  0  0  0  0  0  0  0  0  0  0
    0.0319   -1.3280    1.6619 C   0  0  0  0  0  0  0  0  0  0  0  0
    1.7785    1.0433   -0.6561 H   0  0  0  0  0  0  0  0  0  0  0  0
    0.4827   -0.3865   -0.0995 H   0  0  0  0  0  0  0  0  0  0  0  0
   -2.9679   -0.2157   -0.7604 H   0  0  0  0  0  0  0  0  0  0  0  0
   -1.9484   -0.5092   -2.2269 H   0  0  0  0  0  0  0  0  0  0  0  0
   -2.1835   -1.8231   -1.0195 H   0  0  0  0  0  0  0  0  0  0  0  0
    0.4459    1.4346   -1.1187 H   0  0  0  0  0  0  0  0  0  0  0  0
   -1.7164   -0.1736    1.6662 H   0  0  0  0  0  0  0  0  0  0  0  0
    2.2189   -1.8868   -1.0770 H   0  0  0  0  0  0  0  0  0  0  0  0
   -2.2606    1.9741    0.2228 H   0  0  0  0  0  0  0  0  0  0  0  0
   -1.0408    3.2123   -0.4644 H   0  0  0  0  0  0  0  0  0  0  0  0
    0.8621   -1.7341    1.0917 H   0  0  0  0  0  0  0  0  0  0  0  0
   -0.0344   -1.5435    2.7234 H   0  0  0  0  0  0  0  0  0  0  0  0
    1.2413    1.2512    1.8607 H   0  0  0  0  0  0  0  0  0  0  0  0
  1  3  1  0
  1 23  1  0
  2  8  1  0
  3  8  2  3
  3 11  1  0
  4  5  1  0
  4 13  1  0
  4 14  1  0
  4 15  1  0
  5  6  1  0
  5  7  1  0
  5 12  1  0
  6  9  2  3
  6 16  1  0
  7 10  2  3
  7 17  1  0
  8 18  1  0
  9 19  1  0
  9 20  1  0
 10 21  1  0
 10 22  1  0
M  RAD  1   2   2
M  END
>  <reaction>  (17) 
rxn_1202

>  <mol_properties>  (17) 
{"1": {"label": "*1", "atom_type": "Cs"}, "2": {"label": "*0", "atom_type": "CS"}, "8": {"label": "*4", "atom_type": "Cd"}, "9": {"label": "*3", "atom_type": "Cs"}, "16": {"label": "*2", "atom_type": "H0"}}

>  <type>  (17) 
unop_13

>  <geom_source>  (17) 
AutoTST

$$$$
