
     RDKit          3D

 12 11  0  0  0  0  0  0  0  0999 V2000
    1.2394   -0.3763   -0.3020 C   0  0  0  0  0  0  0  0  0  0  0  0
    0.1007    0.3023    0.4464 C   0  0  0  0  0  0  0  0  0  0  0  0
   -0.1187    2.0399   -0.0725 S   0  0  0  0  0  0  0  0  0  0  0  0
   -1.1974   -0.4877    0.3552 C   0  0  0  0  0  0  0  0  0  0  0  0
    2.1681    0.1849   -0.2048 H   0  0  0  0  0  0  0  0  0  0  0  0
    1.0031   -0.4606   -1.3656 H   0  0  0  0  0  0  0  0  0  0  0  0
    1.3994   -1.3856    0.0860 H   0  0  0  0  0  0  0  0  0  0  0  0
    0.3796    0.4050    1.4981 H   0  0  0  0  0  0  0  0  0  0  0  0
   -0.4500    1.7779   -1.3452 H   0  0  0  0  0  0  0  0  0  0  0  0
   -1.0545   -1.4978    0.7479 H   0  0  0  0  0  0  0  0  0  0  0  0
   -1.5206   -0.5759   -0.6849 H   0  0  0  0  0  0  0  0  0  0  0  0
   -1.9957   -0.0054    0.9183 H   0  0  0  0  0  0  0  0  0  0  0  0
  1  2  1  0
  1  5  1  0
  1  6  1  0
  1  7  1  0
  2  4  1  0
  2  3  1  0
  2  8  1  0
  3  9  1  0
  4 10  1  0
  4 11  1  0
  4 12  1  0
M  END
>  <reaction>  (1) 
rxn_1936

>  <mol_properties>  (1) 
{"1": {"label": "donator", "atom_type": "Cs"}, "7": {"label": "d_hydrogen", "atom_type": "H0"}}

>  <type>  (1) 
r1h

$$$$

     RDKit          3D

  7  6  0  0  0  0  0  0  0  0999 V2000
   -1.3496    0.0255    0.0758 C   0  0  0  0  0  0  0  0  0  0  0  0
   -0.0636   -0.0704   -0.0033 C   0  0  0  0  0  0  0  0  0  0  0  0
    1.2597   -0.1602   -0.0839 C   0  0  0  0  0  0  0  0  0  0  0  0
    2.2616    1.2090   -0.0064 S   0  0  0  0  0  1  0  0  0  0  0  0
   -1.8547   -0.0180    1.0345 H   0  0  0  0  0  0  0  0  0  0  0  0
   -1.9552    0.1601   -0.8138 H   0  0  0  0  0  0  0  0  0  0  0  0
    1.7017   -1.1460   -0.2029 H   0  0  0  0  0  0  0  0  0  0  0  0
  1  2  2  0
  1  5  1  0
  1  6  1  0
  2  3  2  0
  3  4  1  0
  3  7  1  0
M  RAD  1   4   2
M  END
>  <reaction>  (2) 
rxn_1936

>  <mol_properties>  (2) 
{"1": {"label": "acceptor", "atom_type": "Cd"}}

>  <type>  (2) 
r2

$$$$

     RDKit          3D

  8  7  0  0  0  0  0  0  0  0999 V2000
   -1.1617    0.0338    0.5053 C   0  0  0  0  0  0  0  0  0  0  0  0
   -0.1023    0.4503   -0.1863 C   0  0  0  0  0  0  0  0  0  0  0  0
    1.0978   -0.3557   -0.3104 C   0  0  0  0  0  0  0  0  0  0  0  0
    2.4251    0.0667   -1.1256 S   0  0  0  0  0  0  0  0  0  0  0  0
   -1.1653   -0.9292    1.0039 H   0  0  0  0  0  0  0  0  0  0  0  0
   -2.0546    0.6389    0.5948 H   0  0  0  0  0  0  0  0  0  0  0  0
   -0.0991    1.4132   -0.6847 H   0  0  0  0  0  0  0  0  0  0  0  0
    1.0601   -1.3180    0.2032 H   0  0  0  0  0  0  0  0  0  0  0  0
  1  2  2  3
  1  5  1  0
  1  6  1  0
  2  3  1  0
  2  7  1  0
  3  4  2  0
  3  8  1  0
M  END
>  <reaction>  (3) 
rxn_1936

>  <mol_properties>  (3) 
{"0": {"label": "a_hydrogen", "atom_type": "H0"}, "2": {"label": "acceptor", "atom_type": "Cd"}}

>  <type>  (3) 
r2h

$$$$

     RDKit          3D

 19 17  0  0  0  0  0  0  0  0999 V2000
    0.4696    0.6653   -2.6710 C   0  0  0  0  0  0  0  0  0  0  0  0
    0.6298    0.7714   -1.1747 C   0  0  0  0  0  3  0  0  0  0  0  0
    1.9805   -0.2145   -0.5909 S   0  0  0  0  0  0  0  0  0  0  0  0
    0.4998    2.1561   -0.5956 C   0  0  0  0  0  0  0  0  0  0  0  0
    0.4677   -0.3728   -3.0051 H   0  0  0  0  0  0  0  0  0  0  0  0
    1.2822    1.1895   -3.1834 H   0  0  0  0  0  0  0  0  0  0  0  0
   -0.4693    1.1284   -2.9778 H   0  0  0  0  0  0  0  0  0  0  0  0
   -0.4491    0.1310   -0.6753 H   0  0  0  0  0  0  0  0  0  0  0  0
    1.9332    0.1805    0.6887 H   0  0  0  0  0  0  0  0  0  0  0  0
   -0.4268    2.6172   -0.9430 H   0  0  0  0  0  0  0  0  0  0  0  0
    1.3381    2.7834   -0.9130 H   0  0  0  0  0  0  0  0  0  0  0  0
    0.4731    2.1293    0.4939 H   0  0  0  0  0  0  0  0  0  0  0  0
   -2.6297   -0.0245   -0.7753 C   0  0  0  0  0  0  0  0  0  0  0  0
   -1.5375   -0.3338   -0.1106 C   0  0  0  0  0  0  0  0  0  0  0  0
   -1.1882   -0.9811    1.0966 C   0  0  0  0  0  0  0  0  0  0  0  0
   -0.6684   -0.2064    2.4452 S   0  0  0  0  0  0  0  0  0  0  0  0
   -3.6165   -0.2475   -0.3834 H   0  0  0  0  0  0  0  0  0  0  0  0
   -2.5822    0.4817   -1.7324 H   0  0  0  0  0  0  0  0  0  0  0  0
   -1.1922   -2.0713    1.0736 H   0  0  0  0  0  0  0  0  0  0  0  0
  1  2  1  0
  1  5  1  0
  1  6  1  0
  1  7  1  0
  2  4  1  0
  2  3  1  0
  3  9  1  0
  4 10  1  0
  4 11  1  0
  4 12  1  0
  8 14  1  0
 13 14  2  3
 13 17  1  0
 13 18  1  0
 14 15  1  0
 15 16  2  0
 15 19  1  0
M  RAD  1   2   2
M  END
>  <reaction>  (4) 
rxn_1936

>  <mol_properties>  (4) 
{"1": {"label": "*3", "atom_type": "Cs"}, "2": {"label": "*4", "atom_type": "S2s"}, "7": {"label": "*2", "atom_type": "H0"}, "13": {"label": "*1", "atom_type": "Cd"}, "14": {"label": "*0", "atom_type": "CS"}}

>  <type>  (4) 
ts

$$$$

     RDKit          3D

 19 17  0  0  0  0  0  0  0  0999 V2000
    1.0430    0.1734   -1.9713 C   0  0  0  0  0  0  0  0  0  0  0  0
    1.0430    0.1734   -0.4490 C   0  0  0  0  0  3  0  0  0  0  0  0
    2.3980   -0.8430    0.2346 S   0  0  0  0  0  0  0  0  0  0  0  0
    1.0430    1.5834    0.1251 C   0  0  0  0  0  0  0  0  0  0  0  0
    1.0144   -0.8408   -2.3680 H   0  0  0  0  0  0  0  0  0  0  0  0
    1.9414    0.6631   -2.3549 H   0  0  0  0  0  0  0  0  0  0  0  0
    0.1760    0.7208   -2.3501 H   0  0  0  0  0  0  0  0  0  0  0  0
   -0.0249   -0.4585   -0.0240 H   0  0  0  0  0  0  0  0  0  0  0  0
    3.4043   -0.1075   -0.2600 H   0  0  0  0  0  0  0  0  0  0  0  0
    0.1760    2.1406   -0.2391 H   0  0  0  0  0  0  0  0  0  0  0  0
    1.9414    2.1233   -0.1839 H   0  0  0  0  0  0  0  0  0  0  0  0
    1.0144    1.5683    1.2140 H   0  0  0  0  0  0  0  0  0  0  0  0
   -0.9859   -2.1729    1.1601 C   0  0  0  0  0  0  0  0  0  0  0  0
   -1.0843   -1.0853    0.3976 C   0  0  0  0  0  0  0  0  0  0  0  0
   -2.0143   -0.0148    0.7048 C   0  0  0  0  0  0  0  0  0  0  0  0
   -2.2012    1.3354   -0.1594 S   0  0  0  0  0  0  0  0  0  0  0  0
   -1.6015   -2.2983    2.0439 H   0  0  0  0  0  0  0  0  0  0  0  0
   -0.2905   -2.9687    0.9265 H   0  0  0  0  0  0  0  0  0  0  0  0
   -2.6178   -0.1733    1.6003 H   0  0  0  0  0  0  0  0  0  0  0  0
  1  2  1  0
  1  5  1  0
  1  6  1  0
  1  7  1  0
  2  4  1  0
  2  3  1  0
  3  9  1  0
  4 10  1  0
  4 11  1  0
  4 12  1  0
  8 14  1  0
 13 14  2  3
 13 17  1  0
 13 18  1  0
 14 15  1  0
 15 16  2  0
 15 19  1  0
M  RAD  1   2   2
M  END
>  <reaction>  (5) 
rxn_1936

>  <mol_properties>  (5) 
{"1": {"label": "*3", "atom_type": "Cs"}, "2": {"label": "*4", "atom_type": "S2s"}, "7": {"label": "*2", "atom_type": "H0"}, "13": {"label": "*1", "atom_type": "Cd"}, "14": {"label": "*0", "atom_type": "CS"}}

>  <type>  (5) 
unop_1

>  <geom_source>  (5) 
Heuristics

$$$$

     RDKit          3D

 19 17  0  0  0  0  0  0  0  0999 V2000
    0.7391    0.4790   -2.5478 C   0  0  0  0  0  0  0  0  0  0  0  0
    0.7391    0.4790   -1.0255 C   0  0  0  0  0  3  0  0  0  0  0  0
    2.0941   -0.5375   -0.3419 S   0  0  0  0  0  0  0  0  0  0  0  0
    0.7391    1.8889   -0.4515 C   0  0  0  0  0  0  0  0  0  0  0  0
    0.7105   -0.5353   -2.9445 H   0  0  0  0  0  0  0  0  0  0  0  0
    1.6375    0.9687   -2.9314 H   0  0  0  0  0  0  0  0  0  0  0  0
   -0.1279    1.0264   -2.9266 H   0  0  0  0  0  0  0  0  0  0  0  0
   -0.3288   -0.1529   -0.6005 H   0  0  0  0  0  0  0  0  0  0  0  0
    3.1003    0.1980   -0.8365 H   0  0  0  0  0  0  0  0  0  0  0  0
   -0.1279    2.4462   -0.8156 H   0  0  0  0  0  0  0  0  0  0  0  0
    1.6375    2.4289   -0.7604 H   0  0  0  0  0  0  0  0  0  0  0  0
    0.7105    1.8739    0.6375 H   0  0  0  0  0  0  0  0  0  0  0  0
   -1.9358   -1.7653   -0.8880 C   0  0  0  0  0  0  0  0  0  0  0  0
   -1.3882   -0.7797   -0.1789 C   0  0  0  0  0  0  0  0  0  0  0  0
   -1.6793   -0.5954    1.2305 C   0  0  0  0  0  0  0  0  0  0  0  0
   -1.0641    0.5669    2.1661 S   0  0  0  0  0  0  0  0  0  0  0  0
   -2.6236   -2.4702   -0.4342 H   0  0  0  0  0  0  0  0  0  0  0  0
   -1.7153   -1.8984   -1.9392 H   0  0  0  0  0  0  0  0  0  0  0  0
   -2.3748   -1.3219    1.6549 H   0  0  0  0  0  0  0  0  0  0  0  0
  1  2  1  0
  1  5  1  0
  1  6  1  0
  1  7  1  0
  2  4  1  0
  2  3  1  0
  3  9  1  0
  4 10  1  0
  4 11  1  0
  4 12  1  0
  8 14  1  0
 13 14  2  3
 13 17  1  0
 13 18  1  0
 14 15  1  0
 15 16  2  0
 15 19  1  0
M  RAD  1   2   2
M  END
>  <reaction>  (6) 
rxn_1936

>  <mol_properties>  (6) 
{"1": {"label": "*3", "atom_type": "Cs"}, "2": {"label": "*4", "atom_type": "S2s"}, "7": {"label": "*2", "atom_type": "H0"}, "13": {"label": "*1", "atom_type": "Cd"}, "14": {"label": "*0", "atom_type": "CS"}}

>  <type>  (6) 
unop_2

>  <geom_source>  (6) 
Heuristics

$$$$

     RDKit          3D

 19 17  0  0  0  0  0  0  0  0999 V2000
    1.1052    0.3457   -1.6618 C   0  0  0  0  0  0  0  0  0  0  0  0
    1.1052    0.3457   -0.1395 C   0  0  0  0  0  3  0  0  0  0  0  0
    2.4603   -0.6707    0.5442 S   0  0  0  0  0  0  0  0  0  0  0  0
    1.1052    1.7557    0.4346 C   0  0  0  0  0  0  0  0  0  0  0  0
    1.0766   -0.6686   -2.0584 H   0  0  0  0  0  0  0  0  0  0  0  0
    2.0037    0.8354   -2.0454 H   0  0  0  0  0  0  0  0  0  0  0  0
    0.2383    0.8931   -2.0406 H   0  0  0  0  0  0  0  0  0  0  0  0
    0.0374   -0.2862    0.2855 H   0  0  0  0  0  0  0  0  0  0  0  0
    3.4665    0.0648    0.0495 H   0  0  0  0  0  0  0  0  0  0  0  0
    0.2383    2.3129    0.0704 H   0  0  0  0  0  0  0  0  0  0  0  0
    2.0037    2.2956    0.1257 H   0  0  0  0  0  0  0  0  0  0  0  0
    1.0766    1.7406    1.5235 H   0  0  0  0  0  0  0  0  0  0  0  0
   -1.0197   -1.5732    1.8639 C   0  0  0  0  0  0  0  0  0  0  0  0
   -1.0220   -0.9130    0.7071 C   0  0  0  0  0  0  0  0  0  0  0  0
   -2.1846   -0.1774    0.2462 C   0  0  0  0  0  0  0  0  0  0  0  0
   -2.2778    0.6488   -1.1371 S   0  0  0  0  0  0  0  0  0  0  0  0
   -1.8925   -1.5846    2.5072 H   0  0  0  0  0  0  0  0  0  0  0  0
   -0.1497   -2.1204    2.2032 H   0  0  0  0  0  0  0  0  0  0  0  0
   -3.0447   -0.2099    0.9174 H   0  0  0  0  0  0  0  0  0  0  0  0
  1  2  1  0
  1  5  1  0
  1  6  1  0
  1  7  1  0
  2  4  1  0
  2  3  1  0
  3  9  1  0
  4 10  1  0
  4 11  1  0
  4 12  1  0
  8 14  1  0
 13 14  2  3
 13 17  1  0
 13 18  1  0
 14 15  1  0
 15 16  2  0
 15 19  1  0
M  RAD  1   2   2
M  END
>  <reaction>  (7) 
rxn_1936

>  <mol_properties>  (7) 
{"1": {"label": "*3", "atom_type": "Cs"}, "2": {"label": "*4", "atom_type": "S2s"}, "7": {"label": "*2", "atom_type": "H0"}, "13": {"label": "*1", "atom_type": "Cd"}, "14": {"label": "*0", "atom_type": "CS"}}

>  <type>  (7) 
unop_3

>  <geom_source>  (7) 
Heuristics

$$$$

     RDKit          3D

 19 17  0  0  0  0  0  0  0  0999 V2000
    0.4515    0.9592   -2.4425 C   0  0  0  0  0  0  0  0  0  0  0  0
    0.4515    0.9592   -0.9202 C   0  0  0  0  0  3  0  0  0  0  0  0
    1.8065   -0.0572   -0.2366 S   0  0  0  0  0  0  0  0  0  0  0  0
    0.4515    2.3692   -0.3461 C   0  0  0  0  0  0  0  0  0  0  0  0
    0.4229   -0.0550   -2.8392 H   0  0  0  0  0  0  0  0  0  0  0  0
    1.3499    1.4490   -2.8261 H   0  0  0  0  0  0  0  0  0  0  0  0
   -0.4155    1.5067   -2.8213 H   0  0  0  0  0  0  0  0  0  0  0  0
   -0.6164    0.3274   -0.4952 H   0  0  0  0  0  0  0  0  0  0  0  0
    2.8128    0.6783   -0.7312 H   0  0  0  0  0  0  0  0  0  0  0  0
   -0.4155    2.9265   -0.7103 H   0  0  0  0  0  0  0  0  0  0  0  0
    1.3499    2.9092   -0.6551 H   0  0  0  0  0  0  0  0  0  0  0  0
    0.4229    2.3541    0.7428 H   0  0  0  0  0  0  0  0  0  0  0  0
   -2.8993    0.1224   -0.3884 C   0  0  0  0  0  0  0  0  0  0  0  0
   -1.6757   -0.2995   -0.0736 C   0  0  0  0  0  0  0  0  0  0  0  0
   -1.3911   -0.9525    1.1904 C   0  0  0  0  0  0  0  0  0  0  0  0
    0.0561   -1.4947    1.6554 S   0  0  0  0  0  0  0  0  0  0  0  0
   -3.7324   -0.0080    0.2935 H   0  0  0  0  0  0  0  0  0  0  0  0
   -3.1063    0.6090   -1.3327 H   0  0  0  0  0  0  0  0  0  0  0  0
   -2.2515   -1.0674    1.8522 H   0  0  0  0  0  0  0  0  0  0  0  0
  1  2  1  0
  1  5  1  0
  1  6  1  0
  1  7  1  0
  2  4  1  0
  2  3  1  0
  3  9  1  0
  4 10  1  0
  4 11  1  0
  4 12  1  0
  8 14  1  0
 13 14  2  3
 13 17  1  0
 13 18  1  0
 14 15  1  0
 15 16  2  0
 15 19  1  0
M  RAD  1   2   2
M  END
>  <reaction>  (8) 
rxn_1936

>  <mol_properties>  (8) 
{"1": {"label": "*3", "atom_type": "Cs"}, "2": {"label": "*4", "atom_type": "S2s"}, "7": {"label": "*2", "atom_type": "H0"}, "13": {"label": "*1", "atom_type": "Cd"}, "14": {"label": "*0", "atom_type": "CS"}}

>  <type>  (8) 
unop_4

>  <geom_source>  (8) 
Heuristics

$$$$

     RDKit          3D

 19 17  0  0  0  0  0  0  0  0999 V2000
    0.9811    0.8358   -1.4598 C   0  0  0  0  0  0  0  0  0  0  0  0
    0.9811    0.8358    0.0625 C   0  0  0  0  0  3  0  0  0  0  0  0
    2.3361   -0.1806    0.7462 S   0  0  0  0  0  0  0  0  0  0  0  0
    0.9811    2.2458    0.6366 C   0  0  0  0  0  0  0  0  0  0  0  0
    0.9525   -0.1785   -1.8564 H   0  0  0  0  0  0  0  0  0  0  0  0
    1.8795    1.3255   -1.8434 H   0  0  0  0  0  0  0  0  0  0  0  0
    0.1142    1.3832   -1.8386 H   0  0  0  0  0  0  0  0  0  0  0  0
   -0.0868    0.2039    0.4875 H   0  0  0  0  0  0  0  0  0  0  0  0
    3.3424    0.5549    0.2515 H   0  0  0  0  0  0  0  0  0  0  0  0
    0.1142    2.8030    0.2724 H   0  0  0  0  0  0  0  0  0  0  0  0
    1.8795    2.7857    0.3277 H   0  0  0  0  0  0  0  0  0  0  0  0
    0.9525    2.2307    1.7255 H   0  0  0  0  0  0  0  0  0  0  0  0
   -1.3912   -0.5679    2.2103 C   0  0  0  0  0  0  0  0  0  0  0  0
   -1.1461   -0.4229    0.9091 C   0  0  0  0  0  0  0  0  0  0  0  0
   -2.0405   -0.9521   -0.1034 C   0  0  0  0  0  0  0  0  0  0  0  0
   -1.8247   -0.8244   -1.6978 S   0  0  0  0  0  0  0  0  0  0  0  0
   -2.2740   -1.0903    2.5620 H   0  0  0  0  0  0  0  0  0  0  0  0
   -0.7207   -0.1712    2.9616 H   0  0  0  0  0  0  0  0  0  0  0  0
   -2.9184   -1.4716    0.2851 H   0  0  0  0  0  0  0  0  0  0  0  0
  1  2  1  0
  1  5  1  0
  1  6  1  0
  1  7  1  0
  2  4  1  0
  2  3  1  0
  3  9  1  0
  4 10  1  0
  4 11  1  0
  4 12  1  0
  8 14  1  0
 13 14  2  3
 13 17  1  0
 13 18  1  0
 14 15  1  0
 15 16  2  0
 15 19  1  0
M  RAD  1   2   2
M  END
>  <reaction>  (9) 
rxn_1936

>  <mol_properties>  (9) 
{"1": {"label": "*3", "atom_type": "Cs"}, "2": {"label": "*4", "atom_type": "S2s"}, "7": {"label": "*2", "atom_type": "H0"}, "13": {"label": "*1", "atom_type": "Cd"}, "14": {"label": "*0", "atom_type": "CS"}}

>  <type>  (9) 
unop_5

>  <geom_source>  (9) 
Heuristics

$$$$

     RDKit          3D

 19 17  0  0  0  0  0  0  0  0999 V2000
    0.3953    1.1135   -2.2457 C   0  0  0  0  0  0  0  0  0  0  0  0
    0.3953    1.1135   -0.7234 C   0  0  0  0  0  3  0  0  0  0  0  0
    1.7504    0.0970   -0.0397 S   0  0  0  0  0  0  0  0  0  0  0  0
    0.3953    2.5234   -0.1493 C   0  0  0  0  0  0  0  0  0  0  0  0
    0.3668    0.0992   -2.6423 H   0  0  0  0  0  0  0  0  0  0  0  0
    1.2938    1.6032   -2.6293 H   0  0  0  0  0  0  0  0  0  0  0  0
   -0.4716    1.6609   -2.6245 H   0  0  0  0  0  0  0  0  0  0  0  0
   -0.6725    0.4816   -0.2984 H   0  0  0  0  0  0  0  0  0  0  0  0
    2.7566    0.8325   -0.5344 H   0  0  0  0  0  0  0  0  0  0  0  0
   -0.4716    3.0807   -0.5135 H   0  0  0  0  0  0  0  0  0  0  0  0
    1.2938    3.0634   -0.4582 H   0  0  0  0  0  0  0  0  0  0  0  0
    0.3668    2.5083    0.9396 H   0  0  0  0  0  0  0  0  0  0  0  0
   -2.8744    0.5018    0.3471 C   0  0  0  0  0  0  0  0  0  0  0  0
   -1.7319   -0.1453    0.1232 C   0  0  0  0  0  0  0  0  0  0  0  0
   -1.2400   -1.1682    1.0270 C   0  0  0  0  0  0  0  0  0  0  0  0
    0.1290   -2.0015    0.8366 S   0  0  0  0  0  0  0  0  0  0  0  0
   -3.4820    0.2859    1.2189 H   0  0  0  0  0  0  0  0  0  0  0  0
   -3.2369    1.2641   -0.3303 H   0  0  0  0  0  0  0  0  0  0  0  0
   -1.8756   -1.3601    1.8934 H   0  0  0  0  0  0  0  0  0  0  0  0
  1  2  1  0
  1  5  1  0
  1  6  1  0
  1  7  1  0
  2  4  1  0
  2  3  1  0
  3  9  1  0
  4 10  1  0
  4 11  1  0
  4 12  1  0
  8 14  1  0
 13 14  2  3
 13 17  1  0
 13 18  1  0
 14 15  1  0
 15 16  2  0
 15 19  1  0
M  RAD  1   2   2
M  END
>  <reaction>  (10) 
rxn_1936

>  <mol_properties>  (10) 
{"1": {"label": "*3", "atom_type": "Cs"}, "2": {"label": "*4", "atom_type": "S2s"}, "7": {"label": "*2", "atom_type": "H0"}, "13": {"label": "*1", "atom_type": "Cd"}, "14": {"label": "*0", "atom_type": "CS"}}

>  <type>  (10) 
unop_6

>  <geom_source>  (10) 
Heuristics

$$$$

     RDKit          3D

 19 17  0  0  0  0  0  0  0  0999 V2000
    0.4303    1.2089   -1.9713 C   0  0  0  0  0  0  0  0  0  0  0  0
    0.4303    1.2089   -0.4490 C   0  0  0  0  0  3  0  0  0  0  0  0
    1.7853    0.1924    0.2346 S   0  0  0  0  0  0  0  0  0  0  0  0
    0.4303    2.6188    0.1251 C   0  0  0  0  0  0  0  0  0  0  0  0
    0.4017    0.1946   -2.3680 H   0  0  0  0  0  0  0  0  0  0  0  0
    1.3287    1.6986   -2.3549 H   0  0  0  0  0  0  0  0  0  0  0  0
   -0.4367    1.7563   -2.3501 H   0  0  0  0  0  0  0  0  0  0  0  0
   -0.6376    0.5770   -0.0240 H   0  0  0  0  0  0  0  0  0  0  0  0
    2.7916    0.9279   -0.2600 H   0  0  0  0  0  0  0  0  0  0  0  0
   -0.4367    3.1761   -0.2391 H   0  0  0  0  0  0  0  0  0  0  0  0
    1.3287    3.1588   -0.1839 H   0  0  0  0  0  0  0  0  0  0  0  0
    0.4017    2.6037    1.2140 H   0  0  0  0  0  0  0  0  0  0  0  0
   -2.6030    0.5599    1.1601 C   0  0  0  0  0  0  0  0  0  0  0  0
   -1.6969   -0.0499    0.3976 C   0  0  0  0  0  0  0  0  0  0  0  0
   -1.2062   -1.3803    0.7048 C   0  0  0  0  0  0  0  0  0  0  0  0
   -0.1128   -2.1941   -0.1594 S   0  0  0  0  0  0  0  0  0  0  0  0
   -3.0091    0.0806    2.0439 H   0  0  0  0  0  0  0  0  0  0  0  0
   -2.9657    1.5525    0.9265 H   0  0  0  0  0  0  0  0  0  0  0  0
   -1.6357   -1.8330    1.6003 H   0  0  0  0  0  0  0  0  0  0  0  0
  1  2  1  0
  1  5  1  0
  1  6  1  0
  1  7  1  0
  2  4  1  0
  2  3  1  0
  3  9  1  0
  4 10  1  0
  4 11  1  0
  4 12  1  0
  8 14  1  0
 13 14  2  3
 13 17  1  0
 13 18  1  0
 14 15  1  0
 15 16  2  0
 15 19  1  0
M  RAD  1   2   2
M  END
>  <reaction>  (11) 
rxn_1936

>  <mol_properties>  (11) 
{"1": {"label": "*3", "atom_type": "Cs"}, "2": {"label": "*4", "atom_type": "S2s"}, "7": {"label": "*2", "atom_type": "H0"}, "13": {"label": "*1", "atom_type": "Cd"}, "14": {"label": "*0", "atom_type": "CS"}}

>  <type>  (11) 
unop_7

>  <geom_source>  (11) 
Heuristics

$$$$

     RDKit          3D

 19 17  0  0  0  0  0  0  0  0999 V2000
    0.9425    0.1887   -2.2457 C   0  0  0  0  0  0  0  0  0  0  0  0
    0.9425    0.1887   -0.7234 C   0  0  0  0  0  3  0  0  0  0  0  0
    2.2976   -0.8277   -0.0397 S   0  0  0  0  0  0  0  0  0  0  0  0
    0.9425    1.5987   -0.1493 C   0  0  0  0  0  0  0  0  0  0  0  0
    0.9139   -0.8256   -2.6423 H   0  0  0  0  0  0  0  0  0  0  0  0
    1.8410    0.6784   -2.6293 H   0  0  0  0  0  0  0  0  0  0  0  0
    0.0756    0.7361   -2.6245 H   0  0  0  0  0  0  0  0  0  0  0  0
   -0.1254   -0.4432   -0.2984 H   0  0  0  0  0  0  0  0  0  0  0  0
    3.3038   -0.0922   -0.5344 H   0  0  0  0  0  0  0  0  0  0  0  0
    0.0756    2.1559   -0.5135 H   0  0  0  0  0  0  0  0  0  0  0  0
    1.8410    2.1386   -0.4582 H   0  0  0  0  0  0  0  0  0  0  0  0
    0.9139    1.5836    0.9396 H   0  0  0  0  0  0  0  0  0  0  0  0
   -1.1674   -2.3829    0.3471 C   0  0  0  0  0  0  0  0  0  0  0  0
   -1.1847   -1.0700    0.1232 C   0  0  0  0  0  0  0  0  0  0  0  0
   -1.8446   -0.1464    1.0270 C   0  0  0  0  0  0  0  0  0  0  0  0
   -1.9160    1.4546    0.8366 S   0  0  0  0  0  0  0  0  0  0  0  0
   -1.6492   -2.8116    1.2189 H   0  0  0  0  0  0  0  0  0  0  0  0
   -0.6738   -3.0676   -0.3303 H   0  0  0  0  0  0  0  0  0  0  0  0
   -2.3188   -0.6112    1.8934 H   0  0  0  0  0  0  0  0  0  0  0  0
  1  2  1  0
  1  5  1  0
  1  6  1  0
  1  7  1  0
  2  4  1  0
  2  3  1  0
  3  9  1  0
  4 10  1  0
  4 11  1  0
  4 12  1  0
  8 14  1  0
 13 14  2  3
 13 17  1  0
 13 18  1  0
 14 15  1  0
 15 16  2  0
 15 19  1  0
M  RAD  1   2   2
M  END
>  <reaction>  (12) 
rxn_1936

>  <mol_properties>  (12) 
{"1": {"label": "*3", "atom_type": "Cs"}, "2": {"label": "*4", "atom_type": "S2s"}, "7": {"label": "*2", "atom_type": "H0"}, "13": {"label": "*1", "atom_type": "Cd"}, "14": {"label": "*0", "atom_type": "CS"}}

>  <type>  (12) 
unop_8

>  <geom_source>  (12) 
Heuristics

$$$$

     RDKit          3D

 19 17  0  0  0  0  0  0  0  0999 V2000
    0.5518    0.7954   -2.5478 C   0  0  0  0  0  0  0  0  0  0  0  0
    0.5518    0.7954   -1.0255 C   0  0  0  0  0  3  0  0  0  0  0  0
    1.9069   -0.2211   -0.3419 S   0  0  0  0  0  0  0  0  0  0  0  0
    0.5518    2.2053   -0.4515 C   0  0  0  0  0  0  0  0  0  0  0  0
    0.5232   -0.2189   -2.9445 H   0  0  0  0  0  0  0  0  0  0  0  0
    1.4503    1.2851   -2.9314 H   0  0  0  0  0  0  0  0  0  0  0  0
   -0.3151    1.3428   -2.9266 H   0  0  0  0  0  0  0  0  0  0  0  0
   -0.5161    0.1635   -0.6005 H   0  0  0  0  0  0  0  0  0  0  0  0
    2.9131    0.5144   -0.8365 H   0  0  0  0  0  0  0  0  0  0  0  0
   -0.3151    2.7626   -0.8156 H   0  0  0  0  0  0  0  0  0  0  0  0
    1.4503    2.7453   -0.7604 H   0  0  0  0  0  0  0  0  0  0  0  0
    0.5232    2.1903    0.6375 H   0  0  0  0  0  0  0  0  0  0  0  0
   -2.7029   -0.4689   -0.8880 C   0  0  0  0  0  0  0  0  0  0  0  0
   -1.5754   -0.4633   -0.1789 C   0  0  0  0  0  0  0  0  0  0  0  0
   -1.5540   -0.8072    1.2305 C   0  0  0  0  0  0  0  0  0  0  0  0
   -0.2390   -0.8274    2.1661 S   0  0  0  0  0  0  0  0  0  0  0  0
   -3.6519   -0.7325   -0.4342 H   0  0  0  0  0  0  0  0  0  0  0  0
   -2.7134   -0.2116   -1.9392 H   0  0  0  0  0  0  0  0  0  0  0  0
   -2.5255   -1.0671    1.6549 H   0  0  0  0  0  0  0  0  0  0  0  0
  1  2  1  0
  1  5  1  0
  1  6  1  0
  1  7  1  0
  2  4  1  0
  2  3  1  0
  3  9  1  0
  4 10  1  0
  4 11  1  0
  4 12  1  0
  8 14  1  0
 13 14  2  3
 13 17  1  0
 13 18  1  0
 14 15  1  0
 15 16  2  0
 15 19  1  0
M  RAD  1   2   2
M  END
>  <reaction>  (13) 
rxn_1936

>  <mol_properties>  (13) 
{"1": {"label": "*3", "atom_type": "Cs"}, "2": {"label": "*4", "atom_type": "S2s"}, "7": {"label": "*2", "atom_type": "H0"}, "13": {"label": "*1", "atom_type": "Cd"}, "14": {"label": "*0", "atom_type": "CS"}}

>  <type>  (13) 
unop_9

>  <geom_source>  (13) 
Heuristics

$$$$

     RDKit          3D

 19 17  0  0  0  0  0  0  0  0999 V2000
    0.8344    0.3121   -2.4425 C   0  0  0  0  0  0  0  0  0  0  0  0
    0.8344    0.3121   -0.9202 C   0  0  0  0  0  3  0  0  0  0  0  0
    2.1894   -0.7043   -0.2366 S   0  0  0  0  0  0  0  0  0  0  0  0
    0.8344    1.7221   -0.3461 C   0  0  0  0  0  0  0  0  0  0  0  0
    0.8058   -0.7021   -2.8392 H   0  0  0  0  0  0  0  0  0  0  0  0
    1.7328    0.8019   -2.8261 H   0  0  0  0  0  0  0  0  0  0  0  0
   -0.0326    0.8596   -2.8213 H   0  0  0  0  0  0  0  0  0  0  0  0
   -0.2335   -0.3197   -0.4952 H   0  0  0  0  0  0  0  0  0  0  0  0
    3.1957    0.0312   -0.7312 H   0  0  0  0  0  0  0  0  0  0  0  0
   -0.0326    2.2794   -0.7103 H   0  0  0  0  0  0  0  0  0  0  0  0
    1.7328    2.2620   -0.6551 H   0  0  0  0  0  0  0  0  0  0  0  0
    0.8058    1.7070    0.7428 H   0  0  0  0  0  0  0  0  0  0  0  0
   -1.5120   -2.2221   -0.3884 C   0  0  0  0  0  0  0  0  0  0  0  0
   -1.2928   -0.9466   -0.0736 C   0  0  0  0  0  0  0  0  0  0  0  0
   -1.7283   -0.3827    1.1904 C   0  0  0  0  0  0  0  0  0  0  0  0
   -1.5069    1.1468    1.6554 S   0  0  0  0  0  0  0  0  0  0  0  0
   -2.0273   -2.8896    0.2935 H   0  0  0  0  0  0  0  0  0  0  0  0
   -1.1851   -2.6378   -1.3327 H   0  0  0  0  0  0  0  0  0  0  0  0
   -2.2432   -1.0816    1.8522 H   0  0  0  0  0  0  0  0  0  0  0  0
  1  2  1  0
  1  5  1  0
  1  6  1  0
  1  7  1  0
  2  4  1  0
  2  3  1  0
  3  9  1  0
  4 10  1  0
  4 11  1  0
  4 12  1  0
  8 14  1  0
 13 14  2  3
 13 17  1  0
 13 18  1  0
 14 15  1  0
 15 16  2  0
 15 19  1  0
M  RAD  1   2   2
M  END
>  <reaction>  (14) 
rxn_1936

>  <mol_properties>  (14) 
{"1": {"label": "*3", "atom_type": "Cs"}, "2": {"label": "*4", "atom_type": "S2s"}, "7": {"label": "*2", "atom_type": "H0"}, "13": {"label": "*1", "atom_type": "Cd"}, "14": {"label": "*0", "atom_type": "CS"}}

>  <type>  (14) 
unop_10

>  <geom_source>  (14) 
Heuristics

$$$$

     RDKit          3D

 19 17  0  0  0  0  0  0  0  0999 V2000
    0.6113    1.1805   -1.6618 C   0  0  0  0  0  0  0  0  0  0  0  0
    0.6113    1.1805   -0.1395 C   0  0  0  0  0  3  0  0  0  0  0  0
    1.9663    0.1641    0.5442 S   0  0  0  0  0  0  0  0  0  0  0  0
    0.6113    2.5905    0.4346 C   0  0  0  0  0  0  0  0  0  0  0  0
    0.5827    0.1662   -2.0585 H   0  0  0  0  0  0  0  0  0  0  0  0
    1.5097    1.6702   -2.0454 H   0  0  0  0  0  0  0  0  0  0  0  0
   -0.2557    1.7279   -2.0406 H   0  0  0  0  0  0  0  0  0  0  0  0
   -0.4566    0.5486    0.2855 H   0  0  0  0  0  0  0  0  0  0  0  0
    2.9726    0.8996    0.0495 H   0  0  0  0  0  0  0  0  0  0  0  0
   -0.2557    3.1477    0.0704 H   0  0  0  0  0  0  0  0  0  0  0  0
    1.5097    3.1304    0.1257 H   0  0  0  0  0  0  0  0  0  0  0  0
    0.5827    2.5754    1.5235 H   0  0  0  0  0  0  0  0  0  0  0  0
   -2.0935    0.2416    1.8639 C   0  0  0  0  0  0  0  0  0  0  0  0
   -1.5160   -0.0782    0.7071 C   0  0  0  0  0  0  0  0  0  0  0  0
   -1.4308   -1.4514    0.2462 C   0  0  0  0  0  0  0  0  0  0  0  0
   -0.7515   -1.9308   -1.1371 S   0  0  0  0  0  0  0  0  0  0  0  0
   -2.5237   -0.5180    2.5072 H   0  0  0  0  0  0  0  0  0  0  0  0
   -2.1544    1.2675    2.2032 H   0  0  0  0  0  0  0  0  0  0  0  0
   -1.8733   -2.1896    0.9174 H   0  0  0  0  0  0  0  0  0  0  0  0
  1  2  1  0
  1  5  1  0
  1  6  1  0
  1  7  1  0
  2  4  1  0
  2  3  1  0
  3  9  1  0
  4 10  1  0
  4 11  1  0
  4 12  1  0
  8 14  1  0
 13 14  2  3
 13 17  1  0
 13 18  1  0
 14 15  1  0
 15 16  2  0
 15 19  1  0
M  RAD  1   2   2
M  END
>  <reaction>  (15) 
rxn_1936

>  <mol_properties>  (15) 
{"1": {"label": "*3", "atom_type": "Cs"}, "2": {"label": "*4", "atom_type": "S2s"}, "7": {"label": "*2", "atom_type": "H0"}, "13": {"label": "*1", "atom_type": "Cd"}, "14": {"label": "*0", "atom_type": "CS"}}

>  <type>  (15) 
unop_11

>  <geom_source>  (15) 
Heuristics

$$$$

     RDKit          3D

 19 17  0  0  0  0  0  0  0  0999 V2000
    0.6515    0.6408   -2.5780 C   0  0  0  0  0  0  0  0  0  0  0  0
    0.6515    0.6408   -1.0556 C   0  0  0  0  0  3  0  0  0  0  0  0
    2.0065   -0.3757   -0.3720 S   0  0  0  0  0  0  0  0  0  0  0  0
    0.6515    2.0507   -0.4816 C   0  0  0  0  0  0  0  0  0  0  0  0
    0.6229   -0.3735   -2.9746 H   0  0  0  0  0  0  0  0  0  0  0  0
    1.5499    1.1305   -2.9616 H   0  0  0  0  0  0  0  0  0  0  0  0
   -0.2154    1.1882   -2.9568 H   0  0  0  0  0  0  0  0  0  0  0  0
   -0.4164    0.0089   -0.6307 H   0  0  0  0  0  0  0  0  0  0  0  0
    3.0128    0.3598   -0.8667 H   0  0  0  0  0  0  0  0  0  0  0  0
   -0.2154    2.6080   -0.8458 H   0  0  0  0  0  0  0  0  0  0  0  0
    1.5499    2.5907   -0.7905 H   0  0  0  0  0  0  0  0  0  0  0  0
    0.6229    2.0357    0.6074 H   0  0  0  0  0  0  0  0  0  0  0  0
   -2.3558   -1.1387   -1.0624 C   0  0  0  0  0  0  0  0  0  0  0  0
   -1.4757   -0.6179   -0.2091 C   0  0  0  0  0  0  0  0  0  0  0  0
   -1.6480   -0.7199    1.2280 C   0  0  0  0  0  0  0  0  0  0  0  0
   -0.6363   -0.1213    2.3338 S   0  0  0  0  0  0  0  0  0  0  0  0
   -3.2388   -1.6612   -0.7114 H   0  0  0  0  0  0  0  0  0  0  0  0
   -2.2226   -1.0599   -2.1336 H   0  0  0  0  0  0  0  0  0  0  0  0
   -2.5466   -1.2516    1.5464 H   0  0  0  0  0  0  0  0  0  0  0  0
  1  2  1  0
  1  5  1  0
  1  6  1  0
  1  7  1  0
  2  4  1  0
  2  3  1  0
  3  9  1  0
  4 10  1  0
  4 11  1  0
  4 12  1  0
  8 14  1  0
 13 14  2  3
 13 17  1  0
 13 18  1  0
 14 15  1  0
 15 16  2  0
 15 19  1  0
M  RAD  1   2   2
M  END
>  <reaction>  (16) 
rxn_1936

>  <mol_properties>  (16) 
{"1": {"label": "*3", "atom_type": "Cs"}, "2": {"label": "*4", "atom_type": "S2s"}, "7": {"label": "*2", "atom_type": "H0"}, "13": {"label": "*1", "atom_type": "Cd"}, "14": {"label": "*0", "atom_type": "CS"}}

>  <type>  (16) 
unop_12

>  <geom_source>  (16) 
Heuristics

$$$$

     RDKit          3D

 19 17  0  0  0  0  0  0  0  0999 V2000
   -0.9599    2.0672    0.2641 S   0  0  0  0  0  0  0  0  0  0  0  0
    3.9202    1.0938   -0.0424 S   0  0  0  0  0  0  0  0  0  0  0  0
   -2.1532   -0.0714   -1.0006 C   0  0  0  0  0  0  0  0  0  0  0  0
   -1.0887   -0.4983    1.2460 C   0  0  0  0  0  0  0  0  0  0  0  0
   -0.9972    0.2755   -0.0656 C   0  0  0  0  0  3  0  0  0  0  0  0
    1.5236   -0.2364    0.0424 C   0  0  0  0  0  0  0  0  0  0  0  0
    2.3086    0.9959    0.2436 C   0  0  0  0  0  0  0  0  0  0  0  0
    2.0420   -1.3857   -0.3890 C   0  0  0  0  0  0  0  0  0  0  0  0
   -2.0372    0.4743   -1.9603 H   0  0  0  0  0  0  0  0  0  0  0  0
   -3.1253    0.2071   -0.5400 H   0  0  0  0  0  0  0  0  0  0  0  0
   -2.1513   -1.1602   -1.2183 H   0  0  0  0  0  0  0  0  0  0  0  0
   -1.0698   -1.5901    1.0445 H   0  0  0  0  0  0  0  0  0  0  0  0
   -2.0252   -0.2427    1.7867 H   0  0  0  0  0  0  0  0  0  0  0  0
   -0.2189   -0.2481    1.8889 H   0  0  0  0  0  0  0  0  0  0  0  0
    0.3112   -0.1944    0.2908 H   0  0  0  0  0  0  0  0  0  0  0  0
    1.7953    1.8797    0.5976 H   0  0  0  0  0  0  0  0  0  0  0  0
    3.0928   -1.4900   -0.6238 H   0  0  0  0  0  0  0  0  0  0  0  0
    1.4000   -2.2478   -0.5116 H   0  0  0  0  0  0  0  0  0  0  0  0
   -0.5670    2.3715   -1.0530 H   0  0  0  0  0  0  0  0  0  0  0  0
  1  5  1  0
  1 19  1  0
  2  7  2  0
  3  5  1  0
  3  9  1  0
  3 10  1  0
  3 11  1  0
  4  5  1  0
  4 12  1  0
  4 13  1  0
  4 14  1  0
  6  8  2  3
  6  7  1  0
  6 15  1  0
  7 16  1  0
  8 17  1  0
  8 18  1  0
M  RAD  1   5   2
M  END
>  <reaction>  (17) 
rxn_1936

>  <mol_properties>  (17) 
{"1": {"label": "*3", "atom_type": "Cs"}, "2": {"label": "*4", "atom_type": "S2s"}, "7": {"label": "*2", "atom_type": "H0"}, "13": {"label": "*1", "atom_type": "Cd"}, "14": {"label": "*0", "atom_type": "CS"}}

>  <type>  (17) 
unop_13

>  <geom_source>  (17) 
AutoTST

$$$$
