
     RDKit          3D

 10  9  0  0  0  0  0  0  0  0999 V2000
    2.0861   -0.0291   -0.2114 C   0  0  0  0  0  0  0  0  0  0  0  0
    0.8590   -0.0801    0.2151 C   0  0  0  0  0  0  0  0  0  0  0  0
   -0.3701   -0.1299    0.6360 C   0  0  0  0  0  0  0  0  0  0  0  0
   -1.5792    0.1084   -0.2228 C   0  0  0  0  0  0  0  0  0  0  0  0
    2.6495    0.8968   -0.1902 H   0  0  0  0  0  0  0  0  0  0  0  0
    2.5830   -0.9114   -0.5982 H   0  0  0  0  0  0  0  0  0  0  0  0
   -0.5397   -0.3602    1.6844 H   0  0  0  0  0  0  0  0  0  0  0  0
   -2.2286   -0.7700   -0.2248 H   0  0  0  0  0  0  0  0  0  0  0  0
   -1.2946    0.3298   -1.2505 H   0  0  0  0  0  0  0  0  0  0  0  0
   -2.1655    0.9457    0.1623 H   0  0  0  0  0  0  0  0  0  0  0  0
  1  2  2  0
  1  5  1  0
  1  6  1  0
  2  3  2  0
  3  4  1  0
  3  7  1  0
  4  8  1  0
  4  9  1  0
  4 10  1  0
M  END
>  <reaction>  (1) 
rxn_252

>  <mol_properties>  (1) 
{"0": {"label": "donator", "atom_type": "Cd"}, "4": {"label": "d_hydrogen", "atom_type": "H0"}}

>  <type>  (1) 
r1h

$$$$

     RDKit          3D

  1  0  0  0  0  0  0  0  0  0999 V2000
    0.0000    0.0000    0.0000 H   0  0  0  0  0 15  0  0  0  0  0  0
M  END
>  <reaction>  (2) 
rxn_252

>  <mol_properties>  (2) 
{"0": {"label": "acceptor", "atom_type": "H0"}}

>  <type>  (2) 
r2

$$$$

     RDKit          3D

  2  1  0  0  0  0  0  0  0  0999 V2000
    0.0000    0.0000    0.3721 H   0  0  0  0  0  0  0  0  0  0  0  0
    0.0000    0.0000   -0.3721 H   0  0  0  0  0  0  0  0  0  0  0  0
  1  2  1  0
M  END
>  <reaction>  (3) 
rxn_252

>  <mol_properties>  (3) 
{"0": {"label": "a_hydrogen", "atom_type": "H0"}, "1": {"label": "acceptor", "atom_type": "H0"}}

>  <type>  (3) 
r2h

$$$$

     RDKit          3D

 11  9  0  0  0  0  0  0  0  0999 V2000
    0.1048    1.2944    1.3097 C   0  0  0  0  0  0  0  0  0  0  0  0
    0.1169    0.2401    0.5839 C   0  0  0  0  0  0  0  0  0  0  0  0
    0.0458   -0.8337   -0.1645 C   0  0  0  0  0  0  0  0  0  0  0  0
    0.0207   -0.8252   -1.6630 C   0  0  0  0  0  0  0  0  0  0  0  0
   -1.0170    1.7750    1.6288 H   0  0  0  0  0  0  0  0  0  0  0  0
    0.9254    1.8667    1.7166 H   0  0  0  0  0  0  0  0  0  0  0  0
    0.0164   -1.7987    0.3334 H   0  0  0  0  0  0  0  0  0  0  0  0
    0.8709   -1.3814   -2.0652 H   0  0  0  0  0  0  0  0  0  0  0  0
    0.0540    0.1906   -2.0536 H   0  0  0  0  0  0  0  0  0  0  0  0
   -0.8862   -1.3105   -2.0319 H   0  0  0  0  0  0  0  0  0  0  0  0
   -1.8920    2.1844    1.9026 H   0  0  0  0  0 15  0  0  0  0  0  0
  1  2  2  0
  1  5  1  0
  1  6  1  0
  2  3  2  0
  3  4  1  0
  3  7  1  0
  4  8  1  0
  4  9  1  0
  4 10  1  0
M  END
>  <reaction>  (4) 
rxn_252

>  <mol_properties>  (4) 
{"0": {"label": "*3", "atom_type": "Cd"}, "1": {"label": "*4", "atom_type": "Cdd"}, "4": {"label": "*2", "atom_type": "H0"}, "10": {"label": "*1", "atom_type": "H0"}}

>  <type>  (4) 
ts

$$$$

     RDKit          3D

 11  9  0  0  0  0  0  0  0  0999 V2000
    0.0376    1.3035    1.3130 C   0  0  0  0  0  0  0  0  0  0  0  0
    0.0376    0.2350    0.5722 C   0  0  0  0  0  0  0  0  0  0  0  0
    0.0376   -0.8335   -0.1685 C   0  0  0  0  0  0  0  0  0  0  0  0
    0.0376   -0.8335   -1.6706 C   0  0  0  0  0  0  0  0  0  0  0  0
   -1.0753    1.8560    1.6980 H   0  0  0  0  0  0  0  0  0  0  0  0
    0.9650    1.7639    1.6339 H   0  0  0  0  0  0  0  0  0  0  0  0
    0.0464   -1.7986    0.3309 H   0  0  0  0  0  0  0  0  0  0  0  0
    0.9176   -1.3541   -2.0551 H   0  0  0  0  0  0  0  0  0  0  0  0
    0.0376    0.1820   -2.0643 H   0  0  0  0  0  0  0  0  0  0  0  0
   -0.8424   -1.3541   -2.0551 H   0  0  0  0  0  0  0  0  0  0  0  0
   -1.8393    2.2353    1.9624 H   0  0  0  0  0 15  0  0  0  0  0  0
  1  2  2  0
  1  5  1  0
  1  6  1  0
  2  3  2  0
  3  4  1  0
  3  7  1  0
  4  8  1  0
  4  9  1  0
  4 10  1  0
M  END
>  <reaction>  (5) 
rxn_252

>  <mol_properties>  (5) 
{"0": {"label": "*3", "atom_type": "Cd"}, "1": {"label": "*4", "atom_type": "Cdd"}, "4": {"label": "*2", "atom_type": "H0"}, "10": {"label": "*1", "atom_type": "H0"}}

>  <type>  (5) 
unop_1

>  <geom_source>  (5) 
Heuristics

$$$$

     RDKit          3D

 11  9  0  0  0  0  0  0  0  0999 V2000
   -1.7804   -0.4696    0.0483 C   0  0  0  0  0  0  0  0  0  0  0  0
   -0.7964    0.6336   -0.1570 C   0  0  0  0  0  0  0  0  0  0  0  0
    0.4712    0.3705   -0.3199 C   0  0  0  0  0  0  0  0  0  0  0  0
    1.7365    0.1072   -0.4824 C   0  0  0  0  0  0  0  0  0  0  0  0
   -1.5229   -1.0434    0.9639 H   0  0  0  0  0  0  0  0  0  0  0  0
   -2.7991   -0.0447    0.1663 H   0  0  0  0  0  0  0  0  0  0  0  0
   -1.7757   -1.1516   -0.8284 H   0  0  0  0  0  0  0  0  0  0  0  0
   -1.1325    1.6622   -0.1716 H   0  0  0  0  0  0  0  0  0  0  0  0
    2.0809   -0.9178   -0.4695 H   0  0  0  0  0  0  0  0  0  0  0  0
    3.1599    0.7705    1.0257 H   0  0  0  0  0 15  0  0  0  0  0  0
    2.3584    0.0829    0.2245 H   0  0  0  0  0  0  0  0  0  0  0  0
  1  2  1  0
  1  5  1  0
  1  6  1  0
  1  7  1  0
  2  3  2  0
  2  8  1  0
  3  4  2  0
  4  9  1  0
  4 11  1  0
M  END
>  <reaction>  (6) 
rxn_252

>  <mol_properties>  (6) 
{"0": {"label": "*3", "atom_type": "Cd"}, "1": {"label": "*4", "atom_type": "Cdd"}, "4": {"label": "*2", "atom_type": "H0"}, "10": {"label": "*1", "atom_type": "H0"}}

>  <type>  (6) 
unop_2

>  <geom_source>  (6) 
AutoTST

$$$$

     RDKit          3D

 11  9  0  0  0  0  0  0  0  0999 V2000
   -1.0978   -1.4675   -0.5999 C   0  0  0  0  0  0  0  0  0  0  0  0
   -0.2485   -0.7865    0.4211 C   0  0  0  0  0  0  0  0  0  0  0  0
    0.7477    1.5772   -0.0464 C   0  0  0  0  0  0  0  0  0  0  0  0
    0.2501    0.3964    0.1873 C   0  0  0  0  0  0  0  0  0  0  0  0
   -1.9978   -0.8536   -0.8167 H   0  0  0  0  0  0  0  0  0  0  0  0
   -0.5196   -1.6188   -1.5361 H   0  0  0  0  0  0  0  0  0  0  0  0
   -1.4231   -2.4569   -0.2157 H   0  0  0  0  0  0  0  0  0  0  0  0
   -0.0416   -1.2740    1.3648 H   0  0  0  0  0  0  0  0  0  0  0  0
    1.4795    2.1855    0.8822 H   0  0  0  0  0  0  0  0  0  0  0  0
    0.5654    2.0623   -0.9955 H   0  0  0  0  0  0  0  0  0  0  0  0
    2.2855    2.2358    1.3547 H   0  0  0  0  0 15  0  0  0  0  0  0
  1  2  1  0
  1  5  1  0
  1  6  1  0
  1  7  1  0
  2  4  2  0
  2  8  1  0
  3  4  2  0
  3  9  1  0
  3 10  1  0
M  END
>  <reaction>  (7) 
rxn_252

>  <mol_properties>  (7) 
{"0": {"label": "*3", "atom_type": "Cd"}, "1": {"label": "*4", "atom_type": "Cdd"}, "4": {"label": "*2", "atom_type": "H0"}, "10": {"label": "*1", "atom_type": "H0"}}

>  <type>  (7) 
unop_3

>  <geom_source>  (7) 
gaussian_log

$$$$
