
     RDKit          3D

  9  8  0  0  0  0  0  0  0  0999 V2000
    1.1303   -0.2933   -0.7510 C   0  0  0  0  0  0  0  0  0  0  0  0
    0.2866    0.4560   -0.0588 C   0  0  0  0  0  0  0  0  0  0  0  0
   -0.9719   -0.0331    0.5823 C   0  0  0  0  0  0  0  0  0  0  0  0
    2.0274    0.1230   -1.1916 H   0  0  0  0  0  0  0  0  0  0  0  0
    0.9532   -1.3530   -0.9023 H   0  0  0  0  0  0  0  0  0  0  0  0
    0.5065    1.5132    0.0659 H   0  0  0  0  0  0  0  0  0  0  0  0
   -0.9526    0.1426    1.6610 H   0  0  0  0  0  0  0  0  0  0  0  0
   -1.1182   -1.1002    0.4106 H   0  0  0  0  0  0  0  0  0  0  0  0
   -1.8412    0.5010    0.1901 H   0  0  0  0  0  0  0  0  0  0  0  0
  1  2  2  3
  1  4  1  0
  1  5  1  0
  2  3  1  0
  2  6  1  0
  3  7  1  0
  3  8  1  0
  3  9  1  0
M  END
>  <reaction>  (1) 
rxn_413

>  <mol_properties>  (1) 
{"2": {"label": "donator", "atom_type": "Cs"}, "6": {"label": "d_hydrogen", "atom_type": "H0"}}

>  <type>  (1) 
r1h

$$$$

     RDKit          3D

 14 13  0  0  0  0  0  0  0  0999 V2000
   -0.0263    1.3824   -0.7006 C   0  0  0  0  0  0  0  0  0  0  0  0
   -0.2039   -0.0453   -0.3213 C   0  0  0  0  0  3  0  0  0  0  0  0
   -1.1121   -0.3782    0.8104 C   0  0  0  0  0  0  0  0  0  0  0  0
    0.8313   -1.0381   -0.7322 C   0  0  0  0  0  0  0  0  0  0  0  0
    0.3307   -2.3541   -0.9005 O   0  0  0  0  0  0  0  0  0  0  0  0
    0.6071    1.9181    0.0231 H   0  0  0  0  0  0  0  0  0  0  0  0
   -0.9831    1.9109   -0.7211 H   0  0  0  0  0  0  0  0  0  0  0  0
    0.4475    1.4899   -1.6787 H   0  0  0  0  0  0  0  0  0  0  0  0
   -2.0864    0.1051    0.6984 H   0  0  0  0  0  0  0  0  0  0  0  0
   -1.2623   -1.4541    0.9003 H   0  0  0  0  0  0  0  0  0  0  0  0
   -0.6968   -0.0235    1.7662 H   0  0  0  0  0  0  0  0  0  0  0  0
    1.6088   -1.1338    0.0391 H   0  0  0  0  0  0  0  0  0  0  0  0
    1.3350   -0.6925   -1.6447 H   0  0  0  0  0  0  0  0  0  0  0  0
   -0.3997   -2.3102   -1.5208 H   0  0  0  0  0  0  0  0  0  0  0  0
  1  2  1  0
  1  6  1  0
  1  7  1  0
  1  8  1  0
  2  3  1  0
  2  4  1  0
  3  9  1  0
  3 10  1  0
  3 11  1  0
  4  5  1  0
  4 12  1  0
  4 13  1  0
  5 14  1  0
M  RAD  1   2   2
M  END
>  <reaction>  (2) 
rxn_413

>  <mol_properties>  (2) 
{"1": {"label": "acceptor", "atom_type": "Cs"}}

>  <type>  (2) 
r2

$$$$

     RDKit          3D

 15 14  0  0  0  0  0  0  0  0999 V2000
   -0.6986    1.3249   -0.1641 C   0  0  0  0  0  0  0  0  0  0  0  0
   -0.2590   -0.0344    0.3671 C   0  0  0  0  0  0  0  0  0  0  0  0
   -0.4734   -0.1429    1.8733 C   0  0  0  0  0  0  0  0  0  0  0  0
   -0.9841   -1.1722   -0.3462 C   0  0  0  0  0  0  0  0  0  0  0  0
   -0.7805   -1.1911   -1.7444 O   0  0  0  0  0  0  0  0  0  0  0  0
   -0.1246    2.1306    0.2976 H   0  0  0  0  0  0  0  0  0  0  0  0
   -1.7557    1.4964    0.0581 H   0  0  0  0  0  0  0  0  0  0  0  0
   -0.5709    1.3852   -1.2449 H   0  0  0  0  0  0  0  0  0  0  0  0
    0.8141   -0.1541    0.1667 H   0  0  0  0  0  0  0  0  0  0  0  0
   -1.5346   -0.0466    2.1192 H   0  0  0  0  0  0  0  0  0  0  0  0
    0.0611    0.6480    2.4019 H   0  0  0  0  0  0  0  0  0  0  0  0
   -0.1249   -1.1023    2.2618 H   0  0  0  0  0  0  0  0  0  0  0  0
   -0.6918   -2.1316    0.1011 H   0  0  0  0  0  0  0  0  0  0  0  0
   -2.0629   -1.0627   -0.2056 H   0  0  0  0  0  0  0  0  0  0  0  0
    0.1528   -1.3298   -1.9125 H   0  0  0  0  0  0  0  0  0  0  0  0
  1  2  1  0
  1  6  1  0
  1  7  1  0
  1  8  1  0
  2  3  1  0
  2  4  1  0
  2  9  1  0
  3 10  1  0
  3 11  1  0
  3 12  1  0
  4  5  1  0
  4 13  1  0
  4 14  1  0
  5 15  1  0
M  END
>  <reaction>  (3) 
rxn_413

>  <mol_properties>  (3) 
{"1": {"label": "acceptor", "atom_type": "Cs"}, "14": {"label": "a_hydrogen", "atom_type": "H0"}}

>  <type>  (3) 
r2h

$$$$

     RDKit          3D

 23 21  0  0  0  0  0  0  0  0999 V2000
   -0.8144   -0.9501    1.6044 C   0  0  0  0  0  0  0  0  0  0  0  0
   -1.0620    0.0042    0.4687 C   0  0  0  0  0  3  0  0  0  0  0  0
   -2.4250   -0.0849   -0.1643 C   0  0  0  0  0  0  0  0  0  0  0  0
   -0.5939    1.4227    0.7024 C   0  0  0  0  0  0  0  0  0  0  0  0
    0.7268    1.5214    1.1806 O   0  0  0  0  0  0  0  0  0  0  0  0
   -1.4850   -0.7306    2.4444 H   0  0  0  0  0  0  0  0  0  0  0  0
    0.2089   -0.8670    1.9694 H   0  0  0  0  0  0  0  0  0  0  0  0
   -0.9987   -1.9821    1.2981 H   0  0  0  0  0  0  0  0  0  0  0  0
   -3.2030    0.2495    0.5324 H   0  0  0  0  0  0  0  0  0  0  0  0
   -2.4939    0.5390   -1.0587 H   0  0  0  0  0  0  0  0  0  0  0  0
   -2.6616   -1.1126   -0.4470 H   0  0  0  0  0  0  0  0  0  0  0  0
   -1.2304    1.8929    1.4625 H   0  0  0  0  0  0  0  0  0  0  0  0
   -0.7231    2.0026   -0.2220 H   0  0  0  0  0  0  0  0  0  0  0  0
    1.3230    1.3301    0.4482 H   0  0  0  0  0  0  0  0  0  0  0  0
    2.5949    0.6636   -1.4573 C   0  0  0  0  0  0  0  0  0  0  0  0
    1.3825    0.3320   -1.9181 C   0  0  0  0  0  0  0  0  0  0  0  0
    0.6048   -0.8193   -1.4854 C   0  0  0  0  0  0  0  0  0  0  0  0
    3.1020    1.5582   -1.7938 H   0  0  0  0  0  0  0  0  0  0  0  0
    3.1248    0.0274   -0.7558 H   0  0  0  0  0  0  0  0  0  0  0  0
    0.9059    0.9976   -2.6333 H   0  0  0  0  0  0  0  0  0  0  0  0
   -0.2143   -0.4162   -0.5301 H   0  0  0  0  0  0  0  0  0  0  0  0
    1.1713   -1.5990   -0.9798 H   0  0  0  0  0  0  0  0  0  0  0  0
   -0.0922   -1.2170   -2.2190 H   0  0  0  0  0  0  0  0  0  0  0  0
  1  2  1  0
  1  6  1  0
  1  7  1  0
  1  8  1  0
  2  3  1  0
  2  4  1  0
  3  9  1  0
  3 10  1  0
  3 11  1  0
  4  5  1  0
  4 12  1  0
  4 13  1  0
  5 14  1  0
 15 16  2  3
 15 18  1  0
 15 19  1  0
 16 17  1  0
 16 20  1  0
 17 21  1  0
 17 22  1  0
 17 23  1  0
M  RAD  1   2   2
M  END
>  <reaction>  (4) 
rxn_413

>  <mol_properties>  (4) 
{"1": {"label": "*3", "atom_type": "Cs"}, "3": {"label": "*4", "atom_type": "Cs"}, "15": {"label": "*0", "atom_type": "Cd"}, "16": {"label": "*1", "atom_type": "Cs"}, "20": {"label": "*2", "atom_type": "H0"}}

>  <type>  (4) 
ts

$$$$

     RDKit          3D

 23 21  0  0  0  0  0  0  0  0999 V2000
   -0.3753   -0.0658    2.3769 C   0  0  0  0  0  0  0  0  0  0  0  0
   -0.8510   -0.0821    0.9290 C   0  0  0  0  0  3  0  0  0  0  0  0
   -2.2735   -0.6202    0.8130 C   0  0  0  0  0  0  0  0  0  0  0  0
   -0.7654    1.3053    0.2989 C   0  0  0  0  0  0  0  0  0  0  0  0
    0.5375    1.8525    0.2981 O   0  0  0  0  0  0  0  0  0  0  0  0
   -1.0400    0.5507    2.9888 H   0  0  0  0  0  0  0  0  0  0  0  0
    0.6301    0.3477    2.4563 H   0  0  0  0  0  0  0  0  0  0  0  0
   -0.3698   -1.0725    2.7991 H   0  0  0  0  0  0  0  0  0  0  0  0
   -2.9731    0.0197    1.3580 H   0  0  0  0  0  0  0  0  0  0  0  0
   -2.6029   -0.6674   -0.2272 H   0  0  0  0  0  0  0  0  0  0  0  0
   -2.3469   -1.6239    1.2348 H   0  0  0  0  0  0  0  0  0  0  0  0
   -1.3800    2.0051    0.8716 H   0  0  0  0  0  0  0  0  0  0  0  0
   -1.1722    1.2715   -0.7205 H   0  0  0  0  0  0  0  0  0  0  0  0
    1.1021    1.2888   -0.2330 H   0  0  0  0  0  0  0  0  0  0  0  0
    1.2604   -1.3455   -2.8219 C   0  0  0  0  0  0  0  0  0  0  0  0
    1.2604   -1.3455   -1.4981 C   0  0  0  0  0  0  0  0  0  0  0  0
    1.2604   -0.1233   -0.6376 C   0  0  0  0  0  0  0  0  0  0  0  0
    1.2604   -2.2682   -3.3883 H   0  0  0  0  0  0  0  0  0  0  0  0
    1.2604   -0.4199   -3.3879 H   0  0  0  0  0  0  0  0  0  0  0  0
    1.2604   -2.2981   -0.9746 H   0  0  0  0  0  0  0  0  0  0  0  0
    0.2071   -0.1028    0.1439 H   0  0  0  0  0  0  0  0  0  0  0  0
    1.2604    0.7872   -1.2382 H   0  0  0  0  0  0  0  0  0  0  0  0
    2.1381   -0.1062    0.0136 H   0  0  0  0  0  0  0  0  0  0  0  0
  1  2  1  0
  1  6  1  0
  1  7  1  0
  1  8  1  0
  2  3  1  0
  2  4  1  0
  3  9  1  0
  3 10  1  0
  3 11  1  0
  4  5  1  0
  4 12  1  0
  4 13  1  0
  5 14  1  0
 15 16  2  3
 15 18  1  0
 15 19  1  0
 16 17  1  0
 16 20  1  0
 17 21  1  0
 17 22  1  0
 17 23  1  0
M  RAD  1   2   2
M  END
>  <reaction>  (5) 
rxn_413

>  <mol_properties>  (5) 
{"1": {"label": "*3", "atom_type": "Cs"}, "3": {"label": "*4", "atom_type": "Cs"}, "15": {"label": "*0", "atom_type": "Cd"}, "16": {"label": "*1", "atom_type": "Cs"}, "20": {"label": "*2", "atom_type": "H0"}}

>  <type>  (5) 
unop_1

>  <geom_source>  (5) 
Heuristics

$$$$

     RDKit          3D

 23 21  0  0  0  0  0  0  0  0999 V2000
   -1.3392   -1.1290    0.8869 C   0  0  0  0  0  0  0  0  0  0  0  0
   -0.9401    0.3095    0.5798 C   0  0  0  0  0  3  0  0  0  0  0  0
   -2.1578    1.1748    0.2719 C   0  0  0  0  0  0  0  0  0  0  0  0
   -0.1411    0.9227    1.7265 C   0  0  0  0  0  0  0  0  0  0  0  0
    1.0473    0.2222    2.0329 O   0  0  0  0  0  0  0  0  0  0  0  0
   -2.0229   -1.1603    1.7401 H   0  0  0  0  0  0  0  0  0  0  0  0
   -0.4678   -1.7348    1.1354 H   0  0  0  0  0  0  0  0  0  0  0  0
   -1.8464   -1.5856    0.0347 H   0  0  0  0  0  0  0  0  0  0  0  0
   -2.8265    1.2203    1.1360 H   0  0  0  0  0  0  0  0  0  0  0  0
   -1.8713    2.1970    0.0155 H   0  0  0  0  0  0  0  0  0  0  0  0
   -2.7265    0.7653   -0.5645 H   0  0  0  0  0  0  0  0  0  0  0  0
   -0.7405    0.9030    2.6408 H   0  0  0  0  0  0  0  0  0  0  0  0
    0.0766    1.9752    1.5009 H   0  0  0  0  0  0  0  0  0  0  0  0
    1.6229    0.2533    1.2671 H   0  0  0  0  0  0  0  0  0  0  0  0
    1.1713   -0.9538   -3.1710 C   0  0  0  0  0  0  0  0  0  0  0  0
    1.1713   -0.9538   -1.8473 C   0  0  0  0  0  0  0  0  0  0  0  0
    1.1713    0.2683   -0.9868 C   0  0  0  0  0  0  0  0  0  0  0  0
    1.1713   -1.8766   -3.7375 H   0  0  0  0  0  0  0  0  0  0  0  0
    1.1713   -0.0282   -3.7370 H   0  0  0  0  0  0  0  0  0  0  0  0
    1.1713   -1.9065   -1.3238 H   0  0  0  0  0  0  0  0  0  0  0  0
    0.1181    0.2889   -0.2053 H   0  0  0  0  0  0  0  0  0  0  0  0
    1.1713    1.1788   -1.5874 H   0  0  0  0  0  0  0  0  0  0  0  0
    2.0490    0.2855   -0.3355 H   0  0  0  0  0  0  0  0  0  0  0  0
  1  2  1  0
  1  6  1  0
  1  7  1  0
  1  8  1  0
  2  3  1  0
  2  4  1  0
  3  9  1  0
  3 10  1  0
  3 11  1  0
  4  5  1  0
  4 12  1  0
  4 13  1  0
  5 14  1  0
 15 16  2  3
 15 18  1  0
 15 19  1  0
 16 17  1  0
 16 20  1  0
 17 21  1  0
 17 22  1  0
 17 23  1  0
M  RAD  1   2   2
M  END
>  <reaction>  (6) 
rxn_413

>  <mol_properties>  (6) 
{"1": {"label": "*3", "atom_type": "Cs"}, "3": {"label": "*4", "atom_type": "Cs"}, "15": {"label": "*0", "atom_type": "Cd"}, "16": {"label": "*1", "atom_type": "Cs"}, "20": {"label": "*2", "atom_type": "H0"}}

>  <type>  (6) 
unop_2

>  <geom_source>  (6) 
Heuristics

$$$$

     RDKit          3D

 23 21  0  0  0  0  0  0  0  0999 V2000
   -0.2922    0.6872    2.3469 C   0  0  0  0  0  0  0  0  0  0  0  0
   -0.6589   -0.0510    1.0649 C   0  0  0  0  0  3  0  0  0  0  0  0
   -1.6514   -1.1779    1.3320 C   0  0  0  0  0  0  0  0  0  0  0  0
   -1.2227    0.9025    0.0150 C   0  0  0  0  0  0  0  0  0  0  0  0
   -0.3361    1.9415   -0.3474 O   0  0  0  0  0  0  0  0  0  0  0  0
   -1.1880    1.1055    2.8146 H   0  0  0  0  0  0  0  0  0  0  0  0
    0.3937    1.5099    2.1450 H   0  0  0  0  0  0  0  0  0  0  0  0
    0.1775    0.0137    3.0664 H   0  0  0  0  0  0  0  0  0  0  0  0
   -2.5871   -0.7798    1.7345 H   0  0  0  0  0  0  0  0  0  0  0  0
   -1.8872   -1.7317    0.4207 H   0  0  0  0  0  0  0  0  0  0  0  0
   -1.2526   -1.8849    2.0613 H   0  0  0  0  0  0  0  0  0  0  0  0
   -2.1128    1.3979    0.4120 H   0  0  0  0  0  0  0  0  0  0  0  0
   -1.5335    0.3318   -0.8703 H   0  0  0  0  0  0  0  0  0  0  0  0
    0.4443    1.5494   -0.7423 H   0  0  0  0  0  0  0  0  0  0  0  0
    1.4525   -1.3144   -2.6859 C   0  0  0  0  0  0  0  0  0  0  0  0
    1.4525   -1.3144   -1.3622 C   0  0  0  0  0  0  0  0  0  0  0  0
    1.4525   -0.0922   -0.5017 C   0  0  0  0  0  0  0  0  0  0  0  0
    1.4525   -2.2371   -3.2524 H   0  0  0  0  0  0  0  0  0  0  0  0
    1.4525   -0.3888   -3.2520 H   0  0  0  0  0  0  0  0  0  0  0  0
    1.4525   -2.2670   -0.8387 H   0  0  0  0  0  0  0  0  0  0  0  0
    0.3993   -0.0717    0.2798 H   0  0  0  0  0  0  0  0  0  0  0  0
    1.4525    0.8182   -1.1023 H   0  0  0  0  0  0  0  0  0  0  0  0
    2.3302   -0.0751    0.1495 H   0  0  0  0  0  0  0  0  0  0  0  0
  1  2  1  0
  1  6  1  0
  1  7  1  0
  1  8  1  0
  2  3  1  0
  2  4  1  0
  3  9  1  0
  3 10  1  0
  3 11  1  0
  4  5  1  0
  4 12  1  0
  4 13  1  0
  5 14  1  0
 15 16  2  3
 15 18  1  0
 15 19  1  0
 16 17  1  0
 16 20  1  0
 17 21  1  0
 17 22  1  0
 17 23  1  0
M  RAD  1   2   2
M  END
>  <reaction>  (7) 
rxn_413

>  <mol_properties>  (7) 
{"1": {"label": "*3", "atom_type": "Cs"}, "3": {"label": "*4", "atom_type": "Cs"}, "15": {"label": "*0", "atom_type": "Cd"}, "16": {"label": "*1", "atom_type": "Cs"}, "20": {"label": "*2", "atom_type": "H0"}}

>  <type>  (7) 
unop_3

>  <geom_source>  (7) 
Heuristics

$$$$

     RDKit          3D

 23 21  0  0  0  0  0  0  0  0999 V2000
   -1.7947    0.4933   -0.2010 C   0  0  0  0  0  0  0  0  0  0  0  0
   -0.5467    0.4946    0.6739 C   0  0  0  0  0  3  0  0  0  0  0  0
   -0.0364    1.9108    0.9192 C   0  0  0  0  0  0  0  0  0  0  0  0
   -0.7995   -0.2066    2.0058 C   0  0  0  0  0  0  0  0  0  0  0  0
   -1.2083   -1.5528    1.8736 O   0  0  0  0  0  0  0  0  0  0  0  0
   -2.5888    1.0814    0.2680 H   0  0  0  0  0  0  0  0  0  0  0  0
   -2.1717   -0.5189   -0.3476 H   0  0  0  0  0  0  0  0  0  0  0  0
   -1.5879    0.9307   -1.1796 H   0  0  0  0  0  0  0  0  0  0  0  0
   -0.7850    2.5031    1.4528 H   0  0  0  0  0  0  0  0  0  0  0  0
    0.8788    1.9117    1.5152 H   0  0  0  0  0  0  0  0  0  0  0  0
    0.1756    2.4182   -0.0232 H   0  0  0  0  0  0  0  0  0  0  0  0
   -1.6112    0.2986    2.5362 H   0  0  0  0  0  0  0  0  0  0  0  0
    0.0975   -0.1339    2.6352 H   0  0  0  0  0  0  0  0  0  0  0  0
   -0.5023   -2.0433    1.4496 H   0  0  0  0  0  0  0  0  0  0  0  0
    1.5647   -0.7688   -3.0769 C   0  0  0  0  0  0  0  0  0  0  0  0
    1.5647   -0.7688   -1.7531 C   0  0  0  0  0  0  0  0  0  0  0  0
    1.5647    0.4534   -0.8926 C   0  0  0  0  0  0  0  0  0  0  0  0
    1.5647   -1.6915   -3.6434 H   0  0  0  0  0  0  0  0  0  0  0  0
    1.5647    0.1568   -3.6429 H   0  0  0  0  0  0  0  0  0  0  0  0
    1.5647   -1.7214   -1.2296 H   0  0  0  0  0  0  0  0  0  0  0  0
    0.5114    0.4739   -0.1112 H   0  0  0  0  0  0  0  0  0  0  0  0
    1.5647    1.3638   -1.4932 H   0  0  0  0  0  0  0  0  0  0  0  0
    2.4424    0.4705   -0.2414 H   0  0  0  0  0  0  0  0  0  0  0  0
  1  2  1  0
  1  6  1  0
  1  7  1  0
  1  8  1  0
  2  3  1  0
  2  4  1  0
  3  9  1  0
  3 10  1  0
  3 11  1  0
  4  5  1  0
  4 12  1  0
  4 13  1  0
  5 14  1  0
 15 16  2  3
 15 18  1  0
 15 19  1  0
 16 17  1  0
 16 20  1  0
 17 21  1  0
 17 22  1  0
 17 23  1  0
M  RAD  1   2   2
M  END
>  <reaction>  (8) 
rxn_413

>  <mol_properties>  (8) 
{"1": {"label": "*3", "atom_type": "Cs"}, "3": {"label": "*4", "atom_type": "Cs"}, "15": {"label": "*0", "atom_type": "Cd"}, "16": {"label": "*1", "atom_type": "Cs"}, "20": {"label": "*2", "atom_type": "H0"}}

>  <type>  (8) 
unop_4

>  <geom_source>  (8) 
Heuristics

$$$$

     RDKit          3D

 23 21  0  0  0  0  0  0  0  0999 V2000
   -0.3807    1.4149    1.9256 C   0  0  0  0  0  0  0  0  0  0  0  0
   -0.4367    0.1506    1.0762 C   0  0  0  0  0  3  0  0  0  0  0  0
   -0.4087   -1.1060    1.9402 C   0  0  0  0  0  0  0  0  0  0  0  0
   -1.6699    0.1379    0.1771 C   0  0  0  0  0  0  0  0  0  0  0  0
   -1.7398    1.2343   -0.7116 O   0  0  0  0  0  0  0  0  0  0  0  0
   -1.2237    1.4430    2.6220 H   0  0  0  0  0  0  0  0  0  0  0  0
   -0.4314    2.3091    1.3044 H   0  0  0  0  0  0  0  0  0  0  0  0
    0.5392    1.4527    2.5122 H   0  0  0  0  0  0  0  0  0  0  0  0
   -1.2813   -1.1405    2.5985 H   0  0  0  0  0  0  0  0  0  0  0  0
   -0.4115   -2.0132    1.3321 H   0  0  0  0  0  0  0  0  0  0  0  0
    0.4816   -1.1267    2.5707 H   0  0  0  0  0  0  0  0  0  0  0  0
   -2.5715    0.1978    0.7928 H   0  0  0  0  0  0  0  0  0  0  0  0
   -1.7129   -0.8110   -0.3740 H   0  0  0  0  0  0  0  0  0  0  0  0
   -0.9855    1.1943   -1.3016 H   0  0  0  0  0  0  0  0  0  0  0  0
    1.6747   -1.1128   -2.6746 C   0  0  0  0  0  0  0  0  0  0  0  0
    1.6747   -1.1128   -1.3508 C   0  0  0  0  0  0  0  0  0  0  0  0
    1.6747    0.1094   -0.4903 C   0  0  0  0  0  0  0  0  0  0  0  0
    1.6747   -2.0355   -3.2411 H   0  0  0  0  0  0  0  0  0  0  0  0
    1.6747   -0.1872   -3.2406 H   0  0  0  0  0  0  0  0  0  0  0  0
    1.6747   -2.0654   -0.8273 H   0  0  0  0  0  0  0  0  0  0  0  0
    0.6214    0.1300    0.2911 H   0  0  0  0  0  0  0  0  0  0  0  0
    1.6747    1.0199   -1.0909 H   0  0  0  0  0  0  0  0  0  0  0  0
    2.5524    0.1265    0.1609 H   0  0  0  0  0  0  0  0  0  0  0  0
  1  2  1  0
  1  6  1  0
  1  7  1  0
  1  8  1  0
  2  3  1  0
  2  4  1  0
  3  9  1  0
  3 10  1  0
  3 11  1  0
  4  5  1  0
  4 12  1  0
  4 13  1  0
  5 14  1  0
 15 16  2  3
 15 18  1  0
 15 19  1  0
 16 17  1  0
 16 20  1  0
 17 21  1  0
 17 22  1  0
 17 23  1  0
M  RAD  1   2   2
M  END
>  <reaction>  (9) 
rxn_413

>  <mol_properties>  (9) 
{"1": {"label": "*3", "atom_type": "Cs"}, "3": {"label": "*4", "atom_type": "Cs"}, "15": {"label": "*0", "atom_type": "Cd"}, "16": {"label": "*1", "atom_type": "Cs"}, "20": {"label": "*2", "atom_type": "H0"}}

>  <type>  (9) 
unop_5

>  <geom_source>  (9) 
Heuristics

$$$$

     RDKit          3D

 23 21  0  0  0  0  0  0  0  0999 V2000
   -1.6077    1.1945   -0.0021 C   0  0  0  0  0  0  0  0  0  0  0  0
   -0.4817    0.4716    0.7275 C   0  0  0  0  0  3  0  0  0  0  0  0
    0.5047    1.4550    1.3492 C   0  0  0  0  0  0  0  0  0  0  0  0
   -1.0260   -0.4688    1.7993 C   0  0  0  0  0  0  0  0  0  0  0  0
   -1.8965   -1.4626    1.2980 O   0  0  0  0  0  0  0  0  0  0  0  0
   -2.1467    1.8519    0.6863 H   0  0  0  0  0  0  0  0  0  0  0  0
   -2.3251    0.4872   -0.4182 H   0  0  0  0  0  0  0  0  0  0  0  0
   -1.2169    1.8096   -0.8150 H   0  0  0  0  0  0  0  0  0  0  0  0
    0.0070    2.0794    2.0964 H   0  0  0  0  0  0  0  0  0  0  0  0
    1.3322    0.9390    1.8409 H   0  0  0  0  0  0  0  0  0  0  0  0
    0.9248    2.1184    0.5915 H   0  0  0  0  0  0  0  0  0  0  0  0
   -1.6142    0.1029    2.5222 H   0  0  0  0  0  0  0  0  0  0  0  0
   -0.1902   -0.9255    2.3460 H   0  0  0  0  0  0  0  0  0  0  0  0
   -1.4051   -2.0164    0.6893 H   0  0  0  0  0  0  0  0  0  0  0  0
    1.6298   -0.7917   -3.0233 C   0  0  0  0  0  0  0  0  0  0  0  0
    1.6298   -0.7917   -1.6996 C   0  0  0  0  0  0  0  0  0  0  0  0
    1.6298    0.4304   -0.8391 C   0  0  0  0  0  0  0  0  0  0  0  0
    1.6297   -1.7145   -3.5898 H   0  0  0  0  0  0  0  0  0  0  0  0
    1.6298    0.1339   -3.5893 H   0  0  0  0  0  0  0  0  0  0  0  0
    1.6298   -1.7444   -1.1760 H   0  0  0  0  0  0  0  0  0  0  0  0
    0.5765    0.4510   -0.0576 H   0  0  0  0  0  0  0  0  0  0  0  0
    1.6297    1.3409   -1.4396 H   0  0  0  0  0  0  0  0  0  0  0  0
    2.5075    0.4476   -0.1878 H   0  0  0  0  0  0  0  0  0  0  0  0
  1  2  1  0
  1  6  1  0
  1  7  1  0
  1  8  1  0
  2  3  1  0
  2  4  1  0
  3  9  1  0
  3 10  1  0
  3 11  1  0
  4  5  1  0
  4 12  1  0
  4 13  1  0
  5 14  1  0
 15 16  2  3
 15 18  1  0
 15 19  1  0
 16 17  1  0
 16 20  1  0
 17 21  1  0
 17 22  1  0
 17 23  1  0
M  RAD  1   2   2
M  END
>  <reaction>  (10) 
rxn_413

>  <mol_properties>  (10) 
{"1": {"label": "*3", "atom_type": "Cs"}, "3": {"label": "*4", "atom_type": "Cs"}, "15": {"label": "*0", "atom_type": "Cd"}, "16": {"label": "*1", "atom_type": "Cs"}, "20": {"label": "*2", "atom_type": "H0"}}

>  <type>  (10) 
unop_6

>  <geom_source>  (10) 
Heuristics

$$$$

     RDKit          3D

 23 21  0  0  0  0  0  0  0  0999 V2000
   -1.2358    1.7011    0.4870 C   0  0  0  0  0  0  0  0  0  0  0  0
   -0.4299    0.4457    0.7990 C   0  0  0  0  0  3  0  0  0  0  0  0
    0.7525    0.7519    1.7124 C   0  0  0  0  0  0  0  0  0  0  0  0
   -1.3053   -0.6369    1.4243 C   0  0  0  0  0  0  0  0  0  0  0  0
   -2.3895   -1.0353    0.6103 O   0  0  0  0  0  0  0  0  0  0  0  0
   -1.6076    2.1539    1.4106 H   0  0  0  0  0  0  0  0  0  0  0  0
   -2.0961    1.4706   -0.1413 H   0  0  0  0  0  0  0  0  0  0  0  0
   -0.6217    2.4438   -0.0261 H   0  0  0  0  0  0  0  0  0  0  0  0
    0.4058    1.1402    2.6742 H   0  0  0  0  0  0  0  0  0  0  0  0
    1.3525   -0.1395    1.9074 H   0  0  0  0  0  0  0  0  0  0  0  0
    1.4045    1.5055    1.2679 H   0  0  0  0  0  0  0  0  0  0  0  0
   -1.7519   -0.2575    2.3474 H   0  0  0  0  0  0  0  0  0  0  0  0
   -0.6841   -1.5017    1.6931 H   0  0  0  0  0  0  0  0  0  0  0  0
   -2.0384   -1.4163   -0.1962 H   0  0  0  0  0  0  0  0  0  0  0  0
    1.6815   -0.8177   -2.9518 C   0  0  0  0  0  0  0  0  0  0  0  0
    1.6815   -0.8177   -1.6281 C   0  0  0  0  0  0  0  0  0  0  0  0
    1.6815    0.4045   -0.7676 C   0  0  0  0  0  0  0  0  0  0  0  0
    1.6815   -1.7404   -3.5183 H   0  0  0  0  0  0  0  0  0  0  0  0
    1.6815    0.1079   -3.5179 H   0  0  0  0  0  0  0  0  0  0  0  0
    1.6815   -1.7703   -1.1046 H   0  0  0  0  0  0  0  0  0  0  0  0
    0.6282    0.4250    0.0139 H   0  0  0  0  0  0  0  0  0  0  0  0
    1.6815    1.3149   -1.3682 H   0  0  0  0  0  0  0  0  0  0  0  0
    2.5592    0.4216   -0.1164 H   0  0  0  0  0  0  0  0  0  0  0  0
  1  2  1  0
  1  6  1  0
  1  7  1  0
  1  8  1  0
  2  3  1  0
  2  4  1  0
  3  9  1  0
  3 10  1  0
  3 11  1  0
  4  5  1  0
  4 12  1  0
  4 13  1  0
  5 14  1  0
 15 16  2  3
 15 18  1  0
 15 19  1  0
 16 17  1  0
 16 20  1  0
 17 21  1  0
 17 22  1  0
 17 23  1  0
M  RAD  1   2   2
M  END
>  <reaction>  (11) 
rxn_413

>  <mol_properties>  (11) 
{"1": {"label": "*3", "atom_type": "Cs"}, "3": {"label": "*4", "atom_type": "Cs"}, "15": {"label": "*0", "atom_type": "Cd"}, "16": {"label": "*1", "atom_type": "Cs"}, "20": {"label": "*2", "atom_type": "H0"}}

>  <type>  (11) 
unop_7

>  <geom_source>  (11) 
Heuristics

$$$$

     RDKit          3D

 23 21  0  0  0  0  0  0  0  0999 V2000
   -0.6083   -0.7118    2.0825 C   0  0  0  0  0  0  0  0  0  0  0  0
   -0.9621   -0.0040    0.7799 C   0  0  0  0  0  3  0  0  0  0  0  0
   -2.4683    0.0079    0.5404 C   0  0  0  0  0  0  0  0  0  0  0  0
   -0.4189    1.4221    0.7558 C   0  0  0  0  0  0  0  0  0  0  0  0
    0.9847    1.5010    0.8991 O   0  0  0  0  0  0  0  0  0  0  0  0
   -1.0992   -0.2210    2.9278 H   0  0  0  0  0  0  0  0  0  0  0  0
    0.4665   -0.6906    2.2628 H   0  0  0  0  0  0  0  0  0  0  0  0
   -0.9356   -1.7532    2.0642 H   0  0  0  0  0  0  0  0  0  0  0  0
   -2.9806    0.5563    1.3358 H   0  0  0  0  0  0  0  0  0  0  0  0
   -2.7214    0.4821   -0.4104 H   0  0  0  0  0  0  0  0  0  0  0  0
   -2.8697   -1.0067    0.5274 H   0  0  0  0  0  0  0  0  0  0  0  0
   -0.8344    1.9855    1.5957 H   0  0  0  0  0  0  0  0  0  0  0  0
   -0.7431    1.9230   -0.1662 H   0  0  0  0  0  0  0  0  0  0  0  0
    1.3905    1.0539    0.1548 H   0  0  0  0  0  0  0  0  0  0  0  0
    1.1493   -1.2673   -2.9709 C   0  0  0  0  0  0  0  0  0  0  0  0
    1.1493   -1.2673   -1.6471 C   0  0  0  0  0  0  0  0  0  0  0  0
    1.1493   -0.0451   -0.7866 C   0  0  0  0  0  0  0  0  0  0  0  0
    1.1493   -2.1900   -3.5374 H   0  0  0  0  0  0  0  0  0  0  0  0
    1.1493   -0.3417   -3.5369 H   0  0  0  0  0  0  0  0  0  0  0  0
    1.1493   -2.2199   -1.1236 H   0  0  0  0  0  0  0  0  0  0  0  0
    0.0961   -0.0246   -0.0052 H   0  0  0  0  0  0  0  0  0  0  0  0
    1.1493    0.8653   -1.3872 H   0  0  0  0  0  0  0  0  0  0  0  0
    2.0270   -0.0280   -0.1354 H   0  0  0  0  0  0  0  0  0  0  0  0
  1  2  1  0
  1  6  1  0
  1  7  1  0
  1  8  1  0
  2  3  1  0
  2  4  1  0
  3  9  1  0
  3 10  1  0
  3 11  1  0
  4  5  1  0
  4 12  1  0
  4 13  1  0
  5 14  1  0
 15 16  2  3
 15 18  1  0
 15 19  1  0
 16 17  1  0
 16 20  1  0
 17 21  1  0
 17 22  1  0
 17 23  1  0
M  RAD  1   2   2
M  END
>  <reaction>  (12) 
rxn_413

>  <mol_properties>  (12) 
{"1": {"label": "*3", "atom_type": "Cs"}, "3": {"label": "*4", "atom_type": "Cs"}, "15": {"label": "*0", "atom_type": "Cd"}, "16": {"label": "*1", "atom_type": "Cs"}, "20": {"label": "*2", "atom_type": "H0"}}

>  <type>  (12) 
unop_8

>  <geom_source>  (12) 
Heuristics

$$$$

     RDKit          3D

 23 21  0  0  0  0  0  0  0  0999 V2000
   -1.7936   -0.2203   -0.0927 C   0  0  0  0  0  0  0  0  0  0  0  0
   -0.6546    0.5028    0.6163 C   0  0  0  0  0  3  0  0  0  0  0  0
   -0.7977    2.0172    0.5052 C   0  0  0  0  0  0  0  0  0  0  0  0
   -0.5633    0.0939    2.0839 C   0  0  0  0  0  0  0  0  0  0  0  0
   -0.3569   -1.2904    2.2790 O   0  0  0  0  0  0  0  0  0  0  0  0
   -2.7565    0.0782    0.3317 H   0  0  0  0  0  0  0  0  0  0  0  0
   -1.7019   -1.3010    0.0159 H   0  0  0  0  0  0  0  0  0  0  0  0
   -1.8083    0.0204   -1.1574 H   0  0  0  0  0  0  0  0  0  0  0  0
   -1.7204    2.3533    0.9864 H   0  0  0  0  0  0  0  0  0  0  0  0
    0.0369    2.5368    0.9808 H   0  0  0  0  0  0  0  0  0  0  0  0
   -0.8372    2.3302   -0.5394 H   0  0  0  0  0  0  0  0  0  0  0  0
   -1.5056    0.3266    2.5872 H   0  0  0  0  0  0  0  0  0  0  0  0
    0.2245    0.6769    2.5793 H   0  0  0  0  0  0  0  0  0  0  0  0
    0.4852   -1.5288    1.8882 H   0  0  0  0  0  0  0  0  0  0  0  0
    1.4568   -0.7606   -3.1345 C   0  0  0  0  0  0  0  0  0  0  0  0
    1.4568   -0.7606   -1.8108 C   0  0  0  0  0  0  0  0  0  0  0  0
    1.4568    0.4616   -0.9503 C   0  0  0  0  0  0  0  0  0  0  0  0
    1.4568   -1.6833   -3.7010 H   0  0  0  0  0  0  0  0  0  0  0  0
    1.4568    0.1650   -3.7005 H   0  0  0  0  0  0  0  0  0  0  0  0
    1.4568   -1.7132   -1.2872 H   0  0  0  0  0  0  0  0  0  0  0  0
    0.4036    0.4822   -0.1688 H   0  0  0  0  0  0  0  0  0  0  0  0
    1.4568    1.3721   -1.5509 H   0  0  0  0  0  0  0  0  0  0  0  0
    2.3345    0.4787   -0.2990 H   0  0  0  0  0  0  0  0  0  0  0  0
  1  2  1  0
  1  6  1  0
  1  7  1  0
  1  8  1  0
  2  3  1  0
  2  4  1  0
  3  9  1  0
  3 10  1  0
  3 11  1  0
  4  5  1  0
  4 12  1  0
  4 13  1  0
  5 14  1  0
 15 16  2  3
 15 18  1  0
 15 19  1  0
 16 17  1  0
 16 20  1  0
 17 21  1  0
 17 22  1  0
 17 23  1  0
M  RAD  1   2   2
M  END
>  <reaction>  (13) 
rxn_413

>  <mol_properties>  (13) 
{"1": {"label": "*3", "atom_type": "Cs"}, "3": {"label": "*4", "atom_type": "Cs"}, "15": {"label": "*0", "atom_type": "Cd"}, "16": {"label": "*1", "atom_type": "Cs"}, "20": {"label": "*2", "atom_type": "H0"}}

>  <type>  (13) 
unop_9

>  <geom_source>  (13) 
Heuristics

$$$$

     RDKit          3D

 23 21  0  0  0  0  0  0  0  0999 V2000
   -0.9612   -1.1011    1.5409 C   0  0  0  0  0  0  0  0  0  0  0  0
   -0.9948    0.1393    0.6559 C   0  0  0  0  0  3  0  0  0  0  0  0
   -2.4249    0.5954    0.3852 C   0  0  0  0  0  0  0  0  0  0  0  0
   -0.1900    1.2824    1.2683 C   0  0  0  0  0  0  0  0  0  0  0  0
    1.1705    0.9694    1.4871 O   0  0  0  0  0  0  0  0  0  0  0  0
   -1.4577   -0.9014    2.4949 H   0  0  0  0  0  0  0  0  0  0  0  0
    0.0636   -1.4041    1.7553 H   0  0  0  0  0  0  0  0  0  0  0  0
   -1.4767   -1.9370    1.0641 H   0  0  0  0  0  0  0  0  0  0  0  0
   -2.9244    0.8713    1.3181 H   0  0  0  0  0  0  0  0  0  0  0  0
   -2.4525    1.4621   -0.2788 H   0  0  0  0  0  0  0  0  0  0  0  0
   -3.0080   -0.2019   -0.0783 H   0  0  0  0  0  0  0  0  0  0  0  0
   -0.5985    1.5309    2.2516 H   0  0  0  0  0  0  0  0  0  0  0  0
   -0.2855    2.1772    0.6389 H   0  0  0  0  0  0  0  0  0  0  0  0
    1.5791    0.7866    0.6396 H   0  0  0  0  0  0  0  0  0  0  0  0
    1.1166   -1.1240   -3.0949 C   0  0  0  0  0  0  0  0  0  0  0  0
    1.1166   -1.1240   -1.7712 C   0  0  0  0  0  0  0  0  0  0  0  0
    1.1166    0.0982   -0.9106 C   0  0  0  0  0  0  0  0  0  0  0  0
    1.1166   -2.0467   -3.6614 H   0  0  0  0  0  0  0  0  0  0  0  0
    1.1166   -0.1984   -3.6609 H   0  0  0  0  0  0  0  0  0  0  0  0
    1.1166   -2.0766   -1.2476 H   0  0  0  0  0  0  0  0  0  0  0  0
    0.0633    0.1187   -0.1292 H   0  0  0  0  0  0  0  0  0  0  0  0
    1.1166    1.0086   -1.5112 H   0  0  0  0  0  0  0  0  0  0  0  0
    1.9943    0.1153   -0.2594 H   0  0  0  0  0  0  0  0  0  0  0  0
  1  2  1  0
  1  6  1  0
  1  7  1  0
  1  8  1  0
  2  3  1  0
  2  4  1  0
  3  9  1  0
  3 10  1  0
  3 11  1  0
  4  5  1  0
  4 12  1  0
  4 13  1  0
  5 14  1  0
 15 16  2  3
 15 18  1  0
 15 19  1  0
 16 17  1  0
 16 20  1  0
 17 21  1  0
 17 22  1  0
 17 23  1  0
M  RAD  1   2   2
M  END
>  <reaction>  (14) 
rxn_413

>  <mol_properties>  (14) 
{"1": {"label": "*3", "atom_type": "Cs"}, "3": {"label": "*4", "atom_type": "Cs"}, "15": {"label": "*0", "atom_type": "Cd"}, "16": {"label": "*1", "atom_type": "Cs"}, "20": {"label": "*2", "atom_type": "H0"}}

>  <type>  (14) 
unop_10

>  <geom_source>  (14) 
Heuristics

$$$$

     RDKit          3D

 23 21  0  0  0  0  0  0  0  0999 V2000
   -0.7559    1.8211    1.1907 C   0  0  0  0  0  0  0  0  0  0  0  0
   -0.3827    0.3675    0.9248 C   0  0  0  0  0  3  0  0  0  0  0  0
    0.5667   -0.1707    1.9903 C   0  0  0  0  0  0  0  0  0  0  0  0
   -1.6223   -0.5183    0.8353 C   0  0  0  0  0  0  0  0  0  0  0  0
   -2.5270   -0.1333   -0.1796 O   0  0  0  0  0  0  0  0  0  0  0  0
   -1.2297    1.9190    2.1717 H   0  0  0  0  0  0  0  0  0  0  0  0
   -1.4577    2.1905    0.4430 H   0  0  0  0  0  0  0  0  0  0  0  0
    0.1286    2.4610    1.1811 H   0  0  0  0  0  0  0  0  0  0  0  0
    0.0912   -0.1518    2.9749 H   0  0  0  0  0  0  0  0  0  0  0  0
    0.8645   -1.2005    1.7815 H   0  0  0  0  0  0  0  0  0  0  0  0
    1.4719    0.4357    2.0491 H   0  0  0  0  0  0  0  0  0  0  0  0
   -2.1837   -0.4566    1.7715 H   0  0  0  0  0  0  0  0  0  0  0  0
   -1.3170   -1.5652    0.7056 H   0  0  0  0  0  0  0  0  0  0  0  0
   -2.0852   -0.2155   -1.0261 H   0  0  0  0  0  0  0  0  0  0  0  0
    1.7287   -0.8958   -2.8260 C   0  0  0  0  0  0  0  0  0  0  0  0
    1.7287   -0.8958   -1.5023 C   0  0  0  0  0  0  0  0  0  0  0  0
    1.7287    0.3264   -0.6418 C   0  0  0  0  0  0  0  0  0  0  0  0
    1.7287   -1.8186   -3.3925 H   0  0  0  0  0  0  0  0  0  0  0  0
    1.7287    0.0298   -3.3920 H   0  0  0  0  0  0  0  0  0  0  0  0
    1.7287   -1.8485   -0.9788 H   0  0  0  0  0  0  0  0  0  0  0  0
    0.6755    0.3469    0.1397 H   0  0  0  0  0  0  0  0  0  0  0  0
    1.7287    1.2368   -1.2424 H   0  0  0  0  0  0  0  0  0  0  0  0
    2.6064    0.3435    0.0094 H   0  0  0  0  0  0  0  0  0  0  0  0
  1  2  1  0
  1  6  1  0
  1  7  1  0
  1  8  1  0
  2  3  1  0
  2  4  1  0
  3  9  1  0
  3 10  1  0
  3 11  1  0
  4  5  1  0
  4 12  1  0
  4 13  1  0
  5 14  1  0
 15 16  2  3
 15 18  1  0
 15 19  1  0
 16 17  1  0
 16 20  1  0
 17 21  1  0
 17 22  1  0
 17 23  1  0
M  RAD  1   2   2
M  END
>  <reaction>  (15) 
rxn_413

>  <mol_properties>  (15) 
{"1": {"label": "*3", "atom_type": "Cs"}, "3": {"label": "*4", "atom_type": "Cs"}, "15": {"label": "*0", "atom_type": "Cd"}, "16": {"label": "*1", "atom_type": "Cs"}, "20": {"label": "*2", "atom_type": "H0"}}

>  <type>  (15) 
unop_11

>  <geom_source>  (15) 
Heuristics

$$$$

     RDKit          3D

 23 21  0  0  0  0  0  0  0  0999 V2000
   -1.6344   -0.8016    0.2942 C   0  0  0  0  0  0  0  0  0  0  0  0
   -0.8061    0.4476    0.5706 C   0  0  0  0  0  3  0  0  0  0  0  0
   -1.5930    1.7190    0.2698 C   0  0  0  0  0  0  0  0  0  0  0  0
   -0.3026    0.4745    2.0111 C   0  0  0  0  0  0  0  0  0  0  0  0
    0.4999   -0.6362    2.3563 O   0  0  0  0  0  0  0  0  0  0  0  0
   -2.5455   -0.7956    0.8993 H   0  0  0  0  0  0  0  0  0  0  0  0
   -1.0771   -1.7057    0.5396 H   0  0  0  0  0  0  0  0  0  0  0  0
   -1.9301   -0.8517   -0.7555 H   0  0  0  0  0  0  0  0  0  0  0  0
   -2.4747    1.7877    0.9130 H   0  0  0  0  0  0  0  0  0  0  0  0
   -0.9891    2.6145    0.4319 H   0  0  0  0  0  0  0  0  0  0  0  0
   -1.9380    1.7290   -0.7654 H   0  0  0  0  0  0  0  0  0  0  0  0
   -1.1543    0.4487    2.6963 H   0  0  0  0  0  0  0  0  0  0  0  0
    0.2362    1.4137    2.1944 H   0  0  0  0  0  0  0  0  0  0  0  0
    1.2839   -0.6262    1.8049 H   0  0  0  0  0  0  0  0  0  0  0  0
    1.3053   -0.8158   -3.1802 C   0  0  0  0  0  0  0  0  0  0  0  0
    1.3053   -0.8158   -1.8564 C   0  0  0  0  0  0  0  0  0  0  0  0
    1.3053    0.4064   -0.9959 C   0  0  0  0  0  0  0  0  0  0  0  0
    1.3053   -1.7385   -3.7467 H   0  0  0  0  0  0  0  0  0  0  0  0
    1.3053    0.1098   -3.7462 H   0  0  0  0  0  0  0  0  0  0  0  0
    1.3053   -1.7684   -1.3329 H   0  0  0  0  0  0  0  0  0  0  0  0
    0.2521    0.4269   -0.2145 H   0  0  0  0  0  0  0  0  0  0  0  0
    1.3053    1.3168   -1.5965 H   0  0  0  0  0  0  0  0  0  0  0  0
    2.1830    0.4235   -0.3447 H   0  0  0  0  0  0  0  0  0  0  0  0
  1  2  1  0
  1  6  1  0
  1  7  1  0
  1  8  1  0
  2  3  1  0
  2  4  1  0
  3  9  1  0
  3 10  1  0
  3 11  1  0
  4  5  1  0
  4 12  1  0
  4 13  1  0
  5 14  1  0
 15 16  2  3
 15 18  1  0
 15 19  1  0
 16 17  1  0
 16 20  1  0
 17 21  1  0
 17 22  1  0
 17 23  1  0
M  RAD  1   2   2
M  END
>  <reaction>  (16) 
rxn_413

>  <mol_properties>  (16) 
{"1": {"label": "*3", "atom_type": "Cs"}, "3": {"label": "*4", "atom_type": "Cs"}, "15": {"label": "*0", "atom_type": "Cd"}, "16": {"label": "*1", "atom_type": "Cs"}, "20": {"label": "*2", "atom_type": "H0"}}

>  <type>  (16) 
unop_12

>  <geom_source>  (16) 
Heuristics

$$$$

     RDKit          3D

 23 21  0  0  0  0  0  0  0  0999 V2000
   -2.8860    1.4168   -0.1187 O   0  0  0  0  0  0  0  0  0  0  0  0
   -1.0302   -0.1312    0.0060 C   0  0  0  0  0  0  0  0  0  0  0  0
   -1.5661    1.2017   -0.5395 C   0  0  0  0  0  0  0  0  0  0  0  0
   -1.8442   -1.3180   -0.5219 C   0  0  0  0  0  0  0  0  0  0  0  0
   -0.9942   -0.1331    1.5384 C   0  0  0  0  0  0  0  0  0  0  0  0
    2.7259   -0.6888    0.0307 C   0  0  0  0  0  0  0  0  0  0  0  0
    1.5347    0.0842   -0.4375 C   0  0  0  0  0  0  0  0  0  0  0  0
    3.9520   -0.1626   -0.0085 C   0  0  0  0  0  3  0  0  0  0  0  0
    0.2114   -0.2708   -0.4259 H   0  0  0  0  0  0  0  0  0  0  0  0
   -0.9173    2.0324   -0.1820 H   0  0  0  0  0  0  0  0  0  0  0  0
   -1.5235    1.1872   -1.6516 H   0  0  0  0  0  0  0  0  0  0  0  0
   -1.3933   -2.2714   -0.1736 H   0  0  0  0  0  0  0  0  0  0  0  0
   -2.8954   -1.2679   -0.1655 H   0  0  0  0  0  0  0  0  0  0  0  0
   -1.8389   -1.3197   -1.6324 H   0  0  0  0  0  0  0  0  0  0  0  0
   -2.0188   -0.0459    1.9594 H   0  0  0  0  0  0  0  0  0  0  0  0
   -0.3791    0.7153    1.9061 H   0  0  0  0  0  0  0  0  0  0  0  0
   -0.5356   -1.0757    1.9054 H   0  0  0  0  0  0  0  0  0  0  0  0
    2.5843   -1.6962    0.4085 H   0  0  0  0  0  0  0  0  0  0  0  0
    4.1156    0.8436   -0.3828 H   0  0  0  0  0  0  0  0  0  0  0  0
    4.8027   -0.7414    0.3364 H   0  0  0  0  0  0  0  0  0  0  0  0
    1.6431    0.3458   -1.5113 H   0  0  0  0  0  0  0  0  0  0  0  0
    1.4128    1.0076    0.1672 H   0  0  0  0  0  0  0  0  0  0  0  0
   -3.1600    2.2881   -0.5067 H   0  0  0  0  0  0  0  0  0  0  0  0
  1  3  1  0
  1 23  1  0
  2  4  1  0
  2  5  1  0
  2  3  1  0
  2  9  1  0
  3 10  1  0
  3 11  1  0
  4 12  1  0
  4 13  1  0
  4 14  1  0
  5 15  1  0
  5 16  1  0
  5 17  1  0
  6  7  2  3
  6  8  1  0
  6 18  1  0
  7 21  1  0
  7 22  1  0
  8 19  1  0
  8 20  1  0
M  RAD  1   8   2
M  END
>  <reaction>  (17) 
rxn_413

>  <mol_properties>  (17) 
{"1": {"label": "*3", "atom_type": "Cs"}, "3": {"label": "*4", "atom_type": "Cs"}, "15": {"label": "*0", "atom_type": "Cd"}, "16": {"label": "*1", "atom_type": "Cs"}, "20": {"label": "*2", "atom_type": "H0"}}

>  <type>  (17) 
unop_13

>  <geom_source>  (17) 
AutoTST

$$$$

     RDKit          3D

 23 21  0  0  0  0  0  0  0  0999 V2000
   -1.3392   -1.1290    0.8869 C   0  0  0  0  0  0  0  0  0  0  0  0
   -0.9401    0.3095    0.5798 C   0  0  0  0  0  3  0  0  0  0  0  0
   -2.1578    1.1748    0.2719 C   0  0  0  0  0  0  0  0  0  0  0  0
   -0.1411    0.9227    1.7265 C   0  0  0  0  0  0  0  0  0  0  0  0
    1.0473    0.2222    2.0329 O   0  0  0  0  0  0  0  0  0  0  0  0
   -2.0229   -1.1603    1.7401 H   0  0  0  0  0  0  0  0  0  0  0  0
   -0.4678   -1.7348    1.1354 H   0  0  0  0  0  0  0  0  0  0  0  0
   -1.8464   -1.5856    0.0347 H   0  0  0  0  0  0  0  0  0  0  0  0
   -2.8265    1.2203    1.1360 H   0  0  0  0  0  0  0  0  0  0  0  0
   -1.8713    2.1970    0.0155 H   0  0  0  0  0  0  0  0  0  0  0  0
   -2.7265    0.7653   -0.5645 H   0  0  0  0  0  0  0  0  0  0  0  0
   -0.7405    0.9030    2.6408 H   0  0  0  0  0  0  0  0  0  0  0  0
    0.0766    1.9752    1.5009 H   0  0  0  0  0  0  0  0  0  0  0  0
    1.6229    0.2533    1.2671 H   0  0  0  0  0  0  0  0  0  0  0  0
    1.1713   -0.9538   -3.1710 C   0  0  0  0  0  0  0  0  0  0  0  0
    1.1713   -0.9538   -1.8473 C   0  0  0  0  0  0  0  0  0  0  0  0
    1.1713    0.2683   -0.9868 C   0  0  0  0  0  0  0  0  0  0  0  0
    1.1713   -1.8766   -3.7375 H   0  0  0  0  0  0  0  0  0  0  0  0
    1.1713   -0.0282   -3.7370 H   0  0  0  0  0  0  0  0  0  0  0  0
    1.1713   -1.9065   -1.3238 H   0  0  0  0  0  0  0  0  0  0  0  0
    0.1181    0.2889   -0.2053 H   0  0  0  0  0  0  0  0  0  0  0  0
    1.1713    1.1788   -1.5874 H   0  0  0  0  0  0  0  0  0  0  0  0
    2.0490    0.2855   -0.3356 H   0  0  0  0  0  0  0  0  0  0  0  0
  1  2  1  0
  1  6  1  0
  1  7  1  0
  1  8  1  0
  2  3  1  0
  2  4  1  0
  3  9  1  0
  3 10  1  0
  3 11  1  0
  4  5  1  0
  4 12  1  0
  4 13  1  0
  5 14  1  0
 15 16  2  3
 15 18  1  0
 15 19  1  0
 16 17  1  0
 16 20  1  0
 17 21  1  0
 17 22  1  0
 17 23  1  0
M  RAD  1   2   2
M  END
>  <reaction>  (18) 
rxn_413

>  <mol_properties>  (18) 
{"1": {"label": "*3", "atom_type": "Cs"}, "3": {"label": "*4", "atom_type": "Cs"}, "15": {"label": "*0", "atom_type": "Cd"}, "16": {"label": "*1", "atom_type": "Cs"}, "20": {"label": "*2", "atom_type": "H0"}}

>  <type>  (18) 
unop_14

>  <geom_source>  (18) 
gaussian_log

$$$$
