
     RDKit          3D

 10  9  0  0  0  0  0  0  0  0999 V2000
    2.2738    0.0217   -0.0992 C   0  0  0  0  0  0  0  0  0  0  0  0
    1.1083    0.2960   -0.0695 C   0  0  0  0  0  0  0  0  0  0  0  0
   -0.3173    0.6046   -0.0227 C   0  0  0  0  0  0  0  0  0  0  0  0
   -1.1561   -0.5495    0.5292 C   0  0  0  0  0  0  0  0  0  0  0  0
    3.3097   -0.2166   -0.1277 H   0  0  0  0  0  0  0  0  0  0  0  0
   -0.6542    0.8617   -1.0302 H   0  0  0  0  0  0  0  0  0  0  0  0
   -0.4633    1.4978    0.5900 H   0  0  0  0  0  0  0  0  0  0  0  0
   -0.8485   -0.7997    1.5447 H   0  0  0  0  0  0  0  0  0  0  0  0
   -2.2115   -0.2752    0.5459 H   0  0  0  0  0  0  0  0  0  0  0  0
   -1.0409   -1.4407   -0.0879 H   0  0  0  0  0  0  0  0  0  0  0  0
  1  2  3  0
  1  5  1  0
  2  3  1  0
  3  4  1  0
  3  6  1  0
  3  7  1  0
  4  8  1  0
  4  9  1  0
  4 10  1  0
M  END
>  <reaction>  (1) 
rxn_1257

>  <mol_properties>  (1) 
{"2": {"label": "donator", "atom_type": "Cs"}, "5": {"label": "d_hydrogen", "atom_type": "H0"}}

>  <type>  (1) 
r1h

$$$$

     RDKit          3D

  1  0  0  0  0  0  0  0  0  0999 V2000
    0.0000    0.0000    0.0000 H   0  0  0  0  0 15  0  0  0  0  0  0
M  END
>  <reaction>  (2) 
rxn_1257

>  <mol_properties>  (2) 
{"0": {"label": "acceptor", "atom_type": "H0"}}

>  <type>  (2) 
r2

$$$$

     RDKit          3D

  2  1  0  0  0  0  0  0  0  0999 V2000
    0.0000    0.0000    0.3721 H   0  0  0  0  0  0  0  0  0  0  0  0
    0.0000    0.0000   -0.3721 H   0  0  0  0  0  0  0  0  0  0  0  0
  1  2  1  0
M  END
>  <reaction>  (3) 
rxn_1257

>  <mol_properties>  (3) 
{"0": {"label": "acceptor", "atom_type": "H0"}, "1": {"label": "a_hydrogen", "atom_type": "H0"}}

>  <type>  (3) 
r2h

$$$$

     RDKit          3D

 11  9  0  0  0  0  0  0  0  0999 V2000
    1.1494   -1.6798    1.8431 H   0  0  0  0  0 15  0  0  0  0  0  0
    0.4012   -0.4119   -1.8860 C   0  0  0  0  0  0  0  0  0  0  0  0
    0.0995   -0.3416   -0.7270 C   0  0  0  0  0  0  0  0  0  0  0  0
   -0.2251   -0.2616    0.6715 C   0  0  0  0  0  0  0  0  0  0  0  0
    0.0002    1.0902    1.3236 C   0  0  0  0  0  0  0  0  0  0  0  0
    0.6600   -0.4733   -2.9156 H   0  0  0  0  0  0  0  0  0  0  0  0
    0.5131   -1.0519    1.2559 H   0  0  0  0  0  0  0  0  0  0  0  0
   -1.2142   -0.6719    0.8780 H   0  0  0  0  0  0  0  0  0  0  0  0
   -0.1906    1.0294    2.3953 H   0  0  0  0  0  0  0  0  0  0  0  0
    1.0257    1.4264    1.1710 H   0  0  0  0  0  0  0  0  0  0  0  0
   -0.6690    1.8388    0.8958 H   0  0  0  0  0  0  0  0  0  0  0  0
  2  3  3  0
  2  6  1  0
  3  4  1  0
  4  5  1  0
  4  7  1  0
  4  8  1  0
  5  9  1  0
  5 10  1  0
  5 11  1  0
M  END
>  <reaction>  (4) 
rxn_1257

>  <mol_properties>  (4) 
{"0": {"label": "*1", "atom_type": "H0"}, "2": {"label": "*4", "atom_type": "Ct"}, "3": {"label": "*3", "atom_type": "Cs"}, "6": {"label": "*2", "atom_type": "H0"}}

>  <type>  (4) 
ts

$$$$

     RDKit          3D

 11  9  0  0  0  0  0  0  0  0999 V2000
    1.7304   -1.4520    1.5048 H   0  0  0  0  0 15  0  0  0  0  0  0
   -0.0355   -0.3808   -1.8817 C   0  0  0  0  0  0  0  0  0  0  0  0
   -0.0355   -0.3808   -0.6840 C   0  0  0  0  0  0  0  0  0  0  0  0
   -0.0355   -0.3525    0.7752 C   0  0  0  0  0  0  0  0  0  0  0  0
   -0.0355    1.0688    1.3408 C   0  0  0  0  0  0  0  0  0  0  0  0
   -0.0355   -0.3808   -2.9450 H   0  0  0  0  0  0  0  0  0  0  0  0
    1.0151   -1.0066    1.2092 H   0  0  0  0  0  0  0  0  0  0  0  0
   -0.9110   -0.8976    1.1369 H   0  0  0  0  0  0  0  0  0  0  0  0
   -0.9177    1.6167    1.0093 H   0  0  0  0  0  0  0  0  0  0  0  0
   -0.0355    1.0416    2.4310 H   0  0  0  0  0  0  0  0  0  0  0  0
    0.8467    1.6167    1.0093 H   0  0  0  0  0  0  0  0  0  0  0  0
  2  3  3  0
  2  6  1  0
  3  4  1  0
  4  5  1  0
  4  7  1  0
  4  8  1  0
  5  9  1  0
  5 10  1  0
  5 11  1  0
M  END
>  <reaction>  (5) 
rxn_1257

>  <mol_properties>  (5) 
{"0": {"label": "*1", "atom_type": "H0"}, "2": {"label": "*4", "atom_type": "Ct"}, "3": {"label": "*3", "atom_type": "Cs"}, "6": {"label": "*2", "atom_type": "H0"}}

>  <type>  (5) 
unop_1

>  <geom_source>  (5) 
Heuristics

$$$$

     RDKit          3D

 11  9  0  0  0  0  0  0  0  0999 V2000
   -1.1331   -0.5397    0.5705 C   0  0  0  0  0  0  0  0  0  0  0  0
   -0.3369    0.1285   -0.5411 C   0  0  0  0  0  0  0  0  0  0  0  0
    1.1033   -0.0572   -0.3330 C   0  0  0  0  0  0  0  0  0  0  0  0
    2.2870   -0.2091   -0.1628 C   0  0  0  0  0  0  0  0  0  0  0  0
   -0.9348   -1.6331    0.5870 H   0  0  0  0  0  0  0  0  0  0  0  0
   -0.8628   -0.0988    1.5536 H   0  0  0  0  0  0  0  0  0  0  0  0
   -2.2165   -0.3749    0.3948 H   0  0  0  0  0  0  0  0  0  0  0  0
   -0.6263   -0.2982   -1.5246 H   0  0  0  0  0  0  0  0  0  0  0  0
    3.3262   -0.3425   -0.0132 H   0  0  0  0  0  0  0  0  0  0  0  0
   -0.3049    2.2573    0.0411 H   0  0  0  0  0 15  0  0  0  0  0  0
   -0.3013    1.1677   -0.5724 H   0  0  0  0  0  0  0  0  0  0  0  0
  1  2  1  0
  1  5  1  0
  1  6  1  0
  1  7  1  0
  2  3  1  0
  2  8  1  0
  2 11  1  0
  3  4  3  0
  4  9  1  0
M  END
>  <reaction>  (6) 
rxn_1257

>  <mol_properties>  (6) 
{"0": {"label": "*1", "atom_type": "H0"}, "2": {"label": "*4", "atom_type": "Ct"}, "3": {"label": "*3", "atom_type": "Cs"}, "6": {"label": "*2", "atom_type": "H0"}}

>  <type>  (6) 
unop_2

>  <geom_source>  (6) 
AutoTST

$$$$
