
     RDKit          3D

  7  6  0  0  0  0  0  0  0  0999 V2000
   -1.0240    0.8044   -0.4204 O   0  0  0  0  0  0  0  0  0  0  0  0
   -0.3365   -0.3409    0.0003 C   0  0  0  0  0  0  0  0  0  0  0  0
    1.1270   -0.1767   -0.0328 C   0  0  0  0  0  0  0  0  0  0  0  0
    2.2637   -0.0259   -0.0358 N   0  0  0  0  0  0  0  0  0  0  0  0
   -0.8050    1.5374    0.1584 H   0  0  0  0  0  0  0  0  0  0  0  0
   -0.6168   -0.6523    1.0127 H   0  0  0  0  0  0  0  0  0  0  0  0
   -0.6084   -1.1459   -0.6824 H   0  0  0  0  0  0  0  0  0  0  0  0
  1  2  1  0
  1  5  1  0
  2  3  1  0
  2  6  1  0
  2  7  1  0
  3  4  3  0
M  END
>  <reaction>  (1) 
rxn_3228

>  <mol_properties>  (1) 
{"1": {"label": "donator", "atom_type": "Cs"}, "5": {"label": "d_hydrogen", "atom_type": "H0"}}

>  <type>  (1) 
r1h

$$$$

     RDKit          3D

  7  6  0  0  0  0  0  0  0  0999 V2000
   -1.3059    0.5497   -0.1304 N   0  0  0  0  0  2  0  0  0  0  0  0
   -0.2700   -0.4288    0.0448 C   0  0  0  0  0  0  0  0  0  0  0  0
    1.1109    0.0669    0.0401 C   0  0  0  0  0  0  0  0  0  0  0  0
    2.1758    0.4925    0.0308 N   0  0  0  0  0  0  0  0  0  0  0  0
   -0.8815    1.4733   -0.2339 H   0  0  0  0  0  0  0  0  0  0  0  0
   -0.3767   -1.1909   -0.7373 H   0  0  0  0  0  0  0  0  0  0  0  0
   -0.4527   -0.9628    0.9858 H   0  0  0  0  0  0  0  0  0  0  0  0
  1  2  1  0
  1  5  1  0
  2  3  1  0
  2  6  1  0
  2  7  1  0
  3  4  3  0
M  RAD  1   1   2
M  END
>  <reaction>  (2) 
rxn_3228

>  <mol_properties>  (2) 
{"0": {"label": "acceptor", "atom_type": "N3s"}}

>  <type>  (2) 
r2

$$$$

     RDKit          3D

  8  7  0  0  0  0  0  0  0  0999 V2000
   -1.0805    0.5317    0.0204 N   0  0  0  0  0  0  0  0  0  0  0  0
   -0.1080   -0.5393    0.0956 C   0  0  0  0  0  0  0  0  0  0  0  0
    1.2945   -0.1247   -0.1005 C   0  0  0  0  0  0  0  0  0  0  0  0
    2.3714    0.2386   -0.2580 N   0  0  0  0  0  0  0  0  0  0  0  0
   -1.0516    0.9857   -0.8822 H   0  0  0  0  0  0  0  0  0  0  0  0
   -0.9009    1.2352    0.7235 H   0  0  0  0  0  0  0  0  0  0  0  0
   -0.3427   -1.2965   -0.6542 H   0  0  0  0  0  0  0  0  0  0  0  0
   -0.1810   -1.0288    1.0680 H   0  0  0  0  0  0  0  0  0  0  0  0
  1  2  1  0
  1  5  1  0
  1  6  1  0
  2  3  1  0
  2  7  1  0
  2  8  1  0
  3  4  3  0
M  END
>  <reaction>  (3) 
rxn_3228

>  <mol_properties>  (3) 
{"0": {"label": "acceptor", "atom_type": "N3s"}, "7": {"label": "a_hydrogen", "atom_type": "H0"}}

>  <type>  (3) 
r2h

$$$$

     RDKit          3D

 14 12  0  0  0  0  0  0  0  0999 V2000
   -0.4787   -1.3408    1.2961 N   0  0  0  0  0  2  0  0  0  0  0  0
   -1.3105   -1.7234    0.1717 C   0  0  0  0  0  0  0  0  0  0  0  0
   -1.6757   -0.6099   -0.7170 C   0  0  0  0  0  0  0  0  0  0  0  0
   -1.8785    0.2993   -1.3878 N   0  0  0  0  0  0  0  0  0  0  0  0
   -0.9080   -0.5343    1.7535 H   0  0  0  0  0  0  0  0  0  0  0  0
   -2.2322   -2.1812    0.5478 H   0  0  0  0  0  0  0  0  0  0  0  0
   -0.7959   -2.4787   -0.4243 H   0  0  0  0  0  0  0  0  0  0  0  0
    1.3137   -0.0863   -1.2211 O   0  0  0  0  0  0  0  0  0  0  0  0
    1.4533    0.0141    0.1441 C   0  0  0  0  0  0  0  0  0  0  0  0
    1.2704    1.3414    0.7071 C   0  0  0  0  0  0  0  0  0  0  0  0
    1.0605    2.3660    1.1818 N   0  0  0  0  0  0  0  0  0  0  0  0
    0.5220    0.3834   -1.5102 H   0  0  0  0  0  0  0  0  0  0  0  0
    0.6151   -0.7049    0.7465 H   0  0  0  0  0  0  0  0  0  0  0  0
    2.4017   -0.4266    0.4472 H   0  0  0  0  0  0  0  0  0  0  0  0
  1  2  1  0
  1  5  1  0
  2  3  1  0
  2  6  1  0
  2  7  1  0
  3  4  3  0
  8  9  1  0
  8 12  1  0
  9 10  1  0
  9 13  1  0
  9 14  1  0
 10 11  3  0
M  RAD  1   1   2
M  END
>  <reaction>  (4) 
rxn_3228

>  <mol_properties>  (4) 
{"0": {"label": "*3", "atom_type": "N3s"}, "1": {"label": "*4", "atom_type": "Cs"}, "8": {"label": "*1", "atom_type": "Cs"}, "9": {"label": "*0", "atom_type": "Ct"}, "12": {"label": "*2", "atom_type": "H0"}}

>  <type>  (4) 
ts

$$$$

     RDKit          3D

 14 12  0  0  0  0  0  0  0  0999 V2000
   -1.1106   -0.2486    0.4256 N   0  0  0  0  0  0  0  0  0  0  0  0
   -0.6680   -1.3547    1.2497 C   0  0  0  0  0  0  0  0  0  0  0  0
   -0.7617   -2.6835    0.6148 C   0  0  0  0  0  0  0  0  0  0  0  0
   -0.8505   -3.6976    0.0854 N   0  0  0  0  0  0  0  0  0  0  0  0
   -2.0795   -0.3587    0.1601 H   0  0  0  0  0  0  0  0  0  0  0  0
   -1.2540   -1.3797    2.1697 H   0  0  0  0  0  0  0  0  0  0  0  0
    0.3704   -1.1956    1.5444 H   0  0  0  0  0  0  0  0  0  0  0  0
    0.8580    1.0043   -1.9466 O   0  0  0  0  0  0  0  0  0  0  0  0
    0.8580    1.0043   -0.5461 C   0  0  0  0  0  0  0  0  0  0  0  0
    0.8580    2.3608    0.0281 C   0  0  0  0  0  0  0  0  0  0  0  0
    0.8288    3.4218    0.4619 N   0  0  0  0  0  2  0  0  0  0  0  0
    0.0702    1.4497   -2.2646 H   0  0  0  0  0  0  0  0  0  0  0  0
   -0.1660    0.3526   -0.0406 H   0  0  0  0  0  0  0  0  0  0  0  0
    1.7669    0.4947   -0.2263 H   0  0  0  0  0  0  0  0  0  0  0  0
  1  2  1  0
  1  5  1  0
  1 13  1  0
  2  3  1  0
  2  6  1  0
  2  7  1  0
  3  4  3  0
  8  9  1  0
  8 12  1  0
  9 10  2  0
  9 14  1  0
 10 11  2  0
M  RAD  1  11   2
M  END
>  <reaction>  (5) 
rxn_3228

>  <mol_properties>  (5) 
{"0": {"label": "*3", "atom_type": "N3s"}, "1": {"label": "*4", "atom_type": "Cs"}, "8": {"label": "*1", "atom_type": "Cs"}, "9": {"label": "*0", "atom_type": "Ct"}, "12": {"label": "*2", "atom_type": "H0"}}

>  <type>  (5) 
unop_1

>  <geom_source>  (5) 
Heuristics

$$$$

     RDKit          3D

 14 12  0  0  0  0  0  0  0  0999 V2000
   -0.5650   -0.8345    1.2014 N   0  0  0  0  0  0  0  0  0  0  0  0
   -0.9870   -1.9043    0.3206 C   0  0  0  0  0  0  0  0  0  0  0  0
   -1.8078   -1.4795   -0.8297 C   0  0  0  0  0  0  0  0  0  0  0  0
   -2.4430   -1.1081   -1.7102 N   0  0  0  0  0  0  0  0  0  0  0  0
   -1.3616   -0.3527    1.5950 H   0  0  0  0  0  0  0  0  0  0  0  0
   -1.5598   -2.6386    0.8892 H   0  0  0  0  0  0  0  0  0  0  0  0
   -0.1092   -2.4239   -0.0666 H   0  0  0  0  0  0  0  0  0  0  0  0
    1.4035    0.4184   -1.1708 O   0  0  0  0  0  0  0  0  0  0  0  0
    1.4035    0.4184    0.2297 C   0  0  0  0  0  0  0  0  0  0  0  0
    1.4035    1.7749    0.8039 C   0  0  0  0  0  0  0  0  0  0  0  0
    1.3744    2.8359    1.2376 N   0  0  0  0  0  2  0  0  0  0  0  0
    0.6157    0.8638   -1.4889 H   0  0  0  0  0  0  0  0  0  0  0  0
    0.3796   -0.2333    0.7351 H   0  0  0  0  0  0  0  0  0  0  0  0
    2.3125   -0.0912    0.5494 H   0  0  0  0  0  0  0  0  0  0  0  0
  1  2  1  0
  1  5  1  0
  1 13  1  0
  2  3  1  0
  2  6  1  0
  2  7  1  0
  3  4  3  0
  8  9  1  0
  8 12  1  0
  9 10  2  0
  9 14  1  0
 10 11  2  0
M  RAD  1  11   2
M  END
>  <reaction>  (6) 
rxn_3228

>  <mol_properties>  (6) 
{"0": {"label": "*3", "atom_type": "N3s"}, "1": {"label": "*4", "atom_type": "Cs"}, "8": {"label": "*1", "atom_type": "Cs"}, "9": {"label": "*0", "atom_type": "Ct"}, "12": {"label": "*2", "atom_type": "H0"}}

>  <type>  (6) 
unop_2

>  <geom_source>  (6) 
Heuristics

$$$$

     RDKit          3D

 14 12  0  0  0  0  0  0  0  0999 V2000
   -1.2747   -0.4161    0.0774 N   0  0  0  0  0  0  0  0  0  0  0  0
   -0.9373   -1.0026    1.3583 C   0  0  0  0  0  0  0  0  0  0  0  0
   -0.4138   -2.3808    1.2959 C   0  0  0  0  0  0  0  0  0  0  0  0
   -0.0110   -3.4513    1.2042 N   0  0  0  0  0  0  0  0  0  0  0  0
   -1.9847   -0.9588   -0.3947 H   0  0  0  0  0  0  0  0  0  0  0  0
   -1.8200   -1.0071    1.9997 H   0  0  0  0  0  0  0  0  0  0  0  0
   -0.1913   -0.3820    1.8570 H   0  0  0  0  0  0  0  0  0  0  0  0
    0.6938    0.8368   -2.2947 O   0  0  0  0  0  0  0  0  0  0  0  0
    0.6938    0.8368   -0.8942 C   0  0  0  0  0  0  0  0  0  0  0  0
    0.6938    2.1933   -0.3200 C   0  0  0  0  0  0  0  0  0  0  0  0
    0.6647    3.2543    0.1137 N   0  0  0  0  0  2  0  0  0  0  0  0
   -0.0940    1.2822   -2.6128 H   0  0  0  0  0  0  0  0  0  0  0  0
   -0.3301    0.1851   -0.3888 H   0  0  0  0  0  0  0  0  0  0  0  0
    1.6028    0.3272   -0.5745 H   0  0  0  0  0  0  0  0  0  0  0  0
  1  2  1  0
  1  5  1  0
  1 13  1  0
  2  3  1  0
  2  6  1  0
  2  7  1  0
  3  4  3  0
  8  9  1  0
  8 12  1  0
  9 10  2  0
  9 14  1  0
 10 11  2  0
M  RAD  1  11   2
M  END
>  <reaction>  (7) 
rxn_3228

>  <mol_properties>  (7) 
{"0": {"label": "*3", "atom_type": "N3s"}, "1": {"label": "*4", "atom_type": "Cs"}, "8": {"label": "*1", "atom_type": "Cs"}, "9": {"label": "*0", "atom_type": "Ct"}, "12": {"label": "*2", "atom_type": "H0"}}

>  <type>  (7) 
unop_3

>  <geom_source>  (7) 
Heuristics

$$$$

     RDKit          3D

 14 12  0  0  0  0  0  0  0  0999 V2000
   -0.5630   -1.7601    0.7687 N   0  0  0  0  0  0  0  0  0  0  0  0
   -1.8161   -1.1699    0.3447 C   0  0  0  0  0  0  0  0  0  0  0  0
   -1.7489    0.2658    0.0102 C   0  0  0  0  0  0  0  0  0  0  0  0
   -1.6543    1.3815   -0.2404 N   0  0  0  0  0  0  0  0  0  0  0  0
   -0.2071   -1.3014    1.5960 H   0  0  0  0  0  0  0  0  0  0  0  0
   -2.5621   -1.2973    1.1307 H   0  0  0  0  0  0  0  0  0  0  0  0
   -2.1905   -1.7019   -0.5312 H   0  0  0  0  0  0  0  0  0  0  0  0
    1.4055   -0.5073   -1.6035 O   0  0  0  0  0  0  0  0  0  0  0  0
    1.4055   -0.5073   -0.2030 C   0  0  0  0  0  0  0  0  0  0  0  0
    1.4055    0.8493    0.3712 C   0  0  0  0  0  0  0  0  0  0  0  0
    1.3764    1.9103    0.8050 N   0  0  0  0  0  2  0  0  0  0  0  0
    0.6177   -0.0618   -1.9215 H   0  0  0  0  0  0  0  0  0  0  0  0
    0.3816   -1.1589    0.3025 H   0  0  0  0  0  0  0  0  0  0  0  0
    2.3145   -1.0168    0.1168 H   0  0  0  0  0  0  0  0  0  0  0  0
  1  2  1  0
  1  5  1  0
  1 13  1  0
  2  3  1  0
  2  6  1  0
  2  7  1  0
  3  4  3  0
  8  9  1  0
  8 12  1  0
  9 10  2  0
  9 14  1  0
 10 11  2  0
M  RAD  1  11   2
M  END
>  <reaction>  (8) 
rxn_3228

>  <mol_properties>  (8) 
{"0": {"label": "*3", "atom_type": "N3s"}, "1": {"label": "*4", "atom_type": "Cs"}, "8": {"label": "*1", "atom_type": "Cs"}, "9": {"label": "*0", "atom_type": "Ct"}, "12": {"label": "*2", "atom_type": "H0"}}

>  <type>  (8) 
unop_4

>  <geom_source>  (8) 
Heuristics

$$$$

     RDKit          3D

 14 12  0  0  0  0  0  0  0  0999 V2000
   -1.3909   -0.8813   -0.2004 N   0  0  0  0  0  0  0  0  0  0  0  0
   -1.3577   -0.8602    1.2477 C   0  0  0  0  0  0  0  0  0  0  0  0
   -0.1569   -1.4668    1.8541 C   0  0  0  0  0  0  0  0  0  0  0  0
    0.7915   -1.9472    2.2856 N   0  0  0  0  0  0  0  0  0  0  0  0
   -1.3548   -1.8287   -0.5506 H   0  0  0  0  0  0  0  0  0  0  0  0
   -2.2321   -1.3825    1.6389 H   0  0  0  0  0  0  0  0  0  0  0  0
   -1.4266    0.1709    1.5978 H   0  0  0  0  0  0  0  0  0  0  0  0
    0.5777    0.3715   -2.5726 O   0  0  0  0  0  0  0  0  0  0  0  0
    0.5777    0.3715   -1.1720 C   0  0  0  0  0  0  0  0  0  0  0  0
    0.5777    1.7281   -0.5978 C   0  0  0  0  0  0  0  0  0  0  0  0
    0.5485    2.7891   -0.1641 N   0  0  0  0  0  2  0  0  0  0  0  0
   -0.2101    0.8170   -2.8906 H   0  0  0  0  0  0  0  0  0  0  0  0
   -0.4463   -0.2801   -0.6666 H   0  0  0  0  0  0  0  0  0  0  0  0
    1.4866   -0.1380   -0.8523 H   0  0  0  0  0  0  0  0  0  0  0  0
  1  2  1  0
  1  5  1  0
  1 13  1  0
  2  3  1  0
  2  6  1  0
  2  7  1  0
  3  4  3  0
  8  9  1  0
  8 12  1  0
  9 10  2  0
  9 14  1  0
 10 11  2  0
M  RAD  1  11   2
M  END
>  <reaction>  (9) 
rxn_3228

>  <mol_properties>  (9) 
{"0": {"label": "*3", "atom_type": "N3s"}, "1": {"label": "*4", "atom_type": "Cs"}, "8": {"label": "*1", "atom_type": "Cs"}, "9": {"label": "*0", "atom_type": "Ct"}, "12": {"label": "*2", "atom_type": "H0"}}

>  <type>  (9) 
unop_5

>  <geom_source>  (9) 
Heuristics

$$$$

     RDKit          3D

 14 12  0  0  0  0  0  0  0  0999 V2000
   -0.6938   -1.8635    0.4293 N   0  0  0  0  0  0  0  0  0  0  0  0
   -1.8250   -0.9809    0.6293 C   0  0  0  0  0  0  0  0  0  0  0  0
   -1.4986    0.4580    0.6508 C   0  0  0  0  0  0  0  0  0  0  0  0
   -1.2030    1.5666    0.6612 N   0  0  0  0  0  0  0  0  0  0  0  0
   -0.0088   -1.7479    1.1634 H   0  0  0  0  0  0  0  0  0  0  0  0
   -2.3166   -1.2282    1.5715 H   0  0  0  0  0  0  0  0  0  0  0  0
   -2.5597   -1.1472   -0.1601 H   0  0  0  0  0  0  0  0  0  0  0  0
    1.2747   -0.6107   -1.9429 O   0  0  0  0  0  0  0  0  0  0  0  0
    1.2747   -0.6107   -0.5424 C   0  0  0  0  0  0  0  0  0  0  0  0
    1.2747    0.7459    0.0318 C   0  0  0  0  0  0  0  0  0  0  0  0
    1.2456    1.8069    0.4655 N   0  0  0  0  0  2  0  0  0  0  0  0
    0.4869   -0.1652   -2.2610 H   0  0  0  0  0  0  0  0  0  0  0  0
    0.2508   -1.2624   -0.0370 H   0  0  0  0  0  0  0  0  0  0  0  0
    2.1837   -1.1202   -0.2227 H   0  0  0  0  0  0  0  0  0  0  0  0
  1  2  1  0
  1  5  1  0
  1 13  1  0
  2  3  1  0
  2  6  1  0
  2  7  1  0
  3  4  3  0
  8  9  1  0
  8 12  1  0
  9 10  2  0
  9 14  1  0
 10 11  2  0
M  RAD  1  11   2
M  END
>  <reaction>  (10) 
rxn_3228

>  <mol_properties>  (10) 
{"0": {"label": "*3", "atom_type": "N3s"}, "1": {"label": "*4", "atom_type": "Cs"}, "8": {"label": "*1", "atom_type": "Cs"}, "9": {"label": "*0", "atom_type": "Ct"}, "12": {"label": "*2", "atom_type": "H0"}}

>  <type>  (10) 
unop_6

>  <geom_source>  (10) 
Heuristics

$$$$

     RDKit          3D

 14 12  0  0  0  0  0  0  0  0999 V2000
   -0.9167   -1.7932    0.0733 N   0  0  0  0  0  0  0  0  0  0  0  0
   -1.7314   -0.9239    0.8973 C   0  0  0  0  0  0  0  0  0  0  0  0
   -1.0731    0.3238    1.3302 C   0  0  0  0  0  0  0  0  0  0  0  0
   -0.5256    1.2816    1.6452 N   0  0  0  0  0  0  0  0  0  0  0  0
   -0.0805   -2.0794    0.5636 H   0  0  0  0  0  0  0  0  0  0  0  0
   -2.0496   -1.4635    1.7907 H   0  0  0  0  0  0  0  0  0  0  0  0
   -2.6388   -0.6544    0.3547 H   0  0  0  0  0  0  0  0  0  0  0  0
    1.0518   -0.5404   -2.2989 O   0  0  0  0  0  0  0  0  0  0  0  0
    1.0518   -0.5404   -0.8984 C   0  0  0  0  0  0  0  0  0  0  0  0
    1.0518    0.8161   -0.3242 C   0  0  0  0  0  0  0  0  0  0  0  0
    1.0227    1.8771    0.1095 N   0  0  0  0  0  2  0  0  0  0  0  0
    0.2640   -0.0950   -2.6170 H   0  0  0  0  0  0  0  0  0  0  0  0
    0.0279   -1.1921   -0.3930 H   0  0  0  0  0  0  0  0  0  0  0  0
    1.9608   -1.0499   -0.5786 H   0  0  0  0  0  0  0  0  0  0  0  0
  1  2  1  0
  1  5  1  0
  1 13  1  0
  2  3  1  0
  2  6  1  0
  2  7  1  0
  3  4  3  0
  8  9  1  0
  8 12  1  0
  9 10  2  0
  9 14  1  0
 10 11  2  0
M  RAD  1  11   2
M  END
>  <reaction>  (11) 
rxn_3228

>  <mol_properties>  (11) 
{"0": {"label": "*3", "atom_type": "N3s"}, "1": {"label": "*4", "atom_type": "Cs"}, "8": {"label": "*1", "atom_type": "Cs"}, "9": {"label": "*0", "atom_type": "Ct"}, "12": {"label": "*2", "atom_type": "H0"}}

>  <type>  (11) 
unop_7

>  <geom_source>  (11) 
Heuristics

$$$$

     RDKit          3D

 14 12  0  0  0  0  0  0  0  0999 V2000
   -0.9255   -0.2791    0.7760 N   0  0  0  0  0  0  0  0  0  0  0  0
   -0.6049   -1.6776    0.9760 C   0  0  0  0  0  0  0  0  0  0  0  0
   -1.1337   -2.5933   -0.0532 C   0  0  0  0  0  0  0  0  0  0  0  0
   -1.5625   -3.2710   -0.8738 N   0  0  0  0  0  0  0  0  0  0  0  0
   -1.9257   -0.1337    0.7663 H   0  0  0  0  0  0  0  0  0  0  0  0
   -0.9879   -2.0033    1.9444 H   0  0  0  0  0  0  0  0  0  0  0  0
    0.4787   -1.8006    1.0107 H   0  0  0  0  0  0  0  0  0  0  0  0
    1.0430    0.9737   -1.5962 O   0  0  0  0  0  0  0  0  0  0  0  0
    1.0430    0.9737   -0.1957 C   0  0  0  0  0  0  0  0  0  0  0  0
    1.0430    2.3302    0.3785 C   0  0  0  0  0  0  0  0  0  0  0  0
    1.0139    3.3912    0.8123 N   0  0  0  0  0  2  0  0  0  0  0  0
    0.2552    1.4191   -1.9142 H   0  0  0  0  0  0  0  0  0  0  0  0
    0.0191    0.3220    0.3097 H   0  0  0  0  0  0  0  0  0  0  0  0
    1.9520    0.4642    0.1241 H   0  0  0  0  0  0  0  0  0  0  0  0
  1  2  1  0
  1  5  1  0
  1 13  1  0
  2  3  1  0
  2  6  1  0
  2  7  1  0
  3  4  3  0
  8  9  1  0
  8 12  1  0
  9 10  2  0
  9 14  1  0
 10 11  2  0
M  RAD  1  11   2
M  END
>  <reaction>  (12) 
rxn_3228

>  <mol_properties>  (12) 
{"0": {"label": "*3", "atom_type": "N3s"}, "1": {"label": "*4", "atom_type": "Cs"}, "8": {"label": "*1", "atom_type": "Cs"}, "9": {"label": "*0", "atom_type": "Ct"}, "12": {"label": "*2", "atom_type": "H0"}}

>  <type>  (12) 
unop_8

>  <geom_source>  (12) 
Heuristics

$$$$

     RDKit          3D

 14 12  0  0  0  0  0  0  0  0999 V2000
   -0.5029   -1.5355    1.0299 N   0  0  0  0  0  0  0  0  0  0  0  0
   -1.6508   -1.4649    0.1491 C   0  0  0  0  0  0  0  0  0  0  0  0
   -1.8743   -0.1497   -0.4816 C   0  0  0  0  0  0  0  0  0  0  0  0
   -2.0131    0.8880   -0.9512 N   0  0  0  0  0  0  0  0  0  0  0  0
   -0.5884   -0.8764    1.7914 H   0  0  0  0  0  0  0  0  0  0  0  0
   -2.5520   -1.7287    0.7048 H   0  0  0  0  0  0  0  0  0  0  0  0
   -1.5452   -2.2051   -0.6455 H   0  0  0  0  0  0  0  0  0  0  0  0
    1.4656   -0.2827   -1.3423 O   0  0  0  0  0  0  0  0  0  0  0  0
    1.4656   -0.2827    0.0582 C   0  0  0  0  0  0  0  0  0  0  0  0
    1.4656    1.0738    0.6324 C   0  0  0  0  0  0  0  0  0  0  0  0
    1.4365    2.1348    1.0662 N   0  0  0  0  0  2  0  0  0  0  0  0
    0.6778    0.1627   -1.6603 H   0  0  0  0  0  0  0  0  0  0  0  0
    0.4417   -0.9344    0.5636 H   0  0  0  0  0  0  0  0  0  0  0  0
    2.3746   -0.7922    0.3780 H   0  0  0  0  0  0  0  0  0  0  0  0
  1  2  1  0
  1  5  1  0
  1 13  1  0
  2  3  1  0
  2  6  1  0
  2  7  1  0
  3  4  3  0
  8  9  1  0
  8 12  1  0
  9 10  2  0
  9 14  1  0
 10 11  2  0
M  RAD  1  11   2
M  END
>  <reaction>  (13) 
rxn_3228

>  <mol_properties>  (13) 
{"0": {"label": "*3", "atom_type": "N3s"}, "1": {"label": "*4", "atom_type": "Cs"}, "8": {"label": "*1", "atom_type": "Cs"}, "9": {"label": "*0", "atom_type": "Ct"}, "12": {"label": "*2", "atom_type": "H0"}}

>  <type>  (13) 
unop_9

>  <geom_source>  (13) 
Heuristics

$$$$

     RDKit          3D

 14 12  0  0  0  0  0  0  0  0999 V2000
   -0.7254   -0.4893    1.0573 N   0  0  0  0  0  0  0  0  0  0  0  0
   -0.7212   -1.8745    0.6333 C   0  0  0  0  0  0  0  0  0  0  0  0
   -1.5175   -2.1602   -0.5758 C   0  0  0  0  0  0  0  0  0  0  0  0
   -2.1472   -2.3402   -1.5179 N   0  0  0  0  0  0  0  0  0  0  0  0
   -1.6635   -0.1762    1.2655 H   0  0  0  0  0  0  0  0  0  0  0  0
   -1.0995   -2.5029    1.4411 H   0  0  0  0  0  0  0  0  0  0  0  0
    0.3048   -2.1932    0.4432 H   0  0  0  0  0  0  0  0  0  0  0  0
    1.2431    0.7636   -1.3149 O   0  0  0  0  0  0  0  0  0  0  0  0
    1.2431    0.7636    0.0856 C   0  0  0  0  0  0  0  0  0  0  0  0
    1.2431    2.1201    0.6598 C   0  0  0  0  0  0  0  0  0  0  0  0
    1.2140    3.1811    1.0936 N   0  0  0  0  0  2  0  0  0  0  0  0
    0.4553    1.2090   -1.6329 H   0  0  0  0  0  0  0  0  0  0  0  0
    0.2192    0.1119    0.5910 H   0  0  0  0  0  0  0  0  0  0  0  0
    2.1521    0.2540    0.4054 H   0  0  0  0  0  0  0  0  0  0  0  0
  1  2  1  0
  1  5  1  0
  1 13  1  0
  2  3  1  0
  2  6  1  0
  2  7  1  0
  3  4  3  0
  8  9  1  0
  8 12  1  0
  9 10  2  0
  9 14  1  0
 10 11  2  0
M  RAD  1  11   2
M  END
>  <reaction>  (14) 
rxn_3228

>  <mol_properties>  (14) 
{"0": {"label": "*3", "atom_type": "N3s"}, "1": {"label": "*4", "atom_type": "Cs"}, "8": {"label": "*1", "atom_type": "Cs"}, "9": {"label": "*0", "atom_type": "Ct"}, "12": {"label": "*2", "atom_type": "H0"}}

>  <type>  (14) 
unop_10

>  <geom_source>  (14) 
Heuristics

$$$$

     RDKit          3D

 14 12  0  0  0  0  0  0  0  0999 V2000
   -1.2096   -1.4773   -0.1950 N   0  0  0  0  0  0  0  0  0  0  0  0
   -1.5981   -0.9233    1.0859 C   0  0  0  0  0  0  0  0  0  0  0  0
   -0.5063   -0.2886    1.8491 C   0  0  0  0  0  0  0  0  0  0  0  0
    0.3700    0.1950    2.4103 N   0  0  0  0  0  0  0  0  0  0  0  0
   -0.5020   -2.1903   -0.0826 H   0  0  0  0  0  0  0  0  0  0  0  0
   -2.0287   -1.7105    1.7067 H   0  0  0  0  0  0  0  0  0  0  0  0
   -2.3814   -0.1785    0.9371 H   0  0  0  0  0  0  0  0  0  0  0  0
    0.7590   -0.2245   -2.5672 O   0  0  0  0  0  0  0  0  0  0  0  0
    0.7590   -0.2245   -1.1667 C   0  0  0  0  0  0  0  0  0  0  0  0
    0.7590    1.1321   -0.5925 C   0  0  0  0  0  0  0  0  0  0  0  0
    0.7298    2.1931   -0.1587 N   0  0  0  0  0  2  0  0  0  0  0  0
   -0.0288    0.2210   -2.8852 H   0  0  0  0  0  0  0  0  0  0  0  0
   -0.2650   -0.8761   -0.6612 H   0  0  0  0  0  0  0  0  0  0  0  0
    1.6679   -0.7340   -0.8469 H   0  0  0  0  0  0  0  0  0  0  0  0
  1  2  1  0
  1  5  1  0
  1 13  1  0
  2  3  1  0
  2  6  1  0
  2  7  1  0
  3  4  3  0
  8  9  1  0
  8 12  1  0
  9 10  2  0
  9 14  1  0
 10 11  2  0
M  RAD  1  11   2
M  END
>  <reaction>  (15) 
rxn_3228

>  <mol_properties>  (15) 
{"0": {"label": "*3", "atom_type": "N3s"}, "1": {"label": "*4", "atom_type": "Cs"}, "8": {"label": "*1", "atom_type": "Cs"}, "9": {"label": "*0", "atom_type": "Ct"}, "12": {"label": "*2", "atom_type": "H0"}}

>  <type>  (15) 
unop_11

>  <geom_source>  (15) 
Heuristics

$$$$

     RDKit          3D

 14 12  0  0  0  0  0  0  0  0999 V2000
   -0.4948   -1.2157    1.1838 N   0  0  0  0  0  0  0  0  0  0  0  0
   -1.3385   -1.7527    0.1358 C   0  0  0  0  0  0  0  0  0  0  0  0
   -1.9141   -0.7482   -0.7792 C   0  0  0  0  0  0  0  0  0  0  0  0
   -2.3413    0.0640   -1.4680 N   0  0  0  0  0  0  0  0  0  0  0  0
   -1.0089   -0.5725    1.7699 H   0  0  0  0  0  0  0  0  0  0  0  0
   -2.1623   -2.3112    0.5829 H   0  0  0  0  0  0  0  0  0  0  0  0
   -0.7667   -2.4638   -0.4625 H   0  0  0  0  0  0  0  0  0  0  0  0
    1.4737    0.0371   -1.1884 O   0  0  0  0  0  0  0  0  0  0  0  0
    1.4737    0.0371    0.2121 C   0  0  0  0  0  0  0  0  0  0  0  0
    1.4737    1.3937    0.7863 C   0  0  0  0  0  0  0  0  0  0  0  0
    1.4446    2.4547    1.2200 N   0  0  0  0  0  2  0  0  0  0  0  0
    0.6859    0.4826   -1.5065 H   0  0  0  0  0  0  0  0  0  0  0  0
    0.4498   -0.6145    0.7175 H   0  0  0  0  0  0  0  0  0  0  0  0
    2.3827   -0.4724    0.5318 H   0  0  0  0  0  0  0  0  0  0  0  0
  1  2  1  0
  1  5  1  0
  1 13  1  0
  2  3  1  0
  2  6  1  0
  2  7  1  0
  3  4  3  0
  8  9  1  0
  8 12  1  0
  9 10  2  0
  9 14  1  0
 10 11  2  0
M  RAD  1  11   2
M  END
>  <reaction>  (16) 
rxn_3228

>  <mol_properties>  (16) 
{"0": {"label": "*3", "atom_type": "N3s"}, "1": {"label": "*4", "atom_type": "Cs"}, "8": {"label": "*1", "atom_type": "Cs"}, "9": {"label": "*0", "atom_type": "Ct"}, "12": {"label": "*2", "atom_type": "H0"}}

>  <type>  (16) 
unop_12

>  <geom_source>  (16) 
Heuristics

$$$$

     RDKit          3D

 14 12  0  0  0  0  0  0  0  0999 V2000
   -0.5650   -0.8345    1.2013 N   0  0  0  0  0  0  0  0  0  0  0  0
   -0.9870   -1.9043    0.3206 C   0  0  0  0  0  0  0  0  0  0  0  0
   -1.8078   -1.4795   -0.8297 C   0  0  0  0  0  0  0  0  0  0  0  0
   -2.4430   -1.1081   -1.7103 N   0  0  0  0  0  0  0  0  0  0  0  0
   -1.3616   -0.3527    1.5950 H   0  0  0  0  0  0  0  0  0  0  0  0
   -1.5597   -2.6386    0.8892 H   0  0  0  0  0  0  0  0  0  0  0  0
   -0.1092   -2.4239   -0.0666 H   0  0  0  0  0  0  0  0  0  0  0  0
    1.4035    0.4184   -1.1708 O   0  0  0  0  0  0  0  0  0  0  0  0
    1.4035    0.4184    0.2297 C   0  0  0  0  0  0  0  0  0  0  0  0
    1.4035    1.7749    0.8039 C   0  0  0  0  0  0  0  0  0  0  0  0
    1.3744    2.8359    1.2376 N   0  0  0  0  0  2  0  0  0  0  0  0
    0.6157    0.8638   -1.4889 H   0  0  0  0  0  0  0  0  0  0  0  0
    0.3796   -0.2333    0.7351 H   0  0  0  0  0  0  0  0  0  0  0  0
    2.3125   -0.0911    0.5494 H   0  0  0  0  0  0  0  0  0  0  0  0
  1  2  1  0
  1  5  1  0
  1 13  1  0
  2  3  1  0
  2  6  1  0
  2  7  1  0
  3  4  3  0
  8  9  1  0
  8 12  1  0
  9 10  2  0
  9 14  1  0
 10 11  2  0
M  RAD  1  11   2
M  END
>  <reaction>  (17) 
rxn_3228

>  <mol_properties>  (17) 
{"0": {"label": "*3", "atom_type": "N3s"}, "1": {"label": "*4", "atom_type": "Cs"}, "8": {"label": "*1", "atom_type": "Cs"}, "9": {"label": "*0", "atom_type": "Ct"}, "12": {"label": "*2", "atom_type": "H0"}}

>  <type>  (17) 
unop_13

>  <geom_source>  (17) 
gaussian_log

$$$$
