
     RDKit          3D

  9  8  0  0  0  0  0  0  0  0999 V2000
   -0.8818   -0.3578    0.1297 C   0  0  0  0  0  0  0  0  0  0  0  0
    0.6153   -0.3021   -0.1188 C   0  0  0  0  0  0  0  0  0  0  0  0
    1.5354   -1.7170    0.5545 S   0  0  0  0  0  0  0  0  0  0  0  0
   -1.1018   -0.3317    1.1984 H   0  0  0  0  0  0  0  0  0  0  0  0
   -1.3114   -1.2723   -0.2799 H   0  0  0  0  0  0  0  0  0  0  0  0
   -1.3767    0.4976   -0.3363 H   0  0  0  0  0  0  0  0  0  0  0  0
    1.0467    0.6194    0.2718 H   0  0  0  0  0  0  0  0  0  0  0  0
    0.8295   -0.3275   -1.1882 H   0  0  0  0  0  0  0  0  0  0  0  0
    1.2306   -1.5077    1.8423 H   0  0  0  0  0  0  0  0  0  0  0  0
  1  2  1  0
  1  4  1  0
  1  5  1  0
  1  6  1  0
  2  3  1  0
  2  7  1  0
  2  8  1  0
  3  9  1  0
M  END
>  <reaction>  (1) 
rxn_1875

>  <mol_properties>  (1) 
{"1": {"label": "donator", "atom_type": "Cs"}, "6": {"label": "d_hydrogen", "atom_type": "H0"}}

>  <type>  (1) 
r1h

$$$$

     RDKit          3D

 12 11  0  0  0  0  0  0  0  0999 V2000
    2.5164   -0.5559   -0.0242 C   0  0  0  0  0  0  0  0  0  0  0  0
    1.3287   -0.2938   -0.0132 C   0  0  0  0  0  0  0  0  0  0  0  0
   -0.0146    0.0027   -0.0006 C   0  0  0  0  0  3  0  0  0  0  0  0
   -1.0396   -1.0729   -0.1642 C   0  0  0  0  0  0  0  0  0  0  0  0
   -0.4887    1.4091    0.1769 C   0  0  0  0  0  0  0  0  0  0  0  0
    3.5543   -0.7850   -0.0339 H   0  0  0  0  0  0  0  0  0  0  0  0
   -1.7064   -1.1056    0.7044 H   0  0  0  0  0  0  0  0  0  0  0  0
   -0.5831   -2.0533   -0.2854 H   0  0  0  0  0  0  0  0  0  0  0  0
   -1.6716   -0.8741   -1.0367 H   0  0  0  0  0  0  0  0  0  0  0  0
   -1.0951    1.7228   -0.6798 H   0  0  0  0  0  0  0  0  0  0  0  0
    0.3401    2.1059    0.2861 H   0  0  0  0  0  0  0  0  0  0  0  0
   -1.1300    1.4913    1.0613 H   0  0  0  0  0  0  0  0  0  0  0  0
  1  2  3  0
  1  6  1  0
  2  3  1  0
  3  4  1  0
  3  5  1  0
  4  7  1  0
  4  8  1  0
  4  9  1  0
  5 10  1  0
  5 11  1  0
  5 12  1  0
M  RAD  1   3   2
M  END
>  <reaction>  (2) 
rxn_1875

>  <mol_properties>  (2) 
{"2": {"label": "acceptor", "atom_type": "Cs"}}

>  <type>  (2) 
r2

$$$$

     RDKit          3D

 13 12  0  0  0  0  0  0  0  0999 V2000
    2.2975   -0.6134    0.7685 C   0  0  0  0  0  0  0  0  0  0  0  0
    1.1676   -0.5248    0.3802 C   0  0  0  0  0  0  0  0  0  0  0  0
   -0.2109   -0.3926   -0.0948 C   0  0  0  0  0  0  0  0  0  0  0  0
   -0.2501    0.2584   -1.4808 C   0  0  0  0  0  0  0  0  0  0  0  0
   -1.0633    0.3831    0.9141 C   0  0  0  0  0  0  0  0  0  0  0  0
    3.2999   -0.6974    1.1133 H   0  0  0  0  0  0  0  0  0  0  0  0
   -0.6209   -1.4038   -0.1814 H   0  0  0  0  0  0  0  0  0  0  0  0
    0.3402   -0.3102   -2.1992 H   0  0  0  0  0  0  0  0  0  0  0  0
    0.1511    1.2724   -1.4369 H   0  0  0  0  0  0  0  0  0  0  0  0
   -1.2791    0.3109   -1.8407 H   0  0  0  0  0  0  0  0  0  0  0  0
   -0.6861    1.4008    1.0287 H   0  0  0  0  0  0  0  0  0  0  0  0
   -1.0492   -0.0971    1.8924 H   0  0  0  0  0  0  0  0  0  0  0  0
   -2.0971    0.4363    0.5680 H   0  0  0  0  0  0  0  0  0  0  0  0
  1  2  3  0
  1  6  1  0
  2  3  1  0
  3  4  1  0
  3  5  1  0
  3  7  1  0
  4  8  1  0
  4  9  1  0
  4 10  1  0
  5 11  1  0
  5 12  1  0
  5 13  1  0
M  END
>  <reaction>  (3) 
rxn_1875

>  <mol_properties>  (3) 
{"2": {"label": "acceptor", "atom_type": "Cs"}, "12": {"label": "a_hydrogen", "atom_type": "H0"}}

>  <type>  (3) 
r2h

$$$$

     RDKit          3D

 21 19  0  0  0  0  0  0  0  0999 V2000
    2.5948   -0.1935   -1.1022 C   0  0  0  0  0  0  0  0  0  0  0  0
    1.7701   -0.5106   -0.2852 C   0  0  0  0  0  0  0  0  0  0  0  0
    0.7393   -0.8515    0.6505 C   0  0  0  0  0  0  0  0  0  0  0  0
    0.9236   -0.2612    2.0348 C   0  0  0  0  0  0  0  0  0  0  0  0
    0.3249   -2.3104    0.6284 C   0  0  0  0  0  0  0  0  0  0  0  0
    3.3430    0.0717   -1.8096 H   0  0  0  0  0  0  0  0  0  0  0  0
    0.0315   -0.4383    2.6391 H   0  0  0  0  0  0  0  0  0  0  0  0
    1.0944    0.8140    1.9801 H   0  0  0  0  0  0  0  0  0  0  0  0
    1.7756   -0.7192    2.5456 H   0  0  0  0  0  0  0  0  0  0  0  0
    1.1006   -2.9438    1.0684 H   0  0  0  0  0  0  0  0  0  0  0  0
    0.1479   -2.6553   -0.3906 H   0  0  0  0  0  0  0  0  0  0  0  0
   -0.5907   -2.4497    1.2071 H   0  0  0  0  0  0  0  0  0  0  0  0
   -1.4984   -0.1730   -1.7394 C   0  0  0  0  0  0  0  0  0  0  0  0
   -1.3305    0.5066   -0.4080 C   0  0  0  0  0  3  0  0  0  0  0  0
   -0.8032    2.1962   -0.3959 S   0  0  0  0  0  0  0  0  0  0  0  0
   -0.5528   -0.1823   -2.2869 H   0  0  0  0  0  0  0  0  0  0  0  0
   -2.2425    0.3347   -2.3590 H   0  0  0  0  0  0  0  0  0  0  0  0
   -1.8173   -1.2079   -1.5994 H   0  0  0  0  0  0  0  0  0  0  0  0
   -0.3007   -0.2033    0.1867 H   0  0  0  0  0  0  0  0  0  0  0  0
   -2.1688    0.3966    0.2774 H   0  0  0  0  0  0  0  0  0  0  0  0
    0.2888    2.0184   -1.1555 H   0  0  0  0  0  0  0  0  0  0  0  0
  1  2  3  0
  1  6  1  0
  2  3  1  0
  3  4  1  0
  3  5  1  0
  3 19  1  0
  4  7  1  0
  4  8  1  0
  4  9  1  0
  5 10  1  0
  5 11  1  0
  5 12  1  0
 13 14  1  0
 13 16  1  0
 13 17  1  0
 13 18  1  0
 14 15  1  0
 14 20  1  0
 15 21  1  0
M  RAD  1  14   2
M  END
>  <reaction>  (4) 
rxn_1875

>  <mol_properties>  (4) 
{"1": {"label": "*0", "atom_type": "Ct"}, "2": {"label": "*1", "atom_type": "Cs"}, "13": {"label": "*3", "atom_type": "Cs"}, "14": {"label": "*4", "atom_type": "S2s"}, "18": {"label": "*2", "atom_type": "H0"}}

>  <type>  (4) 
ts

$$$$

     RDKit          3D

 21 19  0  0  0  0  0  0  0  0999 V2000
    2.2394    0.5365    1.6685 C   0  0  0  0  0  0  0  0  0  0  0  0
    1.5824   -0.2043    0.9940 C   0  0  0  0  0  0  0  0  0  0  0  0
    0.7836   -1.1272    0.1857 C   0  0  0  0  0  3  0  0  0  0  0  0
   -0.4366   -1.6218    0.9684 C   0  0  0  0  0  0  0  0  0  0  0  0
    1.6397   -2.2942   -0.3157 C   0  0  0  0  0  0  0  0  0  0  0  0
    2.8225    1.1941    2.2671 H   0  0  0  0  0  0  0  0  0  0  0  0
   -1.0456   -2.2738    0.3397 H   0  0  0  0  0  0  0  0  0  0  0  0
   -1.0534   -0.7880    1.3034 H   0  0  0  0  0  0  0  0  0  0  0  0
   -0.1219   -2.1874    1.8471 H   0  0  0  0  0  0  0  0  0  0  0  0
    2.0157   -2.8796    0.5251 H   0  0  0  0  0  0  0  0  0  0  0  0
    2.4940   -1.9367   -0.8905 H   0  0  0  0  0  0  0  0  0  0  0  0
    1.0428   -2.9501   -0.9519 H   0  0  0  0  0  0  0  0  0  0  0  0
   -1.2448    0.2345   -2.2834 C   0  0  0  0  0  0  0  0  0  0  0  0
   -1.2448    0.2345   -0.7647 C   0  0  0  0  0  0  0  0  0  0  0  0
   -1.2448    1.8919   -0.0197 S   0  0  0  0  0  0  0  0  0  0  0  0
   -0.3381    0.6999   -2.6741 H   0  0  0  0  0  0  0  0  0  0  0  0
   -2.1007    0.7857   -2.6735 H   0  0  0  0  0  0  0  0  0  0  0  0
   -1.2878   -0.7889   -2.6637 H   0  0  0  0  0  0  0  0  0  0  0  0
   -0.2329   -0.4448   -0.2906 H   0  0  0  0  0  0  0  0  0  0  0  0
   -2.1524   -0.2326   -0.3796 H   0  0  0  0  0  0  0  0  0  0  0  0
   -0.0700    2.2935   -0.5233 H   0  0  0  0  0  0  0  0  0  0  0  0
  1  2  3  0
  1  6  1  0
  2  3  1  0
  3  4  1  0
  3  5  1  0
  4  7  1  0
  4  8  1  0
  4  9  1  0
  5 10  1  0
  5 11  1  0
  5 12  1  0
 13 14  1  0
 13 16  1  0
 13 17  1  0
 13 18  1  0
 14 15  1  0
 14 19  1  0
 14 20  1  0
 15 21  1  0
M  RAD  1   3   2
M  END
>  <reaction>  (5) 
rxn_1875

>  <mol_properties>  (5) 
{"1": {"label": "*0", "atom_type": "Ct"}, "2": {"label": "*1", "atom_type": "Cs"}, "13": {"label": "*3", "atom_type": "Cs"}, "14": {"label": "*4", "atom_type": "S2s"}, "18": {"label": "*2", "atom_type": "H0"}}

>  <type>  (5) 
unop_1

>  <geom_source>  (5) 
Heuristics

$$$$

     RDKit          3D

 21 19  0  0  0  0  0  0  0  0999 V2000
    2.6407   -0.8493   -1.2357 C   0  0  0  0  0  0  0  0  0  0  0  0
    1.7371   -0.9351   -0.4537 C   0  0  0  0  0  0  0  0  0  0  0  0
    0.6485   -1.0467    0.5188 C   0  0  0  0  0  3  0  0  0  0  0  0
    0.8489   -0.0644    1.6768 C   0  0  0  0  0  0  0  0  0  0  0  0
    0.5120   -2.4871    1.0217 C   0  0  0  0  0  0  0  0  0  0  0  0
    3.4426   -0.7731   -1.9298 H   0  0  0  0  0  0  0  0  0  0  0  0
    0.0090   -0.1276    2.3709 H   0  0  0  0  0  0  0  0  0  0  0  0
    0.9231    0.9609    1.3145 H   0  0  0  0  0  0  0  0  0  0  0  0
    1.7643   -0.3001    2.2222 H   0  0  0  0  0  0  0  0  0  0  0  0
    1.4175   -2.7943    1.5478 H   0  0  0  0  0  0  0  0  0  0  0  0
    0.3476   -3.1783    0.1952 H   0  0  0  0  0  0  0  0  0  0  0  0
   -0.3299   -2.5644    1.7120 H   0  0  0  0  0  0  0  0  0  0  0  0
   -1.3798    0.3150   -1.9502 C   0  0  0  0  0  0  0  0  0  0  0  0
   -1.3798    0.3150   -0.4316 C   0  0  0  0  0  0  0  0  0  0  0  0
   -1.3798    1.9723    0.3134 S   0  0  0  0  0  0  0  0  0  0  0  0
   -0.4732    0.7804   -2.3410 H   0  0  0  0  0  0  0  0  0  0  0  0
   -2.2358    0.8662   -2.3404 H   0  0  0  0  0  0  0  0  0  0  0  0
   -1.4229   -0.7084   -2.3305 H   0  0  0  0  0  0  0  0  0  0  0  0
   -0.3679   -0.3644    0.0425 H   0  0  0  0  0  0  0  0  0  0  0  0
   -2.2874   -0.1521   -0.0465 H   0  0  0  0  0  0  0  0  0  0  0  0
   -0.2050    2.3740   -0.1901 H   0  0  0  0  0  0  0  0  0  0  0  0
  1  2  3  0
  1  6  1  0
  2  3  1  0
  3  4  1  0
  3  5  1  0
  4  7  1  0
  4  8  1  0
  4  9  1  0
  5 10  1  0
  5 11  1  0
  5 12  1  0
 13 14  1  0
 13 16  1  0
 13 17  1  0
 13 18  1  0
 14 15  1  0
 14 19  1  0
 14 20  1  0
 15 21  1  0
M  RAD  1   3   2
M  END
>  <reaction>  (6) 
rxn_1875

>  <mol_properties>  (6) 
{"1": {"label": "*0", "atom_type": "Ct"}, "2": {"label": "*1", "atom_type": "Cs"}, "13": {"label": "*3", "atom_type": "Cs"}, "14": {"label": "*4", "atom_type": "S2s"}, "18": {"label": "*2", "atom_type": "H0"}}

>  <type>  (6) 
unop_2

>  <geom_source>  (6) 
Heuristics

$$$$

     RDKit          3D

 21 19  0  0  0  0  0  0  0  0999 V2000
    1.4948    0.0344    2.4971 C   0  0  0  0  0  0  0  0  0  0  0  0
    1.1935   -0.4404    1.4392 C   0  0  0  0  0  0  0  0  0  0  0  0
    0.8343   -1.0416    0.1536 C   0  0  0  0  0  3  0  0  0  0  0  0
   -0.1831   -2.1705    0.3449 C   0  0  0  0  0  0  0  0  0  0  0  0
    2.0824   -1.5303   -0.5877 C   0  0  0  0  0  0  0  0  0  0  0  0
    1.7623    0.4558    3.4360 H   0  0  0  0  0  0  0  0  0  0  0  0
   -0.4744   -2.5801   -0.6240 H   0  0  0  0  0  0  0  0  0  0  0  0
   -1.0780   -1.8116    0.8531 H   0  0  0  0  0  0  0  0  0  0  0  0
    0.2486   -2.9752    0.9427 H   0  0  0  0  0  0  0  0  0  0  0  0
    2.5809   -2.3160   -0.0174 H   0  0  0  0  0  0  0  0  0  0  0  0
    2.7926   -0.7178   -0.7402 H   0  0  0  0  0  0  0  0  0  0  0  0
    1.8042   -1.9361   -1.5619 H   0  0  0  0  0  0  0  0  0  0  0  0
   -1.1941    0.3201   -2.3154 C   0  0  0  0  0  0  0  0  0  0  0  0
   -1.1941    0.3201   -0.7968 C   0  0  0  0  0  0  0  0  0  0  0  0
   -1.1941    1.9775   -0.0518 S   0  0  0  0  0  0  0  0  0  0  0  0
   -0.2874    0.7855   -2.7062 H   0  0  0  0  0  0  0  0  0  0  0  0
   -2.0500    0.8713   -2.7055 H   0  0  0  0  0  0  0  0  0  0  0  0
   -1.2371   -0.7033   -2.6957 H   0  0  0  0  0  0  0  0  0  0  0  0
   -0.1822   -0.3592   -0.3226 H   0  0  0  0  0  0  0  0  0  0  0  0
   -2.1017   -0.1470   -0.4116 H   0  0  0  0  0  0  0  0  0  0  0  0
   -0.0193    2.3791   -0.5553 H   0  0  0  0  0  0  0  0  0  0  0  0
  1  2  3  0
  1  6  1  0
  2  3  1  0
  3  4  1  0
  3  5  1  0
  4  7  1  0
  4  8  1  0
  4  9  1  0
  5 10  1  0
  5 11  1  0
  5 12  1  0
 13 14  1  0
 13 16  1  0
 13 17  1  0
 13 18  1  0
 14 15  1  0
 14 19  1  0
 14 20  1  0
 15 21  1  0
M  RAD  1   3   2
M  END
>  <reaction>  (7) 
rxn_1875

>  <mol_properties>  (7) 
{"1": {"label": "*0", "atom_type": "Ct"}, "2": {"label": "*1", "atom_type": "Cs"}, "13": {"label": "*3", "atom_type": "Cs"}, "14": {"label": "*4", "atom_type": "S2s"}, "18": {"label": "*2", "atom_type": "H0"}}

>  <type>  (7) 
unop_3

>  <geom_source>  (7) 
Heuristics

$$$$

     RDKit          3D

 21 19  0  0  0  0  0  0  0  0999 V2000
    0.6893   -3.2540   -0.4787 C   0  0  0  0  0  0  0  0  0  0  0  0
    0.7878   -2.1251   -0.0898 C   0  0  0  0  0  0  0  0  0  0  0  0
    0.9185   -0.7536    0.4055 C   0  0  0  0  0  3  0  0  0  0  0  0
    2.3916   -0.3821    0.6003 C   0  0  0  0  0  0  0  0  0  0  0  0
    0.1155   -0.5609    1.6956 C   0  0  0  0  0  0  0  0  0  0  0  0
    0.6019   -4.2559   -0.8239 H   0  0  0  0  0  0  0  0  0  0  0  0
    2.4758    0.6556    0.9278 H   0  0  0  0  0  0  0  0  0  0  0  0
    2.9529   -0.5002   -0.3265 H   0  0  0  0  0  0  0  0  0  0  0  0
    2.8483   -1.0203    1.3588 H   0  0  0  0  0  0  0  0  0  0  0  0
    0.5051   -1.2043    2.4865 H   0  0  0  0  0  0  0  0  0  0  0  0
   -0.9358   -0.8056    1.5449 H   0  0  0  0  0  0  0  0  0  0  0  0
    0.1866    0.4758    2.0294 H   0  0  0  0  0  0  0  0  0  0  0  0
   -1.1099    0.6081   -2.0635 C   0  0  0  0  0  0  0  0  0  0  0  0
   -1.1099    0.6081   -0.5448 C   0  0  0  0  0  0  0  0  0  0  0  0
   -1.1099    2.2655    0.2001 S   0  0  0  0  0  0  0  0  0  0  0  0
   -0.2032    1.0735   -2.4543 H   0  0  0  0  0  0  0  0  0  0  0  0
   -1.9658    1.1593   -2.4536 H   0  0  0  0  0  0  0  0  0  0  0  0
   -1.1529   -0.4153   -2.4438 H   0  0  0  0  0  0  0  0  0  0  0  0
   -0.0980   -0.0712   -0.0707 H   0  0  0  0  0  0  0  0  0  0  0  0
   -2.0175    0.1410   -0.1597 H   0  0  0  0  0  0  0  0  0  0  0  0
    0.0649    2.6671   -0.3034 H   0  0  0  0  0  0  0  0  0  0  0  0
  1  2  3  0
  1  6  1  0
  2  3  1  0
  3  4  1  0
  3  5  1  0
  4  7  1  0
  4  8  1  0
  4  9  1  0
  5 10  1  0
  5 11  1  0
  5 12  1  0
 13 14  1  0
 13 16  1  0
 13 17  1  0
 13 18  1  0
 14 15  1  0
 14 19  1  0
 14 20  1  0
 15 21  1  0
M  RAD  1   3   2
M  END
>  <reaction>  (8) 
rxn_1875

>  <mol_properties>  (8) 
{"1": {"label": "*0", "atom_type": "Ct"}, "2": {"label": "*1", "atom_type": "Cs"}, "13": {"label": "*3", "atom_type": "Cs"}, "14": {"label": "*4", "atom_type": "S2s"}, "18": {"label": "*2", "atom_type": "H0"}}

>  <type>  (8) 
unop_4

>  <geom_source>  (8) 
Heuristics

$$$$

     RDKit          3D

 21 19  0  0  0  0  0  0  0  0999 V2000
    0.7022   -0.8957    2.8155 C   0  0  0  0  0  0  0  0  0  0  0  0
    0.7571   -0.9326    1.6192 C   0  0  0  0  0  0  0  0  0  0  0  0
    0.8441   -0.9910    0.1590 C   0  0  0  0  0  3  0  0  0  0  0  0
    0.7237   -2.4352   -0.3372 C   0  0  0  0  0  0  0  0  0  0  0  0
    2.1351   -0.3328   -0.3372 C   0  0  0  0  0  0  0  0  0  0  0  0
    0.6534   -0.8630    3.8772 H   0  0  0  0  0  0  0  0  0  0  0  0
    0.7464   -2.4593   -1.4281 H   0  0  0  0  0  0  0  0  0  0  0  0
   -0.2071   -2.8908    0.0006 H   0  0  0  0  0  0  0  0  0  0  0  0
    1.5533   -3.0371    0.0375 H   0  0  0  0  0  0  0  0  0  0  0  0
    3.0064   -0.8727    0.0375 H   0  0  0  0  0  0  0  0  0  0  0  0
    2.2044    0.7012    0.0006 H   0  0  0  0  0  0  0  0  0  0  0  0
    2.1660   -0.3447   -1.4281 H   0  0  0  0  0  0  0  0  0  0  0  0
   -1.1842    0.3707   -2.3100 C   0  0  0  0  0  0  0  0  0  0  0  0
   -1.1842    0.3707   -0.7914 C   0  0  0  0  0  0  0  0  0  0  0  0
   -1.1842    2.0280   -0.0464 S   0  0  0  0  0  0  0  0  0  0  0  0
   -0.2776    0.8361   -2.7008 H   0  0  0  0  0  0  0  0  0  0  0  0
   -2.0402    0.9219   -2.7001 H   0  0  0  0  0  0  0  0  0  0  0  0
   -1.2273   -0.6527   -2.6903 H   0  0  0  0  0  0  0  0  0  0  0  0
   -0.1723   -0.3087   -0.3172 H   0  0  0  0  0  0  0  0  0  0  0  0
   -2.0918   -0.0964   -0.4062 H   0  0  0  0  0  0  0  0  0  0  0  0
   -0.0094    2.4297   -0.5499 H   0  0  0  0  0  0  0  0  0  0  0  0
  1  2  3  0
  1  6  1  0
  2  3  1  0
  3  4  1  0
  3  5  1  0
  4  7  1  0
  4  8  1  0
  4  9  1  0
  5 10  1  0
  5 11  1  0
  5 12  1  0
 13 14  1  0
 13 16  1  0
 13 17  1  0
 13 18  1  0
 14 15  1  0
 14 19  1  0
 14 20  1  0
 15 21  1  0
M  RAD  1   3   2
M  END
>  <reaction>  (9) 
rxn_1875

>  <mol_properties>  (9) 
{"1": {"label": "*0", "atom_type": "Ct"}, "2": {"label": "*1", "atom_type": "Cs"}, "13": {"label": "*3", "atom_type": "Cs"}, "14": {"label": "*4", "atom_type": "S2s"}, "18": {"label": "*2", "atom_type": "H0"}}

>  <type>  (9) 
unop_5

>  <geom_source>  (9) 
Heuristics

$$$$

     RDKit          3D

 21 19  0  0  0  0  0  0  0  0999 V2000
    0.1635   -3.3169    0.5799 C   0  0  0  0  0  0  0  0  0  0  0  0
    0.5180   -2.1816    0.4351 C   0  0  0  0  0  0  0  0  0  0  0  0
    0.9636   -0.7959    0.2786 C   0  0  0  0  0  3  0  0  0  0  0  0
    2.4874   -0.7255    0.1393 C   0  0  0  0  0  0  0  0  0  0  0  0
    0.4652    0.0716    1.4384 C   0  0  0  0  0  0  0  0  0  0  0  0
   -0.1511   -4.3244    0.7084 H   0  0  0  0  0  0  0  0  0  0  0  0
    2.8013    0.3076   -0.0201 H   0  0  0  0  0  0  0  0  0  0  0  0
    2.8337   -1.3270   -0.7011 H   0  0  0  0  0  0  0  0  0  0  0  0
    2.9702   -1.0958    1.0453 H   0  0  0  0  0  0  0  0  0  0  0  0
    0.8884   -0.2752    2.3827 H   0  0  0  0  0  0  0  0  0  0  0  0
   -0.6211    0.0348    1.5185 H   0  0  0  0  0  0  0  0  0  0  0  0
    0.7675    1.1093    1.2865 H   0  0  0  0  0  0  0  0  0  0  0  0
   -1.0647    0.5658   -2.1905 C   0  0  0  0  0  0  0  0  0  0  0  0
   -1.0647    0.5658   -0.6718 C   0  0  0  0  0  0  0  0  0  0  0  0
   -1.0647    2.2232    0.0732 S   0  0  0  0  0  0  0  0  0  0  0  0
   -0.1581    1.0312   -2.5812 H   0  0  0  0  0  0  0  0  0  0  0  0
   -1.9207    1.1170   -2.5806 H   0  0  0  0  0  0  0  0  0  0  0  0
   -1.1078   -0.4575   -2.5708 H   0  0  0  0  0  0  0  0  0  0  0  0
   -0.0528   -0.1135   -0.1977 H   0  0  0  0  0  0  0  0  0  0  0  0
   -1.9723    0.0988   -0.2867 H   0  0  0  0  0  0  0  0  0  0  0  0
    0.1101    2.6249   -0.4304 H   0  0  0  0  0  0  0  0  0  0  0  0
  1  2  3  0
  1  6  1  0
  2  3  1  0
  3  4  1  0
  3  5  1  0
  4  7  1  0
  4  8  1  0
  4  9  1  0
  5 10  1  0
  5 11  1  0
  5 12  1  0
 13 14  1  0
 13 16  1  0
 13 17  1  0
 13 18  1  0
 14 15  1  0
 14 19  1  0
 14 20  1  0
 15 21  1  0
M  RAD  1   3   2
M  END
>  <reaction>  (10) 
rxn_1875

>  <mol_properties>  (10) 
{"1": {"label": "*0", "atom_type": "Ct"}, "2": {"label": "*1", "atom_type": "Cs"}, "13": {"label": "*3", "atom_type": "Cs"}, "14": {"label": "*4", "atom_type": "S2s"}, "18": {"label": "*2", "atom_type": "H0"}}

>  <type>  (10) 
unop_6

>  <geom_source>  (10) 
Heuristics

$$$$

     RDKit          3D

 21 19  0  0  0  0  0  0  0  0999 V2000
   -0.0414   -2.8608    1.6685 C   0  0  0  0  0  0  0  0  0  0  0  0
    0.3955   -1.9722    0.9940 C   0  0  0  0  0  0  0  0  0  0  0  0
    0.9472   -0.8834    0.1857 C   0  0  0  0  0  3  0  0  0  0  0  0
    2.3514   -1.2340   -0.3157 C   0  0  0  0  0  0  0  0  0  0  0  0
    0.9430    0.4332    0.9684 C   0  0  0  0  0  0  0  0  0  0  0  0
   -0.4292   -3.6495    2.2671 H   0  0  0  0  0  0  0  0  0  0  0  0
    2.7325   -0.4332   -0.9519 H   0  0  0  0  0  0  0  0  0  0  0  0
    2.3441   -2.1600   -0.8905 H   0  0  0  0  0  0  0  0  0  0  0  0
    3.0357   -1.3603    0.5251 H   0  0  0  0  0  0  0  0  0  0  0  0
    1.5856    0.3560    1.8471 H   0  0  0  0  0  0  0  0  0  0  0  0
   -0.0623    0.6884    1.3034 H   0  0  0  0  0  0  0  0  0  0  0  0
    1.3159    1.2436    0.3397 H   0  0  0  0  0  0  0  0  0  0  0  0
   -1.0811    0.4783   -2.2834 C   0  0  0  0  0  0  0  0  0  0  0  0
   -1.0811    0.4783   -0.7647 C   0  0  0  0  0  0  0  0  0  0  0  0
   -1.0811    2.1356   -0.0197 S   0  0  0  0  0  0  0  0  0  0  0  0
   -0.1745    0.9437   -2.6741 H   0  0  0  0  0  0  0  0  0  0  0  0
   -1.9371    1.0295   -2.6735 H   0  0  0  0  0  0  0  0  0  0  0  0
   -1.1242   -0.5451   -2.6637 H   0  0  0  0  0  0  0  0  0  0  0  0
   -0.0692   -0.2011   -0.2906 H   0  0  0  0  0  0  0  0  0  0  0  0
   -1.9887    0.0112   -0.3796 H   0  0  0  0  0  0  0  0  0  0  0  0
    0.0937    2.5373   -0.5233 H   0  0  0  0  0  0  0  0  0  0  0  0
  1  2  3  0
  1  6  1  0
  2  3  1  0
  3  4  1  0
  3  5  1  0
  4  7  1  0
  4  8  1  0
  4  9  1  0
  5 10  1  0
  5 11  1  0
  5 12  1  0
 13 14  1  0
 13 16  1  0
 13 17  1  0
 13 18  1  0
 14 15  1  0
 14 19  1  0
 14 20  1  0
 15 21  1  0
M  RAD  1   3   2
M  END
>  <reaction>  (11) 
rxn_1875

>  <mol_properties>  (11) 
{"1": {"label": "*0", "atom_type": "Ct"}, "2": {"label": "*1", "atom_type": "Cs"}, "13": {"label": "*3", "atom_type": "Cs"}, "14": {"label": "*4", "atom_type": "S2s"}, "18": {"label": "*2", "atom_type": "H0"}}

>  <type>  (11) 
unop_7

>  <geom_source>  (11) 
Heuristics

$$$$

     RDKit          3D

 21 19  0  0  0  0  0  0  0  0999 V2000
    2.7391    0.5195    0.5799 C   0  0  0  0  0  0  0  0  0  0  0  0
    1.8225   -0.2384    0.4351 C   0  0  0  0  0  0  0  0  0  0  0  0
    0.7087   -1.1755    0.2786 C   0  0  0  0  0  3  0  0  0  0  0  0
   -0.2829   -1.0427    1.4384 C   0  0  0  0  0  0  0  0  0  0  0  0
    1.2205   -2.6125    0.1393 C   0  0  0  0  0  0  0  0  0  0  0  0
    3.5525    1.1922    0.7084 H   0  0  0  0  0  0  0  0  0  0  0  0
   -1.1288   -1.7154    1.2865 H   0  0  0  0  0  0  0  0  0  0  0  0
   -0.6601   -0.0233    1.5185 H   0  0  0  0  0  0  0  0  0  0  0  0
    0.1984   -1.3031    2.3827 H   0  0  0  0  0  0  0  0  0  0  0  0
    1.7461   -2.9192    1.0453 H   0  0  0  0  0  0  0  0  0  0  0  0
    1.9084   -2.7053   -0.7011 H   0  0  0  0  0  0  0  0  0  0  0  0
    0.3833   -3.2943   -0.0201 H   0  0  0  0  0  0  0  0  0  0  0  0
   -1.3196    0.1862   -2.1905 C   0  0  0  0  0  0  0  0  0  0  0  0
   -1.3196    0.1862   -0.6718 C   0  0  0  0  0  0  0  0  0  0  0  0
   -1.3196    1.8435    0.0732 S   0  0  0  0  0  0  0  0  0  0  0  0
   -0.4129    0.6516   -2.5812 H   0  0  0  0  0  0  0  0  0  0  0  0
   -2.1755    0.7374   -2.5806 H   0  0  0  0  0  0  0  0  0  0  0  0
   -1.3627   -0.8372   -2.5708 H   0  0  0  0  0  0  0  0  0  0  0  0
   -0.3077   -0.4932   -0.1977 H   0  0  0  0  0  0  0  0  0  0  0  0
   -2.2272   -0.2809   -0.2867 H   0  0  0  0  0  0  0  0  0  0  0  0
   -0.1448    2.2452   -0.4304 H   0  0  0  0  0  0  0  0  0  0  0  0
  1  2  3  0
  1  6  1  0
  2  3  1  0
  3  4  1  0
  3  5  1  0
  4  7  1  0
  4  8  1  0
  4  9  1  0
  5 10  1  0
  5 11  1  0
  5 12  1  0
 13 14  1  0
 13 16  1  0
 13 17  1  0
 13 18  1  0
 14 15  1  0
 14 19  1  0
 14 20  1  0
 15 21  1  0
M  RAD  1   3   2
M  END
>  <reaction>  (12) 
rxn_1875

>  <mol_properties>  (12) 
{"1": {"label": "*0", "atom_type": "Ct"}, "2": {"label": "*1", "atom_type": "Cs"}, "13": {"label": "*3", "atom_type": "Cs"}, "14": {"label": "*4", "atom_type": "S2s"}, "18": {"label": "*2", "atom_type": "H0"}}

>  <type>  (12) 
unop_8

>  <geom_source>  (12) 
Heuristics

$$$$

     RDKit          3D

 21 19  0  0  0  0  0  0  0  0999 V2000
    1.3932   -2.7075   -1.2357 C   0  0  0  0  0  0  0  0  0  0  0  0
    1.1305   -1.8387   -0.4537 C   0  0  0  0  0  0  0  0  0  0  0  0
    0.8216   -0.7889    0.5188 C   0  0  0  0  0  3  0  0  0  0  0  0
    2.1030   -0.1172    1.0217 C   0  0  0  0  0  0  0  0  0  0  0  0
   -0.0117   -1.3463    1.6768 C   0  0  0  0  0  0  0  0  0  0  0  0
    1.6263   -3.4786   -1.9298 H   0  0  0  0  0  0  0  0  0  0  0  0
    1.8558    0.6912    1.7120 H   0  0  0  0  0  0  0  0  0  0  0  0
    2.6805    0.2967    0.1952 H   0  0  0  0  0  0  0  0  0  0  0  0
    2.7302   -0.8390    1.5478 H   0  0  0  0  0  0  0  0  0  0  0  0
    0.5531   -2.1044    2.2222 H   0  0  0  0  0  0  0  0  0  0  0  0
   -0.9325   -1.8033    1.3145 H   0  0  0  0  0  0  0  0  0  0  0  0
   -0.2712   -0.5450    2.3709 H   0  0  0  0  0  0  0  0  0  0  0  0
   -1.2067    0.5728   -1.9502 C   0  0  0  0  0  0  0  0  0  0  0  0
   -1.2067    0.5728   -0.4316 C   0  0  0  0  0  0  0  0  0  0  0  0
   -1.2067    2.2302    0.3134 S   0  0  0  0  0  0  0  0  0  0  0  0
   -0.3001    1.0382   -2.3410 H   0  0  0  0  0  0  0  0  0  0  0  0
   -2.0627    1.1240   -2.3404 H   0  0  0  0  0  0  0  0  0  0  0  0
   -1.2498   -0.4506   -2.3305 H   0  0  0  0  0  0  0  0  0  0  0  0
   -0.1948   -0.1065    0.0425 H   0  0  0  0  0  0  0  0  0  0  0  0
   -2.1144    0.1058   -0.0465 H   0  0  0  0  0  0  0  0  0  0  0  0
   -0.0319    2.6319   -0.1901 H   0  0  0  0  0  0  0  0  0  0  0  0
  1  2  3  0
  1  6  1  0
  2  3  1  0
  3  4  1  0
  3  5  1  0
  4  7  1  0
  4  8  1  0
  4  9  1  0
  5 10  1  0
  5 11  1  0
  5 12  1  0
 13 14  1  0
 13 16  1  0
 13 17  1  0
 13 18  1  0
 14 15  1  0
 14 19  1  0
 14 20  1  0
 15 21  1  0
M  RAD  1   3   2
M  END
>  <reaction>  (13) 
rxn_1875

>  <mol_properties>  (13) 
{"1": {"label": "*0", "atom_type": "Ct"}, "2": {"label": "*1", "atom_type": "Cs"}, "13": {"label": "*3", "atom_type": "Cs"}, "14": {"label": "*4", "atom_type": "S2s"}, "18": {"label": "*2", "atom_type": "H0"}}

>  <type>  (13) 
unop_9

>  <geom_source>  (13) 
Heuristics

$$$$

     RDKit          3D

 21 19  0  0  0  0  0  0  0  0999 V2000
    2.8800    0.0090   -0.4787 C   0  0  0  0  0  0  0  0  0  0  0  0
    1.8724   -0.5096   -0.0898 C   0  0  0  0  0  0  0  0  0  0  0  0
    0.6525   -1.1498    0.4055 C   0  0  0  0  0  3  0  0  0  0  0  0
    0.1702   -0.4796    1.6956 C   0  0  0  0  0  0  0  0  0  0  0  0
    0.8665   -2.6539    0.6003 C   0  0  0  0  0  0  0  0  0  0  0  0
    3.7742    0.4693   -0.8239 H   0  0  0  0  0  0  0  0  0  0  0  0
   -0.7625   -0.9379    2.0294 H   0  0  0  0  0  0  0  0  0  0  0  0
   -0.0014    0.5861    1.5449 H   0  0  0  0  0  0  0  0  0  0  0  0
    0.9132   -0.5965    2.4865 H   0  0  0  0  0  0  0  0  0  0  0  0
    1.6300   -2.8350    1.3588 H   0  0  0  0  0  0  0  0  0  0  0  0
    1.1883   -3.1287   -0.3265 H   0  0  0  0  0  0  0  0  0  0  0  0
   -0.0621   -3.1248    0.9278 H   0  0  0  0  0  0  0  0  0  0  0  0
   -1.3758    0.2120   -2.0635 C   0  0  0  0  0  0  0  0  0  0  0  0
   -1.3758    0.2120   -0.5448 C   0  0  0  0  0  0  0  0  0  0  0  0
   -1.3758    1.8693    0.2001 S   0  0  0  0  0  0  0  0  0  0  0  0
   -0.4692    0.6774   -2.4543 H   0  0  0  0  0  0  0  0  0  0  0  0
   -2.2318    0.7632   -2.4536 H   0  0  0  0  0  0  0  0  0  0  0  0
   -1.4189   -0.8114   -2.4438 H   0  0  0  0  0  0  0  0  0  0  0  0
   -0.3639   -0.4674   -0.0707 H   0  0  0  0  0  0  0  0  0  0  0  0
   -2.2834   -0.2551   -0.1597 H   0  0  0  0  0  0  0  0  0  0  0  0
   -0.2010    2.2710   -0.3034 H   0  0  0  0  0  0  0  0  0  0  0  0
  1  2  3  0
  1  6  1  0
  2  3  1  0
  3  4  1  0
  3  5  1  0
  4  7  1  0
  4  8  1  0
  4  9  1  0
  5 10  1  0
  5 11  1  0
  5 12  1  0
 13 14  1  0
 13 16  1  0
 13 17  1  0
 13 18  1  0
 14 15  1  0
 14 19  1  0
 14 20  1  0
 15 21  1  0
M  RAD  1   3   2
M  END
>  <reaction>  (14) 
rxn_1875

>  <mol_properties>  (14) 
{"1": {"label": "*0", "atom_type": "Ct"}, "2": {"label": "*1", "atom_type": "Cs"}, "13": {"label": "*3", "atom_type": "Cs"}, "14": {"label": "*4", "atom_type": "S2s"}, "18": {"label": "*2", "atom_type": "H0"}}

>  <type>  (14) 
unop_10

>  <geom_source>  (14) 
Heuristics

$$$$

     RDKit          3D

 21 19  0  0  0  0  0  0  0  0999 V2000
    0.1414   -1.9816    2.4971 C   0  0  0  0  0  0  0  0  0  0  0  0
    0.4667   -1.5230    1.4392 C   0  0  0  0  0  0  0  0  0  0  0  0
    0.8872   -0.9628    0.1536 C   0  0  0  0  0  3  0  0  0  0  0  0
    1.8121   -1.9329   -0.5877 C   0  0  0  0  0  0  0  0  0  0  0  0
    1.5468    0.4063    0.3449 C   0  0  0  0  0  0  0  0  0  0  0  0
   -0.1474   -2.3887    3.4360 H   0  0  0  0  0  0  0  0  0  0  0  0
    2.0823   -1.5218   -1.5619 H   0  0  0  0  0  0  0  0  0  0  0  0
    1.3290   -2.8980   -0.7402 H   0  0  0  0  0  0  0  0  0  0  0  0
    2.7281   -2.0968   -0.0174 H   0  0  0  0  0  0  0  0  0  0  0  0
    2.4550    0.3114    0.9427 H   0  0  0  0  0  0  0  0  0  0  0  0
    0.8758    1.0987    0.8531 H   0  0  0  0  0  0  0  0  0  0  0  0
    1.8156    0.8310   -0.6240 H   0  0  0  0  0  0  0  0  0  0  0  0
   -1.1411    0.3989   -2.3154 C   0  0  0  0  0  0  0  0  0  0  0  0
   -1.1411    0.3989   -0.7968 C   0  0  0  0  0  0  0  0  0  0  0  0
   -1.1411    2.0563   -0.0518 S   0  0  0  0  0  0  0  0  0  0  0  0
   -0.2345    0.8644   -2.7062 H   0  0  0  0  0  0  0  0  0  0  0  0
   -1.9971    0.9501   -2.7055 H   0  0  0  0  0  0  0  0  0  0  0  0
   -1.1842   -0.6244   -2.6957 H   0  0  0  0  0  0  0  0  0  0  0  0
   -0.1292   -0.2804   -0.3226 H   0  0  0  0  0  0  0  0  0  0  0  0
   -2.0487   -0.0681   -0.4116 H   0  0  0  0  0  0  0  0  0  0  0  0
    0.0337    2.4580   -0.5553 H   0  0  0  0  0  0  0  0  0  0  0  0
  1  2  3  0
  1  6  1  0
  2  3  1  0
  3  4  1  0
  3  5  1  0
  4  7  1  0
  4  8  1  0
  4  9  1  0
  5 10  1  0
  5 11  1  0
  5 12  1  0
 13 14  1  0
 13 16  1  0
 13 17  1  0
 13 18  1  0
 14 15  1  0
 14 19  1  0
 14 20  1  0
 15 21  1  0
M  RAD  1   3   2
M  END
>  <reaction>  (15) 
rxn_1875

>  <mol_properties>  (15) 
{"1": {"label": "*0", "atom_type": "Ct"}, "2": {"label": "*1", "atom_type": "Cs"}, "13": {"label": "*3", "atom_type": "Cs"}, "14": {"label": "*4", "atom_type": "S2s"}, "18": {"label": "*2", "atom_type": "H0"}}

>  <type>  (15) 
unop_11

>  <geom_source>  (15) 
Heuristics

$$$$

     RDKit          3D

 21 19  0  0  0  0  0  0  0  0999 V2000
    2.0987   -1.8333   -1.5083 C   0  0  0  0  0  0  0  0  0  0  0  0
    1.4680   -1.4099   -0.5818 C   0  0  0  0  0  0  0  0  0  0  0  0
    0.7129   -0.9029    0.5653 C   0  0  0  0  0  3  0  0  0  0  0  0
    1.5716    0.0455    1.4074 C   0  0  0  0  0  0  0  0  0  0  0  0
    0.1602   -2.0569    1.4074 C   0  0  0  0  0  0  0  0  0  0  0  0
    2.6584   -2.2091   -2.3306 H   0  0  0  0  0  0  0  0  0  0  0  0
    0.9834    0.4493    2.2334 H   0  0  0  0  0  0  0  0  0  0  0  0
    1.9437    0.8762    0.8079 H   0  0  0  0  0  0  0  0  0  0  0  0
    2.4296   -0.4855    1.8235 H   0  0  0  0  0  0  0  0  0  0  0  0
    0.9765   -2.6499    1.8235 H   0  0  0  0  0  0  0  0  0  0  0  0
   -0.4678   -2.7157    0.8079 H   0  0  0  0  0  0  0  0  0  0  0  0
   -0.4362   -1.6653    2.2334 H   0  0  0  0  0  0  0  0  0  0  0  0
   -1.3155    0.4588   -1.9037 C   0  0  0  0  0  0  0  0  0  0  0  0
   -1.3155    0.4588   -0.3850 C   0  0  0  0  0  0  0  0  0  0  0  0
   -1.3155    2.1161    0.3599 S   0  0  0  0  0  0  0  0  0  0  0  0
   -0.4088    0.9242   -2.2945 H   0  0  0  0  0  0  0  0  0  0  0  0
   -2.1714    1.0100   -2.2938 H   0  0  0  0  0  0  0  0  0  0  0  0
   -1.3585   -0.5646   -2.2840 H   0  0  0  0  0  0  0  0  0  0  0  0
   -0.3036   -0.2206    0.0891 H   0  0  0  0  0  0  0  0  0  0  0  0
   -2.2231   -0.0083    0.0001 H   0  0  0  0  0  0  0  0  0  0  0  0
   -0.1407    2.5178   -0.1436 H   0  0  0  0  0  0  0  0  0  0  0  0
  1  2  3  0
  1  6  1  0
  2  3  1  0
  3  4  1  0
  3  5  1  0
  4  7  1  0
  4  8  1  0
  4  9  1  0
  5 10  1  0
  5 11  1  0
  5 12  1  0
 13 14  1  0
 13 16  1  0
 13 17  1  0
 13 18  1  0
 14 15  1  0
 14 19  1  0
 14 20  1  0
 15 21  1  0
M  RAD  1   3   2
M  END
>  <reaction>  (16) 
rxn_1875

>  <mol_properties>  (16) 
{"1": {"label": "*0", "atom_type": "Ct"}, "2": {"label": "*1", "atom_type": "Cs"}, "13": {"label": "*3", "atom_type": "Cs"}, "14": {"label": "*4", "atom_type": "S2s"}, "18": {"label": "*2", "atom_type": "H0"}}

>  <type>  (16) 
unop_12

>  <geom_source>  (16) 
Heuristics

$$$$

     RDKit          3D

 21 19  0  0  0  0  0  0  0  0999 V2000
    2.4078    1.3883   -0.4046 S   0  0  0  0  0  0  0  0  0  0  0  0
   -0.8754    0.2103    0.0857 C   0  0  0  0  0  0  0  0  0  0  0  0
   -1.1775   -0.1702    1.5357 C   0  0  0  0  0  0  0  0  0  0  0  0
   -1.4622   -0.8158   -0.8845 C   0  0  0  0  0  0  0  0  0  0  0  0
    2.2630   -1.3429   -0.6420 C   0  0  0  0  0  0  0  0  0  0  0  0
    1.7054   -0.1865    0.1707 C   0  0  0  0  0  3  0  0  0  0  0  0
   -1.4132    1.5476   -0.2077 C   0  0  0  0  0  0  0  0  0  0  0  0
   -1.8530    2.6441   -0.4485 C   0  0  0  0  0  0  0  0  0  0  0  0
    0.4346    0.2431   -0.0771 H   0  0  0  0  0  0  0  0  0  0  0  0
   -0.7229    0.5717    2.2267 H   0  0  0  0  0  0  0  0  0  0  0  0
   -2.2742   -0.2059    1.7148 H   0  0  0  0  0  0  0  0  0  0  0  0
   -0.7429   -1.1663    1.7647 H   0  0  0  0  0  0  0  0  0  0  0  0
   -1.2120   -0.5373   -1.9306 H   0  0  0  0  0  0  0  0  0  0  0  0
   -2.5677   -0.8714   -0.7801 H   0  0  0  0  0  0  0  0  0  0  0  0
   -1.0307   -1.8190   -0.6821 H   0  0  0  0  0  0  0  0  0  0  0  0
    3.3665   -1.3961   -0.5276 H   0  0  0  0  0  0  0  0  0  0  0  0
    1.8163   -2.2936   -0.2839 H   0  0  0  0  0  0  0  0  0  0  0  0
    2.0074   -1.2098   -1.7141 H   0  0  0  0  0  0  0  0  0  0  0  0
    1.9445   -0.3291    1.2458 H   0  0  0  0  0  0  0  0  0  0  0  0
    1.6255    2.1322    0.4985 H   0  0  0  0  0  0  0  0  0  0  0  0
   -2.2391    3.6065   -0.6598 H   0  0  0  0  0  0  0  0  0  0  0  0
  1  6  1  0
  1 20  1  0
  2  3  1  0
  2  4  1  0
  2  7  1  0
  2  9  1  0
  3 10  1  0
  3 11  1  0
  3 12  1  0
  4 13  1  0
  4 14  1  0
  4 15  1  0
  5  6  1  0
  5 16  1  0
  5 17  1  0
  5 18  1  0
  6 19  1  0
  7  8  3  0
  8 21  1  0
M  RAD  1   6   2
M  END
>  <reaction>  (17) 
rxn_1875

>  <mol_properties>  (17) 
{"1": {"label": "*0", "atom_type": "Ct"}, "2": {"label": "*1", "atom_type": "Cs"}, "13": {"label": "*3", "atom_type": "Cs"}, "14": {"label": "*4", "atom_type": "S2s"}, "18": {"label": "*2", "atom_type": "H0"}}

>  <type>  (17) 
unop_13

>  <geom_source>  (17) 
AutoTST

$$$$
