
     RDKit          3D

 13 12  0  0  0  0  0  0  0  0999 V2000
    2.2975   -0.6134    0.7685 C   0  0  0  0  0  0  0  0  0  0  0  0
    1.1676   -0.5248    0.3802 C   0  0  0  0  0  0  0  0  0  0  0  0
   -0.2109   -0.3926   -0.0948 C   0  0  0  0  0  0  0  0  0  0  0  0
   -0.2501    0.2584   -1.4808 C   0  0  0  0  0  0  0  0  0  0  0  0
   -1.0633    0.3831    0.9141 C   0  0  0  0  0  0  0  0  0  0  0  0
    3.2999   -0.6974    1.1133 H   0  0  0  0  0  0  0  0  0  0  0  0
   -0.6209   -1.4038   -0.1814 H   0  0  0  0  0  0  0  0  0  0  0  0
    0.3402   -0.3102   -2.1992 H   0  0  0  0  0  0  0  0  0  0  0  0
    0.1511    1.2724   -1.4369 H   0  0  0  0  0  0  0  0  0  0  0  0
   -1.2791    0.3109   -1.8407 H   0  0  0  0  0  0  0  0  0  0  0  0
   -0.6861    1.4008    1.0287 H   0  0  0  0  0  0  0  0  0  0  0  0
   -1.0492   -0.0971    1.8924 H   0  0  0  0  0  0  0  0  0  0  0  0
   -2.0971    0.4363    0.5680 H   0  0  0  0  0  0  0  0  0  0  0  0
  1  2  3  0
  1  6  1  0
  2  3  1  0
  3  4  1  0
  3  5  1  0
  3  7  1  0
  4  8  1  0
  4  9  1  0
  4 10  1  0
  5 11  1  0
  5 12  1  0
  5 13  1  0
M  END
>  <reaction>  (1) 
rxn_1310

>  <mol_properties>  (1) 
{"2": {"label": "donator", "atom_type": "Cs"}, "6": {"label": "d_hydrogen", "atom_type": "H0"}}

>  <type>  (1) 
r1h

$$$$

     RDKit          3D

 15 14  0  0  0  0  0  0  0  0999 V2000
    2.4381    0.5770   -0.2356 C   0  0  0  0  0  0  0  0  0  0  0  0
    1.4430   -0.3367   -0.1409 C   0  0  0  0  0  0  0  0  0  0  0  0
    0.0521   -0.0957   -0.0045 C   0  0  0  0  0  3  0  0  0  0  0  0
   -0.5167    1.2867    0.0548 C   0  0  0  0  0  0  0  0  0  0  0  0
   -0.8226   -1.2147    0.0778 C   0  0  0  0  0  0  0  0  0  0  0  0
   -2.1666   -1.1669    0.2092 C   0  0  0  0  0  0  0  0  0  0  0  0
    3.4666    0.2585   -0.3369 H   0  0  0  0  0  0  0  0  0  0  0  0
    2.2594    1.6438   -0.2152 H   0  0  0  0  0  0  0  0  0  0  0  0
    1.7306   -1.3845   -0.1719 H   0  0  0  0  0  0  0  0  0  0  0  0
   -1.2300    1.4469   -0.7583 H   0  0  0  0  0  0  0  0  0  0  0  0
    0.2481    2.0557   -0.0178 H   0  0  0  0  0  0  0  0  0  0  0  0
   -1.0592    1.4421    0.9914 H   0  0  0  0  0  0  0  0  0  0  0  0
   -0.3519   -2.1929    0.0292 H   0  0  0  0  0  0  0  0  0  0  0  0
   -2.7080   -0.2310    0.2646 H   0  0  0  0  0  0  0  0  0  0  0  0
   -2.7513   -2.0751    0.2638 H   0  0  0  0  0  0  0  0  0  0  0  0
  1  2  2  3
  1  7  1  0
  1  8  1  0
  2  3  1  0
  2  9  1  0
  3  4  1  0
  3  5  1  0
  4 10  1  0
  4 11  1  0
  4 12  1  0
  5  6  2  3
  5 13  1  0
  6 14  1  0
  6 15  1  0
M  RAD  1   3   2
M  END
>  <reaction>  (2) 
rxn_1310

>  <mol_properties>  (2) 
{"2": {"label": "acceptor", "atom_type": "Cs"}}

>  <type>  (2) 
r2

$$$$

     RDKit          3D

 16 15  0  0  0  0  0  0  0  0999 V2000
    1.7961   -0.3807    1.6176 C   0  0  0  0  0  0  0  0  0  0  0  0
    0.8562   -0.8708    0.8256 C   0  0  0  0  0  0  0  0  0  0  0  0
    0.0895   -0.0826   -0.2048 C   0  0  0  0  0  0  0  0  0  0  0  0
   -1.4061   -0.1111    0.0982 C   0  0  0  0  0  0  0  0  0  0  0  0
    0.4476   -0.5902   -1.5797 C   0  0  0  0  0  0  0  0  0  0  0  0
   -0.3793   -1.1113   -2.4728 C   0  0  0  0  0  0  0  0  0  0  0  0
    2.3110   -1.0032    2.3386 H   0  0  0  0  0  0  0  0  0  0  0  0
    2.0846    0.6643    1.5737 H   0  0  0  0  0  0  0  0  0  0  0  0
    0.5921   -1.9241    0.8925 H   0  0  0  0  0  0  0  0  0  0  0  0
    0.4358    0.9557   -0.1462 H   0  0  0  0  0  0  0  0  0  0  0  0
   -1.5968    0.3080    1.0865 H   0  0  0  0  0  0  0  0  0  0  0  0
   -1.9674    0.4693   -0.6359 H   0  0  0  0  0  0  0  0  0  0  0  0
   -1.7902   -1.1338    0.0883 H   0  0  0  0  0  0  0  0  0  0  0  0
    1.5049   -0.5197   -1.8214 H   0  0  0  0  0  0  0  0  0  0  0  0
   -1.4421   -1.2131   -2.2889 H   0  0  0  0  0  0  0  0  0  0  0  0
   -0.0162   -1.4558   -3.4328 H   0  0  0  0  0  0  0  0  0  0  0  0
  1  2  2  3
  1  7  1  0
  1  8  1  0
  2  3  1  0
  2  9  1  0
  3  4  1  0
  3  5  1  0
  3 10  1  0
  4 11  1  0
  4 12  1  0
  4 13  1  0
  5  6  2  3
  5 14  1  0
  6 15  1  0
  6 16  1  0
M  END
>  <reaction>  (3) 
rxn_1310

>  <mol_properties>  (3) 
{"0": {"label": "a_hydrogen", "atom_type": "H0"}, "3": {"label": "acceptor", "atom_type": "Cs"}}

>  <type>  (3) 
r2h

$$$$

     RDKit          3D

 28 26  0  0  0  0  0  0  0  0999 V2000
    0.6286    1.0031   -2.8983 C   0  0  0  0  0  0  0  0  0  0  0  0
    0.4363    1.2577   -1.7363 C   0  0  0  0  0  0  0  0  0  0  0  0
    0.2056    1.5001   -0.3569 C   0  0  0  0  0  3  0  0  0  0  0  0
   -1.1193    2.1330   -0.0036 C   0  0  0  0  0  0  0  0  0  0  0  0
    1.3943    1.9610    0.4526 C   0  0  0  0  0  0  0  0  0  0  0  0
    0.7957    0.7912   -3.9266 H   0  0  0  0  0  0  0  0  0  0  0  0
   -0.0134    0.1963    0.1598 H   0  0  0  0  0  0  0  0  0  0  0  0
   -1.9383    1.6510   -0.5379 H   0  0  0  0  0  0  0  0  0  0  0  0
   -1.1249    3.1967   -0.2604 H   0  0  0  0  0  0  0  0  0  0  0  0
   -1.3011    2.0469    1.0703 H   0  0  0  0  0  0  0  0  0  0  0  0
    1.5868    3.0258    0.2856 H   0  0  0  0  0  0  0  0  0  0  0  0
    2.2945    1.4101    0.1814 H   0  0  0  0  0  0  0  0  0  0  0  0
    1.2040    1.8143    1.5177 H   0  0  0  0  0  0  0  0  0  0  0  0
   -1.5754   -2.0924   -1.1397 C   0  0  0  0  0  0  0  0  0  0  0  0
   -1.4295   -1.4038   -0.0103 C   0  0  0  0  0  0  0  0  0  0  0  0
   -0.1575   -1.0024    0.6204 C   0  0  0  0  0  0  0  0  0  0  0  0
    1.1009   -1.6577    0.1011 C   0  0  0  0  0  0  0  0  0  0  0  0
   -0.2585   -0.7939    2.0772 C   0  0  0  0  0  0  0  0  0  0  0  0
    0.7050   -0.9598    2.9813 C   0  0  0  0  0  0  0  0  0  0  0  0
   -2.5602   -2.3063   -1.5339 H   0  0  0  0  0  0  0  0  0  0  0  0
   -0.7310   -2.4679   -1.7035 H   0  0  0  0  0  0  0  0  0  0  0  0
   -2.3257   -1.0597    0.5005 H   0  0  0  0  0  0  0  0  0  0  0  0
    1.9882   -1.1905    0.5288 H   0  0  0  0  0  0  0  0  0  0  0  0
    1.1705   -1.5524   -0.9817 H   0  0  0  0  0  0  0  0  0  0  0  0
    1.1207   -2.7222    0.3488 H   0  0  0  0  0  0  0  0  0  0  0  0
   -1.2299   -0.4484    2.4238 H   0  0  0  0  0  0  0  0  0  0  0  0
    1.6940   -1.3135    2.7181 H   0  0  0  0  0  0  0  0  0  0  0  0
    0.5226   -0.7554    4.0282 H   0  0  0  0  0  0  0  0  0  0  0  0
  1  2  3  0
  1  6  1  0
  2  3  1  0
  3  4  1  0
  3  5  1  0
  4  8  1  0
  4  9  1  0
  4 10  1  0
  5 11  1  0
  5 12  1  0
  5 13  1  0
  7 16  1  0
 14 15  2  3
 14 20  1  0
 14 21  1  0
 15 16  1  0
 15 22  1  0
 16 17  1  0
 16 18  1  0
 17 23  1  0
 17 24  1  0
 17 25  1  0
 18 19  2  3
 18 26  1  0
 19 27  1  0
 19 28  1  0
M  RAD  1   3   2
M  END
>  <reaction>  (4) 
rxn_1310

>  <mol_properties>  (4) 
{"1": {"label": "*4", "atom_type": "Ct"}, "2": {"label": "*3", "atom_type": "Cs"}, "6": {"label": "*2", "atom_type": "H0"}, "14": {"label": "*0", "atom_type": "Cd"}, "15": {"label": "*1", "atom_type": "Cs"}}

>  <type>  (4) 
ts

$$$$

     RDKit          3D

 28 26  0  0  0  0  0  0  0  0999 V2000
   -0.0429    1.4274   -2.9869 C   0  0  0  0  0  0  0  0  0  0  0  0
   -0.0429    1.4274   -1.7888 C   0  0  0  0  0  0  0  0  0  0  0  0
   -0.0429    1.4513   -0.3250 C   0  0  0  0  0  0  0  0  0  0  0  0
   -1.3090    2.1278    0.2093 C   0  0  0  0  0  0  0  0  0  0  0  0
    1.2232    2.1277    0.2093 C   0  0  0  0  0  0  0  0  0  0  0  0
   -0.0429    1.4274   -4.0502 H   0  0  0  0  0  0  0  0  0  0  0  0
   -0.0430    0.2027    0.0829 H   0  0  0  0  0  0  0  0  0  0  0  0
   -2.2061    1.6285   -0.1566 H   0  0  0  0  0  0  0  0  0  0  0  0
   -1.3464    3.1713   -0.1082 H   0  0  0  0  0  0  0  0  0  0  0  0
   -1.3164    2.0998    1.3004 H   0  0  0  0  0  0  0  0  0  0  0  0
    1.2606    3.1712   -0.1082 H   0  0  0  0  0  0  0  0  0  0  0  0
    2.1202    1.6284   -0.1566 H   0  0  0  0  0  0  0  0  0  0  0  0
    1.2305    2.0997    1.3004 H   0  0  0  0  0  0  0  0  0  0  0  0
    2.3937   -0.7475    1.0343 C   0  0  0  0  0  0  0  0  0  0  0  0
    1.2027   -1.2514    1.3144 C   0  0  0  0  0  0  0  0  0  0  0  0
   -0.0430   -1.0477    0.4913 C   0  0  0  0  0  3  0  0  0  0  0  0
   -1.1287   -0.3634    1.3174 C   0  0  0  0  0  0  0  0  0  0  0  0
   -0.4635   -2.3699   -0.1012 C   0  0  0  0  0  0  0  0  0  0  0  0
   -1.6132   -2.9967    0.0944 C   0  0  0  0  0  0  0  0  0  0  0  0
    3.2512   -0.9332    1.6689 H   0  0  0  0  0  0  0  0  0  0  0  0
    2.5542   -0.1285    0.1578 H   0  0  0  0  0  0  0  0  0  0  0  0
    1.0757   -1.8709    2.1997 H   0  0  0  0  0  0  0  0  0  0  0  0
   -2.0298   -0.1995    0.7241 H   0  0  0  0  0  0  0  0  0  0  0  0
   -0.7736    0.6026    1.6772 H   0  0  0  0  0  0  0  0  0  0  0  0
   -1.3997   -0.9659    2.1874 H   0  0  0  0  0  0  0  0  0  0  0  0
    0.2864   -2.8344   -0.7362 H   0  0  0  0  0  0  0  0  0  0  0  0
   -2.3973   -2.5877    0.7201 H   0  0  0  0  0  0  0  0  0  0  0  0
   -1.8127   -3.9522   -0.3739 H   0  0  0  0  0  0  0  0  0  0  0  0
  1  2  3  0
  1  6  1  0
  2  3  1  0
  3  4  1  0
  3  5  1  0
  3  7  1  0
  4  8  1  0
  4  9  1  0
  4 10  1  0
  5 11  1  0
  5 12  1  0
  5 13  1  0
 14 15  2  3
 14 20  1  0
 14 21  1  0
 15 16  1  0
 15 22  1  0
 16 17  1  0
 16 18  1  0
 17 23  1  0
 17 24  1  0
 17 25  1  0
 18 19  2  3
 18 26  1  0
 19 27  1  0
 19 28  1  0
M  RAD  1  16   2
M  END
>  <reaction>  (5) 
rxn_1310

>  <mol_properties>  (5) 
{"1": {"label": "*4", "atom_type": "Ct"}, "2": {"label": "*3", "atom_type": "Cs"}, "6": {"label": "*2", "atom_type": "H0"}, "14": {"label": "*0", "atom_type": "Cd"}, "15": {"label": "*1", "atom_type": "Cs"}}

>  <type>  (5) 
unop_1

>  <geom_source>  (5) 
Heuristics

$$$$

     RDKit          3D

 28 26  0  0  0  0  0  0  0  0999 V2000
    0.0178    1.4617   -2.8618 C   0  0  0  0  0  0  0  0  0  0  0  0
    0.0178    1.4617   -1.6637 C   0  0  0  0  0  0  0  0  0  0  0  0
    0.0178    1.4856   -0.1999 C   0  0  0  0  0  0  0  0  0  0  0  0
   -1.2483    2.1621    0.3345 C   0  0  0  0  0  0  0  0  0  0  0  0
    1.2840    2.1621    0.3345 C   0  0  0  0  0  0  0  0  0  0  0  0
    0.0178    1.4617   -3.9251 H   0  0  0  0  0  0  0  0  0  0  0  0
    0.0178    0.2370    0.2080 H   0  0  0  0  0  0  0  0  0  0  0  0
   -2.1453    1.6628   -0.0315 H   0  0  0  0  0  0  0  0  0  0  0  0
   -1.2856    3.2056    0.0169 H   0  0  0  0  0  0  0  0  0  0  0  0
   -1.2556    2.1341    1.4255 H   0  0  0  0  0  0  0  0  0  0  0  0
    1.3213    3.2056    0.0169 H   0  0  0  0  0  0  0  0  0  0  0  0
    2.1810    1.6627   -0.0315 H   0  0  0  0  0  0  0  0  0  0  0  0
    1.2913    2.1340    1.4255 H   0  0  0  0  0  0  0  0  0  0  0  0
    0.9334   -1.4563   -1.6831 C   0  0  0  0  0  0  0  0  0  0  0  0
    0.7370   -1.8271   -0.4282 C   0  0  0  0  0  0  0  0  0  0  0  0
    0.0178   -1.0133    0.6164 C   0  0  0  0  0  3  0  0  0  0  0  0
    0.9422   -0.7074    1.7917 C   0  0  0  0  0  0  0  0  0  0  0  0
   -1.2548   -1.7245    1.0047 C   0  0  0  0  0  0  0  0  0  0  0  0
   -1.5839   -2.1590    2.2114 C   0  0  0  0  0  0  0  0  0  0  0  0
    1.4592   -2.0905   -2.3857 H   0  0  0  0  0  0  0  0  0  0  0  0
    0.5750   -0.5017   -2.0536 H   0  0  0  0  0  0  0  0  0  0  0  0
    1.1065   -2.7924   -0.0887 H   0  0  0  0  0  0  0  0  0  0  0  0
    0.4330   -0.1061    2.5466 H   0  0  0  0  0  0  0  0  0  0  0  0
    1.8178   -0.1568    1.4469 H   0  0  0  0  0  0  0  0  0  0  0  0
    1.2908   -1.6267    2.2680 H   0  0  0  0  0  0  0  0  0  0  0  0
   -1.9419   -1.8947    0.1799 H   0  0  0  0  0  0  0  0  0  0  0  0
   -0.9395   -2.0243    3.0717 H   0  0  0  0  0  0  0  0  0  0  0  0
   -2.5237   -2.6688    2.3820 H   0  0  0  0  0  0  0  0  0  0  0  0
  1  2  3  0
  1  6  1  0
  2  3  1  0
  3  4  1  0
  3  5  1  0
  3  7  1  0
  4  8  1  0
  4  9  1  0
  4 10  1  0
  5 11  1  0
  5 12  1  0
  5 13  1  0
 14 15  2  3
 14 20  1  0
 14 21  1  0
 15 16  1  0
 15 22  1  0
 16 17  1  0
 16 18  1  0
 17 23  1  0
 17 24  1  0
 17 25  1  0
 18 19  2  3
 18 26  1  0
 19 27  1  0
 19 28  1  0
M  RAD  1  16   2
M  END
>  <reaction>  (6) 
rxn_1310

>  <mol_properties>  (6) 
{"1": {"label": "*4", "atom_type": "Ct"}, "2": {"label": "*3", "atom_type": "Cs"}, "6": {"label": "*2", "atom_type": "H0"}, "14": {"label": "*0", "atom_type": "Cd"}, "15": {"label": "*1", "atom_type": "Cs"}}

>  <type>  (6) 
unop_2

>  <geom_source>  (6) 
Heuristics

$$$$

     RDKit          3D

 28 26  0  0  0  0  0  0  0  0999 V2000
   -0.0520    1.4289   -2.9803 C   0  0  0  0  0  0  0  0  0  0  0  0
   -0.0520    1.4289   -1.7822 C   0  0  0  0  0  0  0  0  0  0  0  0
   -0.0520    1.4529   -0.3184 C   0  0  0  0  0  0  0  0  0  0  0  0
   -1.3181    2.1294    0.2159 C   0  0  0  0  0  0  0  0  0  0  0  0
    1.2141    2.1293    0.2159 C   0  0  0  0  0  0  0  0  0  0  0  0
   -0.0520    1.4289   -4.0436 H   0  0  0  0  0  0  0  0  0  0  0  0
   -0.0521    0.2042    0.0895 H   0  0  0  0  0  0  0  0  0  0  0  0
   -2.2152    1.6301   -0.1500 H   0  0  0  0  0  0  0  0  0  0  0  0
   -1.3555    3.1729   -0.1016 H   0  0  0  0  0  0  0  0  0  0  0  0
   -1.3255    2.1014    1.3070 H   0  0  0  0  0  0  0  0  0  0  0  0
    1.2515    3.1728   -0.1016 H   0  0  0  0  0  0  0  0  0  0  0  0
    2.1111    1.6300   -0.1500 H   0  0  0  0  0  0  0  0  0  0  0  0
    1.2214    2.1013    1.3070 H   0  0  0  0  0  0  0  0  0  0  0  0
    1.6170   -0.2465    2.2000 C   0  0  0  0  0  0  0  0  0  0  0  0
    0.6671   -1.0863    1.8215 C   0  0  0  0  0  0  0  0  0  0  0  0
   -0.0521   -1.0461    0.4979 C   0  0  0  0  0  3  0  0  0  0  0  0
   -1.5512   -0.8486    0.7051 C   0  0  0  0  0  0  0  0  0  0  0  0
    0.3014   -2.2816   -0.2924 C   0  0  0  0  0  0  0  0  0  0  0  0
   -0.5356   -3.2096   -0.7298 C   0  0  0  0  0  0  0  0  0  0  0  0
    2.0956   -0.3310    3.1676 H   0  0  0  0  0  0  0  0  0  0  0  0
    1.9504    0.5590    1.5540 H   0  0  0  0  0  0  0  0  0  0  0  0
    0.3575   -1.8853    2.4918 H   0  0  0  0  0  0  0  0  0  0  0  0
   -2.0779   -0.8044   -0.2496 H   0  0  0  0  0  0  0  0  0  0  0  0
   -1.7364    0.0813    1.2433 H   0  0  0  0  0  0  0  0  0  0  0  0
   -1.9785   -1.6656    1.2912 H   0  0  0  0  0  0  0  0  0  0  0  0
    1.3638   -2.3972   -0.4909 H   0  0  0  0  0  0  0  0  0  0  0  0
   -1.6039   -3.1534   -0.5593 H   0  0  0  0  0  0  0  0  0  0  0  0
   -0.1753   -4.0674   -1.2835 H   0  0  0  0  0  0  0  0  0  0  0  0
  1  2  3  0
  1  6  1  0
  2  3  1  0
  3  4  1  0
  3  5  1  0
  3  7  1  0
  4  8  1  0
  4  9  1  0
  4 10  1  0
  5 11  1  0
  5 12  1  0
  5 13  1  0
 14 15  2  3
 14 20  1  0
 14 21  1  0
 15 16  1  0
 15 22  1  0
 16 17  1  0
 16 18  1  0
 17 23  1  0
 17 24  1  0
 17 25  1  0
 18 19  2  3
 18 26  1  0
 19 27  1  0
 19 28  1  0
M  RAD  1  16   2
M  END
>  <reaction>  (7) 
rxn_1310

>  <mol_properties>  (7) 
{"1": {"label": "*4", "atom_type": "Ct"}, "2": {"label": "*3", "atom_type": "Cs"}, "6": {"label": "*2", "atom_type": "H0"}, "14": {"label": "*0", "atom_type": "Cd"}, "15": {"label": "*1", "atom_type": "Cs"}}

>  <type>  (7) 
unop_3

>  <geom_source>  (7) 
Heuristics

$$$$

     RDKit          3D

 28 26  0  0  0  0  0  0  0  0999 V2000
    0.1856    1.2885   -3.0233 C   0  0  0  0  0  0  0  0  0  0  0  0
    0.1856    1.2885   -1.8252 C   0  0  0  0  0  0  0  0  0  0  0  0
    0.1856    1.3125   -0.3614 C   0  0  0  0  0  0  0  0  0  0  0  0
   -1.0805    1.9889    0.1730 C   0  0  0  0  0  0  0  0  0  0  0  0
    1.4517    1.9889    0.1730 C   0  0  0  0  0  0  0  0  0  0  0  0
    0.1856    1.2885   -4.0866 H   0  0  0  0  0  0  0  0  0  0  0  0
    0.1856    0.0638    0.0465 H   0  0  0  0  0  0  0  0  0  0  0  0
   -1.9776    1.4896   -0.1930 H   0  0  0  0  0  0  0  0  0  0  0  0
   -1.1178    3.0325   -0.1446 H   0  0  0  0  0  0  0  0  0  0  0  0
   -1.0878    1.9609    1.2640 H   0  0  0  0  0  0  0  0  0  0  0  0
    1.4891    3.0324   -0.1446 H   0  0  0  0  0  0  0  0  0  0  0  0
    2.3488    1.4896   -0.1930 H   0  0  0  0  0  0  0  0  0  0  0  0
    1.4591    1.9609    1.2640 H   0  0  0  0  0  0  0  0  0  0  0  0
   -1.6628   -1.5055   -1.2197 C   0  0  0  0  0  0  0  0  0  0  0  0
   -1.0601   -1.8368   -0.0892 C   0  0  0  0  0  0  0  0  0  0  0  0
    0.1856   -1.1865    0.4549 C   0  0  0  0  0  3  0  0  0  0  0  0
    1.3083   -2.2101    0.6000 C   0  0  0  0  0  0  0  0  0  0  0  0
   -0.1552   -0.4630    1.7342 C   0  0  0  0  0  0  0  0  0  0  0  0
    0.3569   -0.6895    2.9339 C   0  0  0  0  0  0  0  0  0  0  0  0
   -2.5583   -2.0137   -1.5546 H   0  0  0  0  0  0  0  0  0  0  0  0
   -1.2803   -0.7121   -1.8532 H   0  0  0  0  0  0  0  0  0  0  0  0
   -1.4709   -2.6353    0.5250 H   0  0  0  0  0  0  0  0  0  0  0  0
    2.2187   -1.7442    0.9805 H   0  0  0  0  0  0  0  0  0  0  0  0
    1.5316   -2.6618   -0.3669 H   0  0  0  0  0  0  0  0  0  0  0  0
    1.0243   -3.0112    1.2864 H   0  0  0  0  0  0  0  0  0  0  0  0
   -0.9151    0.3064    1.6244 H   0  0  0  0  0  0  0  0  0  0  0  0
    1.1130   -1.4455    3.1082 H   0  0  0  0  0  0  0  0  0  0  0  0
    0.0346   -0.1161    3.7938 H   0  0  0  0  0  0  0  0  0  0  0  0
  1  2  3  0
  1  6  1  0
  2  3  1  0
  3  4  1  0
  3  5  1  0
  3  7  1  0
  4  8  1  0
  4  9  1  0
  4 10  1  0
  5 11  1  0
  5 12  1  0
  5 13  1  0
 14 15  2  3
 14 20  1  0
 14 21  1  0
 15 16  1  0
 15 22  1  0
 16 17  1  0
 16 18  1  0
 17 23  1  0
 17 24  1  0
 17 25  1  0
 18 19  2  3
 18 26  1  0
 19 27  1  0
 19 28  1  0
M  RAD  1  16   2
M  END
>  <reaction>  (8) 
rxn_1310

>  <mol_properties>  (8) 
{"1": {"label": "*4", "atom_type": "Ct"}, "2": {"label": "*3", "atom_type": "Cs"}, "6": {"label": "*2", "atom_type": "H0"}, "14": {"label": "*0", "atom_type": "Cd"}, "15": {"label": "*1", "atom_type": "Cs"}}

>  <type>  (8) 
unop_4

>  <geom_source>  (8) 
Heuristics

$$$$

     RDKit          3D

 28 26  0  0  0  0  0  0  0  0999 V2000
   -0.1212    1.3880   -2.9995 C   0  0  0  0  0  0  0  0  0  0  0  0
   -0.1212    1.3880   -1.8014 C   0  0  0  0  0  0  0  0  0  0  0  0
   -0.1212    1.4119   -0.3376 C   0  0  0  0  0  0  0  0  0  0  0  0
   -1.3873    2.0884    0.1968 C   0  0  0  0  0  0  0  0  0  0  0  0
    1.1450    2.0883    0.1968 C   0  0  0  0  0  0  0  0  0  0  0  0
   -0.1212    1.3880   -4.0628 H   0  0  0  0  0  0  0  0  0  0  0  0
   -0.1212    0.1632    0.0703 H   0  0  0  0  0  0  0  0  0  0  0  0
   -2.2843    1.5891   -0.1692 H   0  0  0  0  0  0  0  0  0  0  0  0
   -1.4246    3.1319   -0.1208 H   0  0  0  0  0  0  0  0  0  0  0  0
   -1.3946    2.0604    1.2878 H   0  0  0  0  0  0  0  0  0  0  0  0
    1.1823    3.1318   -0.1208 H   0  0  0  0  0  0  0  0  0  0  0  0
    2.0420    1.5890   -0.1692 H   0  0  0  0  0  0  0  0  0  0  0  0
    1.1523    2.0603    1.2878 H   0  0  0  0  0  0  0  0  0  0  0  0
   -0.0897    0.0227    2.7348 C   0  0  0  0  0  0  0  0  0  0  0  0
   -0.1212   -1.0674    1.9855 C   0  0  0  0  0  0  0  0  0  0  0  0
   -0.1212   -1.0871    0.4787 C   0  0  0  0  0  3  0  0  0  0  0  0
   -1.3798   -1.7687   -0.0512 C   0  0  0  0  0  0  0  0  0  0  0  0
    1.1649   -1.7095   -0.0057 C   0  0  0  0  0  0  0  0  0  0  0  0
    1.2881   -2.7973   -0.7504 C   0  0  0  0  0  0  0  0  0  0  0  0
   -0.0910   -0.0326    3.8161 H   0  0  0  0  0  0  0  0  0  0  0  0
   -0.0624    1.0129    2.2921 H   0  0  0  0  0  0  0  0  0  0  0  0
   -0.1452   -2.0459    2.4606 H   0  0  0  0  0  0  0  0  0  0  0  0
   -1.3942   -1.7746   -1.1423 H   0  0  0  0  0  0  0  0  0  0  0  0
   -2.2677   -1.2435    0.3015 H   0  0  0  0  0  0  0  0  0  0  0  0
   -1.4427   -2.8029    0.2949 H   0  0  0  0  0  0  0  0  0  0  0  0
    2.0634   -1.1939    0.3234 H   0  0  0  0  0  0  0  0  0  0  0  0
    0.4312   -3.3573   -1.1049 H   0  0  0  0  0  0  0  0  0  0  0  0
    2.2643   -3.1676   -1.0372 H   0  0  0  0  0  0  0  0  0  0  0  0
  1  2  3  0
  1  6  1  0
  2  3  1  0
  3  4  1  0
  3  5  1  0
  3  7  1  0
  4  8  1  0
  4  9  1  0
  4 10  1  0
  5 11  1  0
  5 12  1  0
  5 13  1  0
 14 15  2  3
 14 20  1  0
 14 21  1  0
 15 16  1  0
 15 22  1  0
 16 17  1  0
 16 18  1  0
 17 23  1  0
 17 24  1  0
 17 25  1  0
 18 19  2  3
 18 26  1  0
 19 27  1  0
 19 28  1  0
M  RAD  1  16   2
M  END
>  <reaction>  (9) 
rxn_1310

>  <mol_properties>  (9) 
{"1": {"label": "*4", "atom_type": "Ct"}, "2": {"label": "*3", "atom_type": "Cs"}, "6": {"label": "*2", "atom_type": "H0"}, "14": {"label": "*0", "atom_type": "Cd"}, "15": {"label": "*1", "atom_type": "Cs"}}

>  <type>  (9) 
unop_5

>  <geom_source>  (9) 
Heuristics

$$$$

     RDKit          3D

 28 26  0  0  0  0  0  0  0  0999 V2000
    0.1058    1.2394   -3.0977 C   0  0  0  0  0  0  0  0  0  0  0  0
    0.1058    1.2394   -1.8996 C   0  0  0  0  0  0  0  0  0  0  0  0
    0.1058    1.2633   -0.4358 C   0  0  0  0  0  0  0  0  0  0  0  0
   -1.1603    1.9398    0.0986 C   0  0  0  0  0  0  0  0  0  0  0  0
    1.3719    1.9398    0.0986 C   0  0  0  0  0  0  0  0  0  0  0  0
    0.1058    1.2394   -4.1610 H   0  0  0  0  0  0  0  0  0  0  0  0
    0.1058    0.0147   -0.0279 H   0  0  0  0  0  0  0  0  0  0  0  0
   -2.0574    1.4405   -0.2674 H   0  0  0  0  0  0  0  0  0  0  0  0
   -1.1977    2.9833   -0.2190 H   0  0  0  0  0  0  0  0  0  0  0  0
   -1.1677    1.9118    1.1896 H   0  0  0  0  0  0  0  0  0  0  0  0
    1.4093    2.9833   -0.2190 H   0  0  0  0  0  0  0  0  0  0  0  0
    2.2689    1.4404   -0.2674 H   0  0  0  0  0  0  0  0  0  0  0  0
    1.3792    1.9118    1.1896 H   0  0  0  0  0  0  0  0  0  0  0  0
   -2.3191   -1.2957   -0.2820 C   0  0  0  0  0  0  0  0  0  0  0  0
   -1.3326   -1.6626    0.5200 C   0  0  0  0  0  0  0  0  0  0  0  0
    0.1057   -1.2356    0.3805 C   0  0  0  0  0  3  0  0  0  0  0  0
    1.0110   -2.4484    0.1832 C   0  0  0  0  0  0  0  0  0  0  0  0
    0.4806   -0.3748    1.5614 C   0  0  0  0  0  0  0  0  0  0  0  0
    1.4334   -0.6166    2.4483 C   0  0  0  0  0  0  0  0  0  0  0  0
   -3.3341   -1.6388   -0.1255 H   0  0  0  0  0  0  0  0  0  0  0  0
   -2.1462   -0.6378   -1.1271 H   0  0  0  0  0  0  0  0  0  0  0  0
   -1.5399   -2.3213    1.3607 H   0  0  0  0  0  0  0  0  0  0  0  0
    2.0533   -2.1467    0.0673 H   0  0  0  0  0  0  0  0  0  0  0  0
    0.7114   -2.9992   -0.7087 H   0  0  0  0  0  0  0  0  0  0  0  0
    0.9474   -3.1298    1.0348 H   0  0  0  0  0  0  0  0  0  0  0  0
   -0.1259    0.5202    1.6733 H   0  0  0  0  0  0  0  0  0  0  0  0
    2.0673   -1.4935    2.3936 H   0  0  0  0  0  0  0  0  0  0  0  0
    1.6159    0.0656    3.2690 H   0  0  0  0  0  0  0  0  0  0  0  0
  1  2  3  0
  1  6  1  0
  2  3  1  0
  3  4  1  0
  3  5  1  0
  3  7  1  0
  4  8  1  0
  4  9  1  0
  4 10  1  0
  5 11  1  0
  5 12  1  0
  5 13  1  0
 14 15  2  3
 14 20  1  0
 14 21  1  0
 15 16  1  0
 15 22  1  0
 16 17  1  0
 16 18  1  0
 17 23  1  0
 17 24  1  0
 17 25  1  0
 18 19  2  3
 18 26  1  0
 19 27  1  0
 19 28  1  0
M  RAD  1  16   2
M  END
>  <reaction>  (10) 
rxn_1310

>  <mol_properties>  (10) 
{"1": {"label": "*4", "atom_type": "Ct"}, "2": {"label": "*3", "atom_type": "Cs"}, "6": {"label": "*2", "atom_type": "H0"}, "14": {"label": "*0", "atom_type": "Cd"}, "15": {"label": "*1", "atom_type": "Cs"}}

>  <type>  (10) 
unop_6

>  <geom_source>  (10) 
Heuristics

$$$$

     RDKit          3D

 28 26  0  0  0  0  0  0  0  0999 V2000
   -0.0139    1.2336   -3.1209 C   0  0  0  0  0  0  0  0  0  0  0  0
   -0.0139    1.2336   -1.9228 C   0  0  0  0  0  0  0  0  0  0  0  0
   -0.0139    1.2576   -0.4590 C   0  0  0  0  0  0  0  0  0  0  0  0
   -1.2800    1.9340    0.0753 C   0  0  0  0  0  0  0  0  0  0  0  0
    1.2522    1.9340    0.0753 C   0  0  0  0  0  0  0  0  0  0  0  0
   -0.0139    1.2336   -4.1842 H   0  0  0  0  0  0  0  0  0  0  0  0
   -0.0139    0.0089   -0.0511 H   0  0  0  0  0  0  0  0  0  0  0  0
   -2.1770    1.4347   -0.2906 H   0  0  0  0  0  0  0  0  0  0  0  0
   -1.3173    2.9775   -0.2422 H   0  0  0  0  0  0  0  0  0  0  0  0
   -1.2873    1.9060    1.1664 H   0  0  0  0  0  0  0  0  0  0  0  0
    1.2896    2.9775   -0.2422 H   0  0  0  0  0  0  0  0  0  0  0  0
    2.1493    1.4346   -0.2906 H   0  0  0  0  0  0  0  0  0  0  0  0
    1.2596    1.9060    1.1664 H   0  0  0  0  0  0  0  0  0  0  0  0
   -2.4358   -0.8909    0.9351 C   0  0  0  0  0  0  0  0  0  0  0  0
   -1.2596   -1.4451    1.1804 C   0  0  0  0  0  0  0  0  0  0  0  0
   -0.0139   -1.2414    0.3573 C   0  0  0  0  0  3  0  0  0  0  0  0
    0.4812   -2.5697   -0.2084 C   0  0  0  0  0  0  0  0  0  0  0  0
    1.0101   -0.5071    1.1870 C   0  0  0  0  0  0  0  0  0  0  0  0
    2.2176   -0.9368    1.5189 C   0  0  0  0  0  0  0  0  0  0  0  0
   -3.2939   -1.0786    1.5683 H   0  0  0  0  0  0  0  0  0  0  0  0
   -2.5835   -0.2282    0.0888 H   0  0  0  0  0  0  0  0  0  0  0  0
   -1.1438   -2.1029    2.0392 H   0  0  0  0  0  0  0  0  0  0  0  0
    1.3755   -2.4289   -0.8176 H   0  0  0  0  0  0  0  0  0  0  0  0
   -0.2906   -3.0236   -0.8305 H   0  0  0  0  0  0  0  0  0  0  0  0
    0.7227   -3.2728    0.5921 H   0  0  0  0  0  0  0  0  0  0  0  0
    0.6818    0.4650    1.5455 H   0  0  0  0  0  0  0  0  0  0  0  0
    2.5996   -1.8981    1.1970 H   0  0  0  0  0  0  0  0  0  0  0  0
    2.8751   -0.3315    2.1300 H   0  0  0  0  0  0  0  0  0  0  0  0
  1  2  3  0
  1  6  1  0
  2  3  1  0
  3  4  1  0
  3  5  1  0
  3  7  1  0
  4  8  1  0
  4  9  1  0
  4 10  1  0
  5 11  1  0
  5 12  1  0
  5 13  1  0
 14 15  2  3
 14 20  1  0
 14 21  1  0
 15 16  1  0
 15 22  1  0
 16 17  1  0
 16 18  1  0
 17 23  1  0
 17 24  1  0
 17 25  1  0
 18 19  2  3
 18 26  1  0
 19 27  1  0
 19 28  1  0
M  RAD  1  16   2
M  END
>  <reaction>  (11) 
rxn_1310

>  <mol_properties>  (11) 
{"1": {"label": "*4", "atom_type": "Ct"}, "2": {"label": "*3", "atom_type": "Cs"}, "6": {"label": "*2", "atom_type": "H0"}, "14": {"label": "*0", "atom_type": "Cd"}, "15": {"label": "*1", "atom_type": "Cs"}}

>  <type>  (11) 
unop_7

>  <geom_source>  (11) 
Heuristics

$$$$

     RDKit          3D

 28 26  0  0  0  0  0  0  0  0999 V2000
   -0.0607    1.4353   -2.9622 C   0  0  0  0  0  0  0  0  0  0  0  0
   -0.0607    1.4353   -1.7642 C   0  0  0  0  0  0  0  0  0  0  0  0
   -0.0607    1.4592   -0.3004 C   0  0  0  0  0  0  0  0  0  0  0  0
   -1.3268    2.1357    0.2340 C   0  0  0  0  0  0  0  0  0  0  0  0
    1.2054    2.1356    0.2340 C   0  0  0  0  0  0  0  0  0  0  0  0
   -0.0607    1.4353   -4.0256 H   0  0  0  0  0  0  0  0  0  0  0  0
   -0.0607    0.2105    0.1075 H   0  0  0  0  0  0  0  0  0  0  0  0
   -2.2239    1.6364   -0.1319 H   0  0  0  0  0  0  0  0  0  0  0  0
   -1.3642    3.1792   -0.0835 H   0  0  0  0  0  0  0  0  0  0  0  0
   -1.3342    2.1077    1.3251 H   0  0  0  0  0  0  0  0  0  0  0  0
    1.2428    3.1791   -0.0835 H   0  0  0  0  0  0  0  0  0  0  0  0
    2.1024    1.6363   -0.1319 H   0  0  0  0  0  0  0  0  0  0  0  0
    1.2127    2.1076    1.3251 H   0  0  0  0  0  0  0  0  0  0  0  0
    2.3524   -1.1508   -0.1818 C   0  0  0  0  0  0  0  0  0  0  0  0
    1.3776   -1.4668    0.6554 C   0  0  0  0  0  0  0  0  0  0  0  0
   -0.0608   -1.0398    0.5160 C   0  0  0  0  0  3  0  0  0  0  0  0
   -0.4986   -0.2183    1.7254 C   0  0  0  0  0  0  0  0  0  0  0  0
   -0.9134   -2.2577    0.2593 C   0  0  0  0  0  0  0  0  0  0  0  0
   -1.9120   -2.6988    1.0084 C   0  0  0  0  0  0  0  0  0  0  0  0
    3.3679   -1.4919   -0.0238 H   0  0  0  0  0  0  0  0  0  0  0  0
    2.1693   -0.5370   -1.0574 H   0  0  0  0  0  0  0  0  0  0  0  0
    1.5938   -2.0867    1.5229 H   0  0  0  0  0  0  0  0  0  0  0  0
   -1.5355    0.1069    1.6257 H   0  0  0  0  0  0  0  0  0  0  0  0
    0.1309    0.6662    1.8260 H   0  0  0  0  0  0  0  0  0  0  0  0
   -0.4116   -0.7980    2.6473 H   0  0  0  0  0  0  0  0  0  0  0  0
   -0.6405   -2.8150   -0.6331 H   0  0  0  0  0  0  0  0  0  0  0  0
   -2.2276   -2.1905    1.9116 H   0  0  0  0  0  0  0  0  0  0  0  0
   -2.4570   -3.5943    0.7380 H   0  0  0  0  0  0  0  0  0  0  0  0
  1  2  3  0
  1  6  1  0
  2  3  1  0
  3  4  1  0
  3  5  1  0
  3  7  1  0
  4  8  1  0
  4  9  1  0
  4 10  1  0
  5 11  1  0
  5 12  1  0
  5 13  1  0
 14 15  2  3
 14 20  1  0
 14 21  1  0
 15 16  1  0
 15 22  1  0
 16 17  1  0
 16 18  1  0
 17 23  1  0
 17 24  1  0
 17 25  1  0
 18 19  2  3
 18 26  1  0
 19 27  1  0
 19 28  1  0
M  RAD  1  16   2
M  END
>  <reaction>  (12) 
rxn_1310

>  <mol_properties>  (12) 
{"1": {"label": "*4", "atom_type": "Ct"}, "2": {"label": "*3", "atom_type": "Cs"}, "6": {"label": "*2", "atom_type": "H0"}, "14": {"label": "*0", "atom_type": "Cd"}, "15": {"label": "*1", "atom_type": "Cs"}}

>  <type>  (12) 
unop_8

>  <geom_source>  (12) 
Heuristics

$$$$

     RDKit          3D

 28 26  0  0  0  0  0  0  0  0999 V2000
    0.1928    1.3631   -2.9300 C   0  0  0  0  0  0  0  0  0  0  0  0
    0.1928    1.3631   -1.7319 C   0  0  0  0  0  0  0  0  0  0  0  0
    0.1928    1.3870   -0.2681 C   0  0  0  0  0  0  0  0  0  0  0  0
   -1.0733    2.0635    0.2663 C   0  0  0  0  0  0  0  0  0  0  0  0
    1.4590    2.0634    0.2663 C   0  0  0  0  0  0  0  0  0  0  0  0
    0.1928    1.3631   -3.9933 H   0  0  0  0  0  0  0  0  0  0  0  0
    0.1928    0.1384    0.1398 H   0  0  0  0  0  0  0  0  0  0  0  0
   -1.9703    1.5642   -0.0997 H   0  0  0  0  0  0  0  0  0  0  0  0
   -1.1106    3.1070   -0.0513 H   0  0  0  0  0  0  0  0  0  0  0  0
   -1.0806    2.0355    1.3573 H   0  0  0  0  0  0  0  0  0  0  0  0
    1.4963    3.1070   -0.0513 H   0  0  0  0  0  0  0  0  0  0  0  0
    2.3560    1.5641   -0.0997 H   0  0  0  0  0  0  0  0  0  0  0  0
    1.4663    2.0354    1.3573 H   0  0  0  0  0  0  0  0  0  0  0  0
   -0.7776   -1.5293   -1.7336 C   0  0  0  0  0  0  0  0  0  0  0  0
   -0.5264   -1.9257   -0.4964 C   0  0  0  0  0  0  0  0  0  0  0  0
    0.1928   -1.1119    0.5482 C   0  0  0  0  0  3  0  0  0  0  0  0
    1.4559   -1.8301    1.0152 C   0  0  0  0  0  0  0  0  0  0  0  0
   -0.7700   -0.7766    1.6603 C   0  0  0  0  0  0  0  0  0  0  0  0
   -0.6552   -1.1108    2.9363 C   0  0  0  0  0  0  0  0  0  0  0  0
   -1.3012   -2.1645   -2.4369 H   0  0  0  0  0  0  0  0  0  0  0  0
   -0.4666   -0.5524   -2.0887 H   0  0  0  0  0  0  0  0  0  0  0  0
   -0.8543   -2.9105   -0.1703 H   0  0  0  0  0  0  0  0  0  0  0  0
    1.9903   -1.2406    1.7621 H   0  0  0  0  0  0  0  0  0  0  0  0
    2.1238   -2.0021    0.1708 H   0  0  0  0  0  0  0  0  0  0  0  0
    1.2167   -2.8006    1.4562 H   0  0  0  0  0  0  0  0  0  0  0  0
   -1.6446   -0.2157    1.3411 H   0  0  0  0  0  0  0  0  0  0  0  0
    0.1899   -1.6733    3.3144 H   0  0  0  0  0  0  0  0  0  0  0  0
   -1.4121   -0.8263    3.6562 H   0  0  0  0  0  0  0  0  0  0  0  0
  1  2  3  0
  1  6  1  0
  2  3  1  0
  3  4  1  0
  3  5  1  0
  3  7  1  0
  4  8  1  0
  4  9  1  0
  4 10  1  0
  5 11  1  0
  5 12  1  0
  5 13  1  0
 14 15  2  3
 14 20  1  0
 14 21  1  0
 15 16  1  0
 15 22  1  0
 16 17  1  0
 16 18  1  0
 17 23  1  0
 17 24  1  0
 17 25  1  0
 18 19  2  3
 18 26  1  0
 19 27  1  0
 19 28  1  0
M  RAD  1  16   2
M  END
>  <reaction>  (13) 
rxn_1310

>  <mol_properties>  (13) 
{"1": {"label": "*4", "atom_type": "Ct"}, "2": {"label": "*3", "atom_type": "Cs"}, "6": {"label": "*2", "atom_type": "H0"}, "14": {"label": "*0", "atom_type": "Cd"}, "15": {"label": "*1", "atom_type": "Cs"}}

>  <type>  (13) 
unop_9

>  <geom_source>  (13) 
Heuristics

$$$$

     RDKit          3D

 28 26  0  0  0  0  0  0  0  0999 V2000
   -0.0496    1.4535   -2.9092 C   0  0  0  0  0  0  0  0  0  0  0  0
   -0.0496    1.4535   -1.7111 C   0  0  0  0  0  0  0  0  0  0  0  0
   -0.0496    1.4775   -0.2473 C   0  0  0  0  0  0  0  0  0  0  0  0
   -1.3157    2.1539    0.2871 C   0  0  0  0  0  0  0  0  0  0  0  0
    1.2165    2.1539    0.2871 C   0  0  0  0  0  0  0  0  0  0  0  0
   -0.0496    1.4535   -3.9725 H   0  0  0  0  0  0  0  0  0  0  0  0
   -0.0496    0.2288    0.1606 H   0  0  0  0  0  0  0  0  0  0  0  0
   -2.2127    1.6546   -0.0789 H   0  0  0  0  0  0  0  0  0  0  0  0
   -1.3530    3.1974   -0.0305 H   0  0  0  0  0  0  0  0  0  0  0  0
   -1.3230    2.1259    1.3781 H   0  0  0  0  0  0  0  0  0  0  0  0
    1.2539    3.1974   -0.0305 H   0  0  0  0  0  0  0  0  0  0  0  0
    2.1136    1.6546   -0.0789 H   0  0  0  0  0  0  0  0  0  0  0  0
    1.2239    2.1259    1.3781 H   0  0  0  0  0  0  0  0  0  0  0  0
    1.7634   -1.3834   -1.1353 C   0  0  0  0  0  0  0  0  0  0  0  0
    1.1960   -1.6718    0.0249 C   0  0  0  0  0  0  0  0  0  0  0  0
   -0.0496   -1.0215    0.5690 C   0  0  0  0  0  3  0  0  0  0  0  0
    0.2400   -0.3314    1.8992 C   0  0  0  0  0  0  0  0  0  0  0  0
   -1.1521   -2.0492    0.6373 C   0  0  0  0  0  0  0  0  0  0  0  0
   -1.8026   -2.4435    1.7209 C   0  0  0  0  0  0  0  0  0  0  0  0
    2.6603   -1.8900   -1.4690 H   0  0  0  0  0  0  0  0  0  0  0  0
    1.3503   -0.6272   -1.7945 H   0  0  0  0  0  0  0  0  0  0  0  0
    1.6337   -2.4377    0.6617 H   0  0  0  0  0  0  0  0  0  0  0  0
   -0.6542    0.1542    2.2933 H   0  0  0  0  0  0  0  0  0  0  0  0
    1.0132    0.4260    1.7684 H   0  0  0  0  0  0  0  0  0  0  0  0
    0.5946   -1.0469    2.6448 H   0  0  0  0  0  0  0  0  0  0  0  0
   -1.4005   -2.5031   -0.3185 H   0  0  0  0  0  0  0  0  0  0  0  0
   -1.5970   -2.0327    2.7021 H   0  0  0  0  0  0  0  0  0  0  0  0
   -2.5756   -3.1992    1.6617 H   0  0  0  0  0  0  0  0  0  0  0  0
  1  2  3  0
  1  6  1  0
  2  3  1  0
  3  4  1  0
  3  5  1  0
  3  7  1  0
  4  8  1  0
  4  9  1  0
  4 10  1  0
  5 11  1  0
  5 12  1  0
  5 13  1  0
 14 15  2  3
 14 20  1  0
 14 21  1  0
 15 16  1  0
 15 22  1  0
 16 17  1  0
 16 18  1  0
 17 23  1  0
 17 24  1  0
 17 25  1  0
 18 19  2  3
 18 26  1  0
 19 27  1  0
 19 28  1  0
M  RAD  1  16   2
M  END
>  <reaction>  (14) 
rxn_1310

>  <mol_properties>  (14) 
{"1": {"label": "*4", "atom_type": "Ct"}, "2": {"label": "*3", "atom_type": "Cs"}, "6": {"label": "*2", "atom_type": "H0"}, "14": {"label": "*0", "atom_type": "Cd"}, "15": {"label": "*1", "atom_type": "Cs"}}

>  <type>  (14) 
unop_10

>  <geom_source>  (14) 
Heuristics

$$$$

     RDKit          3D

 28 26  0  0  0  0  0  0  0  0999 V2000
   -0.1194    1.2881   -3.0778 C   0  0  0  0  0  0  0  0  0  0  0  0
   -0.1194    1.2881   -1.8797 C   0  0  0  0  0  0  0  0  0  0  0  0
   -0.1194    1.3120   -0.4159 C   0  0  0  0  0  0  0  0  0  0  0  0
   -1.3855    1.9885    0.1185 C   0  0  0  0  0  0  0  0  0  0  0  0
    1.1468    1.9884    0.1185 C   0  0  0  0  0  0  0  0  0  0  0  0
   -0.1194    1.2881   -4.1411 H   0  0  0  0  0  0  0  0  0  0  0  0
   -0.1194    0.0633   -0.0080 H   0  0  0  0  0  0  0  0  0  0  0  0
   -2.2825    1.4892   -0.2474 H   0  0  0  0  0  0  0  0  0  0  0  0
   -1.4228    3.0320   -0.1990 H   0  0  0  0  0  0  0  0  0  0  0  0
   -1.3928    1.9605    1.2095 H   0  0  0  0  0  0  0  0  0  0  0  0
    1.1841    3.0319   -0.1990 H   0  0  0  0  0  0  0  0  0  0  0  0
    2.0438    1.4891   -0.2474 H   0  0  0  0  0  0  0  0  0  0  0  0
    1.1541    1.9604    1.2095 H   0  0  0  0  0  0  0  0  0  0  0  0
   -1.7439   -0.3507    2.1279 C   0  0  0  0  0  0  0  0  0  0  0  0
   -0.8386   -1.2272    1.7240 C   0  0  0  0  0  0  0  0  0  0  0  0
   -0.1194   -1.1870    0.4005 C   0  0  0  0  0  3  0  0  0  0  0  0
   -0.4008   -2.4529   -0.4043 C   0  0  0  0  0  0  0  0  0  0  0  0
    1.3466   -0.9272    0.6442 C   0  0  0  0  0  0  0  0  0  0  0  0
    2.3580   -1.7119    0.3060 C   0  0  0  0  0  0  0  0  0  0  0  0
   -2.2243   -0.4367    3.0944 H   0  0  0  0  0  0  0  0  0  0  0  0
   -2.0386    0.4865    1.5039 H   0  0  0  0  0  0  0  0  0  0  0  0
   -0.5629   -2.0541    2.3751 H   0  0  0  0  0  0  0  0  0  0  0  0
    0.1054   -2.4254   -1.3706 H   0  0  0  0  0  0  0  0  0  0  0  0
   -1.4719   -2.5554   -0.5801 H   0  0  0  0  0  0  0  0  0  0  0  0
   -0.0626   -3.3430    0.1312 H   0  0  0  0  0  0  0  0  0  0  0  0
    1.5554    0.0020    1.1682 H   0  0  0  0  0  0  0  0  0  0  0  0
    2.2140   -2.6521   -0.2126 H   0  0  0  0  0  0  0  0  0  0  0  0
    3.3787   -1.4347    0.5372 H   0  0  0  0  0  0  0  0  0  0  0  0
  1  2  3  0
  1  6  1  0
  2  3  1  0
  3  4  1  0
  3  5  1  0
  3  7  1  0
  4  8  1  0
  4  9  1  0
  4 10  1  0
  5 11  1  0
  5 12  1  0
  5 13  1  0
 14 15  2  3
 14 20  1  0
 14 21  1  0
 15 16  1  0
 15 22  1  0
 16 17  1  0
 16 18  1  0
 17 23  1  0
 17 24  1  0
 17 25  1  0
 18 19  2  3
 18 26  1  0
 19 27  1  0
 19 28  1  0
M  RAD  1  16   2
M  END
>  <reaction>  (15) 
rxn_1310

>  <mol_properties>  (15) 
{"1": {"label": "*4", "atom_type": "Ct"}, "2": {"label": "*3", "atom_type": "Cs"}, "6": {"label": "*2", "atom_type": "H0"}, "14": {"label": "*0", "atom_type": "Cd"}, "15": {"label": "*1", "atom_type": "Cs"}}

>  <type>  (15) 
unop_11

>  <geom_source>  (15) 
Heuristics

$$$$

     RDKit          3D

 28 26  0  0  0  0  0  0  0  0999 V2000
    0.1212    1.4322   -2.8642 C   0  0  0  0  0  0  0  0  0  0  0  0
    0.1212    1.4322   -1.6661 C   0  0  0  0  0  0  0  0  0  0  0  0
    0.1212    1.4561   -0.2023 C   0  0  0  0  0  0  0  0  0  0  0  0
   -1.1449    2.1326    0.3321 C   0  0  0  0  0  0  0  0  0  0  0  0
    1.3873    2.1325    0.3321 C   0  0  0  0  0  0  0  0  0  0  0  0
    0.1212    1.4322   -3.9275 H   0  0  0  0  0  0  0  0  0  0  0  0
    0.1212    0.2074    0.2056 H   0  0  0  0  0  0  0  0  0  0  0  0
   -2.0420    1.6333   -0.0339 H   0  0  0  0  0  0  0  0  0  0  0  0
   -1.1823    3.1761    0.0145 H   0  0  0  0  0  0  0  0  0  0  0  0
   -1.1522    2.1046    1.4231 H   0  0  0  0  0  0  0  0  0  0  0  0
    1.4247    3.1760    0.0145 H   0  0  0  0  0  0  0  0  0  0  0  0
    2.2844    1.6332   -0.0339 H   0  0  0  0  0  0  0  0  0  0  0  0
    1.3947    2.1045    1.4231 H   0  0  0  0  0  0  0  0  0  0  0  0
    0.0896   -1.4789   -1.8621 C   0  0  0  0  0  0  0  0  0  0  0  0
    0.1211   -1.9165   -0.6138 C   0  0  0  0  0  0  0  0  0  0  0  0
    0.1212   -1.0429    0.6140 C   0  0  0  0  0  3  0  0  0  0  0  0
    1.3797   -1.2802    1.4441 C   0  0  0  0  0  0  0  0  0  0  0  0
   -1.1650   -1.2593    1.3725 C   0  0  0  0  0  0  0  0  0  0  0  0
   -1.2882   -1.6976    2.6157 C   0  0  0  0  0  0  0  0  0  0  0  0
    0.0909   -2.1619   -2.7023 H   0  0  0  0  0  0  0  0  0  0  0  0
    0.0624   -0.4183   -2.0893 H   0  0  0  0  0  0  0  0  0  0  0  0
    0.1451   -2.9867   -0.4197 H   0  0  0  0  0  0  0  0  0  0  0  0
    1.3942   -0.6409    2.3284 H   0  0  0  0  0  0  0  0  0  0  0  0
    2.2677   -1.0646    0.8494 H   0  0  0  0  0  0  0  0  0  0  0  0
    1.4426   -2.3194    1.7753 H   0  0  0  0  0  0  0  0  0  0  0  0
   -2.0634   -1.0374    0.8025 H   0  0  0  0  0  0  0  0  0  0  0  0
   -0.4313   -1.9405    3.2324 H   0  0  0  0  0  0  0  0  0  0  0  0
   -2.2643   -1.8273    3.0658 H   0  0  0  0  0  0  0  0  0  0  0  0
  1  2  3  0
  1  6  1  0
  2  3  1  0
  3  4  1  0
  3  5  1  0
  3  7  1  0
  4  8  1  0
  4  9  1  0
  4 10  1  0
  5 11  1  0
  5 12  1  0
  5 13  1  0
 14 15  2  3
 14 20  1  0
 14 21  1  0
 15 16  1  0
 15 22  1  0
 16 17  1  0
 16 18  1  0
 17 23  1  0
 17 24  1  0
 17 25  1  0
 18 19  2  3
 18 26  1  0
 19 27  1  0
 19 28  1  0
M  RAD  1  16   2
M  END
>  <reaction>  (16) 
rxn_1310

>  <mol_properties>  (16) 
{"1": {"label": "*4", "atom_type": "Ct"}, "2": {"label": "*3", "atom_type": "Cs"}, "6": {"label": "*2", "atom_type": "H0"}, "14": {"label": "*0", "atom_type": "Cd"}, "15": {"label": "*1", "atom_type": "Cs"}}

>  <type>  (16) 
unop_12

>  <geom_source>  (16) 
Heuristics

$$$$

     RDKit          3D

 28 26  0  0  0  0  0  0  0  0999 V2000
    0.8778    0.2589   -0.1192 C   0  0  0  0  0  0  0  0  0  0  0  0
    1.2819    1.2172   -1.2466 C   0  0  0  0  0  0  0  0  0  0  0  0
   -1.6453   -1.6942   -1.3649 C   0  0  0  0  0  0  0  0  0  0  0  0
   -2.6019    0.5590   -0.7392 C   0  0  0  0  0  0  0  0  0  0  0  0
   -1.5655   -0.5114   -0.4011 C   0  0  0  0  0  3  0  0  0  0  0  0
    1.8890   -0.8422    0.1075 C   0  0  0  0  0  0  0  0  0  0  0  0
    0.5291    0.9759    1.1655 C   0  0  0  0  0  0  0  0  0  0  0  0
    3.1856   -0.6192    0.3522 C   0  0  0  0  0  0  0  0  0  0  0  0
    1.3494    1.8357    1.7809 C   0  0  0  0  0  0  0  0  0  0  0  0
   -1.7259   -0.9655    0.9885 C   0  0  0  0  0  0  0  0  0  0  0  0
   -1.8566   -1.3374    2.1279 C   0  0  0  0  0  0  0  0  0  0  0  0
   -0.2376   -0.3403   -0.5232 H   0  0  0  0  0  0  0  0  0  0  0  0
    1.4450    0.6455   -2.1847 H   0  0  0  0  0  0  0  0  0  0  0  0
    0.4680    1.9516   -1.4246 H   0  0  0  0  0  0  0  0  0  0  0  0
    2.2121    1.7704   -1.0015 H   0  0  0  0  0  0  0  0  0  0  0  0
   -1.4780   -1.3450   -2.4056 H   0  0  0  0  0  0  0  0  0  0  0  0
   -0.8566   -2.4370   -1.1193 H   0  0  0  0  0  0  0  0  0  0  0  0
   -2.6401   -2.1867   -1.3035 H   0  0  0  0  0  0  0  0  0  0  0  0
   -2.4949    1.4218   -0.0477 H   0  0  0  0  0  0  0  0  0  0  0  0
   -2.4419    0.9254   -1.7751 H   0  0  0  0  0  0  0  0  0  0  0  0
   -3.6325    0.1509   -0.6543 H   0  0  0  0  0  0  0  0  0  0  0  0
    1.5397   -1.8696    0.0695 H   0  0  0  0  0  0  0  0  0  0  0  0
   -0.4414    0.7791    1.6108 H   0  0  0  0  0  0  0  0  0  0  0  0
    3.5945    0.3835    0.3907 H   0  0  0  0  0  0  0  0  0  0  0  0
    3.8569   -1.4574    0.5078 H   0  0  0  0  0  0  0  0  0  0  0  0
    1.0358    2.3143    2.7028 H   0  0  0  0  0  0  0  0  0  0  0  0
    2.3251    2.0805    1.3784 H   0  0  0  0  0  0  0  0  0  0  0  0
   -1.9715   -1.6639    3.1280 H   0  0  0  0  0  0  0  0  0  0  0  0
  1  2  1  0
  1  6  1  0
  1  7  1  0
  1 12  1  0
  2 13  1  0
  2 14  1  0
  2 15  1  0
  3  5  1  0
  3 16  1  0
  3 17  1  0
  3 18  1  0
  4  5  1  0
  4 19  1  0
  4 20  1  0
  4 21  1  0
  5 10  1  0
  6  8  2  3
  6 22  1  0
  7  9  2  3
  7 23  1  0
  8 24  1  0
  8 25  1  0
  9 26  1  0
  9 27  1  0
 10 11  3  0
 11 28  1  0
M  RAD  1   5   2
M  END
>  <reaction>  (17) 
rxn_1310

>  <mol_properties>  (17) 
{"1": {"label": "*4", "atom_type": "Ct"}, "2": {"label": "*3", "atom_type": "Cs"}, "6": {"label": "*2", "atom_type": "H0"}, "14": {"label": "*0", "atom_type": "Cd"}, "15": {"label": "*1", "atom_type": "Cs"}}

>  <type>  (17) 
unop_13

>  <geom_source>  (17) 
AutoTST

$$$$

     RDKit          3D

 28 26  0  0  0  0  0  0  0  0999 V2000
    0.0178    1.4617   -2.8618 C   0  0  0  0  0  0  0  0  0  0  0  0
    0.0178    1.4617   -1.6637 C   0  0  0  0  0  0  0  0  0  0  0  0
    0.0178    1.4856   -0.1999 C   0  0  0  0  0  0  0  0  0  0  0  0
   -1.2483    2.1621    0.3345 C   0  0  0  0  0  0  0  0  0  0  0  0
    1.2839    2.1620    0.3345 C   0  0  0  0  0  0  0  0  0  0  0  0
    0.0178    1.4617   -3.9251 H   0  0  0  0  0  0  0  0  0  0  0  0
    0.0178    0.2370    0.2080 H   0  0  0  0  0  0  0  0  0  0  0  0
   -2.1453    1.6628   -0.0315 H   0  0  0  0  0  0  0  0  0  0  0  0
   -1.2856    3.2056    0.0169 H   0  0  0  0  0  0  0  0  0  0  0  0
   -1.2556    2.1341    1.4255 H   0  0  0  0  0  0  0  0  0  0  0  0
    1.3213    3.2056    0.0169 H   0  0  0  0  0  0  0  0  0  0  0  0
    2.1810    1.6627   -0.0315 H   0  0  0  0  0  0  0  0  0  0  0  0
    1.2913    2.1340    1.4255 H   0  0  0  0  0  0  0  0  0  0  0  0
    0.9334   -1.4563   -1.6831 C   0  0  0  0  0  0  0  0  0  0  0  0
    0.7370   -1.8272   -0.4282 C   0  0  0  0  0  0  0  0  0  0  0  0
    0.0178   -1.0133    0.6164 C   0  0  0  0  0  3  0  0  0  0  0  0
    0.9422   -0.7074    1.7917 C   0  0  0  0  0  0  0  0  0  0  0  0
   -1.2548   -1.7245    1.0048 C   0  0  0  0  0  0  0  0  0  0  0  0
   -1.5839   -2.1590    2.2114 C   0  0  0  0  0  0  0  0  0  0  0  0
    1.4592   -2.0905   -2.3857 H   0  0  0  0  0  0  0  0  0  0  0  0
    0.5750   -0.5017   -2.0536 H   0  0  0  0  0  0  0  0  0  0  0  0
    1.1065   -2.7925   -0.0887 H   0  0  0  0  0  0  0  0  0  0  0  0
    0.4330   -0.1061    2.5466 H   0  0  0  0  0  0  0  0  0  0  0  0
    1.8178   -0.1568    1.4469 H   0  0  0  0  0  0  0  0  0  0  0  0
    1.2908   -1.6267    2.2680 H   0  0  0  0  0  0  0  0  0  0  0  0
   -1.9419   -1.8947    0.1799 H   0  0  0  0  0  0  0  0  0  0  0  0
   -0.9395   -2.0243    3.0717 H   0  0  0  0  0  0  0  0  0  0  0  0
   -2.5237   -2.6688    2.3820 H   0  0  0  0  0  0  0  0  0  0  0  0
  1  2  3  0
  1  6  1  0
  2  3  1  0
  3  4  1  0
  3  5  1  0
  3  7  1  0
  4  8  1  0
  4  9  1  0
  4 10  1  0
  5 11  1  0
  5 12  1  0
  5 13  1  0
 14 15  2  3
 14 20  1  0
 14 21  1  0
 15 16  1  0
 15 22  1  0
 16 17  1  0
 16 18  1  0
 17 23  1  0
 17 24  1  0
 17 25  1  0
 18 19  2  3
 18 26  1  0
 19 27  1  0
 19 28  1  0
M  RAD  1  16   2
M  END
>  <reaction>  (18) 
rxn_1310

>  <mol_properties>  (18) 
{"1": {"label": "*4", "atom_type": "Ct"}, "2": {"label": "*3", "atom_type": "Cs"}, "6": {"label": "*2", "atom_type": "H0"}, "14": {"label": "*0", "atom_type": "Cd"}, "15": {"label": "*1", "atom_type": "Cs"}}

>  <type>  (18) 
unop_14

>  <geom_source>  (18) 
gaussian_log

$$$$
