
     RDKit          3D

 14 13  0  0  0  0  0  0  0  0999 V2000
   -0.7647   -1.2352   -0.0349 C   0  0  0  0  0  0  0  0  0  0  0  0
    0.0570   -0.0126    0.3624 C   0  0  0  0  0  0  0  0  0  0  0  0
    1.4161   -0.0194   -0.3308 C   0  0  0  0  0  0  0  0  0  0  0  0
   -0.7022    1.2765    0.0629 C   0  0  0  0  0  0  0  0  0  0  0  0
   -0.2387   -2.1618    0.2040 H   0  0  0  0  0  0  0  0  0  0  0  0
   -0.9625   -1.2316   -1.1108 H   0  0  0  0  0  0  0  0  0  0  0  0
   -1.7273   -1.2512    0.4806 H   0  0  0  0  0  0  0  0  0  0  0  0
    0.2295   -0.0590    1.4432 H   0  0  0  0  0  0  0  0  0  0  0  0
    1.2933    0.0260   -1.4168 H   0  0  0  0  0  0  0  0  0  0  0  0
    2.0206    0.8381   -0.0279 H   0  0  0  0  0  0  0  0  0  0  0  0
    1.9767   -0.9268   -0.0966 H   0  0  0  0  0  0  0  0  0  0  0  0
   -1.6639    1.3001    0.5798 H   0  0  0  0  0  0  0  0  0  0  0  0
   -0.8977    1.3664   -1.0096 H   0  0  0  0  0  0  0  0  0  0  0  0
   -0.1313    2.1545    0.3722 H   0  0  0  0  0  0  0  0  0  0  0  0
  1  2  1  0
  1  5  1  0
  1  6  1  0
  1  7  1  0
  2  3  1  0
  2  4  1  0
  2  8  1  0
  3  9  1  0
  3 10  1  0
  3 11  1  0
  4 12  1  0
  4 13  1  0
  4 14  1  0
M  END
>  <reaction>  (1) 
rxn_97

>  <mol_properties>  (1) 
{"1": {"label": "donator", "atom_type": "Cs"}, "7": {"label": "d_hydrogen", "atom_type": "H0"}}

>  <type>  (1) 
r1h

$$$$

     RDKit          3D

  3  2  0  0  0  0  0  0  0  0999 V2000
    0.0002    0.4233    0.0000 N   0  0  0  0  0  2  0  0  0  0  0  0
   -0.8051   -0.2112    0.0000 H   0  0  0  0  0  0  0  0  0  0  0  0
    0.8049   -0.2121    0.0000 H   0  0  0  0  0  0  0  0  0  0  0  0
  1  2  1  0
  1  3  1  0
M  RAD  1   1   2
M  END
>  <reaction>  (2) 
rxn_97

>  <mol_properties>  (2) 
{"0": {"label": "acceptor", "atom_type": "N3s"}}

>  <type>  (2) 
r2

$$$$

     RDKit          3D

  4  3  0  0  0  0  0  0  0  0999 V2000
    0.0006   -0.0009    0.2762 N   0  0  0  0  0  0  0  0  0  0  0  0
   -0.4188    0.8439   -0.0883 H   0  0  0  0  0  0  0  0  0  0  0  0
   -0.5215   -0.7840   -0.0936 H   0  0  0  0  0  0  0  0  0  0  0  0
    0.9397   -0.0590   -0.0943 H   0  0  0  0  0  0  0  0  0  0  0  0
  1  2  1  0
  1  3  1  0
  1  4  1  0
M  END
>  <reaction>  (3) 
rxn_97

>  <mol_properties>  (3) 
{"0": {"label": "acceptor", "atom_type": "N3s"}, "3": {"label": "a_hydrogen", "atom_type": "H0"}}

>  <type>  (3) 
r2h

$$$$

     RDKit          3D

 17 15  0  0  0  0  0  0  0  0999 V2000
    1.7658   -1.1520    0.8408 N   0  0  0  0  0  2  0  0  0  0  0  0
    2.4554   -0.6613    0.2669 H   0  0  0  0  0  0  0  0  0  0  0  0
    1.8193   -0.6788    1.7456 H   0  0  0  0  0  0  0  0  0  0  0  0
   -0.1349    0.1307   -1.5727 C   0  0  0  0  0  0  0  0  0  0  0  0
   -0.3272    0.1206   -0.0714 C   0  0  0  0  0  0  0  0  0  0  0  0
   -0.2608    1.4971    0.5543 C   0  0  0  0  0  0  0  0  0  0  0  0
   -1.5256   -0.6891    0.3750 C   0  0  0  0  0  0  0  0  0  0  0  0
    0.7775    0.6608   -1.8540 H   0  0  0  0  0  0  0  0  0  0  0  0
   -0.9751    0.6344   -2.0638 H   0  0  0  0  0  0  0  0  0  0  0  0
   -0.0765   -0.8844   -1.9693 H   0  0  0  0  0  0  0  0  0  0  0  0
    0.6400   -0.5267    0.3624 H   0  0  0  0  0  0  0  0  0  0  0  0
   -1.0988    2.1151    0.2129 H   0  0  0  0  0  0  0  0  0  0  0  0
   -0.3150    1.4424    1.6435 H   0  0  0  0  0  0  0  0  0  0  0  0
    0.6621    2.0139    0.2832 H   0  0  0  0  0  0  0  0  0  0  0  0
   -1.4798   -1.7069   -0.0151 H   0  0  0  0  0  0  0  0  0  0  0  0
   -2.4534   -0.2303    0.0146 H   0  0  0  0  0  0  0  0  0  0  0  0
   -1.5833   -0.7455    1.4636 H   0  0  0  0  0  0  0  0  0  0  0  0
  1  2  1  0
  1  3  1  0
  4  5  1  0
  4  8  1  0
  4  9  1  0
  4 10  1  0
  5  6  1  0
  5  7  1  0
  5 11  1  0
  6 12  1  0
  6 13  1  0
  6 14  1  0
  7 15  1  0
  7 16  1  0
  7 17  1  0
M  RAD  1   1   2
M  END
>  <reaction>  (4) 
rxn_97

>  <mol_properties>  (4) 
{"0": {"label": "*3", "atom_type": "N3s"}, "1": {"label": "*4", "atom_type": "H0"}, "3": {"label": "*0", "atom_type": "Cs"}, "4": {"label": "*1", "atom_type": "Cs"}, "10": {"label": "*2", "atom_type": "H0"}}

>  <type>  (4) 
ts

$$$$

     RDKit          3D

 17 15  0  0  0  0  0  0  0  0999 V2000
    1.9039   -1.0188    0.6804 N   0  0  0  0  0  0  0  0  0  0  0  0
    2.4214   -0.3483    1.2329 H   0  0  0  0  0  0  0  0  0  0  0  0
    1.2036   -1.3119    1.3485 H   0  0  0  0  0  0  0  0  0  0  0  0
   -0.2186    0.1127   -1.6234 C   0  0  0  0  0  0  0  0  0  0  0  0
   -0.2186    0.1127   -0.0977 C   0  0  0  0  0  3  0  0  0  0  0  0
   -0.2186    1.5374    0.4484 C   0  0  0  0  0  0  0  0  0  0  0  0
   -1.4014   -0.6813    0.4484 C   0  0  0  0  0  0  0  0  0  0  0  0
    0.6421    0.6550   -2.0204 H   0  0  0  0  0  0  0  0  0  0  0  0
   -1.1226    0.5947   -2.0072 H   0  0  0  0  0  0  0  0  0  0  0  0
   -0.1892   -0.9041   -2.0204 H   0  0  0  0  0  0  0  0  0  0  0  0
    0.8851   -0.4756    0.3069 H   0  0  0  0  0  0  0  0  0  0  0  0
   -1.1226    2.0682    0.1358 H   0  0  0  0  0  0  0  0  0  0  0  0
   -0.1891    1.5442    1.5400 H   0  0  0  0  0  0  0  0  0  0  0  0
    0.6420    2.1022    0.0841 H   0  0  0  0  0  0  0  0  0  0  0  0
   -1.3908   -1.7107    0.0840 H   0  0  0  0  0  0  0  0  0  0  0  0
   -2.3460   -0.2266    0.1359 H   0  0  0  0  0  0  0  0  0  0  0  0
   -1.3905   -0.7098    1.5400 H   0  0  0  0  0  0  0  0  0  0  0  0
  1  2  1  0
  1  3  1  0
  1 11  1  0
  4  5  1  0
  4  8  1  0
  4  9  1  0
  4 10  1  0
  5  6  1  0
  5  7  1  0
  6 12  1  0
  6 13  1  0
  6 14  1  0
  7 15  1  0
  7 16  1  0
  7 17  1  0
M  RAD  1   5   2
M  END
>  <reaction>  (5) 
rxn_97

>  <mol_properties>  (5) 
{"0": {"label": "*3", "atom_type": "N3s"}, "1": {"label": "*4", "atom_type": "H0"}, "3": {"label": "*0", "atom_type": "Cs"}, "4": {"label": "*1", "atom_type": "Cs"}, "10": {"label": "*2", "atom_type": "H0"}}

>  <type>  (5) 
unop_1

>  <geom_source>  (5) 
Heuristics

$$$$

     RDKit          3D

 17 15  0  0  0  0  0  0  0  0999 V2000
    1.8943   -1.0257    0.6972 N   0  0  0  0  0  0  0  0  0  0  0  0
    2.6035   -0.8574   -0.0036 H   0  0  0  0  0  0  0  0  0  0  0  0
    1.7060   -0.3052    1.3813 H   0  0  0  0  0  0  0  0  0  0  0  0
   -0.2282    0.1058   -1.6065 C   0  0  0  0  0  0  0  0  0  0  0  0
   -0.2282    0.1058   -0.0808 C   0  0  0  0  0  3  0  0  0  0  0  0
   -0.2282    1.5304    0.4652 C   0  0  0  0  0  0  0  0  0  0  0  0
   -1.4110   -0.6883    0.4652 C   0  0  0  0  0  0  0  0  0  0  0  0
    0.6325    0.6481   -2.0036 H   0  0  0  0  0  0  0  0  0  0  0  0
   -1.1322    0.5877   -1.9903 H   0  0  0  0  0  0  0  0  0  0  0  0
   -0.1987   -0.9111   -2.0036 H   0  0  0  0  0  0  0  0  0  0  0  0
    0.8755   -0.4826    0.3238 H   0  0  0  0  0  0  0  0  0  0  0  0
   -1.1322    2.0613    0.1526 H   0  0  0  0  0  0  0  0  0  0  0  0
   -0.1987    1.5372    1.5568 H   0  0  0  0  0  0  0  0  0  0  0  0
    0.6325    2.0953    0.1010 H   0  0  0  0  0  0  0  0  0  0  0  0
   -1.4003   -1.7177    0.1008 H   0  0  0  0  0  0  0  0  0  0  0  0
   -2.3556   -0.2335    0.1527 H   0  0  0  0  0  0  0  0  0  0  0  0
   -1.4001   -0.7167    1.5568 H   0  0  0  0  0  0  0  0  0  0  0  0
  1  2  1  0
  1  3  1  0
  1 11  1  0
  4  5  1  0
  4  8  1  0
  4  9  1  0
  4 10  1  0
  5  6  1  0
  5  7  1  0
  6 12  1  0
  6 13  1  0
  6 14  1  0
  7 15  1  0
  7 16  1  0
  7 17  1  0
M  RAD  1   5   2
M  END
>  <reaction>  (6) 
rxn_97

>  <mol_properties>  (6) 
{"0": {"label": "*3", "atom_type": "N3s"}, "1": {"label": "*4", "atom_type": "H0"}, "3": {"label": "*0", "atom_type": "Cs"}, "4": {"label": "*1", "atom_type": "Cs"}, "10": {"label": "*2", "atom_type": "H0"}}

>  <type>  (6) 
unop_2

>  <geom_source>  (6) 
Heuristics

$$$$

     RDKit          3D

 17 15  0  0  0  0  0  0  0  0999 V2000
    1.9053   -1.0093    0.6789 N   0  0  0  0  0  0  0  0  0  0  0  0
    2.1608   -0.5992    1.5671 H   0  0  0  0  0  0  0  0  0  0  0  0
    1.3658   -1.7391    1.1249 H   0  0  0  0  0  0  0  0  0  0  0  0
   -0.2173    0.1222   -1.6249 C   0  0  0  0  0  0  0  0  0  0  0  0
   -0.2173    0.1222   -0.0992 C   0  0  0  0  0  3  0  0  0  0  0  0
   -0.2173    1.5469    0.4469 C   0  0  0  0  0  0  0  0  0  0  0  0
   -1.4001   -0.6718    0.4468 C   0  0  0  0  0  0  0  0  0  0  0  0
    0.6435    0.6645   -2.0220 H   0  0  0  0  0  0  0  0  0  0  0  0
   -1.1212    0.6042   -2.0087 H   0  0  0  0  0  0  0  0  0  0  0  0
   -0.1878   -0.8946   -2.0220 H   0  0  0  0  0  0  0  0  0  0  0  0
    0.8864   -0.4662    0.3054 H   0  0  0  0  0  0  0  0  0  0  0  0
   -1.1213    2.0777    0.1342 H   0  0  0  0  0  0  0  0  0  0  0  0
   -0.1877    1.5537    1.5385 H   0  0  0  0  0  0  0  0  0  0  0  0
    0.6434    2.1117    0.0826 H   0  0  0  0  0  0  0  0  0  0  0  0
   -1.3894   -1.7012    0.0825 H   0  0  0  0  0  0  0  0  0  0  0  0
   -2.3447   -0.2171    0.1344 H   0  0  0  0  0  0  0  0  0  0  0  0
   -1.3892   -0.7003    1.5384 H   0  0  0  0  0  0  0  0  0  0  0  0
  1  2  1  0
  1  3  1  0
  1 11  1  0
  4  5  1  0
  4  8  1  0
  4  9  1  0
  4 10  1  0
  5  6  1  0
  5  7  1  0
  6 12  1  0
  6 13  1  0
  6 14  1  0
  7 15  1  0
  7 16  1  0
  7 17  1  0
M  RAD  1   5   2
M  END
>  <reaction>  (7) 
rxn_97

>  <mol_properties>  (7) 
{"0": {"label": "*3", "atom_type": "N3s"}, "1": {"label": "*4", "atom_type": "H0"}, "3": {"label": "*0", "atom_type": "Cs"}, "4": {"label": "*1", "atom_type": "Cs"}, "10": {"label": "*2", "atom_type": "H0"}}

>  <type>  (7) 
unop_3

>  <geom_source>  (7) 
Heuristics

$$$$

     RDKit          3D

 17 15  0  0  0  0  0  0  0  0999 V2000
    1.8893   -1.0071    0.7021 N   0  0  0  0  0  0  0  0  0  0  0  0
    1.8829   -1.9501    0.3370 H   0  0  0  0  0  0  0  0  0  0  0  0
    2.7879   -0.5434    0.6960 H   0  0  0  0  0  0  0  0  0  0  0  0
   -0.2333    0.1244   -1.6017 C   0  0  0  0  0  0  0  0  0  0  0  0
   -0.2333    0.1244   -0.0760 C   0  0  0  0  0  3  0  0  0  0  0  0
   -0.2333    1.5490    0.4701 C   0  0  0  0  0  0  0  0  0  0  0  0
   -1.4161   -0.6697    0.4700 C   0  0  0  0  0  0  0  0  0  0  0  0
    0.6275    0.6667   -1.9988 H   0  0  0  0  0  0  0  0  0  0  0  0
   -1.1372    0.6064   -1.9855 H   0  0  0  0  0  0  0  0  0  0  0  0
   -0.2038   -0.8925   -1.9988 H   0  0  0  0  0  0  0  0  0  0  0  0
    0.8704   -0.4640    0.3286 H   0  0  0  0  0  0  0  0  0  0  0  0
   -1.1373    2.0799    0.1574 H   0  0  0  0  0  0  0  0  0  0  0  0
   -0.2037    1.5558    1.5617 H   0  0  0  0  0  0  0  0  0  0  0  0
    0.6274    2.1139    0.1058 H   0  0  0  0  0  0  0  0  0  0  0  0
   -1.4054   -1.6991    0.1057 H   0  0  0  0  0  0  0  0  0  0  0  0
   -2.3607   -0.2149    0.1576 H   0  0  0  0  0  0  0  0  0  0  0  0
   -1.4052   -0.6981    1.5616 H   0  0  0  0  0  0  0  0  0  0  0  0
  1  2  1  0
  1  3  1  0
  1 11  1  0
  4  5  1  0
  4  8  1  0
  4  9  1  0
  4 10  1  0
  5  6  1  0
  5  7  1  0
  6 12  1  0
  6 13  1  0
  6 14  1  0
  7 15  1  0
  7 16  1  0
  7 17  1  0
M  RAD  1   5   2
M  END
>  <reaction>  (8) 
rxn_97

>  <mol_properties>  (8) 
{"0": {"label": "*3", "atom_type": "N3s"}, "1": {"label": "*4", "atom_type": "H0"}, "3": {"label": "*0", "atom_type": "Cs"}, "4": {"label": "*1", "atom_type": "Cs"}, "10": {"label": "*2", "atom_type": "H0"}}

>  <type>  (8) 
unop_4

>  <geom_source>  (8) 
Heuristics

$$$$

     RDKit          3D

 17 15  0  0  0  0  0  0  0  0999 V2000
    1.9009   -1.0000    0.6828 N   0  0  0  0  0  0  0  0  0  0  0  0
    1.8946   -0.9966    1.6940 H   0  0  0  0  0  0  0  0  0  0  0  0
    1.9449   -2.0097    0.7157 H   0  0  0  0  0  0  0  0  0  0  0  0
   -0.2216    0.1316   -1.6210 C   0  0  0  0  0  0  0  0  0  0  0  0
   -0.2216    0.1316   -0.0953 C   0  0  0  0  0  3  0  0  0  0  0  0
   -0.2216    1.5562    0.4508 C   0  0  0  0  0  0  0  0  0  0  0  0
   -1.4044   -0.6625    0.4508 C   0  0  0  0  0  0  0  0  0  0  0  0
    0.6391    0.6738   -2.0180 H   0  0  0  0  0  0  0  0  0  0  0  0
   -1.1256    0.6135   -2.0048 H   0  0  0  0  0  0  0  0  0  0  0  0
   -0.1922   -0.8853   -2.0180 H   0  0  0  0  0  0  0  0  0  0  0  0
    0.8821   -0.4568    0.3093 H   0  0  0  0  0  0  0  0  0  0  0  0
   -1.1256    2.0870    0.1382 H   0  0  0  0  0  0  0  0  0  0  0  0
   -0.1921    1.5630    1.5424 H   0  0  0  0  0  0  0  0  0  0  0  0
    0.6391    2.1211    0.0865 H   0  0  0  0  0  0  0  0  0  0  0  0
   -1.3938   -1.6919    0.0864 H   0  0  0  0  0  0  0  0  0  0  0  0
   -2.3490   -0.2077    0.1383 H   0  0  0  0  0  0  0  0  0  0  0  0
   -1.3935   -0.6909    1.5424 H   0  0  0  0  0  0  0  0  0  0  0  0
  1  2  1  0
  1  3  1  0
  1 11  1  0
  4  5  1  0
  4  8  1  0
  4  9  1  0
  4 10  1  0
  5  6  1  0
  5  7  1  0
  6 12  1  0
  6 13  1  0
  6 14  1  0
  7 15  1  0
  7 16  1  0
  7 17  1  0
M  RAD  1   5   2
M  END
>  <reaction>  (9) 
rxn_97

>  <mol_properties>  (9) 
{"0": {"label": "*3", "atom_type": "N3s"}, "1": {"label": "*4", "atom_type": "H0"}, "3": {"label": "*0", "atom_type": "Cs"}, "4": {"label": "*1", "atom_type": "Cs"}, "10": {"label": "*2", "atom_type": "H0"}}

>  <type>  (9) 
unop_5

>  <geom_source>  (9) 
Heuristics

$$$$

     RDKit          3D

 17 15  0  0  0  0  0  0  0  0999 V2000
    1.8906   -1.0020    0.6979 N   0  0  0  0  0  0  0  0  0  0  0  0
    1.6925   -1.9892    0.7916 H   0  0  0  0  0  0  0  0  0  0  0  0
    2.8811   -0.8744    0.5389 H   0  0  0  0  0  0  0  0  0  0  0  0
   -0.2319    0.1296   -1.6059 C   0  0  0  0  0  0  0  0  0  0  0  0
   -0.2319    0.1296   -0.0802 C   0  0  0  0  0  3  0  0  0  0  0  0
   -0.2319    1.5542    0.4659 C   0  0  0  0  0  0  0  0  0  0  0  0
   -1.4147   -0.6645    0.4659 C   0  0  0  0  0  0  0  0  0  0  0  0
    0.6288    0.6718   -2.0029 H   0  0  0  0  0  0  0  0  0  0  0  0
   -1.1359    0.6115   -1.9897 H   0  0  0  0  0  0  0  0  0  0  0  0
   -0.2024   -0.8873   -2.0029 H   0  0  0  0  0  0  0  0  0  0  0  0
    0.8718   -0.4588    0.3244 H   0  0  0  0  0  0  0  0  0  0  0  0
   -1.1359    2.0850    0.1533 H   0  0  0  0  0  0  0  0  0  0  0  0
   -0.2024    1.5610    1.5575 H   0  0  0  0  0  0  0  0  0  0  0  0
    0.6288    2.1191    0.1016 H   0  0  0  0  0  0  0  0  0  0  0  0
   -1.4040   -1.6939    0.1015 H   0  0  0  0  0  0  0  0  0  0  0  0
   -2.3593   -0.2097    0.1534 H   0  0  0  0  0  0  0  0  0  0  0  0
   -1.4038   -0.6929    1.5575 H   0  0  0  0  0  0  0  0  0  0  0  0
  1  2  1  0
  1  3  1  0
  1 11  1  0
  4  5  1  0
  4  8  1  0
  4  9  1  0
  4 10  1  0
  5  6  1  0
  5  7  1  0
  6 12  1  0
  6 13  1  0
  6 14  1  0
  7 15  1  0
  7 16  1  0
  7 17  1  0
M  RAD  1   5   2
M  END
>  <reaction>  (10) 
rxn_97

>  <mol_properties>  (10) 
{"0": {"label": "*3", "atom_type": "N3s"}, "1": {"label": "*4", "atom_type": "H0"}, "3": {"label": "*0", "atom_type": "Cs"}, "4": {"label": "*1", "atom_type": "Cs"}, "10": {"label": "*2", "atom_type": "H0"}}

>  <type>  (10) 
unop_6

>  <geom_source>  (10) 
Heuristics

$$$$

     RDKit          3D

 17 15  0  0  0  0  0  0  0  0999 V2000
    1.8922   -0.9993    0.6929 N   0  0  0  0  0  0  0  0  0  0  0  0
    1.6239   -1.8027    1.2453 H   0  0  0  0  0  0  0  0  0  0  0  0
    2.8397   -1.2503    0.4443 H   0  0  0  0  0  0  0  0  0  0  0  0
   -0.2304    0.1322   -1.6109 C   0  0  0  0  0  0  0  0  0  0  0  0
   -0.2304    0.1322   -0.0852 C   0  0  0  0  0  3  0  0  0  0  0  0
   -0.2304    1.5569    0.4609 C   0  0  0  0  0  0  0  0  0  0  0  0
   -1.4132   -0.6619    0.4609 C   0  0  0  0  0  0  0  0  0  0  0  0
    0.6304    0.6745   -2.0080 H   0  0  0  0  0  0  0  0  0  0  0  0
   -1.1343    0.6142   -1.9947 H   0  0  0  0  0  0  0  0  0  0  0  0
   -0.2009   -0.8846   -2.0079 H   0  0  0  0  0  0  0  0  0  0  0  0
    0.8733   -0.4562    0.3194 H   0  0  0  0  0  0  0  0  0  0  0  0
   -1.1344    2.0877    0.1482 H   0  0  0  0  0  0  0  0  0  0  0  0
   -0.2008    1.5637    1.5525 H   0  0  0  0  0  0  0  0  0  0  0  0
    0.6303    2.1217    0.0966 H   0  0  0  0  0  0  0  0  0  0  0  0
   -1.4025   -1.6912    0.0965 H   0  0  0  0  0  0  0  0  0  0  0  0
   -2.3578   -0.2071    0.1484 H   0  0  0  0  0  0  0  0  0  0  0  0
   -1.4023   -0.6903    1.5525 H   0  0  0  0  0  0  0  0  0  0  0  0
  1  2  1  0
  1  3  1  0
  1 11  1  0
  4  5  1  0
  4  8  1  0
  4  9  1  0
  4 10  1  0
  5  6  1  0
  5  7  1  0
  6 12  1  0
  6 13  1  0
  6 14  1  0
  7 15  1  0
  7 16  1  0
  7 17  1  0
M  RAD  1   5   2
M  END
>  <reaction>  (11) 
rxn_97

>  <mol_properties>  (11) 
{"0": {"label": "*3", "atom_type": "N3s"}, "1": {"label": "*4", "atom_type": "H0"}, "3": {"label": "*0", "atom_type": "Cs"}, "4": {"label": "*1", "atom_type": "Cs"}, "10": {"label": "*2", "atom_type": "H0"}}

>  <type>  (11) 
unop_7

>  <geom_source>  (11) 
Heuristics

$$$$

     RDKit          3D

 17 15  0  0  0  0  0  0  0  0999 V2000
    1.9007   -1.0245    0.6854 N   0  0  0  0  0  0  0  0  0  0  0  0
    2.6100   -0.3098    0.7791 H   0  0  0  0  0  0  0  0  0  0  0  0
    1.2392   -0.9392    1.4454 H   0  0  0  0  0  0  0  0  0  0  0  0
   -0.2218    0.1070   -1.6184 C   0  0  0  0  0  0  0  0  0  0  0  0
   -0.2218    0.1070   -0.0927 C   0  0  0  0  0  3  0  0  0  0  0  0
   -0.2218    1.5316    0.4534 C   0  0  0  0  0  0  0  0  0  0  0  0
   -1.4046   -0.6871    0.4534 C   0  0  0  0  0  0  0  0  0  0  0  0
    0.6389    0.6493   -2.0154 H   0  0  0  0  0  0  0  0  0  0  0  0
   -1.1257    0.5890   -2.0022 H   0  0  0  0  0  0  0  0  0  0  0  0
   -0.1923   -0.9099   -2.0154 H   0  0  0  0  0  0  0  0  0  0  0  0
    0.8819   -0.4814    0.3119 H   0  0  0  0  0  0  0  0  0  0  0  0
   -1.1258    2.0625    0.1408 H   0  0  0  0  0  0  0  0  0  0  0  0
   -0.1922    1.5384    1.5450 H   0  0  0  0  0  0  0  0  0  0  0  0
    0.6389    2.0965    0.0891 H   0  0  0  0  0  0  0  0  0  0  0  0
   -1.3939   -1.7165    0.0890 H   0  0  0  0  0  0  0  0  0  0  0  0
   -2.3492   -0.2323    0.1409 H   0  0  0  0  0  0  0  0  0  0  0  0
   -1.3937   -0.7155    1.5450 H   0  0  0  0  0  0  0  0  0  0  0  0
  1  2  1  0
  1  3  1  0
  1 11  1  0
  4  5  1  0
  4  8  1  0
  4  9  1  0
  4 10  1  0
  5  6  1  0
  5  7  1  0
  6 12  1  0
  6 13  1  0
  6 14  1  0
  7 15  1  0
  7 16  1  0
  7 17  1  0
M  RAD  1   5   2
M  END
>  <reaction>  (12) 
rxn_97

>  <mol_properties>  (12) 
{"0": {"label": "*3", "atom_type": "N3s"}, "1": {"label": "*4", "atom_type": "H0"}, "3": {"label": "*0", "atom_type": "Cs"}, "4": {"label": "*1", "atom_type": "Cs"}, "10": {"label": "*2", "atom_type": "H0"}}

>  <type>  (12) 
unop_8

>  <geom_source>  (12) 
Heuristics

$$$$

     RDKit          3D

 17 15  0  0  0  0  0  0  0  0999 V2000
    1.8890   -1.0145    0.7036 N   0  0  0  0  0  0  0  0  0  0  0  0
    2.1446   -1.6971    0.0027 H   0  0  0  0  0  0  0  0  0  0  0  0
    2.5411   -0.2725    0.9202 H   0  0  0  0  0  0  0  0  0  0  0  0
   -0.2335    0.1171   -1.6002 C   0  0  0  0  0  0  0  0  0  0  0  0
   -0.2335    0.1171   -0.0745 C   0  0  0  0  0  3  0  0  0  0  0  0
   -0.2335    1.5417    0.4716 C   0  0  0  0  0  0  0  0  0  0  0  0
   -1.4163   -0.6770    0.4716 C   0  0  0  0  0  0  0  0  0  0  0  0
    0.6273    0.6593   -1.9972 H   0  0  0  0  0  0  0  0  0  0  0  0
   -1.1374    0.5990   -1.9840 H   0  0  0  0  0  0  0  0  0  0  0  0
   -0.2040   -0.8998   -1.9972 H   0  0  0  0  0  0  0  0  0  0  0  0
    0.8702   -0.4713    0.3301 H   0  0  0  0  0  0  0  0  0  0  0  0
   -1.1375    2.0725    0.1590 H   0  0  0  0  0  0  0  0  0  0  0  0
   -0.2039    1.5485    1.5632 H   0  0  0  0  0  0  0  0  0  0  0  0
    0.6272    2.1066    0.1073 H   0  0  0  0  0  0  0  0  0  0  0  0
   -1.4056   -1.7064    0.1072 H   0  0  0  0  0  0  0  0  0  0  0  0
   -2.3609   -0.2222    0.1591 H   0  0  0  0  0  0  0  0  0  0  0  0
   -1.4054   -0.7054    1.5632 H   0  0  0  0  0  0  0  0  0  0  0  0
  1  2  1  0
  1  3  1  0
  1 11  1  0
  4  5  1  0
  4  8  1  0
  4  9  1  0
  4 10  1  0
  5  6  1  0
  5  7  1  0
  6 12  1  0
  6 13  1  0
  6 14  1  0
  7 15  1  0
  7 16  1  0
  7 17  1  0
M  RAD  1   5   2
M  END
>  <reaction>  (13) 
rxn_97

>  <mol_properties>  (13) 
{"0": {"label": "*3", "atom_type": "N3s"}, "1": {"label": "*4", "atom_type": "H0"}, "3": {"label": "*0", "atom_type": "Cs"}, "4": {"label": "*1", "atom_type": "Cs"}, "10": {"label": "*2", "atom_type": "H0"}}

>  <type>  (13) 
unop_9

>  <geom_source>  (13) 
Heuristics

$$$$

     RDKit          3D

 17 15  0  0  0  0  0  0  0  0999 V2000
    1.8975   -1.0267    0.6915 N   0  0  0  0  0  0  0  0  0  0  0  0
    2.6769   -0.4958    0.3264 H   0  0  0  0  0  0  0  0  0  0  0  0
    1.4011   -0.5986    1.4615 H   0  0  0  0  0  0  0  0  0  0  0  0
   -0.2250    0.1048   -1.6123 C   0  0  0  0  0  0  0  0  0  0  0  0
   -0.2250    0.1048   -0.0866 C   0  0  0  0  0  3  0  0  0  0  0  0
   -0.2250    1.5295    0.4595 C   0  0  0  0  0  0  0  0  0  0  0  0
   -1.4078   -0.6892    0.4595 C   0  0  0  0  0  0  0  0  0  0  0  0
    0.6357    0.6471   -2.0093 H   0  0  0  0  0  0  0  0  0  0  0  0
   -1.1289    0.5868   -1.9961 H   0  0  0  0  0  0  0  0  0  0  0  0
   -0.1955   -0.9120   -2.0093 H   0  0  0  0  0  0  0  0  0  0  0  0
    0.8787   -0.4835    0.3180 H   0  0  0  0  0  0  0  0  0  0  0  0
   -1.1290    2.0603    0.1469 H   0  0  0  0  0  0  0  0  0  0  0  0
   -0.1954    1.5363    1.5511 H   0  0  0  0  0  0  0  0  0  0  0  0
    0.6357    2.0943    0.0952 H   0  0  0  0  0  0  0  0  0  0  0  0
   -1.3971   -1.7186    0.0951 H   0  0  0  0  0  0  0  0  0  0  0  0
   -2.3524   -0.2345    0.1470 H   0  0  0  0  0  0  0  0  0  0  0  0
   -1.3969   -0.7177    1.5511 H   0  0  0  0  0  0  0  0  0  0  0  0
  1  2  1  0
  1  3  1  0
  1 11  1  0
  4  5  1  0
  4  8  1  0
  4  9  1  0
  4 10  1  0
  5  6  1  0
  5  7  1  0
  6 12  1  0
  6 13  1  0
  6 14  1  0
  7 15  1  0
  7 16  1  0
  7 17  1  0
M  RAD  1   5   2
M  END
>  <reaction>  (14) 
rxn_97

>  <mol_properties>  (14) 
{"0": {"label": "*3", "atom_type": "N3s"}, "1": {"label": "*4", "atom_type": "H0"}, "3": {"label": "*0", "atom_type": "Cs"}, "4": {"label": "*1", "atom_type": "Cs"}, "10": {"label": "*2", "atom_type": "H0"}}

>  <type>  (14) 
unop_10

>  <geom_source>  (14) 
Heuristics

$$$$

     RDKit          3D

 17 15  0  0  0  0  0  0  0  0999 V2000
    1.8947   -0.9982    0.6882 N   0  0  0  0  0  0  0  0  0  0  0  0
    1.6966   -1.4390    1.5765 H   0  0  0  0  0  0  0  0  0  0  0  0
    2.5860   -1.6966    0.4496 H   0  0  0  0  0  0  0  0  0  0  0  0
   -0.2278    0.1334   -1.6156 C   0  0  0  0  0  0  0  0  0  0  0  0
   -0.2278    0.1334   -0.0899 C   0  0  0  0  0  3  0  0  0  0  0  0
   -0.2278    1.5580    0.4562 C   0  0  0  0  0  0  0  0  0  0  0  0
   -1.4106   -0.6607    0.4562 C   0  0  0  0  0  0  0  0  0  0  0  0
    0.6329    0.6756   -2.0127 H   0  0  0  0  0  0  0  0  0  0  0  0
   -1.1318    0.6153   -1.9994 H   0  0  0  0  0  0  0  0  0  0  0  0
   -0.1984   -0.8835   -2.0127 H   0  0  0  0  0  0  0  0  0  0  0  0
    0.8759   -0.4550    0.3147 H   0  0  0  0  0  0  0  0  0  0  0  0
   -1.1318    2.0889    0.1435 H   0  0  0  0  0  0  0  0  0  0  0  0
   -0.1983    1.5648    1.5478 H   0  0  0  0  0  0  0  0  0  0  0  0
    0.6329    2.1229    0.0919 H   0  0  0  0  0  0  0  0  0  0  0  0
   -1.4000   -1.6901    0.0918 H   0  0  0  0  0  0  0  0  0  0  0  0
   -2.3552   -0.2059    0.1437 H   0  0  0  0  0  0  0  0  0  0  0  0
   -1.3997   -0.6891    1.5478 H   0  0  0  0  0  0  0  0  0  0  0  0
  1  2  1  0
  1  3  1  0
  1 11  1  0
  4  5  1  0
  4  8  1  0
  4  9  1  0
  4 10  1  0
  5  6  1  0
  5  7  1  0
  6 12  1  0
  6 13  1  0
  6 14  1  0
  7 15  1  0
  7 16  1  0
  7 17  1  0
M  RAD  1   5   2
M  END
>  <reaction>  (15) 
rxn_97

>  <mol_properties>  (15) 
{"0": {"label": "*3", "atom_type": "N3s"}, "1": {"label": "*4", "atom_type": "H0"}, "3": {"label": "*0", "atom_type": "Cs"}, "4": {"label": "*1", "atom_type": "Cs"}, "10": {"label": "*2", "atom_type": "H0"}}

>  <type>  (15) 
unop_11

>  <geom_source>  (15) 
Heuristics

$$$$

     RDKit          3D

 17 15  0  0  0  0  0  0  0  0999 V2000
    1.8910   -1.0215    0.7017 N   0  0  0  0  0  0  0  0  0  0  0  0
    2.4085   -1.2974   -0.1221 H   0  0  0  0  0  0  0  0  0  0  0  0
    2.1363   -0.1660    1.1818 H   0  0  0  0  0  0  0  0  0  0  0  0
   -0.2315    0.1100   -1.6021 C   0  0  0  0  0  0  0  0  0  0  0  0
   -0.2315    0.1100   -0.0764 C   0  0  0  0  0  3  0  0  0  0  0  0
   -0.2315    1.5346    0.4697 C   0  0  0  0  0  0  0  0  0  0  0  0
   -1.4143   -0.6841    0.4697 C   0  0  0  0  0  0  0  0  0  0  0  0
    0.6292    0.6523   -1.9992 H   0  0  0  0  0  0  0  0  0  0  0  0
   -1.1355    0.5920   -1.9859 H   0  0  0  0  0  0  0  0  0  0  0  0
   -0.2020   -0.9069   -1.9991 H   0  0  0  0  0  0  0  0  0  0  0  0
    0.8722   -0.4784    0.3282 H   0  0  0  0  0  0  0  0  0  0  0  0
   -1.1355    2.0655    0.1571 H   0  0  0  0  0  0  0  0  0  0  0  0
   -0.2020    1.5414    1.5613 H   0  0  0  0  0  0  0  0  0  0  0  0
    0.6292    2.0995    0.1054 H   0  0  0  0  0  0  0  0  0  0  0  0
   -1.4036   -1.7135    0.1053 H   0  0  0  0  0  0  0  0  0  0  0  0
   -2.3589   -0.2293    0.1572 H   0  0  0  0  0  0  0  0  0  0  0  0
   -1.4034   -0.7125    1.5613 H   0  0  0  0  0  0  0  0  0  0  0  0
  1  2  1  0
  1  3  1  0
  1 11  1  0
  4  5  1  0
  4  8  1  0
  4  9  1  0
  4 10  1  0
  5  6  1  0
  5  7  1  0
  6 12  1  0
  6 13  1  0
  6 14  1  0
  7 15  1  0
  7 16  1  0
  7 17  1  0
M  RAD  1   5   2
M  END
>  <reaction>  (16) 
rxn_97

>  <mol_properties>  (16) 
{"0": {"label": "*3", "atom_type": "N3s"}, "1": {"label": "*4", "atom_type": "H0"}, "3": {"label": "*0", "atom_type": "Cs"}, "4": {"label": "*1", "atom_type": "Cs"}, "10": {"label": "*2", "atom_type": "H0"}}

>  <type>  (16) 
unop_12

>  <geom_source>  (16) 
Heuristics

$$$$

     RDKit          3D

 17 15  0  0  0  0  0  0  0  0999 V2000
    1.8943   -1.0257    0.6972 N   0  0  0  0  0  0  0  0  0  0  0  0
    2.6035   -0.8574   -0.0037 H   0  0  0  0  0  0  0  0  0  0  0  0
    1.7061   -0.3052    1.3813 H   0  0  0  0  0  0  0  0  0  0  0  0
   -0.2282    0.1058   -1.6065 C   0  0  0  0  0  0  0  0  0  0  0  0
   -0.2282    0.1058   -0.0808 C   0  0  0  0  0  3  0  0  0  0  0  0
   -0.2282    1.5304    0.4652 C   0  0  0  0  0  0  0  0  0  0  0  0
   -1.4110   -0.6883    0.4652 C   0  0  0  0  0  0  0  0  0  0  0  0
    0.6325    0.6481   -2.0036 H   0  0  0  0  0  0  0  0  0  0  0  0
   -1.1322    0.5877   -1.9903 H   0  0  0  0  0  0  0  0  0  0  0  0
   -0.1988   -0.9111   -2.0036 H   0  0  0  0  0  0  0  0  0  0  0  0
    0.8755   -0.4826    0.3238 H   0  0  0  0  0  0  0  0  0  0  0  0
   -1.1322    2.0613    0.1526 H   0  0  0  0  0  0  0  0  0  0  0  0
   -0.1987    1.5372    1.5568 H   0  0  0  0  0  0  0  0  0  0  0  0
    0.6325    2.0953    0.1010 H   0  0  0  0  0  0  0  0  0  0  0  0
   -1.4003   -1.7177    0.1008 H   0  0  0  0  0  0  0  0  0  0  0  0
   -2.3556   -0.2335    0.1527 H   0  0  0  0  0  0  0  0  0  0  0  0
   -1.4001   -0.7167    1.5568 H   0  0  0  0  0  0  0  0  0  0  0  0
  1  2  1  0
  1  3  1  0
  1 11  1  0
  4  5  1  0
  4  8  1  0
  4  9  1  0
  4 10  1  0
  5  6  1  0
  5  7  1  0
  6 12  1  0
  6 13  1  0
  6 14  1  0
  7 15  1  0
  7 16  1  0
  7 17  1  0
M  RAD  1   5   2
M  END
>  <reaction>  (17) 
rxn_97

>  <mol_properties>  (17) 
{"0": {"label": "*3", "atom_type": "N3s"}, "1": {"label": "*4", "atom_type": "H0"}, "3": {"label": "*0", "atom_type": "Cs"}, "4": {"label": "*1", "atom_type": "Cs"}, "10": {"label": "*2", "atom_type": "H0"}}

>  <type>  (17) 
unop_13

>  <geom_source>  (17) 
gaussian_log

$$$$
