
     RDKit          3D

 15 14  0  0  0  0  0  0  0  0999 V2000
    2.1256    0.4849   -0.6284 C   0  0  0  0  0  0  0  0  0  0  0  0
    1.1128    0.2141    0.1794 C   0  0  0  0  0  0  0  0  0  0  0  0
   -0.3017   -0.0425   -0.2513 C   0  0  0  0  0  0  0  0  0  0  0  0
   -1.2427    1.0075    0.3423 C   0  0  0  0  0  0  0  0  0  0  0  0
   -0.7381   -1.4526    0.1504 C   0  0  0  0  0  0  0  0  0  0  0  0
    3.1243    0.6602   -0.2486 H   0  0  0  0  0  0  0  0  0  0  0  0
    1.9908    0.5411   -1.7036 H   0  0  0  0  0  0  0  0  0  0  0  0
    1.2888    0.1665    1.2533 H   0  0  0  0  0  0  0  0  0  0  0  0
   -0.3426    0.0343   -1.3424 H   0  0  0  0  0  0  0  0  0  0  0  0
   -0.9570    2.0133    0.0315 H   0  0  0  0  0  0  0  0  0  0  0  0
   -1.2189    0.9728    1.4350 H   0  0  0  0  0  0  0  0  0  0  0  0
   -2.2723    0.8287    0.0254 H   0  0  0  0  0  0  0  0  0  0  0  0
   -0.6964   -1.5744    1.2363 H   0  0  0  0  0  0  0  0  0  0  0  0
   -0.0911   -2.2079   -0.2978 H   0  0  0  0  0  0  0  0  0  0  0  0
   -1.7646   -1.6461   -0.1677 H   0  0  0  0  0  0  0  0  0  0  0  0
  1  2  2  3
  1  6  1  0
  1  7  1  0
  2  3  1  0
  2  8  1  0
  3  4  1  0
  3  5  1  0
  3  9  1  0
  4 10  1  0
  4 11  1  0
  4 12  1  0
  5 13  1  0
  5 14  1  0
  5 15  1  0
M  END
>  <reaction>  (1) 
rxn_1083

>  <mol_properties>  (1) 
{"2": {"label": "donator", "atom_type": "Cs"}, "8": {"label": "d_hydrogen", "atom_type": "H0"}}

>  <type>  (1) 
r1h

$$$$

     RDKit          3D

  7  6  0  0  0  0  0  0  0  0999 V2000
   -0.6201    0.0189   -0.0017 C   0  0  0  0  0  0  0  0  0  0  0  0
    0.8589   -0.0553    0.0500 C   0  0  0  0  0  3  0  0  0  0  0  0
   -1.0738   -0.9730   -0.0559 H   0  0  0  0  0  0  0  0  0  0  0  0
   -0.9680    0.5706   -0.8872 H   0  0  0  0  0  0  0  0  0  0  0  0
   -1.0303    0.5369    0.8678 H   0  0  0  0  0  0  0  0  0  0  0  0
    1.3939   -0.8386   -0.4695 H   0  0  0  0  0  0  0  0  0  0  0  0
    1.4394    0.7404    0.4965 H   0  0  0  0  0  0  0  0  0  0  0  0
  1  2  1  0
  1  3  1  0
  1  4  1  0
  1  5  1  0
  2  6  1  0
  2  7  1  0
M  RAD  1   2   2
M  END
>  <reaction>  (2) 
rxn_1083

>  <mol_properties>  (2) 
{"1": {"label": "acceptor", "atom_type": "Cs"}}

>  <type>  (2) 
r2

$$$$

     RDKit          3D

  8  7  0  0  0  0  0  0  0  0999 V2000
    0.7610    0.0250    0.0051 C   0  0  0  0  0  0  0  0  0  0  0  0
   -0.7610   -0.0250   -0.0051 C   0  0  0  0  0  0  0  0  0  0  0  0
    1.1904   -0.9237   -0.3217 H   0  0  0  0  0  0  0  0  0  0  0  0
    1.1359    0.8041   -0.6609 H   0  0  0  0  0  0  0  0  0  0  0  0
    1.1435    0.2336    1.0058 H   0  0  0  0  0  0  0  0  0  0  0  0
   -1.1435   -0.2336   -1.0058 H   0  0  0  0  0  0  0  0  0  0  0  0
   -1.1904    0.9237    0.3216 H   0  0  0  0  0  0  0  0  0  0  0  0
   -1.1359   -0.8041    0.6609 H   0  0  0  0  0  0  0  0  0  0  0  0
  1  2  1  0
  1  3  1  0
  1  4  1  0
  1  5  1  0
  2  6  1  0
  2  7  1  0
  2  8  1  0
M  END
>  <reaction>  (3) 
rxn_1083

>  <mol_properties>  (3) 
{"0": {"label": "a_hydrogen", "atom_type": "H0"}, "2": {"label": "acceptor", "atom_type": "Cs"}}

>  <type>  (3) 
r2h

$$$$

     RDKit          3D

 22 20  0  0  0  0  0  0  0  0999 V2000
    0.1701   -2.0744   -1.0580 C   0  0  0  0  0  0  0  0  0  0  0  0
   -0.5196   -1.3742   -0.1600 C   0  0  0  0  0  0  0  0  0  0  0  0
   -0.0056   -0.3130    0.7260 C   0  0  0  0  0  0  0  0  0  0  0  0
    1.4941   -0.1174    0.7363 C   0  0  0  0  0  0  0  0  0  0  0  0
   -0.6257   -0.3221    2.1107 C   0  0  0  0  0  0  0  0  0  0  0  0
   -0.3161   -2.8149   -1.6800 H   0  0  0  0  0  0  0  0  0  0  0  0
    1.2360   -1.9423   -1.1994 H   0  0  0  0  0  0  0  0  0  0  0  0
   -1.5863   -1.5693   -0.0690 H   0  0  0  0  0  0  0  0  0  0  0  0
   -0.4473    0.7572    0.2164 H   0  0  0  0  0  0  0  0  0  0  0  0
    1.8846    0.0538   -0.2684 H   0  0  0  0  0  0  0  0  0  0  0  0
    2.0042   -0.9935    1.1492 H   0  0  0  0  0  0  0  0  0  0  0  0
    1.7607    0.7456    1.3492 H   0  0  0  0  0  0  0  0  0  0  0  0
   -0.2610   -1.1701    2.6989 H   0  0  0  0  0  0  0  0  0  0  0  0
   -1.7138   -0.3973    2.0568 H   0  0  0  0  0  0  0  0  0  0  0  0
   -0.3769    0.5925    2.6533 H   0  0  0  0  0  0  0  0  0  0  0  0
   -0.2533    1.9215   -1.7850 C   0  0  0  0  0  0  0  0  0  0  0  0
   -0.8485    2.0019   -0.4111 C   0  0  0  0  0  3  0  0  0  0  0  0
   -0.5684    2.7614   -2.4143 H   0  0  0  0  0  0  0  0  0  0  0  0
   -0.5565    1.0021   -2.2907 H   0  0  0  0  0  0  0  0  0  0  0  0
    0.8375    1.9363   -1.7460 H   0  0  0  0  0  0  0  0  0  0  0  0
   -1.9320    1.9300   -0.3533 H   0  0  0  0  0  0  0  0  0  0  0  0
   -0.4384    2.7593    0.2524 H   0  0  0  0  0  0  0  0  0  0  0  0
  1  2  2  3
  1  6  1  0
  1  7  1  0
  2  3  1  0
  2  8  1  0
  3  4  1  0
  3  5  1  0
  3  9  1  0
  4 10  1  0
  4 11  1  0
  4 12  1  0
  5 13  1  0
  5 14  1  0
  5 15  1  0
 16 17  1  0
 16 18  1  0
 16 19  1  0
 16 20  1  0
 17 21  1  0
 17 22  1  0
M  RAD  1  17   2
M  END
>  <reaction>  (4) 
rxn_1083

>  <mol_properties>  (4) 
{"1": {"label": "*0", "atom_type": "Cd"}, "2": {"label": "*1", "atom_type": "Cs"}, "8": {"label": "*2", "atom_type": "H0"}, "15": {"label": "*4", "atom_type": "Cs"}, "16": {"label": "*3", "atom_type": "Cs"}}

>  <type>  (4) 
ts

$$$$

     RDKit          3D

 22 20  0  0  0  0  0  0  0  0999 V2000
    0.1837   -1.6624   -1.6131 C   0  0  0  0  0  0  0  0  0  0  0  0
    0.1837   -1.6624   -0.2896 C   0  0  0  0  0  0  0  0  0  0  0  0
    0.1837   -0.4410    0.5824 C   0  0  0  0  0  3  0  0  0  0  0  0
    1.4430   -0.4006    1.4501 C   0  0  0  0  0  0  0  0  0  0  0  0
   -1.0756   -0.4006    1.4501 C   0  0  0  0  0  0  0  0  0  0  0  0
    0.1837   -2.5841   -2.1814 H   0  0  0  0  0  0  0  0  0  0  0  0
    0.1837   -0.7358   -2.1777 H   0  0  0  0  0  0  0  0  0  0  0  0
    0.1837   -2.6137    0.2410 H   0  0  0  0  0  0  0  0  0  0  0  0
    0.1837    0.6154   -0.1980 H   0  0  0  0  0  0  0  0  0  0  0  0
    2.3446   -0.3947    0.8359 H   0  0  0  0  0  0  0  0  0  0  0  0
    1.4876   -1.2744    2.1059 H   0  0  0  0  0  0  0  0  0  0  0  0
    1.4506    0.4906    2.0811 H   0  0  0  0  0  0  0  0  0  0  0  0
   -1.1202   -1.2744    2.1059 H   0  0  0  0  0  0  0  0  0  0  0  0
   -1.9771   -0.3947    0.8359 H   0  0  0  0  0  0  0  0  0  0  0  0
   -1.0831    0.4906    2.0811 H   0  0  0  0  0  0  0  0  0  0  0  0
   -1.0453    2.5346   -0.7337 C   0  0  0  0  0  0  0  0  0  0  0  0
    0.1837    1.6688   -0.9762 C   0  0  0  0  0  0  0  0  0  0  0  0
   -0.7937    3.5963   -0.7637 H   0  0  0  0  0  0  0  0  0  0  0  0
   -1.4890    2.3277    0.2417 H   0  0  0  0  0  0  0  0  0  0  0  0
   -1.8114    2.3552   -1.4900 H   0  0  0  0  0  0  0  0  0  0  0  0
    0.9499    1.8483   -0.2199 H   0  0  0  0  0  0  0  0  0  0  0  0
    0.6275    1.8757   -1.9517 H   0  0  0  0  0  0  0  0  0  0  0  0
  1  2  2  3
  1  6  1  0
  1  7  1  0
  2  3  1  0
  2  8  1  0
  3  4  1  0
  3  5  1  0
  4 10  1  0
  4 11  1  0
  4 12  1  0
  5 13  1  0
  5 14  1  0
  5 15  1  0
  9 17  1  0
 16 17  1  0
 16 18  1  0
 16 19  1  0
 16 20  1  0
 17 21  1  0
 17 22  1  0
M  RAD  1   3   2
M  END
>  <reaction>  (5) 
rxn_1083

>  <mol_properties>  (5) 
{"1": {"label": "*0", "atom_type": "Cd"}, "2": {"label": "*1", "atom_type": "Cs"}, "8": {"label": "*2", "atom_type": "H0"}, "15": {"label": "*4", "atom_type": "Cs"}, "16": {"label": "*3", "atom_type": "Cs"}}

>  <type>  (5) 
unop_1

>  <geom_source>  (5) 
Heuristics

$$$$

     RDKit          3D

 22 20  0  0  0  0  0  0  0  0999 V2000
    0.1104   -1.4864   -1.3719 C   0  0  0  0  0  0  0  0  0  0  0  0
    0.1104   -1.4864   -0.0484 C   0  0  0  0  0  0  0  0  0  0  0  0
    0.1104   -0.2650    0.8236 C   0  0  0  0  0  3  0  0  0  0  0  0
    1.3697   -0.2246    1.6913 C   0  0  0  0  0  0  0  0  0  0  0  0
   -1.1489   -0.2246    1.6913 C   0  0  0  0  0  0  0  0  0  0  0  0
    0.1104   -2.4081   -1.9402 H   0  0  0  0  0  0  0  0  0  0  0  0
    0.1104   -0.5599   -1.9365 H   0  0  0  0  0  0  0  0  0  0  0  0
    0.1104   -2.4377    0.4821 H   0  0  0  0  0  0  0  0  0  0  0  0
    0.1104    0.7914    0.0432 H   0  0  0  0  0  0  0  0  0  0  0  0
    2.2713   -0.2187    1.0771 H   0  0  0  0  0  0  0  0  0  0  0  0
    1.4143   -1.0984    2.3471 H   0  0  0  0  0  0  0  0  0  0  0  0
    1.3773    0.6666    2.3223 H   0  0  0  0  0  0  0  0  0  0  0  0
   -1.1935   -1.0984    2.3471 H   0  0  0  0  0  0  0  0  0  0  0  0
   -2.0504   -0.2187    1.0771 H   0  0  0  0  0  0  0  0  0  0  0  0
   -1.1564    0.6666    2.3223 H   0  0  0  0  0  0  0  0  0  0  0  0
   -0.5991    1.5588   -2.0517 C   0  0  0  0  0  0  0  0  0  0  0  0
    0.1104    1.8448   -0.7350 C   0  0  0  0  0  0  0  0  0  0  0  0
   -0.8811    2.4834   -2.5585 H   0  0  0  0  0  0  0  0  0  0  0  0
   -1.5096    0.9783   -1.8927 H   0  0  0  0  0  0  0  0  0  0  0  0
    0.0400    0.9915   -2.7307 H   0  0  0  0  0  0  0  0  0  0  0  0
   -0.5287    2.4120   -0.0560 H   0  0  0  0  0  0  0  0  0  0  0  0
    1.0209    2.4253   -0.8940 H   0  0  0  0  0  0  0  0  0  0  0  0
  1  2  2  3
  1  6  1  0
  1  7  1  0
  2  3  1  0
  2  8  1  0
  3  4  1  0
  3  5  1  0
  4 10  1  0
  4 11  1  0
  4 12  1  0
  5 13  1  0
  5 14  1  0
  5 15  1  0
  9 17  1  0
 16 17  1  0
 16 18  1  0
 16 19  1  0
 16 20  1  0
 17 21  1  0
 17 22  1  0
M  RAD  1   3   2
M  END
>  <reaction>  (6) 
rxn_1083

>  <mol_properties>  (6) 
{"1": {"label": "*0", "atom_type": "Cd"}, "2": {"label": "*1", "atom_type": "Cs"}, "8": {"label": "*2", "atom_type": "H0"}, "15": {"label": "*4", "atom_type": "Cs"}, "16": {"label": "*3", "atom_type": "Cs"}}

>  <type>  (6) 
unop_2

>  <geom_source>  (6) 
Heuristics

$$$$

     RDKit          3D

 22 20  0  0  0  0  0  0  0  0999 V2000
    0.1035   -1.7081   -1.6732 C   0  0  0  0  0  0  0  0  0  0  0  0
    0.1035   -1.7081   -0.3497 C   0  0  0  0  0  0  0  0  0  0  0  0
    0.1035   -0.4867    0.5224 C   0  0  0  0  0  3  0  0  0  0  0  0
    1.3628   -0.4462    1.3900 C   0  0  0  0  0  0  0  0  0  0  0  0
   -1.1558   -0.4462    1.3900 C   0  0  0  0  0  0  0  0  0  0  0  0
    0.1035   -2.6298   -2.2414 H   0  0  0  0  0  0  0  0  0  0  0  0
    0.1035   -0.7815   -2.2377 H   0  0  0  0  0  0  0  0  0  0  0  0
    0.1035   -2.6594    0.1809 H   0  0  0  0  0  0  0  0  0  0  0  0
    0.1035    0.5697   -0.2581 H   0  0  0  0  0  0  0  0  0  0  0  0
    2.2643   -0.4404    0.7759 H   0  0  0  0  0  0  0  0  0  0  0  0
    1.4073   -1.3201    2.0458 H   0  0  0  0  0  0  0  0  0  0  0  0
    1.3703    0.4450    2.0210 H   0  0  0  0  0  0  0  0  0  0  0  0
   -1.2004   -1.3201    2.0458 H   0  0  0  0  0  0  0  0  0  0  0  0
   -2.0574   -0.4404    0.7759 H   0  0  0  0  0  0  0  0  0  0  0  0
   -1.1634    0.4450    2.0210 H   0  0  0  0  0  0  0  0  0  0  0  0
   -0.6061    2.7976   -0.3760 C   0  0  0  0  0  0  0  0  0  0  0  0
    0.1035    1.6231   -1.0363 C   0  0  0  0  0  0  0  0  0  0  0  0
   -0.2036    3.7502   -0.7249 H   0  0  0  0  0  0  0  0  0  0  0  0
   -0.4932    2.7689    0.7092 H   0  0  0  0  0  0  0  0  0  0  0  0
   -1.6748    2.7896   -0.5973 H   0  0  0  0  0  0  0  0  0  0  0  0
    1.1722    1.6311   -0.8150 H   0  0  0  0  0  0  0  0  0  0  0  0
   -0.0094    1.6518   -2.1215 H   0  0  0  0  0  0  0  0  0  0  0  0
  1  2  2  3
  1  6  1  0
  1  7  1  0
  2  3  1  0
  2  8  1  0
  3  4  1  0
  3  5  1  0
  4 10  1  0
  4 11  1  0
  4 12  1  0
  5 13  1  0
  5 14  1  0
  5 15  1  0
  9 17  1  0
 16 17  1  0
 16 18  1  0
 16 19  1  0
 16 20  1  0
 17 21  1  0
 17 22  1  0
M  RAD  1   3   2
M  END
>  <reaction>  (7) 
rxn_1083

>  <mol_properties>  (7) 
{"1": {"label": "*0", "atom_type": "Cd"}, "2": {"label": "*1", "atom_type": "Cs"}, "8": {"label": "*2", "atom_type": "H0"}, "15": {"label": "*4", "atom_type": "Cs"}, "16": {"label": "*3", "atom_type": "Cs"}}

>  <type>  (7) 
unop_3

>  <geom_source>  (7) 
Heuristics

$$$$

     RDKit          3D

 22 20  0  0  0  0  0  0  0  0999 V2000
   -0.1895   -1.5342   -1.4382 C   0  0  0  0  0  0  0  0  0  0  0  0
   -0.1895   -1.5342   -0.1147 C   0  0  0  0  0  0  0  0  0  0  0  0
   -0.1895   -0.3128    0.7573 C   0  0  0  0  0  3  0  0  0  0  0  0
    1.0698   -0.2724    1.6250 C   0  0  0  0  0  0  0  0  0  0  0  0
   -1.4488   -0.2724    1.6250 C   0  0  0  0  0  0  0  0  0  0  0  0
   -0.1895   -2.4559   -2.0065 H   0  0  0  0  0  0  0  0  0  0  0  0
   -0.1895   -0.6076   -2.0028 H   0  0  0  0  0  0  0  0  0  0  0  0
   -0.1895   -2.4855    0.4158 H   0  0  0  0  0  0  0  0  0  0  0  0
   -0.1895    0.7436   -0.0231 H   0  0  0  0  0  0  0  0  0  0  0  0
    1.9714   -0.2665    1.0108 H   0  0  0  0  0  0  0  0  0  0  0  0
    1.1144   -1.1462    2.2808 H   0  0  0  0  0  0  0  0  0  0  0  0
    1.0774    0.6188    2.2560 H   0  0  0  0  0  0  0  0  0  0  0  0
   -1.4934   -1.1462    2.2808 H   0  0  0  0  0  0  0  0  0  0  0  0
   -2.3503   -0.2665    1.0108 H   0  0  0  0  0  0  0  0  0  0  0  0
   -1.4563    0.6188    2.2560 H   0  0  0  0  0  0  0  0  0  0  0  0
    1.0395    1.8196   -1.7002 C   0  0  0  0  0  0  0  0  0  0  0  0
   -0.1895    1.7970   -0.8013 C   0  0  0  0  0  0  0  0  0  0  0  0
    1.3545    2.8424   -1.9145 H   0  0  0  0  0  0  0  0  0  0  0  0
    0.8411    1.3283   -2.6544 H   0  0  0  0  0  0  0  0  0  0  0  0
    1.8813    1.3058   -1.2328 H   0  0  0  0  0  0  0  0  0  0  0  0
   -1.0313    2.3109   -1.2688 H   0  0  0  0  0  0  0  0  0  0  0  0
    0.0089    2.2883    0.1528 H   0  0  0  0  0  0  0  0  0  0  0  0
  1  2  2  3
  1  6  1  0
  1  7  1  0
  2  3  1  0
  2  8  1  0
  3  4  1  0
  3  5  1  0
  4 10  1  0
  4 11  1  0
  4 12  1  0
  5 13  1  0
  5 14  1  0
  5 15  1  0
  9 17  1  0
 16 17  1  0
 16 18  1  0
 16 19  1  0
 16 20  1  0
 17 21  1  0
 17 22  1  0
M  RAD  1   3   2
M  END
>  <reaction>  (8) 
rxn_1083

>  <mol_properties>  (8) 
{"1": {"label": "*0", "atom_type": "Cd"}, "2": {"label": "*1", "atom_type": "Cs"}, "8": {"label": "*2", "atom_type": "H0"}, "15": {"label": "*4", "atom_type": "Cs"}, "16": {"label": "*3", "atom_type": "Cs"}}

>  <type>  (8) 
unop_4

>  <geom_source>  (8) 
Heuristics

$$$$

     RDKit          3D

 22 20  0  0  0  0  0  0  0  0999 V2000
   -0.0000   -1.7244   -1.6933 C   0  0  0  0  0  0  0  0  0  0  0  0
   -0.0000   -1.7244   -0.3698 C   0  0  0  0  0  0  0  0  0  0  0  0
   -0.0000   -0.5030    0.5022 C   0  0  0  0  0  3  0  0  0  0  0  0
    1.2593   -0.4626    1.3699 C   0  0  0  0  0  0  0  0  0  0  0  0
   -1.2593   -0.4626    1.3699 C   0  0  0  0  0  0  0  0  0  0  0  0
   -0.0000   -2.6461   -2.2616 H   0  0  0  0  0  0  0  0  0  0  0  0
   -0.0000   -0.7979   -2.2579 H   0  0  0  0  0  0  0  0  0  0  0  0
   -0.0000   -2.6757    0.1607 H   0  0  0  0  0  0  0  0  0  0  0  0
    0.0000    0.5534   -0.2782 H   0  0  0  0  0  0  0  0  0  0  0  0
    2.1609   -0.4567    0.7557 H   0  0  0  0  0  0  0  0  0  0  0  0
    1.3039   -1.3364    2.0257 H   0  0  0  0  0  0  0  0  0  0  0  0
    1.2668    0.4286    2.0009 H   0  0  0  0  0  0  0  0  0  0  0  0
   -1.3039   -1.3364    2.0257 H   0  0  0  0  0  0  0  0  0  0  0  0
   -2.1609   -0.4567    0.7557 H   0  0  0  0  0  0  0  0  0  0  0  0
   -1.2668    0.4286    2.0009 H   0  0  0  0  0  0  0  0  0  0  0  0
    0.0000    2.8942   -0.2432 C   0  0  0  0  0  0  0  0  0  0  0  0
    0.0000    1.6068   -1.0564 C   0  0  0  0  0  0  0  0  0  0  0  0
   -0.0000    3.7721   -0.8917 H   0  0  0  0  0  0  0  0  0  0  0  0
    0.8808    2.9573    0.3982 H   0  0  0  0  0  0  0  0  0  0  0  0
   -0.8808    2.9573    0.3982 H   0  0  0  0  0  0  0  0  0  0  0  0
    0.8808    1.5437   -1.6978 H   0  0  0  0  0  0  0  0  0  0  0  0
   -0.8808    1.5437   -1.6978 H   0  0  0  0  0  0  0  0  0  0  0  0
  1  2  2  3
  1  6  1  0
  1  7  1  0
  2  3  1  0
  2  8  1  0
  3  4  1  0
  3  5  1  0
  4 10  1  0
  4 11  1  0
  4 12  1  0
  5 13  1  0
  5 14  1  0
  5 15  1  0
  9 17  1  0
 16 17  1  0
 16 18  1  0
 16 19  1  0
 16 20  1  0
 17 21  1  0
 17 22  1  0
M  RAD  1   3   2
M  END
>  <reaction>  (9) 
rxn_1083

>  <mol_properties>  (9) 
{"1": {"label": "*0", "atom_type": "Cd"}, "2": {"label": "*1", "atom_type": "Cs"}, "8": {"label": "*2", "atom_type": "H0"}, "15": {"label": "*4", "atom_type": "Cs"}, "16": {"label": "*3", "atom_type": "Cs"}}

>  <type>  (9) 
unop_5

>  <geom_source>  (9) 
Heuristics

$$$$

     RDKit          3D

 22 20  0  0  0  0  0  0  0  0999 V2000
   -0.2159   -1.5988   -1.5268 C   0  0  0  0  0  0  0  0  0  0  0  0
   -0.2159   -1.5988   -0.2033 C   0  0  0  0  0  0  0  0  0  0  0  0
   -0.2159   -0.3774    0.6687 C   0  0  0  0  0  3  0  0  0  0  0  0
    1.0434   -0.3369    1.5363 C   0  0  0  0  0  0  0  0  0  0  0  0
   -1.4753   -0.3369    1.5363 C   0  0  0  0  0  0  0  0  0  0  0  0
   -0.2159   -2.5205   -2.0951 H   0  0  0  0  0  0  0  0  0  0  0  0
   -0.2159   -0.6722   -2.0914 H   0  0  0  0  0  0  0  0  0  0  0  0
   -0.2159   -2.5501    0.3272 H   0  0  0  0  0  0  0  0  0  0  0  0
   -0.2159    0.6790   -0.1118 H   0  0  0  0  0  0  0  0  0  0  0  0
    1.9449   -0.3310    0.9222 H   0  0  0  0  0  0  0  0  0  0  0  0
    1.0879   -1.2108    2.1921 H   0  0  0  0  0  0  0  0  0  0  0  0
    1.0509    0.5543    2.1673 H   0  0  0  0  0  0  0  0  0  0  0  0
   -1.5198   -1.2108    2.1921 H   0  0  0  0  0  0  0  0  0  0  0  0
   -2.3768   -0.3310    0.9222 H   0  0  0  0  0  0  0  0  0  0  0  0
   -1.4828    0.5543    2.1673 H   0  0  0  0  0  0  0  0  0  0  0  0
    1.2032    2.1767   -1.2182 C   0  0  0  0  0  0  0  0  0  0  0  0
   -0.2159    1.7324   -0.8900 C   0  0  0  0  0  0  0  0  0  0  0  0
    1.2867    3.2649   -1.2207 H   0  0  0  0  0  0  0  0  0  0  0  0
    1.5123    1.8193   -2.2020 H   0  0  0  0  0  0  0  0  0  0  0  0
    1.9172    1.7922   -0.4877 H   0  0  0  0  0  0  0  0  0  0  0  0
   -0.9300    2.1169   -1.6204 H   0  0  0  0  0  0  0  0  0  0  0  0
   -0.5250    2.0898    0.0939 H   0  0  0  0  0  0  0  0  0  0  0  0
  1  2  2  3
  1  6  1  0
  1  7  1  0
  2  3  1  0
  2  8  1  0
  3  4  1  0
  3  5  1  0
  4 10  1  0
  4 11  1  0
  4 12  1  0
  5 13  1  0
  5 14  1  0
  5 15  1  0
  9 17  1  0
 16 17  1  0
 16 18  1  0
 16 19  1  0
 16 20  1  0
 17 21  1  0
 17 22  1  0
M  RAD  1   3   2
M  END
>  <reaction>  (10) 
rxn_1083

>  <mol_properties>  (10) 
{"1": {"label": "*0", "atom_type": "Cd"}, "2": {"label": "*1", "atom_type": "Cs"}, "8": {"label": "*2", "atom_type": "H0"}, "15": {"label": "*4", "atom_type": "Cs"}, "16": {"label": "*3", "atom_type": "Cs"}}

>  <type>  (10) 
unop_6

>  <geom_source>  (10) 
Heuristics

$$$$

     RDKit          3D

 22 20  0  0  0  0  0  0  0  0999 V2000
   -0.1837   -1.6624   -1.6131 C   0  0  0  0  0  0  0  0  0  0  0  0
   -0.1837   -1.6624   -0.2896 C   0  0  0  0  0  0  0  0  0  0  0  0
   -0.1837   -0.4410    0.5824 C   0  0  0  0  0  3  0  0  0  0  0  0
    1.0756   -0.4006    1.4501 C   0  0  0  0  0  0  0  0  0  0  0  0
   -1.4430   -0.4006    1.4501 C   0  0  0  0  0  0  0  0  0  0  0  0
   -0.1837   -2.5841   -2.1814 H   0  0  0  0  0  0  0  0  0  0  0  0
   -0.1837   -0.7358   -2.1777 H   0  0  0  0  0  0  0  0  0  0  0  0
   -0.1837   -2.6137    0.2410 H   0  0  0  0  0  0  0  0  0  0  0  0
   -0.1837    0.6154   -0.1980 H   0  0  0  0  0  0  0  0  0  0  0  0
    1.9771   -0.3947    0.8359 H   0  0  0  0  0  0  0  0  0  0  0  0
    1.1202   -1.2744    2.1059 H   0  0  0  0  0  0  0  0  0  0  0  0
    1.0831    0.4906    2.0811 H   0  0  0  0  0  0  0  0  0  0  0  0
   -1.4876   -1.2744    2.1059 H   0  0  0  0  0  0  0  0  0  0  0  0
   -2.3446   -0.3947    0.8359 H   0  0  0  0  0  0  0  0  0  0  0  0
   -1.4506    0.4906    2.0811 H   0  0  0  0  0  0  0  0  0  0  0  0
    1.0453    2.5346   -0.7337 C   0  0  0  0  0  0  0  0  0  0  0  0
   -0.1837    1.6688   -0.9762 C   0  0  0  0  0  0  0  0  0  0  0  0
    0.7937    3.5963   -0.7637 H   0  0  0  0  0  0  0  0  0  0  0  0
    1.8114    2.3552   -1.4900 H   0  0  0  0  0  0  0  0  0  0  0  0
    1.4890    2.3277    0.2417 H   0  0  0  0  0  0  0  0  0  0  0  0
   -0.6275    1.8757   -1.9517 H   0  0  0  0  0  0  0  0  0  0  0  0
   -0.9499    1.8483   -0.2199 H   0  0  0  0  0  0  0  0  0  0  0  0
  1  2  2  3
  1  6  1  0
  1  7  1  0
  2  3  1  0
  2  8  1  0
  3  4  1  0
  3  5  1  0
  4 10  1  0
  4 11  1  0
  4 12  1  0
  5 13  1  0
  5 14  1  0
  5 15  1  0
  9 17  1  0
 16 17  1  0
 16 18  1  0
 16 19  1  0
 16 20  1  0
 17 21  1  0
 17 22  1  0
M  RAD  1   3   2
M  END
>  <reaction>  (11) 
rxn_1083

>  <mol_properties>  (11) 
{"1": {"label": "*0", "atom_type": "Cd"}, "2": {"label": "*1", "atom_type": "Cs"}, "8": {"label": "*2", "atom_type": "H0"}, "15": {"label": "*4", "atom_type": "Cs"}, "16": {"label": "*3", "atom_type": "Cs"}}

>  <type>  (11) 
unop_7

>  <geom_source>  (11) 
Heuristics

$$$$

     RDKit          3D

 22 20  0  0  0  0  0  0  0  0999 V2000
    0.2159   -1.5988   -1.5268 C   0  0  0  0  0  0  0  0  0  0  0  0
    0.2159   -1.5988   -0.2033 C   0  0  0  0  0  0  0  0  0  0  0  0
    0.2159   -0.3774    0.6687 C   0  0  0  0  0  3  0  0  0  0  0  0
    1.4753   -0.3369    1.5363 C   0  0  0  0  0  0  0  0  0  0  0  0
   -1.0434   -0.3369    1.5363 C   0  0  0  0  0  0  0  0  0  0  0  0
    0.2159   -2.5205   -2.0951 H   0  0  0  0  0  0  0  0  0  0  0  0
    0.2159   -0.6722   -2.0914 H   0  0  0  0  0  0  0  0  0  0  0  0
    0.2159   -2.5501    0.3272 H   0  0  0  0  0  0  0  0  0  0  0  0
    0.2159    0.6790   -0.1118 H   0  0  0  0  0  0  0  0  0  0  0  0
    2.3768   -0.3310    0.9222 H   0  0  0  0  0  0  0  0  0  0  0  0
    1.5198   -1.2108    2.1921 H   0  0  0  0  0  0  0  0  0  0  0  0
    1.4828    0.5543    2.1673 H   0  0  0  0  0  0  0  0  0  0  0  0
   -1.0879   -1.2108    2.1921 H   0  0  0  0  0  0  0  0  0  0  0  0
   -1.9449   -0.3310    0.9222 H   0  0  0  0  0  0  0  0  0  0  0  0
   -1.0509    0.5543    2.1673 H   0  0  0  0  0  0  0  0  0  0  0  0
   -1.2032    2.1767   -1.2182 C   0  0  0  0  0  0  0  0  0  0  0  0
    0.2159    1.7324   -0.8900 C   0  0  0  0  0  0  0  0  0  0  0  0
   -1.2867    3.2649   -1.2207 H   0  0  0  0  0  0  0  0  0  0  0  0
   -1.9172    1.7922   -0.4877 H   0  0  0  0  0  0  0  0  0  0  0  0
   -1.5123    1.8193   -2.2020 H   0  0  0  0  0  0  0  0  0  0  0  0
    0.5250    2.0898    0.0939 H   0  0  0  0  0  0  0  0  0  0  0  0
    0.9300    2.1169   -1.6204 H   0  0  0  0  0  0  0  0  0  0  0  0
  1  2  2  3
  1  6  1  0
  1  7  1  0
  2  3  1  0
  2  8  1  0
  3  4  1  0
  3  5  1  0
  4 10  1  0
  4 11  1  0
  4 12  1  0
  5 13  1  0
  5 14  1  0
  5 15  1  0
  9 17  1  0
 16 17  1  0
 16 18  1  0
 16 19  1  0
 16 20  1  0
 17 21  1  0
 17 22  1  0
M  RAD  1   3   2
M  END
>  <reaction>  (12) 
rxn_1083

>  <mol_properties>  (12) 
{"1": {"label": "*0", "atom_type": "Cd"}, "2": {"label": "*1", "atom_type": "Cs"}, "8": {"label": "*2", "atom_type": "H0"}, "15": {"label": "*4", "atom_type": "Cs"}, "16": {"label": "*3", "atom_type": "Cs"}}

>  <type>  (12) 
unop_8

>  <geom_source>  (12) 
Heuristics

$$$$

     RDKit          3D

 22 20  0  0  0  0  0  0  0  0999 V2000
   -0.1104   -1.4864   -1.3719 C   0  0  0  0  0  0  0  0  0  0  0  0
   -0.1104   -1.4864   -0.0484 C   0  0  0  0  0  0  0  0  0  0  0  0
   -0.1104   -0.2650    0.8236 C   0  0  0  0  0  3  0  0  0  0  0  0
    1.1489   -0.2246    1.6913 C   0  0  0  0  0  0  0  0  0  0  0  0
   -1.3697   -0.2246    1.6913 C   0  0  0  0  0  0  0  0  0  0  0  0
   -0.1104   -2.4081   -1.9402 H   0  0  0  0  0  0  0  0  0  0  0  0
   -0.1104   -0.5599   -1.9365 H   0  0  0  0  0  0  0  0  0  0  0  0
   -0.1104   -2.4377    0.4821 H   0  0  0  0  0  0  0  0  0  0  0  0
   -0.1104    0.7914    0.0432 H   0  0  0  0  0  0  0  0  0  0  0  0
    2.0504   -0.2187    1.0771 H   0  0  0  0  0  0  0  0  0  0  0  0
    1.1935   -1.0984    2.3471 H   0  0  0  0  0  0  0  0  0  0  0  0
    1.1564    0.6666    2.3223 H   0  0  0  0  0  0  0  0  0  0  0  0
   -1.4143   -1.0984    2.3471 H   0  0  0  0  0  0  0  0  0  0  0  0
   -2.2713   -0.2187    1.0771 H   0  0  0  0  0  0  0  0  0  0  0  0
   -1.3773    0.6666    2.3223 H   0  0  0  0  0  0  0  0  0  0  0  0
    0.5991    1.5588   -2.0517 C   0  0  0  0  0  0  0  0  0  0  0  0
   -0.1104    1.8448   -0.7350 C   0  0  0  0  0  0  0  0  0  0  0  0
    0.8811    2.4834   -2.5584 H   0  0  0  0  0  0  0  0  0  0  0  0
   -0.0400    0.9915   -2.7307 H   0  0  0  0  0  0  0  0  0  0  0  0
    1.5096    0.9783   -1.8927 H   0  0  0  0  0  0  0  0  0  0  0  0
   -1.0209    2.4253   -0.8940 H   0  0  0  0  0  0  0  0  0  0  0  0
    0.5287    2.4120   -0.0560 H   0  0  0  0  0  0  0  0  0  0  0  0
  1  2  2  3
  1  6  1  0
  1  7  1  0
  2  3  1  0
  2  8  1  0
  3  4  1  0
  3  5  1  0
  4 10  1  0
  4 11  1  0
  4 12  1  0
  5 13  1  0
  5 14  1  0
  5 15  1  0
  9 17  1  0
 16 17  1  0
 16 18  1  0
 16 19  1  0
 16 20  1  0
 17 21  1  0
 17 22  1  0
M  RAD  1   3   2
M  END
>  <reaction>  (13) 
rxn_1083

>  <mol_properties>  (13) 
{"1": {"label": "*0", "atom_type": "Cd"}, "2": {"label": "*1", "atom_type": "Cs"}, "8": {"label": "*2", "atom_type": "H0"}, "15": {"label": "*4", "atom_type": "Cs"}, "16": {"label": "*3", "atom_type": "Cs"}}

>  <type>  (13) 
unop_9

>  <geom_source>  (13) 
Heuristics

$$$$

     RDKit          3D

 22 20  0  0  0  0  0  0  0  0999 V2000
    0.1895   -1.5342   -1.4382 C   0  0  0  0  0  0  0  0  0  0  0  0
    0.1895   -1.5342   -0.1147 C   0  0  0  0  0  0  0  0  0  0  0  0
    0.1895   -0.3128    0.7573 C   0  0  0  0  0  3  0  0  0  0  0  0
    1.4488   -0.2724    1.6250 C   0  0  0  0  0  0  0  0  0  0  0  0
   -1.0698   -0.2724    1.6250 C   0  0  0  0  0  0  0  0  0  0  0  0
    0.1895   -2.4559   -2.0065 H   0  0  0  0  0  0  0  0  0  0  0  0
    0.1895   -0.6076   -2.0028 H   0  0  0  0  0  0  0  0  0  0  0  0
    0.1895   -2.4855    0.4158 H   0  0  0  0  0  0  0  0  0  0  0  0
    0.1895    0.7436   -0.0231 H   0  0  0  0  0  0  0  0  0  0  0  0
    2.3503   -0.2665    1.0108 H   0  0  0  0  0  0  0  0  0  0  0  0
    1.4934   -1.1462    2.2808 H   0  0  0  0  0  0  0  0  0  0  0  0
    1.4563    0.6188    2.2560 H   0  0  0  0  0  0  0  0  0  0  0  0
   -1.1144   -1.1462    2.2808 H   0  0  0  0  0  0  0  0  0  0  0  0
   -1.9714   -0.2665    1.0108 H   0  0  0  0  0  0  0  0  0  0  0  0
   -1.0774    0.6188    2.2560 H   0  0  0  0  0  0  0  0  0  0  0  0
   -1.0395    1.8196   -1.7002 C   0  0  0  0  0  0  0  0  0  0  0  0
    0.1895    1.7970   -0.8013 C   0  0  0  0  0  0  0  0  0  0  0  0
   -1.3545    2.8424   -1.9145 H   0  0  0  0  0  0  0  0  0  0  0  0
   -1.8813    1.3058   -1.2328 H   0  0  0  0  0  0  0  0  0  0  0  0
   -0.8411    1.3283   -2.6544 H   0  0  0  0  0  0  0  0  0  0  0  0
   -0.0089    2.2883    0.1528 H   0  0  0  0  0  0  0  0  0  0  0  0
    1.0313    2.3108   -1.2688 H   0  0  0  0  0  0  0  0  0  0  0  0
  1  2  2  3
  1  6  1  0
  1  7  1  0
  2  3  1  0
  2  8  1  0
  3  4  1  0
  3  5  1  0
  4 10  1  0
  4 11  1  0
  4 12  1  0
  5 13  1  0
  5 14  1  0
  5 15  1  0
  9 17  1  0
 16 17  1  0
 16 18  1  0
 16 19  1  0
 16 20  1  0
 17 21  1  0
 17 22  1  0
M  RAD  1   3   2
M  END
>  <reaction>  (14) 
rxn_1083

>  <mol_properties>  (14) 
{"1": {"label": "*0", "atom_type": "Cd"}, "2": {"label": "*1", "atom_type": "Cs"}, "8": {"label": "*2", "atom_type": "H0"}, "15": {"label": "*4", "atom_type": "Cs"}, "16": {"label": "*3", "atom_type": "Cs"}}

>  <type>  (14) 
unop_10

>  <geom_source>  (14) 
Heuristics

$$$$

     RDKit          3D

 22 20  0  0  0  0  0  0  0  0999 V2000
   -0.1035   -1.7081   -1.6732 C   0  0  0  0  0  0  0  0  0  0  0  0
   -0.1035   -1.7081   -0.3497 C   0  0  0  0  0  0  0  0  0  0  0  0
   -0.1035   -0.4867    0.5224 C   0  0  0  0  0  3  0  0  0  0  0  0
    1.1558   -0.4462    1.3900 C   0  0  0  0  0  0  0  0  0  0  0  0
   -1.3628   -0.4462    1.3900 C   0  0  0  0  0  0  0  0  0  0  0  0
   -0.1035   -2.6298   -2.2414 H   0  0  0  0  0  0  0  0  0  0  0  0
   -0.1035   -0.7815   -2.2377 H   0  0  0  0  0  0  0  0  0  0  0  0
   -0.1035   -2.6594    0.1809 H   0  0  0  0  0  0  0  0  0  0  0  0
   -0.1035    0.5697   -0.2581 H   0  0  0  0  0  0  0  0  0  0  0  0
    2.0574   -0.4404    0.7759 H   0  0  0  0  0  0  0  0  0  0  0  0
    1.2004   -1.3201    2.0458 H   0  0  0  0  0  0  0  0  0  0  0  0
    1.1634    0.4450    2.0210 H   0  0  0  0  0  0  0  0  0  0  0  0
   -1.4073   -1.3201    2.0458 H   0  0  0  0  0  0  0  0  0  0  0  0
   -2.2643   -0.4404    0.7759 H   0  0  0  0  0  0  0  0  0  0  0  0
   -1.3703    0.4450    2.0210 H   0  0  0  0  0  0  0  0  0  0  0  0
    0.6061    2.7976   -0.3760 C   0  0  0  0  0  0  0  0  0  0  0  0
   -0.1035    1.6231   -1.0363 C   0  0  0  0  0  0  0  0  0  0  0  0
    0.2036    3.7502   -0.7249 H   0  0  0  0  0  0  0  0  0  0  0  0
    1.6748    2.7896   -0.5973 H   0  0  0  0  0  0  0  0  0  0  0  0
    0.4932    2.7689    0.7092 H   0  0  0  0  0  0  0  0  0  0  0  0
    0.0094    1.6518   -2.1215 H   0  0  0  0  0  0  0  0  0  0  0  0
   -1.1722    1.6311   -0.8150 H   0  0  0  0  0  0  0  0  0  0  0  0
  1  2  2  3
  1  6  1  0
  1  7  1  0
  2  3  1  0
  2  8  1  0
  3  4  1  0
  3  5  1  0
  4 10  1  0
  4 11  1  0
  4 12  1  0
  5 13  1  0
  5 14  1  0
  5 15  1  0
  9 17  1  0
 16 17  1  0
 16 18  1  0
 16 19  1  0
 16 20  1  0
 17 21  1  0
 17 22  1  0
M  RAD  1   3   2
M  END
>  <reaction>  (15) 
rxn_1083

>  <mol_properties>  (15) 
{"1": {"label": "*0", "atom_type": "Cd"}, "2": {"label": "*1", "atom_type": "Cs"}, "8": {"label": "*2", "atom_type": "H0"}, "15": {"label": "*4", "atom_type": "Cs"}, "16": {"label": "*3", "atom_type": "Cs"}}

>  <type>  (15) 
unop_11

>  <geom_source>  (15) 
Heuristics

$$$$

     RDKit          3D

 22 20  0  0  0  0  0  0  0  0999 V2000
   -0.0000   -1.4688   -1.3473 C   0  0  0  0  0  0  0  0  0  0  0  0
   -0.0000   -1.4688   -0.0238 C   0  0  0  0  0  0  0  0  0  0  0  0
   -0.0000   -0.2474    0.8482 C   0  0  0  0  0  3  0  0  0  0  0  0
    1.2593   -0.2070    1.7159 C   0  0  0  0  0  0  0  0  0  0  0  0
   -1.2593   -0.2070    1.7159 C   0  0  0  0  0  0  0  0  0  0  0  0
   -0.0000   -2.3905   -1.9156 H   0  0  0  0  0  0  0  0  0  0  0  0
   -0.0000   -0.5423   -1.9119 H   0  0  0  0  0  0  0  0  0  0  0  0
   -0.0000   -2.4201    0.5068 H   0  0  0  0  0  0  0  0  0  0  0  0
    0.0000    0.8090    0.0678 H   0  0  0  0  0  0  0  0  0  0  0  0
    2.1609   -0.2011    1.1017 H   0  0  0  0  0  0  0  0  0  0  0  0
    1.3039   -1.0808    2.3717 H   0  0  0  0  0  0  0  0  0  0  0  0
    1.2668    0.6842    2.3469 H   0  0  0  0  0  0  0  0  0  0  0  0
   -1.3039   -1.0808    2.3717 H   0  0  0  0  0  0  0  0  0  0  0  0
   -2.1609   -0.2011    1.1017 H   0  0  0  0  0  0  0  0  0  0  0  0
   -1.2668    0.6842    2.3469 H   0  0  0  0  0  0  0  0  0  0  0  0
    0.0000    1.4634   -2.1800 C   0  0  0  0  0  0  0  0  0  0  0  0
    0.0000    1.8624   -0.7104 C   0  0  0  0  0  0  0  0  0  0  0  0
    0.0000    2.3412   -2.8285 H   0  0  0  0  0  0  0  0  0  0  0  0
   -0.8808    0.8689   -2.4288 H   0  0  0  0  0  0  0  0  0  0  0  0
    0.8808    0.8689   -2.4288 H   0  0  0  0  0  0  0  0  0  0  0  0
   -0.8808    2.4569   -0.4617 H   0  0  0  0  0  0  0  0  0  0  0  0
    0.8808    2.4569   -0.4617 H   0  0  0  0  0  0  0  0  0  0  0  0
  1  2  2  3
  1  6  1  0
  1  7  1  0
  2  3  1  0
  2  8  1  0
  3  4  1  0
  3  5  1  0
  4 10  1  0
  4 11  1  0
  4 12  1  0
  5 13  1  0
  5 14  1  0
  5 15  1  0
  9 17  1  0
 16 17  1  0
 16 18  1  0
 16 19  1  0
 16 20  1  0
 17 21  1  0
 17 22  1  0
M  RAD  1   3   2
M  END
>  <reaction>  (16) 
rxn_1083

>  <mol_properties>  (16) 
{"1": {"label": "*0", "atom_type": "Cd"}, "2": {"label": "*1", "atom_type": "Cs"}, "8": {"label": "*2", "atom_type": "H0"}, "15": {"label": "*4", "atom_type": "Cs"}, "16": {"label": "*3", "atom_type": "Cs"}}

>  <type>  (16) 
unop_12

>  <geom_source>  (16) 
Heuristics

$$$$

     RDKit          3D

 22 20  0  0  0  0  0  0  0  0999 V2000
    1.8631    0.8434   -0.0528 C   0  0  0  0  0  0  0  0  0  0  0  0
    2.7324   -0.3322    0.3568 C   0  0  0  0  0  0  0  0  0  0  0  0
   -1.3073    0.4946   -1.5425 C   0  0  0  0  0  0  0  0  0  0  0  0
   -1.3516    1.0859    0.9275 C   0  0  0  0  0  0  0  0  0  0  0  0
   -0.6688    0.2686   -0.1708 C   0  0  0  0  0  3  0  0  0  0  0  0
   -0.5701   -1.1945    0.1813 C   0  0  0  0  0  0  0  0  0  0  0  0
   -1.6456   -1.9723    0.3482 C   0  0  0  0  0  0  0  0  0  0  0  0
    1.7741    1.5587    0.7918 H   0  0  0  0  0  0  0  0  0  0  0  0
    2.3165    1.3622   -0.9236 H   0  0  0  0  0  0  0  0  0  0  0  0
    0.7012    0.4260   -0.3724 H   0  0  0  0  0  0  0  0  0  0  0  0
    2.8184   -1.0468   -0.4884 H   0  0  0  0  0  0  0  0  0  0  0  0
    2.2762   -0.8504    1.2261 H   0  0  0  0  0  0  0  0  0  0  0  0
    3.7454    0.0268    0.6360 H   0  0  0  0  0  0  0  0  0  0  0  0
   -0.7628   -0.0901   -2.3137 H   0  0  0  0  0  0  0  0  0  0  0  0
   -1.2444    1.5695   -1.8132 H   0  0  0  0  0  0  0  0  0  0  0  0
   -2.3746    0.1866   -1.5380 H   0  0  0  0  0  0  0  0  0  0  0  0
   -0.8383    0.9182    1.8978 H   0  0  0  0  0  0  0  0  0  0  0  0
   -1.2891    2.1674    0.6842 H   0  0  0  0  0  0  0  0  0  0  0  0
   -2.4205    0.8006    1.0268 H   0  0  0  0  0  0  0  0  0  0  0  0
    0.4178   -1.6268    0.3024 H   0  0  0  0  0  0  0  0  0  0  0  0
   -1.5223   -3.0202    0.6013 H   0  0  0  0  0  0  0  0  0  0  0  0
   -2.6495   -1.5756    0.2352 H   0  0  0  0  0  0  0  0  0  0  0  0
  1  2  1  0
  1  8  1  0
  1  9  1  0
  1 10  1  0
  2 11  1  0
  2 12  1  0
  2 13  1  0
  3  5  1  0
  3 14  1  0
  3 15  1  0
  3 16  1  0
  4  5  1  0
  4 17  1  0
  4 18  1  0
  4 19  1  0
  5  6  1  0
  6  7  2  3
  6 20  1  0
  7 21  1  0
  7 22  1  0
M  RAD  1   5   2
M  END
>  <reaction>  (17) 
rxn_1083

>  <mol_properties>  (17) 
{"1": {"label": "*0", "atom_type": "Cd"}, "2": {"label": "*1", "atom_type": "Cs"}, "8": {"label": "*2", "atom_type": "H0"}, "15": {"label": "*4", "atom_type": "Cs"}, "16": {"label": "*3", "atom_type": "Cs"}}

>  <type>  (17) 
unop_13

>  <geom_source>  (17) 
AutoTST

$$$$

     RDKit          3D

 22 20  0  0  0  0  0  0  0  0999 V2000
    0.1104   -1.4864   -1.3719 C   0  0  0  0  0  0  0  0  0  0  0  0
    0.1104   -1.4864   -0.0484 C   0  0  0  0  0  0  0  0  0  0  0  0
    0.1104   -0.2650    0.8236 C   0  0  0  0  0  3  0  0  0  0  0  0
    1.3697   -0.2246    1.6913 C   0  0  0  0  0  0  0  0  0  0  0  0
   -1.1489   -0.2246    1.6913 C   0  0  0  0  0  0  0  0  0  0  0  0
    0.1104   -2.4081   -1.9402 H   0  0  0  0  0  0  0  0  0  0  0  0
    0.1104   -0.5598   -1.9365 H   0  0  0  0  0  0  0  0  0  0  0  0
    0.1104   -2.4377    0.4821 H   0  0  0  0  0  0  0  0  0  0  0  0
    0.1104    0.7914    0.0432 H   0  0  0  0  0  0  0  0  0  0  0  0
    2.2713   -0.2187    1.0771 H   0  0  0  0  0  0  0  0  0  0  0  0
    1.4143   -1.0984    2.3471 H   0  0  0  0  0  0  0  0  0  0  0  0
    1.3773    0.6666    2.3223 H   0  0  0  0  0  0  0  0  0  0  0  0
   -1.1935   -1.0984    2.3471 H   0  0  0  0  0  0  0  0  0  0  0  0
   -2.0504   -0.2187    1.0771 H   0  0  0  0  0  0  0  0  0  0  0  0
   -1.1564    0.6666    2.3223 H   0  0  0  0  0  0  0  0  0  0  0  0
   -0.5991    1.5588   -2.0517 C   0  0  0  0  0  0  0  0  0  0  0  0
    0.1104    1.8448   -0.7350 C   0  0  0  0  0  0  0  0  0  0  0  0
   -0.8811    2.4834   -2.5585 H   0  0  0  0  0  0  0  0  0  0  0  0
   -1.5096    0.9783   -1.8927 H   0  0  0  0  0  0  0  0  0  0  0  0
    0.0400    0.9915   -2.7307 H   0  0  0  0  0  0  0  0  0  0  0  0
   -0.5287    2.4120   -0.0560 H   0  0  0  0  0  0  0  0  0  0  0  0
    1.0209    2.4253   -0.8940 H   0  0  0  0  0  0  0  0  0  0  0  0
  1  2  2  3
  1  6  1  0
  1  7  1  0
  2  3  1  0
  2  8  1  0
  3  4  1  0
  3  5  1  0
  4 10  1  0
  4 11  1  0
  4 12  1  0
  5 13  1  0
  5 14  1  0
  5 15  1  0
  9 17  1  0
 16 17  1  0
 16 18  1  0
 16 19  1  0
 16 20  1  0
 17 21  1  0
 17 22  1  0
M  RAD  1   3   2
M  END
>  <reaction>  (18) 
rxn_1083

>  <mol_properties>  (18) 
{"1": {"label": "*0", "atom_type": "Cd"}, "2": {"label": "*1", "atom_type": "Cs"}, "8": {"label": "*2", "atom_type": "H0"}, "15": {"label": "*4", "atom_type": "Cs"}, "16": {"label": "*3", "atom_type": "Cs"}}

>  <type>  (18) 
unop_14

>  <geom_source>  (18) 
gaussian_log

$$$$
