
     RDKit          3D

 11 10  0  0  0  0  0  0  0  0999 V2000
   -1.2710    0.1907   -0.2084 C   0  0  0  0  0  0  0  0  0  0  0  0
    0.0202   -0.6130   -0.2928 C   0  0  0  0  0  0  0  0  0  0  0  0
    0.1086   -1.6953    0.7756 C   0  0  0  0  0  0  0  0  0  0  0  0
   -1.3607    0.6851    0.7620 H   0  0  0  0  0  0  0  0  0  0  0  0
   -2.1429   -0.4567   -0.3299 H   0  0  0  0  0  0  0  0  0  0  0  0
   -1.3158    0.9602   -0.9809 H   0  0  0  0  0  0  0  0  0  0  0  0
    0.8757    0.0616   -0.1992 H   0  0  0  0  0  0  0  0  0  0  0  0
    0.0997   -1.0712   -1.2825 H   0  0  0  0  0  0  0  0  0  0  0  0
   -0.7198   -2.4022    0.6850 H   0  0  0  0  0  0  0  0  0  0  0  0
    1.0395   -2.2596    0.6989 H   0  0  0  0  0  0  0  0  0  0  0  0
    0.0624   -1.2603    1.7770 H   0  0  0  0  0  0  0  0  0  0  0  0
  1  2  1  0
  1  4  1  0
  1  5  1  0
  1  6  1  0
  2  3  1  0
  2  7  1  0
  2  8  1  0
  3  9  1  0
  3 10  1  0
  3 11  1  0
M  END
>  <reaction>  (1) 
rxn_948

>  <mol_properties>  (1) 
{"1": {"label": "donator", "atom_type": "Cs"}, "6": {"label": "d_hydrogen", "atom_type": "H0"}}

>  <type>  (1) 
r1h

$$$$

     RDKit          3D

  6  5  0  0  0  0  0  0  0  0999 V2000
   -0.5122    0.0769    0.0313 C   0  0  0  0  0  0  0  0  0  0  0  0
    0.8184   -0.5422    0.0757 C   0  0  0  0  0  3  0  0  0  0  0  0
    2.3075   -0.1691   -0.1943 S   0  0  0  0  0  0  0  0  0  0  0  0
   -1.1500   -0.4948   -0.6475 H   0  0  0  0  0  0  0  0  0  0  0  0
   -0.4906    1.1243   -0.2849 H   0  0  0  0  0  0  0  0  0  0  0  0
   -0.9730    0.0050    1.0197 H   0  0  0  0  0  0  0  0  0  0  0  0
  1  2  1  0
  1  4  1  0
  1  5  1  0
  1  6  1  0
  2  3  2  0
M  RAD  1   2   2
M  END
>  <reaction>  (2) 
rxn_948

>  <mol_properties>  (2) 
{"1": {"label": "acceptor", "atom_type": "CS"}}

>  <type>  (2) 
r2

$$$$

     RDKit          3D

  7  6  0  0  0  0  0  0  0  0999 V2000
   -0.6782    0.0507    0.0301 C   0  0  0  0  0  0  0  0  0  0  0  0
    0.8092    0.0996    0.0213 C   0  0  0  0  0  0  0  0  0  0  0  0
    1.7473    0.7521    1.1507 S   0  0  0  0  0  0  0  0  0  0  0  0
   -1.0667    0.5456   -0.8653 H   0  0  0  0  0  0  0  0  0  0  0  0
   -1.0112   -0.9904   -0.0239 H   0  0  0  0  0  0  0  0  0  0  0  0
   -1.0920    0.5225    0.9188 H   0  0  0  0  0  0  0  0  0  0  0  0
    1.2740   -0.3620   -0.8520 H   0  0  0  0  0  0  0  0  0  0  0  0
  1  2  1  0
  1  4  1  0
  1  5  1  0
  1  6  1  0
  2  3  2  0
  2  7  1  0
M  END
>  <reaction>  (3) 
rxn_948

>  <mol_properties>  (3) 
{"1": {"label": "acceptor", "atom_type": "CS"}, "6": {"label": "a_hydrogen", "atom_type": "H0"}}

>  <type>  (3) 
r2h

$$$$

     RDKit          3D

 17 15  0  0  0  0  0  0  0  0999 V2000
    0.5048   -1.0353    1.9509 C   0  0  0  0  0  0  0  0  0  0  0  0
    0.6808   -0.1338    0.7881 C   0  0  0  0  0  0  0  0  0  0  0  0
    1.9983    0.2883    0.0042 S   0  0  0  0  0  0  0  0  0  0  0  0
    0.0249   -0.4821    2.7637 H   0  0  0  0  0  0  0  0  0  0  0  0
    1.4457   -1.4607    2.3010 H   0  0  0  0  0  0  0  0  0  0  0  0
   -0.1853   -1.8397    1.6793 H   0  0  0  0  0  0  0  0  0  0  0  0
   -1.6526    0.4511   -1.5524 C   0  0  0  0  0  0  0  0  0  0  0  0
   -1.6070    0.9598   -0.1377 C   0  0  0  0  0  3  0  0  0  0  0  0
   -1.3460    2.4316    0.0296 C   0  0  0  0  0  0  0  0  0  0  0  0
   -0.7253    0.6929   -2.0784 H   0  0  0  0  0  0  0  0  0  0  0  0
   -2.4763    0.9088   -2.1125 H   0  0  0  0  0  0  0  0  0  0  0  0
   -1.7896   -0.6311   -1.5889 H   0  0  0  0  0  0  0  0  0  0  0  0
   -0.4815    0.3710    0.3813 H   0  0  0  0  0  0  0  0  0  0  0  0
   -2.4084    0.5777    0.4960 H   0  0  0  0  0  0  0  0  0  0  0  0
   -2.1478    3.0304   -0.4178 H   0  0  0  0  0  0  0  0  0  0  0  0
   -1.2719    2.7123    1.0817 H   0  0  0  0  0  0  0  0  0  0  0  0
   -0.4122    2.7154   -0.4629 H   0  0  0  0  0  0  0  0  0  0  0  0
  1  2  1  0
  1  4  1  0
  1  5  1  0
  1  6  1  0
  2  3  2  0
  2 13  1  0
  7  8  1  0
  7 10  1  0
  7 11  1  0
  7 12  1  0
  8  9  1  0
  8 14  1  0
  9 15  1  0
  9 16  1  0
  9 17  1  0
M  RAD  1   8   2
M  END
>  <reaction>  (4) 
rxn_948

>  <mol_properties>  (4) 
{"1": {"label": "*1", "atom_type": "CS"}, "2": {"label": "*0", "atom_type": "S2d"}, "6": {"label": "*4", "atom_type": "Cs"}, "7": {"label": "*3", "atom_type": "Cs"}, "12": {"label": "*2", "atom_type": "H0"}}

>  <type>  (4) 
ts

$$$$

     RDKit          3D

 17 15  0  0  0  0  0  0  0  0999 V2000
    1.8183    0.3872    1.1433 C   0  0  0  0  0  0  0  0  0  0  0  0
    0.8929   -0.4164    0.2991 C   0  0  0  0  0  0  0  0  0  0  0  0
    0.4425   -1.9363    0.5606 S   0  0  0  0  0  0  0  0  0  0  0  0
    2.6662    0.7246    0.5392 H   0  0  0  0  0  0  0  0  0  0  0  0
    2.1798   -0.1803    1.9982 H   0  0  0  0  0  0  0  0  0  0  0  0
    1.3073    1.2908    1.4897 H   0  0  0  0  0  0  0  0  0  0  0  0
   -1.2042    0.8937   -2.0971 C   0  0  0  0  0  0  0  0  0  0  0  0
   -1.2042    0.8937   -0.5738 C   0  0  0  0  0  3  0  0  0  0  0  0
   -1.2042    2.2996    0.0129 C   0  0  0  0  0  0  0  0  0  0  0  0
   -0.3227    1.4080   -2.4877 H   0  0  0  0  0  0  0  0  0  0  0  0
   -2.0856    1.4080   -2.4877 H   0  0  0  0  0  0  0  0  0  0  0  0
   -1.2042   -0.1212   -2.4983 H   0  0  0  0  0  0  0  0  0  0  0  0
   -0.1547    0.2381   -0.1370 H   0  0  0  0  0  0  0  0  0  0  0  0
   -2.0787    0.3474   -0.2098 H   0  0  0  0  0  0  0  0  0  0  0  0
   -2.0856    2.8581   -0.3112 H   0  0  0  0  0  0  0  0  0  0  0  0
   -1.2042    2.2789    1.1041 H   0  0  0  0  0  0  0  0  0  0  0  0
   -0.3227    2.8581   -0.3112 H   0  0  0  0  0  0  0  0  0  0  0  0
  1  2  1  0
  1  4  1  0
  1  5  1  0
  1  6  1  0
  2  3  2  0
  2 13  1  0
  7  8  1  0
  7 10  1  0
  7 11  1  0
  7 12  1  0
  8  9  1  0
  8 14  1  0
  9 15  1  0
  9 16  1  0
  9 17  1  0
M  RAD  1   8   2
M  END
>  <reaction>  (5) 
rxn_948

>  <mol_properties>  (5) 
{"1": {"label": "*1", "atom_type": "CS"}, "2": {"label": "*0", "atom_type": "S2d"}, "6": {"label": "*4", "atom_type": "Cs"}, "7": {"label": "*3", "atom_type": "Cs"}, "12": {"label": "*2", "atom_type": "H0"}}

>  <type>  (5) 
unop_1

>  <geom_source>  (5) 
Heuristics

$$$$

     RDKit          3D

 17 15  0  0  0  0  0  0  0  0999 V2000
    1.8978   -0.5888   -0.7333 C   0  0  0  0  0  0  0  0  0  0  0  0
    0.7131   -0.6464    0.1654 C   0  0  0  0  0  0  0  0  0  0  0  0
    0.7153   -1.0553    1.7192 S   0  0  0  0  0  0  0  0  0  0  0  0
    1.7438   -1.2567   -1.5865 H   0  0  0  0  0  0  0  0  0  0  0  0
    2.8127   -0.8638   -0.2127 H   0  0  0  0  0  0  0  0  0  0  0  0
    1.9969    0.4202   -1.1455 H   0  0  0  0  0  0  0  0  0  0  0  0
   -1.3840    0.6638   -2.2308 C   0  0  0  0  0  0  0  0  0  0  0  0
   -1.3840    0.6638   -0.7075 C   0  0  0  0  0  3  0  0  0  0  0  0
   -1.3840    2.0696   -0.1208 C   0  0  0  0  0  0  0  0  0  0  0  0
   -0.5025    1.1780   -2.6214 H   0  0  0  0  0  0  0  0  0  0  0  0
   -2.2654    1.1780   -2.6214 H   0  0  0  0  0  0  0  0  0  0  0  0
   -1.3840   -0.3511   -2.6320 H   0  0  0  0  0  0  0  0  0  0  0  0
   -0.3345    0.0081   -0.2707 H   0  0  0  0  0  0  0  0  0  0  0  0
   -2.2585    0.1174   -0.3435 H   0  0  0  0  0  0  0  0  0  0  0  0
   -2.2654    2.6281   -0.4449 H   0  0  0  0  0  0  0  0  0  0  0  0
   -1.3840    2.0489    0.9704 H   0  0  0  0  0  0  0  0  0  0  0  0
   -0.5025    2.6281   -0.4449 H   0  0  0  0  0  0  0  0  0  0  0  0
  1  2  1  0
  1  4  1  0
  1  5  1  0
  1  6  1  0
  2  3  2  0
  2 13  1  0
  7  8  1  0
  7 10  1  0
  7 11  1  0
  7 12  1  0
  8  9  1  0
  8 14  1  0
  9 15  1  0
  9 16  1  0
  9 17  1  0
M  RAD  1   8   2
M  END
>  <reaction>  (6) 
rxn_948

>  <mol_properties>  (6) 
{"1": {"label": "*1", "atom_type": "CS"}, "2": {"label": "*0", "atom_type": "S2d"}, "6": {"label": "*4", "atom_type": "Cs"}, "7": {"label": "*3", "atom_type": "Cs"}, "12": {"label": "*2", "atom_type": "H0"}}

>  <type>  (6) 
unop_2

>  <geom_source>  (6) 
Heuristics

$$$$

     RDKit          3D

 17 15  0  0  0  0  0  0  0  0999 V2000
    1.3190    0.1000    1.7951 C   0  0  0  0  0  0  0  0  0  0  0  0
    0.7959   -0.3709    0.4839 C   0  0  0  0  0  0  0  0  0  0  0  0
    0.8573   -1.8734   -0.0820 S   0  0  0  0  0  0  0  0  0  0  0  0
    2.0566    0.8920    1.6327 H   0  0  0  0  0  0  0  0  0  0  0  0
    1.7702   -0.7104    2.3638 H   0  0  0  0  0  0  0  0  0  0  0  0
    0.5064    0.5493    2.3742 H   0  0  0  0  0  0  0  0  0  0  0  0
   -1.3012    0.9392   -1.9123 C   0  0  0  0  0  0  0  0  0  0  0  0
   -1.3012    0.9392   -0.3889 C   0  0  0  0  0  3  0  0  0  0  0  0
   -1.3012    2.3450    0.1978 C   0  0  0  0  0  0  0  0  0  0  0  0
   -0.4197    1.4535   -2.3029 H   0  0  0  0  0  0  0  0  0  0  0  0
   -2.1826    1.4535   -2.3029 H   0  0  0  0  0  0  0  0  0  0  0  0
   -1.3012   -0.0757   -2.3134 H   0  0  0  0  0  0  0  0  0  0  0  0
   -0.2517    0.2836    0.0479 H   0  0  0  0  0  0  0  0  0  0  0  0
   -2.1757    0.3928   -0.0249 H   0  0  0  0  0  0  0  0  0  0  0  0
   -2.1826    2.9036   -0.1264 H   0  0  0  0  0  0  0  0  0  0  0  0
   -1.3012    2.3243    1.2889 H   0  0  0  0  0  0  0  0  0  0  0  0
   -0.4197    2.9036   -0.1264 H   0  0  0  0  0  0  0  0  0  0  0  0
  1  2  1  0
  1  4  1  0
  1  5  1  0
  1  6  1  0
  2  3  2  0
  2 13  1  0
  7  8  1  0
  7 10  1  0
  7 11  1  0
  7 12  1  0
  8  9  1  0
  8 14  1  0
  9 15  1  0
  9 16  1  0
  9 17  1  0
M  RAD  1   8   2
M  END
>  <reaction>  (7) 
rxn_948

>  <mol_properties>  (7) 
{"1": {"label": "*1", "atom_type": "CS"}, "2": {"label": "*0", "atom_type": "S2d"}, "6": {"label": "*4", "atom_type": "Cs"}, "7": {"label": "*3", "atom_type": "Cs"}, "12": {"label": "*2", "atom_type": "H0"}}

>  <type>  (7) 
unop_3

>  <geom_source>  (7) 
Heuristics

$$$$

     RDKit          3D

 17 15  0  0  0  0  0  0  0  0999 V2000
    0.7781   -2.1560   -0.2843 C   0  0  0  0  0  0  0  0  0  0  0  0
    0.7125   -0.7334    0.1474 C   0  0  0  0  0  0  0  0  0  0  0  0
    1.2692   -0.1306    1.5287 S   0  0  0  0  0  0  0  0  0  0  0  0
   -0.2330   -2.5279   -0.4767 H   0  0  0  0  0  0  0  0  0  0  0  0
    1.2634   -2.7819    0.4616 H   0  0  0  0  0  0  0  0  0  0  0  0
    1.3185   -2.2267   -1.2333 H   0  0  0  0  0  0  0  0  0  0  0  0
   -1.3846    0.5768   -2.2488 C   0  0  0  0  0  0  0  0  0  0  0  0
   -1.3846    0.5768   -0.7255 C   0  0  0  0  0  3  0  0  0  0  0  0
   -1.3846    1.9826   -0.1388 C   0  0  0  0  0  0  0  0  0  0  0  0
   -0.5031    1.0910   -2.6394 H   0  0  0  0  0  0  0  0  0  0  0  0
   -2.2661    1.0910   -2.6394 H   0  0  0  0  0  0  0  0  0  0  0  0
   -1.3846   -0.4381   -2.6500 H   0  0  0  0  0  0  0  0  0  0  0  0
   -0.3352   -0.0788   -0.2887 H   0  0  0  0  0  0  0  0  0  0  0  0
   -2.2591    0.0304   -0.3615 H   0  0  0  0  0  0  0  0  0  0  0  0
   -2.2661    2.5412   -0.4629 H   0  0  0  0  0  0  0  0  0  0  0  0
   -1.3846    1.9619    0.9523 H   0  0  0  0  0  0  0  0  0  0  0  0
   -0.5031    2.5412   -0.4629 H   0  0  0  0  0  0  0  0  0  0  0  0
  1  2  1  0
  1  4  1  0
  1  5  1  0
  1  6  1  0
  2  3  2  0
  2 13  1  0
  7  8  1  0
  7 10  1  0
  7 11  1  0
  7 12  1  0
  8  9  1  0
  8 14  1  0
  9 15  1  0
  9 16  1  0
  9 17  1  0
M  RAD  1   8   2
M  END
>  <reaction>  (8) 
rxn_948

>  <mol_properties>  (8) 
{"1": {"label": "*1", "atom_type": "CS"}, "2": {"label": "*0", "atom_type": "S2d"}, "6": {"label": "*4", "atom_type": "Cs"}, "7": {"label": "*3", "atom_type": "Cs"}, "12": {"label": "*2", "atom_type": "H0"}}

>  <type>  (8) 
unop_4

>  <geom_source>  (8) 
Heuristics

$$$$

     RDKit          3D

 17 15  0  0  0  0  0  0  0  0999 V2000
    0.6751   -0.6269    2.0944 C   0  0  0  0  0  0  0  0  0  0  0  0
    0.5616   -0.5560    0.6123 C   0  0  0  0  0  0  0  0  0  0  0  0
    1.5819   -1.1934   -0.4526 S   0  0  0  0  0  0  0  0  0  0  0  0
    0.7081    0.3856    2.5086 H   0  0  0  0  0  0  0  0  0  0  0  0
    1.5594   -1.1793    2.4052 H   0  0  0  0  0  0  0  0  0  0  0  0
   -0.2203   -1.1006    2.5086 H   0  0  0  0  0  0  0  0  0  0  0  0
   -1.5355    0.7542   -1.7839 C   0  0  0  0  0  0  0  0  0  0  0  0
   -1.5355    0.7542   -0.2606 C   0  0  0  0  0  3  0  0  0  0  0  0
   -1.5355    2.1600    0.3262 C   0  0  0  0  0  0  0  0  0  0  0  0
   -0.6540    1.2684   -2.1745 H   0  0  0  0  0  0  0  0  0  0  0  0
   -2.4169    1.2684   -2.1745 H   0  0  0  0  0  0  0  0  0  0  0  0
   -1.5355   -0.2607   -2.1850 H   0  0  0  0  0  0  0  0  0  0  0  0
   -0.4860    0.0985    0.1763 H   0  0  0  0  0  0  0  0  0  0  0  0
   -2.4100    0.2078    0.1035 H   0  0  0  0  0  0  0  0  0  0  0  0
   -2.4169    2.7185    0.0020 H   0  0  0  0  0  0  0  0  0  0  0  0
   -1.5355    2.1393    1.4173 H   0  0  0  0  0  0  0  0  0  0  0  0
   -0.6540    2.7185    0.0020 H   0  0  0  0  0  0  0  0  0  0  0  0
  1  2  1  0
  1  4  1  0
  1  5  1  0
  1  6  1  0
  2  3  2  0
  2 13  1  0
  7  8  1  0
  7 10  1  0
  7 11  1  0
  7 12  1  0
  8  9  1  0
  8 14  1  0
  9 15  1  0
  9 16  1  0
  9 17  1  0
M  RAD  1   8   2
M  END
>  <reaction>  (9) 
rxn_948

>  <mol_properties>  (9) 
{"1": {"label": "*1", "atom_type": "CS"}, "2": {"label": "*0", "atom_type": "S2d"}, "6": {"label": "*4", "atom_type": "Cs"}, "7": {"label": "*3", "atom_type": "Cs"}, "12": {"label": "*2", "atom_type": "H0"}}

>  <type>  (9) 
unop_5

>  <geom_source>  (9) 
Heuristics

$$$$

     RDKit          3D

 17 15  0  0  0  0  0  0  0  0999 V2000
    0.4454   -2.3017    0.3889 C   0  0  0  0  0  0  0  0  0  0  0  0
    0.6668   -0.8446    0.1827 C   0  0  0  0  0  0  0  0  0  0  0  0
    1.5128    0.1344    1.1351 S   0  0  0  0  0  0  0  0  0  0  0  0
   -0.6284   -2.5049    0.4463 H   0  0  0  0  0  0  0  0  0  0  0  0
    0.9353   -2.6602    1.2917 H   0  0  0  0  0  0  0  0  0  0  0  0
    0.8183   -2.8556   -0.4781 H   0  0  0  0  0  0  0  0  0  0  0  0
   -1.4303    0.4655   -2.2135 C   0  0  0  0  0  0  0  0  0  0  0  0
   -1.4303    0.4655   -0.6902 C   0  0  0  0  0  3  0  0  0  0  0  0
   -1.4303    1.8714   -0.1035 C   0  0  0  0  0  0  0  0  0  0  0  0
   -0.5489    0.9798   -2.6042 H   0  0  0  0  0  0  0  0  0  0  0  0
   -2.3118    0.9798   -2.6042 H   0  0  0  0  0  0  0  0  0  0  0  0
   -1.4303   -0.5494   -2.6147 H   0  0  0  0  0  0  0  0  0  0  0  0
   -0.3809   -0.1901   -0.2534 H   0  0  0  0  0  0  0  0  0  0  0  0
   -2.3048   -0.0808   -0.3262 H   0  0  0  0  0  0  0  0  0  0  0  0
   -2.3118    2.4299   -0.4276 H   0  0  0  0  0  0  0  0  0  0  0  0
   -1.4303    1.8507    0.9876 H   0  0  0  0  0  0  0  0  0  0  0  0
   -0.5489    2.4299   -0.4276 H   0  0  0  0  0  0  0  0  0  0  0  0
  1  2  1  0
  1  4  1  0
  1  5  1  0
  1  6  1  0
  2  3  2  0
  2 13  1  0
  7  8  1  0
  7 10  1  0
  7 11  1  0
  7 12  1  0
  8  9  1  0
  8 14  1  0
  9 15  1  0
  9 16  1  0
  9 17  1  0
M  RAD  1   8   2
M  END
>  <reaction>  (10) 
rxn_948

>  <mol_properties>  (10) 
{"1": {"label": "*1", "atom_type": "CS"}, "2": {"label": "*0", "atom_type": "S2d"}, "6": {"label": "*4", "atom_type": "Cs"}, "7": {"label": "*3", "atom_type": "Cs"}, "12": {"label": "*2", "atom_type": "H0"}}

>  <type>  (10) 
unop_6

>  <geom_source>  (10) 
Heuristics

$$$$

     RDKit          3D

 17 15  0  0  0  0  0  0  0  0999 V2000
    0.2651   -2.0989    1.1433 C   0  0  0  0  0  0  0  0  0  0  0  0
    0.5815   -0.9149    0.2991 C   0  0  0  0  0  0  0  0  0  0  0  0
    1.7499    0.1564    0.5606 S   0  0  0  0  0  0  0  0  0  0  0  0
   -0.7711   -2.0361    1.4897 H   0  0  0  0  0  0  0  0  0  0  0  0
    0.9337   -2.1749    1.9982 H   0  0  0  0  0  0  0  0  0  0  0  0
    0.3337   -3.0089    0.5392 H   0  0  0  0  0  0  0  0  0  0  0  0
   -1.5156    0.3952   -2.0971 C   0  0  0  0  0  0  0  0  0  0  0  0
   -1.5156    0.3952   -0.5738 C   0  0  0  0  0  3  0  0  0  0  0  0
   -1.5156    1.8010    0.0130 C   0  0  0  0  0  0  0  0  0  0  0  0
   -0.6342    0.9095   -2.4877 H   0  0  0  0  0  0  0  0  0  0  0  0
   -2.3971    0.9095   -2.4877 H   0  0  0  0  0  0  0  0  0  0  0  0
   -1.5156   -0.6197   -2.4983 H   0  0  0  0  0  0  0  0  0  0  0  0
   -0.4662   -0.2604   -0.1370 H   0  0  0  0  0  0  0  0  0  0  0  0
   -2.3902   -0.1511   -0.2098 H   0  0  0  0  0  0  0  0  0  0  0  0
   -2.3971    2.3596   -0.3112 H   0  0  0  0  0  0  0  0  0  0  0  0
   -1.5156    1.7803    1.1041 H   0  0  0  0  0  0  0  0  0  0  0  0
   -0.6342    2.3596   -0.3112 H   0  0  0  0  0  0  0  0  0  0  0  0
  1  2  1  0
  1  4  1  0
  1  5  1  0
  1  6  1  0
  2  3  2  0
  2 13  1  0
  7  8  1  0
  7 10  1  0
  7 11  1  0
  7 12  1  0
  8  9  1  0
  8 14  1  0
  9 15  1  0
  9 16  1  0
  9 17  1  0
M  RAD  1   8   2
M  END
>  <reaction>  (11) 
rxn_948

>  <mol_properties>  (11) 
{"1": {"label": "*1", "atom_type": "CS"}, "2": {"label": "*0", "atom_type": "S2d"}, "6": {"label": "*4", "atom_type": "Cs"}, "7": {"label": "*3", "atom_type": "Cs"}, "12": {"label": "*2", "atom_type": "H0"}}

>  <type>  (11) 
unop_7

>  <geom_source>  (11) 
Heuristics

$$$$

     RDKit          3D

 17 15  0  0  0  0  0  0  0  0999 V2000
    2.0795    0.3141    0.3889 C   0  0  0  0  0  0  0  0  0  0  0  0
    0.8671   -0.5239    0.1827 C   0  0  0  0  0  0  0  0  0  0  0  0
    0.3583   -1.7136    1.1351 S   0  0  0  0  0  0  0  0  0  0  0  0
    2.7409    0.2219   -0.4781 H   0  0  0  0  0  0  0  0  0  0  0  0
    2.6167    0.0310    1.2917 H   0  0  0  0  0  0  0  0  0  0  0  0
    1.7913    1.3683    0.4464 H   0  0  0  0  0  0  0  0  0  0  0  0
   -1.2300    0.7862   -2.2135 C   0  0  0  0  0  0  0  0  0  0  0  0
   -1.2300    0.7862   -0.6902 C   0  0  0  0  0  3  0  0  0  0  0  0
   -1.2300    2.1920   -0.1035 C   0  0  0  0  0  0  0  0  0  0  0  0
   -0.3485    1.3005   -2.6042 H   0  0  0  0  0  0  0  0  0  0  0  0
   -2.1114    1.3005   -2.6042 H   0  0  0  0  0  0  0  0  0  0  0  0
   -1.2300   -0.2287   -2.6147 H   0  0  0  0  0  0  0  0  0  0  0  0
   -0.1805    0.1306   -0.2534 H   0  0  0  0  0  0  0  0  0  0  0  0
   -2.1045    0.2399   -0.3262 H   0  0  0  0  0  0  0  0  0  0  0  0
   -2.1114    2.7506   -0.4276 H   0  0  0  0  0  0  0  0  0  0  0  0
   -1.2300    2.1713    0.9876 H   0  0  0  0  0  0  0  0  0  0  0  0
   -0.3485    2.7506   -0.4276 H   0  0  0  0  0  0  0  0  0  0  0  0
  1  2  1  0
  1  4  1  0
  1  5  1  0
  1  6  1  0
  2  3  2  0
  2 13  1  0
  7  8  1  0
  7 10  1  0
  7 11  1  0
  7 12  1  0
  8  9  1  0
  8 14  1  0
  9 15  1  0
  9 16  1  0
  9 17  1  0
M  RAD  1   8   2
M  END
>  <reaction>  (12) 
rxn_948

>  <mol_properties>  (12) 
{"1": {"label": "*1", "atom_type": "CS"}, "2": {"label": "*0", "atom_type": "S2d"}, "6": {"label": "*4", "atom_type": "Cs"}, "7": {"label": "*3", "atom_type": "Cs"}, "12": {"label": "*2", "atom_type": "H0"}}

>  <type>  (12) 
unop_8

>  <geom_source>  (12) 
Heuristics

$$$$

     RDKit          3D

 17 15  0  0  0  0  0  0  0  0999 V2000
    1.1771   -1.7425   -0.7333 C   0  0  0  0  0  0  0  0  0  0  0  0
    0.7093   -0.6525    0.1654 C   0  0  0  0  0  0  0  0  0  0  0  0
    1.0777   -0.4751    1.7192 S   0  0  0  0  0  0  0  0  0  0  0  0
    0.3138   -2.2739   -1.1455 H   0  0  0  0  0  0  0  0  0  0  0  0
    1.8254   -2.4441   -0.2127 H   0  0  0  0  0  0  0  0  0  0  0  0
    1.7099   -1.3111   -1.5864 H   0  0  0  0  0  0  0  0  0  0  0  0
   -1.3878    0.6576   -2.2308 C   0  0  0  0  0  0  0  0  0  0  0  0
   -1.3878    0.6576   -0.7075 C   0  0  0  0  0  3  0  0  0  0  0  0
   -1.3878    2.0635   -0.1208 C   0  0  0  0  0  0  0  0  0  0  0  0
   -0.5064    1.1719   -2.6214 H   0  0  0  0  0  0  0  0  0  0  0  0
   -2.2693    1.1719   -2.6214 H   0  0  0  0  0  0  0  0  0  0  0  0
   -1.3878   -0.3573   -2.6320 H   0  0  0  0  0  0  0  0  0  0  0  0
   -0.3384    0.0020   -0.2707 H   0  0  0  0  0  0  0  0  0  0  0  0
   -2.2623    0.1113   -0.3435 H   0  0  0  0  0  0  0  0  0  0  0  0
   -2.2693    2.6220   -0.4449 H   0  0  0  0  0  0  0  0  0  0  0  0
   -1.3878    2.0428    0.9704 H   0  0  0  0  0  0  0  0  0  0  0  0
   -0.5064    2.6220   -0.4449 H   0  0  0  0  0  0  0  0  0  0  0  0
  1  2  1  0
  1  4  1  0
  1  5  1  0
  1  6  1  0
  2  3  2  0
  2 13  1  0
  7  8  1  0
  7 10  1  0
  7 11  1  0
  7 12  1  0
  8  9  1  0
  8 14  1  0
  9 15  1  0
  9 16  1  0
  9 17  1  0
M  RAD  1   8   2
M  END
>  <reaction>  (13) 
rxn_948

>  <mol_properties>  (13) 
{"1": {"label": "*1", "atom_type": "CS"}, "2": {"label": "*0", "atom_type": "S2d"}, "6": {"label": "*4", "atom_type": "Cs"}, "7": {"label": "*3", "atom_type": "Cs"}, "12": {"label": "*2", "atom_type": "H0"}}

>  <type>  (13) 
unop_9

>  <geom_source>  (13) 
Heuristics

$$$$

     RDKit          3D

 17 15  0  0  0  0  0  0  0  0999 V2000
    2.0945   -0.0488   -0.2843 C   0  0  0  0  0  0  0  0  0  0  0  0
    0.7872   -0.6138    0.1474 C   0  0  0  0  0  0  0  0  0  0  0  0
    0.4896   -1.3784    1.5287 S   0  0  0  0  0  0  0  0  0  0  0  0
    2.3951   -0.5035   -1.2333 H   0  0  0  0  0  0  0  0  0  0  0  0
    2.8698   -0.2105    0.4616 H   0  0  0  0  0  0  0  0  0  0  0  0
    1.9854    1.0230   -0.4767 H   0  0  0  0  0  0  0  0  0  0  0  0
   -1.3099    0.6963   -2.2488 C   0  0  0  0  0  0  0  0  0  0  0  0
   -1.3099    0.6963   -0.7255 C   0  0  0  0  0  3  0  0  0  0  0  0
   -1.3099    2.1022   -0.1388 C   0  0  0  0  0  0  0  0  0  0  0  0
   -0.4284    1.2106   -2.6394 H   0  0  0  0  0  0  0  0  0  0  0  0
   -2.1913    1.2106   -2.6394 H   0  0  0  0  0  0  0  0  0  0  0  0
   -1.3099   -0.3185   -2.6500 H   0  0  0  0  0  0  0  0  0  0  0  0
   -0.2605    0.0407   -0.2887 H   0  0  0  0  0  0  0  0  0  0  0  0
   -2.1844    0.1500   -0.3615 H   0  0  0  0  0  0  0  0  0  0  0  0
   -2.1913    2.6607   -0.4629 H   0  0  0  0  0  0  0  0  0  0  0  0
   -1.3099    2.0815    0.9523 H   0  0  0  0  0  0  0  0  0  0  0  0
   -0.4284    2.6607   -0.4629 H   0  0  0  0  0  0  0  0  0  0  0  0
  1  2  1  0
  1  4  1  0
  1  5  1  0
  1  6  1  0
  2  3  2  0
  2 13  1  0
  7  8  1  0
  7 10  1  0
  7 11  1  0
  7 12  1  0
  8  9  1  0
  8 14  1  0
  9 15  1  0
  9 16  1  0
  9 17  1  0
M  RAD  1   8   2
M  END
>  <reaction>  (14) 
rxn_948

>  <mol_properties>  (14) 
{"1": {"label": "*1", "atom_type": "CS"}, "2": {"label": "*0", "atom_type": "S2d"}, "6": {"label": "*4", "atom_type": "Cs"}, "7": {"label": "*3", "atom_type": "Cs"}, "12": {"label": "*2", "atom_type": "H0"}}

>  <type>  (14) 
unop_10

>  <geom_source>  (14) 
Heuristics

$$$$

     RDKit          3D

 17 15  0  0  0  0  0  0  0  0999 V2000
    0.3043   -1.5243    1.7951 C   0  0  0  0  0  0  0  0  0  0  0  0
    0.4981   -0.8477    0.4839 C   0  0  0  0  0  0  0  0  0  0  0  0
    1.8753   -0.2440   -0.0820 S   0  0  0  0  0  0  0  0  0  0  0  0
   -0.4559   -0.9911    2.3742 H   0  0  0  0  0  0  0  0  0  0  0  0
    1.2304   -1.5744    2.3639 H   0  0  0  0  0  0  0  0  0  0  0  0
   -0.0840   -2.5345    1.6327 H   0  0  0  0  0  0  0  0  0  0  0  0
   -1.5990    0.4624   -1.9123 C   0  0  0  0  0  0  0  0  0  0  0  0
   -1.5990    0.4624   -0.3889 C   0  0  0  0  0  3  0  0  0  0  0  0
   -1.5990    1.8683    0.1978 C   0  0  0  0  0  0  0  0  0  0  0  0
   -0.7176    0.9767   -2.3029 H   0  0  0  0  0  0  0  0  0  0  0  0
   -2.4805    0.9767   -2.3029 H   0  0  0  0  0  0  0  0  0  0  0  0
   -1.5990   -0.5525   -2.3134 H   0  0  0  0  0  0  0  0  0  0  0  0
   -0.5496   -0.1932    0.0479 H   0  0  0  0  0  0  0  0  0  0  0  0
   -2.4736   -0.0839   -0.0249 H   0  0  0  0  0  0  0  0  0  0  0  0
   -2.4805    2.4268   -0.1264 H   0  0  0  0  0  0  0  0  0  0  0  0
   -1.5990    1.8476    1.2889 H   0  0  0  0  0  0  0  0  0  0  0  0
   -0.7176    2.4268   -0.1264 H   0  0  0  0  0  0  0  0  0  0  0  0
  1  2  1  0
  1  4  1  0
  1  5  1  0
  1  6  1  0
  2  3  2  0
  2 13  1  0
  7  8  1  0
  7 10  1  0
  7 11  1  0
  7 12  1  0
  8  9  1  0
  8 14  1  0
  9 15  1  0
  9 16  1  0
  9 17  1  0
M  RAD  1   8   2
M  END
>  <reaction>  (15) 
rxn_948

>  <mol_properties>  (15) 
{"1": {"label": "*1", "atom_type": "CS"}, "2": {"label": "*0", "atom_type": "S2d"}, "6": {"label": "*4", "atom_type": "Cs"}, "7": {"label": "*3", "atom_type": "Cs"}, "12": {"label": "*2", "atom_type": "H0"}}

>  <type>  (15) 
unop_11

>  <geom_source>  (15) 
Heuristics

$$$$

     RDKit          3D

 17 15  0  0  0  0  0  0  0  0999 V2000
    1.5679   -1.1846   -0.8876 C   0  0  0  0  0  0  0  0  0  0  0  0
    0.6904   -0.6364    0.1821 C   0  0  0  0  0  0  0  0  0  0  0  0
    0.9176   -0.7784    1.7663 S   0  0  0  0  0  0  0  0  0  0  0  0
    0.9885   -1.8557   -1.5291 H   0  0  0  0  0  0  0  0  0  0  0  0
    2.4216   -1.7180   -0.4749 H   0  0  0  0  0  0  0  0  0  0  0  0
    1.9170   -0.3696   -1.5291 H   0  0  0  0  0  0  0  0  0  0  0  0
   -1.4067    0.6737   -2.2141 C   0  0  0  0  0  0  0  0  0  0  0  0
   -1.4067    0.6737   -0.6908 C   0  0  0  0  0  3  0  0  0  0  0  0
   -1.4067    2.0795   -0.1040 C   0  0  0  0  0  0  0  0  0  0  0  0
   -0.5252    1.1880   -2.6047 H   0  0  0  0  0  0  0  0  0  0  0  0
   -2.2881    1.1880   -2.6047 H   0  0  0  0  0  0  0  0  0  0  0  0
   -1.4067   -0.3412   -2.6152 H   0  0  0  0  0  0  0  0  0  0  0  0
   -0.3572    0.0181   -0.2539 H   0  0  0  0  0  0  0  0  0  0  0  0
   -2.2812    0.1273   -0.3268 H   0  0  0  0  0  0  0  0  0  0  0  0
   -2.2881    2.6381   -0.4282 H   0  0  0  0  0  0  0  0  0  0  0  0
   -1.4067    2.0588    0.9871 H   0  0  0  0  0  0  0  0  0  0  0  0
   -0.5252    2.6381   -0.4282 H   0  0  0  0  0  0  0  0  0  0  0  0
  1  2  1  0
  1  4  1  0
  1  5  1  0
  1  6  1  0
  2  3  2  0
  2 13  1  0
  7  8  1  0
  7 10  1  0
  7 11  1  0
  7 12  1  0
  8  9  1  0
  8 14  1  0
  9 15  1  0
  9 16  1  0
  9 17  1  0
M  RAD  1   8   2
M  END
>  <reaction>  (16) 
rxn_948

>  <mol_properties>  (16) 
{"1": {"label": "*1", "atom_type": "CS"}, "2": {"label": "*0", "atom_type": "S2d"}, "6": {"label": "*4", "atom_type": "Cs"}, "7": {"label": "*3", "atom_type": "Cs"}, "12": {"label": "*2", "atom_type": "H0"}}

>  <type>  (16) 
unop_12

>  <geom_source>  (16) 
Heuristics

$$$$

     RDKit          3D

 17 15  0  0  0  0  0  0  0  0999 V2000
    2.3046   -0.3088    1.6656 S   0  0  0  0  0  0  0  0  0  0  0  0
   -1.3499    0.6230   -0.9508 C   0  0  0  0  0  0  0  0  0  0  0  0
   -1.6002   -0.6435    1.2148 C   0  0  0  0  0  0  0  0  0  0  0  0
    2.3866   -0.2925   -0.8818 C   0  0  0  0  0  0  0  0  0  0  0  0
   -0.8640    0.4736    0.4856 C   0  0  0  0  0  3  0  0  0  0  0  0
    1.6897    0.0078    0.4072 C   0  0  0  0  0  0  0  0  0  0  0  0
    2.5766   -1.3835   -0.9723 H   0  0  0  0  0  0  0  0  0  0  0  0
    3.3498    0.2587   -0.9369 H   0  0  0  0  0  0  0  0  0  0  0  0
    1.7447    0.0280   -1.7283 H   0  0  0  0  0  0  0  0  0  0  0  0
   -1.1858   -0.3220   -1.5102 H   0  0  0  0  0  0  0  0  0  0  0  0
   -2.4300    0.8818   -0.9688 H   0  0  0  0  0  0  0  0  0  0  0  0
   -0.7781    1.4335   -1.4488 H   0  0  0  0  0  0  0  0  0  0  0  0
   -2.6879   -0.4231    1.2625 H   0  0  0  0  0  0  0  0  0  0  0  0
   -1.4405   -1.6107    0.6933 H   0  0  0  0  0  0  0  0  0  0  0  0
   -1.2055   -0.7289    2.2486 H   0  0  0  0  0  0  0  0  0  0  0  0
   -0.9974    1.4326    1.0311 H   0  0  0  0  0  0  0  0  0  0  0  0
    0.4875    0.5742    0.3890 H   0  0  0  0  0  0  0  0  0  0  0  0
  1  6  2  0
  2  5  1  0
  2 10  1  0
  2 11  1  0
  2 12  1  0
  3  5  1  0
  3 13  1  0
  3 14  1  0
  3 15  1  0
  4  6  1  0
  4  7  1  0
  4  8  1  0
  4  9  1  0
  5 16  1  0
  6 17  1  0
M  RAD  1   5   2
M  END
>  <reaction>  (17) 
rxn_948

>  <mol_properties>  (17) 
{"1": {"label": "*1", "atom_type": "CS"}, "2": {"label": "*0", "atom_type": "S2d"}, "6": {"label": "*4", "atom_type": "Cs"}, "7": {"label": "*3", "atom_type": "Cs"}, "12": {"label": "*2", "atom_type": "H0"}}

>  <type>  (17) 
unop_13

>  <geom_source>  (17) 
AutoTST

$$$$

     RDKit          3D

 17 15  0  0  0  0  0  0  0  0999 V2000
    1.8979   -0.5888   -0.7333 C   0  0  0  0  0  0  0  0  0  0  0  0
    0.7131   -0.6464    0.1654 C   0  0  0  0  0  0  0  0  0  0  0  0
    0.7153   -1.0553    1.7192 S   0  0  0  0  0  0  0  0  0  0  0  0
    1.7438   -1.2567   -1.5864 H   0  0  0  0  0  0  0  0  0  0  0  0
    2.8127   -0.8638   -0.2127 H   0  0  0  0  0  0  0  0  0  0  0  0
    1.9969    0.4202   -1.1455 H   0  0  0  0  0  0  0  0  0  0  0  0
   -1.3840    0.6638   -2.2308 C   0  0  0  0  0  0  0  0  0  0  0  0
   -1.3840    0.6638   -0.7075 C   0  0  0  0  0  3  0  0  0  0  0  0
   -1.3840    2.0696   -0.1207 C   0  0  0  0  0  0  0  0  0  0  0  0
   -0.5025    1.1780   -2.6214 H   0  0  0  0  0  0  0  0  0  0  0  0
   -2.2654    1.1780   -2.6214 H   0  0  0  0  0  0  0  0  0  0  0  0
   -1.3840   -0.3511   -2.6320 H   0  0  0  0  0  0  0  0  0  0  0  0
   -0.3345    0.0081   -0.2707 H   0  0  0  0  0  0  0  0  0  0  0  0
   -2.2585    0.1174   -0.3435 H   0  0  0  0  0  0  0  0  0  0  0  0
   -2.2654    2.6282   -0.4449 H   0  0  0  0  0  0  0  0  0  0  0  0
   -1.3840    2.0489    0.9704 H   0  0  0  0  0  0  0  0  0  0  0  0
   -0.5025    2.6282   -0.4449 H   0  0  0  0  0  0  0  0  0  0  0  0
  1  2  1  0
  1  4  1  0
  1  5  1  0
  1  6  1  0
  2  3  2  0
  2 13  1  0
  7  8  1  0
  7 10  1  0
  7 11  1  0
  7 12  1  0
  8  9  1  0
  8 14  1  0
  9 15  1  0
  9 16  1  0
  9 17  1  0
M  RAD  1   8   2
M  END
>  <reaction>  (18) 
rxn_948

>  <mol_properties>  (18) 
{"1": {"label": "*1", "atom_type": "CS"}, "2": {"label": "*0", "atom_type": "S2d"}, "6": {"label": "*4", "atom_type": "Cs"}, "7": {"label": "*3", "atom_type": "Cs"}, "12": {"label": "*2", "atom_type": "H0"}}

>  <type>  (18) 
unop_14

>  <geom_source>  (18) 
gaussian_log

$$$$
