
     RDKit          3D

 10  9  0  0  0  0  0  0  0  0999 V2000
   -1.1906   -0.0419   -0.0385 C   0  0  0  0  0  0  0  0  0  0  0  0
    0.2513    0.4500    0.0348 C   0  0  0  0  0  0  0  0  0  0  0  0
    1.2500   -0.5694    0.3278 N   0  0  0  0  0  0  0  0  0  0  0  0
   -1.4965   -0.4905    0.9100 H   0  0  0  0  0  0  0  0  0  0  0  0
   -1.3035   -0.7985   -0.8190 H   0  0  0  0  0  0  0  0  0  0  0  0
   -1.8789    0.7769   -0.2612 H   0  0  0  0  0  0  0  0  0  0  0  0
    0.3352    1.2278    0.7979 H   0  0  0  0  0  0  0  0  0  0  0  0
    0.5259    0.9233   -0.9113 H   0  0  0  0  0  0  0  0  0  0  0  0
    1.2298   -1.2971   -0.3752 H   0  0  0  0  0  0  0  0  0  0  0  0
    1.0523   -1.0138    1.2153 H   0  0  0  0  0  0  0  0  0  0  0  0
  1  2  1  0
  1  4  1  0
  1  5  1  0
  1  6  1  0
  2  3  1  0
  2  7  1  0
  2  8  1  0
  3  9  1  0
  3 10  1  0
M  END
>  <reaction>  (1) 
rxn_111

>  <mol_properties>  (1) 
{"0": {"label": "donator", "atom_type": "Cs"}, "3": {"label": "d_hydrogen", "atom_type": "H0"}}

>  <type>  (1) 
r1h

$$$$

     RDKit          3D

  1  0  0  0  0  0  0  0  0  0999 V2000
    0.0000    0.0000    0.0000 H   0  0  0  0  0 15  0  0  0  0  0  0
M  END
>  <reaction>  (2) 
rxn_111

>  <mol_properties>  (2) 
{"0": {"label": "acceptor", "atom_type": "H0"}}

>  <type>  (2) 
r2

$$$$

     RDKit          3D

  2  1  0  0  0  0  0  0  0  0999 V2000
    0.0000    0.0000    0.3721 H   0  0  0  0  0  0  0  0  0  0  0  0
    0.0000    0.0000   -0.3721 H   0  0  0  0  0  0  0  0  0  0  0  0
  1  2  1  0
M  END
>  <reaction>  (3) 
rxn_111

>  <mol_properties>  (3) 
{"0": {"label": "a_hydrogen", "atom_type": "H0"}, "1": {"label": "acceptor", "atom_type": "H0"}}

>  <type>  (3) 
r2h

$$$$

     RDKit          3D

 11  9  0  0  0  0  0  0  0  0999 V2000
    0.1242    0.8239    0.9618 C   0  0  0  0  0  0  0  0  0  0  0  0
    0.0322   -0.5202    0.2838 C   0  0  0  0  0  0  0  0  0  0  0  0
    0.0316   -0.4970   -1.1702 N   0  0  0  0  0  0  0  0  0  0  0  0
   -0.9888    1.4826    0.5957 H   0  0  0  0  0  0  0  0  0  0  0  0
    0.9202    1.4729    0.5988 H   0  0  0  0  0  0  0  0  0  0  0  0
    0.0572    0.8118    2.0486 H   0  0  0  0  0  0  0  0  0  0  0  0
   -0.8725   -1.0356    0.6167 H   0  0  0  0  0  0  0  0  0  0  0  0
    0.8693   -1.1468    0.6126 H   0  0  0  0  0  0  0  0  0  0  0  0
    0.8743   -0.0606   -1.5210 H   0  0  0  0  0  0  0  0  0  0  0  0
   -0.7496    0.0476   -1.5126 H   0  0  0  0  0  0  0  0  0  0  0  0
   -1.7852    1.8846    0.3110 H   0  0  0  0  0 15  0  0  0  0  0  0
  1  2  1  0
  1  4  1  0
  1  5  1  0
  1  6  1  0
  2  3  1  0
  2  7  1  0
  2  8  1  0
  3  9  1  0
  3 10  1  0
M  END
>  <reaction>  (4) 
rxn_111

>  <mol_properties>  (4) 
{"0": {"label": "*3", "atom_type": "Cs"}, "1": {"label": "*4", "atom_type": "Cs"}, "3": {"label": "*2", "atom_type": "H0"}, "10": {"label": "*1", "atom_type": "H0"}}

>  <type>  (4) 
ts

$$$$

     RDKit          3D

 11  9  0  0  0  0  0  0  0  0999 V2000
    0.0428    0.8493    0.9406 C   0  0  0  0  0  0  0  0  0  0  0  0
    0.0428   -0.5263    0.2816 C   0  0  0  0  0  0  0  0  0  0  0  0
    0.0428   -0.5263   -1.1753 N   0  0  0  0  0  0  0  0  0  0  0  0
   -1.0172    1.5355    0.5865 H   0  0  0  0  0  0  0  0  0  0  0  0
    0.9262    1.4211    0.6455 H   0  0  0  0  0  0  0  0  0  0  0  0
    0.0428    0.7678    2.0301 H   0  0  0  0  0  0  0  0  0  0  0  0
   -0.8304   -1.0926    0.6148 H   0  0  0  0  0  0  0  0  0  0  0  0
    0.9161   -1.0926    0.6148 H   0  0  0  0  0  0  0  0  0  0  0  0
    0.8554   -0.0378   -1.5293 H   0  0  0  0  0  0  0  0  0  0  0  0
   -0.7698   -0.0378   -1.5293 H   0  0  0  0  0  0  0  0  0  0  0  0
   -1.7390    2.0027    0.3454 H   0  0  0  0  0 15  0  0  0  0  0  0
  1  2  1  0
  1  4  1  0
  1  5  1  0
  1  6  1  0
  2  3  1  0
  2  7  1  0
  2  8  1  0
  3  9  1  0
  3 10  1  0
M  END
>  <reaction>  (5) 
rxn_111

>  <mol_properties>  (5) 
{"0": {"label": "*3", "atom_type": "Cs"}, "1": {"label": "*4", "atom_type": "Cs"}, "3": {"label": "*2", "atom_type": "H0"}, "10": {"label": "*1", "atom_type": "H0"}}

>  <type>  (5) 
unop_1

>  <geom_source>  (5) 
Heuristics

$$$$

     RDKit          3D

 11  9  0  0  0  0  0  0  0  0999 V2000
   -1.7073    0.0931    0.0646 N   0  0  0  0  0  0  0  0  0  0  0  0
   -0.4622   -0.2018   -0.6407 C   0  0  0  0  0  0  0  0  0  0  0  0
    0.7360   -0.1702    0.3040 C   0  0  0  0  0  0  0  0  0  0  0  0
   -0.5322   -1.2071   -1.1080 H   0  0  0  0  0  0  0  0  0  0  0  0
   -0.3100    0.5453   -1.4485 H   0  0  0  0  0  0  0  0  0  0  0  0
    0.6269   -0.9350    1.1019 H   0  0  0  0  0  0  0  0  0  0  0  0
    0.8516    0.8369    0.7577 H   0  0  0  0  0  0  0  0  0  0  0  0
   -1.8365   -0.6091    0.8292 H   0  0  0  0  0  0  0  0  0  0  0  0
   -1.6279    1.0366    0.5094 H   0  0  0  0  0  0  0  0  0  0  0  0
    2.6340    0.6753   -0.3944 H   0  0  0  0  0 15  0  0  0  0  0  0
    1.6277   -0.0639    0.0248 H   0  0  0  0  0  0  0  0  0  0  0  0
  1  2  1  0
  1  8  1  0
  1  9  1  0
  2  3  1  0
  2  4  1  0
  2  5  1  0
  3  6  1  0
  3  7  1  0
  3 11  1  0
M  END
>  <reaction>  (6) 
rxn_111

>  <mol_properties>  (6) 
{"0": {"label": "*3", "atom_type": "Cs"}, "1": {"label": "*4", "atom_type": "Cs"}, "3": {"label": "*2", "atom_type": "H0"}, "10": {"label": "*1", "atom_type": "H0"}}

>  <type>  (6) 
unop_2

>  <geom_source>  (6) 
AutoTST

$$$$
