
     RDKit          3D

 11 10  0  0  0  0  0  0  0  0999 V2000
   -1.2710    0.1907   -0.2084 C   0  0  0  0  0  0  0  0  0  0  0  0
    0.0202   -0.6130   -0.2928 C   0  0  0  0  0  0  0  0  0  0  0  0
    0.1086   -1.6953    0.7756 C   0  0  0  0  0  0  0  0  0  0  0  0
   -1.3607    0.6851    0.7620 H   0  0  0  0  0  0  0  0  0  0  0  0
   -2.1429   -0.4567   -0.3299 H   0  0  0  0  0  0  0  0  0  0  0  0
   -1.3158    0.9602   -0.9809 H   0  0  0  0  0  0  0  0  0  0  0  0
    0.8757    0.0616   -0.1992 H   0  0  0  0  0  0  0  0  0  0  0  0
    0.0997   -1.0712   -1.2825 H   0  0  0  0  0  0  0  0  0  0  0  0
   -0.7198   -2.4022    0.6850 H   0  0  0  0  0  0  0  0  0  0  0  0
    1.0395   -2.2596    0.6989 H   0  0  0  0  0  0  0  0  0  0  0  0
    0.0624   -1.2603    1.7770 H   0  0  0  0  0  0  0  0  0  0  0  0
  1  2  1  0
  1  4  1  0
  1  5  1  0
  1  6  1  0
  2  3  1  0
  2  7  1  0
  2  8  1  0
  3  9  1  0
  3 10  1  0
  3 11  1  0
M  END
>  <reaction>  (1) 
rxn_92

>  <mol_properties>  (1) 
{"0": {"label": "donator", "atom_type": "Cs"}, "3": {"label": "d_hydrogen", "atom_type": "H0"}}

>  <type>  (1) 
r1h

$$$$

     RDKit          3D

  3  2  0  0  0  0  0  0  0  0999 V2000
    0.0002    0.4233    0.0000 N   0  0  0  0  0  2  0  0  0  0  0  0
   -0.8051   -0.2112    0.0000 H   0  0  0  0  0  0  0  0  0  0  0  0
    0.8049   -0.2121    0.0000 H   0  0  0  0  0  0  0  0  0  0  0  0
  1  2  1  0
  1  3  1  0
M  RAD  1   1   2
M  END
>  <reaction>  (2) 
rxn_92

>  <mol_properties>  (2) 
{"0": {"label": "acceptor", "atom_type": "N3s"}}

>  <type>  (2) 
r2

$$$$

     RDKit          3D

  4  3  0  0  0  0  0  0  0  0999 V2000
    0.0006   -0.0009    0.2762 N   0  0  0  0  0  0  0  0  0  0  0  0
   -0.4188    0.8439   -0.0883 H   0  0  0  0  0  0  0  0  0  0  0  0
   -0.5215   -0.7840   -0.0936 H   0  0  0  0  0  0  0  0  0  0  0  0
    0.9397   -0.0590   -0.0943 H   0  0  0  0  0  0  0  0  0  0  0  0
  1  2  1  0
  1  3  1  0
  1  4  1  0
M  END
>  <reaction>  (3) 
rxn_92

>  <mol_properties>  (3) 
{"0": {"label": "acceptor", "atom_type": "N3s"}, "3": {"label": "a_hydrogen", "atom_type": "H0"}}

>  <type>  (3) 
r2h

$$$$

     RDKit          3D

 14 12  0  0  0  0  0  0  0  0999 V2000
   -1.5424    1.5634    0.3571 N   0  0  0  0  0  2  0  0  0  0  0  0
   -1.3141    1.8603   -0.5935 H   0  0  0  0  0  0  0  0  0  0  0  0
   -2.1029    0.7188    0.2264 H   0  0  0  0  0  0  0  0  0  0  0  0
    0.6959    0.3747    0.8822 C   0  0  0  0  0  0  0  0  0  0  0  0
    0.5729   -1.0290    0.3454 C   0  0  0  0  0  0  0  0  0  0  0  0
    0.3782   -1.0817   -1.1646 C   0  0  0  0  0  0  0  0  0  0  0  0
   -0.3992    1.0163    0.6975 H   0  0  0  0  0  0  0  0  0  0  0  0
    1.4438    0.9824    0.3715 H   0  0  0  0  0  0  0  0  0  0  0  0
    0.8091    0.4387    1.9637 H   0  0  0  0  0  0  0  0  0  0  0  0
   -0.2554   -1.5402    0.8446 H   0  0  0  0  0  0  0  0  0  0  0  0
    1.4751   -1.5920    0.6119 H   0  0  0  0  0  0  0  0  0  0  0  0
    1.2125   -0.6030   -1.6823 H   0  0  0  0  0  0  0  0  0  0  0  0
    0.3076   -2.1100   -1.5219 H   0  0  0  0  0  0  0  0  0  0  0  0
   -0.5358   -0.5605   -1.4580 H   0  0  0  0  0  0  0  0  0  0  0  0
  1  2  1  0
  1  3  1  0
  4  5  1  0
  4  7  1  0
  4  8  1  0
  4  9  1  0
  5  6  1  0
  5 10  1  0
  5 11  1  0
  6 12  1  0
  6 13  1  0
  6 14  1  0
M  RAD  1   1   2
M  END
>  <reaction>  (4) 
rxn_92

>  <mol_properties>  (4) 
{"0": {"label": "*3", "atom_type": "N3s"}, "1": {"label": "*4", "atom_type": "H0"}, "3": {"label": "*1", "atom_type": "Cs"}, "4": {"label": "*0", "atom_type": "Cs"}, "6": {"label": "*2", "atom_type": "H0"}}

>  <type>  (4) 
ts

$$$$

     RDKit          3D

 14 12  0  0  0  0  0  0  0  0999 V2000
   -1.4944    1.6079    0.1023 N   0  0  0  0  0  0  0  0  0  0  0  0
   -2.0119    1.8678    0.9313 H   0  0  0  0  0  0  0  0  0  0  0  0
   -0.7536    2.2960    0.1201 H   0  0  0  0  0  0  0  0  0  0  0  0
    0.5422    0.3173    0.8512 C   0  0  0  0  0  3  0  0  0  0  0  0
    0.5422   -1.0885    0.2645 C   0  0  0  0  0  0  0  0  0  0  0  0
    0.5422   -1.0885   -1.2588 C   0  0  0  0  0  0  0  0  0  0  0  0
   -0.5155    0.9876    0.4623 H   0  0  0  0  0  0  0  0  0  0  0  0
    1.4237    0.8759    0.5271 H   0  0  0  0  0  0  0  0  0  0  0  0
    0.5422    0.2966    1.9424 H   0  0  0  0  0  0  0  0  0  0  0  0
   -0.3323   -1.6348    0.6285 H   0  0  0  0  0  0  0  0  0  0  0  0
    1.4167   -1.6348    0.6285 H   0  0  0  0  0  0  0  0  0  0  0  0
    1.4237   -0.5742   -1.6494 H   0  0  0  0  0  0  0  0  0  0  0  0
    0.5422   -2.1034   -1.6600 H   0  0  0  0  0  0  0  0  0  0  0  0
   -0.3393   -0.5742   -1.6494 H   0  0  0  0  0  0  0  0  0  0  0  0
  1  2  1  0
  1  3  1  0
  1  7  1  0
  4  5  1  0
  4  8  1  0
  4  9  1  0
  5  6  1  0
  5 10  1  0
  5 11  1  0
  6 12  1  0
  6 13  1  0
  6 14  1  0
M  RAD  1   4   2
M  END
>  <reaction>  (5) 
rxn_92

>  <mol_properties>  (5) 
{"0": {"label": "*3", "atom_type": "N3s"}, "1": {"label": "*4", "atom_type": "H0"}, "3": {"label": "*1", "atom_type": "Cs"}, "4": {"label": "*0", "atom_type": "Cs"}, "6": {"label": "*2", "atom_type": "H0"}}

>  <type>  (5) 
unop_1

>  <geom_source>  (5) 
Heuristics

$$$$

     RDKit          3D

 14 12  0  0  0  0  0  0  0  0999 V2000
   -1.4813    1.6296    0.1032 N   0  0  0  0  0  0  0  0  0  0  0  0
   -2.2277    0.9630   -0.0420 H   0  0  0  0  0  0  0  0  0  0  0  0
   -1.2903    1.9485    1.0436 H   0  0  0  0  0  0  0  0  0  0  0  0
    0.5553    0.3390    0.8521 C   0  0  0  0  0  3  0  0  0  0  0  0
    0.5553   -1.0668    0.2654 C   0  0  0  0  0  0  0  0  0  0  0  0
    0.5553   -1.0668   -1.2579 C   0  0  0  0  0  0  0  0  0  0  0  0
   -0.5025    1.0093    0.4631 H   0  0  0  0  0  0  0  0  0  0  0  0
    1.4367    0.8976    0.5280 H   0  0  0  0  0  0  0  0  0  0  0  0
    0.5553    0.3184    1.9432 H   0  0  0  0  0  0  0  0  0  0  0  0
   -0.3193   -1.6131    0.6294 H   0  0  0  0  0  0  0  0  0  0  0  0
    1.4298   -1.6131    0.6294 H   0  0  0  0  0  0  0  0  0  0  0  0
    1.4367   -0.5525   -1.6486 H   0  0  0  0  0  0  0  0  0  0  0  0
    0.5553   -2.0817   -1.6591 H   0  0  0  0  0  0  0  0  0  0  0  0
   -0.3262   -0.5525   -1.6486 H   0  0  0  0  0  0  0  0  0  0  0  0
  1  2  1  0
  1  3  1  0
  1  7  1  0
  4  5  1  0
  4  8  1  0
  4  9  1  0
  5  6  1  0
  5 10  1  0
  5 11  1  0
  6 12  1  0
  6 13  1  0
  6 14  1  0
M  RAD  1   4   2
M  END
>  <reaction>  (6) 
rxn_92

>  <mol_properties>  (6) 
{"0": {"label": "*3", "atom_type": "N3s"}, "1": {"label": "*4", "atom_type": "H0"}, "3": {"label": "*1", "atom_type": "Cs"}, "4": {"label": "*0", "atom_type": "Cs"}, "6": {"label": "*2", "atom_type": "H0"}}

>  <type>  (6) 
unop_2

>  <geom_source>  (6) 
Heuristics

$$$$

     RDKit          3D

 14 12  0  0  0  0  0  0  0  0999 V2000
   -1.4966    1.6015    0.1122 N   0  0  0  0  0  0  0  0  0  0  0  0
   -1.7273    2.2585    0.8454 H   0  0  0  0  0  0  0  0  0  0  0  0
   -0.9095    2.2745   -0.3620 H   0  0  0  0  0  0  0  0  0  0  0  0
    0.5400    0.3109    0.8611 C   0  0  0  0  0  3  0  0  0  0  0  0
    0.5400   -1.0949    0.2744 C   0  0  0  0  0  0  0  0  0  0  0  0
    0.5400   -1.0949   -1.2489 C   0  0  0  0  0  0  0  0  0  0  0  0
   -0.5178    0.9812    0.4721 H   0  0  0  0  0  0  0  0  0  0  0  0
    1.4214    0.8695    0.5370 H   0  0  0  0  0  0  0  0  0  0  0  0
    0.5400    0.2902    1.9522 H   0  0  0  0  0  0  0  0  0  0  0  0
   -0.3346   -1.6413    0.6384 H   0  0  0  0  0  0  0  0  0  0  0  0
    1.4145   -1.6413    0.6384 H   0  0  0  0  0  0  0  0  0  0  0  0
    1.4214   -0.5806   -1.6396 H   0  0  0  0  0  0  0  0  0  0  0  0
    0.5400   -2.1098   -1.6501 H   0  0  0  0  0  0  0  0  0  0  0  0
   -0.3415   -0.5806   -1.6396 H   0  0  0  0  0  0  0  0  0  0  0  0
  1  2  1  0
  1  3  1  0
  1  7  1  0
  4  5  1  0
  4  8  1  0
  4  9  1  0
  5  6  1  0
  5 10  1  0
  5 11  1  0
  6 12  1  0
  6 13  1  0
  6 14  1  0
M  RAD  1   4   2
M  END
>  <reaction>  (7) 
rxn_92

>  <mol_properties>  (7) 
{"0": {"label": "*3", "atom_type": "N3s"}, "1": {"label": "*4", "atom_type": "H0"}, "3": {"label": "*1", "atom_type": "Cs"}, "4": {"label": "*0", "atom_type": "Cs"}, "6": {"label": "*2", "atom_type": "H0"}}

>  <type>  (7) 
unop_3

>  <geom_source>  (7) 
Heuristics

$$$$

     RDKit          3D

 14 12  0  0  0  0  0  0  0  0999 V2000
   -1.4757    1.6253    0.1267 N   0  0  0  0  0  0  0  0  0  0  0  0
   -1.4493    1.6767   -0.8829 H   0  0  0  0  0  0  0  0  0  0  0  0
   -2.3911    1.4824    0.5320 H   0  0  0  0  0  0  0  0  0  0  0  0
    0.5609    0.3348    0.8756 C   0  0  0  0  0  3  0  0  0  0  0  0
    0.5609   -1.0711    0.2889 C   0  0  0  0  0  0  0  0  0  0  0  0
    0.5609   -1.0711   -1.2345 C   0  0  0  0  0  0  0  0  0  0  0  0
   -0.4969    1.0050    0.4866 H   0  0  0  0  0  0  0  0  0  0  0  0
    1.4423    0.8933    0.5514 H   0  0  0  0  0  0  0  0  0  0  0  0
    0.5609    0.3141    1.9667 H   0  0  0  0  0  0  0  0  0  0  0  0
   -0.3137   -1.6174    0.6529 H   0  0  0  0  0  0  0  0  0  0  0  0
    1.4354   -1.6174    0.6529 H   0  0  0  0  0  0  0  0  0  0  0  0
    1.4423   -0.5568   -1.6251 H   0  0  0  0  0  0  0  0  0  0  0  0
    0.5609   -2.0860   -1.6356 H   0  0  0  0  0  0  0  0  0  0  0  0
   -0.3206   -0.5568   -1.6251 H   0  0  0  0  0  0  0  0  0  0  0  0
  1  2  1  0
  1  3  1  0
  1  7  1  0
  4  5  1  0
  4  8  1  0
  4  9  1  0
  5  6  1  0
  5 10  1  0
  5 11  1  0
  6 12  1  0
  6 13  1  0
  6 14  1  0
M  RAD  1   4   2
M  END
>  <reaction>  (8) 
rxn_92

>  <mol_properties>  (8) 
{"0": {"label": "*3", "atom_type": "N3s"}, "1": {"label": "*4", "atom_type": "H0"}, "3": {"label": "*1", "atom_type": "Cs"}, "4": {"label": "*0", "atom_type": "Cs"}, "6": {"label": "*2", "atom_type": "H0"}}

>  <type>  (8) 
unop_4

>  <geom_source>  (8) 
Heuristics

$$$$

     RDKit          3D

 14 12  0  0  0  0  0  0  0  0999 V2000
   -1.4915    1.6009    0.1248 N   0  0  0  0  0  0  0  0  0  0  0  0
   -1.4393    2.5207    0.5417 H   0  0  0  0  0  0  0  0  0  0  0  0
   -1.4946    2.0450   -0.7837 H   0  0  0  0  0  0  0  0  0  0  0  0
    0.5451    0.3103    0.8737 C   0  0  0  0  0  3  0  0  0  0  0  0
    0.5451   -1.0955    0.2870 C   0  0  0  0  0  0  0  0  0  0  0  0
    0.5451   -1.0955   -1.2364 C   0  0  0  0  0  0  0  0  0  0  0  0
   -0.5126    0.9806    0.4847 H   0  0  0  0  0  0  0  0  0  0  0  0
    1.4266    0.8689    0.5496 H   0  0  0  0  0  0  0  0  0  0  0  0
    0.5451    0.2897    1.9648 H   0  0  0  0  0  0  0  0  0  0  0  0
   -0.3294   -1.6418    0.6510 H   0  0  0  0  0  0  0  0  0  0  0  0
    1.4197   -1.6418    0.6510 H   0  0  0  0  0  0  0  0  0  0  0  0
    1.4266   -0.5812   -1.6270 H   0  0  0  0  0  0  0  0  0  0  0  0
    0.5451   -2.1104   -1.6375 H   0  0  0  0  0  0  0  0  0  0  0  0
   -0.3363   -0.5812   -1.6270 H   0  0  0  0  0  0  0  0  0  0  0  0
  1  2  1  0
  1  3  1  0
  1  7  1  0
  4  5  1  0
  4  8  1  0
  4  9  1  0
  5  6  1  0
  5 10  1  0
  5 11  1  0
  6 12  1  0
  6 13  1  0
  6 14  1  0
M  RAD  1   4   2
M  END
>  <reaction>  (9) 
rxn_92

>  <mol_properties>  (9) 
{"0": {"label": "*3", "atom_type": "N3s"}, "1": {"label": "*4", "atom_type": "H0"}, "3": {"label": "*1", "atom_type": "Cs"}, "4": {"label": "*0", "atom_type": "Cs"}, "6": {"label": "*2", "atom_type": "H0"}}

>  <type>  (9) 
unop_5

>  <geom_source>  (9) 
Heuristics

$$$$

     RDKit          3D

 14 12  0  0  0  0  0  0  0  0999 V2000
   -1.4779    1.6182    0.1304 N   0  0  0  0  0  0  0  0  0  0  0  0
   -1.2375    2.0946   -0.7286 H   0  0  0  0  0  0  0  0  0  0  0  0
   -2.4788    1.4782    0.1649 H   0  0  0  0  0  0  0  0  0  0  0  0
    0.5587    0.3276    0.8793 C   0  0  0  0  0  3  0  0  0  0  0  0
    0.5587   -1.0782    0.2926 C   0  0  0  0  0  0  0  0  0  0  0  0
    0.5587   -1.0782   -1.2308 C   0  0  0  0  0  0  0  0  0  0  0  0
   -0.4990    0.9979    0.4903 H   0  0  0  0  0  0  0  0  0  0  0  0
    1.4402    0.8861    0.5551 H   0  0  0  0  0  0  0  0  0  0  0  0
    0.5587    0.3069    1.9704 H   0  0  0  0  0  0  0  0  0  0  0  0
   -0.3158   -1.6246    0.6566 H   0  0  0  0  0  0  0  0  0  0  0  0
    1.4332   -1.6246    0.6566 H   0  0  0  0  0  0  0  0  0  0  0  0
    1.4402   -0.5640   -1.6214 H   0  0  0  0  0  0  0  0  0  0  0  0
    0.5587   -2.0931   -1.6319 H   0  0  0  0  0  0  0  0  0  0  0  0
   -0.3227   -0.5640   -1.6214 H   0  0  0  0  0  0  0  0  0  0  0  0
  1  2  1  0
  1  3  1  0
  1  7  1  0
  4  5  1  0
  4  8  1  0
  4  9  1  0
  5  6  1  0
  5 10  1  0
  5 11  1  0
  6 12  1  0
  6 13  1  0
  6 14  1  0
M  RAD  1   4   2
M  END
>  <reaction>  (10) 
rxn_92

>  <mol_properties>  (10) 
{"0": {"label": "*3", "atom_type": "N3s"}, "1": {"label": "*4", "atom_type": "H0"}, "3": {"label": "*1", "atom_type": "Cs"}, "4": {"label": "*0", "atom_type": "Cs"}, "6": {"label": "*2", "atom_type": "H0"}}

>  <type>  (10) 
unop_6

>  <geom_source>  (10) 
Heuristics

$$$$

     RDKit          3D

 14 12  0  0  0  0  0  0  0  0999 V2000
   -1.4802    1.6113    0.1308 N   0  0  0  0  0  0  0  0  0  0  0  0
   -1.1560    2.4268   -0.3716 H   0  0  0  0  0  0  0  0  0  0  0  0
   -2.4275    1.5415   -0.2160 H   0  0  0  0  0  0  0  0  0  0  0  0
    0.5564    0.3207    0.8797 C   0  0  0  0  0  3  0  0  0  0  0  0
    0.5564   -1.0851    0.2930 C   0  0  0  0  0  0  0  0  0  0  0  0
    0.5564   -1.0851   -1.2304 C   0  0  0  0  0  0  0  0  0  0  0  0
   -0.5013    0.9910    0.4907 H   0  0  0  0  0  0  0  0  0  0  0  0
    1.4379    0.8793    0.5556 H   0  0  0  0  0  0  0  0  0  0  0  0
    0.5564    0.3000    1.9708 H   0  0  0  0  0  0  0  0  0  0  0  0
   -0.3181   -1.6315    0.6570 H   0  0  0  0  0  0  0  0  0  0  0  0
    1.4309   -1.6315    0.6570 H   0  0  0  0  0  0  0  0  0  0  0  0
    1.4379   -0.5708   -1.6210 H   0  0  0  0  0  0  0  0  0  0  0  0
    0.5564   -2.1000   -1.6315 H   0  0  0  0  0  0  0  0  0  0  0  0
   -0.3251   -0.5708   -1.6210 H   0  0  0  0  0  0  0  0  0  0  0  0
  1  2  1  0
  1  3  1  0
  1  7  1  0
  4  5  1  0
  4  8  1  0
  4  9  1  0
  5  6  1  0
  5 10  1  0
  5 11  1  0
  6 12  1  0
  6 13  1  0
  6 14  1  0
M  RAD  1   4   2
M  END
>  <reaction>  (11) 
rxn_92

>  <mol_properties>  (11) 
{"0": {"label": "*3", "atom_type": "N3s"}, "1": {"label": "*4", "atom_type": "H0"}, "3": {"label": "*1", "atom_type": "Cs"}, "4": {"label": "*0", "atom_type": "Cs"}, "6": {"label": "*2", "atom_type": "H0"}}

>  <type>  (11) 
unop_7

>  <geom_source>  (11) 
Heuristics

$$$$

     RDKit          3D

 14 12  0  0  0  0  0  0  0  0999 V2000
   -1.4900    1.6162    0.0984 N   0  0  0  0  0  0  0  0  0  0  0  0
   -2.2215    1.4510    0.7768 H   0  0  0  0  0  0  0  0  0  0  0  0
   -0.7984    2.2360    0.4985 H   0  0  0  0  0  0  0  0  0  0  0  0
    0.5466    0.3256    0.8474 C   0  0  0  0  0  3  0  0  0  0  0  0
    0.5466   -1.0802    0.2606 C   0  0  0  0  0  0  0  0  0  0  0  0
    0.5466   -1.0802   -1.2627 C   0  0  0  0  0  0  0  0  0  0  0  0
   -0.5111    0.9959    0.4584 H   0  0  0  0  0  0  0  0  0  0  0  0
    1.4281    0.8842    0.5232 H   0  0  0  0  0  0  0  0  0  0  0  0
    0.5466    0.3049    1.9385 H   0  0  0  0  0  0  0  0  0  0  0  0
   -0.3279   -1.6266    0.6246 H   0  0  0  0  0  0  0  0  0  0  0  0
    1.4212   -1.6266    0.6246 H   0  0  0  0  0  0  0  0  0  0  0  0
    1.4281   -0.5660   -1.6533 H   0  0  0  0  0  0  0  0  0  0  0  0
    0.5466   -2.0951   -1.6638 H   0  0  0  0  0  0  0  0  0  0  0  0
   -0.3348   -0.5660   -1.6533 H   0  0  0  0  0  0  0  0  0  0  0  0
  1  2  1  0
  1  3  1  0
  1  7  1  0
  4  5  1  0
  4  8  1  0
  4  9  1  0
  5  6  1  0
  5 10  1  0
  5 11  1  0
  6 12  1  0
  6 13  1  0
  6 14  1  0
M  RAD  1   4   2
M  END
>  <reaction>  (12) 
rxn_92

>  <mol_properties>  (12) 
{"0": {"label": "*3", "atom_type": "N3s"}, "1": {"label": "*4", "atom_type": "H0"}, "3": {"label": "*1", "atom_type": "Cs"}, "4": {"label": "*0", "atom_type": "Cs"}, "6": {"label": "*2", "atom_type": "H0"}}

>  <type>  (12) 
unop_8

>  <geom_source>  (12) 
Heuristics

$$$$

     RDKit          3D

 14 12  0  0  0  0  0  0  0  0999 V2000
   -1.4750    1.6307    0.1192 N   0  0  0  0  0  0  0  0  0  0  0  0
   -1.7355    1.2849   -0.7947 H   0  0  0  0  0  0  0  0  0  0  0  0
   -2.1449    1.5632    0.8737 H   0  0  0  0  0  0  0  0  0  0  0  0
    0.5616    0.3401    0.8681 C   0  0  0  0  0  3  0  0  0  0  0  0
    0.5616   -1.0657    0.2814 C   0  0  0  0  0  0  0  0  0  0  0  0
    0.5616   -1.0657   -1.2419 C   0  0  0  0  0  0  0  0  0  0  0  0
   -0.4962    1.0104    0.4792 H   0  0  0  0  0  0  0  0  0  0  0  0
    1.4430    0.8987    0.5440 H   0  0  0  0  0  0  0  0  0  0  0  0
    0.5616    0.3195    1.9592 H   0  0  0  0  0  0  0  0  0  0  0  0
   -0.3130   -1.6120    0.6454 H   0  0  0  0  0  0  0  0  0  0  0  0
    1.4361   -1.6120    0.6454 H   0  0  0  0  0  0  0  0  0  0  0  0
    1.4430   -0.5514   -1.6326 H   0  0  0  0  0  0  0  0  0  0  0  0
    0.5616   -2.0806   -1.6431 H   0  0  0  0  0  0  0  0  0  0  0  0
   -0.3199   -0.5514   -1.6326 H   0  0  0  0  0  0  0  0  0  0  0  0
  1  2  1  0
  1  3  1  0
  1  7  1  0
  4  5  1  0
  4  8  1  0
  4  9  1  0
  5  6  1  0
  5 10  1  0
  5 11  1  0
  6 12  1  0
  6 13  1  0
  6 14  1  0
M  RAD  1   4   2
M  END
>  <reaction>  (13) 
rxn_92

>  <mol_properties>  (13) 
{"0": {"label": "*3", "atom_type": "N3s"}, "1": {"label": "*4", "atom_type": "H0"}, "3": {"label": "*1", "atom_type": "Cs"}, "4": {"label": "*0", "atom_type": "Cs"}, "6": {"label": "*2", "atom_type": "H0"}}

>  <type>  (13) 
unop_9

>  <geom_source>  (13) 
Heuristics

$$$$

     RDKit          3D

 14 12  0  0  0  0  0  0  0  0999 V2000
   -1.4856    1.6239    0.0991 N   0  0  0  0  0  0  0  0  0  0  0  0
   -2.3009    1.1196    0.4209 H   0  0  0  0  0  0  0  0  0  0  0  0
   -0.9717    2.1226    0.8131 H   0  0  0  0  0  0  0  0  0  0  0  0
    0.5510    0.3333    0.8481 C   0  0  0  0  0  3  0  0  0  0  0  0
    0.5510   -1.0725    0.2614 C   0  0  0  0  0  0  0  0  0  0  0  0
    0.5510   -1.0725   -1.2620 C   0  0  0  0  0  0  0  0  0  0  0  0
   -0.5067    1.0036    0.4591 H   0  0  0  0  0  0  0  0  0  0  0  0
    1.4325    0.8919    0.5239 H   0  0  0  0  0  0  0  0  0  0  0  0
    0.5510    0.3126    1.9392 H   0  0  0  0  0  0  0  0  0  0  0  0
   -0.3235   -1.6189    0.6254 H   0  0  0  0  0  0  0  0  0  0  0  0
    1.4255   -1.6189    0.6254 H   0  0  0  0  0  0  0  0  0  0  0  0
    1.4325   -0.5582   -1.6526 H   0  0  0  0  0  0  0  0  0  0  0  0
    0.5510   -2.0874   -1.6631 H   0  0  0  0  0  0  0  0  0  0  0  0
   -0.3304   -0.5582   -1.6526 H   0  0  0  0  0  0  0  0  0  0  0  0
  1  2  1  0
  1  3  1  0
  1  7  1  0
  4  5  1  0
  4  8  1  0
  4  9  1  0
  5  6  1  0
  5 10  1  0
  5 11  1  0
  6 12  1  0
  6 13  1  0
  6 14  1  0
M  RAD  1   4   2
M  END
>  <reaction>  (14) 
rxn_92

>  <mol_properties>  (14) 
{"0": {"label": "*3", "atom_type": "N3s"}, "1": {"label": "*4", "atom_type": "H0"}, "3": {"label": "*1", "atom_type": "Cs"}, "4": {"label": "*0", "atom_type": "Cs"}, "6": {"label": "*2", "atom_type": "H0"}}

>  <type>  (14) 
unop_10

>  <geom_source>  (14) 
Heuristics

$$$$

     RDKit          3D

 14 12  0  0  0  0  0  0  0  0999 V2000
   -1.4836    1.6056    0.1296 N   0  0  0  0  0  0  0  0  0  0  0  0
   -1.2283    2.5834    0.0942 H   0  0  0  0  0  0  0  0  0  0  0  0
   -2.1573    1.7126   -0.6168 H   0  0  0  0  0  0  0  0  0  0  0  0
    0.5530    0.3150    0.8786 C   0  0  0  0  0  3  0  0  0  0  0  0
    0.5530   -1.0908    0.2918 C   0  0  0  0  0  0  0  0  0  0  0  0
    0.5530   -1.0908   -1.2315 C   0  0  0  0  0  0  0  0  0  0  0  0
   -0.5048    0.9853    0.4896 H   0  0  0  0  0  0  0  0  0  0  0  0
    1.4344    0.8736    0.5544 H   0  0  0  0  0  0  0  0  0  0  0  0
    0.5530    0.2943    1.9697 H   0  0  0  0  0  0  0  0  0  0  0  0
   -0.3216   -1.6371    0.6559 H   0  0  0  0  0  0  0  0  0  0  0  0
    1.4275   -1.6371    0.6559 H   0  0  0  0  0  0  0  0  0  0  0  0
    1.4344   -0.5765   -1.6221 H   0  0  0  0  0  0  0  0  0  0  0  0
    0.5530   -2.1057   -1.6326 H   0  0  0  0  0  0  0  0  0  0  0  0
   -0.3285   -0.5765   -1.6221 H   0  0  0  0  0  0  0  0  0  0  0  0
  1  2  1  0
  1  3  1  0
  1  7  1  0
  4  5  1  0
  4  8  1  0
  4  9  1  0
  5  6  1  0
  5 10  1  0
  5 11  1  0
  6 12  1  0
  6 13  1  0
  6 14  1  0
M  RAD  1   4   2
M  END
>  <reaction>  (15) 
rxn_92

>  <mol_properties>  (15) 
{"0": {"label": "*3", "atom_type": "N3s"}, "1": {"label": "*4", "atom_type": "H0"}, "3": {"label": "*1", "atom_type": "Cs"}, "4": {"label": "*0", "atom_type": "Cs"}, "6": {"label": "*2", "atom_type": "H0"}}

>  <type>  (15) 
unop_11

>  <geom_source>  (15) 
Heuristics

$$$$

     RDKit          3D

 14 12  0  0  0  0  0  0  0  0999 V2000
   -1.4772    1.6323    0.1102 N   0  0  0  0  0  0  0  0  0  0  0  0
   -2.0206    1.0237   -0.4873 H   0  0  0  0  0  0  0  0  0  0  0  0
   -1.7335    1.7352    1.0830 H   0  0  0  0  0  0  0  0  0  0  0  0
    0.5594    0.3417    0.8592 C   0  0  0  0  0  3  0  0  0  0  0  0
    0.5594   -1.0641    0.2724 C   0  0  0  0  0  0  0  0  0  0  0  0
    0.5594   -1.0641   -1.2509 C   0  0  0  0  0  0  0  0  0  0  0  0
   -0.4984    1.0120    0.4702 H   0  0  0  0  0  0  0  0  0  0  0  0
    1.4408    0.9003    0.5350 H   0  0  0  0  0  0  0  0  0  0  0  0
    0.5594    0.3210    1.9503 H   0  0  0  0  0  0  0  0  0  0  0  0
   -0.3152   -1.6105    0.6364 H   0  0  0  0  0  0  0  0  0  0  0  0
    1.4339   -1.6105    0.6364 H   0  0  0  0  0  0  0  0  0  0  0  0
    1.4408   -0.5498   -1.6415 H   0  0  0  0  0  0  0  0  0  0  0  0
    0.5594   -2.0790   -1.6521 H   0  0  0  0  0  0  0  0  0  0  0  0
   -0.3221   -0.5499   -1.6415 H   0  0  0  0  0  0  0  0  0  0  0  0
  1  2  1  0
  1  3  1  0
  1  7  1  0
  4  5  1  0
  4  8  1  0
  4  9  1  0
  5  6  1  0
  5 10  1  0
  5 11  1  0
  6 12  1  0
  6 13  1  0
  6 14  1  0
M  RAD  1   4   2
M  END
>  <reaction>  (16) 
rxn_92

>  <mol_properties>  (16) 
{"0": {"label": "*3", "atom_type": "N3s"}, "1": {"label": "*4", "atom_type": "H0"}, "3": {"label": "*1", "atom_type": "Cs"}, "4": {"label": "*0", "atom_type": "Cs"}, "6": {"label": "*2", "atom_type": "H0"}}

>  <type>  (16) 
unop_12

>  <geom_source>  (16) 
Heuristics

$$$$
