
     RDKit          3D

  6  5  0  0  0  0  0  0  0  0999 V2000
   -0.5072   -0.0291   -0.0097 C   0  0  0  0  0  0  0  0  0  0  0  0
    1.1321   -0.1527   -0.7687 S   0  0  0  0  0  0  0  0  0  0  0  0
   -0.6174   -0.7330    0.8127 H   0  0  0  0  0  0  0  0  0  0  0  0
   -0.5863    0.9827    0.3845 H   0  0  0  0  0  0  0  0  0  0  0  0
   -1.2962   -0.1800   -0.7434 H   0  0  0  0  0  0  0  0  0  0  0  0
    1.0312   -1.4237   -1.1764 H   0  0  0  0  0  0  0  0  0  0  0  0
  1  2  1  0
  1  3  1  0
  1  4  1  0
  1  5  1  0
  2  6  1  0
M  END
>  <reaction>  (1) 
rxn_1862

>  <mol_properties>  (1) 
{"0": {"label": "donator", "atom_type": "Cs"}, "2": {"label": "d_hydrogen", "atom_type": "H0"}}

>  <type>  (1) 
r1h

$$$$

     RDKit          3D

  5  4  0  0  0  0  0  0  0  0999 V2000
    2.6285   -0.7060   -0.0550 S   0  0  0  0  0  0  0  0  0  0  0  0
    1.1409   -0.3060    0.0719 C   0  0  0  0  0  3  0  0  0  0  0  0
   -0.1297    0.0350    0.1804 C   0  0  0  0  0  0  0  0  0  0  0  0
   -1.3079    0.3511    0.2810 C   0  0  0  0  0  0  0  0  0  0  0  0
   -2.3318    0.6259    0.3684 H   0  0  0  0  0  0  0  0  0  0  0  0
  1  2  2  0
  2  3  1  0
  3  4  3  0
  4  5  1  0
M  RAD  1   2   2
M  END
>  <reaction>  (2) 
rxn_1862

>  <mol_properties>  (2) 
{"1": {"label": "acceptor", "atom_type": "CS"}}

>  <type>  (2) 
r2

$$$$

     RDKit          3D

  6  5  0  0  0  0  0  0  0  0999 V2000
   -1.9761    1.0978   -0.6585 S   0  0  0  0  0  0  0  0  0  0  0  0
   -1.0502    0.0275    0.1158 C   0  0  0  0  0  0  0  0  0  0  0  0
    0.3587   -0.0566   -0.0000 C   0  0  0  0  0  0  0  0  0  0  0  0
    1.5530   -0.1477   -0.0815 C   0  0  0  0  0  0  0  0  0  0  0  0
   -1.4972   -0.7045    0.7881 H   0  0  0  0  0  0  0  0  0  0  0  0
    2.6118   -0.2165   -0.1639 H   0  0  0  0  0  0  0  0  0  0  0  0
  1  2  2  0
  2  3  1  0
  2  5  1  0
  3  4  3  0
  4  6  1  0
M  END
>  <reaction>  (3) 
rxn_1862

>  <mol_properties>  (3) 
{"1": {"label": "acceptor", "atom_type": "CS"}, "5": {"label": "a_hydrogen", "atom_type": "H0"}}

>  <type>  (3) 
r2h

$$$$

     RDKit          3D

 11  9  0  0  0  0  0  0  0  0999 V2000
    0.7183    1.6890   -0.3223 S   0  0  0  0  0  0  0  0  0  0  0  0
    0.2996    0.6084    0.7738 C   0  0  0  0  0  0  0  0  0  0  0  0
    0.0570    0.7489    2.1422 C   0  0  0  0  0  0  0  0  0  0  0  0
   -0.1703    0.7628    3.3245 C   0  0  0  0  0  0  0  0  0  0  0  0
   -0.3657    0.8062    4.3696 H   0  0  0  0  0  0  0  0  0  0  0  0
   -0.0372   -1.8711   -0.2559 C   0  0  0  0  0  3  0  0  0  0  0  0
   -0.4352   -1.6089   -1.9416 S   0  0  0  0  0  0  0  0  0  0  0  0
    0.1190   -0.6202    0.3451 H   0  0  0  0  0  0  0  0  0  0  0  0
   -0.8692   -2.3305    0.2708 H   0  0  0  0  0  0  0  0  0  0  0  0
    0.9148   -2.3593   -0.0660 H   0  0  0  0  0  0  0  0  0  0  0  0
    0.7591   -1.1459   -2.3327 H   0  0  0  0  0  0  0  0  0  0  0  0
  1  2  2  0
  2  3  1  0
  2  8  1  0
  3  4  3  0
  4  5  1  0
  6  7  1  0
  6  9  1  0
  6 10  1  0
  7 11  1  0
M  RAD  1   6   2
M  END
>  <reaction>  (4) 
rxn_1862

>  <mol_properties>  (4) 
{"0": {"label": "*0", "atom_type": "S2d"}, "1": {"label": "*1", "atom_type": "CS"}, "5": {"label": "*3", "atom_type": "Cs"}, "6": {"label": "*4", "atom_type": "S2s"}, "7": {"label": "*2", "atom_type": "H0"}}

>  <type>  (4) 
ts

$$$$

     RDKit          3D

 11  9  0  0  0  0  0  0  0  0999 V2000
   -1.3181    1.2906    1.5034 S   0  0  0  0  0  0  0  0  0  0  0  0
   -0.1134    0.7833    0.5580 C   0  0  0  0  0  3  0  0  0  0  0  0
    1.2619    1.0104    0.8084 C   0  0  0  0  0  0  0  0  0  0  0  0
    2.4335    1.1899    0.9990 C   0  0  0  0  0  0  0  0  0  0  0  0
    3.4721    1.3491    1.1679 H   0  0  0  0  0  0  0  0  0  0  0  0
   -0.1134   -1.6504   -0.3944 C   0  0  0  0  0  0  0  0  0  0  0  0
   -0.1134   -1.6504   -2.2050 S   0  0  0  0  0  0  0  0  0  0  0  0
   -0.1134   -0.4345    0.0814 H   0  0  0  0  0  0  0  0  0  0  0  0
   -1.0341   -2.1445   -0.0884 H   0  0  0  0  0  0  0  0  0  0  0  0
    0.7310   -2.2104    0.0021 H   0  0  0  0  0  0  0  0  0  0  0  0
    1.0569   -1.0222   -2.3714 H   0  0  0  0  0  0  0  0  0  0  0  0
  1  2  2  0
  2  3  1  0
  3  4  3  0
  4  5  1  0
  6  7  1  0
  6  8  1  0
  6  9  1  0
  6 10  1  0
  7 11  1  0
M  RAD  1   2   2
M  END
>  <reaction>  (5) 
rxn_1862

>  <mol_properties>  (5) 
{"0": {"label": "*0", "atom_type": "S2d"}, "1": {"label": "*1", "atom_type": "CS"}, "5": {"label": "*3", "atom_type": "Cs"}, "6": {"label": "*4", "atom_type": "S2s"}, "7": {"label": "*2", "atom_type": "H0"}}

>  <type>  (5) 
unop_1

>  <geom_source>  (5) 
Heuristics

$$$$

     RDKit          3D

 11  9  0  0  0  0  0  0  0  0999 V2000
   -0.6176    1.8520   -0.1396 S   0  0  0  0  0  0  0  0  0  0  0  0
    0.0780    0.6522    0.6846 C   0  0  0  0  0  3  0  0  0  0  0  0
    0.4009    0.6986    2.0627 C   0  0  0  0  0  0  0  0  0  0  0  0
    0.6842    0.7138    3.2292 C   0  0  0  0  0  0  0  0  0  0  0  0
    0.9352    0.7272    4.2633 H   0  0  0  0  0  0  0  0  0  0  0  0
    0.0780   -1.7814   -0.2678 C   0  0  0  0  0  0  0  0  0  0  0  0
    0.0780   -1.7814   -2.0784 S   0  0  0  0  0  0  0  0  0  0  0  0
    0.0780   -0.5656    0.2080 H   0  0  0  0  0  0  0  0  0  0  0  0
   -0.8427   -2.2756    0.0382 H   0  0  0  0  0  0  0  0  0  0  0  0
    0.9223   -2.3415    0.1287 H   0  0  0  0  0  0  0  0  0  0  0  0
    1.2483   -1.1533   -2.2448 H   0  0  0  0  0  0  0  0  0  0  0  0
  1  2  2  0
  2  3  1  0
  3  4  3  0
  4  5  1  0
  6  7  1  0
  6  8  1  0
  6  9  1  0
  6 10  1  0
  7 11  1  0
M  RAD  1   2   2
M  END
>  <reaction>  (6) 
rxn_1862

>  <mol_properties>  (6) 
{"0": {"label": "*0", "atom_type": "S2d"}, "1": {"label": "*1", "atom_type": "CS"}, "5": {"label": "*3", "atom_type": "Cs"}, "6": {"label": "*4", "atom_type": "S2s"}, "7": {"label": "*2", "atom_type": "H0"}}

>  <type>  (6) 
unop_2

>  <geom_source>  (6) 
Heuristics

$$$$

     RDKit          3D

 11  9  0  0  0  0  0  0  0  0999 V2000
   -0.8852    1.0323    2.0784 S   0  0  0  0  0  0  0  0  0  0  0  0
   -0.1897    0.7105    0.6589 C   0  0  0  0  0  3  0  0  0  0  0  0
    0.9885    1.3308    0.1764 C   0  0  0  0  0  0  0  0  0  0  0  0
    1.9856    1.8423   -0.2542 C   0  0  0  0  0  0  0  0  0  0  0  0
    2.8696    2.2957   -0.6359 H   0  0  0  0  0  0  0  0  0  0  0  0
   -0.1897   -1.7232   -0.2935 C   0  0  0  0  0  0  0  0  0  0  0  0
   -0.1897   -1.7232   -2.1041 S   0  0  0  0  0  0  0  0  0  0  0  0
   -0.1897   -0.5073    0.1823 H   0  0  0  0  0  0  0  0  0  0  0  0
   -1.1104   -2.2173    0.0125 H   0  0  0  0  0  0  0  0  0  0  0  0
    0.6547   -2.2832    0.1030 H   0  0  0  0  0  0  0  0  0  0  0  0
    0.9806   -1.0950   -2.2705 H   0  0  0  0  0  0  0  0  0  0  0  0
  1  2  2  0
  2  3  1  0
  3  4  3  0
  4  5  1  0
  6  7  1  0
  6  8  1  0
  6  9  1  0
  6 10  1  0
  7 11  1  0
M  RAD  1   2   2
M  END
>  <reaction>  (7) 
rxn_1862

>  <mol_properties>  (7) 
{"0": {"label": "*0", "atom_type": "S2d"}, "1": {"label": "*1", "atom_type": "CS"}, "5": {"label": "*3", "atom_type": "Cs"}, "6": {"label": "*4", "atom_type": "S2s"}, "7": {"label": "*2", "atom_type": "H0"}}

>  <type>  (7) 
unop_3

>  <geom_source>  (7) 
Heuristics

$$$$

     RDKit          3D

 11  9  0  0  0  0  0  0  0  0999 V2000
    1.0964    1.7323    0.2570 S   0  0  0  0  0  0  0  0  0  0  0  0
   -0.1083    0.7181    0.6070 C   0  0  0  0  0  3  0  0  0  0  0  0
   -0.8354    0.7146    1.8223 C   0  0  0  0  0  0  0  0  0  0  0  0
   -1.4660    0.6919    2.8437 C   0  0  0  0  0  0  0  0  0  0  0  0
   -2.0250    0.6717    3.7491 H   0  0  0  0  0  0  0  0  0  0  0  0
   -0.1083   -1.7156   -0.3453 C   0  0  0  0  0  0  0  0  0  0  0  0
   -0.1083   -1.7156   -2.1560 S   0  0  0  0  0  0  0  0  0  0  0  0
   -0.1083   -0.4998    0.1305 H   0  0  0  0  0  0  0  0  0  0  0  0
   -1.0290   -2.2097   -0.0394 H   0  0  0  0  0  0  0  0  0  0  0  0
    0.7361   -2.2756    0.0512 H   0  0  0  0  0  0  0  0  0  0  0  0
    1.0620   -1.0875   -2.3224 H   0  0  0  0  0  0  0  0  0  0  0  0
  1  2  2  0
  2  3  1  0
  3  4  3  0
  4  5  1  0
  6  7  1  0
  6  8  1  0
  6  9  1  0
  6 10  1  0
  7 11  1  0
M  RAD  1   2   2
M  END
>  <reaction>  (8) 
rxn_1862

>  <mol_properties>  (8) 
{"0": {"label": "*0", "atom_type": "S2d"}, "1": {"label": "*1", "atom_type": "CS"}, "5": {"label": "*3", "atom_type": "Cs"}, "6": {"label": "*4", "atom_type": "S2s"}, "7": {"label": "*2", "atom_type": "H0"}}

>  <type>  (8) 
unop_4

>  <geom_source>  (8) 
Heuristics

$$$$

     RDKit          3D

 11  9  0  0  0  0  0  0  0  0999 V2000
   -0.0094    0.8574    2.3612 S   0  0  0  0  0  0  0  0  0  0  0  0
   -0.0094    0.6036    0.7681 C   0  0  0  0  0  3  0  0  0  0  0  0
   -0.0094    1.6244   -0.2136 C   0  0  0  0  0  0  0  0  0  0  0  0
   -0.0094    2.4715   -1.0643 C   0  0  0  0  0  0  0  0  0  0  0  0
   -0.0094    3.2225   -1.8184 H   0  0  0  0  0  0  0  0  0  0  0  0
   -0.0094   -1.8301   -0.1843 C   0  0  0  0  0  0  0  0  0  0  0  0
   -0.0094   -1.8301   -1.9949 S   0  0  0  0  0  0  0  0  0  0  0  0
   -0.0094   -0.6143    0.2915 H   0  0  0  0  0  0  0  0  0  0  0  0
   -0.9301   -2.3242    0.1217 H   0  0  0  0  0  0  0  0  0  0  0  0
    0.8349   -2.3901    0.2122 H   0  0  0  0  0  0  0  0  0  0  0  0
    1.1609   -1.2020   -2.1613 H   0  0  0  0  0  0  0  0  0  0  0  0
  1  2  2  0
  2  3  1  0
  3  4  3  0
  4  5  1  0
  6  7  1  0
  6  8  1  0
  6  9  1  0
  6 10  1  0
  7 11  1  0
M  RAD  1   2   2
M  END
>  <reaction>  (9) 
rxn_1862

>  <mol_properties>  (9) 
{"0": {"label": "*0", "atom_type": "S2d"}, "1": {"label": "*1", "atom_type": "CS"}, "5": {"label": "*3", "atom_type": "Cs"}, "6": {"label": "*4", "atom_type": "S2s"}, "7": {"label": "*2", "atom_type": "H0"}}

>  <type>  (9) 
unop_5

>  <geom_source>  (9) 
Heuristics

$$$$

     RDKit          3D

 11  9  0  0  0  0  0  0  0  0999 V2000
    1.3608    1.5352    0.8459 S   0  0  0  0  0  0  0  0  0  0  0  0
   -0.0302    0.7745    0.5483 C   0  0  0  0  0  3  0  0  0  0  0  0
   -1.1682    0.8104    1.3906 C   0  0  0  0  0  0  0  0  0  0  0  0
   -2.1453    0.8255    2.0878 C   0  0  0  0  0  0  0  0  0  0  0  0
   -3.0115    0.8389    2.7060 H   0  0  0  0  0  0  0  0  0  0  0  0
   -0.0302   -1.6592   -0.4041 C   0  0  0  0  0  0  0  0  0  0  0  0
   -0.0302   -1.6592   -2.2147 S   0  0  0  0  0  0  0  0  0  0  0  0
   -0.0302   -0.4434    0.0717 H   0  0  0  0  0  0  0  0  0  0  0  0
   -0.9509   -2.1534   -0.0982 H   0  0  0  0  0  0  0  0  0  0  0  0
    0.8141   -2.2192   -0.0076 H   0  0  0  0  0  0  0  0  0  0  0  0
    1.1401   -1.0311   -2.3811 H   0  0  0  0  0  0  0  0  0  0  0  0
  1  2  2  0
  2  3  1  0
  3  4  3  0
  4  5  1  0
  6  7  1  0
  6  8  1  0
  6  9  1  0
  6 10  1  0
  7 11  1  0
M  RAD  1   2   2
M  END
>  <reaction>  (10) 
rxn_1862

>  <mol_properties>  (10) 
{"0": {"label": "*0", "atom_type": "S2d"}, "1": {"label": "*1", "atom_type": "CS"}, "5": {"label": "*3", "atom_type": "Cs"}, "6": {"label": "*4", "atom_type": "S2s"}, "7": {"label": "*2", "atom_type": "H0"}}

>  <type>  (10) 
unop_6

>  <geom_source>  (10) 
Heuristics

$$$$

     RDKit          3D

 11  9  0  0  0  0  0  0  0  0999 V2000
    1.2992    1.2906    1.5034 S   0  0  0  0  0  0  0  0  0  0  0  0
    0.0946    0.7833    0.5580 C   0  0  0  0  0  3  0  0  0  0  0  0
   -1.2807    1.0104    0.8084 C   0  0  0  0  0  0  0  0  0  0  0  0
   -2.4523    1.1899    0.9990 C   0  0  0  0  0  0  0  0  0  0  0  0
   -3.4910    1.3491    1.1679 H   0  0  0  0  0  0  0  0  0  0  0  0
    0.0946   -1.6504   -0.3944 C   0  0  0  0  0  0  0  0  0  0  0  0
    0.0946   -1.6504   -2.2050 S   0  0  0  0  0  0  0  0  0  0  0  0
    0.0946   -0.4345    0.0814 H   0  0  0  0  0  0  0  0  0  0  0  0
   -0.8261   -2.1445   -0.0884 H   0  0  0  0  0  0  0  0  0  0  0  0
    0.9389   -2.2104    0.0021 H   0  0  0  0  0  0  0  0  0  0  0  0
    1.2649   -1.0222   -2.3714 H   0  0  0  0  0  0  0  0  0  0  0  0
  1  2  2  0
  2  3  1  0
  3  4  3  0
  4  5  1  0
  6  7  1  0
  6  8  1  0
  6  9  1  0
  6 10  1  0
  7 11  1  0
M  RAD  1   2   2
M  END
>  <reaction>  (11) 
rxn_1862

>  <mol_properties>  (11) 
{"0": {"label": "*0", "atom_type": "S2d"}, "1": {"label": "*1", "atom_type": "CS"}, "5": {"label": "*3", "atom_type": "Cs"}, "6": {"label": "*4", "atom_type": "S2s"}, "7": {"label": "*2", "atom_type": "H0"}}

>  <type>  (11) 
unop_7

>  <geom_source>  (11) 
Heuristics

$$$$

     RDKit          3D

 11  9  0  0  0  0  0  0  0  0999 V2000
   -1.3797    1.5352    0.8459 S   0  0  0  0  0  0  0  0  0  0  0  0
    0.0114    0.7745    0.5483 C   0  0  0  0  0  3  0  0  0  0  0  0
    1.1493    0.8104    1.3906 C   0  0  0  0  0  0  0  0  0  0  0  0
    2.1265    0.8255    2.0878 C   0  0  0  0  0  0  0  0  0  0  0  0
    2.9927    0.8389    2.7060 H   0  0  0  0  0  0  0  0  0  0  0  0
    0.0114   -1.6592   -0.4041 C   0  0  0  0  0  0  0  0  0  0  0  0
    0.0114   -1.6592   -2.2147 S   0  0  0  0  0  0  0  0  0  0  0  0
    0.0114   -0.4434    0.0717 H   0  0  0  0  0  0  0  0  0  0  0  0
   -0.9093   -2.1534   -0.0982 H   0  0  0  0  0  0  0  0  0  0  0  0
    0.8557   -2.2192   -0.0076 H   0  0  0  0  0  0  0  0  0  0  0  0
    1.1817   -1.0311   -2.3811 H   0  0  0  0  0  0  0  0  0  0  0  0
  1  2  2  0
  2  3  1  0
  3  4  3  0
  4  5  1  0
  6  7  1  0
  6  8  1  0
  6  9  1  0
  6 10  1  0
  7 11  1  0
M  RAD  1   2   2
M  END
>  <reaction>  (12) 
rxn_1862

>  <mol_properties>  (12) 
{"0": {"label": "*0", "atom_type": "S2d"}, "1": {"label": "*1", "atom_type": "CS"}, "5": {"label": "*3", "atom_type": "Cs"}, "6": {"label": "*4", "atom_type": "S2s"}, "7": {"label": "*2", "atom_type": "H0"}}

>  <type>  (12) 
unop_8

>  <geom_source>  (12) 
Heuristics

$$$$

     RDKit          3D

 11  9  0  0  0  0  0  0  0  0999 V2000
    0.5987    1.8520   -0.1396 S   0  0  0  0  0  0  0  0  0  0  0  0
   -0.0968    0.6522    0.6846 C   0  0  0  0  0  3  0  0  0  0  0  0
   -0.4198    0.6986    2.0627 C   0  0  0  0  0  0  0  0  0  0  0  0
   -0.7030    0.7138    3.2292 C   0  0  0  0  0  0  0  0  0  0  0  0
   -0.9541    0.7272    4.2633 H   0  0  0  0  0  0  0  0  0  0  0  0
   -0.0968   -1.7814   -0.2678 C   0  0  0  0  0  0  0  0  0  0  0  0
   -0.0968   -1.7814   -2.0784 S   0  0  0  0  0  0  0  0  0  0  0  0
   -0.0968   -0.5656    0.2080 H   0  0  0  0  0  0  0  0  0  0  0  0
   -1.0175   -2.2756    0.0382 H   0  0  0  0  0  0  0  0  0  0  0  0
    0.7475   -2.3414    0.1287 H   0  0  0  0  0  0  0  0  0  0  0  0
    1.0735   -1.1533   -2.2448 H   0  0  0  0  0  0  0  0  0  0  0  0
  1  2  2  0
  2  3  1  0
  3  4  3  0
  4  5  1  0
  6  7  1  0
  6  8  1  0
  6  9  1  0
  6 10  1  0
  7 11  1  0
M  RAD  1   2   2
M  END
>  <reaction>  (13) 
rxn_1862

>  <mol_properties>  (13) 
{"0": {"label": "*0", "atom_type": "S2d"}, "1": {"label": "*1", "atom_type": "CS"}, "5": {"label": "*3", "atom_type": "Cs"}, "6": {"label": "*4", "atom_type": "S2s"}, "7": {"label": "*2", "atom_type": "H0"}}

>  <type>  (13) 
unop_9

>  <geom_source>  (13) 
Heuristics

$$$$

     RDKit          3D

 11  9  0  0  0  0  0  0  0  0999 V2000
   -1.1152    1.7323    0.2570 S   0  0  0  0  0  0  0  0  0  0  0  0
    0.0895    0.7181    0.6070 C   0  0  0  0  0  3  0  0  0  0  0  0
    0.8166    0.7146    1.8223 C   0  0  0  0  0  0  0  0  0  0  0  0
    1.4471    0.6919    2.8437 C   0  0  0  0  0  0  0  0  0  0  0  0
    2.0061    0.6717    3.7491 H   0  0  0  0  0  0  0  0  0  0  0  0
    0.0895   -1.7156   -0.3453 C   0  0  0  0  0  0  0  0  0  0  0  0
    0.0895   -1.7156   -2.1560 S   0  0  0  0  0  0  0  0  0  0  0  0
    0.0895   -0.4998    0.1305 H   0  0  0  0  0  0  0  0  0  0  0  0
   -0.8312   -2.2097   -0.0394 H   0  0  0  0  0  0  0  0  0  0  0  0
    0.9338   -2.2756    0.0512 H   0  0  0  0  0  0  0  0  0  0  0  0
    1.2598   -1.0875   -2.3224 H   0  0  0  0  0  0  0  0  0  0  0  0
  1  2  2  0
  2  3  1  0
  3  4  3  0
  4  5  1  0
  6  7  1  0
  6  8  1  0
  6  9  1  0
  6 10  1  0
  7 11  1  0
M  RAD  1   2   2
M  END
>  <reaction>  (14) 
rxn_1862

>  <mol_properties>  (14) 
{"0": {"label": "*0", "atom_type": "S2d"}, "1": {"label": "*1", "atom_type": "CS"}, "5": {"label": "*3", "atom_type": "Cs"}, "6": {"label": "*4", "atom_type": "S2s"}, "7": {"label": "*2", "atom_type": "H0"}}

>  <type>  (14) 
unop_10

>  <geom_source>  (14) 
Heuristics

$$$$

     RDKit          3D

 11  9  0  0  0  0  0  0  0  0999 V2000
    0.8664    1.0323    2.0784 S   0  0  0  0  0  0  0  0  0  0  0  0
    0.1708    0.7105    0.6589 C   0  0  0  0  0  3  0  0  0  0  0  0
   -1.0073    1.3308    0.1764 C   0  0  0  0  0  0  0  0  0  0  0  0
   -2.0045    1.8423   -0.2542 C   0  0  0  0  0  0  0  0  0  0  0  0
   -2.8884    2.2957   -0.6359 H   0  0  0  0  0  0  0  0  0  0  0  0
    0.1708   -1.7232   -0.2935 C   0  0  0  0  0  0  0  0  0  0  0  0
    0.1708   -1.7232   -2.1041 S   0  0  0  0  0  0  0  0  0  0  0  0
    0.1708   -0.5073    0.1823 H   0  0  0  0  0  0  0  0  0  0  0  0
   -0.7498   -2.2173    0.0125 H   0  0  0  0  0  0  0  0  0  0  0  0
    1.0152   -2.2832    0.1030 H   0  0  0  0  0  0  0  0  0  0  0  0
    1.3411   -1.0950   -2.2705 H   0  0  0  0  0  0  0  0  0  0  0  0
  1  2  2  0
  2  3  1  0
  3  4  3  0
  4  5  1  0
  6  7  1  0
  6  8  1  0
  6  9  1  0
  6 10  1  0
  7 11  1  0
M  RAD  1   2   2
M  END
>  <reaction>  (15) 
rxn_1862

>  <mol_properties>  (15) 
{"0": {"label": "*0", "atom_type": "S2d"}, "1": {"label": "*1", "atom_type": "CS"}, "5": {"label": "*3", "atom_type": "Cs"}, "6": {"label": "*4", "atom_type": "S2s"}, "7": {"label": "*2", "atom_type": "H0"}}

>  <type>  (15) 
unop_11

>  <geom_source>  (15) 
Heuristics

$$$$

     RDKit          3D

 11  9  0  0  0  0  0  0  0  0999 V2000
   -0.0094    1.8899   -0.2773 S   0  0  0  0  0  0  0  0  0  0  0  0
   -0.0094    0.6223    0.7204 C   0  0  0  0  0  3  0  0  0  0  0  0
   -0.0094    0.7056    2.1342 C   0  0  0  0  0  0  0  0  0  0  0  0
   -0.0094    0.7504    3.3339 C   0  0  0  0  0  0  0  0  0  0  0  0
   -0.0094    0.7901    4.3974 H   0  0  0  0  0  0  0  0  0  0  0  0
   -0.0094   -1.8114   -0.2319 C   0  0  0  0  0  0  0  0  0  0  0  0
   -0.0094   -1.8114   -2.0426 S   0  0  0  0  0  0  0  0  0  0  0  0
   -0.0094   -0.5956    0.2439 H   0  0  0  0  0  0  0  0  0  0  0  0
   -0.9301   -2.3056    0.0740 H   0  0  0  0  0  0  0  0  0  0  0  0
    0.8349   -2.3714    0.1646 H   0  0  0  0  0  0  0  0  0  0  0  0
    1.1609   -1.1833   -2.2090 H   0  0  0  0  0  0  0  0  0  0  0  0
  1  2  2  0
  2  3  1  0
  3  4  3  0
  4  5  1  0
  6  7  1  0
  6  8  1  0
  6  9  1  0
  6 10  1  0
  7 11  1  0
M  RAD  1   2   2
M  END
>  <reaction>  (16) 
rxn_1862

>  <mol_properties>  (16) 
{"0": {"label": "*0", "atom_type": "S2d"}, "1": {"label": "*1", "atom_type": "CS"}, "5": {"label": "*3", "atom_type": "Cs"}, "6": {"label": "*4", "atom_type": "S2s"}, "7": {"label": "*2", "atom_type": "H0"}}

>  <type>  (16) 
unop_12

>  <geom_source>  (16) 
Heuristics

$$$$

     RDKit          3D

 11  9  0  0  0  0  0  0  0  0999 V2000
   -2.4499    0.3331    0.1897 S   0  0  0  0  0  0  0  0  0  0  0  0
    0.5781    2.3877   -1.0359 S   0  0  0  0  0  0  0  0  0  0  0  0
    0.7687    0.8726   -0.4589 C   0  0  0  0  0  0  0  0  0  0  0  0
   -1.2068   -0.8245   -0.4495 C   0  0  0  0  0  3  0  0  0  0  0  0
    1.8917    0.5580    0.3775 C   0  0  0  0  0  0  0  0  0  0  0  0
    2.8346    0.2926    1.0801 C   0  0  0  0  0  0  0  0  0  0  0  0
   -0.1209   -0.0751   -0.7653 H   0  0  0  0  0  0  0  0  0  0  0  0
   -0.9657   -1.5801    0.3265 H   0  0  0  0  0  0  0  0  0  0  0  0
   -1.5993   -1.3320   -1.3549 H   0  0  0  0  0  0  0  0  0  0  0  0
   -3.3930   -0.6922    0.3938 H   0  0  0  0  0  0  0  0  0  0  0  0
    3.6624    0.0597    1.6970 H   0  0  0  0  0  0  0  0  0  0  0  0
  1  4  1  0
  1 10  1  0
  2  3  2  0
  3  5  1  0
  3  7  1  0
  4  8  1  0
  4  9  1  0
  5  6  3  0
  6 11  1  0
M  RAD  1   4   2
M  END
>  <reaction>  (17) 
rxn_1862

>  <mol_properties>  (17) 
{"0": {"label": "*0", "atom_type": "S2d"}, "1": {"label": "*1", "atom_type": "CS"}, "5": {"label": "*3", "atom_type": "Cs"}, "6": {"label": "*4", "atom_type": "S2s"}, "7": {"label": "*2", "atom_type": "H0"}}

>  <type>  (17) 
unop_13

>  <geom_source>  (17) 
AutoTST

$$$$
