
     RDKit          3D

 16 15  0  0  0  0  0  0  0  0999 V2000
    1.7961   -0.3807    1.6176 C   0  0  0  0  0  0  0  0  0  0  0  0
    0.8562   -0.8708    0.8256 C   0  0  0  0  0  0  0  0  0  0  0  0
    0.0895   -0.0826   -0.2048 C   0  0  0  0  0  0  0  0  0  0  0  0
   -1.4061   -0.1111    0.0982 C   0  0  0  0  0  0  0  0  0  0  0  0
    0.4476   -0.5902   -1.5797 C   0  0  0  0  0  0  0  0  0  0  0  0
   -0.3793   -1.1113   -2.4728 C   0  0  0  0  0  0  0  0  0  0  0  0
    2.3110   -1.0032    2.3386 H   0  0  0  0  0  0  0  0  0  0  0  0
    2.0846    0.6643    1.5737 H   0  0  0  0  0  0  0  0  0  0  0  0
    0.5921   -1.9241    0.8925 H   0  0  0  0  0  0  0  0  0  0  0  0
    0.4358    0.9557   -0.1462 H   0  0  0  0  0  0  0  0  0  0  0  0
   -1.5968    0.3080    1.0865 H   0  0  0  0  0  0  0  0  0  0  0  0
   -1.9674    0.4693   -0.6359 H   0  0  0  0  0  0  0  0  0  0  0  0
   -1.7902   -1.1338    0.0883 H   0  0  0  0  0  0  0  0  0  0  0  0
    1.5049   -0.5197   -1.8214 H   0  0  0  0  0  0  0  0  0  0  0  0
   -1.4421   -1.2131   -2.2889 H   0  0  0  0  0  0  0  0  0  0  0  0
   -0.0162   -1.4558   -3.4328 H   0  0  0  0  0  0  0  0  0  0  0  0
  1  2  2  3
  1  7  1  0
  1  8  1  0
  2  3  1  0
  2  9  1  0
  3  4  1  0
  3  5  1  0
  3 10  1  0
  4 11  1  0
  4 12  1  0
  4 13  1  0
  5  6  2  3
  5 14  1  0
  6 15  1  0
  6 16  1  0
M  END
>  <reaction>  (1) 
rxn_1209

>  <mol_properties>  (1) 
{"2": {"label": "donator", "atom_type": "Cs"}, "9": {"label": "d_hydrogen", "atom_type": "H0"}}

>  <type>  (1) 
r1h

$$$$

     RDKit          3D

  6  5  0  0  0  0  0  0  0  0999 V2000
   -0.5036    0.1196    0.0353 C   0  0  0  0  0  0  0  0  0  0  0  0
    0.9526    0.1121    0.2227 C   0  0  0  0  0  3  0  0  0  0  0  0
    2.2066   -0.6670   -0.2771 S   0  0  0  0  0  0  0  0  0  0  0  0
   -0.8527   -0.6450   -0.6654 H   0  0  0  0  0  0  0  0  0  0  0  0
   -0.8134    1.1060   -0.3189 H   0  0  0  0  0  0  0  0  0  0  0  0
   -0.9894   -0.0257    1.0035 H   0  0  0  0  0  0  0  0  0  0  0  0
  1  2  1  0
  1  4  1  0
  1  5  1  0
  1  6  1  0
  2  3  2  0
M  RAD  1   2   2
M  END
>  <reaction>  (2) 
rxn_1209

>  <mol_properties>  (2) 
{"1": {"label": "acceptor", "atom_type": "CS"}}

>  <type>  (2) 
r2

$$$$

     RDKit          3D

  7  6  0  0  0  0  0  0  0  0999 V2000
   -0.6782    0.0507    0.0301 C   0  0  0  0  0  0  0  0  0  0  0  0
    0.8092    0.0996    0.0213 C   0  0  0  0  0  0  0  0  0  0  0  0
    1.7473    0.7521    1.1507 S   0  0  0  0  0  0  0  0  0  0  0  0
   -1.0667    0.5456   -0.8653 H   0  0  0  0  0  0  0  0  0  0  0  0
   -1.0112   -0.9904   -0.0239 H   0  0  0  0  0  0  0  0  0  0  0  0
   -1.0920    0.5225    0.9188 H   0  0  0  0  0  0  0  0  0  0  0  0
    1.2740   -0.3620   -0.8520 H   0  0  0  0  0  0  0  0  0  0  0  0
  1  2  1  0
  1  4  1  0
  1  5  1  0
  1  6  1  0
  2  3  2  0
  2  7  1  0
M  END
>  <reaction>  (3) 
rxn_1209

>  <mol_properties>  (3) 
{"0": {"label": "a_hydrogen", "atom_type": "H0"}, "2": {"label": "acceptor", "atom_type": "CS"}}

>  <type>  (3) 
r2h

$$$$

     RDKit          3D

 22 20  0  0  0  0  0  0  0  0999 V2000
    0.6120   -2.6525   -1.1548 C   0  0  0  0  0  0  0  0  0  0  0  0
   -0.3800   -1.9626   -0.5990 C   0  0  0  0  0  0  0  0  0  0  0  0
   -0.2628   -0.9432    0.4644 C   0  0  0  0  0  0  0  0  0  0  0  0
    1.0832   -0.8204    1.1406 C   0  0  0  0  0  0  0  0  0  0  0  0
   -1.4563   -0.8561    1.3328 C   0  0  0  0  0  0  0  0  0  0  0  0
   -1.4897   -0.5180    2.6195 C   0  0  0  0  0  0  0  0  0  0  0  0
    0.4168   -3.3565   -1.9532 H   0  0  0  0  0  0  0  0  0  0  0  0
    1.6413   -2.5492   -0.8356 H   0  0  0  0  0  0  0  0  0  0  0  0
   -1.3890   -2.1252   -0.9711 H   0  0  0  0  0  0  0  0  0  0  0  0
   -0.3118    0.1426   -0.2086 H   0  0  0  0  0  0  0  0  0  0  0  0
    1.8754   -0.6965    0.4017 H   0  0  0  0  0  0  0  0  0  0  0  0
    1.1132    0.0521    1.7944 H   0  0  0  0  0  0  0  0  0  0  0  0
    1.3063   -1.7061    1.7414 H   0  0  0  0  0  0  0  0  0  0  0  0
   -2.4002   -1.0734    0.8373 H   0  0  0  0  0  0  0  0  0  0  0  0
   -0.5926   -0.3049    3.1874 H   0  0  0  0  0  0  0  0  0  0  0  0
   -2.4296   -0.4630    3.1533 H   0  0  0  0  0  0  0  0  0  0  0  0
   -1.3654    2.2619   -0.3732 C   0  0  0  0  0  0  0  0  0  0  0  0
   -0.2126    1.4617   -0.8326 C   0  0  0  0  0  3  0  0  0  0  0  0
    1.0465    1.7732   -1.7293 S   0  0  0  0  0  0  0  0  0  0  0  0
   -1.3385    3.2917   -0.7328 H   0  0  0  0  0  0  0  0  0  0  0  0
   -1.3937    2.2447    0.7200 H   0  0  0  0  0  0  0  0  0  0  0  0
   -2.2890    1.7781   -0.7039 H   0  0  0  0  0  0  0  0  0  0  0  0
  1  2  2  3
  1  7  1  0
  1  8  1  0
  2  3  1  0
  2  9  1  0
  3  4  1  0
  3  5  1  0
  3 10  1  0
  4 11  1  0
  4 12  1  0
  4 13  1  0
  5  6  2  3
  5 14  1  0
  6 15  1  0
  6 16  1  0
 17 18  1  0
 17 20  1  0
 17 21  1  0
 17 22  1  0
 18 19  2  0
M  RAD  1  18   2
M  END
>  <reaction>  (4) 
rxn_1209

>  <mol_properties>  (4) 
{"1": {"label": "*0", "atom_type": "Cd"}, "2": {"label": "*1", "atom_type": "Cs"}, "9": {"label": "*2", "atom_type": "H0"}, "17": {"label": "*3", "atom_type": "CS"}, "18": {"label": "*4", "atom_type": "S2d"}}

>  <type>  (4) 
ts

$$$$

     RDKit          3D

 22 20  0  0  0  0  0  0  0  0999 V2000
   -0.1158   -2.0833   -1.5720 C   0  0  0  0  0  0  0  0  0  0  0  0
   -0.1158   -2.0833   -0.2488 C   0  0  0  0  0  0  0  0  0  0  0  0
   -0.1158   -0.8525    0.6206 C   0  0  0  0  0  3  0  0  0  0  0  0
    1.1226   -0.8227    1.5122 C   0  0  0  0  0  0  0  0  0  0  0  0
   -1.4193   -0.7839    1.3771 C   0  0  0  0  0  0  0  0  0  0  0  0
   -1.5739   -0.7837    2.6921 C   0  0  0  0  0  0  0  0  0  0  0  0
   -0.1165   -3.0059   -2.1387 H   0  0  0  0  0  0  0  0  0  0  0  0
   -0.1140   -1.1575   -2.1377 H   0  0  0  0  0  0  0  0  0  0  0  0
   -0.1205   -3.0291    0.2888 H   0  0  0  0  0  0  0  0  0  0  0  0
   -0.0792    0.1919   -0.1782 H   0  0  0  0  0  0  0  0  0  0  0  0
    2.0254   -0.8311    0.9010 H   0  0  0  0  0  0  0  0  0  0  0  0
    1.1373    0.0731    2.1353 H   0  0  0  0  0  0  0  0  0  0  0  0
    1.1552   -1.6945    2.1698 H   0  0  0  0  0  0  0  0  0  0  0  0
   -2.3025   -0.7482    0.7446 H   0  0  0  0  0  0  0  0  0  0  0  0
   -0.7336   -0.8230    3.3746 H   0  0  0  0  0  0  0  0  0  0  0  0
   -2.5603   -0.7406    3.1363 H   0  0  0  0  0  0  0  0  0  0  0  0
   -1.2027    2.1547   -0.8407 C   0  0  0  0  0  0  0  0  0  0  0  0
   -0.0427    1.2320   -0.9738 C   0  0  0  0  0  0  0  0  0  0  0  0
    1.4969    1.6565   -1.1487 S   0  0  0  0  0  0  0  0  0  0  0  0
   -0.8944    3.1975   -0.8748 H   0  0  0  0  0  0  0  0  0  0  0  0
   -1.7243    1.9548    0.1003 H   0  0  0  0  0  0  0  0  0  0  0  0
   -1.9227    1.9565   -1.6407 H   0  0  0  0  0  0  0  0  0  0  0  0
  1  2  2  3
  1  7  1  0
  1  8  1  0
  2  3  1  0
  2  9  1  0
  3  4  1  0
  3  5  1  0
  4 11  1  0
  4 12  1  0
  4 13  1  0
  5  6  2  3
  5 14  1  0
  6 15  1  0
  6 16  1  0
 10 18  1  0
 17 18  1  0
 17 20  1  0
 17 21  1  0
 17 22  1  0
 18 19  2  0
M  RAD  1   3   2
M  END
>  <reaction>  (5) 
rxn_1209

>  <mol_properties>  (5) 
{"1": {"label": "*0", "atom_type": "Cd"}, "2": {"label": "*1", "atom_type": "Cs"}, "9": {"label": "*2", "atom_type": "H0"}, "17": {"label": "*3", "atom_type": "CS"}, "18": {"label": "*4", "atom_type": "S2d"}}

>  <type>  (5) 
unop_1

>  <geom_source>  (5) 
Heuristics

$$$$

     RDKit          3D

 22 20  0  0  0  0  0  0  0  0999 V2000
    0.0954   -2.1808   -1.6016 C   0  0  0  0  0  0  0  0  0  0  0  0
    0.0954   -2.1808   -0.2784 C   0  0  0  0  0  0  0  0  0  0  0  0
    0.0954   -0.9501    0.5910 C   0  0  0  0  0  3  0  0  0  0  0  0
    1.3338   -0.9203    1.4826 C   0  0  0  0  0  0  0  0  0  0  0  0
   -1.2081   -0.8815    1.3475 C   0  0  0  0  0  0  0  0  0  0  0  0
   -1.3627   -0.8812    2.6625 C   0  0  0  0  0  0  0  0  0  0  0  0
    0.0947   -3.1035   -2.1683 H   0  0  0  0  0  0  0  0  0  0  0  0
    0.0972   -1.2551   -2.1673 H   0  0  0  0  0  0  0  0  0  0  0  0
    0.0907   -3.1267    0.2592 H   0  0  0  0  0  0  0  0  0  0  0  0
    0.1320    0.0943   -0.2078 H   0  0  0  0  0  0  0  0  0  0  0  0
    2.2366   -0.9286    0.8714 H   0  0  0  0  0  0  0  0  0  0  0  0
    1.3485   -0.0245    2.1057 H   0  0  0  0  0  0  0  0  0  0  0  0
    1.3664   -1.7920    2.1402 H   0  0  0  0  0  0  0  0  0  0  0  0
   -2.0912   -0.8458    0.7150 H   0  0  0  0  0  0  0  0  0  0  0  0
   -0.5223   -0.9206    3.3450 H   0  0  0  0  0  0  0  0  0  0  0  0
   -2.3491   -0.8381    3.1067 H   0  0  0  0  0  0  0  0  0  0  0  0
   -0.4803    0.9256   -2.3263 C   0  0  0  0  0  0  0  0  0  0  0  0
    0.1685    1.1344   -1.0034 C   0  0  0  0  0  0  0  0  0  0  0  0
    0.5220    2.5490   -0.3287 S   0  0  0  0  0  0  0  0  0  0  0  0
   -0.7043    1.8693   -2.8191 H   0  0  0  0  0  0  0  0  0  0  0  0
   -1.4017    0.3495   -2.1960 H   0  0  0  0  0  0  0  0  0  0  0  0
    0.1731    0.3223   -2.9641 H   0  0  0  0  0  0  0  0  0  0  0  0
  1  2  2  3
  1  7  1  0
  1  8  1  0
  2  3  1  0
  2  9  1  0
  3  4  1  0
  3  5  1  0
  4 11  1  0
  4 12  1  0
  4 13  1  0
  5  6  2  3
  5 14  1  0
  6 15  1  0
  6 16  1  0
 10 18  1  0
 17 18  1  0
 17 20  1  0
 17 21  1  0
 17 22  1  0
 18 19  2  0
M  RAD  1   3   2
M  END
>  <reaction>  (6) 
rxn_1209

>  <mol_properties>  (6) 
{"1": {"label": "*0", "atom_type": "Cd"}, "2": {"label": "*1", "atom_type": "Cs"}, "9": {"label": "*2", "atom_type": "H0"}, "17": {"label": "*3", "atom_type": "CS"}, "18": {"label": "*4", "atom_type": "S2d"}}

>  <type>  (6) 
unop_2

>  <geom_source>  (6) 
Heuristics

$$$$

     RDKit          3D

 22 20  0  0  0  0  0  0  0  0999 V2000
   -0.1085   -2.0128   -1.4330 C   0  0  0  0  0  0  0  0  0  0  0  0
   -0.1085   -2.0128   -0.1097 C   0  0  0  0  0  0  0  0  0  0  0  0
   -0.1085   -0.7820    0.7597 C   0  0  0  0  0  3  0  0  0  0  0  0
    1.1299   -0.7522    1.6513 C   0  0  0  0  0  0  0  0  0  0  0  0
   -1.4120   -0.7135    1.5162 C   0  0  0  0  0  0  0  0  0  0  0  0
   -1.5667   -0.7132    2.8311 C   0  0  0  0  0  0  0  0  0  0  0  0
   -0.1093   -2.9354   -1.9997 H   0  0  0  0  0  0  0  0  0  0  0  0
   -0.1068   -1.0870   -1.9987 H   0  0  0  0  0  0  0  0  0  0  0  0
   -0.1133   -2.9586    0.4279 H   0  0  0  0  0  0  0  0  0  0  0  0
   -0.0719    0.2623   -0.0391 H   0  0  0  0  0  0  0  0  0  0  0  0
    2.0326   -0.7606    1.0400 H   0  0  0  0  0  0  0  0  0  0  0  0
    1.1445    0.1435    2.2744 H   0  0  0  0  0  0  0  0  0  0  0  0
    1.1624   -1.6240    2.3089 H   0  0  0  0  0  0  0  0  0  0  0  0
   -2.2952   -0.6777    0.8837 H   0  0  0  0  0  0  0  0  0  0  0  0
   -0.7263   -0.7525    3.5137 H   0  0  0  0  0  0  0  0  0  0  0  0
   -2.5531   -0.6701    3.2754 H   0  0  0  0  0  0  0  0  0  0  0  0
   -0.7047    2.5178   -0.2966 C   0  0  0  0  0  0  0  0  0  0  0  0
   -0.0355    1.3024   -0.8347 C   0  0  0  0  0  0  0  0  0  0  0  0
    1.2298    1.2711   -1.8244 S   0  0  0  0  0  0  0  0  0  0  0  0
   -0.2324    3.4302   -0.6546 H   0  0  0  0  0  0  0  0  0  0  0  0
   -0.6816    2.4953    0.7973 H   0  0  0  0  0  0  0  0  0  0  0  0
   -1.7609    2.5122   -0.5830 H   0  0  0  0  0  0  0  0  0  0  0  0
  1  2  2  3
  1  7  1  0
  1  8  1  0
  2  3  1  0
  2  9  1  0
  3  4  1  0
  3  5  1  0
  4 11  1  0
  4 12  1  0
  4 13  1  0
  5  6  2  3
  5 14  1  0
  6 15  1  0
  6 16  1  0
 10 18  1  0
 17 18  1  0
 17 20  1  0
 17 21  1  0
 17 22  1  0
 18 19  2  0
M  RAD  1   3   2
M  END
>  <reaction>  (7) 
rxn_1209

>  <mol_properties>  (7) 
{"1": {"label": "*0", "atom_type": "Cd"}, "2": {"label": "*1", "atom_type": "Cs"}, "9": {"label": "*2", "atom_type": "H0"}, "17": {"label": "*3", "atom_type": "CS"}, "18": {"label": "*4", "atom_type": "S2d"}}

>  <type>  (7) 
unop_3

>  <geom_source>  (7) 
Heuristics

$$$$

     RDKit          3D

 22 20  0  0  0  0  0  0  0  0999 V2000
    0.1505   -2.1746   -1.6354 C   0  0  0  0  0  0  0  0  0  0  0  0
    0.1505   -2.1746   -0.3122 C   0  0  0  0  0  0  0  0  0  0  0  0
    0.1505   -0.9438    0.5573 C   0  0  0  0  0  3  0  0  0  0  0  0
    1.3889   -0.9140    1.4488 C   0  0  0  0  0  0  0  0  0  0  0  0
   -1.1530   -0.8752    1.3138 C   0  0  0  0  0  0  0  0  0  0  0  0
   -1.3076   -0.8750    2.6287 C   0  0  0  0  0  0  0  0  0  0  0  0
    0.1498   -3.0972   -2.2021 H   0  0  0  0  0  0  0  0  0  0  0  0
    0.1523   -1.2488   -2.2011 H   0  0  0  0  0  0  0  0  0  0  0  0
    0.1458   -3.1204    0.2255 H   0  0  0  0  0  0  0  0  0  0  0  0
    0.1871    0.1005   -0.2416 H   0  0  0  0  0  0  0  0  0  0  0  0
    2.2917   -0.9224    0.8376 H   0  0  0  0  0  0  0  0  0  0  0  0
    1.4036   -0.0183    2.0720 H   0  0  0  0  0  0  0  0  0  0  0  0
    1.4215   -1.7858    2.1065 H   0  0  0  0  0  0  0  0  0  0  0  0
   -2.0362   -0.8395    0.6812 H   0  0  0  0  0  0  0  0  0  0  0  0
   -0.4673   -0.9143    3.3112 H   0  0  0  0  0  0  0  0  0  0  0  0
   -2.2940   -0.8319    3.0729 H   0  0  0  0  0  0  0  0  0  0  0  0
    1.4180    1.2017   -1.9228 C   0  0  0  0  0  0  0  0  0  0  0  0
    0.2236    1.1407   -1.0372 C   0  0  0  0  0  0  0  0  0  0  0  0
   -0.5763    2.3943   -0.4291 S   0  0  0  0  0  0  0  0  0  0  0  0
    1.7140    2.2278   -2.1305 H   0  0  0  0  0  0  0  0  0  0  0  0
    1.2052    0.6818   -2.8619 H   0  0  0  0  0  0  0  0  0  0  0  0
    2.2493    0.6654   -1.4548 H   0  0  0  0  0  0  0  0  0  0  0  0
  1  2  2  3
  1  7  1  0
  1  8  1  0
  2  3  1  0
  2  9  1  0
  3  4  1  0
  3  5  1  0
  4 11  1  0
  4 12  1  0
  4 13  1  0
  5  6  2  3
  5 14  1  0
  6 15  1  0
  6 16  1  0
 10 18  1  0
 17 18  1  0
 17 20  1  0
 17 21  1  0
 17 22  1  0
 18 19  2  0
M  RAD  1   3   2
M  END
>  <reaction>  (8) 
rxn_1209

>  <mol_properties>  (8) 
{"1": {"label": "*0", "atom_type": "Cd"}, "2": {"label": "*1", "atom_type": "Cs"}, "9": {"label": "*2", "atom_type": "H0"}, "17": {"label": "*3", "atom_type": "CS"}, "18": {"label": "*4", "atom_type": "S2d"}}

>  <type>  (8) 
unop_4

>  <geom_source>  (8) 
Heuristics

$$$$

     RDKit          3D

 22 20  0  0  0  0  0  0  0  0999 V2000
    0.0947   -1.9779   -1.3152 C   0  0  0  0  0  0  0  0  0  0  0  0
    0.0947   -1.9779    0.0080 C   0  0  0  0  0  0  0  0  0  0  0  0
    0.0947   -0.7471    0.8774 C   0  0  0  0  0  3  0  0  0  0  0  0
    1.3330   -0.7173    1.7690 C   0  0  0  0  0  0  0  0  0  0  0  0
   -1.2088   -0.6786    1.6339 C   0  0  0  0  0  0  0  0  0  0  0  0
   -1.3635   -0.6783    2.9489 C   0  0  0  0  0  0  0  0  0  0  0  0
    0.0939   -2.9005   -1.8819 H   0  0  0  0  0  0  0  0  0  0  0  0
    0.0964   -1.0521   -1.8809 H   0  0  0  0  0  0  0  0  0  0  0  0
    0.0899   -2.9237    0.5456 H   0  0  0  0  0  0  0  0  0  0  0  0
    0.1313    0.2972    0.0786 H   0  0  0  0  0  0  0  0  0  0  0  0
    2.2358   -0.7257    1.1578 H   0  0  0  0  0  0  0  0  0  0  0  0
    1.3477    0.1784    2.3921 H   0  0  0  0  0  0  0  0  0  0  0  0
    1.3656   -1.5891    2.4266 H   0  0  0  0  0  0  0  0  0  0  0  0
   -2.0920   -0.6428    1.0014 H   0  0  0  0  0  0  0  0  0  0  0  0
   -0.5231   -0.7176    3.6314 H   0  0  0  0  0  0  0  0  0  0  0  0
   -2.3499   -0.6352    3.3931 H   0  0  0  0  0  0  0  0  0  0  0  0
    0.1732    2.6515   -0.0188 C   0  0  0  0  0  0  0  0  0  0  0  0
    0.1677    1.3373   -0.7170 C   0  0  0  0  0  0  0  0  0  0  0  0
    0.2016    1.1029   -2.3061 S   0  0  0  0  0  0  0  0  0  0  0  0
    0.2039    3.4814   -0.7216 H   0  0  0  0  0  0  0  0  0  0  0  0
    1.0346    2.7058    0.6540 H   0  0  0  0  0  0  0  0  0  0  0  0
   -0.7169    2.7352    0.6123 H   0  0  0  0  0  0  0  0  0  0  0  0
  1  2  2  3
  1  7  1  0
  1  8  1  0
  2  3  1  0
  2  9  1  0
  3  4  1  0
  3  5  1  0
  4 11  1  0
  4 12  1  0
  4 13  1  0
  5  6  2  3
  5 14  1  0
  6 15  1  0
  6 16  1  0
 10 18  1  0
 17 18  1  0
 17 20  1  0
 17 21  1  0
 17 22  1  0
 18 19  2  0
M  RAD  1   3   2
M  END
>  <reaction>  (9) 
rxn_1209

>  <mol_properties>  (9) 
{"1": {"label": "*0", "atom_type": "Cd"}, "2": {"label": "*1", "atom_type": "Cs"}, "9": {"label": "*2", "atom_type": "H0"}, "17": {"label": "*3", "atom_type": "CS"}, "18": {"label": "*4", "atom_type": "S2d"}}

>  <type>  (9) 
unop_5

>  <geom_source>  (9) 
Heuristics

$$$$

     RDKit          3D

 22 20  0  0  0  0  0  0  0  0999 V2000
    0.2375   -2.1464   -1.6316 C   0  0  0  0  0  0  0  0  0  0  0  0
    0.2375   -2.1464   -0.3083 C   0  0  0  0  0  0  0  0  0  0  0  0
    0.2375   -0.9156    0.5611 C   0  0  0  0  0  3  0  0  0  0  0  0
    1.4759   -0.8858    1.4527 C   0  0  0  0  0  0  0  0  0  0  0  0
   -1.0660   -0.8471    1.3176 C   0  0  0  0  0  0  0  0  0  0  0  0
   -1.2206   -0.8468    2.6325 C   0  0  0  0  0  0  0  0  0  0  0  0
    0.2368   -3.0690   -2.1983 H   0  0  0  0  0  0  0  0  0  0  0  0
    0.2393   -1.2206   -2.1973 H   0  0  0  0  0  0  0  0  0  0  0  0
    0.2328   -3.0922    0.2293 H   0  0  0  0  0  0  0  0  0  0  0  0
    0.2741    0.1287   -0.2377 H   0  0  0  0  0  0  0  0  0  0  0  0
    2.3787   -0.8942    0.8414 H   0  0  0  0  0  0  0  0  0  0  0  0
    1.4906    0.0099    2.0758 H   0  0  0  0  0  0  0  0  0  0  0  0
    1.5085   -1.7576    2.1103 H   0  0  0  0  0  0  0  0  0  0  0  0
   -1.9491   -0.8113    0.6850 H   0  0  0  0  0  0  0  0  0  0  0  0
   -0.3802   -0.8861    3.3151 H   0  0  0  0  0  0  0  0  0  0  0  0
   -2.2070   -0.8037    3.0767 H   0  0  0  0  0  0  0  0  0  0  0  0
    1.6803    1.6380   -1.3774 C   0  0  0  0  0  0  0  0  0  0  0  0
    0.3106    1.1688   -1.0333 C   0  0  0  0  0  0  0  0  0  0  0  0
   -0.9606    2.0965   -0.7095 S   0  0  0  0  0  0  0  0  0  0  0  0
    1.7434    2.7240   -1.3897 H   0  0  0  0  0  0  0  0  0  0  0  0
    1.9693    1.2406   -2.3553 H   0  0  0  0  0  0  0  0  0  0  0  0
    2.3980    1.2348   -0.6562 H   0  0  0  0  0  0  0  0  0  0  0  0
  1  2  2  3
  1  7  1  0
  1  8  1  0
  2  3  1  0
  2  9  1  0
  3  4  1  0
  3  5  1  0
  4 11  1  0
  4 12  1  0
  4 13  1  0
  5  6  2  3
  5 14  1  0
  6 15  1  0
  6 16  1  0
 10 18  1  0
 17 18  1  0
 17 20  1  0
 17 21  1  0
 17 22  1  0
 18 19  2  0
M  RAD  1   3   2
M  END
>  <reaction>  (10) 
rxn_1209

>  <mol_properties>  (10) 
{"1": {"label": "*0", "atom_type": "Cd"}, "2": {"label": "*1", "atom_type": "Cs"}, "9": {"label": "*2", "atom_type": "H0"}, "17": {"label": "*3", "atom_type": "CS"}, "18": {"label": "*4", "atom_type": "S2d"}}

>  <type>  (10) 
unop_6

>  <geom_source>  (10) 
Heuristics

$$$$

     RDKit          3D

 22 20  0  0  0  0  0  0  0  0999 V2000
    0.3135   -2.0905   -1.5618 C   0  0  0  0  0  0  0  0  0  0  0  0
    0.3135   -2.0905   -0.2386 C   0  0  0  0  0  0  0  0  0  0  0  0
    0.3135   -0.8597    0.6308 C   0  0  0  0  0  3  0  0  0  0  0  0
    1.5518   -0.8299    1.5224 C   0  0  0  0  0  0  0  0  0  0  0  0
   -0.9901   -0.7911    1.3874 C   0  0  0  0  0  0  0  0  0  0  0  0
   -1.1447   -0.7909    2.7023 C   0  0  0  0  0  0  0  0  0  0  0  0
    0.3127   -3.0131   -2.1285 H   0  0  0  0  0  0  0  0  0  0  0  0
    0.3152   -1.1647   -2.1275 H   0  0  0  0  0  0  0  0  0  0  0  0
    0.3087   -3.0363    0.2991 H   0  0  0  0  0  0  0  0  0  0  0  0
    0.3501    0.1846   -0.1680 H   0  0  0  0  0  0  0  0  0  0  0  0
    2.4546   -0.8383    0.9112 H   0  0  0  0  0  0  0  0  0  0  0  0
    1.5665    0.0658    2.1456 H   0  0  0  0  0  0  0  0  0  0  0  0
    1.5844   -1.7017    2.1801 H   0  0  0  0  0  0  0  0  0  0  0  0
   -1.8732   -0.7554    0.7548 H   0  0  0  0  0  0  0  0  0  0  0  0
   -0.3043   -0.8302    3.3848 H   0  0  0  0  0  0  0  0  0  0  0  0
   -2.1311   -0.7478    3.1465 H   0  0  0  0  0  0  0  0  0  0  0  0
    1.5692    2.1081   -0.7747 C   0  0  0  0  0  0  0  0  0  0  0  0
    0.3865    1.2248   -0.9636 C   0  0  0  0  0  0  0  0  0  0  0  0
   -1.1279    1.7007   -1.2113 S   0  0  0  0  0  0  0  0  0  0  0  0
    1.2981    3.1607   -0.8225 H   0  0  0  0  0  0  0  0  0  0  0  0
    2.3193    1.8852   -1.5397 H   0  0  0  0  0  0  0  0  0  0  0  0
    2.0384    1.8914    0.1899 H   0  0  0  0  0  0  0  0  0  0  0  0
  1  2  2  3
  1  7  1  0
  1  8  1  0
  2  3  1  0
  2  9  1  0
  3  4  1  0
  3  5  1  0
  4 11  1  0
  4 12  1  0
  4 13  1  0
  5  6  2  3
  5 14  1  0
  6 15  1  0
  6 16  1  0
 10 18  1  0
 17 18  1  0
 17 20  1  0
 17 21  1  0
 17 22  1  0
 18 19  2  0
M  RAD  1   3   2
M  END
>  <reaction>  (11) 
rxn_1209

>  <mol_properties>  (11) 
{"1": {"label": "*0", "atom_type": "Cd"}, "2": {"label": "*1", "atom_type": "Cs"}, "9": {"label": "*2", "atom_type": "H0"}, "17": {"label": "*3", "atom_type": "CS"}, "18": {"label": "*4", "atom_type": "S2d"}}

>  <type>  (11) 
unop_7

>  <geom_source>  (11) 
Heuristics

$$$$

     RDKit          3D

 22 20  0  0  0  0  0  0  0  0999 V2000
   -0.0386   -2.1418   -1.6381 C   0  0  0  0  0  0  0  0  0  0  0  0
   -0.0386   -2.1418   -0.3149 C   0  0  0  0  0  0  0  0  0  0  0  0
   -0.0386   -0.9110    0.5545 C   0  0  0  0  0  3  0  0  0  0  0  0
    1.1998   -0.8812    1.4461 C   0  0  0  0  0  0  0  0  0  0  0  0
   -1.3421   -0.8424    1.3110 C   0  0  0  0  0  0  0  0  0  0  0  0
   -1.4967   -0.8422    2.6259 C   0  0  0  0  0  0  0  0  0  0  0  0
   -0.0393   -3.0644   -2.2049 H   0  0  0  0  0  0  0  0  0  0  0  0
   -0.0368   -1.2160   -2.2039 H   0  0  0  0  0  0  0  0  0  0  0  0
   -0.0433   -3.0876    0.2227 H   0  0  0  0  0  0  0  0  0  0  0  0
   -0.0020    0.1334   -0.2443 H   0  0  0  0  0  0  0  0  0  0  0  0
    2.1026   -0.8896    0.8348 H   0  0  0  0  0  0  0  0  0  0  0  0
    1.2145    0.0146    2.0692 H   0  0  0  0  0  0  0  0  0  0  0  0
    1.2324   -1.7530    2.1037 H   0  0  0  0  0  0  0  0  0  0  0  0
   -2.2252   -0.8067    0.6785 H   0  0  0  0  0  0  0  0  0  0  0  0
   -0.6563   -0.8815    3.3085 H   0  0  0  0  0  0  0  0  0  0  0  0
   -2.4831   -0.7991    3.0702 H   0  0  0  0  0  0  0  0  0  0  0  0
   -1.3007    1.6881   -1.4484 C   0  0  0  0  0  0  0  0  0  0  0  0
    0.0345    1.1735   -1.0399 C   0  0  0  0  0  0  0  0  0  0  0  0
    1.3193    2.0581   -0.6552 S   0  0  0  0  0  0  0  0  0  0  0  0
   -1.3266    2.7757   -1.4628 H   0  0  0  0  0  0  0  0  0  0  0  0
   -2.0651    1.3100   -0.7625 H   0  0  0  0  0  0  0  0  0  0  0  0
   -1.5561    1.2999   -2.4392 H   0  0  0  0  0  0  0  0  0  0  0  0
  1  2  2  3
  1  7  1  0
  1  8  1  0
  2  3  1  0
  2  9  1  0
  3  4  1  0
  3  5  1  0
  4 11  1  0
  4 12  1  0
  4 13  1  0
  5  6  2  3
  5 14  1  0
  6 15  1  0
  6 16  1  0
 10 18  1  0
 17 18  1  0
 17 20  1  0
 17 21  1  0
 17 22  1  0
 18 19  2  0
M  RAD  1   3   2
M  END
>  <reaction>  (12) 
rxn_1209

>  <mol_properties>  (12) 
{"1": {"label": "*0", "atom_type": "Cd"}, "2": {"label": "*1", "atom_type": "Cs"}, "9": {"label": "*2", "atom_type": "H0"}, "17": {"label": "*3", "atom_type": "CS"}, "18": {"label": "*4", "atom_type": "S2d"}}

>  <type>  (12) 
unop_8

>  <geom_source>  (12) 
Heuristics

$$$$

     RDKit          3D

 22 20  0  0  0  0  0  0  0  0999 V2000
    0.1007   -2.1809   -1.6015 C   0  0  0  0  0  0  0  0  0  0  0  0
    0.1007   -2.1809   -0.2783 C   0  0  0  0  0  0  0  0  0  0  0  0
    0.1007   -0.9501    0.5911 C   0  0  0  0  0  3  0  0  0  0  0  0
    1.3391   -0.9204    1.4827 C   0  0  0  0  0  0  0  0  0  0  0  0
   -1.2028   -0.8816    1.3477 C   0  0  0  0  0  0  0  0  0  0  0  0
   -1.3574   -0.8813    2.6626 C   0  0  0  0  0  0  0  0  0  0  0  0
    0.1000   -3.1035   -2.1682 H   0  0  0  0  0  0  0  0  0  0  0  0
    0.1025   -1.2551   -2.1672 H   0  0  0  0  0  0  0  0  0  0  0  0
    0.0960   -3.1267    0.2594 H   0  0  0  0  0  0  0  0  0  0  0  0
    0.1373    0.0942   -0.2077 H   0  0  0  0  0  0  0  0  0  0  0  0
    2.2419   -0.9287    0.8715 H   0  0  0  0  0  0  0  0  0  0  0  0
    1.3538   -0.0246    2.1058 H   0  0  0  0  0  0  0  0  0  0  0  0
    1.3717   -1.7921    2.1404 H   0  0  0  0  0  0  0  0  0  0  0  0
   -2.0860   -0.8458    0.7151 H   0  0  0  0  0  0  0  0  0  0  0  0
   -0.5171   -0.9207    3.3451 H   0  0  0  0  0  0  0  0  0  0  0  0
   -2.3438   -0.8382    3.1068 H   0  0  0  0  0  0  0  0  0  0  0  0
    0.8774    0.9027   -2.2939 C   0  0  0  0  0  0  0  0  0  0  0  0
    0.1738    1.1343   -1.0033 C   0  0  0  0  0  0  0  0  0  0  0  0
   -0.1637    2.5605   -0.3450 S   0  0  0  0  0  0  0  0  0  0  0  0
    1.1563    1.8380   -2.7747 H   0  0  0  0  0  0  0  0  0  0  0  0
    0.2352    0.3213   -2.9626 H   0  0  0  0  0  0  0  0  0  0  0  0
    1.7716    0.2961   -2.1205 H   0  0  0  0  0  0  0  0  0  0  0  0
  1  2  2  3
  1  7  1  0
  1  8  1  0
  2  3  1  0
  2  9  1  0
  3  4  1  0
  3  5  1  0
  4 11  1  0
  4 12  1  0
  4 13  1  0
  5  6  2  3
  5 14  1  0
  6 15  1  0
  6 16  1  0
 10 18  1  0
 17 18  1  0
 17 20  1  0
 17 21  1  0
 17 22  1  0
 18 19  2  0
M  RAD  1   3   2
M  END
>  <reaction>  (13) 
rxn_1209

>  <mol_properties>  (13) 
{"1": {"label": "*0", "atom_type": "Cd"}, "2": {"label": "*1", "atom_type": "Cs"}, "9": {"label": "*2", "atom_type": "H0"}, "17": {"label": "*3", "atom_type": "CS"}, "18": {"label": "*4", "atom_type": "S2d"}}

>  <type>  (13) 
unop_9

>  <geom_source>  (13) 
Heuristics

$$$$

     RDKit          3D

 22 20  0  0  0  0  0  0  0  0999 V2000
    0.0476   -2.1728   -1.6378 C   0  0  0  0  0  0  0  0  0  0  0  0
    0.0476   -2.1728   -0.3146 C   0  0  0  0  0  0  0  0  0  0  0  0
    0.0476   -0.9421    0.5548 C   0  0  0  0  0  3  0  0  0  0  0  0
    1.2859   -0.9123    1.4464 C   0  0  0  0  0  0  0  0  0  0  0  0
   -1.2560   -0.8735    1.3113 C   0  0  0  0  0  0  0  0  0  0  0  0
   -1.4106   -0.8733    2.6262 C   0  0  0  0  0  0  0  0  0  0  0  0
    0.0468   -3.0955   -2.2045 H   0  0  0  0  0  0  0  0  0  0  0  0
    0.0493   -1.2471   -2.2035 H   0  0  0  0  0  0  0  0  0  0  0  0
    0.0428   -3.1187    0.2230 H   0  0  0  0  0  0  0  0  0  0  0  0
    0.0842    0.1023   -0.2440 H   0  0  0  0  0  0  0  0  0  0  0  0
    2.1887   -0.9207    0.8352 H   0  0  0  0  0  0  0  0  0  0  0  0
    1.3006   -0.0165    2.0695 H   0  0  0  0  0  0  0  0  0  0  0  0
    1.3185   -1.7841    2.1040 H   0  0  0  0  0  0  0  0  0  0  0  0
   -2.1391   -0.8378    0.6788 H   0  0  0  0  0  0  0  0  0  0  0  0
   -0.5702   -0.9126    3.3088 H   0  0  0  0  0  0  0  0  0  0  0  0
   -2.3970   -0.8301    3.0705 H   0  0  0  0  0  0  0  0  0  0  0  0
   -1.0276    1.2429   -1.9810 C   0  0  0  0  0  0  0  0  0  0  0  0
    0.1206    1.1424   -1.0396 C   0  0  0  0  0  0  0  0  0  0  0  0
    0.9324    2.3690   -0.3931 S   0  0  0  0  0  0  0  0  0  0  0  0
   -1.2787    2.2782   -2.2018 H   0  0  0  0  0  0  0  0  0  0  0  0
   -1.8978    0.7352   -1.5536 H   0  0  0  0  0  0  0  0  0  0  0  0
   -0.7879    0.7153   -2.9094 H   0  0  0  0  0  0  0  0  0  0  0  0
  1  2  2  3
  1  7  1  0
  1  8  1  0
  2  3  1  0
  2  9  1  0
  3  4  1  0
  3  5  1  0
  4 11  1  0
  4 12  1  0
  4 13  1  0
  5  6  2  3
  5 14  1  0
  6 15  1  0
  6 16  1  0
 10 18  1  0
 17 18  1  0
 17 20  1  0
 17 21  1  0
 17 22  1  0
 18 19  2  0
M  RAD  1   3   2
M  END
>  <reaction>  (14) 
rxn_1209

>  <mol_properties>  (14) 
{"1": {"label": "*0", "atom_type": "Cd"}, "2": {"label": "*1", "atom_type": "Cs"}, "9": {"label": "*2", "atom_type": "H0"}, "17": {"label": "*3", "atom_type": "CS"}, "18": {"label": "*4", "atom_type": "S2d"}}

>  <type>  (14) 
unop_10

>  <geom_source>  (14) 
Heuristics

$$$$

     RDKit          3D

 22 20  0  0  0  0  0  0  0  0999 V2000
    0.3020   -2.0197   -1.4232 C   0  0  0  0  0  0  0  0  0  0  0  0
    0.3020   -2.0197   -0.0999 C   0  0  0  0  0  0  0  0  0  0  0  0
    0.3020   -0.7889    0.7695 C   0  0  0  0  0  3  0  0  0  0  0  0
    1.5403   -0.7592    1.6611 C   0  0  0  0  0  0  0  0  0  0  0  0
   -1.0016   -0.7204    1.5260 C   0  0  0  0  0  0  0  0  0  0  0  0
   -1.1562   -0.7201    2.8409 C   0  0  0  0  0  0  0  0  0  0  0  0
    0.3012   -2.9423   -1.9899 H   0  0  0  0  0  0  0  0  0  0  0  0
    0.3037   -1.0939   -1.9889 H   0  0  0  0  0  0  0  0  0  0  0  0
    0.2972   -2.9655    0.4377 H   0  0  0  0  0  0  0  0  0  0  0  0
    0.3386    0.2554   -0.0294 H   0  0  0  0  0  0  0  0  0  0  0  0
    2.4431   -0.7675    1.0498 H   0  0  0  0  0  0  0  0  0  0  0  0
    1.5550    0.1366    2.2842 H   0  0  0  0  0  0  0  0  0  0  0  0
    1.5729   -1.6309    2.3187 H   0  0  0  0  0  0  0  0  0  0  0  0
   -1.8847   -0.6846    0.8934 H   0  0  0  0  0  0  0  0  0  0  0  0
   -0.3158   -0.7594    3.5234 H   0  0  0  0  0  0  0  0  0  0  0  0
   -2.1426   -0.6770    3.2851 H   0  0  0  0  0  0  0  0  0  0  0  0
    1.0583    2.4882   -0.2546 C   0  0  0  0  0  0  0  0  0  0  0  0
    0.3750    1.2955   -0.8249 C   0  0  0  0  0  0  0  0  0  0  0  0
   -0.8420    1.3059   -1.8738 S   0  0  0  0  0  0  0  0  0  0  0  0
    0.6346    3.4156   -0.6340 H   0  0  0  0  0  0  0  0  0  0  0  0
    2.1262    2.4468   -0.4904 H   0  0  0  0  0  0  0  0  0  0  0  0
    0.9825    2.4672    0.8370 H   0  0  0  0  0  0  0  0  0  0  0  0
  1  2  2  3
  1  7  1  0
  1  8  1  0
  2  3  1  0
  2  9  1  0
  3  4  1  0
  3  5  1  0
  4 11  1  0
  4 12  1  0
  4 13  1  0
  5  6  2  3
  5 14  1  0
  6 15  1  0
  6 16  1  0
 10 18  1  0
 17 18  1  0
 17 20  1  0
 17 21  1  0
 17 22  1  0
 18 19  2  0
M  RAD  1   3   2
M  END
>  <reaction>  (15) 
rxn_1209

>  <mol_properties>  (15) 
{"1": {"label": "*0", "atom_type": "Cd"}, "2": {"label": "*1", "atom_type": "Cs"}, "9": {"label": "*2", "atom_type": "H0"}, "17": {"label": "*3", "atom_type": "CS"}, "18": {"label": "*4", "atom_type": "S2d"}}

>  <type>  (15) 
unop_11

>  <geom_source>  (15) 
Heuristics

$$$$

     RDKit          3D

 22 20  0  0  0  0  0  0  0  0999 V2000
    0.0976   -2.1804   -1.5799 C   0  0  0  0  0  0  0  0  0  0  0  0
    0.0976   -2.1804   -0.2567 C   0  0  0  0  0  0  0  0  0  0  0  0
    0.0976   -0.9497    0.6127 C   0  0  0  0  0  3  0  0  0  0  0  0
    1.3359   -0.9199    1.5043 C   0  0  0  0  0  0  0  0  0  0  0  0
   -1.2059   -0.8811    1.3693 C   0  0  0  0  0  0  0  0  0  0  0  0
   -1.3606   -0.8809    2.6842 C   0  0  0  0  0  0  0  0  0  0  0  0
    0.0968   -3.1031   -2.1466 H   0  0  0  0  0  0  0  0  0  0  0  0
    0.0993   -1.2547   -2.1456 H   0  0  0  0  0  0  0  0  0  0  0  0
    0.0928   -3.1263    0.2810 H   0  0  0  0  0  0  0  0  0  0  0  0
    0.1342    0.0947   -0.1861 H   0  0  0  0  0  0  0  0  0  0  0  0
    2.2387   -0.9283    0.8931 H   0  0  0  0  0  0  0  0  0  0  0  0
    1.3506   -0.0241    2.1274 H   0  0  0  0  0  0  0  0  0  0  0  0
    1.3685   -1.7917    2.1620 H   0  0  0  0  0  0  0  0  0  0  0  0
   -2.0891   -0.8454    0.7367 H   0  0  0  0  0  0  0  0  0  0  0  0
   -0.5202   -0.9202    3.3667 H   0  0  0  0  0  0  0  0  0  0  0  0
   -2.3470   -0.8377    3.1284 H   0  0  0  0  0  0  0  0  0  0  0  0
    0.1996    0.8044   -2.4324 C   0  0  0  0  0  0  0  0  0  0  0  0
    0.1706    1.1348   -0.9817 C   0  0  0  0  0  0  0  0  0  0  0  0
    0.1801    2.6077   -0.3399 S   0  0  0  0  0  0  0  0  0  0  0  0
    0.2294    1.7000   -3.0494 H   0  0  0  0  0  0  0  0  0  0  0  0
   -0.6808    0.2078   -2.6903 H   0  0  0  0  0  0  0  0  0  0  0  0
    1.0707    0.1783   -2.6486 H   0  0  0  0  0  0  0  0  0  0  0  0
  1  2  2  3
  1  7  1  0
  1  8  1  0
  2  3  1  0
  2  9  1  0
  3  4  1  0
  3  5  1  0
  4 11  1  0
  4 12  1  0
  4 13  1  0
  5  6  2  3
  5 14  1  0
  6 15  1  0
  6 16  1  0
 10 18  1  0
 17 18  1  0
 17 20  1  0
 17 21  1  0
 17 22  1  0
 18 19  2  0
M  RAD  1   3   2
M  END
>  <reaction>  (16) 
rxn_1209

>  <mol_properties>  (16) 
{"1": {"label": "*0", "atom_type": "Cd"}, "2": {"label": "*1", "atom_type": "Cs"}, "9": {"label": "*2", "atom_type": "H0"}, "17": {"label": "*3", "atom_type": "CS"}, "18": {"label": "*4", "atom_type": "S2d"}}

>  <type>  (16) 
unop_12

>  <geom_source>  (16) 
Heuristics

$$$$

     RDKit          3D

 22 20  0  0  0  0  0  0  0  0999 V2000
    2.5493    1.1267   -1.3403 S   0  0  0  0  0  0  0  0  0  0  0  0
    0.0866   -1.0597   -0.9796 C   0  0  0  0  0  0  0  0  0  0  0  0
    2.7923    0.0217    0.9436 C   0  0  0  0  0  0  0  0  0  0  0  0
   -0.5628   -0.0880    0.0050 C   0  0  0  0  0  3  0  0  0  0  0  0
   -1.3190    0.9992   -0.7020 C   0  0  0  0  0  0  0  0  0  0  0  0
   -1.4172   -0.7857    1.0311 C   0  0  0  0  0  0  0  0  0  0  0  0
    1.9469    0.5776   -0.1582 C   0  0  0  0  0  0  0  0  0  0  0  0
   -1.0142    2.2806   -0.4953 C   0  0  0  0  0  0  0  0  0  0  0  0
   -2.5104   -1.4853    0.7061 C   0  0  0  0  0  0  0  0  0  0  0  0
    2.1358   -0.3490    1.7578 H   0  0  0  0  0  0  0  0  0  0  0  0
    3.4066   -0.8247    0.5686 H   0  0  0  0  0  0  0  0  0  0  0  0
    3.4578    0.8109    1.3545 H   0  0  0  0  0  0  0  0  0  0  0  0
    0.7892   -0.5088   -1.6399 H   0  0  0  0  0  0  0  0  0  0  0  0
    0.6622   -1.8304   -0.4247 H   0  0  0  0  0  0  0  0  0  0  0  0
   -0.6803   -1.5604   -1.6084 H   0  0  0  0  0  0  0  0  0  0  0  0
   -2.1293    0.7427   -1.3786 H   0  0  0  0  0  0  0  0  0  0  0  0
   -1.1330   -0.7050    2.0753 H   0  0  0  0  0  0  0  0  0  0  0  0
    0.6474    0.5640   -0.0454 H   0  0  0  0  0  0  0  0  0  0  0  0
   -0.2121    2.5606    0.1812 H   0  0  0  0  0  0  0  0  0  0  0  0
   -1.5699    3.0603   -1.0059 H   0  0  0  0  0  0  0  0  0  0  0  0
   -2.8297   -1.5802   -0.3270 H   0  0  0  0  0  0  0  0  0  0  0  0
   -3.0962   -1.9669    1.4821 H   0  0  0  0  0  0  0  0  0  0  0  0
  1  7  2  0
  2  4  1  0
  2 13  1  0
  2 14  1  0
  2 15  1  0
  3  7  1  0
  3 10  1  0
  3 11  1  0
  3 12  1  0
  4  5  1  0
  4  6  1  0
  5  8  2  3
  5 16  1  0
  6  9  2  3
  6 17  1  0
  7 18  1  0
  8 19  1  0
  8 20  1  0
  9 21  1  0
  9 22  1  0
M  RAD  1   4   2
M  END
>  <reaction>  (17) 
rxn_1209

>  <mol_properties>  (17) 
{"1": {"label": "*0", "atom_type": "Cd"}, "2": {"label": "*1", "atom_type": "Cs"}, "9": {"label": "*2", "atom_type": "H0"}, "17": {"label": "*3", "atom_type": "CS"}, "18": {"label": "*4", "atom_type": "S2d"}}

>  <type>  (17) 
unop_13

>  <geom_source>  (17) 
AutoTST

$$$$
