
     RDKit          3D

  8  7  0  0  0  0  0  0  0  0999 V2000
    0.7610    0.0250    0.0051 C   0  0  0  0  0  0  0  0  0  0  0  0
   -0.7610   -0.0250   -0.0051 C   0  0  0  0  0  0  0  0  0  0  0  0
    1.1904   -0.9237   -0.3217 H   0  0  0  0  0  0  0  0  0  0  0  0
    1.1359    0.8041   -0.6609 H   0  0  0  0  0  0  0  0  0  0  0  0
    1.1435    0.2336    1.0058 H   0  0  0  0  0  0  0  0  0  0  0  0
   -1.1435   -0.2336   -1.0058 H   0  0  0  0  0  0  0  0  0  0  0  0
   -1.1904    0.9237    0.3216 H   0  0  0  0  0  0  0  0  0  0  0  0
   -1.1359   -0.8041    0.6609 H   0  0  0  0  0  0  0  0  0  0  0  0
  1  2  1  0
  1  3  1  0
  1  4  1  0
  1  5  1  0
  2  6  1  0
  2  7  1  0
  2  8  1  0
M  END
>  <reaction>  (1) 
rxn_880

>  <mol_properties>  (1) 
{"1": {"label": "donator", "atom_type": "Cs"}, "5": {"label": "d_hydrogen", "atom_type": "H0"}}

>  <type>  (1) 
r1h

$$$$

     RDKit          3D

 14 14  0  0  0  0  0  0  0  0999 V2000
    2.3111    0.1295    0.0255 C   0  0  0  0  0  0  0  0  0  0  0  0
    0.9132    0.0511    0.0101 C   0  0  0  0  0  0  0  0  0  0  0  0
    0.2446   -1.1981    0.0389 C   0  0  0  0  0  3  0  0  0  0  0  0
   -1.1306   -1.2689    0.0235 C   0  0  0  0  0  0  0  0  0  0  0  0
   -1.8967   -0.1062   -0.0209 C   0  0  0  0  0  0  0  0  0  0  0  0
   -1.2644    1.1347   -0.0499 C   0  0  0  0  0  0  0  0  0  0  0  0
    0.1101    1.2180   -0.0350 C   0  0  0  0  0  0  0  0  0  0  0  0
    2.9188   -0.7647    0.0599 H   0  0  0  0  0  0  0  0  0  0  0  0
    2.8158    1.0859    0.0034 H   0  0  0  0  0  0  0  0  0  0  0  0
    0.8353   -2.1058    0.0735 H   0  0  0  0  0  0  0  0  0  0  0  0
   -1.6191   -2.2351    0.0461 H   0  0  0  0  0  0  0  0  0  0  0  0
   -2.9772   -0.1668   -0.0328 H   0  0  0  0  0  0  0  0  0  0  0  0
   -1.8572    2.0404   -0.0845 H   0  0  0  0  0  0  0  0  0  0  0  0
    0.5964    2.1860   -0.0577 H   0  0  0  0  0  0  0  0  0  0  0  0
  1  2  2  3
  1  8  1  0
  1  9  1  0
  2  3  1  0
  2  7  1  0
  3  4  1  0
  3 10  1  0
  4  5  2  0
  4 11  1  0
  5  6  1  0
  5 12  1  0
  6  7  2  0
  6 13  1  0
  7 14  1  0
M  RAD  1   3   2
M  END
>  <reaction>  (2) 
rxn_880

>  <mol_properties>  (2) 
{"0": {"label": "acceptor", "atom_type": "Cs"}}

>  <type>  (2) 
r2

$$$$

     RDKit          3D

 15 15  0  0  0  0  0  0  0  0999 V2000
    2.2031   -0.2111   -0.1693 C   0  0  0  0  0  0  0  0  0  0  0  0
    0.7140   -0.0314   -0.0623 C   0  0  0  0  0  0  0  0  0  0  0  0
   -0.0114    0.5491   -1.0982 C   0  0  0  0  0  0  0  0  0  0  0  0
   -1.3882    0.6886   -1.0150 C   0  0  0  0  0  0  0  0  0  0  0  0
   -2.0661    0.2493    0.1118 C   0  0  0  0  0  0  0  0  0  0  0  0
   -1.3551   -0.3278    1.1528 C   0  0  0  0  0  0  0  0  0  0  0  0
    0.0216   -0.4648    1.0642 C   0  0  0  0  0  0  0  0  0  0  0  0
    2.6776   -0.1836    0.8122 H   0  0  0  0  0  0  0  0  0  0  0  0
    2.4446   -1.1749   -0.6249 H   0  0  0  0  0  0  0  0  0  0  0  0
    2.6532    0.5664   -0.7875 H   0  0  0  0  0  0  0  0  0  0  0  0
    0.5104    0.8989   -1.9819 H   0  0  0  0  0  0  0  0  0  0  0  0
   -1.9328    1.1452   -1.8322 H   0  0  0  0  0  0  0  0  0  0  0  0
   -3.1409    0.3597    0.1800 H   0  0  0  0  0  0  0  0  0  0  0  0
   -1.8736   -0.6702    2.0398 H   0  0  0  0  0  0  0  0  0  0  0  0
    0.5695   -0.9141    1.8849 H   0  0  0  0  0  0  0  0  0  0  0  0
  1  2  1  0
  1  8  1  0
  1  9  1  0
  1 10  1  0
  2  3  2  0
  2  7  1  0
  3  4  1  0
  3 11  1  0
  4  5  2  0
  4 12  1  0
  5  6  1  0
  5 13  1  0
  6  7  2  0
  6 14  1  0
  7 15  1  0
M  END
>  <reaction>  (3) 
rxn_880

>  <mol_properties>  (3) 
{"0": {"label": "acceptor", "atom_type": "Cs"}, "14": {"label": "a_hydrogen", "atom_type": "H0"}}

>  <type>  (3) 
r2h

$$$$

     RDKit          3D

 22 21  0  0  0  0  0  0  0  0999 V2000
   -1.2100    1.0323   -1.2915 C   0  0  0  0  0  0  0  0  0  0  0  0
   -0.5967    0.5981   -0.0299 C   0  0  0  0  0  0  0  0  0  0  0  0
    0.7240    0.9314    0.2820 C   0  0  0  0  0  0  0  0  0  0  0  0
    1.3276    0.4570    1.4338 C   0  0  0  0  0  0  0  0  0  0  0  0
    0.6259   -0.3662    2.3031 C   0  0  0  0  0  0  0  0  0  0  0  0
   -0.6875   -0.7052    2.0094 C   0  0  0  0  0  0  0  0  0  0  0  0
   -1.2902   -0.2294    0.8575 C   0  0  0  0  0  0  0  0  0  0  0  0
   -0.7562    1.9113   -1.7441 H   0  0  0  0  0  0  0  0  0  0  0  0
   -2.2959    1.0963   -1.2766 H   0  0  0  0  0  0  0  0  0  0  0  0
    1.2807    1.5719   -0.3927 H   0  0  0  0  0  0  0  0  0  0  0  0
    2.3515    0.7314    1.6557 H   0  0  0  0  0  0  0  0  0  0  0  0
    1.0973   -0.7374    3.2041 H   0  0  0  0  0  0  0  0  0  0  0  0
   -1.2456   -1.3434    2.6833 H   0  0  0  0  0  0  0  0  0  0  0  0
   -2.3160   -0.5009    0.6352 H   0  0  0  0  0  0  0  0  0  0  0  0
    0.4834   -1.6708   -2.3236 C   0  0  0  0  0  0  0  0  0  0  0  0
   -0.6709   -0.9869   -2.9970 C   0  0  0  0  0  3  0  0  0  0  0  0
    1.3479   -1.0088   -2.2480 H   0  0  0  0  0  0  0  0  0  0  0  0
    0.2215   -1.9862   -1.3118 H   0  0  0  0  0  0  0  0  0  0  0  0
    0.7987   -2.5622   -2.8768 H   0  0  0  0  0  0  0  0  0  0  0  0
   -0.9867    0.0937   -2.1608 H   0  0  0  0  0  0  0  0  0  0  0  0
   -1.6037   -1.5463   -3.0194 H   0  0  0  0  0  0  0  0  0  0  0  0
   -0.4519   -0.5072   -3.9484 H   0  0  0  0  0  0  0  0  0  0  0  0
  1  2  1  0
  1  8  1  0
  1  9  1  0
  1 20  1  0
  2  3  2  0
  2  7  1  0
  3  4  1  0
  3 10  1  0
  4  5  2  0
  4 11  1  0
  5  6  1  0
  5 12  1  0
  6  7  2  0
  6 13  1  0
  7 14  1  0
 15 16  1  0
 15 17  1  0
 15 18  1  0
 15 19  1  0
 16 21  1  0
 16 22  1  0
M  RAD  1  16   2
M  END
>  <reaction>  (4) 
rxn_880

>  <mol_properties>  (4) 
{"0": {"label": "*1", "atom_type": "Cs"}, "1": {"label": "*0", "atom_type": "Cd"}, "14": {"label": "*4", "atom_type": "Cs"}, "15": {"label": "*3", "atom_type": "Cs"}, "19": {"label": "*2", "atom_type": "H0"}}

>  <type>  (4) 
ts

$$$$

     RDKit          3D

 22 21  0  0  0  0  0  0  0  0999 V2000
    1.4969    0.2637   -0.6343 C   0  0  0  0  0  0  0  0  0  0  0  0
    0.2838    0.5195    0.2167 C   0  0  0  0  0  0  0  0  0  0  0  0
    0.4006    0.6945    1.5922 C   0  0  0  0  0  0  0  0  0  0  0  0
   -0.7121    0.9604    2.3753 C   0  0  0  0  0  0  0  0  0  0  0  0
   -1.9670    1.0547    1.7934 C   0  0  0  0  0  0  0  0  0  0  0  0
   -2.0980    0.8790    0.4243 C   0  0  0  0  0  0  0  0  0  0  0  0
   -0.9819    0.6133   -0.3538 C   0  0  0  0  0  0  0  0  0  0  0  0
    2.2684   -0.2675   -0.0760 H   0  0  0  0  0  0  0  0  0  0  0  0
    1.9309    1.2047   -0.9819 H   0  0  0  0  0  0  0  0  0  0  0  0
    1.3774    0.6190    2.0569 H   0  0  0  0  0  0  0  0  0  0  0  0
   -0.5985    1.0911    3.4444 H   0  0  0  0  0  0  0  0  0  0  0  0
   -2.8376    1.2596    2.4033 H   0  0  0  0  0  0  0  0  0  0  0  0
   -3.0740    0.9458   -0.0403 H   0  0  0  0  0  0  0  0  0  0  0  0
   -1.0948    0.4739   -1.4231 H   0  0  0  0  0  0  0  0  0  0  0  0
    1.4969   -2.1764   -3.1068 C   0  0  0  0  0  0  0  0  0  0  0  0
    1.4969   -2.1764   -1.5840 C   0  0  0  0  0  3  0  0  0  0  0  0
    0.6160   -1.6678   -3.5026 H   0  0  0  0  0  0  0  0  0  0  0  0
    2.3777   -1.6678   -3.5026 H   0  0  0  0  0  0  0  0  0  0  0  0
    1.4969   -3.1935   -3.5026 H   0  0  0  0  0  0  0  0  0  0  0  0
    1.4969   -0.9558   -1.1090 H   0  0  0  0  0  0  0  0  0  0  0  0
    2.3777   -2.6849   -1.1881 H   0  0  0  0  0  0  0  0  0  0  0  0
    0.6160   -2.6849   -1.1881 H   0  0  0  0  0  0  0  0  0  0  0  0
  1  2  1  0
  1  8  1  0
  1  9  1  0
  1 20  1  0
  2  3  2  0
  2  7  1  0
  3  4  1  0
  3 10  1  0
  4  5  2  0
  4 11  1  0
  5  6  1  0
  5 12  1  0
  6  7  2  0
  6 13  1  0
  7 14  1  0
 15 16  1  0
 15 17  1  0
 15 18  1  0
 15 19  1  0
 16 21  1  0
 16 22  1  0
M  RAD  1  16   2
M  END
>  <reaction>  (5) 
rxn_880

>  <mol_properties>  (5) 
{"0": {"label": "*1", "atom_type": "Cs"}, "1": {"label": "*0", "atom_type": "Cd"}, "14": {"label": "*4", "atom_type": "Cs"}, "15": {"label": "*3", "atom_type": "Cs"}, "19": {"label": "*2", "atom_type": "H0"}}

>  <type>  (5) 
unop_1

>  <geom_source>  (5) 
Heuristics

$$$$

     RDKit          3D

 22 21  0  0  0  0  0  0  0  0999 V2000
    0.8555   -0.5921    1.5702 C   0  0  0  0  0  0  0  0  0  0  0  0
    0.1552    0.3576    0.6382 C   0  0  0  0  0  0  0  0  0  0  0  0
   -0.7856    1.2643    1.1169 C   0  0  0  0  0  0  0  0  0  0  0  0
   -1.4108    2.1615    0.2648 C   0  0  0  0  0  0  0  0  0  0  0  0
   -1.1054    2.1663   -1.0876 C   0  0  0  0  0  0  0  0  0  0  0  0
   -0.1723    1.2658   -1.5785 C   0  0  0  0  0  0  0  0  0  0  0  0
    0.4497    0.3709   -0.7217 C   0  0  0  0  0  0  0  0  0  0  0  0
    0.2234   -0.8527    2.4198 H   0  0  0  0  0  0  0  0  0  0  0  0
    1.7697   -0.1422    1.9657 H   0  0  0  0  0  0  0  0  0  0  0  0
   -1.0336    1.2657    2.1724 H   0  0  0  0  0  0  0  0  0  0  0  0
   -2.1415    2.8572    0.6585 H   0  0  0  0  0  0  0  0  0  0  0  0
   -1.5943    2.8643   -1.7552 H   0  0  0  0  0  0  0  0  0  0  0  0
    0.0705    1.2574   -2.6339 H   0  0  0  0  0  0  0  0  0  0  0  0
    1.1754   -0.3320   -1.1155 H   0  0  0  0  0  0  0  0  0  0  0  0
    0.8555   -3.0322   -0.9022 C   0  0  0  0  0  0  0  0  0  0  0  0
    0.8555   -3.0322    0.6205 C   0  0  0  0  0  3  0  0  0  0  0  0
   -0.0253   -2.5236   -1.2981 H   0  0  0  0  0  0  0  0  0  0  0  0
    1.7364   -2.5236   -1.2981 H   0  0  0  0  0  0  0  0  0  0  0  0
    0.8555   -4.0493   -1.2981 H   0  0  0  0  0  0  0  0  0  0  0  0
    0.8555   -1.8116    1.0956 H   0  0  0  0  0  0  0  0  0  0  0  0
    1.7364   -3.5407    1.0164 H   0  0  0  0  0  0  0  0  0  0  0  0
   -0.0253   -3.5407    1.0164 H   0  0  0  0  0  0  0  0  0  0  0  0
  1  2  1  0
  1  8  1  0
  1  9  1  0
  1 20  1  0
  2  3  2  0
  2  7  1  0
  3  4  1  0
  3 10  1  0
  4  5  2  0
  4 11  1  0
  5  6  1  0
  5 12  1  0
  6  7  2  0
  6 13  1  0
  7 14  1  0
 15 16  1  0
 15 17  1  0
 15 18  1  0
 15 19  1  0
 16 21  1  0
 16 22  1  0
M  RAD  1  16   2
M  END
>  <reaction>  (6) 
rxn_880

>  <mol_properties>  (6) 
{"0": {"label": "*1", "atom_type": "Cs"}, "1": {"label": "*0", "atom_type": "Cd"}, "14": {"label": "*4", "atom_type": "Cs"}, "15": {"label": "*3", "atom_type": "Cs"}, "19": {"label": "*2", "atom_type": "H0"}}

>  <type>  (6) 
unop_2

>  <geom_source>  (6) 
Heuristics

$$$$

     RDKit          3D

 22 21  0  0  0  0  0  0  0  0999 V2000
    0.8690    0.4930   -1.2219 C   0  0  0  0  0  0  0  0  0  0  0  0
    0.1686    0.5629    0.1069 C   0  0  0  0  0  0  0  0  0  0  0  0
    0.8276    1.0362    1.2374 C   0  0  0  0  0  0  0  0  0  0  0  0
    0.1756    1.1301    2.4572 C   0  0  0  0  0  0  0  0  0  0  0  0
   -1.1528    0.7488    2.5681 C   0  0  0  0  0  0  0  0  0  0  0  0
   -1.8204    0.2722    1.4503 C   0  0  0  0  0  0  0  0  0  0  0  0
   -1.1633    0.1805    0.2331 C   0  0  0  0  0  0  0  0  0  0  0  0
    1.9391    0.3237   -1.0980 H   0  0  0  0  0  0  0  0  0  0  0  0
    0.7454    1.4283   -1.7739 H   0  0  0  0  0  0  0  0  0  0  0  0
    1.8676    1.3333    1.1613 H   0  0  0  0  0  0  0  0  0  0  0  0
    0.7083    1.4993    3.3248 H   0  0  0  0  0  0  0  0  0  0  0  0
   -1.6632    0.8188    3.5203 H   0  0  0  0  0  0  0  0  0  0  0  0
   -2.8568   -0.0329    1.5264 H   0  0  0  0  0  0  0  0  0  0  0  0
   -1.6927   -0.1969   -0.6347 H   0  0  0  0  0  0  0  0  0  0  0  0
    0.8690   -1.9470   -3.6944 C   0  0  0  0  0  0  0  0  0  0  0  0
    0.8690   -1.9470   -2.1716 C   0  0  0  0  0  3  0  0  0  0  0  0
   -0.0119   -1.4385   -4.0902 H   0  0  0  0  0  0  0  0  0  0  0  0
    1.7498   -1.4385   -4.0902 H   0  0  0  0  0  0  0  0  0  0  0  0
    0.8690   -2.9641   -4.0902 H   0  0  0  0  0  0  0  0  0  0  0  0
    0.8690   -0.7265   -1.6965 H   0  0  0  0  0  0  0  0  0  0  0  0
    1.7498   -2.4556   -1.7757 H   0  0  0  0  0  0  0  0  0  0  0  0
   -0.0119   -2.4556   -1.7757 H   0  0  0  0  0  0  0  0  0  0  0  0
  1  2  1  0
  1  8  1  0
  1  9  1  0
  1 20  1  0
  2  3  2  0
  2  7  1  0
  3  4  1  0
  3 10  1  0
  4  5  2  0
  4 11  1  0
  5  6  1  0
  5 12  1  0
  6  7  2  0
  6 13  1  0
  7 14  1  0
 15 16  1  0
 15 17  1  0
 15 18  1  0
 15 19  1  0
 16 21  1  0
 16 22  1  0
M  RAD  1  16   2
M  END
>  <reaction>  (7) 
rxn_880

>  <mol_properties>  (7) 
{"0": {"label": "*1", "atom_type": "Cs"}, "1": {"label": "*0", "atom_type": "Cd"}, "14": {"label": "*4", "atom_type": "Cs"}, "15": {"label": "*3", "atom_type": "Cs"}, "19": {"label": "*2", "atom_type": "H0"}}

>  <type>  (7) 
unop_3

>  <geom_source>  (7) 
Heuristics

$$$$

     RDKit          3D

 22 21  0  0  0  0  0  0  0  0999 V2000
   -1.5135   -0.3411    0.9649 C   0  0  0  0  0  0  0  0  0  0  0  0
   -0.3004    0.4227    0.5107 C   0  0  0  0  0  0  0  0  0  0  0  0
   -0.0712    1.7240    0.9470 C   0  0  0  0  0  0  0  0  0  0  0  0
    1.0615    2.4199    0.5540 C   0  0  0  0  0  0  0  0  0  0  0  0
    1.9882    1.8238   -0.2876 C   0  0  0  0  0  0  0  0  0  0  0  0
    1.7704    0.5289   -0.7326 C   0  0  0  0  0  0  0  0  0  0  0  0
    0.6359   -0.1623   -0.3363 C   0  0  0  0  0  0  0  0  0  0  0  0
   -2.3515    0.3275    1.1647 H   0  0  0  0  0  0  0  0  0  0  0  0
   -1.3026   -0.8892    1.8868 H   0  0  0  0  0  0  0  0  0  0  0  0
   -0.7921    2.1998    1.6025 H   0  0  0  0  0  0  0  0  0  0  0  0
    1.2190    3.4326    0.9039 H   0  0  0  0  0  0  0  0  0  0  0  0
    2.8722    2.3663   -0.5979 H   0  0  0  0  0  0  0  0  0  0  0  0
    2.4852    0.0551   -1.3940 H   0  0  0  0  0  0  0  0  0  0  0  0
    0.4724   -1.1732   -0.6924 H   0  0  0  0  0  0  0  0  0  0  0  0
   -1.5135   -2.7812   -1.5075 C   0  0  0  0  0  0  0  0  0  0  0  0
   -1.5135   -2.7812    0.0153 C   0  0  0  0  0  3  0  0  0  0  0  0
   -2.3943   -2.2726   -1.9033 H   0  0  0  0  0  0  0  0  0  0  0  0
   -0.6326   -2.2726   -1.9033 H   0  0  0  0  0  0  0  0  0  0  0  0
   -1.5135   -3.7983   -1.9033 H   0  0  0  0  0  0  0  0  0  0  0  0
   -1.5135   -1.5606    0.4903 H   0  0  0  0  0  0  0  0  0  0  0  0
   -0.6326   -3.2897    0.4112 H   0  0  0  0  0  0  0  0  0  0  0  0
   -2.3943   -3.2897    0.4112 H   0  0  0  0  0  0  0  0  0  0  0  0
  1  2  1  0
  1  8  1  0
  1  9  1  0
  1 20  1  0
  2  3  2  0
  2  7  1  0
  3  4  1  0
  3 10  1  0
  4  5  2  0
  4 11  1  0
  5  6  1  0
  5 12  1  0
  6  7  2  0
  6 13  1  0
  7 14  1  0
 15 16  1  0
 15 17  1  0
 15 18  1  0
 15 19  1  0
 16 21  1  0
 16 22  1  0
M  RAD  1  16   2
M  END
>  <reaction>  (8) 
rxn_880

>  <mol_properties>  (8) 
{"0": {"label": "*1", "atom_type": "Cs"}, "1": {"label": "*0", "atom_type": "Cd"}, "14": {"label": "*4", "atom_type": "Cs"}, "15": {"label": "*3", "atom_type": "Cs"}, "19": {"label": "*2", "atom_type": "H0"}}

>  <type>  (8) 
unop_4

>  <geom_source>  (8) 
Heuristics

$$$$

     RDKit          3D

 22 21  0  0  0  0  0  0  0  0999 V2000
    0.0164    0.5837   -1.4404 C   0  0  0  0  0  0  0  0  0  0  0  0
    0.0164    0.5855    0.0634 C   0  0  0  0  0  0  0  0  0  0  0  0
    0.5944    1.6315    0.7762 C   0  0  0  0  0  0  0  0  0  0  0  0
    0.5693    1.6509    2.1622 C   0  0  0  0  0  0  0  0  0  0  0  0
   -0.0358    0.6185    2.8624 C   0  0  0  0  0  0  0  0  0  0  0  0
   -0.6125   -0.4317    2.1646 C   0  0  0  0  0  0  0  0  0  0  0  0
   -0.5845   -0.4458    0.7787 C   0  0  0  0  0  0  0  0  0  0  0  0
    0.8884    1.1042   -1.8377 H   0  0  0  0  0  0  0  0  0  0  0  0
   -0.8727    1.0878   -1.8277 H   0  0  0  0  0  0  0  0  0  0  0  0
    1.0731    2.4416    0.2374 H   0  0  0  0  0  0  0  0  0  0  0  0
    1.0271    2.4739    2.6969 H   0  0  0  0  0  0  0  0  0  0  0  0
   -0.0542    0.6302    3.9448 H   0  0  0  0  0  0  0  0  0  0  0  0
   -1.0837   -1.2458    2.7013 H   0  0  0  0  0  0  0  0  0  0  0  0
   -1.0349   -1.2731    0.2418 H   0  0  0  0  0  0  0  0  0  0  0  0
    0.0164   -1.8563   -3.9128 C   0  0  0  0  0  0  0  0  0  0  0  0
    0.0164   -1.8563   -2.3900 C   0  0  0  0  0  3  0  0  0  0  0  0
   -0.8644   -1.3478   -4.3086 H   0  0  0  0  0  0  0  0  0  0  0  0
    0.8972   -1.3478   -4.3086 H   0  0  0  0  0  0  0  0  0  0  0  0
    0.0164   -2.8734   -4.3086 H   0  0  0  0  0  0  0  0  0  0  0  0
    0.0164   -0.6358   -1.9150 H   0  0  0  0  0  0  0  0  0  0  0  0
    0.8972   -2.3649   -1.9941 H   0  0  0  0  0  0  0  0  0  0  0  0
   -0.8644   -2.3649   -1.9941 H   0  0  0  0  0  0  0  0  0  0  0  0
  1  2  1  0
  1  8  1  0
  1  9  1  0
  1 20  1  0
  2  3  2  0
  2  7  1  0
  3  4  1  0
  3 10  1  0
  4  5  2  0
  4 11  1  0
  5  6  1  0
  5 12  1  0
  6  7  2  0
  6 13  1  0
  7 14  1  0
 15 16  1  0
 15 17  1  0
 15 18  1  0
 15 19  1  0
 16 21  1  0
 16 22  1  0
M  RAD  1  16   2
M  END
>  <reaction>  (9) 
rxn_880

>  <mol_properties>  (9) 
{"0": {"label": "*1", "atom_type": "Cs"}, "1": {"label": "*0", "atom_type": "Cd"}, "14": {"label": "*4", "atom_type": "Cs"}, "15": {"label": "*3", "atom_type": "Cs"}, "19": {"label": "*2", "atom_type": "H0"}}

>  <type>  (9) 
unop_5

>  <geom_source>  (9) 
Heuristics

$$$$

     RDKit          3D

 22 21  0  0  0  0  0  0  0  0999 V2000
   -1.7353   -0.0225    0.1545 C   0  0  0  0  0  0  0  0  0  0  0  0
   -0.3346    0.4873    0.3529 C   0  0  0  0  0  0  0  0  0  0  0  0
   -0.0968    1.6706    1.0453 C   0  0  0  0  0  0  0  0  0  0  0  0
    1.1950    2.1275    1.2559 C   0  0  0  0  0  0  0  0  0  0  0  0
    2.2764    1.4059    0.7738 C   0  0  0  0  0  0  0  0  0  0  0  0
    2.0535    0.2269    0.0792 C   0  0  0  0  0  0  0  0  0  0  0  0
    0.7595   -0.2252   -0.1284 C   0  0  0  0  0  0  0  0  0  0  0  0
   -2.4526    0.7974    0.1047 H   0  0  0  0  0  0  0  0  0  0  0  0
   -2.0323   -0.6699    0.9835 H   0  0  0  0  0  0  0  0  0  0  0  0
   -0.9362    2.2437    1.4229 H   0  0  0  0  0  0  0  0  0  0  0  0
    1.3571    3.0523    1.7957 H   0  0  0  0  0  0  0  0  0  0  0  0
    3.2859    1.7622    0.9349 H   0  0  0  0  0  0  0  0  0  0  0  0
    2.8904   -0.3424   -0.3059 H   0  0  0  0  0  0  0  0  0  0  0  0
    0.5950   -1.1465   -0.6759 H   0  0  0  0  0  0  0  0  0  0  0  0
   -1.7353   -2.4626   -2.3180 C   0  0  0  0  0  0  0  0  0  0  0  0
   -1.7353   -2.4626   -0.7952 C   0  0  0  0  0  3  0  0  0  0  0  0
   -2.6161   -1.9540   -2.7138 H   0  0  0  0  0  0  0  0  0  0  0  0
   -0.8544   -1.9540   -2.7138 H   0  0  0  0  0  0  0  0  0  0  0  0
   -1.7353   -3.4797   -2.7138 H   0  0  0  0  0  0  0  0  0  0  0  0
   -1.7353   -1.2420   -0.3202 H   0  0  0  0  0  0  0  0  0  0  0  0
   -0.8544   -2.9711   -0.3993 H   0  0  0  0  0  0  0  0  0  0  0  0
   -2.6161   -2.9711   -0.3993 H   0  0  0  0  0  0  0  0  0  0  0  0
  1  2  1  0
  1  8  1  0
  1  9  1  0
  1 20  1  0
  2  3  2  0
  2  7  1  0
  3  4  1  0
  3 10  1  0
  4  5  2  0
  4 11  1  0
  5  6  1  0
  5 12  1  0
  6  7  2  0
  6 13  1  0
  7 14  1  0
 15 16  1  0
 15 17  1  0
 15 18  1  0
 15 19  1  0
 16 21  1  0
 16 22  1  0
M  RAD  1  16   2
M  END
>  <reaction>  (10) 
rxn_880

>  <mol_properties>  (10) 
{"0": {"label": "*1", "atom_type": "Cs"}, "1": {"label": "*0", "atom_type": "Cd"}, "14": {"label": "*4", "atom_type": "Cs"}, "15": {"label": "*3", "atom_type": "Cs"}, "19": {"label": "*2", "atom_type": "H0"}}

>  <type>  (10) 
unop_6

>  <geom_source>  (10) 
Heuristics

$$$$

     RDKit          3D

 22 21  0  0  0  0  0  0  0  0999 V2000
   -1.4909    0.2912   -0.6511 C   0  0  0  0  0  0  0  0  0  0  0  0
   -0.2779    0.5470    0.2000 C   0  0  0  0  0  0  0  0  0  0  0  0
   -0.1845    1.6927    0.9841 C   0  0  0  0  0  0  0  0  0  0  0  0
    0.9191    1.9166    1.7928 C   0  0  0  0  0  0  0  0  0  0  0  0
    1.9540    0.9946    1.8300 C   0  0  0  0  0  0  0  0  0  0  0  0
    1.8753   -0.1496    1.0510 C   0  0  0  0  0  0  0  0  0  0  0  0
    0.7693   -0.3683    0.2442 C   0  0  0  0  0  0  0  0  0  0  0  0
   -1.9453    1.2246   -0.9849 H   0  0  0  0  0  0  0  0  0  0  0  0
   -2.2483   -0.2611   -0.0890 H   0  0  0  0  0  0  0  0  0  0  0  0
   -0.9871    2.4212    0.9590 H   0  0  0  0  0  0  0  0  0  0  0  0
    0.9721    2.8161    2.3935 H   0  0  0  0  0  0  0  0  0  0  0  0
    2.8179    1.1686    2.4587 H   0  0  0  0  0  0  0  0  0  0  0  0
    2.6799   -0.8743    1.0685 H   0  0  0  0  0  0  0  0  0  0  0  0
    0.7184   -1.2643   -0.3642 H   0  0  0  0  0  0  0  0  0  0  0  0
   -1.4909   -2.1488   -3.1235 C   0  0  0  0  0  0  0  0  0  0  0  0
   -1.4909   -2.1488   -1.6007 C   0  0  0  0  0  3  0  0  0  0  0  0
   -2.3717   -1.6403   -3.5194 H   0  0  0  0  0  0  0  0  0  0  0  0
   -0.6100   -1.6403   -3.5194 H   0  0  0  0  0  0  0  0  0  0  0  0
   -1.4909   -3.1660   -3.5194 H   0  0  0  0  0  0  0  0  0  0  0  0
   -1.4909   -0.9283   -1.1257 H   0  0  0  0  0  0  0  0  0  0  0  0
   -0.6100   -2.6574   -1.2049 H   0  0  0  0  0  0  0  0  0  0  0  0
   -2.3717   -2.6574   -1.2049 H   0  0  0  0  0  0  0  0  0  0  0  0
  1  2  1  0
  1  8  1  0
  1  9  1  0
  1 20  1  0
  2  3  2  0
  2  7  1  0
  3  4  1  0
  3 10  1  0
  4  5  2  0
  4 11  1  0
  5  6  1  0
  5 12  1  0
  6  7  2  0
  6 13  1  0
  7 14  1  0
 15 16  1  0
 15 17  1  0
 15 18  1  0
 15 19  1  0
 16 21  1  0
 16 22  1  0
M  RAD  1  16   2
M  END
>  <reaction>  (11) 
rxn_880

>  <mol_properties>  (11) 
{"0": {"label": "*1", "atom_type": "Cs"}, "1": {"label": "*0", "atom_type": "Cd"}, "14": {"label": "*4", "atom_type": "Cs"}, "15": {"label": "*3", "atom_type": "Cs"}, "19": {"label": "*2", "atom_type": "H0"}}

>  <type>  (11) 
unop_7

>  <geom_source>  (11) 
Heuristics

$$$$

     RDKit          3D

 22 21  0  0  0  0  0  0  0  0999 V2000
    1.7277   -0.0498    0.1711 C   0  0  0  0  0  0  0  0  0  0  0  0
    0.3270    0.4600    0.3695 C   0  0  0  0  0  0  0  0  0  0  0  0
   -0.1775    0.6829    1.6470 C   0  0  0  0  0  0  0  0  0  0  0  0
   -1.4578    1.1813    1.8323 C   0  0  0  0  0  0  0  0  0  0  0  0
   -2.2599    1.4654    0.7376 C   0  0  0  0  0  0  0  0  0  0  0  0
   -1.7708    1.2448   -0.5409 C   0  0  0  0  0  0  0  0  0  0  0  0
   -0.4898    0.7462   -0.7201 C   0  0  0  0  0  0  0  0  0  0  0  0
    2.0426   -0.6791    1.0041 H   0  0  0  0  0  0  0  0  0  0  0  0
    2.4350    0.7805    0.0999 H   0  0  0  0  0  0  0  0  0  0  0  0
    0.4410    0.4603    2.5093 H   0  0  0  0  0  0  0  0  0  0  0  0
   -1.8311    1.3453    2.8356 H   0  0  0  0  0  0  0  0  0  0  0  0
   -3.2609    1.8523    0.8800 H   0  0  0  0  0  0  0  0  0  0  0  0
   -2.3903    1.4586   -1.4031 H   0  0  0  0  0  0  0  0  0  0  0  0
   -0.1174    0.5735   -1.7237 H   0  0  0  0  0  0  0  0  0  0  0  0
    1.7277   -2.4898   -2.3014 C   0  0  0  0  0  0  0  0  0  0  0  0
    1.7277   -2.4898   -0.7786 C   0  0  0  0  0  3  0  0  0  0  0  0
    0.8469   -1.9813   -2.6972 H   0  0  0  0  0  0  0  0  0  0  0  0
    2.6086   -1.9813   -2.6972 H   0  0  0  0  0  0  0  0  0  0  0  0
    1.7277   -3.5069   -2.6972 H   0  0  0  0  0  0  0  0  0  0  0  0
    1.7277   -1.2693   -0.3036 H   0  0  0  0  0  0  0  0  0  0  0  0
    2.6086   -2.9984   -0.3827 H   0  0  0  0  0  0  0  0  0  0  0  0
    0.8469   -2.9984   -0.3827 H   0  0  0  0  0  0  0  0  0  0  0  0
  1  2  1  0
  1  8  1  0
  1  9  1  0
  1 20  1  0
  2  3  2  0
  2  7  1  0
  3  4  1  0
  3 10  1  0
  4  5  2  0
  4 11  1  0
  5  6  1  0
  5 12  1  0
  6  7  2  0
  6 13  1  0
  7 14  1  0
 15 16  1  0
 15 17  1  0
 15 18  1  0
 15 19  1  0
 16 21  1  0
 16 22  1  0
M  RAD  1  16   2
M  END
>  <reaction>  (12) 
rxn_880

>  <mol_properties>  (12) 
{"0": {"label": "*1", "atom_type": "Cs"}, "1": {"label": "*0", "atom_type": "Cd"}, "14": {"label": "*4", "atom_type": "Cs"}, "15": {"label": "*3", "atom_type": "Cs"}, "19": {"label": "*2", "atom_type": "H0"}}

>  <type>  (12) 
unop_8

>  <geom_source>  (12) 
Heuristics

$$$$

     RDKit          3D

 22 21  0  0  0  0  0  0  0  0999 V2000
   -0.8844   -0.5788    1.5621 C   0  0  0  0  0  0  0  0  0  0  0  0
   -0.1840    0.3709    0.6300 C   0  0  0  0  0  0  0  0  0  0  0  0
   -0.2602    1.7469    0.8229 C   0  0  0  0  0  0  0  0  0  0  0  0
    0.4090    2.6238   -0.0168 C   0  0  0  0  0  0  0  0  0  0  0  0
    1.1683    2.1372   -1.0699 C   0  0  0  0  0  0  0  0  0  0  0  0
    1.2500    0.7685   -1.2755 C   0  0  0  0  0  0  0  0  0  0  0  0
    0.5787   -0.1037   -0.4326 C   0  0  0  0  0  0  0  0  0  0  0  0
   -1.7866   -0.1312    1.9803 H   0  0  0  0  0  0  0  0  0  0  0  0
   -0.2341   -0.8509    2.3975 H   0  0  0  0  0  0  0  0  0  0  0  0
   -0.8544    2.1370    1.6416 H   0  0  0  0  0  0  0  0  0  0  0  0
    0.3343    3.6912    0.1504 H   0  0  0  0  0  0  0  0  0  0  0  0
    1.6896    2.8203   -1.7284 H   0  0  0  0  0  0  0  0  0  0  0  0
    1.8363    0.3774   -2.0978 H   0  0  0  0  0  0  0  0  0  0  0  0
    0.6456   -1.1724   -0.6036 H   0  0  0  0  0  0  0  0  0  0  0  0
   -0.8844   -3.0189   -0.9104 C   0  0  0  0  0  0  0  0  0  0  0  0
   -0.8844   -3.0189    0.6124 C   0  0  0  0  0  3  0  0  0  0  0  0
   -1.7652   -2.5103   -1.3062 H   0  0  0  0  0  0  0  0  0  0  0  0
   -0.0035   -2.5103   -1.3062 H   0  0  0  0  0  0  0  0  0  0  0  0
   -0.8844   -4.0360   -1.3062 H   0  0  0  0  0  0  0  0  0  0  0  0
   -0.8844   -1.7983    1.0875 H   0  0  0  0  0  0  0  0  0  0  0  0
   -0.0035   -3.5274    1.0083 H   0  0  0  0  0  0  0  0  0  0  0  0
   -1.7652   -3.5274    1.0083 H   0  0  0  0  0  0  0  0  0  0  0  0
  1  2  1  0
  1  8  1  0
  1  9  1  0
  1 20  1  0
  2  3  2  0
  2  7  1  0
  3  4  1  0
  3 10  1  0
  4  5  2  0
  4 11  1  0
  5  6  1  0
  5 12  1  0
  6  7  2  0
  6 13  1  0
  7 14  1  0
 15 16  1  0
 15 17  1  0
 15 18  1  0
 15 19  1  0
 16 21  1  0
 16 22  1  0
M  RAD  1  16   2
M  END
>  <reaction>  (13) 
rxn_880

>  <mol_properties>  (13) 
{"0": {"label": "*1", "atom_type": "Cs"}, "1": {"label": "*0", "atom_type": "Cd"}, "14": {"label": "*4", "atom_type": "Cs"}, "15": {"label": "*3", "atom_type": "Cs"}, "19": {"label": "*2", "atom_type": "H0"}}

>  <type>  (13) 
unop_9

>  <geom_source>  (13) 
Heuristics

$$$$

     RDKit          3D

 22 21  0  0  0  0  0  0  0  0999 V2000
    1.4941   -0.3637    0.9787 C   0  0  0  0  0  0  0  0  0  0  0  0
    0.2810    0.4001    0.5245 C   0  0  0  0  0  0  0  0  0  0  0  0
   -0.6312    0.9051    1.4459 C   0  0  0  0  0  0  0  0  0  0  0  0
   -1.7344    1.6355    1.0318 C   0  0  0  0  0  0  0  0  0  0  0  0
   -1.9459    1.8731   -0.3176 C   0  0  0  0  0  0  0  0  0  0  0  0
   -1.0466    1.3728   -1.2467 C   0  0  0  0  0  0  0  0  0  0  0  0
    0.0549    0.6431   -0.8269 C   0  0  0  0  0  0  0  0  0  0  0  0
    1.3014   -0.8966    1.9104 H   0  0  0  0  0  0  0  0  0  0  0  0
    2.3341    0.3133    1.1542 H   0  0  0  0  0  0  0  0  0  0  0  0
   -0.4762    0.7213    2.5032 H   0  0  0  0  0  0  0  0  0  0  0  0
   -2.4329    2.0174    1.7660 H   0  0  0  0  0  0  0  0  0  0  0  0
   -2.8081    2.4410   -0.6434 H   0  0  0  0  0  0  0  0  0  0  0  0
   -1.2043    1.5483   -2.3036 H   0  0  0  0  0  0  0  0  0  0  0  0
    0.7508    0.2528   -1.5611 H   0  0  0  0  0  0  0  0  0  0  0  0
    1.4941   -2.8037   -1.4937 C   0  0  0  0  0  0  0  0  0  0  0  0
    1.4941   -2.8037    0.0291 C   0  0  0  0  0  3  0  0  0  0  0  0
    0.6132   -2.2952   -1.8896 H   0  0  0  0  0  0  0  0  0  0  0  0
    2.3749   -2.2952   -1.8896 H   0  0  0  0  0  0  0  0  0  0  0  0
    1.4941   -3.8209   -1.8896 H   0  0  0  0  0  0  0  0  0  0  0  0
    1.4941   -1.5832    0.5041 H   0  0  0  0  0  0  0  0  0  0  0  0
    2.3749   -3.3123    0.4249 H   0  0  0  0  0  0  0  0  0  0  0  0
    0.6132   -3.3123    0.4249 H   0  0  0  0  0  0  0  0  0  0  0  0
  1  2  1  0
  1  8  1  0
  1  9  1  0
  1 20  1  0
  2  3  2  0
  2  7  1  0
  3  4  1  0
  3 10  1  0
  4  5  2  0
  4 11  1  0
  5  6  1  0
  5 12  1  0
  6  7  2  0
  6 13  1  0
  7 14  1  0
 15 16  1  0
 15 17  1  0
 15 18  1  0
 15 19  1  0
 16 21  1  0
 16 22  1  0
M  RAD  1  16   2
M  END
>  <reaction>  (14) 
rxn_880

>  <mol_properties>  (14) 
{"0": {"label": "*1", "atom_type": "Cs"}, "1": {"label": "*0", "atom_type": "Cd"}, "14": {"label": "*4", "atom_type": "Cs"}, "15": {"label": "*3", "atom_type": "Cs"}, "19": {"label": "*2", "atom_type": "H0"}}

>  <type>  (14) 
unop_10

>  <geom_source>  (14) 
Heuristics

$$$$

     RDKit          3D

 22 21  0  0  0  0  0  0  0  0999 V2000
   -0.8470    0.5138   -1.2346 C   0  0  0  0  0  0  0  0  0  0  0  0
   -0.1467    0.5837    0.0943 C   0  0  0  0  0  0  0  0  0  0  0  0
   -0.0315    1.7900    0.7782 C   0  0  0  0  0  0  0  0  0  0  0  0
    0.5870    1.8522    2.0173 C   0  0  0  0  0  0  0  0  0  0  0  0
    1.1049    0.7034    2.5958 C   0  0  0  0  0  0  0  0  0  0  0  0
    1.0000   -0.5046    1.9236 C   0  0  0  0  0  0  0  0  0  0  0  0
    0.3804   -0.5608    0.6846 C   0  0  0  0  0  0  0  0  0  0  0  0
   -0.7490    1.4505   -1.7844 H   0  0  0  0  0  0  0  0  0  0  0  0
   -1.9144    0.3214   -1.0996 H   0  0  0  0  0  0  0  0  0  0  0  0
   -0.4302    2.6943    0.3322 H   0  0  0  0  0  0  0  0  0  0  0  0
    0.6675    2.8021    2.5312 H   0  0  0  0  0  0  0  0  0  0  0  0
    1.5906    0.7501    3.5621 H   0  0  0  0  0  0  0  0  0  0  0  0
    1.4051   -1.4074    2.3637 H   0  0  0  0  0  0  0  0  0  0  0  0
    0.3064   -1.5096    0.1649 H   0  0  0  0  0  0  0  0  0  0  0  0
   -0.8470   -1.9262   -3.7070 C   0  0  0  0  0  0  0  0  0  0  0  0
   -0.8470   -1.9262   -2.1842 C   0  0  0  0  0  3  0  0  0  0  0  0
   -1.7278   -1.4177   -4.1029 H   0  0  0  0  0  0  0  0  0  0  0  0
    0.0338   -1.4177   -4.1029 H   0  0  0  0  0  0  0  0  0  0  0  0
   -0.8470   -2.9434   -4.1029 H   0  0  0  0  0  0  0  0  0  0  0  0
   -0.8470   -0.7057   -1.7092 H   0  0  0  0  0  0  0  0  0  0  0  0
    0.0338   -2.4348   -1.7884 H   0  0  0  0  0  0  0  0  0  0  0  0
   -1.7278   -2.4348   -1.7884 H   0  0  0  0  0  0  0  0  0  0  0  0
  1  2  1  0
  1  8  1  0
  1  9  1  0
  1 20  1  0
  2  3  2  0
  2  7  1  0
  3  4  1  0
  3 10  1  0
  4  5  2  0
  4 11  1  0
  5  6  1  0
  5 12  1  0
  6  7  2  0
  6 13  1  0
  7 14  1  0
 15 16  1  0
 15 17  1  0
 15 18  1  0
 15 19  1  0
 16 21  1  0
 16 22  1  0
M  RAD  1  16   2
M  END
>  <reaction>  (15) 
rxn_880

>  <mol_properties>  (15) 
{"0": {"label": "*1", "atom_type": "Cs"}, "1": {"label": "*0", "atom_type": "Cd"}, "14": {"label": "*4", "atom_type": "Cs"}, "15": {"label": "*3", "atom_type": "Cs"}, "19": {"label": "*2", "atom_type": "H0"}}

>  <type>  (15) 
unop_11

>  <geom_source>  (15) 
Heuristics

$$$$

     RDKit          3D

 22 21  0  0  0  0  0  0  0  0999 V2000
   -0.0164   -0.6712    1.7841 C   0  0  0  0  0  0  0  0  0  0  0  0
   -0.0164    0.3466    0.6772 C   0  0  0  0  0  0  0  0  0  0  0  0
   -0.5944    1.5993    0.8590 C   0  0  0  0  0  0  0  0  0  0  0  0
   -0.5693    2.5504   -0.1492 C   0  0  0  0  0  0  0  0  0  0  0  0
    0.0358    2.2630   -1.3631 C   0  0  0  0  0  0  0  0  0  0  0  0
    0.6125    1.0174   -1.5589 C   0  0  0  0  0  0  0  0  0  0  0  0
    0.5845    0.0702   -0.5470 C   0  0  0  0  0  0  0  0  0  0  0  0
   -0.8884   -0.5562    2.4288 H   0  0  0  0  0  0  0  0  0  0  0  0
    0.8727   -0.5616    2.4103 H   0  0  0  0  0  0  0  0  0  0  0  0
   -1.0731    1.8320    1.8037 H   0  0  0  0  0  0  0  0  0  0  0  0
   -1.0271    3.5184    0.0131 H   0  0  0  0  0  0  0  0  0  0  0  0
    0.0542    3.0033   -2.1528 H   0  0  0  0  0  0  0  0  0  0  0  0
    1.0837    0.7803   -2.5047 H   0  0  0  0  0  0  0  0  0  0  0  0
    1.0349   -0.9024   -0.7107 H   0  0  0  0  0  0  0  0  0  0  0  0
   -0.0164   -3.1112   -0.6883 C   0  0  0  0  0  0  0  0  0  0  0  0
   -0.0164   -3.1112    0.8345 C   0  0  0  0  0  3  0  0  0  0  0  0
   -0.8972   -2.6027   -1.0841 H   0  0  0  0  0  0  0  0  0  0  0  0
    0.8645   -2.6027   -1.0841 H   0  0  0  0  0  0  0  0  0  0  0  0
   -0.0164   -4.1284   -1.0841 H   0  0  0  0  0  0  0  0  0  0  0  0
   -0.0164   -1.8907    1.3095 H   0  0  0  0  0  0  0  0  0  0  0  0
    0.8645   -3.6198    1.2304 H   0  0  0  0  0  0  0  0  0  0  0  0
   -0.8972   -3.6198    1.2304 H   0  0  0  0  0  0  0  0  0  0  0  0
  1  2  1  0
  1  8  1  0
  1  9  1  0
  1 20  1  0
  2  3  2  0
  2  7  1  0
  3  4  1  0
  3 10  1  0
  4  5  2  0
  4 11  1  0
  5  6  1  0
  5 12  1  0
  6  7  2  0
  6 13  1  0
  7 14  1  0
 15 16  1  0
 15 17  1  0
 15 18  1  0
 15 19  1  0
 16 21  1  0
 16 22  1  0
M  RAD  1  16   2
M  END
>  <reaction>  (16) 
rxn_880

>  <mol_properties>  (16) 
{"0": {"label": "*1", "atom_type": "Cs"}, "1": {"label": "*0", "atom_type": "Cd"}, "14": {"label": "*4", "atom_type": "Cs"}, "15": {"label": "*3", "atom_type": "Cs"}, "19": {"label": "*2", "atom_type": "H0"}}

>  <type>  (16) 
unop_12

>  <geom_source>  (16) 
Heuristics

$$$$

     RDKit          3D

 22 21  0  0  0  0  0  0  0  0999 V2000
    0.3648   -0.2920   -1.4193 C   0  0  0  0  0  0  0  0  0  0  0  0
    3.1576    0.0498    0.9691 C   0  0  0  0  0  0  0  0  0  0  0  0
   -0.8887   -0.1665   -0.6063 C   0  0  0  0  0  0  0  0  0  0  0  0
   -1.6489    1.0131   -0.6560 C   0  0  0  0  0  3  0  0  0  0  0  0
   -1.2731   -1.1987    0.2648 C   0  0  0  0  0  0  0  0  0  0  0  0
   -2.7967    1.1441    0.1324 C   0  0  0  0  0  0  0  0  0  0  0  0
   -3.1842    0.1054    0.9837 C   0  0  0  0  0  0  0  0  0  0  0  0
   -2.4216   -1.0640    1.0517 C   0  0  0  0  0  0  0  0  0  0  0  0
    2.7072    0.2645   -0.4639 C   0  0  0  0  0  0  0  0  0  0  0  0
    0.5574   -1.3541   -1.6817 H   0  0  0  0  0  0  0  0  0  0  0  0
    0.2787    0.2854   -2.3644 H   0  0  0  0  0  0  0  0  0  0  0  0
    1.4130    0.1848   -0.7020 H   0  0  0  0  0  0  0  0  0  0  0  0
    2.5785    0.7133    1.6445 H   0  0  0  0  0  0  0  0  0  0  0  0
    4.2393    0.2822    1.0647 H   0  0  0  0  0  0  0  0  0  0  0  0
    2.9819   -1.0068    1.2600 H   0  0  0  0  0  0  0  0  0  0  0  0
   -1.3541    1.8293   -1.3041 H   0  0  0  0  0  0  0  0  0  0  0  0
   -3.3835    2.0525    0.0864 H   0  0  0  0  0  0  0  0  0  0  0  0
   -4.0719    0.2088    1.5943 H   0  0  0  0  0  0  0  0  0  0  0  0
   -2.7180   -1.8645    1.7171 H   0  0  0  0  0  0  0  0  0  0  0  0
   -0.6855   -2.1058    0.3341 H   0  0  0  0  0  0  0  0  0  0  0  0
    2.8717    1.3220   -0.7598 H   0  0  0  0  0  0  0  0  0  0  0  0
    3.2762   -0.4025   -1.1453 H   0  0  0  0  0  0  0  0  0  0  0  0
  1  3  2  3
  1 10  1  0
  1 11  1  0
  2  9  1  0
  2 13  1  0
  2 14  1  0
  2 15  1  0
  3  4  1  0
  3  5  1  0
  4  6  1  0
  4 16  1  0
  5  8  2  0
  5 20  1  0
  6  7  2  0
  6 17  1  0
  7  8  1  0
  7 18  1  0
  8 19  1  0
  9 12  1  0
  9 21  1  0
  9 22  1  0
M  RAD  1   4   2
M  END
>  <reaction>  (17) 
rxn_880

>  <mol_properties>  (17) 
{"0": {"label": "*1", "atom_type": "Cs"}, "1": {"label": "*0", "atom_type": "Cd"}, "14": {"label": "*4", "atom_type": "Cs"}, "15": {"label": "*3", "atom_type": "Cs"}, "19": {"label": "*2", "atom_type": "H0"}}

>  <type>  (17) 
unop_13

>  <geom_source>  (17) 
AutoTST

$$$$

     RDKit          3D

 22 21  0  0  0  0  0  0  0  0999 V2000
    0.8555   -0.5921    1.5702 C   0  0  0  0  0  0  0  0  0  0  0  0
    0.1552    0.3576    0.6381 C   0  0  0  0  0  0  0  0  0  0  0  0
   -0.7856    1.2643    1.1169 C   0  0  0  0  0  0  0  0  0  0  0  0
   -1.4108    2.1615    0.2648 C   0  0  0  0  0  0  0  0  0  0  0  0
   -1.1054    2.1663   -1.0876 C   0  0  0  0  0  0  0  0  0  0  0  0
   -0.1723    1.2658   -1.5785 C   0  0  0  0  0  0  0  0  0  0  0  0
    0.4497    0.3709   -0.7218 C   0  0  0  0  0  0  0  0  0  0  0  0
    0.2234   -0.8527    2.4198 H   0  0  0  0  0  0  0  0  0  0  0  0
    1.7697   -0.1422    1.9657 H   0  0  0  0  0  0  0  0  0  0  0  0
   -1.0336    1.2657    2.1724 H   0  0  0  0  0  0  0  0  0  0  0  0
   -2.1415    2.8572    0.6585 H   0  0  0  0  0  0  0  0  0  0  0  0
   -1.5943    2.8643   -1.7552 H   0  0  0  0  0  0  0  0  0  0  0  0
    0.0705    1.2574   -2.6339 H   0  0  0  0  0  0  0  0  0  0  0  0
    1.1754   -0.3320   -1.1155 H   0  0  0  0  0  0  0  0  0  0  0  0
    0.8555   -3.0322   -0.9022 C   0  0  0  0  0  0  0  0  0  0  0  0
    0.8555   -3.0322    0.6206 C   0  0  0  0  0  3  0  0  0  0  0  0
   -0.0253   -2.5236   -1.2981 H   0  0  0  0  0  0  0  0  0  0  0  0
    1.7364   -2.5236   -1.2981 H   0  0  0  0  0  0  0  0  0  0  0  0
    0.8555   -4.0493   -1.2981 H   0  0  0  0  0  0  0  0  0  0  0  0
    0.8555   -1.8116    1.0956 H   0  0  0  0  0  0  0  0  0  0  0  0
    1.7364   -3.5407    1.0164 H   0  0  0  0  0  0  0  0  0  0  0  0
   -0.0253   -3.5407    1.0164 H   0  0  0  0  0  0  0  0  0  0  0  0
  1  2  1  0
  1  8  1  0
  1  9  1  0
  1 20  1  0
  2  3  2  0
  2  7  1  0
  3  4  1  0
  3 10  1  0
  4  5  2  0
  4 11  1  0
  5  6  1  0
  5 12  1  0
  6  7  2  0
  6 13  1  0
  7 14  1  0
 15 16  1  0
 15 17  1  0
 15 18  1  0
 15 19  1  0
 16 21  1  0
 16 22  1  0
M  RAD  1  16   2
M  END
>  <reaction>  (18) 
rxn_880

>  <mol_properties>  (18) 
{"0": {"label": "*1", "atom_type": "Cs"}, "1": {"label": "*0", "atom_type": "Cd"}, "14": {"label": "*4", "atom_type": "Cs"}, "15": {"label": "*3", "atom_type": "Cs"}, "19": {"label": "*2", "atom_type": "H0"}}

>  <type>  (18) 
unop_14

>  <geom_source>  (18) 
gaussian_log

$$$$
