
     RDKit          3D

 19 20  0  0  0  0  0  0  0  0999 V2000
    1.1087   -0.4716   -0.9619 C   0  0  0  0  0  0  0  0  0  0  0  0
    0.9355    1.0407   -0.6470 C   0  0  0  0  0  0  0  0  0  0  0  0
   -0.0085    1.0377    0.5657 C   0  0  0  0  0  0  0  0  0  0  0  0
   -1.4093    0.6181    0.0927 C   0  0  0  0  0  0  0  0  0  0  0  0
   -1.2361   -0.8942   -0.2222 C   0  0  0  0  0  0  0  0  0  0  0  0
    0.2422   -1.1516    0.1099 C   0  0  0  0  0  0  0  0  0  0  0  0
    0.4537   -0.2211    1.3118 C   0  0  0  0  0  0  0  0  0  0  0  0
    2.1524   -0.7752   -0.8653 H   0  0  0  0  0  0  0  0  0  0  0  0
    0.7855   -0.7316   -1.9710 H   0  0  0  0  0  0  0  0  0  0  0  0
    1.8918    1.5001   -0.3916 H   0  0  0  0  0  0  0  0  0  0  0  0
    0.5184    1.6005   -1.4855 H   0  0  0  0  0  0  0  0  0  0  0  0
    0.0038    1.9661    1.1351 H   0  0  0  0  0  0  0  0  0  0  0  0
   -1.7351    1.1944   -0.7746 H   0  0  0  0  0  0  0  0  0  0  0  0
   -2.1465    0.7723    0.8824 H   0  0  0  0  0  0  0  0  0  0  0  0
   -1.4680   -1.1377   -1.2601 H   0  0  0  0  0  0  0  0  0  0  0  0
   -1.8859   -1.5030    0.4087 H   0  0  0  0  0  0  0  0  0  0  0  0
    0.4812   -2.2025    0.2673 H   0  0  0  0  0  0  0  0  0  0  0  0
    1.4942   -0.1701    1.6391 H   0  0  0  0  0  0  0  0  0  0  0  0
   -0.1779   -0.4714    2.1666 H   0  0  0  0  0  0  0  0  0  0  0  0
  1  2  1  0
  1  6  1  0
  1  8  1  0
  1  9  1  0
  2  3  1  0
  2 10  1  0
  2 11  1  0
  3  4  1  0
  3  7  1  0
  3 12  1  0
  4  5  1  0
  4 13  1  0
  4 14  1  0
  5  6  1  0
  5 15  1  0
  5 16  1  0
  6  7  1  0
  6 17  1  0
  7 18  1  0
  7 19  1  0
M  END
>  <reaction>  (1) 
rxn_732

>  <mol_properties>  (1) 
{"6": {"label": "donator", "atom_type": "Cs"}, "18": {"label": "d_hydrogen", "atom_type": "H0"}}

>  <type>  (1) 
r1h

$$$$

     RDKit          3D

  1  0  0  0  0  0  0  0  0  0999 V2000
    0.0000    0.0000    0.0000 H   0  0  0  0  0 15  0  0  0  0  0  0
M  END
>  <reaction>  (2) 
rxn_732

>  <mol_properties>  (2) 
{"0": {"label": "acceptor", "atom_type": "H0"}}

>  <type>  (2) 
r2

$$$$

     RDKit          3D

  2  1  0  0  0  0  0  0  0  0999 V2000
    0.0000    0.0000    0.3721 H   0  0  0  0  0  0  0  0  0  0  0  0
    0.0000    0.0000   -0.3721 H   0  0  0  0  0  0  0  0  0  0  0  0
  1  2  1  0
M  END
>  <reaction>  (3) 
rxn_732

>  <mol_properties>  (3) 
{"0": {"label": "acceptor", "atom_type": "H0"}, "1": {"label": "a_hydrogen", "atom_type": "H0"}}

>  <type>  (3) 
r2h

$$$$

     RDKit          3D

 20 20  0  0  0  0  0  0  0  0999 V2000
   -1.0448    0.1072   -0.8217 C   0  0  0  0  0  0  0  0  0  0  0  0
   -0.8258    1.4385   -0.0776 C   0  0  0  0  0  0  0  0  0  0  0  0
   -1.3049   -1.0045    0.2129 C   0  0  0  0  0  0  0  0  0  0  0  0
    0.3885   -0.2280   -1.2766 C   0  0  0  0  0  0  0  0  0  0  0  0
    0.5712    1.2446    0.5942 C   0  0  0  0  0  0  0  0  0  0  0  0
    0.0919   -1.1988    0.8848 C   0  0  0  0  0  0  0  0  0  0  0  0
    0.9215   -0.1633    0.1466 C   0  0  0  0  0  0  0  0  0  0  0  0
   -1.7984    0.1617   -1.6064 H   0  0  0  0  0  0  0  0  0  0  0  0
   -0.8096    2.2749   -0.7778 H   0  0  0  0  0  0  0  0  0  0  0  0
   -1.6144    1.6330    0.6504 H   0  0  0  0  0  0  0  0  0  0  0  0
   -2.0761   -0.7212    0.9304 H   0  0  0  0  0  0  0  0  0  0  0  0
   -1.6327   -1.9215   -0.2788 H   0  0  0  0  0  0  0  0  0  0  0  0
    0.5353    1.3371    1.6797 H   0  0  0  0  0  0  0  0  0  0  0  0
    1.2938    1.9711    0.2198 H   0  0  0  0  0  0  0  0  0  0  0  0
    0.4744   -2.2066    0.7166 H   0  0  0  0  0  0  0  0  0  0  0  0
    0.0724   -1.0234    1.9604 H   0  0  0  0  0  0  0  0  0  0  0  0
    0.4787   -1.2147   -1.7329 H   0  0  0  0  0  0  0  0  0  0  0  0
    0.8196    0.5233   -1.9396 H   0  0  0  0  0  0  0  0  0  0  0  0
    3.1718   -0.5892    0.2770 H   0  0  0  0  0 15  0  0  0  0  0  0
    2.2874   -0.4203    0.2386 H   0  0  0  0  0  0  0  0  0  0  0  0
  1  2  1  0
  1  3  1  0
  1  4  1  0
  1  8  1  0
  2  5  1  0
  2  9  1  0
  2 10  1  0
  3  6  1  0
  3 11  1  0
  3 12  1  0
  4  7  1  0
  4 17  1  0
  4 18  1  0
  5  7  1  0
  5 13  1  0
  5 14  1  0
  6  7  1  0
  6 15  1  0
  6 16  1  0
  7 20  1  0
M  END
>  <reaction>  (4) 
rxn_732

>  <mol_properties>  (4) 
{"3": {"label": "*4", "atom_type": "Cs"}, "6": {"label": "*3", "atom_type": "Cs"}, "18": {"label": "*1", "atom_type": "H0"}, "19": {"label": "*2", "atom_type": "H0"}}

>  <type>  (4) 
ts

$$$$

     RDKit          3D

 20 20  0  0  0  0  0  0  0  0999 V2000
    0.9676    0.7313    0.4101 C   0  0  0  0  0  0  0  0  0  0  0  0
   -0.2921    1.5584    0.1092 C   0  0  0  0  0  0  0  0  0  0  0  0
    1.4244    0.0418   -0.8852 C   0  0  0  0  0  0  0  0  0  0  0  0
    0.3952   -0.4279    1.1898 C   0  0  0  0  0  0  0  0  0  0  0  0
    0.3485   -1.0374   -1.0896 C   0  0  0  0  0  0  0  0  0  0  0  0
   -1.3642    0.4759   -0.0974 C   0  0  0  0  0  0  0  0  0  0  0  0
   -0.5903   -0.8402    0.1175 C   0  0  0  0  0  0  0  0  0  0  0  0
    1.7690    1.2948    0.9339 H   0  0  0  0  0  0  0  0  0  0  0  0
   -0.1694    2.1968   -0.7930 H   0  0  0  0  0  0  0  0  0  0  0  0
   -0.5485    2.2008    0.9804 H   0  0  0  0  0  0  0  0  0  0  0  0
    2.4237   -0.4253   -0.7414 H   0  0  0  0  0  0  0  0  0  0  0  0
    1.4702    0.7481   -1.7429 H   0  0  0  0  0  0  0  0  0  0  0  0
    1.1492   -1.2184    1.4120 H   0  0  0  0  0  0  0  0  0  0  0  0
   -0.1018   -0.1131    2.1367 H   0  0  0  0  0  0  0  0  0  0  0  0
   -0.1830   -0.9115   -2.0582 H   0  0  0  0  0  0  0  0  0  0  0  0
    0.8014   -2.0522   -1.0542 H   0  0  0  0  0  0  0  0  0  0  0  0
   -2.1674    0.5708    0.6656 H   0  0  0  0  0  0  0  0  0  0  0  0
   -1.8186    0.5336   -1.1107 H   0  0  0  0  0  0  0  0  0  0  0  0
   -2.2256   -1.8530    1.1855 H   0  0  0  0  0 15  0  0  0  0  0  0
   -1.2884   -1.4733    0.4318 H   0  0  0  0  0  0  0  0  0  0  0  0
  1  2  1  0
  1  3  1  0
  1  4  1  0
  1  8  1  0
  2  6  1  0
  2  9  1  0
  2 10  1  0
  3  5  1  0
  3 11  1  0
  3 12  1  0
  4  7  1  0
  4 13  1  0
  4 14  1  0
  5  7  1  0
  5 15  1  0
  5 16  1  0
  6  7  1  0
  6 17  1  0
  6 18  1  0
  7 20  1  0
M  END
>  <reaction>  (5) 
rxn_732

>  <mol_properties>  (5) 
{"3": {"label": "*4", "atom_type": "Cs"}, "6": {"label": "*3", "atom_type": "Cs"}, "18": {"label": "*1", "atom_type": "H0"}, "19": {"label": "*2", "atom_type": "H0"}}

>  <type>  (5) 
unop_1

>  <geom_source>  (5) 
AutoTST

$$$$
