
     RDKit          3D

 18 17  0  0  0  0  0  0  0  0999 V2000
   -1.9678   -0.6898    0.3341 C   0  0  0  0  0  0  0  0  0  0  0  0
   -0.7096   -0.1423   -0.3331 C   0  0  0  0  0  0  0  0  0  0  0  0
    0.5332   -0.5083    0.4732 C   0  0  0  0  0  0  0  0  0  0  0  0
   -0.5630   -0.6300   -1.7765 C   0  0  0  0  0  0  0  0  0  0  0  0
   -1.6976   -0.2443   -2.7138 C   0  0  0  0  0  0  0  0  0  0  0  0
   -1.9245    1.1511   -2.7759 O   0  0  0  0  0  0  0  0  0  0  0  0
   -2.0212   -0.3717    1.3771 H   0  0  0  0  0  0  0  0  0  0  0  0
   -1.9700   -1.7841    0.3194 H   0  0  0  0  0  0  0  0  0  0  0  0
   -2.8747   -0.3416   -0.1615 H   0  0  0  0  0  0  0  0  0  0  0  0
   -0.7920    0.9483   -0.3590 H   0  0  0  0  0  0  0  0  0  0  0  0
    0.6497   -1.5944    0.5338 H   0  0  0  0  0  0  0  0  0  0  0  0
    0.4690   -0.1237    1.4929 H   0  0  0  0  0  0  0  0  0  0  0  0
    1.4384   -0.1014    0.0169 H   0  0  0  0  0  0  0  0  0  0  0  0
    0.3780   -0.2443   -2.1878 H   0  0  0  0  0  0  0  0  0  0  0  0
   -0.4713   -1.7228   -1.7836 H   0  0  0  0  0  0  0  0  0  0  0  0
   -2.6401   -0.6786   -2.3778 H   0  0  0  0  0  0  0  0  0  0  0  0
   -1.4964   -0.6488   -3.7137 H   0  0  0  0  0  0  0  0  0  0  0  0
   -1.1201    1.5761   -3.0783 H   0  0  0  0  0  0  0  0  0  0  0  0
  1  2  1  0
  1  7  1  0
  1  8  1  0
  1  9  1  0
  2  3  1  0
  2  4  1  0
  2 10  1  0
  3 11  1  0
  3 12  1  0
  3 13  1  0
  4  5  1  0
  4 14  1  0
  4 15  1  0
  5  6  1  0
  5 16  1  0
  5 17  1  0
  6 18  1  0
M  END
>  <reaction>  (1) 
rxn_772

>  <mol_properties>  (1) 
{"1": {"label": "donator", "atom_type": "Cs"}, "9": {"label": "d_hydrogen", "atom_type": "H0"}}

>  <type>  (1) 
r1h

$$$$

     RDKit          3D

  4  3  0  0  0  0  0  0  0  0999 V2000
    0.0000    0.0000    0.0000 C   0  0  0  0  0  3  0  0  0  0  0  0
    1.0638   -0.1747    0.0540 H   0  0  0  0  0  0  0  0  0  0  0  0
   -0.6833   -0.8351   -0.0280 H   0  0  0  0  0  0  0  0  0  0  0  0
   -0.3805    1.0098   -0.0260 H   0  0  0  0  0  0  0  0  0  0  0  0
  1  2  1  0
  1  3  1  0
  1  4  1  0
M  RAD  1   1   2
M  END
>  <reaction>  (2) 
rxn_772

>  <mol_properties>  (2) 
{"0": {"label": "acceptor", "atom_type": "Cs"}}

>  <type>  (2) 
r2

$$$$

     RDKit          3D

  5  4  0  0  0  0  0  0  0  0999 V2000
    0.0000    0.0000    0.0000 C   0  0  0  0  0  0  0  0  0  0  0  0
   -0.6486   -0.7720   -0.4113 H   0  0  0  0  0  0  0  0  0  0  0  0
   -0.3482    0.9787   -0.3267 H   0  0  0  0  0  0  0  0  0  0  0  0
   -0.0223   -0.0487    1.0876 H   0  0  0  0  0  0  0  0  0  0  0  0
    1.0191   -0.1580   -0.3496 H   0  0  0  0  0  0  0  0  0  0  0  0
  1  2  1  0
  1  3  1  0
  1  4  1  0
  1  5  1  0
M  END
>  <reaction>  (3) 
rxn_772

>  <mol_properties>  (3) 
{"0": {"label": "a_hydrogen", "atom_type": "H0"}, "1": {"label": "acceptor", "atom_type": "Cs"}}

>  <type>  (3) 
r2h

$$$$

     RDKit          3D

 22 20  0  0  0  0  0  0  0  0999 V2000
    0.0651    0.6782   -1.6912 C   0  0  0  0  0  0  0  0  0  0  0  0
   -0.0295    0.8401   -0.1916 C   0  0  0  0  0  0  0  0  0  0  0  0
    0.0460    2.2797    0.2677 C   0  0  0  0  0  0  0  0  0  0  0  0
   -1.1705    0.0882    0.4714 C   0  0  0  0  0  0  0  0  0  0  0  0
   -1.3979   -1.3423    0.0065 C   0  0  0  0  0  0  0  0  0  0  0  0
   -0.2535   -2.1664    0.1037 O   0  0  0  0  0  0  0  0  0  0  0  0
    0.9058    1.2512   -2.0871 H   0  0  0  0  0  0  0  0  0  0  0  0
   -0.8439    1.0417   -2.1851 H   0  0  0  0  0  0  0  0  0  0  0  0
    0.2087   -0.3659   -1.9723 H   0  0  0  0  0  0  0  0  0  0  0  0
    1.0453    0.3216    0.2662 H   0  0  0  0  0  0  0  0  0  0  0  0
   -0.8134    2.8530   -0.0980 H   0  0  0  0  0  0  0  0  0  0  0  0
    0.9505    2.7649   -0.1047 H   0  0  0  0  0  0  0  0  0  0  0  0
    0.0502    2.3487    1.3581 H   0  0  0  0  0  0  0  0  0  0  0  0
   -1.0114    0.0929    1.5573 H   0  0  0  0  0  0  0  0  0  0  0  0
   -2.1080    0.6381    0.3086 H   0  0  0  0  0  0  0  0  0  0  0  0
   -1.6837   -1.3596   -1.0465 H   0  0  0  0  0  0  0  0  0  0  0  0
   -2.2329   -1.7729    0.5736 H   0  0  0  0  0  0  0  0  0  0  0  0
    0.1311   -2.0563    0.9751 H   0  0  0  0  0  0  0  0  0  0  0  0
    2.2718   -0.1679    0.7873 C   0  0  0  0  0  3  0  0  0  0  0  0
    2.9766    0.6412    0.6224 H   0  0  0  0  0  0  0  0  0  0  0  0
    2.4608   -1.0558    0.1933 H   0  0  0  0  0  0  0  0  0  0  0  0
    2.0745   -0.3640    1.8379 H   0  0  0  0  0  0  0  0  0  0  0  0
  1  2  1  0
  1  7  1  0
  1  8  1  0
  1  9  1  0
  2  3  1  0
  2  4  1  0
  2 10  1  0
  3 11  1  0
  3 12  1  0
  3 13  1  0
  4  5  1  0
  4 14  1  0
  4 15  1  0
  5  6  1  0
  5 16  1  0
  5 17  1  0
  6 18  1  0
 19 20  1  0
 19 21  1  0
 19 22  1  0
M  RAD  1  19   2
M  END
>  <reaction>  (4) 
rxn_772

>  <mol_properties>  (4) 
{"1": {"label": "*1", "atom_type": "Cs"}, "3": {"label": "*0", "atom_type": "Cs"}, "9": {"label": "*2", "atom_type": "H0"}, "18": {"label": "*3", "atom_type": "Cs"}, "19": {"label": "*4", "atom_type": "H0"}}

>  <type>  (4) 
ts

$$$$

     RDKit          3D

 22 20  0  0  0  0  0  0  0  0999 V2000
    0.0235    0.8651   -1.7076 C   0  0  0  0  0  0  0  0  0  0  0  0
    0.0235    0.8651   -0.1818 C   0  0  0  0  0  3  0  0  0  0  0  0
    0.0235    2.2920    0.3591 C   0  0  0  0  0  0  0  0  0  0  0  0
   -1.1591    0.0834    0.3953 C   0  0  0  0  0  0  0  0  0  0  0  0
   -1.2208   -1.3865    0.0080 C   0  0  0  0  0  0  0  0  0  0  0  0
   -0.0511   -2.1063    0.3488 O   0  0  0  0  0  0  0  0  0  0  0  0
    0.8443    1.4727   -2.0936 H   0  0  0  0  0  0  0  0  0  0  0  0
   -0.9107    1.2826   -2.0956 H   0  0  0  0  0  0  0  0  0  0  0  0
    0.1408   -0.1402   -2.1137 H   0  0  0  0  0  0  0  0  0  0  0  0
    1.1246    0.2735    0.2199 H   0  0  0  0  0  0  0  0  0  0  0  0
   -0.8750    2.8277    0.0390 H   0  0  0  0  0  0  0  0  0  0  0  0
    0.8894    2.8505   -0.0018 H   0  0  0  0  0  0  0  0  0  0  0  0
    0.0470    2.3043    1.4511 H   0  0  0  0  0  0  0  0  0  0  0  0
   -1.1332    0.1568    1.4896 H   0  0  0  0  0  0  0  0  0  0  0  0
   -2.0966    0.5583    0.0819 H   0  0  0  0  0  0  0  0  0  0  0  0
   -1.3272   -1.4967   -1.0720 H   0  0  0  0  0  0  0  0  0  0  0  0
   -2.1056   -1.8462    0.4661 H   0  0  0  0  0  0  0  0  0  0  0  0
    0.0775   -2.0449    1.2968 H   0  0  0  0  0  0  0  0  0  0  0  0
    2.2205   -0.3153    0.6197 C   0  0  0  0  0  0  0  0  0  0  0  0
    2.8074    0.3786    1.2194 H   0  0  0  0  0  0  0  0  0  0  0  0
    2.8674   -1.1059    0.2423 H   0  0  0  0  0  0  0  0  0  0  0  0
    1.5188   -0.6639    1.3759 H   0  0  0  0  0  0  0  0  0  0  0  0
  1  2  1  0
  1  7  1  0
  1  8  1  0
  1  9  1  0
  2  3  1  0
  2  4  1  0
  3 11  1  0
  3 12  1  0
  3 13  1  0
  4  5  1  0
  4 14  1  0
  4 15  1  0
  5  6  1  0
  5 16  1  0
  5 17  1  0
  6 18  1  0
 10 19  1  0
 19 20  1  0
 19 21  1  0
 19 22  1  0
M  RAD  1   2   2
M  END
>  <reaction>  (5) 
rxn_772

>  <mol_properties>  (5) 
{"1": {"label": "*1", "atom_type": "Cs"}, "3": {"label": "*0", "atom_type": "Cs"}, "9": {"label": "*2", "atom_type": "H0"}, "18": {"label": "*3", "atom_type": "Cs"}, "19": {"label": "*4", "atom_type": "H0"}}

>  <type>  (5) 
unop_1

>  <geom_source>  (5) 
Heuristics

$$$$

     RDKit          3D

 22 20  0  0  0  0  0  0  0  0999 V2000
    0.0246    0.8641   -1.7027 C   0  0  0  0  0  0  0  0  0  0  0  0
    0.0246    0.8641   -0.1768 C   0  0  0  0  0  3  0  0  0  0  0  0
    0.0246    2.2909    0.3640 C   0  0  0  0  0  0  0  0  0  0  0  0
   -1.1580    0.0824    0.4002 C   0  0  0  0  0  0  0  0  0  0  0  0
   -1.2197   -1.3875    0.0129 C   0  0  0  0  0  0  0  0  0  0  0  0
   -0.0500   -2.1074    0.3537 O   0  0  0  0  0  0  0  0  0  0  0  0
    0.8453    1.4716   -2.0887 H   0  0  0  0  0  0  0  0  0  0  0  0
   -0.9096    1.2815   -2.0907 H   0  0  0  0  0  0  0  0  0  0  0  0
    0.1419   -0.1412   -2.1088 H   0  0  0  0  0  0  0  0  0  0  0  0
    1.1257    0.2724    0.2248 H   0  0  0  0  0  0  0  0  0  0  0  0
   -0.8740    2.8266    0.0439 H   0  0  0  0  0  0  0  0  0  0  0  0
    0.8905    2.8495    0.0032 H   0  0  0  0  0  0  0  0  0  0  0  0
    0.0481    2.3032    1.4560 H   0  0  0  0  0  0  0  0  0  0  0  0
   -1.1321    0.1558    1.4945 H   0  0  0  0  0  0  0  0  0  0  0  0
   -2.0955    0.5573    0.0868 H   0  0  0  0  0  0  0  0  0  0  0  0
   -1.3261   -1.4978   -1.0671 H   0  0  0  0  0  0  0  0  0  0  0  0
   -2.1045   -1.8472    0.4710 H   0  0  0  0  0  0  0  0  0  0  0  0
    0.0786   -2.0460    1.3017 H   0  0  0  0  0  0  0  0  0  0  0  0
    2.2216   -0.3164    0.6246 C   0  0  0  0  0  0  0  0  0  0  0  0
    3.0086   -0.1565   -0.1109 H   0  0  0  0  0  0  0  0  0  0  0  0
    2.2562   -1.3468    0.9751 H   0  0  0  0  0  0  0  0  0  0  0  0
    1.8210    0.2157    1.4861 H   0  0  0  0  0  0  0  0  0  0  0  0
  1  2  1  0
  1  7  1  0
  1  8  1  0
  1  9  1  0
  2  3  1  0
  2  4  1  0
  3 11  1  0
  3 12  1  0
  3 13  1  0
  4  5  1  0
  4 14  1  0
  4 15  1  0
  5  6  1  0
  5 16  1  0
  5 17  1  0
  6 18  1  0
 10 19  1  0
 19 20  1  0
 19 21  1  0
 19 22  1  0
M  RAD  1   2   2
M  END
>  <reaction>  (6) 
rxn_772

>  <mol_properties>  (6) 
{"1": {"label": "*1", "atom_type": "Cs"}, "3": {"label": "*0", "atom_type": "Cs"}, "9": {"label": "*2", "atom_type": "H0"}, "18": {"label": "*3", "atom_type": "Cs"}, "19": {"label": "*4", "atom_type": "H0"}}

>  <type>  (6) 
unop_2

>  <geom_source>  (6) 
Heuristics

$$$$

     RDKit          3D

 22 20  0  0  0  0  0  0  0  0999 V2000
    0.0224    0.8673   -1.7069 C   0  0  0  0  0  0  0  0  0  0  0  0
    0.0224    0.8673   -0.1810 C   0  0  0  0  0  3  0  0  0  0  0  0
    0.0224    2.2942    0.3598 C   0  0  0  0  0  0  0  0  0  0  0  0
   -1.1602    0.0856    0.3960 C   0  0  0  0  0  0  0  0  0  0  0  0
   -1.2219   -1.3843    0.0087 C   0  0  0  0  0  0  0  0  0  0  0  0
   -0.0522   -2.1041    0.3495 O   0  0  0  0  0  0  0  0  0  0  0  0
    0.8432    1.4749   -2.0929 H   0  0  0  0  0  0  0  0  0  0  0  0
   -0.9118    1.2848   -2.0948 H   0  0  0  0  0  0  0  0  0  0  0  0
    0.1397   -0.1380   -2.1130 H   0  0  0  0  0  0  0  0  0  0  0  0
    1.1235    0.2757    0.2206 H   0  0  0  0  0  0  0  0  0  0  0  0
   -0.8761    2.8299    0.0397 H   0  0  0  0  0  0  0  0  0  0  0  0
    0.8883    2.8527   -0.0010 H   0  0  0  0  0  0  0  0  0  0  0  0
    0.0459    2.3065    1.4518 H   0  0  0  0  0  0  0  0  0  0  0  0
   -1.1343    0.1590    1.4903 H   0  0  0  0  0  0  0  0  0  0  0  0
   -2.0977    0.5605    0.0826 H   0  0  0  0  0  0  0  0  0  0  0  0
   -1.3283   -1.4946   -1.0713 H   0  0  0  0  0  0  0  0  0  0  0  0
   -2.1067   -1.8440    0.4668 H   0  0  0  0  0  0  0  0  0  0  0  0
    0.0764   -2.0427    1.2975 H   0  0  0  0  0  0  0  0  0  0  0  0
    2.2194   -0.3132    0.6204 C   0  0  0  0  0  0  0  0  0  0  0  0
    2.5272    0.1042    1.5779 H   0  0  0  0  0  0  0  0  0  0  0  0
    3.1006   -0.6095    0.0535 H   0  0  0  0  0  0  0  0  0  0  0  0
    1.6750   -1.1032    1.1355 H   0  0  0  0  0  0  0  0  0  0  0  0
  1  2  1  0
  1  7  1  0
  1  8  1  0
  1  9  1  0
  2  3  1  0
  2  4  1  0
  3 11  1  0
  3 12  1  0
  3 13  1  0
  4  5  1  0
  4 14  1  0
  4 15  1  0
  5  6  1  0
  5 16  1  0
  5 17  1  0
  6 18  1  0
 10 19  1  0
 19 20  1  0
 19 21  1  0
 19 22  1  0
M  RAD  1   2   2
M  END
>  <reaction>  (7) 
rxn_772

>  <mol_properties>  (7) 
{"1": {"label": "*1", "atom_type": "Cs"}, "3": {"label": "*0", "atom_type": "Cs"}, "9": {"label": "*2", "atom_type": "H0"}, "18": {"label": "*3", "atom_type": "Cs"}, "19": {"label": "*4", "atom_type": "H0"}}

>  <type>  (7) 
unop_3

>  <geom_source>  (7) 
Heuristics

$$$$

     RDKit          3D

 22 20  0  0  0  0  0  0  0  0999 V2000
    0.0252    0.8641   -1.7050 C   0  0  0  0  0  0  0  0  0  0  0  0
    0.0252    0.8641   -0.1792 C   0  0  0  0  0  3  0  0  0  0  0  0
    0.0252    2.2910    0.3617 C   0  0  0  0  0  0  0  0  0  0  0  0
   -1.1574    0.0824    0.3979 C   0  0  0  0  0  0  0  0  0  0  0  0
   -1.2192   -1.3875    0.0105 C   0  0  0  0  0  0  0  0  0  0  0  0
   -0.0494   -2.1073    0.3514 O   0  0  0  0  0  0  0  0  0  0  0  0
    0.8459    1.4717   -2.0910 H   0  0  0  0  0  0  0  0  0  0  0  0
   -0.9091    1.2816   -2.0930 H   0  0  0  0  0  0  0  0  0  0  0  0
    0.1425   -0.1412   -2.1111 H   0  0  0  0  0  0  0  0  0  0  0  0
    1.1263    0.2725    0.2225 H   0  0  0  0  0  0  0  0  0  0  0  0
   -0.8734    2.8267    0.0416 H   0  0  0  0  0  0  0  0  0  0  0  0
    0.8911    2.8495    0.0008 H   0  0  0  0  0  0  0  0  0  0  0  0
    0.0486    2.3033    1.4537 H   0  0  0  0  0  0  0  0  0  0  0  0
   -1.1316    0.1558    1.4922 H   0  0  0  0  0  0  0  0  0  0  0  0
   -2.0949    0.5573    0.0845 H   0  0  0  0  0  0  0  0  0  0  0  0
   -1.3255   -1.4978   -1.0694 H   0  0  0  0  0  0  0  0  0  0  0  0
   -2.1039   -1.8472    0.4687 H   0  0  0  0  0  0  0  0  0  0  0  0
    0.0791   -2.0459    1.2994 H   0  0  0  0  0  0  0  0  0  0  0  0
    2.2222   -0.3164    0.6223 C   0  0  0  0  0  0  0  0  0  0  0  0
    2.2441   -1.3375    0.2446 H   0  0  0  0  0  0  0  0  0  0  0  0
    1.7046   -0.2947    1.5801 H   0  0  0  0  0  0  0  0  0  0  0  0
    3.0798    0.3412    0.7558 H   0  0  0  0  0  0  0  0  0  0  0  0
  1  2  1  0
  1  7  1  0
  1  8  1  0
  1  9  1  0
  2  3  1  0
  2  4  1  0
  3 11  1  0
  3 12  1  0
  3 13  1  0
  4  5  1  0
  4 14  1  0
  4 15  1  0
  5  6  1  0
  5 16  1  0
  5 17  1  0
  6 18  1  0
 10 19  1  0
 19 20  1  0
 19 21  1  0
 19 22  1  0
M  RAD  1   2   2
M  END
>  <reaction>  (8) 
rxn_772

>  <mol_properties>  (8) 
{"1": {"label": "*1", "atom_type": "Cs"}, "3": {"label": "*0", "atom_type": "Cs"}, "9": {"label": "*2", "atom_type": "H0"}, "18": {"label": "*3", "atom_type": "Cs"}, "19": {"label": "*4", "atom_type": "H0"}}

>  <type>  (8) 
unop_4

>  <geom_source>  (8) 
Heuristics

$$$$

     RDKit          3D

 22 20  0  0  0  0  0  0  0  0999 V2000
    0.0195    0.8662   -1.7055 C   0  0  0  0  0  0  0  0  0  0  0  0
    0.0195    0.8662   -0.1797 C   0  0  0  0  0  3  0  0  0  0  0  0
    0.0195    2.2930    0.3612 C   0  0  0  0  0  0  0  0  0  0  0  0
   -1.1631    0.0845    0.3974 C   0  0  0  0  0  0  0  0  0  0  0  0
   -1.2248   -1.3854    0.0101 C   0  0  0  0  0  0  0  0  0  0  0  0
   -0.0551   -2.1052    0.3509 O   0  0  0  0  0  0  0  0  0  0  0  0
    0.8402    1.4738   -2.0915 H   0  0  0  0  0  0  0  0  0  0  0  0
   -0.9147    1.2837   -2.0935 H   0  0  0  0  0  0  0  0  0  0  0  0
    0.1368   -0.1391   -2.1116 H   0  0  0  0  0  0  0  0  0  0  0  0
    1.1206    0.2746    0.2220 H   0  0  0  0  0  0  0  0  0  0  0  0
   -0.8791    2.8287    0.0411 H   0  0  0  0  0  0  0  0  0  0  0  0
    0.8854    2.8516    0.0003 H   0  0  0  0  0  0  0  0  0  0  0  0
    0.0430    2.3054    1.4532 H   0  0  0  0  0  0  0  0  0  0  0  0
   -1.1372    0.1579    1.4917 H   0  0  0  0  0  0  0  0  0  0  0  0
   -2.1006    0.5594    0.0840 H   0  0  0  0  0  0  0  0  0  0  0  0
   -1.3312   -1.4957   -1.0699 H   0  0  0  0  0  0  0  0  0  0  0  0
   -2.1096   -1.8451    0.4682 H   0  0  0  0  0  0  0  0  0  0  0  0
    0.0735   -2.0438    1.2989 H   0  0  0  0  0  0  0  0  0  0  0  0
    2.2165   -0.3143    0.6218 C   0  0  0  0  0  0  0  0  0  0  0  0
    2.2442   -0.3292    1.7102 H   0  0  0  0  0  0  0  0  0  0  0  0
    3.0801    0.2310    0.2441 H   0  0  0  0  0  0  0  0  0  0  0  0
    2.2686   -1.4007    0.6749 H   0  0  0  0  0  0  0  0  0  0  0  0
  1  2  1  0
  1  7  1  0
  1  8  1  0
  1  9  1  0
  2  3  1  0
  2  4  1  0
  3 11  1  0
  3 12  1  0
  3 13  1  0
  4  5  1  0
  4 14  1  0
  4 15  1  0
  5  6  1  0
  5 16  1  0
  5 17  1  0
  6 18  1  0
 10 19  1  0
 19 20  1  0
 19 21  1  0
 19 22  1  0
M  RAD  1   2   2
M  END
>  <reaction>  (9) 
rxn_772

>  <mol_properties>  (9) 
{"1": {"label": "*1", "atom_type": "Cs"}, "3": {"label": "*0", "atom_type": "Cs"}, "9": {"label": "*2", "atom_type": "H0"}, "18": {"label": "*3", "atom_type": "Cs"}, "19": {"label": "*4", "atom_type": "H0"}}

>  <type>  (9) 
unop_5

>  <geom_source>  (9) 
Heuristics

$$$$

     RDKit          3D

 22 20  0  0  0  0  0  0  0  0999 V2000
    0.0237    0.8638   -1.7065 C   0  0  0  0  0  0  0  0  0  0  0  0
    0.0237    0.8638   -0.1807 C   0  0  0  0  0  3  0  0  0  0  0  0
    0.0237    2.2906    0.3602 C   0  0  0  0  0  0  0  0  0  0  0  0
   -1.1588    0.0821    0.3964 C   0  0  0  0  0  0  0  0  0  0  0  0
   -1.2206   -1.3878    0.0091 C   0  0  0  0  0  0  0  0  0  0  0  0
   -0.0508   -2.1076    0.3499 O   0  0  0  0  0  0  0  0  0  0  0  0
    0.8445    1.4713   -2.0925 H   0  0  0  0  0  0  0  0  0  0  0  0
   -0.9105    1.2813   -2.0945 H   0  0  0  0  0  0  0  0  0  0  0  0
    0.1411   -0.1415   -2.1126 H   0  0  0  0  0  0  0  0  0  0  0  0
    1.1248    0.2722    0.2210 H   0  0  0  0  0  0  0  0  0  0  0  0
   -0.8748    2.8263    0.0401 H   0  0  0  0  0  0  0  0  0  0  0  0
    0.8896    2.8492   -0.0007 H   0  0  0  0  0  0  0  0  0  0  0  0
    0.0472    2.3029    1.4522 H   0  0  0  0  0  0  0  0  0  0  0  0
   -1.1330    0.1555    1.4907 H   0  0  0  0  0  0  0  0  0  0  0  0
   -2.0964    0.5570    0.0830 H   0  0  0  0  0  0  0  0  0  0  0  0
   -1.3269   -1.4981   -1.0709 H   0  0  0  0  0  0  0  0  0  0  0  0
   -2.1054   -1.8475    0.4672 H   0  0  0  0  0  0  0  0  0  0  0  0
    0.0777   -2.0463    1.2979 H   0  0  0  0  0  0  0  0  0  0  0  0
    2.2207   -0.3167    0.6208 C   0  0  0  0  0  0  0  0  0  0  0  0
    2.0392   -1.3846    0.7318 H   0  0  0  0  0  0  0  0  0  0  0  0
    1.8546    0.2073    1.5023 H   0  0  0  0  0  0  0  0  0  0  0  0
    3.2766   -0.0822    0.4942 H   0  0  0  0  0  0  0  0  0  0  0  0
  1  2  1  0
  1  7  1  0
  1  8  1  0
  1  9  1  0
  2  3  1  0
  2  4  1  0
  3 11  1  0
  3 12  1  0
  3 13  1  0
  4  5  1  0
  4 14  1  0
  4 15  1  0
  5  6  1  0
  5 16  1  0
  5 17  1  0
  6 18  1  0
 10 19  1  0
 19 20  1  0
 19 21  1  0
 19 22  1  0
M  RAD  1   2   2
M  END
>  <reaction>  (10) 
rxn_772

>  <mol_properties>  (10) 
{"1": {"label": "*1", "atom_type": "Cs"}, "3": {"label": "*0", "atom_type": "Cs"}, "9": {"label": "*2", "atom_type": "H0"}, "18": {"label": "*3", "atom_type": "Cs"}, "19": {"label": "*4", "atom_type": "H0"}}

>  <type>  (10) 
unop_6

>  <geom_source>  (10) 
Heuristics

$$$$

     RDKit          3D

 22 20  0  0  0  0  0  0  0  0999 V2000
    0.0219    0.8630   -1.7073 C   0  0  0  0  0  0  0  0  0  0  0  0
    0.0219    0.8630   -0.1814 C   0  0  0  0  0  3  0  0  0  0  0  0
    0.0219    2.2899    0.3594 C   0  0  0  0  0  0  0  0  0  0  0  0
   -1.1607    0.0813    0.3956 C   0  0  0  0  0  0  0  0  0  0  0  0
   -1.2225   -1.3886    0.0083 C   0  0  0  0  0  0  0  0  0  0  0  0
   -0.0527   -2.1084    0.3491 O   0  0  0  0  0  0  0  0  0  0  0  0
    0.8426    1.4706   -2.0933 H   0  0  0  0  0  0  0  0  0  0  0  0
   -0.9124    1.2805   -2.0952 H   0  0  0  0  0  0  0  0  0  0  0  0
    0.1392   -0.1423   -2.1134 H   0  0  0  0  0  0  0  0  0  0  0  0
    1.1230    0.2714    0.2202 H   0  0  0  0  0  0  0  0  0  0  0  0
   -0.8767    2.8256    0.0393 H   0  0  0  0  0  0  0  0  0  0  0  0
    0.8878    2.8484   -0.0014 H   0  0  0  0  0  0  0  0  0  0  0  0
    0.0453    2.3022    1.4514 H   0  0  0  0  0  0  0  0  0  0  0  0
   -1.1349    0.1547    1.4899 H   0  0  0  0  0  0  0  0  0  0  0  0
   -2.0982    0.5562    0.0822 H   0  0  0  0  0  0  0  0  0  0  0  0
   -1.3288   -1.4988   -1.0717 H   0  0  0  0  0  0  0  0  0  0  0  0
   -2.1072   -1.8483    0.4664 H   0  0  0  0  0  0  0  0  0  0  0  0
    0.0758   -2.0470    1.2971 H   0  0  0  0  0  0  0  0  0  0  0  0
    2.2189   -0.3174    0.6200 C   0  0  0  0  0  0  0  0  0  0  0  0
    1.9641   -1.1899    1.2197 H   0  0  0  0  0  0  0  0  0  0  0  0
    2.1491    0.5786    1.2348 H   0  0  0  0  0  0  0  0  0  0  0  0
    3.2433   -0.5714    0.3521 H   0  0  0  0  0  0  0  0  0  0  0  0
  1  2  1  0
  1  7  1  0
  1  8  1  0
  1  9  1  0
  2  3  1  0
  2  4  1  0
  3 11  1  0
  3 12  1  0
  3 13  1  0
  4  5  1  0
  4 14  1  0
  4 15  1  0
  5  6  1  0
  5 16  1  0
  5 17  1  0
  6 18  1  0
 10 19  1  0
 19 20  1  0
 19 21  1  0
 19 22  1  0
M  RAD  1   2   2
M  END
>  <reaction>  (11) 
rxn_772

>  <mol_properties>  (11) 
{"1": {"label": "*1", "atom_type": "Cs"}, "3": {"label": "*0", "atom_type": "Cs"}, "9": {"label": "*2", "atom_type": "H0"}, "18": {"label": "*3", "atom_type": "Cs"}, "19": {"label": "*4", "atom_type": "H0"}}

>  <type>  (11) 
unop_7

>  <geom_source>  (11) 
Heuristics

$$$$

     RDKit          3D

 22 20  0  0  0  0  0  0  0  0999 V2000
    0.0233    0.8634   -1.7064 C   0  0  0  0  0  0  0  0  0  0  0  0
    0.0233    0.8634   -0.1805 C   0  0  0  0  0  3  0  0  0  0  0  0
    0.0233    2.2902    0.3603 C   0  0  0  0  0  0  0  0  0  0  0  0
   -1.1593    0.0817    0.3965 C   0  0  0  0  0  0  0  0  0  0  0  0
   -1.2210   -1.3882    0.0092 C   0  0  0  0  0  0  0  0  0  0  0  0
   -0.0513   -2.1081    0.3500 O   0  0  0  0  0  0  0  0  0  0  0  0
    0.8441    1.4709   -2.0924 H   0  0  0  0  0  0  0  0  0  0  0  0
   -0.9109    1.2808   -2.0943 H   0  0  0  0  0  0  0  0  0  0  0  0
    0.1406   -0.1419   -2.1125 H   0  0  0  0  0  0  0  0  0  0  0  0
    1.1244    0.2717    0.2211 H   0  0  0  0  0  0  0  0  0  0  0  0
   -0.8752    2.8259    0.0402 H   0  0  0  0  0  0  0  0  0  0  0  0
    0.8892    2.8488   -0.0005 H   0  0  0  0  0  0  0  0  0  0  0  0
    0.0468    2.3025    1.4523 H   0  0  0  0  0  0  0  0  0  0  0  0
   -1.1334    0.1551    1.4908 H   0  0  0  0  0  0  0  0  0  0  0  0
   -2.0968    0.5566    0.0832 H   0  0  0  0  0  0  0  0  0  0  0  0
   -1.3274   -1.4985   -1.0708 H   0  0  0  0  0  0  0  0  0  0  0  0
   -2.1058   -1.8479    0.4673 H   0  0  0  0  0  0  0  0  0  0  0  0
    0.0773   -2.0467    1.2980 H   0  0  0  0  0  0  0  0  0  0  0  0
    2.2203   -0.3171    0.6209 C   0  0  0  0  0  0  0  0  0  0  0  0
    3.0106    0.4237    0.7319 H   0  0  0  0  0  0  0  0  0  0  0  0
    2.6626   -1.3061    0.5112 H   0  0  0  0  0  0  0  0  0  0  0  0
    1.5411   -0.3357    1.4718 H   0  0  0  0  0  0  0  0  0  0  0  0
  1  2  1  0
  1  7  1  0
  1  8  1  0
  1  9  1  0
  2  3  1  0
  2  4  1  0
  3 11  1  0
  3 12  1  0
  3 13  1  0
  4  5  1  0
  4 14  1  0
  4 15  1  0
  5  6  1  0
  5 16  1  0
  5 17  1  0
  6 18  1  0
 10 19  1  0
 19 20  1  0
 19 21  1  0
 19 22  1  0
M  RAD  1   2   2
M  END
>  <reaction>  (12) 
rxn_772

>  <mol_properties>  (12) 
{"1": {"label": "*1", "atom_type": "Cs"}, "3": {"label": "*0", "atom_type": "Cs"}, "9": {"label": "*2", "atom_type": "H0"}, "18": {"label": "*3", "atom_type": "Cs"}, "19": {"label": "*4", "atom_type": "H0"}}

>  <type>  (12) 
unop_8

>  <geom_source>  (12) 
Heuristics

$$$$

     RDKit          3D

 22 20  0  0  0  0  0  0  0  0999 V2000
    0.0262    0.8643   -1.7036 C   0  0  0  0  0  0  0  0  0  0  0  0
    0.0262    0.8643   -0.1777 C   0  0  0  0  0  3  0  0  0  0  0  0
    0.0262    2.2911    0.3631 C   0  0  0  0  0  0  0  0  0  0  0  0
   -1.1564    0.0826    0.3993 C   0  0  0  0  0  0  0  0  0  0  0  0
   -1.2182   -1.3873    0.0120 C   0  0  0  0  0  0  0  0  0  0  0  0
   -0.0484   -2.1072    0.3528 O   0  0  0  0  0  0  0  0  0  0  0  0
    0.8469    1.4718   -2.0896 H   0  0  0  0  0  0  0  0  0  0  0  0
   -0.9081    1.2817   -2.0915 H   0  0  0  0  0  0  0  0  0  0  0  0
    0.1435   -0.1411   -2.1097 H   0  0  0  0  0  0  0  0  0  0  0  0
    1.1273    0.2726    0.2239 H   0  0  0  0  0  0  0  0  0  0  0  0
   -0.8724    2.8268    0.0430 H   0  0  0  0  0  0  0  0  0  0  0  0
    0.8920    2.8497    0.0023 H   0  0  0  0  0  0  0  0  0  0  0  0
    0.0496    2.3034    1.4551 H   0  0  0  0  0  0  0  0  0  0  0  0
   -1.1306    0.1560    1.4936 H   0  0  0  0  0  0  0  0  0  0  0  0
   -2.0939    0.5575    0.0859 H   0  0  0  0  0  0  0  0  0  0  0  0
   -1.3245   -1.4976   -1.0680 H   0  0  0  0  0  0  0  0  0  0  0  0
   -2.1029   -1.8470    0.4701 H   0  0  0  0  0  0  0  0  0  0  0  0
    0.0801   -2.0458    1.3008 H   0  0  0  0  0  0  0  0  0  0  0  0
    2.2232   -0.3162    0.6237 C   0  0  0  0  0  0  0  0  0  0  0  0
    2.5242   -1.0607   -0.1118 H   0  0  0  0  0  0  0  0  0  0  0  0
    1.7417   -0.8115    1.4655 H   0  0  0  0  0  0  0  0  0  0  0  0
    2.6640    0.5658    1.0857 H   0  0  0  0  0  0  0  0  0  0  0  0
  1  2  1  0
  1  7  1  0
  1  8  1  0
  1  9  1  0
  2  3  1  0
  2  4  1  0
  3 11  1  0
  3 12  1  0
  3 13  1  0
  4  5  1  0
  4 14  1  0
  4 15  1  0
  5  6  1  0
  5 16  1  0
  5 17  1  0
  6 18  1  0
 10 19  1  0
 19 20  1  0
 19 21  1  0
 19 22  1  0
M  RAD  1   2   2
M  END
>  <reaction>  (13) 
rxn_772

>  <mol_properties>  (13) 
{"1": {"label": "*1", "atom_type": "Cs"}, "3": {"label": "*0", "atom_type": "Cs"}, "9": {"label": "*2", "atom_type": "H0"}, "18": {"label": "*3", "atom_type": "Cs"}, "19": {"label": "*4", "atom_type": "H0"}}

>  <type>  (13) 
unop_9

>  <geom_source>  (13) 
Heuristics

$$$$

     RDKit          3D

 22 20  0  0  0  0  0  0  0  0999 V2000
    0.0234    0.8632   -1.7042 C   0  0  0  0  0  0  0  0  0  0  0  0
    0.0234    0.8632   -0.1784 C   0  0  0  0  0  3  0  0  0  0  0  0
    0.0234    2.2901    0.3625 C   0  0  0  0  0  0  0  0  0  0  0  0
   -1.1591    0.0816    0.3987 C   0  0  0  0  0  0  0  0  0  0  0  0
   -1.2209   -1.3884    0.0113 C   0  0  0  0  0  0  0  0  0  0  0  0
   -0.0511   -2.1082    0.3521 O   0  0  0  0  0  0  0  0  0  0  0  0
    0.8442    1.4708   -2.0902 H   0  0  0  0  0  0  0  0  0  0  0  0
   -0.9108    1.2807   -2.0922 H   0  0  0  0  0  0  0  0  0  0  0  0
    0.1408   -0.1421   -2.1104 H   0  0  0  0  0  0  0  0  0  0  0  0
    1.1245    0.2716    0.2233 H   0  0  0  0  0  0  0  0  0  0  0  0
   -0.8751    2.8258    0.0423 H   0  0  0  0  0  0  0  0  0  0  0  0
    0.8893    2.8486    0.0016 H   0  0  0  0  0  0  0  0  0  0  0  0
    0.0469    2.3024    1.4545 H   0  0  0  0  0  0  0  0  0  0  0  0
   -1.1333    0.1550    1.4929 H   0  0  0  0  0  0  0  0  0  0  0  0
   -2.0967    0.5564    0.0853 H   0  0  0  0  0  0  0  0  0  0  0  0
   -1.3272   -1.4986   -1.0687 H   0  0  0  0  0  0  0  0  0  0  0  0
   -2.1057   -1.8480    0.4694 H   0  0  0  0  0  0  0  0  0  0  0  0
    0.0774   -2.0468    1.3001 H   0  0  0  0  0  0  0  0  0  0  0  0
    2.2204   -0.3172    0.6230 C   0  0  0  0  0  0  0  0  0  0  0  0
    3.0840    0.2281    0.2454 H   0  0  0  0  0  0  0  0  0  0  0  0
    2.4820   -1.3663    0.7529 H   0  0  0  0  0  0  0  0  0  0  0  0
    1.6340   -0.0666    1.5057 H   0  0  0  0  0  0  0  0  0  0  0  0
  1  2  1  0
  1  7  1  0
  1  8  1  0
  1  9  1  0
  2  3  1  0
  2  4  1  0
  3 11  1  0
  3 12  1  0
  3 13  1  0
  4  5  1  0
  4 14  1  0
  4 15  1  0
  5  6  1  0
  5 16  1  0
  5 17  1  0
  6 18  1  0
 10 19  1  0
 19 20  1  0
 19 21  1  0
 19 22  1  0
M  RAD  1   2   2
M  END
>  <reaction>  (14) 
rxn_772

>  <mol_properties>  (14) 
{"1": {"label": "*1", "atom_type": "Cs"}, "3": {"label": "*0", "atom_type": "Cs"}, "9": {"label": "*2", "atom_type": "H0"}, "18": {"label": "*3", "atom_type": "Cs"}, "19": {"label": "*4", "atom_type": "H0"}}

>  <type>  (14) 
unop_10

>  <geom_source>  (14) 
Heuristics

$$$$

     RDKit          3D

 22 20  0  0  0  0  0  0  0  0999 V2000
    0.0196    0.8632   -1.7065 C   0  0  0  0  0  0  0  0  0  0  0  0
    0.0196    0.8632   -0.1807 C   0  0  0  0  0  3  0  0  0  0  0  0
    0.0196    2.2900    0.3602 C   0  0  0  0  0  0  0  0  0  0  0  0
   -1.1630    0.0815    0.3964 C   0  0  0  0  0  0  0  0  0  0  0  0
   -1.2247   -1.3885    0.0090 C   0  0  0  0  0  0  0  0  0  0  0  0
   -0.0550   -2.1083    0.3498 O   0  0  0  0  0  0  0  0  0  0  0  0
    0.8404    1.4707   -2.0925 H   0  0  0  0  0  0  0  0  0  0  0  0
   -0.9146    1.2806   -2.0945 H   0  0  0  0  0  0  0  0  0  0  0  0
    0.1369   -0.1422   -2.1127 H   0  0  0  0  0  0  0  0  0  0  0  0
    1.1207    0.2715    0.2210 H   0  0  0  0  0  0  0  0  0  0  0  0
   -0.8789    2.8257    0.0400 H   0  0  0  0  0  0  0  0  0  0  0  0
    0.8855    2.8485   -0.0007 H   0  0  0  0  0  0  0  0  0  0  0  0
    0.0431    2.3023    1.4522 H   0  0  0  0  0  0  0  0  0  0  0  0
   -1.1371    0.1549    1.4906 H   0  0  0  0  0  0  0  0  0  0  0  0
   -2.1005    0.5564    0.0830 H   0  0  0  0  0  0  0  0  0  0  0  0
   -1.3310   -1.4987   -1.0710 H   0  0  0  0  0  0  0  0  0  0  0  0
   -2.1095   -1.8481    0.4671 H   0  0  0  0  0  0  0  0  0  0  0  0
    0.0736   -2.0469    1.2978 H   0  0  0  0  0  0  0  0  0  0  0  0
    2.2166   -0.3173    0.6207 C   0  0  0  0  0  0  0  0  0  0  0  0
    2.0384   -0.8043    1.5782 H   0  0  0  0  0  0  0  0  0  0  0  0
    2.5935    0.6901    0.7904 H   0  0  0  0  0  0  0  0  0  0  0  0
    2.9486   -1.0815    0.3640 H   0  0  0  0  0  0  0  0  0  0  0  0
  1  2  1  0
  1  7  1  0
  1  8  1  0
  1  9  1  0
  2  3  1  0
  2  4  1  0
  3 11  1  0
  3 12  1  0
  3 13  1  0
  4  5  1  0
  4 14  1  0
  4 15  1  0
  5  6  1  0
  5 16  1  0
  5 17  1  0
  6 18  1  0
 10 19  1  0
 19 20  1  0
 19 21  1  0
 19 22  1  0
M  RAD  1   2   2
M  END
>  <reaction>  (15) 
rxn_772

>  <mol_properties>  (15) 
{"1": {"label": "*1", "atom_type": "Cs"}, "3": {"label": "*0", "atom_type": "Cs"}, "9": {"label": "*2", "atom_type": "H0"}, "18": {"label": "*3", "atom_type": "Cs"}, "19": {"label": "*4", "atom_type": "H0"}}

>  <type>  (15) 
unop_11

>  <geom_source>  (15) 
Heuristics

$$$$

     RDKit          3D

 22 20  0  0  0  0  0  0  0  0999 V2000
    0.0260    0.8645   -1.7026 C   0  0  0  0  0  0  0  0  0  0  0  0
    0.0260    0.8645   -0.1768 C   0  0  0  0  0  3  0  0  0  0  0  0
    0.0260    2.2913    0.3641 C   0  0  0  0  0  0  0  0  0  0  0  0
   -1.1566    0.0828    0.4003 C   0  0  0  0  0  0  0  0  0  0  0  0
   -1.2184   -1.3871    0.0130 C   0  0  0  0  0  0  0  0  0  0  0  0
   -0.0486   -2.1069    0.3538 O   0  0  0  0  0  0  0  0  0  0  0  0
    0.8467    1.4721   -2.0886 H   0  0  0  0  0  0  0  0  0  0  0  0
   -0.9083    1.2820   -2.0906 H   0  0  0  0  0  0  0  0  0  0  0  0
    0.1433   -0.1408   -2.1087 H   0  0  0  0  0  0  0  0  0  0  0  0
    1.1271    0.2729    0.2249 H   0  0  0  0  0  0  0  0  0  0  0  0
   -0.8726    2.8270    0.0440 H   0  0  0  0  0  0  0  0  0  0  0  0
    0.8919    2.8499    0.0032 H   0  0  0  0  0  0  0  0  0  0  0  0
    0.0494    2.3036    1.4561 H   0  0  0  0  0  0  0  0  0  0  0  0
   -1.1308    0.1562    1.4946 H   0  0  0  0  0  0  0  0  0  0  0  0
   -2.0941    0.5577    0.0869 H   0  0  0  0  0  0  0  0  0  0  0  0
   -1.3247   -1.4974   -1.0670 H   0  0  0  0  0  0  0  0  0  0  0  0
   -2.1031   -1.8468    0.4711 H   0  0  0  0  0  0  0  0  0  0  0  0
    0.0799   -2.0455    1.3018 H   0  0  0  0  0  0  0  0  0  0  0  0
    2.2230   -0.3160    0.6247 C   0  0  0  0  0  0  0  0  0  0  0  0
    2.8040   -0.6282   -0.2417 H   0  0  0  0  0  0  0  0  0  0  0  0
    1.9682   -1.1884    1.2244 H   0  0  0  0  0  0  0  0  0  0  0  0
    2.1765    0.4871    1.3587 H   0  0  0  0  0  0  0  0  0  0  0  0
  1  2  1  0
  1  7  1  0
  1  8  1  0
  1  9  1  0
  2  3  1  0
  2  4  1  0
  3 11  1  0
  3 12  1  0
  3 13  1  0
  4  5  1  0
  4 14  1  0
  4 15  1  0
  5  6  1  0
  5 16  1  0
  5 17  1  0
  6 18  1  0
 10 19  1  0
 19 20  1  0
 19 21  1  0
 19 22  1  0
M  RAD  1   2   2
M  END
>  <reaction>  (16) 
rxn_772

>  <mol_properties>  (16) 
{"1": {"label": "*1", "atom_type": "Cs"}, "3": {"label": "*0", "atom_type": "Cs"}, "9": {"label": "*2", "atom_type": "H0"}, "18": {"label": "*3", "atom_type": "Cs"}, "19": {"label": "*4", "atom_type": "H0"}}

>  <type>  (16) 
unop_12

>  <geom_source>  (16) 
Heuristics

$$$$

     RDKit          3D

 22 20  0  0  0  0  0  0  0  0999 V2000
    1.9196    0.5278    1.7429 O   0  0  0  0  0  0  0  0  0  0  0  0
    1.3286   -0.7038   -0.2601 C   0  0  0  0  0  0  0  0  0  0  0  0
    2.1024    0.4707    0.3540 C   0  0  0  0  0  0  0  0  0  0  0  0
   -0.8284   -1.4002   -1.3909 C   0  0  0  0  0  0  0  0  0  0  0  0
   -0.9284   -0.3526    0.8997 C   0  0  0  0  0  0  0  0  0  0  0  0
   -1.5636    1.7644   -0.1876 C   0  0  0  0  0  0  0  0  0  0  0  0
   -0.1733   -0.3993   -0.4342 C   0  0  0  0  0  3  0  0  0  0  0  0
    1.7703   -0.8983   -1.2619 H   0  0  0  0  0  0  0  0  0  0  0  0
    1.4735   -1.6238    0.3478 H   0  0  0  0  0  0  0  0  0  0  0  0
    1.7627    1.4271   -0.0979 H   0  0  0  0  0  0  0  0  0  0  0  0
    3.1868    0.3623    0.1226 H   0  0  0  0  0  0  0  0  0  0  0  0
   -0.7660   -2.4308   -0.9799 H   0  0  0  0  0  0  0  0  0  0  0  0
   -1.8953   -1.1356   -1.5485 H   0  0  0  0  0  0  0  0  0  0  0  0
   -0.3219   -1.3713   -2.3786 H   0  0  0  0  0  0  0  0  0  0  0  0
   -0.5846    0.5079    1.5075 H   0  0  0  0  0  0  0  0  0  0  0  0
   -2.0153   -0.2121    0.7198 H   0  0  0  0  0  0  0  0  0  0  0  0
   -0.7773   -1.2940    1.4700 H   0  0  0  0  0  0  0  0  0  0  0  0
   -1.5678    2.2438    0.8129 H   0  0  0  0  0  0  0  0  0  0  0  0
   -1.4298    2.5404   -0.9690 H   0  0  0  0  0  0  0  0  0  0  0  0
   -2.5269    1.2385   -0.3497 H   0  0  0  0  0  0  0  0  0  0  0  0
   -0.6278    0.9454   -0.2514 H   0  0  0  0  0  0  0  0  0  0  0  0
    2.4626   -0.2064    2.1325 H   0  0  0  0  0  0  0  0  0  0  0  0
  1  3  1  0
  1 22  1  0
  2  3  1  0
  2  7  1  0
  2  8  1  0
  2  9  1  0
  3 10  1  0
  3 11  1  0
  4  7  1  0
  4 12  1  0
  4 13  1  0
  4 14  1  0
  5  7  1  0
  5 15  1  0
  5 16  1  0
  5 17  1  0
  6 18  1  0
  6 19  1  0
  6 20  1  0
  6 21  1  0
M  RAD  1   7   2
M  END
>  <reaction>  (17) 
rxn_772

>  <mol_properties>  (17) 
{"1": {"label": "*1", "atom_type": "Cs"}, "3": {"label": "*0", "atom_type": "Cs"}, "9": {"label": "*2", "atom_type": "H0"}, "18": {"label": "*3", "atom_type": "Cs"}, "19": {"label": "*4", "atom_type": "H0"}}

>  <type>  (17) 
unop_13

>  <geom_source>  (17) 
AutoTST

$$$$
