
     RDKit          3D

 19 20  0  0  0  0  0  0  0  0999 V2000
    1.1087   -0.4716   -0.9619 C   0  0  0  0  0  0  0  0  0  0  0  0
    0.9355    1.0407   -0.6470 C   0  0  0  0  0  0  0  0  0  0  0  0
   -0.0085    1.0377    0.5657 C   0  0  0  0  0  0  0  0  0  0  0  0
   -1.4093    0.6181    0.0927 C   0  0  0  0  0  0  0  0  0  0  0  0
   -1.2361   -0.8942   -0.2222 C   0  0  0  0  0  0  0  0  0  0  0  0
    0.2422   -1.1516    0.1099 C   0  0  0  0  0  0  0  0  0  0  0  0
    0.4537   -0.2211    1.3118 C   0  0  0  0  0  0  0  0  0  0  0  0
    2.1524   -0.7752   -0.8653 H   0  0  0  0  0  0  0  0  0  0  0  0
    0.7855   -0.7316   -1.9710 H   0  0  0  0  0  0  0  0  0  0  0  0
    1.8918    1.5001   -0.3916 H   0  0  0  0  0  0  0  0  0  0  0  0
    0.5184    1.6005   -1.4855 H   0  0  0  0  0  0  0  0  0  0  0  0
    0.0038    1.9661    1.1351 H   0  0  0  0  0  0  0  0  0  0  0  0
   -1.7351    1.1944   -0.7746 H   0  0  0  0  0  0  0  0  0  0  0  0
   -2.1465    0.7723    0.8824 H   0  0  0  0  0  0  0  0  0  0  0  0
   -1.4680   -1.1377   -1.2601 H   0  0  0  0  0  0  0  0  0  0  0  0
   -1.8859   -1.5030    0.4087 H   0  0  0  0  0  0  0  0  0  0  0  0
    0.4812   -2.2025    0.2673 H   0  0  0  0  0  0  0  0  0  0  0  0
    1.4942   -0.1701    1.6391 H   0  0  0  0  0  0  0  0  0  0  0  0
   -0.1779   -0.4714    2.1666 H   0  0  0  0  0  0  0  0  0  0  0  0
  1  2  1  0
  1  6  1  0
  1  8  1  0
  1  9  1  0
  2  3  1  0
  2 10  1  0
  2 11  1  0
  3  4  1  0
  3  7  1  0
  3 12  1  0
  4  5  1  0
  4 13  1  0
  4 14  1  0
  5  6  1  0
  5 15  1  0
  5 16  1  0
  6  7  1  0
  6 17  1  0
  7 18  1  0
  7 19  1  0
M  END
>  <reaction>  (1) 
rxn_547

>  <mol_properties>  (1) 
{"6": {"label": "donator", "atom_type": "Cs"}, "17": {"label": "d_hydrogen", "atom_type": "H0"}}

>  <type>  (1) 
r1h

$$$$

     RDKit          3D

 14 14  0  0  0  0  0  0  0  0999 V2000
    2.3111    0.1295    0.0255 C   0  0  0  0  0  0  0  0  0  0  0  0
    0.9132    0.0511    0.0101 C   0  0  0  0  0  0  0  0  0  0  0  0
    0.2446   -1.1981    0.0389 C   0  0  0  0  0  3  0  0  0  0  0  0
   -1.1306   -1.2689    0.0235 C   0  0  0  0  0  0  0  0  0  0  0  0
   -1.8967   -0.1062   -0.0209 C   0  0  0  0  0  0  0  0  0  0  0  0
   -1.2644    1.1347   -0.0499 C   0  0  0  0  0  0  0  0  0  0  0  0
    0.1101    1.2180   -0.0350 C   0  0  0  0  0  0  0  0  0  0  0  0
    2.9188   -0.7647    0.0599 H   0  0  0  0  0  0  0  0  0  0  0  0
    2.8158    1.0859    0.0034 H   0  0  0  0  0  0  0  0  0  0  0  0
    0.8353   -2.1058    0.0735 H   0  0  0  0  0  0  0  0  0  0  0  0
   -1.6191   -2.2351    0.0461 H   0  0  0  0  0  0  0  0  0  0  0  0
   -2.9772   -0.1668   -0.0328 H   0  0  0  0  0  0  0  0  0  0  0  0
   -1.8572    2.0404   -0.0845 H   0  0  0  0  0  0  0  0  0  0  0  0
    0.5964    2.1860   -0.0577 H   0  0  0  0  0  0  0  0  0  0  0  0
  1  2  2  3
  1  8  1  0
  1  9  1  0
  2  3  1  0
  2  7  1  0
  3  4  1  0
  3 10  1  0
  4  5  2  0
  4 11  1  0
  5  6  1  0
  5 12  1  0
  6  7  2  0
  6 13  1  0
  7 14  1  0
M  RAD  1   3   2
M  END
>  <reaction>  (2) 
rxn_547

>  <mol_properties>  (2) 
{"0": {"label": "acceptor", "atom_type": "Cs"}}

>  <type>  (2) 
r2

$$$$

     RDKit          3D

 15 15  0  0  0  0  0  0  0  0999 V2000
    2.2031   -0.2111   -0.1693 C   0  0  0  0  0  0  0  0  0  0  0  0
    0.7140   -0.0314   -0.0623 C   0  0  0  0  0  0  0  0  0  0  0  0
   -0.0114    0.5491   -1.0982 C   0  0  0  0  0  0  0  0  0  0  0  0
   -1.3882    0.6886   -1.0150 C   0  0  0  0  0  0  0  0  0  0  0  0
   -2.0661    0.2493    0.1118 C   0  0  0  0  0  0  0  0  0  0  0  0
   -1.3551   -0.3278    1.1528 C   0  0  0  0  0  0  0  0  0  0  0  0
    0.0216   -0.4648    1.0642 C   0  0  0  0  0  0  0  0  0  0  0  0
    2.6776   -0.1836    0.8122 H   0  0  0  0  0  0  0  0  0  0  0  0
    2.4446   -1.1749   -0.6249 H   0  0  0  0  0  0  0  0  0  0  0  0
    2.6532    0.5664   -0.7875 H   0  0  0  0  0  0  0  0  0  0  0  0
    0.5104    0.8989   -1.9819 H   0  0  0  0  0  0  0  0  0  0  0  0
   -1.9328    1.1452   -1.8322 H   0  0  0  0  0  0  0  0  0  0  0  0
   -3.1409    0.3597    0.1800 H   0  0  0  0  0  0  0  0  0  0  0  0
   -1.8736   -0.6702    2.0398 H   0  0  0  0  0  0  0  0  0  0  0  0
    0.5695   -0.9141    1.8849 H   0  0  0  0  0  0  0  0  0  0  0  0
  1  2  1  0
  1  8  1  0
  1  9  1  0
  1 10  1  0
  2  3  2  0
  2  7  1  0
  3  4  1  0
  3 11  1  0
  4  5  2  0
  4 12  1  0
  5  6  1  0
  5 13  1  0
  6  7  2  0
  6 14  1  0
  7 15  1  0
M  END
>  <reaction>  (3) 
rxn_547

>  <mol_properties>  (3) 
{"0": {"label": "acceptor", "atom_type": "Cs"}, "14": {"label": "a_hydrogen", "atom_type": "H0"}}

>  <type>  (3) 
r2h

$$$$

     RDKit          3D

 33 34  0  0  0  0  0  0  0  0999 V2000
   -1.4336    1.1417    1.1435 C   0  0  0  0  0  0  0  0  0  0  0  0
   -1.8697    0.4448   -0.0748 C   0  0  0  0  0  0  0  0  0  0  0  0
   -2.2810   -0.8890   -0.0368 C   0  0  0  0  0  0  0  0  0  0  0  0
   -2.5954   -1.5730   -1.1990 C   0  0  0  0  0  0  0  0  0  0  0  0
   -2.5087   -0.9376   -2.4294 C   0  0  0  0  0  0  0  0  0  0  0  0
   -2.1122    0.3916   -2.4833 C   0  0  0  0  0  0  0  0  0  0  0  0
   -1.7975    1.0733   -1.3207 C   0  0  0  0  0  0  0  0  0  0  0  0
   -1.7688    0.6869    2.0735 H   0  0  0  0  0  0  0  0  0  0  0  0
   -1.6029    2.2168    1.1377 H   0  0  0  0  0  0  0  0  0  0  0  0
   -2.3491   -1.3947    0.9197 H   0  0  0  0  0  0  0  0  0  0  0  0
   -2.9103   -2.6078   -1.1448 H   0  0  0  0  0  0  0  0  0  0  0  0
   -2.7525   -1.4721   -3.3385 H   0  0  0  0  0  0  0  0  0  0  0  0
   -2.0465    0.8985   -3.4381 H   0  0  0  0  0  0  0  0  0  0  0  0
   -1.4797    2.1085   -1.3724 H   0  0  0  0  0  0  0  0  0  0  0  0
    1.4198   -0.6812   -0.2929 C   0  0  0  0  0  0  0  0  0  0  0  0
    1.2455   -1.2921    1.1240 C   0  0  0  0  0  0  0  0  0  0  0  0
    1.7433   -0.1732    2.0529 C   0  0  0  0  0  0  0  0  0  0  0  0
    3.2712   -0.0368    1.8724 C   0  0  0  0  0  0  0  0  0  0  0  0
    3.4056    0.6191    0.4666 C   0  0  0  0  0  0  0  0  0  0  0  0
    1.9399    0.7381   -0.0024 C   0  0  0  0  0  0  0  0  0  0  0  0
    1.2657    1.0660    1.3186 C   0  0  0  0  0  3  0  0  0  0  0  0
    0.4711   -0.6526   -0.8277 H   0  0  0  0  0  0  0  0  0  0  0  0
    2.1256   -1.2436   -0.9059 H   0  0  0  0  0  0  0  0  0  0  0  0
    0.1955   -1.5157    1.3194 H   0  0  0  0  0  0  0  0  0  0  0  0
    1.8102   -2.2153    1.2607 H   0  0  0  0  0  0  0  0  0  0  0  0
    1.4294   -0.2788    3.0901 H   0  0  0  0  0  0  0  0  0  0  0  0
    3.7714   -1.0050    1.9348 H   0  0  0  0  0  0  0  0  0  0  0  0
    3.6973    0.6030    2.6464 H   0  0  0  0  0  0  0  0  0  0  0  0
    4.0034    0.0208   -0.2233 H   0  0  0  0  0  0  0  0  0  0  0  0
    3.8709    1.6035    0.5373 H   0  0  0  0  0  0  0  0  0  0  0  0
    1.7910    1.4441   -0.8174 H   0  0  0  0  0  0  0  0  0  0  0  0
   -0.1505    1.0684    1.2087 H   0  0  0  0  0  0  0  0  0  0  0  0
    1.4723    2.0375    1.7669 H   0  0  0  0  0  0  0  0  0  0  0  0
  1  2  1  0
  1  8  1  0
  1  9  1  0
  1 32  1  0
  2  3  2  0
  2  7  1  0
  3  4  1  0
  3 10  1  0
  4  5  2  0
  4 11  1  0
  5  6  1  0
  5 12  1  0
  6  7  2  0
  6 13  1  0
  7 14  1  0
 15 16  1  0
 15 20  1  0
 15 22  1  0
 15 23  1  0
 16 17  1  0
 16 24  1  0
 16 25  1  0
 17 18  1  0
 17 21  1  0
 17 26  1  0
 18 19  1  0
 18 27  1  0
 18 28  1  0
 19 20  1  0
 19 29  1  0
 19 30  1  0
 20 21  1  0
 20 31  1  0
 21 33  1  0
M  RAD  1  21   2
M  END
>  <reaction>  (4) 
rxn_547

>  <mol_properties>  (4) 
{"0": {"label": "*1", "atom_type": "Cs"}, "1": {"label": "*0", "atom_type": "Cd"}, "16": {"label": "*4", "atom_type": "Cs"}, "20": {"label": "*3", "atom_type": "Cs"}, "31": {"label": "*2", "atom_type": "H0"}}

>  <type>  (4) 
ts

$$$$

     RDKit          3D

 33 34  0  0  0  0  0  0  0  0999 V2000
   -1.0221   -0.9643   -0.1384 C   0  0  0  0  0  0  0  0  0  0  0  0
   -2.0307    0.1376    0.0340 C   0  0  0  0  0  0  0  0  0  0  0  0
   -2.8784    0.4993   -1.0085 C   0  0  0  0  0  0  0  0  0  0  0  0
   -3.8296    1.4941   -0.8430 C   0  0  0  0  0  0  0  0  0  0  0  0
   -3.9488    2.1486    0.3735 C   0  0  0  0  0  0  0  0  0  0  0  0
   -3.1081    1.8004    1.4196 C   0  0  0  0  0  0  0  0  0  0  0  0
   -2.1587    0.8048    1.2484 C   0  0  0  0  0  0  0  0  0  0  0  0
   -0.6824   -1.0329   -1.1724 H   0  0  0  0  0  0  0  0  0  0  0  0
   -1.4555   -1.9309    0.1306 H   0  0  0  0  0  0  0  0  0  0  0  0
   -2.7903   -0.0044   -1.9646 H   0  0  0  0  0  0  0  0  0  0  0  0
   -4.4778    1.7612   -1.6685 H   0  0  0  0  0  0  0  0  0  0  0  0
   -4.6891    2.9276    0.5041 H   0  0  0  0  0  0  0  0  0  0  0  0
   -3.1890    2.3082    2.3728 H   0  0  0  0  0  0  0  0  0  0  0  0
   -1.5033    0.5420    2.0712 H   0  0  0  0  0  0  0  0  0  0  0  0
    2.2927   -2.1002   -0.9156 C   0  0  0  0  0  0  0  0  0  0  0  0
    2.2927   -2.1002    0.6387 C   0  0  0  0  0  0  0  0  0  0  0  0
    2.2927   -0.6032    0.9867 C   0  0  0  0  0  0  0  0  0  0  0  0
    3.6720   -0.0214    0.6387 C   0  0  0  0  0  0  0  0  0  0  0  0
    3.6720   -0.0214   -0.9156 C   0  0  0  0  0  0  0  0  0  0  0  0
    2.2927   -0.6032   -1.2636 C   0  0  0  0  0  0  0  0  0  0  0  0
    1.4231   -0.0263   -0.1384 C   0  0  0  0  0  3  0  0  0  0  0  0
    1.3990   -2.5884   -1.3078 H   0  0  0  0  0  0  0  0  0  0  0  0
    3.1572   -2.6155   -1.3370 H   0  0  0  0  0  0  0  0  0  0  0  0
    1.3990   -2.5884    1.0309 H   0  0  0  0  0  0  0  0  0  0  0  0
    3.1572   -2.6155    1.0601 H   0  0  0  0  0  0  0  0  0  0  0  0
    1.9683   -0.3880    2.0039 H   0  0  0  0  0  0  0  0  0  0  0  0
    4.4828   -0.6176    1.0601 H   0  0  0  0  0  0  0  0  0  0  0  0
    3.7744    0.9918    1.0309 H   0  0  0  0  0  0  0  0  0  0  0  0
    4.4828   -0.6176   -1.3370 H   0  0  0  0  0  0  0  0  0  0  0  0
    3.7744    0.9918   -1.3078 H   0  0  0  0  0  0  0  0  0  0  0  0
    1.9683   -0.3880   -2.2808 H   0  0  0  0  0  0  0  0  0  0  0  0
    0.1998   -0.4956   -0.1384 H   0  0  0  0  0  0  0  0  0  0  0  0
    1.3872    1.0651   -0.1384 H   0  0  0  0  0  0  0  0  0  0  0  0
  1  2  1  0
  1  8  1  0
  1  9  1  0
  1 32  1  0
  2  3  2  0
  2  7  1  0
  3  4  1  0
  3 10  1  0
  4  5  2  0
  4 11  1  0
  5  6  1  0
  5 12  1  0
  6  7  2  0
  6 13  1  0
  7 14  1  0
 15 16  1  0
 15 20  1  0
 15 22  1  0
 15 23  1  0
 16 17  1  0
 16 24  1  0
 16 25  1  0
 17 18  1  0
 17 21  1  0
 17 26  1  0
 18 19  1  0
 18 27  1  0
 18 28  1  0
 19 20  1  0
 19 29  1  0
 19 30  1  0
 20 21  1  0
 20 31  1  0
 21 33  1  0
M  RAD  1  21   2
M  END
>  <reaction>  (5) 
rxn_547

>  <mol_properties>  (5) 
{"0": {"label": "*1", "atom_type": "Cs"}, "1": {"label": "*0", "atom_type": "Cd"}, "16": {"label": "*4", "atom_type": "Cs"}, "20": {"label": "*3", "atom_type": "Cs"}, "31": {"label": "*2", "atom_type": "H0"}}

>  <type>  (5) 
unop_1

>  <geom_source>  (5) 
Heuristics

$$$$

     RDKit          3D

 33 34  0  0  0  0  0  0  0  0999 V2000
   -1.4723    0.2057   -1.1092 C   0  0  0  0  0  0  0  0  0  0  0  0
   -1.9213   -0.1513    0.2809 C   0  0  0  0  0  0  0  0  0  0  0  0
   -3.1664    0.2508    0.7544 C   0  0  0  0  0  0  0  0  0  0  0  0
   -3.5955   -0.1024    2.0244 C   0  0  0  0  0  0  0  0  0  0  0  0
   -2.7819   -0.8661    2.8473 C   0  0  0  0  0  0  0  0  0  0  0  0
   -1.5373   -1.2706    2.3892 C   0  0  0  0  0  0  0  0  0  0  0  0
   -1.1134   -0.9145    1.1182 C   0  0  0  0  0  0  0  0  0  0  0  0
   -1.9052    1.1520   -1.4352 H   0  0  0  0  0  0  0  0  0  0  0  0
   -1.7808   -0.5613   -1.8242 H   0  0  0  0  0  0  0  0  0  0  0  0
   -3.8082    0.8513    0.1195 H   0  0  0  0  0  0  0  0  0  0  0  0
   -4.5676    0.2231    2.3736 H   0  0  0  0  0  0  0  0  0  0  0  0
   -3.1138   -1.1409    3.8404 H   0  0  0  0  0  0  0  0  0  0  0  0
   -0.8915   -1.8634    3.0251 H   0  0  0  0  0  0  0  0  0  0  0  0
   -0.1370   -1.2324    0.7702 H   0  0  0  0  0  0  0  0  0  0  0  0
    1.8425   -0.9302   -1.8864 C   0  0  0  0  0  0  0  0  0  0  0  0
    1.8425   -0.9302   -0.3320 C   0  0  0  0  0  0  0  0  0  0  0  0
    1.8425    0.5667    0.0159 C   0  0  0  0  0  0  0  0  0  0  0  0
    3.2218    1.1486   -0.3320 C   0  0  0  0  0  0  0  0  0  0  0  0
    3.2218    1.1486   -1.8864 C   0  0  0  0  0  0  0  0  0  0  0  0
    1.8425    0.5667   -2.2343 C   0  0  0  0  0  0  0  0  0  0  0  0
    0.9729    1.1437   -1.1092 C   0  0  0  0  0  3  0  0  0  0  0  0
    0.9488   -1.4184   -2.2785 H   0  0  0  0  0  0  0  0  0  0  0  0
    2.7070   -1.4455   -2.3077 H   0  0  0  0  0  0  0  0  0  0  0  0
    0.9488   -1.4184    0.0601 H   0  0  0  0  0  0  0  0  0  0  0  0
    2.7070   -1.4455    0.0893 H   0  0  0  0  0  0  0  0  0  0  0  0
    1.5181    0.7820    1.0332 H   0  0  0  0  0  0  0  0  0  0  0  0
    4.0326    0.5524    0.0893 H   0  0  0  0  0  0  0  0  0  0  0  0
    3.3242    2.1618    0.0601 H   0  0  0  0  0  0  0  0  0  0  0  0
    4.0326    0.5524   -2.3077 H   0  0  0  0  0  0  0  0  0  0  0  0
    3.3242    2.1618   -2.2785 H   0  0  0  0  0  0  0  0  0  0  0  0
    1.5181    0.7820   -3.2515 H   0  0  0  0  0  0  0  0  0  0  0  0
   -0.2505    0.6744   -1.1092 H   0  0  0  0  0  0  0  0  0  0  0  0
    0.9370    2.2350   -1.1092 H   0  0  0  0  0  0  0  0  0  0  0  0
  1  2  1  0
  1  8  1  0
  1  9  1  0
  1 32  1  0
  2  3  2  0
  2  7  1  0
  3  4  1  0
  3 10  1  0
  4  5  2  0
  4 11  1  0
  5  6  1  0
  5 12  1  0
  6  7  2  0
  6 13  1  0
  7 14  1  0
 15 16  1  0
 15 20  1  0
 15 22  1  0
 15 23  1  0
 16 17  1  0
 16 24  1  0
 16 25  1  0
 17 18  1  0
 17 21  1  0
 17 26  1  0
 18 19  1  0
 18 27  1  0
 18 28  1  0
 19 20  1  0
 19 29  1  0
 19 30  1  0
 20 21  1  0
 20 31  1  0
 21 33  1  0
M  RAD  1  21   2
M  END
>  <reaction>  (6) 
rxn_547

>  <mol_properties>  (6) 
{"0": {"label": "*1", "atom_type": "Cs"}, "1": {"label": "*0", "atom_type": "Cd"}, "16": {"label": "*4", "atom_type": "Cs"}, "20": {"label": "*3", "atom_type": "Cs"}, "31": {"label": "*2", "atom_type": "H0"}}

>  <type>  (6) 
unop_2

>  <geom_source>  (6) 
Heuristics

$$$$

     RDKit          3D

 33 34  0  0  0  0  0  0  0  0999 V2000
   -1.0504   -0.8915    0.4321 C   0  0  0  0  0  0  0  0  0  0  0  0
   -2.0232    0.1171   -0.1135 C   0  0  0  0  0  0  0  0  0  0  0  0
   -2.8199   -0.1824   -1.2144 C   0  0  0  0  0  0  0  0  0  0  0  0
   -3.7391    0.7342   -1.7011 C   0  0  0  0  0  0  0  0  0  0  0  0
   -3.8767    1.9727   -1.0931 C   0  0  0  0  0  0  0  0  0  0  0  0
   -3.0867    2.2853    0.0026 C   0  0  0  0  0  0  0  0  0  0  0  0
   -2.1691    1.3648    0.4850 C   0  0  0  0  0  0  0  0  0  0  0  0
   -0.6774   -1.5486   -0.3541 H   0  0  0  0  0  0  0  0  0  0  0  0
   -1.5283   -1.5203    1.1877 H   0  0  0  0  0  0  0  0  0  0  0  0
   -2.7169   -1.1469   -1.6987 H   0  0  0  0  0  0  0  0  0  0  0  0
   -4.3476    0.4811   -2.5604 H   0  0  0  0  0  0  0  0  0  0  0  0
   -4.5920    2.6910   -1.4731 H   0  0  0  0  0  0  0  0  0  0  0  0
   -3.1823    3.2514    0.4825 H   0  0  0  0  0  0  0  0  0  0  0  0
   -1.5532    1.6196    1.3401 H   0  0  0  0  0  0  0  0  0  0  0  0
    2.2644   -2.0274   -0.3450 C   0  0  0  0  0  0  0  0  0  0  0  0
    2.2644   -2.0274    1.2093 C   0  0  0  0  0  0  0  0  0  0  0  0
    2.2644   -0.5304    1.5573 C   0  0  0  0  0  0  0  0  0  0  0  0
    3.6436    0.0514    1.2093 C   0  0  0  0  0  0  0  0  0  0  0  0
    3.6436    0.0514   -0.3450 C   0  0  0  0  0  0  0  0  0  0  0  0
    2.2644   -0.5304   -0.6930 C   0  0  0  0  0  0  0  0  0  0  0  0
    1.3948    0.0465    0.4321 C   0  0  0  0  0  3  0  0  0  0  0  0
    1.3706   -2.5156   -0.7372 H   0  0  0  0  0  0  0  0  0  0  0  0
    3.1288   -2.5427   -0.7664 H   0  0  0  0  0  0  0  0  0  0  0  0
    1.3706   -2.5156    1.6015 H   0  0  0  0  0  0  0  0  0  0  0  0
    3.1288   -2.5427    1.6307 H   0  0  0  0  0  0  0  0  0  0  0  0
    1.9399   -0.3152    2.5745 H   0  0  0  0  0  0  0  0  0  0  0  0
    4.4544   -0.5448    1.6307 H   0  0  0  0  0  0  0  0  0  0  0  0
    3.7461    1.0646    1.6015 H   0  0  0  0  0  0  0  0  0  0  0  0
    4.4544   -0.5448   -0.7664 H   0  0  0  0  0  0  0  0  0  0  0  0
    3.7461    1.0646   -0.7372 H   0  0  0  0  0  0  0  0  0  0  0  0
    1.9399   -0.3152   -1.7102 H   0  0  0  0  0  0  0  0  0  0  0  0
    0.1714   -0.4228    0.4321 H   0  0  0  0  0  0  0  0  0  0  0  0
    1.3589    1.1378    0.4321 H   0  0  0  0  0  0  0  0  0  0  0  0
  1  2  1  0
  1  8  1  0
  1  9  1  0
  1 32  1  0
  2  3  2  0
  2  7  1  0
  3  4  1  0
  3 10  1  0
  4  5  2  0
  4 11  1  0
  5  6  1  0
  5 12  1  0
  6  7  2  0
  6 13  1  0
  7 14  1  0
 15 16  1  0
 15 20  1  0
 15 22  1  0
 15 23  1  0
 16 17  1  0
 16 24  1  0
 16 25  1  0
 17 18  1  0
 17 21  1  0
 17 26  1  0
 18 19  1  0
 18 27  1  0
 18 28  1  0
 19 20  1  0
 19 29  1  0
 19 30  1  0
 20 21  1  0
 20 31  1  0
 21 33  1  0
M  RAD  1  21   2
M  END
>  <reaction>  (7) 
rxn_547

>  <mol_properties>  (7) 
{"0": {"label": "*1", "atom_type": "Cs"}, "1": {"label": "*0", "atom_type": "Cd"}, "16": {"label": "*4", "atom_type": "Cs"}, "20": {"label": "*3", "atom_type": "Cs"}, "31": {"label": "*2", "atom_type": "H0"}}

>  <type>  (7) 
unop_3

>  <geom_source>  (7) 
Heuristics

$$$$

     RDKit          3D

 33 34  0  0  0  0  0  0  0  0999 V2000
   -1.7980    1.0377   -0.4241 C   0  0  0  0  0  0  0  0  0  0  0  0
   -1.8467   -0.3627    0.1216 C   0  0  0  0  0  0  0  0  0  0  0  0
   -3.0620   -0.9700    0.4222 C   0  0  0  0  0  0  0  0  0  0  0  0
   -3.1118   -2.2716    0.8969 C   0  0  0  0  0  0  0  0  0  0  0  0
   -1.9411   -2.9911    1.0814 C   0  0  0  0  0  0  0  0  0  0  0  0
   -0.7230   -2.3968    0.7890 C   0  0  0  0  0  0  0  0  0  0  0  0
   -0.6792   -1.0949    0.3146 C   0  0  0  0  0  0  0  0  0  0  0  0
   -2.6359    1.6341   -0.0616 H   0  0  0  0  0  0  0  0  0  0  0  0
   -1.8477    1.0293   -1.5159 H   0  0  0  0  0  0  0  0  0  0  0  0
   -3.9827   -0.4141    0.2846 H   0  0  0  0  0  0  0  0  0  0  0  0
   -4.0686   -2.7241    1.1265 H   0  0  0  0  0  0  0  0  0  0  0  0
   -1.9774   -4.0067    1.4544 H   0  0  0  0  0  0  0  0  0  0  0  0
    0.1981   -2.9477    0.9337 H   0  0  0  0  0  0  0  0  0  0  0  0
    0.2783   -0.6374    0.0921 H   0  0  0  0  0  0  0  0  0  0  0  0
    1.5168   -0.0982   -1.2013 C   0  0  0  0  0  0  0  0  0  0  0  0
    1.5168   -0.0982    0.3531 C   0  0  0  0  0  0  0  0  0  0  0  0
    1.5168    1.3987    0.7011 C   0  0  0  0  0  0  0  0  0  0  0  0
    2.8960    1.9806    0.3531 C   0  0  0  0  0  0  0  0  0  0  0  0
    2.8960    1.9806   -1.2013 C   0  0  0  0  0  0  0  0  0  0  0  0
    1.5168    1.3987   -1.5492 C   0  0  0  0  0  0  0  0  0  0  0  0
    0.6472    1.9757   -0.4241 C   0  0  0  0  0  3  0  0  0  0  0  0
    0.6231   -0.5864   -1.5934 H   0  0  0  0  0  0  0  0  0  0  0  0
    2.3813   -0.6135   -1.6226 H   0  0  0  0  0  0  0  0  0  0  0  0
    0.6231   -0.5864    0.7452 H   0  0  0  0  0  0  0  0  0  0  0  0
    2.3813   -0.6135    0.7745 H   0  0  0  0  0  0  0  0  0  0  0  0
    1.1924    1.6140    1.7183 H   0  0  0  0  0  0  0  0  0  0  0  0
    3.7068    1.3844    0.7745 H   0  0  0  0  0  0  0  0  0  0  0  0
    2.9985    2.9938    0.7452 H   0  0  0  0  0  0  0  0  0  0  0  0
    3.7068    1.3844   -1.6226 H   0  0  0  0  0  0  0  0  0  0  0  0
    2.9985    2.9938   -1.5934 H   0  0  0  0  0  0  0  0  0  0  0  0
    1.1924    1.6140   -2.5664 H   0  0  0  0  0  0  0  0  0  0  0  0
   -0.5762    1.5064   -0.4241 H   0  0  0  0  0  0  0  0  0  0  0  0
    0.6113    3.0670   -0.4241 H   0  0  0  0  0  0  0  0  0  0  0  0
  1  2  1  0
  1  8  1  0
  1  9  1  0
  1 32  1  0
  2  3  2  0
  2  7  1  0
  3  4  1  0
  3 10  1  0
  4  5  2  0
  4 11  1  0
  5  6  1  0
  5 12  1  0
  6  7  2  0
  6 13  1  0
  7 14  1  0
 15 16  1  0
 15 20  1  0
 15 22  1  0
 15 23  1  0
 16 17  1  0
 16 24  1  0
 16 25  1  0
 17 18  1  0
 17 21  1  0
 17 26  1  0
 18 19  1  0
 18 27  1  0
 18 28  1  0
 19 20  1  0
 19 29  1  0
 19 30  1  0
 20 21  1  0
 20 31  1  0
 21 33  1  0
M  RAD  1  21   2
M  END
>  <reaction>  (8) 
rxn_547

>  <mol_properties>  (8) 
{"0": {"label": "*1", "atom_type": "Cs"}, "1": {"label": "*0", "atom_type": "Cd"}, "16": {"label": "*4", "atom_type": "Cs"}, "20": {"label": "*3", "atom_type": "Cs"}, "31": {"label": "*2", "atom_type": "H0"}}

>  <type>  (8) 
unop_4

>  <geom_source>  (8) 
Heuristics

$$$$

     RDKit          3D

 33 34  0  0  0  0  0  0  0  0999 V2000
   -1.1782   -0.5679    0.8868 C   0  0  0  0  0  0  0  0  0  0  0  0
   -1.9914    0.0246   -0.2308 C   0  0  0  0  0  0  0  0  0  0  0  0
   -3.0393   -0.6873   -0.8065 C   0  0  0  0  0  0  0  0  0  0  0  0
   -3.8099   -0.1321   -1.8163 C   0  0  0  0  0  0  0  0  0  0  0  0
   -3.5434    1.1503   -2.2710 C   0  0  0  0  0  0  0  0  0  0  0  0
   -2.5000    1.8694   -1.7084 C   0  0  0  0  0  0  0  0  0  0  0  0
   -1.7327    1.3092   -0.6988 C   0  0  0  0  0  0  0  0  0  0  0  0
   -1.1267   -1.6543    0.8072 H   0  0  0  0  0  0  0  0  0  0  0  0
   -1.6223   -0.3295    1.8567 H   0  0  0  0  0  0  0  0  0  0  0  0
   -3.2530   -1.6923   -0.4600 H   0  0  0  0  0  0  0  0  0  0  0  0
   -4.6194   -0.7048   -2.2517 H   0  0  0  0  0  0  0  0  0  0  0  0
   -4.1423    1.5848   -3.0612 H   0  0  0  0  0  0  0  0  0  0  0  0
   -2.2798    2.8702   -2.0589 H   0  0  0  0  0  0  0  0  0  0  0  0
   -0.9165    1.8780   -0.2675 H   0  0  0  0  0  0  0  0  0  0  0  0
    2.1365   -1.7038    0.1096 C   0  0  0  0  0  0  0  0  0  0  0  0
    2.1365   -1.7038    1.6640 C   0  0  0  0  0  0  0  0  0  0  0  0
    2.1365   -0.2068    2.0119 C   0  0  0  0  0  0  0  0  0  0  0  0
    3.5158    0.3750    1.6640 C   0  0  0  0  0  0  0  0  0  0  0  0
    3.5158    0.3750    0.1096 C   0  0  0  0  0  0  0  0  0  0  0  0
    2.1365   -0.2068   -0.2383 C   0  0  0  0  0  0  0  0  0  0  0  0
    1.2670    0.3701    0.8868 C   0  0  0  0  0  3  0  0  0  0  0  0
    1.2428   -2.1920   -0.2825 H   0  0  0  0  0  0  0  0  0  0  0  0
    3.0010   -2.2191   -0.3117 H   0  0  0  0  0  0  0  0  0  0  0  0
    1.2428   -2.1920    2.0561 H   0  0  0  0  0  0  0  0  0  0  0  0
    3.0010   -2.2191    2.0853 H   0  0  0  0  0  0  0  0  0  0  0  0
    1.8121    0.0084    3.0291 H   0  0  0  0  0  0  0  0  0  0  0  0
    4.3266   -0.2212    2.0853 H   0  0  0  0  0  0  0  0  0  0  0  0
    3.6182    1.3882    2.0561 H   0  0  0  0  0  0  0  0  0  0  0  0
    4.3266   -0.2212   -0.3117 H   0  0  0  0  0  0  0  0  0  0  0  0
    3.6182    1.3882   -0.2825 H   0  0  0  0  0  0  0  0  0  0  0  0
    1.8121    0.0084   -1.2555 H   0  0  0  0  0  0  0  0  0  0  0  0
    0.0436   -0.0992    0.8868 H   0  0  0  0  0  0  0  0  0  0  0  0
    1.2310    1.4615    0.8868 H   0  0  0  0  0  0  0  0  0  0  0  0
  1  2  1  0
  1  8  1  0
  1  9  1  0
  1 32  1  0
  2  3  2  0
  2  7  1  0
  3  4  1  0
  3 10  1  0
  4  5  2  0
  4 11  1  0
  5  6  1  0
  5 12  1  0
  6  7  2  0
  6 13  1  0
  7 14  1  0
 15 16  1  0
 15 20  1  0
 15 22  1  0
 15 23  1  0
 16 17  1  0
 16 24  1  0
 16 25  1  0
 17 18  1  0
 17 21  1  0
 17 26  1  0
 18 19  1  0
 18 27  1  0
 18 28  1  0
 19 20  1  0
 19 29  1  0
 19 30  1  0
 20 21  1  0
 20 31  1  0
 21 33  1  0
M  RAD  1  21   2
M  END
>  <reaction>  (9) 
rxn_547

>  <mol_properties>  (9) 
{"0": {"label": "*1", "atom_type": "Cs"}, "1": {"label": "*0", "atom_type": "Cd"}, "16": {"label": "*4", "atom_type": "Cs"}, "20": {"label": "*3", "atom_type": "Cs"}, "31": {"label": "*2", "atom_type": "H0"}}

>  <type>  (9) 
unop_5

>  <geom_source>  (9) 
Heuristics

$$$$

     RDKit          3D

 33 34  0  0  0  0  0  0  0  0999 V2000
   -1.8275    1.1057    0.1531 C   0  0  0  0  0  0  0  0  0  0  0  0
   -1.8404   -0.3881   -0.0194 C   0  0  0  0  0  0  0  0  0  0  0  0
   -3.0408   -1.0866   -0.1054 C   0  0  0  0  0  0  0  0  0  0  0  0
   -3.0559   -2.4598   -0.2946 C   0  0  0  0  0  0  0  0  0  0  0  0
   -1.8649   -3.1617   -0.4000 C   0  0  0  0  0  0  0  0  0  0  0  0
   -0.6616   -2.4785   -0.3126 C   0  0  0  0  0  0  0  0  0  0  0  0
   -0.6525   -1.1051   -0.1233 C   0  0  0  0  0  0  0  0  0  0  0  0
   -2.7042    1.4491    0.7033 H   0  0  0  0  0  0  0  0  0  0  0  0
   -1.8309    1.6072   -0.8180 H   0  0  0  0  0  0  0  0  0  0  0  0
   -3.9774   -0.5469   -0.0205 H   0  0  0  0  0  0  0  0  0  0  0  0
   -4.0017   -2.9838   -0.3567 H   0  0  0  0  0  0  0  0  0  0  0  0
   -1.8743   -4.2344   -0.5452 H   0  0  0  0  0  0  0  0  0  0  0  0
    0.2749   -3.0170   -0.3888 H   0  0  0  0  0  0  0  0  0  0  0  0
    0.2935   -0.5801   -0.0526 H   0  0  0  0  0  0  0  0  0  0  0  0
    1.4873   -0.0302   -0.6241 C   0  0  0  0  0  0  0  0  0  0  0  0
    1.4873   -0.0302    0.9303 C   0  0  0  0  0  0  0  0  0  0  0  0
    1.4873    1.4667    1.2783 C   0  0  0  0  0  0  0  0  0  0  0  0
    2.8665    2.0486    0.9303 C   0  0  0  0  0  0  0  0  0  0  0  0
    2.8665    2.0486   -0.6241 C   0  0  0  0  0  0  0  0  0  0  0  0
    1.4873    1.4667   -0.9720 C   0  0  0  0  0  0  0  0  0  0  0  0
    0.6177    2.0437    0.1531 C   0  0  0  0  0  3  0  0  0  0  0  0
    0.5935   -0.5184   -1.0162 H   0  0  0  0  0  0  0  0  0  0  0  0
    2.3518   -0.5455   -1.0454 H   0  0  0  0  0  0  0  0  0  0  0  0
    0.5935   -0.5184    1.3225 H   0  0  0  0  0  0  0  0  0  0  0  0
    2.3518   -0.5455    1.3517 H   0  0  0  0  0  0  0  0  0  0  0  0
    1.1628    1.6820    2.2955 H   0  0  0  0  0  0  0  0  0  0  0  0
    3.6773    1.4524    1.3517 H   0  0  0  0  0  0  0  0  0  0  0  0
    2.9690    3.0618    1.3225 H   0  0  0  0  0  0  0  0  0  0  0  0
    3.6773    1.4524   -1.0454 H   0  0  0  0  0  0  0  0  0  0  0  0
    2.9690    3.0618   -1.0162 H   0  0  0  0  0  0  0  0  0  0  0  0
    1.1628    1.6820   -1.9892 H   0  0  0  0  0  0  0  0  0  0  0  0
   -0.6057    1.5744    0.1531 H   0  0  0  0  0  0  0  0  0  0  0  0
    0.5818    3.1350    0.1531 H   0  0  0  0  0  0  0  0  0  0  0  0
  1  2  1  0
  1  8  1  0
  1  9  1  0
  1 32  1  0
  2  3  2  0
  2  7  1  0
  3  4  1  0
  3 10  1  0
  4  5  2  0
  4 11  1  0
  5  6  1  0
  5 12  1  0
  6  7  2  0
  6 13  1  0
  7 14  1  0
 15 16  1  0
 15 20  1  0
 15 22  1  0
 15 23  1  0
 16 17  1  0
 16 24  1  0
 16 25  1  0
 17 18  1  0
 17 21  1  0
 17 26  1  0
 18 19  1  0
 18 27  1  0
 18 28  1  0
 19 20  1  0
 19 29  1  0
 19 30  1  0
 20 21  1  0
 20 31  1  0
 21 33  1  0
M  RAD  1  21   2
M  END
>  <reaction>  (10) 
rxn_547

>  <mol_properties>  (10) 
{"0": {"label": "*1", "atom_type": "Cs"}, "1": {"label": "*0", "atom_type": "Cd"}, "16": {"label": "*4", "atom_type": "Cs"}, "20": {"label": "*3", "atom_type": "Cs"}, "31": {"label": "*2", "atom_type": "H0"}}

>  <type>  (10) 
unop_6

>  <geom_source>  (10) 
Heuristics

$$$$

     RDKit          3D

 33 34  0  0  0  0  0  0  0  0999 V2000
   -1.5828    0.4621    1.0403 C   0  0  0  0  0  0  0  0  0  0  0  0
   -1.8981   -0.2433   -0.2498 C   0  0  0  0  0  0  0  0  0  0  0  0
   -3.2019   -0.6197   -0.5576 C   0  0  0  0  0  0  0  0  0  0  0  0
   -3.5003   -1.2431   -1.7594 C   0  0  0  0  0  0  0  0  0  0  0  0
   -2.4947   -1.5034   -2.6777 C   0  0  0  0  0  0  0  0  0  0  0  0
   -1.1907   -1.1367   -2.3821 C   0  0  0  0  0  0  0  0  0  0  0  0
   -0.8980   -0.5136   -1.1788 C   0  0  0  0  0  0  0  0  0  0  0  0
   -2.2715    0.1667    1.8325 H   0  0  0  0  0  0  0  0  0  0  0  0
   -1.6653    1.5452    0.9190 H   0  0  0  0  0  0  0  0  0  0  0  0
   -3.9945   -0.4236    0.1558 H   0  0  0  0  0  0  0  0  0  0  0  0
   -4.5217   -1.5294   -1.9776 H   0  0  0  0  0  0  0  0  0  0  0  0
   -2.7251   -1.9924   -3.6156 H   0  0  0  0  0  0  0  0  0  0  0  0
   -0.3964   -1.3393   -3.0899 H   0  0  0  0  0  0  0  0  0  0  0  0
    0.1253   -0.2338   -0.9550 H   0  0  0  0  0  0  0  0  0  0  0  0
    1.7320   -0.6738    0.2631 C   0  0  0  0  0  0  0  0  0  0  0  0
    1.7320   -0.6738    1.8175 C   0  0  0  0  0  0  0  0  0  0  0  0
    1.7320    0.8231    2.1654 C   0  0  0  0  0  0  0  0  0  0  0  0
    3.1112    1.4050    1.8175 C   0  0  0  0  0  0  0  0  0  0  0  0
    3.1112    1.4050    0.2631 C   0  0  0  0  0  0  0  0  0  0  0  0
    1.7320    0.8231   -0.0849 C   0  0  0  0  0  0  0  0  0  0  0  0
    0.8624    1.4001    1.0403 C   0  0  0  0  0  3  0  0  0  0  0  0
    0.8383   -1.1621   -0.1290 H   0  0  0  0  0  0  0  0  0  0  0  0
    2.5965   -1.1892   -0.1583 H   0  0  0  0  0  0  0  0  0  0  0  0
    0.8383   -1.1621    2.2096 H   0  0  0  0  0  0  0  0  0  0  0  0
    2.5965   -1.1892    2.2388 H   0  0  0  0  0  0  0  0  0  0  0  0
    1.4076    1.0384    3.1826 H   0  0  0  0  0  0  0  0  0  0  0  0
    3.9221    0.8087    2.2388 H   0  0  0  0  0  0  0  0  0  0  0  0
    3.2137    2.4182    2.2096 H   0  0  0  0  0  0  0  0  0  0  0  0
    3.9221    0.8087   -0.1583 H   0  0  0  0  0  0  0  0  0  0  0  0
    3.2137    2.4182   -0.1290 H   0  0  0  0  0  0  0  0  0  0  0  0
    1.4076    1.0384   -1.1021 H   0  0  0  0  0  0  0  0  0  0  0  0
   -0.3610    0.9308    1.0403 H   0  0  0  0  0  0  0  0  0  0  0  0
    0.8265    2.4914    1.0403 H   0  0  0  0  0  0  0  0  0  0  0  0
  1  2  1  0
  1  8  1  0
  1  9  1  0
  1 32  1  0
  2  3  2  0
  2  7  1  0
  3  4  1  0
  3 10  1  0
  4  5  2  0
  4 11  1  0
  5  6  1  0
  5 12  1  0
  6  7  2  0
  6 13  1  0
  7 14  1  0
 15 16  1  0
 15 20  1  0
 15 22  1  0
 15 23  1  0
 16 17  1  0
 16 24  1  0
 16 25  1  0
 17 18  1  0
 17 21  1  0
 17 26  1  0
 18 19  1  0
 18 27  1  0
 18 28  1  0
 19 20  1  0
 19 29  1  0
 19 30  1  0
 20 21  1  0
 20 31  1  0
 21 33  1  0
M  RAD  1  21   2
M  END
>  <reaction>  (11) 
rxn_547

>  <mol_properties>  (11) 
{"0": {"label": "*1", "atom_type": "Cs"}, "1": {"label": "*0", "atom_type": "Cd"}, "16": {"label": "*4", "atom_type": "Cs"}, "20": {"label": "*3", "atom_type": "Cs"}, "31": {"label": "*2", "atom_type": "H0"}}

>  <type>  (11) 
unop_7

>  <geom_source>  (11) 
Heuristics

$$$$

     RDKit          3D

 33 34  0  0  0  0  0  0  0  0999 V2000
   -1.1001   -0.7608   -0.6747 C   0  0  0  0  0  0  0  0  0  0  0  0
   -2.0111    0.0867    0.1697 C   0  0  0  0  0  0  0  0  0  0  0  0
   -3.0214    0.8468   -0.4116 C   0  0  0  0  0  0  0  0  0  0  0  0
   -3.8819    1.6055    0.3667 C   0  0  0  0  0  0  0  0  0  0  0  0
   -3.7451    1.6182    1.7464 C   0  0  0  0  0  0  0  0  0  0  0  0
   -2.7405    0.8681    2.3383 C   0  0  0  0  0  0  0  0  0  0  0  0
   -1.8829    0.1113    1.5551 C   0  0  0  0  0  0  0  0  0  0  0  0
   -0.9616   -0.3281   -1.6660 H   0  0  0  0  0  0  0  0  0  0  0  0
   -1.5170   -1.7624   -0.8080 H   0  0  0  0  0  0  0  0  0  0  0  0
   -3.1339    0.8460   -1.4900 H   0  0  0  0  0  0  0  0  0  0  0  0
   -4.6601    2.1914   -0.1068 H   0  0  0  0  0  0  0  0  0  0  0  0
   -4.4144    2.2120    2.3559 H   0  0  0  0  0  0  0  0  0  0  0  0
   -2.6214    0.8742    3.4147 H   0  0  0  0  0  0  0  0  0  0  0  0
   -1.0980   -0.4693    2.0268 H   0  0  0  0  0  0  0  0  0  0  0  0
    2.2147   -1.8967   -1.4519 C   0  0  0  0  0  0  0  0  0  0  0  0
    2.2147   -1.8967    0.1025 C   0  0  0  0  0  0  0  0  0  0  0  0
    2.2147   -0.3998    0.4504 C   0  0  0  0  0  0  0  0  0  0  0  0
    3.5939    0.1821    0.1025 C   0  0  0  0  0  0  0  0  0  0  0  0
    3.5939    0.1821   -1.4519 C   0  0  0  0  0  0  0  0  0  0  0  0
    2.2147   -0.3998   -1.7998 C   0  0  0  0  0  0  0  0  0  0  0  0
    1.3451    0.1772   -0.6747 C   0  0  0  0  0  3  0  0  0  0  0  0
    1.3209   -2.3849   -1.8440 H   0  0  0  0  0  0  0  0  0  0  0  0
    3.0791   -2.4120   -1.8732 H   0  0  0  0  0  0  0  0  0  0  0  0
    1.3209   -2.3849    0.4946 H   0  0  0  0  0  0  0  0  0  0  0  0
    3.0791   -2.4120    0.5238 H   0  0  0  0  0  0  0  0  0  0  0  0
    1.8902   -0.1845    1.4676 H   0  0  0  0  0  0  0  0  0  0  0  0
    4.4047   -0.4141    0.5238 H   0  0  0  0  0  0  0  0  0  0  0  0
    3.6963    1.1953    0.4946 H   0  0  0  0  0  0  0  0  0  0  0  0
    4.4047   -0.4141   -1.8732 H   0  0  0  0  0  0  0  0  0  0  0  0
    3.6963    1.1953   -1.8440 H   0  0  0  0  0  0  0  0  0  0  0  0
    1.8902   -0.1845   -2.8170 H   0  0  0  0  0  0  0  0  0  0  0  0
    0.1217   -0.2921   -0.6747 H   0  0  0  0  0  0  0  0  0  0  0  0
    1.3092    1.2685   -0.6747 H   0  0  0  0  0  0  0  0  0  0  0  0
  1  2  1  0
  1  8  1  0
  1  9  1  0
  1 32  1  0
  2  3  2  0
  2  7  1  0
  3  4  1  0
  3 10  1  0
  4  5  2  0
  4 11  1  0
  5  6  1  0
  5 12  1  0
  6  7  2  0
  6 13  1  0
  7 14  1  0
 15 16  1  0
 15 20  1  0
 15 22  1  0
 15 23  1  0
 16 17  1  0
 16 24  1  0
 16 25  1  0
 17 18  1  0
 17 21  1  0
 17 26  1  0
 18 19  1  0
 18 27  1  0
 18 28  1  0
 19 20  1  0
 19 29  1  0
 19 30  1  0
 20 21  1  0
 20 31  1  0
 21 33  1  0
M  RAD  1  21   2
M  END
>  <reaction>  (12) 
rxn_547

>  <mol_properties>  (12) 
{"0": {"label": "*1", "atom_type": "Cs"}, "1": {"label": "*0", "atom_type": "Cd"}, "16": {"label": "*4", "atom_type": "Cs"}, "20": {"label": "*3", "atom_type": "Cs"}, "31": {"label": "*2", "atom_type": "H0"}}

>  <type>  (12) 
unop_8

>  <geom_source>  (12) 
Heuristics

$$$$

     RDKit          3D

 33 34  0  0  0  0  0  0  0  0999 V2000
   -1.2646   -0.3327   -1.0309 C   0  0  0  0  0  0  0  0  0  0  0  0
   -1.9708   -0.0192    0.2591 C   0  0  0  0  0  0  0  0  0  0  0  0
   -3.1287    0.7524    0.2701 C   0  0  0  0  0  0  0  0  0  0  0  0
   -3.7987    1.0180    1.4543 C   0  0  0  0  0  0  0  0  0  0  0  0
   -3.3189    0.5151    2.6540 C   0  0  0  0  0  0  0  0  0  0  0  0
   -2.1642   -0.2523    2.6578 C   0  0  0  0  0  0  0  0  0  0  0  0
   -1.4983   -0.5146    1.4705 C   0  0  0  0  0  0  0  0  0  0  0  0
   -1.4007    0.4652   -1.7618 H   0  0  0  0  0  0  0  0  0  0  0  0
   -1.6553   -1.2533   -1.4719 H   0  0  0  0  0  0  0  0  0  0  0  0
   -3.5096    1.1530   -0.6627 H   0  0  0  0  0  0  0  0  0  0  0  0
   -4.6971    1.6226    1.4401 H   0  0  0  0  0  0  0  0  0  0  0  0
   -3.8390    0.7234    3.5803 H   0  0  0  0  0  0  0  0  0  0  0  0
   -1.7776   -0.6463    3.5896 H   0  0  0  0  0  0  0  0  0  0  0  0
   -0.5941   -1.1128    1.4840 H   0  0  0  0  0  0  0  0  0  0  0  0
    2.0502   -1.4686   -1.8081 C   0  0  0  0  0  0  0  0  0  0  0  0
    2.0502   -1.4686   -0.2537 C   0  0  0  0  0  0  0  0  0  0  0  0
    2.0502    0.0284    0.0942 C   0  0  0  0  0  0  0  0  0  0  0  0
    3.4294    0.6102   -0.2537 C   0  0  0  0  0  0  0  0  0  0  0  0
    3.4294    0.6102   -1.8081 C   0  0  0  0  0  0  0  0  0  0  0  0
    2.0502    0.0284   -2.1561 C   0  0  0  0  0  0  0  0  0  0  0  0
    1.1806    0.6053   -1.0309 C   0  0  0  0  0  3  0  0  0  0  0  0
    1.1564   -1.9568   -2.2002 H   0  0  0  0  0  0  0  0  0  0  0  0
    2.9146   -1.9839   -2.2295 H   0  0  0  0  0  0  0  0  0  0  0  0
    1.1564   -1.9568    0.1384 H   0  0  0  0  0  0  0  0  0  0  0  0
    2.9146   -1.9839    0.1676 H   0  0  0  0  0  0  0  0  0  0  0  0
    1.7257    0.2436    1.1114 H   0  0  0  0  0  0  0  0  0  0  0  0
    4.2402    0.0140    0.1676 H   0  0  0  0  0  0  0  0  0  0  0  0
    3.5319    1.6234    0.1384 H   0  0  0  0  0  0  0  0  0  0  0  0
    4.2402    0.0140   -2.2295 H   0  0  0  0  0  0  0  0  0  0  0  0
    3.5319    1.6234   -2.2002 H   0  0  0  0  0  0  0  0  0  0  0  0
    1.7257    0.2436   -3.1733 H   0  0  0  0  0  0  0  0  0  0  0  0
   -0.0428    0.1360   -1.0309 H   0  0  0  0  0  0  0  0  0  0  0  0
    1.1447    1.6967   -1.0309 H   0  0  0  0  0  0  0  0  0  0  0  0
  1  2  1  0
  1  8  1  0
  1  9  1  0
  1 32  1  0
  2  3  2  0
  2  7  1  0
  3  4  1  0
  3 10  1  0
  4  5  2  0
  4 11  1  0
  5  6  1  0
  5 12  1  0
  6  7  2  0
  6 13  1  0
  7 14  1  0
 15 16  1  0
 15 20  1  0
 15 22  1  0
 15 23  1  0
 16 17  1  0
 16 24  1  0
 16 25  1  0
 17 18  1  0
 17 21  1  0
 17 26  1  0
 18 19  1  0
 18 27  1  0
 18 28  1  0
 19 20  1  0
 19 29  1  0
 19 30  1  0
 20 21  1  0
 20 31  1  0
 21 33  1  0
M  RAD  1  21   2
M  END
>  <reaction>  (13) 
rxn_547

>  <mol_properties>  (13) 
{"0": {"label": "*1", "atom_type": "Cs"}, "1": {"label": "*0", "atom_type": "Cd"}, "16": {"label": "*4", "atom_type": "Cs"}, "20": {"label": "*3", "atom_type": "Cs"}, "31": {"label": "*2", "atom_type": "H0"}}

>  <type>  (13) 
unop_9

>  <geom_source>  (13) 
Heuristics

$$$$

     RDKit          3D

 33 34  0  0  0  0  0  0  0  0999 V2000
   -1.3739   -0.0748    1.1115 C   0  0  0  0  0  0  0  0  0  0  0  0
   -1.9465   -0.1097   -0.2785 C   0  0  0  0  0  0  0  0  0  0  0  0
   -3.2379   -0.5745   -0.5074 C   0  0  0  0  0  0  0  0  0  0  0  0
   -3.7793   -0.5797   -1.7836 C   0  0  0  0  0  0  0  0  0  0  0  0
   -3.0341   -0.1193   -2.8583 C   0  0  0  0  0  0  0  0  0  0  0  0
   -1.7446    0.3434   -2.6448 C   0  0  0  0  0  0  0  0  0  0  0  0
   -1.2084    0.3463   -1.3664 C   0  0  0  0  0  0  0  0  0  0  0  0
   -1.7908   -0.8686    1.7323 H   0  0  0  0  0  0  0  0  0  0  0  0
   -1.5995    0.8772    1.5989 H   0  0  0  0  0  0  0  0  0  0  0  0
   -3.8271   -0.9399    0.3263 H   0  0  0  0  0  0  0  0  0  0  0  0
   -4.7859   -0.9478   -1.9393 H   0  0  0  0  0  0  0  0  0  0  0  0
   -3.4539   -0.1249   -3.8562 H   0  0  0  0  0  0  0  0  0  0  0  0
   -1.1517    0.7010   -3.4776 H   0  0  0  0  0  0  0  0  0  0  0  0
   -0.1978    0.7067   -1.2099 H   0  0  0  0  0  0  0  0  0  0  0  0
    1.9408   -1.2107    0.3343 C   0  0  0  0  0  0  0  0  0  0  0  0
    1.9408   -1.2107    1.8887 C   0  0  0  0  0  0  0  0  0  0  0  0
    1.9408    0.2862    2.2367 C   0  0  0  0  0  0  0  0  0  0  0  0
    3.3201    0.8681    1.8887 C   0  0  0  0  0  0  0  0  0  0  0  0
    3.3201    0.8681    0.3343 C   0  0  0  0  0  0  0  0  0  0  0  0
    1.9408    0.2862   -0.0136 C   0  0  0  0  0  0  0  0  0  0  0  0
    1.0713    0.8632    1.1115 C   0  0  0  0  0  3  0  0  0  0  0  0
    1.0471   -1.6989   -0.0578 H   0  0  0  0  0  0  0  0  0  0  0  0
    2.8053   -1.7260   -0.0870 H   0  0  0  0  0  0  0  0  0  0  0  0
    1.0471   -1.6989    2.2808 H   0  0  0  0  0  0  0  0  0  0  0  0
    2.8053   -1.7260    2.3100 H   0  0  0  0  0  0  0  0  0  0  0  0
    1.6164    0.5015    3.2539 H   0  0  0  0  0  0  0  0  0  0  0  0
    4.1309    0.2719    2.3100 H   0  0  0  0  0  0  0  0  0  0  0  0
    3.4225    1.8813    2.2808 H   0  0  0  0  0  0  0  0  0  0  0  0
    4.1309    0.2719   -0.0870 H   0  0  0  0  0  0  0  0  0  0  0  0
    3.4225    1.8813   -0.0578 H   0  0  0  0  0  0  0  0  0  0  0  0
    1.6164    0.5015   -1.0308 H   0  0  0  0  0  0  0  0  0  0  0  0
   -0.1521    0.3939    1.1115 H   0  0  0  0  0  0  0  0  0  0  0  0
    1.0353    1.9545    1.1115 H   0  0  0  0  0  0  0  0  0  0  0  0
  1  2  1  0
  1  8  1  0
  1  9  1  0
  1 32  1  0
  2  3  2  0
  2  7  1  0
  3  4  1  0
  3 10  1  0
  4  5  2  0
  4 11  1  0
  5  6  1  0
  5 12  1  0
  6  7  2  0
  6 13  1  0
  7 14  1  0
 15 16  1  0
 15 20  1  0
 15 22  1  0
 15 23  1  0
 16 17  1  0
 16 24  1  0
 16 25  1  0
 17 18  1  0
 17 21  1  0
 17 26  1  0
 18 19  1  0
 18 27  1  0
 18 28  1  0
 19 20  1  0
 19 29  1  0
 19 30  1  0
 20 21  1  0
 20 31  1  0
 21 33  1  0
M  RAD  1  21   2
M  END
>  <reaction>  (14) 
rxn_547

>  <mol_properties>  (14) 
{"0": {"label": "*1", "atom_type": "Cs"}, "1": {"label": "*0", "atom_type": "Cd"}, "16": {"label": "*4", "atom_type": "Cs"}, "20": {"label": "*3", "atom_type": "Cs"}, "31": {"label": "*2", "atom_type": "H0"}}

>  <type>  (14) 
unop_10

>  <geom_source>  (14) 
Heuristics

$$$$

     RDKit          3D

 33 34  0  0  0  0  0  0  0  0999 V2000
   -1.6677    0.7081   -0.8868 C   0  0  0  0  0  0  0  0  0  0  0  0
   -1.8761   -0.2762    0.2308 C   0  0  0  0  0  0  0  0  0  0  0  0
   -3.1312   -0.4477    0.8065 C   0  0  0  0  0  0  0  0  0  0  0  0
   -3.3328   -1.3759    1.8163 C   0  0  0  0  0  0  0  0  0  0  0  0
   -2.2770   -2.1510    2.2710 C   0  0  0  0  0  0  0  0  0  0  0  0
   -1.0204   -1.9879    1.7084 C   0  0  0  0  0  0  0  0  0  0  0  0
   -0.8246   -1.0582    0.6988 C   0  0  0  0  0  0  0  0  0  0  0  0
   -2.3559    1.5503   -0.8072 H   0  0  0  0  0  0  0  0  0  0  0  0
   -1.8385    0.2340   -1.8567 H   0  0  0  0  0  0  0  0  0  0  0  0
   -3.9622    0.1565    0.4600 H   0  0  0  0  0  0  0  0  0  0  0  0
   -4.3177   -1.4915    2.2517 H   0  0  0  0  0  0  0  0  0  0  0  0
   -2.4316   -2.8746    3.0612 H   0  0  0  0  0  0  0  0  0  0  0  0
   -0.1873   -2.5846    2.0589 H   0  0  0  0  0  0  0  0  0  0  0  0
    0.1626   -0.9352    0.2675 H   0  0  0  0  0  0  0  0  0  0  0  0
    1.6471   -0.4278   -1.6640 C   0  0  0  0  0  0  0  0  0  0  0  0
    1.6471   -0.4278   -0.1096 C   0  0  0  0  0  0  0  0  0  0  0  0
    1.6471    1.0692    0.2383 C   0  0  0  0  0  0  0  0  0  0  0  0
    3.0263    1.6510   -0.1096 C   0  0  0  0  0  0  0  0  0  0  0  0
    3.0263    1.6510   -1.6640 C   0  0  0  0  0  0  0  0  0  0  0  0
    1.6471    1.0692   -2.0119 C   0  0  0  0  0  0  0  0  0  0  0  0
    0.7775    1.6461   -0.8868 C   0  0  0  0  0  3  0  0  0  0  0  0
    0.7533   -0.9160   -2.0561 H   0  0  0  0  0  0  0  0  0  0  0  0
    2.5115   -0.9431   -2.0853 H   0  0  0  0  0  0  0  0  0  0  0  0
    0.7533   -0.9160    0.2825 H   0  0  0  0  0  0  0  0  0  0  0  0
    2.5115   -0.9431    0.3117 H   0  0  0  0  0  0  0  0  0  0  0  0
    1.3226    1.2844    1.2555 H   0  0  0  0  0  0  0  0  0  0  0  0
    3.8371    1.0548    0.3117 H   0  0  0  0  0  0  0  0  0  0  0  0
    3.1287    2.6643    0.2825 H   0  0  0  0  0  0  0  0  0  0  0  0
    3.8371    1.0548   -2.0853 H   0  0  0  0  0  0  0  0  0  0  0  0
    3.1287    2.6643   -2.0561 H   0  0  0  0  0  0  0  0  0  0  0  0
    1.3226    1.2844   -3.0291 H   0  0  0  0  0  0  0  0  0  0  0  0
   -0.4459    1.1768   -0.8868 H   0  0  0  0  0  0  0  0  0  0  0  0
    0.7415    2.7375   -0.8868 H   0  0  0  0  0  0  0  0  0  0  0  0
  1  2  1  0
  1  8  1  0
  1  9  1  0
  1 32  1  0
  2  3  2  0
  2  7  1  0
  3  4  1  0
  3 10  1  0
  4  5  2  0
  4 11  1  0
  5  6  1  0
  5 12  1  0
  6  7  2  0
  6 13  1  0
  7 14  1  0
 15 16  1  0
 15 20  1  0
 15 22  1  0
 15 23  1  0
 16 17  1  0
 16 24  1  0
 16 25  1  0
 17 18  1  0
 17 21  1  0
 17 26  1  0
 18 19  1  0
 18 27  1  0
 18 28  1  0
 19 20  1  0
 19 29  1  0
 19 30  1  0
 20 21  1  0
 20 31  1  0
 21 33  1  0
M  RAD  1  21   2
M  END
>  <reaction>  (15) 
rxn_547

>  <mol_properties>  (15) 
{"0": {"label": "*1", "atom_type": "Cs"}, "1": {"label": "*0", "atom_type": "Cd"}, "16": {"label": "*4", "atom_type": "Cs"}, "20": {"label": "*3", "atom_type": "Cs"}, "31": {"label": "*2", "atom_type": "H0"}}

>  <type>  (15) 
unop_11

>  <geom_source>  (15) 
Heuristics

$$$$

     RDKit          3D

 33 34  0  0  0  0  0  0  0  0999 V2000
   -1.0513   -0.2145    0.2351 C   0  0  0  0  0  0  0  0  0  0  0  0
   -2.7614    1.1535   -0.0995 C   0  0  0  0  0  0  0  0  0  0  0  0
   -2.0402   -0.6309    1.3376 C   0  0  0  0  0  0  0  0  0  0  0  0
   -1.5939   -0.6769   -1.1255 C   0  0  0  0  0  0  0  0  0  0  0  0
   -2.7810    0.2726   -1.3577 C   0  0  0  0  0  0  0  0  0  0  0  0
   -3.2257    0.3175    1.1056 C   0  0  0  0  0  0  0  0  0  0  0  0
    0.8406    0.5612   -1.1779 C   0  0  0  0  0  0  0  0  0  0  0  0
    2.0684    0.1242   -0.4382 C   0  0  0  0  0  0  0  0  0  0  0  0
   -1.2785    1.2724    0.1418 C   0  0  0  0  0  3  0  0  0  0  0  0
    3.3058    0.0548   -1.0985 C   0  0  0  0  0  0  0  0  0  0  0  0
    1.9776   -0.2821    0.9024 C   0  0  0  0  0  0  0  0  0  0  0  0
    4.4434   -0.3875   -0.4157 C   0  0  0  0  0  0  0  0  0  0  0  0
    4.3499   -0.7743    0.9242 C   0  0  0  0  0  0  0  0  0  0  0  0
    3.1175   -0.7240    1.5819 C   0  0  0  0  0  0  0  0  0  0  0  0
    0.0014   -0.5110    0.4296 H   0  0  0  0  0  0  0  0  0  0  0  0
   -3.2913    2.1229   -0.2146 H   0  0  0  0  0  0  0  0  0  0  0  0
   -1.5926   -0.4580    2.3411 H   0  0  0  0  0  0  0  0  0  0  0  0
   -2.3407   -1.6977    1.2483 H   0  0  0  0  0  0  0  0  0  0  0  0
   -0.8228   -0.5382   -1.9153 H   0  0  0  0  0  0  0  0  0  0  0  0
   -1.9140   -1.7418   -1.1079 H   0  0  0  0  0  0  0  0  0  0  0  0
   -2.6124    0.8934   -2.2655 H   0  0  0  0  0  0  0  0  0  0  0  0
   -3.7388   -0.2820   -1.4649 H   0  0  0  0  0  0  0  0  0  0  0  0
   -3.3808    0.9724    1.9913 H   0  0  0  0  0  0  0  0  0  0  0  0
   -4.1644   -0.2389    0.8915 H   0  0  0  0  0  0  0  0  0  0  0  0
    1.0962    1.3286   -1.9394 H   0  0  0  0  0  0  0  0  0  0  0  0
    0.3825   -0.3142   -1.6837 H   0  0  0  0  0  0  0  0  0  0  0  0
   -0.0441    1.0903   -0.3406 H   0  0  0  0  0  0  0  0  0  0  0  0
   -1.0378    1.8054    1.0908 H   0  0  0  0  0  0  0  0  0  0  0  0
    3.3893    0.3432   -2.1392 H   0  0  0  0  0  0  0  0  0  0  0  0
    5.3966   -0.4339   -0.9264 H   0  0  0  0  0  0  0  0  0  0  0  0
    5.2308   -1.1177    1.4511 H   0  0  0  0  0  0  0  0  0  0  0  0
    3.0446   -1.0310    2.6173 H   0  0  0  0  0  0  0  0  0  0  0  0
    1.0272   -0.2575    1.4210 H   0  0  0  0  0  0  0  0  0  0  0  0
  1  3  1  0
  1  4  1  0
  1  9  1  0
  1 15  1  0
  2  6  1  0
  2  5  1  0
  2  9  1  0
  2 16  1  0
  3  6  1  0
  3 17  1  0
  3 18  1  0
  4  5  1  0
  4 19  1  0
  4 20  1  0
  5 21  1  0
  5 22  1  0
  6 23  1  0
  6 24  1  0
  7  8  1  0
  7 25  1  0
  7 26  1  0
  7 27  1  0
  8 10  2  0
  8 11  1  0
  9 28  1  0
 10 12  1  0
 10 29  1  0
 11 14  2  0
 11 33  1  0
 12 13  2  0
 12 30  1  0
 13 14  1  0
 13 31  1  0
 14 32  1  0
M  RAD  1   9   2
M  END
>  <reaction>  (16) 
rxn_547

>  <mol_properties>  (16) 
{"0": {"label": "*1", "atom_type": "Cs"}, "1": {"label": "*0", "atom_type": "Cd"}, "16": {"label": "*4", "atom_type": "Cs"}, "20": {"label": "*3", "atom_type": "Cs"}, "31": {"label": "*2", "atom_type": "H0"}}

>  <type>  (16) 
unop_12

>  <geom_source>  (16) 
AutoTST

$$$$
