
     RDKit          3D

  4  3  0  0  0  0  0  0  0  0999 V2000
   -0.6811    0.2130   -0.1145 N   0  0  0  0  0  0  0  0  0  0  0  0
    0.4886    0.0558    0.1399 C   0  0  0  0  0  0  0  0  0  0  0  0
    1.6370   -0.0014    0.2890 O   0  0  0  0  0  0  0  0  0  0  0  0
   -1.4444   -0.2674    0.3244 H   0  0  0  0  0  0  0  0  0  0  0  0
  1  2  2  0
  1  4  1  0
  2  3  2  0
M  END
>  <reaction>  (1) 
rxn_698

>  <mol_properties>  (1) 
{"0": {"label": "donator", "atom_type": "N3d"}, "3": {"label": "d_hydrogen", "atom_type": "H0"}}

>  <type>  (1) 
r1h

$$$$

     RDKit          3D

  4  3  0  0  0  0  0  0  0  0999 V2000
    0.0000    0.0000    0.0000 C   0  0  0  0  0  3  0  0  0  0  0  0
    1.0638   -0.1747    0.0540 H   0  0  0  0  0  0  0  0  0  0  0  0
   -0.6833   -0.8351   -0.0280 H   0  0  0  0  0  0  0  0  0  0  0  0
   -0.3805    1.0098   -0.0260 H   0  0  0  0  0  0  0  0  0  0  0  0
  1  2  1  0
  1  3  1  0
  1  4  1  0
M  RAD  1   1   2
M  END
>  <reaction>  (2) 
rxn_698

>  <mol_properties>  (2) 
{"0": {"label": "acceptor", "atom_type": "Cs"}}

>  <type>  (2) 
r2

$$$$

     RDKit          3D

  5  4  0  0  0  0  0  0  0  0999 V2000
    0.0000    0.0000    0.0000 C   0  0  0  0  0  0  0  0  0  0  0  0
   -0.6486   -0.7720   -0.4113 H   0  0  0  0  0  0  0  0  0  0  0  0
   -0.3482    0.9787   -0.3267 H   0  0  0  0  0  0  0  0  0  0  0  0
   -0.0223   -0.0487    1.0876 H   0  0  0  0  0  0  0  0  0  0  0  0
    1.0191   -0.1580   -0.3496 H   0  0  0  0  0  0  0  0  0  0  0  0
  1  2  1  0
  1  3  1  0
  1  4  1  0
  1  5  1  0
M  END
>  <reaction>  (3) 
rxn_698

>  <mol_properties>  (3) 
{"0": {"label": "a_hydrogen", "atom_type": "H0"}, "1": {"label": "acceptor", "atom_type": "Cs"}}

>  <type>  (3) 
r2h

$$$$

     RDKit          3D

  8  6  0  0  0  0  0  0  0  0999 V2000
   -0.0379    0.8724    0.4465 N   0  0  0  0  0  0  0  0  0  0  0  0
   -0.0141    0.3986   -0.6788 C   0  0  0  0  0  0  0  0  0  0  0  0
    0.0069    0.0099   -1.7767 O   0  0  0  0  0  1  0  0  0  0  0  0
   -0.0149   -0.1236    1.3310 H   0  0  0  0  0  0  0  0  0  0  0  0
    0.0109   -1.1603    2.0292 C   0  0  0  0  0  0  0  0  0  0  0  0
    0.0422   -1.9985    1.3398 H   0  0  0  0  0  0  0  0  0  0  0  0
    0.9144   -1.0452    2.6208 H   0  0  0  0  0  0  0  0  0  0  0  0
   -0.9076   -1.1008    2.6056 H   0  0  0  0  0  0  0  0  0  0  0  0
  1  2  3  0
  2  3  1  0
  4  5  1  0
  5  6  1  0
  5  7  1  0
  5  8  1  0
M  RAD  1   3   2
M  END
>  <reaction>  (4) 
rxn_698

>  <mol_properties>  (4) 
{"0": {"label": "*3", "atom_type": "N3t"}, "1": {"label": "*4", "atom_type": "Ct"}, "3": {"label": "*2", "atom_type": "H0"}, "4": {"label": "*1", "atom_type": "Cs"}, "5": {"label": "*0", "atom_type": "H0"}}

>  <type>  (4) 
ts

$$$$

     RDKit          3D

  8  6  0  0  0  0  0  0  0  0999 V2000
    0.0020    0.5683    0.4234 N   0  0  0  0  0  0  0  0  0  0  0  0
    0.0020    0.4269   -0.7757 C   0  0  0  0  0  0  0  0  0  0  0  0
    0.0020    0.4269   -1.9351 O   0  0  0  0  0  0  0  0  0  0  0  0
    0.0020   -0.3209    1.2345 H   0  0  0  0  0  0  0  0  0  0  0  0
    0.0020   -1.2864    2.1151 C   0  0  0  0  0  3  0  0  0  0  0  0
    0.8911   -1.2086    2.7389 H   0  0  0  0  0  0  0  0  0  0  0  0
   -0.6834   -0.5984    2.6077 H   0  0  0  0  0  0  0  0  0  0  0  0
   -0.3173   -2.3110    2.2994 H   0  0  0  0  0  0  0  0  0  0  0  0
  1  2  2  0
  1  4  1  0
  2  3  2  0
  5  6  1  0
  5  7  1  0
  5  8  1  0
M  RAD  1   5   2
M  END
>  <reaction>  (5) 
rxn_698

>  <mol_properties>  (5) 
{"0": {"label": "*3", "atom_type": "N3t"}, "1": {"label": "*4", "atom_type": "Ct"}, "3": {"label": "*2", "atom_type": "H0"}, "4": {"label": "*1", "atom_type": "Cs"}, "5": {"label": "*0", "atom_type": "H0"}}

>  <type>  (5) 
unop_1

>  <geom_source>  (5) 
Heuristics

$$$$

     RDKit          3D

  8  6  0  0  0  0  0  0  0  0999 V2000
   -0.0003    0.5658    0.4380 N   0  0  0  0  0  0  0  0  0  0  0  0
   -0.0003    0.4244   -0.7611 C   0  0  0  0  0  0  0  0  0  0  0  0
   -0.0003    0.4244   -1.9205 O   0  0  0  0  0  0  0  0  0  0  0  0
   -0.0003   -0.3235    1.2491 H   0  0  0  0  0  0  0  0  0  0  0  0
   -0.0003   -1.2889    2.1297 C   0  0  0  0  0  3  0  0  0  0  0  0
    0.5130   -2.1563    1.7174 H   0  0  0  0  0  0  0  0  0  0  0  0
    0.5287   -0.4873    2.6428 H   0  0  0  0  0  0  0  0  0  0  0  0
   -1.0268   -1.3353    2.4901 H   0  0  0  0  0  0  0  0  0  0  0  0
  1  2  2  0
  1  4  1  0
  2  3  2  0
  5  6  1  0
  5  7  1  0
  5  8  1  0
M  RAD  1   5   2
M  END
>  <reaction>  (6) 
rxn_698

>  <mol_properties>  (6) 
{"0": {"label": "*3", "atom_type": "N3t"}, "1": {"label": "*4", "atom_type": "Ct"}, "3": {"label": "*2", "atom_type": "H0"}, "4": {"label": "*1", "atom_type": "Cs"}, "5": {"label": "*0", "atom_type": "H0"}}

>  <type>  (6) 
unop_2

>  <geom_source>  (6) 
Heuristics

$$$$

     RDKit          3D

  8  6  0  0  0  0  0  0  0  0999 V2000
    0.0040    0.5724    0.4201 N   0  0  0  0  0  0  0  0  0  0  0  0
    0.0040    0.4310   -0.7790 C   0  0  0  0  0  0  0  0  0  0  0  0
    0.0040    0.4310   -1.9384 O   0  0  0  0  0  0  0  0  0  0  0  0
    0.0040   -0.3169    1.2312 H   0  0  0  0  0  0  0  0  0  0  0  0
    0.0040   -1.2823    2.1118 C   0  0  0  0  0  3  0  0  0  0  0  0
    0.5174   -0.9513    3.0133 H   0  0  0  0  0  0  0  0  0  0  0  0
   -0.9798   -1.0580    2.5210 H   0  0  0  0  0  0  0  0  0  0  0  0
    0.2420   -2.3295    2.2921 H   0  0  0  0  0  0  0  0  0  0  0  0
  1  2  2  0
  1  4  1  0
  2  3  2  0
  5  6  1  0
  5  7  1  0
  5  8  1  0
M  RAD  1   5   2
M  END
>  <reaction>  (7) 
rxn_698

>  <mol_properties>  (7) 
{"0": {"label": "*3", "atom_type": "N3t"}, "1": {"label": "*4", "atom_type": "Ct"}, "3": {"label": "*2", "atom_type": "H0"}, "4": {"label": "*1", "atom_type": "Cs"}, "5": {"label": "*0", "atom_type": "H0"}}

>  <type>  (7) 
unop_3

>  <geom_source>  (7) 
Heuristics

$$$$

     RDKit          3D

  8  6  0  0  0  0  0  0  0  0999 V2000
    0.0009    0.5666    0.4341 N   0  0  0  0  0  0  0  0  0  0  0  0
    0.0009    0.4252   -0.7650 C   0  0  0  0  0  0  0  0  0  0  0  0
    0.0009    0.4252   -1.9244 O   0  0  0  0  0  0  0  0  0  0  0  0
    0.0009   -0.3227    1.2452 H   0  0  0  0  0  0  0  0  0  0  0  0
    0.0009   -1.2881    2.1258 C   0  0  0  0  0  3  0  0  0  0  0  0
   -0.8882   -1.9022    1.9911 H   0  0  0  0  0  0  0  0  0  0  0  0
    0.9332   -1.7755    2.4068 H   0  0  0  0  0  0  0  0  0  0  0  0
   -0.0930   -0.3462    2.6642 H   0  0  0  0  0  0  0  0  0  0  0  0
  1  2  2  0
  1  4  1  0
  2  3  2  0
  5  6  1  0
  5  7  1  0
  5  8  1  0
M  RAD  1   5   2
M  END
>  <reaction>  (8) 
rxn_698

>  <mol_properties>  (8) 
{"0": {"label": "*3", "atom_type": "N3t"}, "1": {"label": "*4", "atom_type": "Ct"}, "3": {"label": "*2", "atom_type": "H0"}, "4": {"label": "*1", "atom_type": "Cs"}, "5": {"label": "*0", "atom_type": "H0"}}

>  <type>  (8) 
unop_4

>  <geom_source>  (8) 
Heuristics

$$$$

     RDKit          3D

  8  6  0  0  0  0  0  0  0  0999 V2000
    0.0000    0.5763    0.4193 N   0  0  0  0  0  0  0  0  0  0  0  0
    0.0000    0.4349   -0.7797 C   0  0  0  0  0  0  0  0  0  0  0  0
    0.0000    0.4349   -1.9392 O   0  0  0  0  0  0  0  0  0  0  0  0
   -0.0000   -0.3130    1.2304 H   0  0  0  0  0  0  0  0  0  0  0  0
   -0.0000   -1.2784    2.1110 C   0  0  0  0  0  3  0  0  0  0  0  0
   -0.0000   -0.8548    3.1141 H   0  0  0  0  0  0  0  0  0  0  0  0
   -0.8891   -1.8480    2.3773 H   0  0  0  0  0  0  0  0  0  0  0  0
    0.8891   -1.8480    2.3773 H   0  0  0  0  0  0  0  0  0  0  0  0
  1  2  2  0
  1  4  1  0
  2  3  2  0
  5  6  1  0
  5  7  1  0
  5  8  1  0
M  RAD  1   5   2
M  END
>  <reaction>  (9) 
rxn_698

>  <mol_properties>  (9) 
{"0": {"label": "*3", "atom_type": "N3t"}, "1": {"label": "*4", "atom_type": "Ct"}, "3": {"label": "*2", "atom_type": "H0"}, "4": {"label": "*1", "atom_type": "Cs"}, "5": {"label": "*0", "atom_type": "H0"}}

>  <type>  (9) 
unop_5

>  <geom_source>  (9) 
Heuristics

$$$$

     RDKit          3D

  8  6  0  0  0  0  0  0  0  0999 V2000
    0.0004    0.5670    0.4287 N   0  0  0  0  0  0  0  0  0  0  0  0
    0.0004    0.4256   -0.7704 C   0  0  0  0  0  0  0  0  0  0  0  0
    0.0004    0.4256   -1.9298 O   0  0  0  0  0  0  0  0  0  0  0  0
    0.0004   -0.3222    1.2398 H   0  0  0  0  0  0  0  0  0  0  0  0
    0.0004   -1.2877    2.1204 C   0  0  0  0  0  3  0  0  0  0  0  0
   -1.0263   -1.5558    2.3650 H   0  0  0  0  0  0  0  0  0  0  0  0
    0.6890   -2.1014    2.3427 H   0  0  0  0  0  0  0  0  0  0  0  0
    0.3155   -0.3903    2.6507 H   0  0  0  0  0  0  0  0  0  0  0  0
  1  2  2  0
  1  4  1  0
  2  3  2  0
  5  6  1  0
  5  7  1  0
  5  8  1  0
M  RAD  1   5   2
M  END
>  <reaction>  (10) 
rxn_698

>  <mol_properties>  (10) 
{"0": {"label": "*3", "atom_type": "N3t"}, "1": {"label": "*4", "atom_type": "Ct"}, "3": {"label": "*2", "atom_type": "H0"}, "4": {"label": "*1", "atom_type": "Cs"}, "5": {"label": "*0", "atom_type": "H0"}}

>  <type>  (10) 
unop_6

>  <geom_source>  (10) 
Heuristics

$$$$

     RDKit          3D

  8  6  0  0  0  0  0  0  0  0999 V2000
   -0.0020    0.5683    0.4234 N   0  0  0  0  0  0  0  0  0  0  0  0
   -0.0020    0.4269   -0.7757 C   0  0  0  0  0  0  0  0  0  0  0  0
   -0.0020    0.4269   -1.9351 O   0  0  0  0  0  0  0  0  0  0  0  0
   -0.0020   -0.3209    1.2345 H   0  0  0  0  0  0  0  0  0  0  0  0
   -0.0020   -1.2864    2.1151 C   0  0  0  0  0  3  0  0  0  0  0  0
   -0.8911   -1.2086    2.7389 H   0  0  0  0  0  0  0  0  0  0  0  0
    0.3173   -2.3110    2.2994 H   0  0  0  0  0  0  0  0  0  0  0  0
    0.6834   -0.5984    2.6077 H   0  0  0  0  0  0  0  0  0  0  0  0
  1  2  2  0
  1  4  1  0
  2  3  2  0
  5  6  1  0
  5  7  1  0
  5  8  1  0
M  RAD  1   5   2
M  END
>  <reaction>  (11) 
rxn_698

>  <mol_properties>  (11) 
{"0": {"label": "*3", "atom_type": "N3t"}, "1": {"label": "*4", "atom_type": "Ct"}, "3": {"label": "*2", "atom_type": "H0"}, "4": {"label": "*1", "atom_type": "Cs"}, "5": {"label": "*0", "atom_type": "H0"}}

>  <type>  (11) 
unop_7

>  <geom_source>  (11) 
Heuristics

$$$$

     RDKit          3D

  8  6  0  0  0  0  0  0  0  0999 V2000
   -0.0004    0.5670    0.4287 N   0  0  0  0  0  0  0  0  0  0  0  0
   -0.0004    0.4256   -0.7704 C   0  0  0  0  0  0  0  0  0  0  0  0
   -0.0004    0.4256   -1.9298 O   0  0  0  0  0  0  0  0  0  0  0  0
   -0.0004   -0.3222    1.2398 H   0  0  0  0  0  0  0  0  0  0  0  0
   -0.0004   -1.2877    2.1204 C   0  0  0  0  0  3  0  0  0  0  0  0
    1.0262   -1.5558    2.3650 H   0  0  0  0  0  0  0  0  0  0  0  0
   -0.3155   -0.3903    2.6507 H   0  0  0  0  0  0  0  0  0  0  0  0
   -0.6891   -2.1014    2.3427 H   0  0  0  0  0  0  0  0  0  0  0  0
  1  2  2  0
  1  4  1  0
  2  3  2  0
  5  6  1  0
  5  7  1  0
  5  8  1  0
M  RAD  1   5   2
M  END
>  <reaction>  (12) 
rxn_698

>  <mol_properties>  (12) 
{"0": {"label": "*3", "atom_type": "N3t"}, "1": {"label": "*4", "atom_type": "Ct"}, "3": {"label": "*2", "atom_type": "H0"}, "4": {"label": "*1", "atom_type": "Cs"}, "5": {"label": "*0", "atom_type": "H0"}}

>  <type>  (12) 
unop_8

>  <geom_source>  (12) 
Heuristics

$$$$

     RDKit          3D

  8  6  0  0  0  0  0  0  0  0999 V2000
    0.0003    0.5658    0.4380 N   0  0  0  0  0  0  0  0  0  0  0  0
    0.0003    0.4244   -0.7611 C   0  0  0  0  0  0  0  0  0  0  0  0
    0.0003    0.4244   -1.9205 O   0  0  0  0  0  0  0  0  0  0  0  0
    0.0003   -0.3235    1.2491 H   0  0  0  0  0  0  0  0  0  0  0  0
    0.0003   -1.2889    2.1297 C   0  0  0  0  0  3  0  0  0  0  0  0
   -0.5131   -2.1563    1.7174 H   0  0  0  0  0  0  0  0  0  0  0  0
    1.0268   -1.3353    2.4901 H   0  0  0  0  0  0  0  0  0  0  0  0
   -0.5287   -0.4873    2.6428 H   0  0  0  0  0  0  0  0  0  0  0  0
  1  2  2  0
  1  4  1  0
  2  3  2  0
  5  6  1  0
  5  7  1  0
  5  8  1  0
M  RAD  1   5   2
M  END
>  <reaction>  (13) 
rxn_698

>  <mol_properties>  (13) 
{"0": {"label": "*3", "atom_type": "N3t"}, "1": {"label": "*4", "atom_type": "Ct"}, "3": {"label": "*2", "atom_type": "H0"}, "4": {"label": "*1", "atom_type": "Cs"}, "5": {"label": "*0", "atom_type": "H0"}}

>  <type>  (13) 
unop_9

>  <geom_source>  (13) 
Heuristics

$$$$

     RDKit          3D

  8  6  0  0  0  0  0  0  0  0999 V2000
   -0.0009    0.5666    0.4341 N   0  0  0  0  0  0  0  0  0  0  0  0
   -0.0009    0.4252   -0.7650 C   0  0  0  0  0  0  0  0  0  0  0  0
   -0.0009    0.4252   -1.9244 O   0  0  0  0  0  0  0  0  0  0  0  0
   -0.0009   -0.3227    1.2452 H   0  0  0  0  0  0  0  0  0  0  0  0
   -0.0009   -1.2881    2.1258 C   0  0  0  0  0  3  0  0  0  0  0  0
    0.8882   -1.9022    1.9911 H   0  0  0  0  0  0  0  0  0  0  0  0
    0.0930   -0.3462    2.6642 H   0  0  0  0  0  0  0  0  0  0  0  0
   -0.9332   -1.7755    2.4068 H   0  0  0  0  0  0  0  0  0  0  0  0
  1  2  2  0
  1  4  1  0
  2  3  2  0
  5  6  1  0
  5  7  1  0
  5  8  1  0
M  RAD  1   5   2
M  END
>  <reaction>  (14) 
rxn_698

>  <mol_properties>  (14) 
{"0": {"label": "*3", "atom_type": "N3t"}, "1": {"label": "*4", "atom_type": "Ct"}, "3": {"label": "*2", "atom_type": "H0"}, "4": {"label": "*1", "atom_type": "Cs"}, "5": {"label": "*0", "atom_type": "H0"}}

>  <type>  (14) 
unop_10

>  <geom_source>  (14) 
Heuristics

$$$$

     RDKit          3D

  8  6  0  0  0  0  0  0  0  0999 V2000
   -0.0040    0.5724    0.4201 N   0  0  0  0  0  0  0  0  0  0  0  0
   -0.0040    0.4310   -0.7790 C   0  0  0  0  0  0  0  0  0  0  0  0
   -0.0040    0.4310   -1.9384 O   0  0  0  0  0  0  0  0  0  0  0  0
   -0.0040   -0.3169    1.2312 H   0  0  0  0  0  0  0  0  0  0  0  0
   -0.0040   -1.2823    2.1118 C   0  0  0  0  0  3  0  0  0  0  0  0
   -0.5174   -0.9513    3.0133 H   0  0  0  0  0  0  0  0  0  0  0  0
   -0.2420   -2.3295    2.2921 H   0  0  0  0  0  0  0  0  0  0  0  0
    0.9798   -1.0580    2.5210 H   0  0  0  0  0  0  0  0  0  0  0  0
  1  2  2  0
  1  4  1  0
  2  3  2  0
  5  6  1  0
  5  7  1  0
  5  8  1  0
M  RAD  1   5   2
M  END
>  <reaction>  (15) 
rxn_698

>  <mol_properties>  (15) 
{"0": {"label": "*3", "atom_type": "N3t"}, "1": {"label": "*4", "atom_type": "Ct"}, "3": {"label": "*2", "atom_type": "H0"}, "4": {"label": "*1", "atom_type": "Cs"}, "5": {"label": "*0", "atom_type": "H0"}}

>  <type>  (15) 
unop_11

>  <geom_source>  (15) 
Heuristics

$$$$

     RDKit          3D

  8  6  0  0  0  0  0  0  0  0999 V2000
    0.0000    0.5652    0.4393 N   0  0  0  0  0  0  0  0  0  0  0  0
    0.0000    0.4238   -0.7597 C   0  0  0  0  0  0  0  0  0  0  0  0
    0.0000    0.4238   -1.9192 O   0  0  0  0  0  0  0  0  0  0  0  0
   -0.0000   -0.3241    1.2504 H   0  0  0  0  0  0  0  0  0  0  0  0
   -0.0000   -1.2895    2.1310 C   0  0  0  0  0  3  0  0  0  0  0  0
   -0.0000   -2.2495    1.6171 H   0  0  0  0  0  0  0  0  0  0  0  0
    0.8891   -0.8486    2.5792 H   0  0  0  0  0  0  0  0  0  0  0  0
   -0.8891   -0.8486    2.5792 H   0  0  0  0  0  0  0  0  0  0  0  0
  1  2  2  0
  1  4  1  0
  2  3  2  0
  5  6  1  0
  5  7  1  0
  5  8  1  0
M  RAD  1   5   2
M  END
>  <reaction>  (16) 
rxn_698

>  <mol_properties>  (16) 
{"0": {"label": "*3", "atom_type": "N3t"}, "1": {"label": "*4", "atom_type": "Ct"}, "3": {"label": "*2", "atom_type": "H0"}, "4": {"label": "*1", "atom_type": "Cs"}, "5": {"label": "*0", "atom_type": "H0"}}

>  <type>  (16) 
unop_12

>  <geom_source>  (16) 
Heuristics

$$$$
