
     RDKit          3D

  6  5  0  0  0  0  0  0  0  0999 V2000
    0.6594    0.0438   -0.0050 C   0  0  0  0  0  0  0  0  0  0  0  0
   -0.6594   -0.0438    0.0050 C   0  0  0  0  0  0  0  0  0  0  0  0
    1.1706    0.8681   -0.4881 H   0  0  0  0  0  0  0  0  0  0  0  0
    1.2824   -0.7051    0.4696 H   0  0  0  0  0  0  0  0  0  0  0  0
   -1.2824    0.7051   -0.4696 H   0  0  0  0  0  0  0  0  0  0  0  0
   -1.1706   -0.8681    0.4881 H   0  0  0  0  0  0  0  0  0  0  0  0
  1  2  2  3
  1  3  1  0
  1  4  1  0
  2  5  1  0
  2  6  1  0
M  END
>  <reaction>  (1) 
rxn_107

>  <mol_properties>  (1) 
{"1": {"label": "donator", "atom_type": "Cd"}, "4": {"label": "d_hydrogen", "atom_type": "H0"}}

>  <type>  (1) 
r1h

$$$$

     RDKit          3D

  3  2  0  0  0  0  0  0  0  0999 V2000
    0.0002    0.4233    0.0000 N   0  0  0  0  0  2  0  0  0  0  0  0
   -0.8051   -0.2112    0.0000 H   0  0  0  0  0  0  0  0  0  0  0  0
    0.8049   -0.2121    0.0000 H   0  0  0  0  0  0  0  0  0  0  0  0
  1  2  1  0
  1  3  1  0
M  RAD  1   1   2
M  END
>  <reaction>  (2) 
rxn_107

>  <mol_properties>  (2) 
{"0": {"label": "acceptor", "atom_type": "N3s"}}

>  <type>  (2) 
r2

$$$$

     RDKit          3D

  4  3  0  0  0  0  0  0  0  0999 V2000
    0.0006   -0.0009    0.2762 N   0  0  0  0  0  0  0  0  0  0  0  0
   -0.4188    0.8439   -0.0883 H   0  0  0  0  0  0  0  0  0  0  0  0
   -0.5215   -0.7840   -0.0936 H   0  0  0  0  0  0  0  0  0  0  0  0
    0.9397   -0.0590   -0.0943 H   0  0  0  0  0  0  0  0  0  0  0  0
  1  2  1  0
  1  3  1  0
  1  4  1  0
M  END
>  <reaction>  (3) 
rxn_107

>  <mol_properties>  (3) 
{"0": {"label": "acceptor", "atom_type": "N3s"}, "3": {"label": "a_hydrogen", "atom_type": "H0"}}

>  <type>  (3) 
r2h

$$$$

     RDKit          3D

  9  7  0  0  0  0  0  0  0  0999 V2000
   -0.4479    1.1381    1.3986 N   0  0  0  0  0  0  0  0  0  0  0  0
    0.4979    0.9561    1.7372 H   0  0  0  0  0  0  0  0  0  0  0  0
   -0.3402    1.8944    0.7213 H   0  0  0  0  0  0  0  0  0  0  0  0
    0.4182   -0.8430   -1.1459 C   0  0  0  0  0  0  0  0  0  0  0  0
   -0.5660   -0.7841   -0.2794 C   0  0  0  0  0  3  0  0  0  0  0  0
    1.2272   -0.1202   -1.1457 H   0  0  0  0  0  0  0  0  0  0  0  0
    0.4633   -1.6221   -1.9026 H   0  0  0  0  0  0  0  0  0  0  0  0
   -0.6158    0.1670    0.6402 H   0  0  0  0  0  0  0  0  0  0  0  0
   -1.4144   -1.4551   -0.1991 H   0  0  0  0  0  0  0  0  0  0  0  0
  1  2  1  0
  1  3  1  0
  1  8  1  0
  4  5  2  3
  4  6  1  0
  4  7  1  0
  5  9  1  0
M  RAD  1   5   2
M  END
>  <reaction>  (4) 
rxn_107

>  <mol_properties>  (4) 
{"0": {"label": "*1", "atom_type": "N3s"}, "1": {"label": "*0", "atom_type": "H0"}, "3": {"label": "*4", "atom_type": "Cd"}, "4": {"label": "*3", "atom_type": "Cd"}, "7": {"label": "*2", "atom_type": "H0"}}

>  <type>  (4) 
ts

$$$$

     RDKit          3D

  9  7  0  0  0  0  0  0  0  0999 V2000
    0.0057    1.3719    1.2317 N   0  0  0  0  0  0  0  0  0  0  0  0
   -0.8295    1.3781    1.8019 H   0  0  0  0  0  0  0  0  0  0  0  0
    0.5937    0.7471    1.7670 H   0  0  0  0  0  0  0  0  0  0  0  0
    0.0057   -0.7684   -1.4086 C   0  0  0  0  0  0  0  0  0  0  0  0
    0.0057   -0.7684   -0.0868 C   0  0  0  0  0  3  0  0  0  0  0  0
    0.0057    0.1542   -1.9770 H   0  0  0  0  0  0  0  0  0  0  0  0
    0.0057   -1.6910   -1.9770 H   0  0  0  0  0  0  0  0  0  0  0  0
    0.0057    0.3387    0.5952 H   0  0  0  0  0  0  0  0  0  0  0  0
    0.0057   -1.6910    0.4815 H   0  0  0  0  0  0  0  0  0  0  0  0
  1  2  1  0
  1  3  1  0
  1  8  1  0
  4  5  2  3
  4  6  1  0
  4  7  1  0
  5  9  1  0
M  RAD  1   5   2
M  END
>  <reaction>  (5) 
rxn_107

>  <mol_properties>  (5) 
{"0": {"label": "*1", "atom_type": "N3s"}, "1": {"label": "*0", "atom_type": "H0"}, "3": {"label": "*4", "atom_type": "Cd"}, "4": {"label": "*3", "atom_type": "Cd"}, "7": {"label": "*2", "atom_type": "H0"}}

>  <type>  (5) 
unop_1

>  <geom_source>  (5) 
Heuristics

$$$$

     RDKit          3D

  9  7  0  0  0  0  0  0  0  0999 V2000
    0.0236    1.3567    1.2572 N   0  0  0  0  0  0  0  0  0  0  0  0
   -0.4586    2.0539    0.7058 H   0  0  0  0  0  0  0  0  0  0  0  0
   -0.5237    0.7039    1.8020 H   0  0  0  0  0  0  0  0  0  0  0  0
    0.0236   -0.7835   -1.3831 C   0  0  0  0  0  0  0  0  0  0  0  0
    0.0236   -0.7835   -0.0614 C   0  0  0  0  0  3  0  0  0  0  0  0
    0.0236    0.1391   -1.9515 H   0  0  0  0  0  0  0  0  0  0  0  0
    0.0236   -1.7061   -1.9515 H   0  0  0  0  0  0  0  0  0  0  0  0
    0.0236    0.3236    0.6207 H   0  0  0  0  0  0  0  0  0  0  0  0
    0.0236   -1.7061    0.5070 H   0  0  0  0  0  0  0  0  0  0  0  0
  1  2  1  0
  1  3  1  0
  1  8  1  0
  4  5  2  3
  4  6  1  0
  4  7  1  0
  5  9  1  0
M  RAD  1   5   2
M  END
>  <reaction>  (6) 
rxn_107

>  <mol_properties>  (6) 
{"0": {"label": "*1", "atom_type": "N3s"}, "1": {"label": "*0", "atom_type": "H0"}, "3": {"label": "*4", "atom_type": "Cd"}, "4": {"label": "*3", "atom_type": "Cd"}, "7": {"label": "*2", "atom_type": "H0"}}

>  <type>  (6) 
unop_2

>  <geom_source>  (6) 
Heuristics

$$$$

     RDKit          3D

  9  7  0  0  0  0  0  0  0  0999 V2000
   -0.0095    1.3672    1.2279 N   0  0  0  0  0  0  0  0  0  0  0  0
   -0.4917    1.1883    2.0986 H   0  0  0  0  0  0  0  0  0  0  0  0
    0.8883    1.1326    1.6298 H   0  0  0  0  0  0  0  0  0  0  0  0
   -0.0095   -0.7731   -1.4124 C   0  0  0  0  0  0  0  0  0  0  0  0
   -0.0095   -0.7731   -0.0907 C   0  0  0  0  0  3  0  0  0  0  0  0
   -0.0095    0.1495   -1.9808 H   0  0  0  0  0  0  0  0  0  0  0  0
   -0.0095   -1.6956   -1.9808 H   0  0  0  0  0  0  0  0  0  0  0  0
   -0.0095    0.3340    0.5914 H   0  0  0  0  0  0  0  0  0  0  0  0
   -0.0095   -1.6956    0.4777 H   0  0  0  0  0  0  0  0  0  0  0  0
  1  2  1  0
  1  3  1  0
  1  8  1  0
  4  5  2  3
  4  6  1  0
  4  7  1  0
  5  9  1  0
M  RAD  1   5   2
M  END
>  <reaction>  (7) 
rxn_107

>  <mol_properties>  (7) 
{"0": {"label": "*1", "atom_type": "N3s"}, "1": {"label": "*0", "atom_type": "H0"}, "3": {"label": "*4", "atom_type": "Cd"}, "4": {"label": "*3", "atom_type": "Cd"}, "7": {"label": "*2", "atom_type": "H0"}}

>  <type>  (7) 
unop_3

>  <geom_source>  (7) 
Heuristics

$$$$

     RDKit          3D

  9  7  0  0  0  0  0  0  0  0999 V2000
   -0.0001    1.3332    1.2598 N   0  0  0  0  0  0  0  0  0  0  0  0
    0.8350    1.8453    1.0089 H   0  0  0  0  0  0  0  0  0  0  0  0
   -0.8320    1.8931    1.3901 H   0  0  0  0  0  0  0  0  0  0  0  0
   -0.0001   -0.8070   -1.3805 C   0  0  0  0  0  0  0  0  0  0  0  0
   -0.0001   -0.8070   -0.0588 C   0  0  0  0  0  3  0  0  0  0  0  0
   -0.0001    0.1155   -1.9489 H   0  0  0  0  0  0  0  0  0  0  0  0
   -0.0001   -1.7296   -1.9489 H   0  0  0  0  0  0  0  0  0  0  0  0
   -0.0001    0.3001    0.6233 H   0  0  0  0  0  0  0  0  0  0  0  0
   -0.0001   -1.7296    0.5096 H   0  0  0  0  0  0  0  0  0  0  0  0
  1  2  1  0
  1  3  1  0
  1  8  1  0
  4  5  2  3
  4  6  1  0
  4  7  1  0
  5  9  1  0
M  RAD  1   5   2
M  END
>  <reaction>  (8) 
rxn_107

>  <mol_properties>  (8) 
{"0": {"label": "*1", "atom_type": "N3s"}, "1": {"label": "*0", "atom_type": "H0"}, "3": {"label": "*4", "atom_type": "Cd"}, "4": {"label": "*3", "atom_type": "Cd"}, "7": {"label": "*2", "atom_type": "H0"}}

>  <type>  (8) 
unop_4

>  <geom_source>  (8) 
Heuristics

$$$$

     RDKit          3D

  9  7  0  0  0  0  0  0  0  0999 V2000
   -0.0199    1.3521    1.2311 N   0  0  0  0  0  0  0  0  0  0  0  0
   -0.0199    1.1055    2.2117 H   0  0  0  0  0  0  0  0  0  0  0  0
    0.8504    1.8436    1.3848 H   0  0  0  0  0  0  0  0  0  0  0  0
   -0.0199   -0.7881   -1.4092 C   0  0  0  0  0  0  0  0  0  0  0  0
   -0.0199   -0.7881   -0.0875 C   0  0  0  0  0  3  0  0  0  0  0  0
   -0.0199    0.1345   -1.9776 H   0  0  0  0  0  0  0  0  0  0  0  0
   -0.0199   -1.7107   -1.9776 H   0  0  0  0  0  0  0  0  0  0  0  0
   -0.0199    0.3190    0.5946 H   0  0  0  0  0  0  0  0  0  0  0  0
   -0.0199   -1.7107    0.4809 H   0  0  0  0  0  0  0  0  0  0  0  0
  1  2  1  0
  1  3  1  0
  1  8  1  0
  4  5  2  3
  4  6  1  0
  4  7  1  0
  5  9  1  0
M  RAD  1   5   2
M  END
>  <reaction>  (9) 
rxn_107

>  <mol_properties>  (9) 
{"0": {"label": "*1", "atom_type": "N3s"}, "1": {"label": "*0", "atom_type": "H0"}, "3": {"label": "*4", "atom_type": "Cd"}, "4": {"label": "*3", "atom_type": "Cd"}, "7": {"label": "*2", "atom_type": "H0"}}

>  <type>  (9) 
unop_5

>  <geom_source>  (9) 
Heuristics

$$$$

     RDKit          3D

  9  7  0  0  0  0  0  0  0  0999 V2000
   -0.0088    1.3328    1.2525 N   0  0  0  0  0  0  0  0  0  0  0  0
    0.9555    1.5920    1.4121 H   0  0  0  0  0  0  0  0  0  0  0  0
   -0.5873    2.1614    1.2910 H   0  0  0  0  0  0  0  0  0  0  0  0
   -0.0088   -0.8074   -1.3878 C   0  0  0  0  0  0  0  0  0  0  0  0
   -0.0088   -0.8074   -0.0661 C   0  0  0  0  0  3  0  0  0  0  0  0
   -0.0088    0.1152   -1.9562 H   0  0  0  0  0  0  0  0  0  0  0  0
   -0.0088   -1.7300   -1.9562 H   0  0  0  0  0  0  0  0  0  0  0  0
   -0.0088    0.2997    0.6160 H   0  0  0  0  0  0  0  0  0  0  0  0
   -0.0088   -1.7300    0.5023 H   0  0  0  0  0  0  0  0  0  0  0  0
  1  2  1  0
  1  3  1  0
  1  8  1  0
  4  5  2  3
  4  6  1  0
  4  7  1  0
  5  9  1  0
M  RAD  1   5   2
M  END
>  <reaction>  (10) 
rxn_107

>  <mol_properties>  (10) 
{"0": {"label": "*1", "atom_type": "N3s"}, "1": {"label": "*0", "atom_type": "H0"}, "3": {"label": "*4", "atom_type": "Cd"}, "4": {"label": "*3", "atom_type": "Cd"}, "7": {"label": "*2", "atom_type": "H0"}}

>  <type>  (10) 
unop_6

>  <geom_source>  (10) 
Heuristics

$$$$

     RDKit          3D

  9  7  0  0  0  0  0  0  0  0999 V2000
   -0.0140    1.3350    1.2443 N   0  0  0  0  0  0  0  0  0  0  0  0
    0.8211    1.3413    1.8145 H   0  0  0  0  0  0  0  0  0  0  0  0
   -0.2382    2.3209    1.2290 H   0  0  0  0  0  0  0  0  0  0  0  0
   -0.0140   -0.8052   -1.3960 C   0  0  0  0  0  0  0  0  0  0  0  0
   -0.0140   -0.8052   -0.0742 C   0  0  0  0  0  3  0  0  0  0  0  0
   -0.0140    0.1174   -1.9644 H   0  0  0  0  0  0  0  0  0  0  0  0
   -0.0140   -1.7278   -1.9644 H   0  0  0  0  0  0  0  0  0  0  0  0
   -0.0140    0.3019    0.6078 H   0  0  0  0  0  0  0  0  0  0  0  0
   -0.0140   -1.7278    0.4941 H   0  0  0  0  0  0  0  0  0  0  0  0
  1  2  1  0
  1  3  1  0
  1  8  1  0
  4  5  2  3
  4  6  1  0
  4  7  1  0
  5  9  1  0
M  RAD  1   5   2
M  END
>  <reaction>  (11) 
rxn_107

>  <mol_properties>  (11) 
{"0": {"label": "*1", "atom_type": "N3s"}, "1": {"label": "*0", "atom_type": "H0"}, "3": {"label": "*4", "atom_type": "Cd"}, "4": {"label": "*3", "atom_type": "Cd"}, "7": {"label": "*2", "atom_type": "H0"}}

>  <type>  (11) 
unop_7

>  <geom_source>  (11) 
Heuristics

$$$$

     RDKit          3D

  9  7  0  0  0  0  0  0  0  0999 V2000
    0.0167    1.3698    1.2398 N   0  0  0  0  0  0  0  0  0  0  0  0
   -0.9476    1.6290    1.3995 H   0  0  0  0  0  0  0  0  0  0  0  0
    0.2525    0.5835    1.8303 H   0  0  0  0  0  0  0  0  0  0  0  0
    0.0167   -0.7705   -1.4004 C   0  0  0  0  0  0  0  0  0  0  0  0
    0.0167   -0.7705   -0.0787 C   0  0  0  0  0  3  0  0  0  0  0  0
    0.0167    0.1521   -1.9688 H   0  0  0  0  0  0  0  0  0  0  0  0
    0.0167   -1.6930   -1.9688 H   0  0  0  0  0  0  0  0  0  0  0  0
    0.0167    0.3366    0.6034 H   0  0  0  0  0  0  0  0  0  0  0  0
    0.0167   -1.6930    0.4897 H   0  0  0  0  0  0  0  0  0  0  0  0
  1  2  1  0
  1  3  1  0
  1  8  1  0
  4  5  2  3
  4  6  1  0
  4  7  1  0
  5  9  1  0
M  RAD  1   5   2
M  END
>  <reaction>  (12) 
rxn_107

>  <mol_properties>  (12) 
{"0": {"label": "*1", "atom_type": "N3s"}, "1": {"label": "*0", "atom_type": "H0"}, "3": {"label": "*4", "atom_type": "Cd"}, "4": {"label": "*3", "atom_type": "Cd"}, "7": {"label": "*2", "atom_type": "H0"}}

>  <type>  (12) 
unop_8

>  <geom_source>  (12) 
Heuristics

$$$$

     RDKit          3D

  9  7  0  0  0  0  0  0  0  0999 V2000
    0.0110    1.3379    1.2636 N   0  0  0  0  0  0  0  0  0  0  0  0
    0.4931    2.0351    0.7122 H   0  0  0  0  0  0  0  0  0  0  0  0
   -0.9505    1.5064    1.5277 H   0  0  0  0  0  0  0  0  0  0  0  0
    0.0110   -0.8023   -1.3767 C   0  0  0  0  0  0  0  0  0  0  0  0
    0.0110   -0.8023   -0.0550 C   0  0  0  0  0  3  0  0  0  0  0  0
    0.0110    0.1203   -1.9451 H   0  0  0  0  0  0  0  0  0  0  0  0
    0.0110   -1.7249   -1.9451 H   0  0  0  0  0  0  0  0  0  0  0  0
    0.0110    0.3048    0.6271 H   0  0  0  0  0  0  0  0  0  0  0  0
    0.0110   -1.7249    0.5134 H   0  0  0  0  0  0  0  0  0  0  0  0
  1  2  1  0
  1  3  1  0
  1  8  1  0
  4  5  2  3
  4  6  1  0
  4  7  1  0
  5  9  1  0
M  RAD  1   5   2
M  END
>  <reaction>  (13) 
rxn_107

>  <mol_properties>  (13) 
{"0": {"label": "*1", "atom_type": "N3s"}, "1": {"label": "*0", "atom_type": "H0"}, "3": {"label": "*4", "atom_type": "Cd"}, "4": {"label": "*3", "atom_type": "Cd"}, "7": {"label": "*2", "atom_type": "H0"}}

>  <type>  (13) 
unop_9

>  <geom_source>  (13) 
Heuristics

$$$$

     RDKit          3D

  9  7  0  0  0  0  0  0  0  0999 V2000
    0.0224    1.3644    1.2491 N   0  0  0  0  0  0  0  0  0  0  0  0
   -0.8127    1.8765    0.9983 H   0  0  0  0  0  0  0  0  0  0  0  0
   -0.1218    0.5606    1.8456 H   0  0  0  0  0  0  0  0  0  0  0  0
    0.0224   -0.7758   -1.3912 C   0  0  0  0  0  0  0  0  0  0  0  0
    0.0224   -0.7758   -0.0695 C   0  0  0  0  0  3  0  0  0  0  0  0
    0.0224    0.1467   -1.9596 H   0  0  0  0  0  0  0  0  0  0  0  0
    0.0224   -1.6984   -1.9596 H   0  0  0  0  0  0  0  0  0  0  0  0
    0.0224    0.3313    0.6126 H   0  0  0  0  0  0  0  0  0  0  0  0
    0.0224   -1.6984    0.4989 H   0  0  0  0  0  0  0  0  0  0  0  0
  1  2  1  0
  1  3  1  0
  1  8  1  0
  4  5  2  3
  4  6  1  0
  4  7  1  0
  5  9  1  0
M  RAD  1   5   2
M  END
>  <reaction>  (14) 
rxn_107

>  <mol_properties>  (14) 
{"0": {"label": "*1", "atom_type": "N3s"}, "1": {"label": "*0", "atom_type": "H0"}, "3": {"label": "*4", "atom_type": "Cd"}, "4": {"label": "*3", "atom_type": "Cd"}, "7": {"label": "*2", "atom_type": "H0"}}

>  <type>  (14) 
unop_10

>  <geom_source>  (14) 
Heuristics

$$$$

     RDKit          3D

  9  7  0  0  0  0  0  0  0  0999 V2000
   -0.0177    1.3397    1.2373 N   0  0  0  0  0  0  0  0  0  0  0  0
    0.4645    1.1608    2.1080 H   0  0  0  0  0  0  0  0  0  0  0  0
    0.2734    2.3080    1.2280 H   0  0  0  0  0  0  0  0  0  0  0  0
   -0.0177   -0.8006   -1.4030 C   0  0  0  0  0  0  0  0  0  0  0  0
   -0.0177   -0.8006   -0.0813 C   0  0  0  0  0  3  0  0  0  0  0  0
   -0.0177    0.1220   -1.9714 H   0  0  0  0  0  0  0  0  0  0  0  0
   -0.0177   -1.7232   -1.9714 H   0  0  0  0  0  0  0  0  0  0  0  0
   -0.0177    0.3065    0.6008 H   0  0  0  0  0  0  0  0  0  0  0  0
   -0.0177   -1.7232    0.4871 H   0  0  0  0  0  0  0  0  0  0  0  0
  1  2  1  0
  1  3  1  0
  1  8  1  0
  4  5  2  3
  4  6  1  0
  4  7  1  0
  5  9  1  0
M  RAD  1   5   2
M  END
>  <reaction>  (15) 
rxn_107

>  <mol_properties>  (15) 
{"0": {"label": "*1", "atom_type": "N3s"}, "1": {"label": "*0", "atom_type": "H0"}, "3": {"label": "*4", "atom_type": "Cd"}, "4": {"label": "*3", "atom_type": "Cd"}, "7": {"label": "*2", "atom_type": "H0"}}

>  <type>  (15) 
unop_11

>  <geom_source>  (15) 
Heuristics

$$$$

     RDKit          3D

  9  7  0  0  0  0  0  0  0  0999 V2000
    0.0199    1.3470    1.2625 N   0  0  0  0  0  0  0  0  0  0  0  0
    0.0199    2.1119    0.6011 H   0  0  0  0  0  0  0  0  0  0  0  0
   -0.8504    1.0524    1.6849 H   0  0  0  0  0  0  0  0  0  0  0  0
    0.0199   -0.7933   -1.3778 C   0  0  0  0  0  0  0  0  0  0  0  0
    0.0199   -0.7933   -0.0561 C   0  0  0  0  0  3  0  0  0  0  0  0
    0.0199    0.1293   -1.9462 H   0  0  0  0  0  0  0  0  0  0  0  0
    0.0199   -1.7159   -1.9462 H   0  0  0  0  0  0  0  0  0  0  0  0
    0.0199    0.3138    0.6260 H   0  0  0  0  0  0  0  0  0  0  0  0
    0.0199   -1.7159    0.5123 H   0  0  0  0  0  0  0  0  0  0  0  0
  1  2  1  0
  1  3  1  0
  1  8  1  0
  4  5  2  3
  4  6  1  0
  4  7  1  0
  5  9  1  0
M  RAD  1   5   2
M  END
>  <reaction>  (16) 
rxn_107

>  <mol_properties>  (16) 
{"0": {"label": "*1", "atom_type": "N3s"}, "1": {"label": "*0", "atom_type": "H0"}, "3": {"label": "*4", "atom_type": "Cd"}, "4": {"label": "*3", "atom_type": "Cd"}, "7": {"label": "*2", "atom_type": "H0"}}

>  <type>  (16) 
unop_12

>  <geom_source>  (16) 
Heuristics

$$$$
