
     RDKit          3D

  7  6  0  0  0  0  0  0  0  0999 V2000
   -0.6468   -0.0443   -0.0231 C   0  0  0  0  0  0  0  0  0  0  0  0
    0.8470    0.0371    0.0688 C   0  0  0  0  0  0  0  0  0  0  0  0
    1.4866   -0.2280    1.0479 O   0  0  0  0  0  0  0  0  0  0  0  0
   -1.0466    0.9363   -0.2943 H   0  0  0  0  0  0  0  0  0  0  0  0
   -0.9229   -0.7318   -0.8269 H   0  0  0  0  0  0  0  0  0  0  0  0
   -1.0759   -0.3772    0.9198 H   0  0  0  0  0  0  0  0  0  0  0  0
    1.3584    0.3712   -0.8589 H   0  0  0  0  0  0  0  0  0  0  0  0
  1  2  1  0
  1  4  1  0
  1  5  1  0
  1  6  1  0
  2  3  2  0
  2  7  1  0
M  END
>  <reaction>  (1) 
rxn_372

>  <mol_properties>  (1) 
{"1": {"label": "donator", "atom_type": "CO"}, "6": {"label": "d_hydrogen", "atom_type": "H0"}}

>  <type>  (1) 
r1h

$$$$

     RDKit          3D

  1  0  0  0  0  0  0  0  0  0999 V2000
    0.0000    0.0000    0.0000 H   0  0  0  0  0 15  0  0  0  0  0  0
M  END
>  <reaction>  (2) 
rxn_372

>  <mol_properties>  (2) 
{"0": {"label": "acceptor", "atom_type": "H0"}}

>  <type>  (2) 
r2

$$$$

     RDKit          3D

  2  1  0  0  0  0  0  0  0  0999 V2000
    0.0000    0.0000    0.3721 H   0  0  0  0  0  0  0  0  0  0  0  0
    0.0000    0.0000   -0.3721 H   0  0  0  0  0  0  0  0  0  0  0  0
  1  2  1  0
M  END
>  <reaction>  (3) 
rxn_372

>  <mol_properties>  (3) 
{"0": {"label": "acceptor", "atom_type": "H0"}, "1": {"label": "a_hydrogen", "atom_type": "H0"}}

>  <type>  (3) 
r2h

$$$$

     RDKit          3D

  8  6  0  0  0  0  0  0  0  0999 V2000
   -0.0035   -2.4554    1.1677 H   0  0  0  0  0 15  0  0  0  0  0  0
    0.0058   -0.2758   -1.2401 C   0  0  0  0  0  0  0  0  0  0  0  0
   -0.0067   -0.2370    0.2567 C   0  0  0  0  0  0  0  0  0  0  0  0
   -0.0170    0.7255    0.9509 O   0  0  0  0  0  0  0  0  0  0  0  0
    0.8891   -0.8275   -1.5694 H   0  0  0  0  0  0  0  0  0  0  0  0
   -0.8667   -0.8359   -1.5838 H   0  0  0  0  0  0  0  0  0  0  0  0
    0.0044    0.7290   -1.6585 H   0  0  0  0  0  0  0  0  0  0  0  0
   -0.0054   -1.3392    0.7495 H   0  0  0  0  0  0  0  0  0  0  0  0
  2  3  1  0
  2  5  1  0
  2  6  1  0
  2  7  1  0
  3  4  2  0
  3  8  1  0
M  END
>  <reaction>  (4) 
rxn_372

>  <mol_properties>  (4) 
{"0": {"label": "*1", "atom_type": "H0"}, "2": {"label": "*3", "atom_type": "CO"}, "3": {"label": "*4", "atom_type": "O2d"}, "7": {"label": "*2", "atom_type": "H0"}}

>  <type>  (4) 
ts

$$$$

     RDKit          3D

  8  6  0  0  0  0  0  0  0  0999 V2000
    0.0000   -2.2924    1.1922 H   0  0  0  0  0 15  0  0  0  0  0  0
   -0.0000   -0.2764   -1.2503 C   0  0  0  0  0  0  0  0  0  0  0  0
   -0.0000   -0.2764    0.2485 C   0  0  0  0  0  0  0  0  0  0  0  0
   -0.0000    0.7092    0.9316 O   0  0  0  0  0  0  0  0  0  0  0  0
    0.8777   -0.8184   -1.6121 H   0  0  0  0  0  0  0  0  0  0  0  0
   -0.8777   -0.8184   -1.6121 H   0  0  0  0  0  0  0  0  0  0  0  0
   -0.0000    0.7401   -1.6382 H   0  0  0  0  0  0  0  0  0  0  0  0
    0.0000   -1.4836    0.8136 H   0  0  0  0  0  0  0  0  0  0  0  0
  2  3  1  0
  2  5  1  0
  2  6  1  0
  2  7  1  0
  3  4  2  0
  3  8  1  0
M  END
>  <reaction>  (5) 
rxn_372

>  <mol_properties>  (5) 
{"0": {"label": "*1", "atom_type": "H0"}, "2": {"label": "*3", "atom_type": "CO"}, "3": {"label": "*4", "atom_type": "O2d"}, "7": {"label": "*2", "atom_type": "H0"}}

>  <type>  (5) 
unop_1

>  <geom_source>  (5) 
Heuristics

$$$$

     RDKit          3D

  8  6  0  0  0  0  0  0  0  0999 V2000
    0.4219    1.8047    0.1061 O   0  0  0  0  0  0  0  0  0  0  0  0
   -0.7964   -0.2063   -0.0526 C   0  0  0  0  0  0  0  0  0  0  0  0
    0.4636    0.5908   -0.0119 C   0  0  0  0  0  0  0  0  0  0  0  0
   -1.3655   -0.0590    0.8892 H   0  0  0  0  0  0  0  0  0  0  0  0
   -1.4173    0.1147   -0.9151 H   0  0  0  0  0  0  0  0  0  0  0  0
   -0.5464   -1.2814   -0.1632 H   0  0  0  0  0  0  0  0  0  0  0  0
    1.2826    0.0700    0.1616 H   0  0  0  0  0  0  0  0  0  0  0  0
    1.9575   -1.0334   -0.0141 H   0  0  0  0  0 15  0  0  0  0  0  0
  1  3  2  0
  2  3  1  0
  2  4  1  0
  2  5  1  0
  2  6  1  0
  3  7  1  0
M  END
>  <reaction>  (6) 
rxn_372

>  <mol_properties>  (6) 
{"0": {"label": "*1", "atom_type": "H0"}, "2": {"label": "*3", "atom_type": "CO"}, "3": {"label": "*4", "atom_type": "O2d"}, "7": {"label": "*2", "atom_type": "H0"}}

>  <type>  (6) 
unop_2

>  <geom_source>  (6) 
AutoTST

$$$$

     RDKit          3D

  8  6  0  0  0  0  0  0  0  0999 V2000
    1.1396    1.4330    0.0028 O   0  0  0  0  0  0  0  0  0  0  0  0
   -0.8525    0.1873   -0.1680 C   0  0  0  0  0  0  0  0  0  0  0  0
    0.6100    0.3370    0.0884 C   0  0  0  0  0  0  0  0  0  0  0  0
   -1.1445   -0.8758   -0.0422 H   0  0  0  0  0  0  0  0  0  0  0  0
   -1.4256    0.8094    0.5510 H   0  0  0  0  0  0  0  0  0  0  0  0
   -1.0871    0.5087   -1.2043 H   0  0  0  0  0  0  0  0  0  0  0  0
    1.3292   -0.7099    0.4065 H   0  0  0  0  0  0  0  0  0  0  0  0
    1.4307   -1.6896    0.3659 H   0  0  0  0  0 15  0  0  0  0  0  0
  1  3  2  0
  2  3  1  0
  2  4  1  0
  2  5  1  0
  2  6  1  0
  3  7  1  0
M  END
>  <reaction>  (7) 
rxn_372

>  <mol_properties>  (7) 
{"0": {"label": "*1", "atom_type": "H0"}, "2": {"label": "*3", "atom_type": "CO"}, "3": {"label": "*4", "atom_type": "O2d"}, "7": {"label": "*2", "atom_type": "H0"}}

>  <type>  (7) 
unop_3

>  <geom_source>  (7) 
gaussian_log

$$$$
