
     RDKit          3D

  5  4  0  0  0  0  0  0  0  0999 V2000
    0.0000    0.0000    0.0000 C   0  0  0  0  0  0  0  0  0  0  0  0
   -0.6486   -0.7720   -0.4113 H   0  0  0  0  0  0  0  0  0  0  0  0
   -0.3482    0.9787   -0.3267 H   0  0  0  0  0  0  0  0  0  0  0  0
   -0.0223   -0.0487    1.0876 H   0  0  0  0  0  0  0  0  0  0  0  0
    1.0191   -0.1580   -0.3496 H   0  0  0  0  0  0  0  0  0  0  0  0
  1  2  1  0
  1  3  1  0
  1  4  1  0
  1  5  1  0
M  END
>  <reaction>  (1) 
rxn_321

>  <mol_properties>  (1) 
{"0": {"label": "donator", "atom_type": "Cs"}, "1": {"label": "d_hydrogen", "atom_type": "H0"}}

>  <type>  (1) 
r1h

$$$$

     RDKit          3D

  5  4  0  0  0  0  0  0  0  0999 V2000
   -0.0419    0.0056   -0.0340 C   0  0  0  0  0  0  0  0  0  0  0  0
    1.3118    0.0049   -0.1263 O   0  0  0  0  0  1  0  0  0  0  0  0
   -0.2615   -0.1535    1.0387 H   0  0  0  0  0  0  0  0  0  0  0  0
   -0.4946    0.9694   -0.3042 H   0  0  0  0  0  0  0  0  0  0  0  0
   -0.5138   -0.8264   -0.5743 H   0  0  0  0  0  0  0  0  0  0  0  0
  1  2  1  0
  1  3  1  0
  1  4  1  0
  1  5  1  0
M  RAD  1   2   2
M  END
>  <reaction>  (2) 
rxn_321

>  <mol_properties>  (2) 
{"1": {"label": "acceptor", "atom_type": "O2s"}}

>  <type>  (2) 
r2

$$$$

     RDKit          3D

  6  5  0  0  0  0  0  0  0  0999 V2000
   -0.3669    0.0060    0.0609 C   0  0  0  0  0  0  0  0  0  0  0  0
    0.9818   -0.0507    0.4695 O   0  0  0  0  0  0  0  0  0  0  0  0
   -0.6066    0.9462   -0.4488 H   0  0  0  0  0  0  0  0  0  0  0  0
   -0.5221   -0.8115   -0.6420 H   0  0  0  0  0  0  0  0  0  0  0  0
   -1.0602   -0.1268    0.8992 H   0  0  0  0  0  0  0  0  0  0  0  0
    1.1451    0.6595    1.0897 H   0  0  0  0  0  0  0  0  0  0  0  0
  1  2  1  0
  1  3  1  0
  1  4  1  0
  1  5  1  0
  2  6  1  0
M  END
>  <reaction>  (3) 
rxn_321

>  <mol_properties>  (3) 
{"1": {"label": "acceptor", "atom_type": "O2s"}, "5": {"label": "a_hydrogen", "atom_type": "H0"}}

>  <type>  (3) 
r2h

$$$$

     RDKit          3D

 10  8  0  0  0  0  0  0  0  0999 V2000
    0.2622    1.0036    0.7705 C   0  0  0  0  0  0  0  0  0  0  0  0
    0.0648   -0.2840    1.2689 O   0  0  0  0  0  0  0  0  0  0  0  0
    0.3287    1.6602    1.6438 H   0  0  0  0  0  0  0  0  0  0  0  0
   -0.5733    1.3520    0.1516 H   0  0  0  0  0  0  0  0  0  0  0  0
    1.1969    1.1014    0.2053 H   0  0  0  0  0  0  0  0  0  0  0  0
   -0.0730   -1.6960   -0.7753 C   0  0  0  0  0  3  0  0  0  0  0  0
   -0.0122   -1.0310    0.3231 H   0  0  0  0  0  0  0  0  0  0  0  0
   -0.9170   -1.2781   -1.3163 H   0  0  0  0  0  0  0  0  0  0  0  0
    0.8843   -1.5332   -1.2616 H   0  0  0  0  0  0  0  0  0  0  0  0
   -0.2279   -2.7186   -0.4438 H   0  0  0  0  0  0  0  0  0  0  0  0
  1  2  1  0
  1  3  1  0
  1  4  1  0
  1  5  1  0
  2  7  1  0
  6  8  1  0
  6  9  1  0
  6 10  1  0
M  RAD  1   6   2
M  END
>  <reaction>  (4) 
rxn_321

>  <mol_properties>  (4) 
{"0": {"label": "*0", "atom_type": "Cs"}, "1": {"label": "*1", "atom_type": "O2s"}, "5": {"label": "*3", "atom_type": "Cs"}, "6": {"label": "*2", "atom_type": "H0"}, "7": {"label": "*4", "atom_type": "H0"}}

>  <type>  (4) 
ts

$$$$

     RDKit          3D

 10  8  0  0  0  0  0  0  0  0999 V2000
   -0.7680    0.9191    0.7940 C   0  0  0  0  0  0  0  0  0  0  0  0
    0.3887    0.7148    0.0134 O   0  0  0  0  0  0  0  0  0  0  0  0
   -0.4628    1.4803    1.6762 H   0  0  0  0  0  0  0  0  0  0  0  0
   -1.2161   -0.0243    1.1263 H   0  0  0  0  0  0  0  0  0  0  0  0
   -1.5289    1.5025    0.2632 H   0  0  0  0  0  0  0  0  0  0  0  0
    0.3887   -1.6000   -0.8050 C   0  0  0  0  0  3  0  0  0  0  0  0
    0.3887   -0.3680   -0.3694 H   0  0  0  0  0  0  0  0  0  0  0  0
    1.2778   -2.1133   -0.4420 H   0  0  0  0  0  0  0  0  0  0  0  0
   -0.5004   -2.1133   -0.4420 H   0  0  0  0  0  0  0  0  0  0  0  0
    0.3887   -1.6000   -1.8939 H   0  0  0  0  0  0  0  0  0  0  0  0
  1  2  1  0
  1  3  1  0
  1  4  1  0
  1  5  1  0
  2  7  1  0
  6  8  1  0
  6  9  1  0
  6 10  1  0
M  RAD  1   6   2
M  END
>  <reaction>  (5) 
rxn_321

>  <mol_properties>  (5) 
{"0": {"label": "*0", "atom_type": "Cs"}, "1": {"label": "*1", "atom_type": "O2s"}, "5": {"label": "*3", "atom_type": "Cs"}, "6": {"label": "*2", "atom_type": "H0"}, "7": {"label": "*4", "atom_type": "H0"}}

>  <type>  (5) 
unop_1

>  <geom_source>  (5) 
Heuristics

$$$$

     RDKit          3D

 10  8  0  0  0  0  0  0  0  0999 V2000
   -0.4427    1.3221   -0.3470 C   0  0  0  0  0  0  0  0  0  0  0  0
    0.2251    0.5096    0.5927 O   0  0  0  0  0  0  0  0  0  0  0  0
   -0.7470    2.2289    0.1742 H   0  0  0  0  0  0  0  0  0  0  0  0
   -1.3414    0.8397   -0.7480 H   0  0  0  0  0  0  0  0  0  0  0  0
    0.2058    1.6087   -1.1827 H   0  0  0  0  0  0  0  0  0  0  0  0
    0.2251   -1.8051   -0.2257 C   0  0  0  0  0  3  0  0  0  0  0  0
    0.2251   -0.5731    0.2099 H   0  0  0  0  0  0  0  0  0  0  0  0
    1.1142   -2.3184    0.1373 H   0  0  0  0  0  0  0  0  0  0  0  0
   -0.6640   -2.3184    0.1373 H   0  0  0  0  0  0  0  0  0  0  0  0
    0.2251   -1.8051   -1.3146 H   0  0  0  0  0  0  0  0  0  0  0  0
  1  2  1  0
  1  3  1  0
  1  4  1  0
  1  5  1  0
  2  7  1  0
  6  8  1  0
  6  9  1  0
  6 10  1  0
M  RAD  1   6   2
M  END
>  <reaction>  (6) 
rxn_321

>  <mol_properties>  (6) 
{"0": {"label": "*0", "atom_type": "Cs"}, "1": {"label": "*1", "atom_type": "O2s"}, "5": {"label": "*3", "atom_type": "Cs"}, "6": {"label": "*2", "atom_type": "H0"}, "7": {"label": "*4", "atom_type": "H0"}}

>  <type>  (6) 
unop_2

>  <geom_source>  (6) 
Heuristics

$$$$

     RDKit          3D

 10  8  0  0  0  0  0  0  0  0999 V2000
   -0.4438    0.8106    1.1003 C   0  0  0  0  0  0  0  0  0  0  0  0
    0.2240    0.7693   -0.1412 O   0  0  0  0  0  0  0  0  0  0  0  0
    0.0212    1.6020    1.6867 H   0  0  0  0  0  0  0  0  0  0  0  0
   -0.3462   -0.1294    1.6553 H   0  0  0  0  0  0  0  0  0  0  0  0
   -1.5086    1.0459    0.9909 H   0  0  0  0  0  0  0  0  0  0  0  0
    0.2240   -1.5455   -0.9596 C   0  0  0  0  0  3  0  0  0  0  0  0
    0.2240   -0.3135   -0.5241 H   0  0  0  0  0  0  0  0  0  0  0  0
    1.1131   -2.0588   -0.5967 H   0  0  0  0  0  0  0  0  0  0  0  0
   -0.6651   -2.0588   -0.5967 H   0  0  0  0  0  0  0  0  0  0  0  0
    0.2240   -1.5455   -2.0486 H   0  0  0  0  0  0  0  0  0  0  0  0
  1  2  1  0
  1  3  1  0
  1  4  1  0
  1  5  1  0
  2  7  1  0
  6  8  1  0
  6  9  1  0
  6 10  1  0
M  RAD  1   6   2
M  END
>  <reaction>  (7) 
rxn_321

>  <mol_properties>  (7) 
{"0": {"label": "*0", "atom_type": "Cs"}, "1": {"label": "*1", "atom_type": "O2s"}, "5": {"label": "*3", "atom_type": "Cs"}, "6": {"label": "*2", "atom_type": "H0"}, "7": {"label": "*4", "atom_type": "H0"}}

>  <type>  (7) 
unop_3

>  <geom_source>  (7) 
Heuristics

$$$$

     RDKit          3D

 10  8  0  0  0  0  0  0  0  0999 V2000
    0.7671    1.2143   -0.0415 C   0  0  0  0  0  0  0  0  0  0  0  0
   -0.3896    0.5648    0.4372 O   0  0  0  0  0  0  0  0  0  0  0  0
    1.0878    1.9081    0.7345 H   0  0  0  0  0  0  0  0  0  0  0  0
    0.5727    1.7880   -0.9549 H   0  0  0  0  0  0  0  0  0  0  0  0
    1.5870    0.5129   -0.2340 H   0  0  0  0  0  0  0  0  0  0  0  0
   -0.3896   -1.7500   -0.3812 C   0  0  0  0  0  3  0  0  0  0  0  0
   -0.3896   -0.5180    0.0544 H   0  0  0  0  0  0  0  0  0  0  0  0
    0.4995   -2.2633   -0.0182 H   0  0  0  0  0  0  0  0  0  0  0  0
   -1.2787   -2.2633   -0.0182 H   0  0  0  0  0  0  0  0  0  0  0  0
   -0.3896   -1.7500   -1.4701 H   0  0  0  0  0  0  0  0  0  0  0  0
  1  2  1  0
  1  3  1  0
  1  4  1  0
  1  5  1  0
  2  7  1  0
  6  8  1  0
  6  9  1  0
  6 10  1  0
M  RAD  1   6   2
M  END
>  <reaction>  (8) 
rxn_321

>  <mol_properties>  (8) 
{"0": {"label": "*0", "atom_type": "Cs"}, "1": {"label": "*1", "atom_type": "O2s"}, "5": {"label": "*3", "atom_type": "Cs"}, "6": {"label": "*2", "atom_type": "H0"}, "7": {"label": "*4", "atom_type": "H0"}}

>  <type>  (8) 
unop_4

>  <geom_source>  (8) 
Heuristics

$$$$

     RDKit          3D

 10  8  0  0  0  0  0  0  0  0999 V2000
   -0.0000    0.7706    1.2126 C   0  0  0  0  0  0  0  0  0  0  0  0
   -0.0000    0.7890   -0.1976 O   0  0  0  0  0  0  0  0  0  0  0  0
    0.0000    1.8078    1.5453 H   0  0  0  0  0  0  0  0  0  0  0  0
    0.8908    0.2799    1.6210 H   0  0  0  0  0  0  0  0  0  0  0  0
   -0.8908    0.2799    1.6210 H   0  0  0  0  0  0  0  0  0  0  0  0
   -0.0000   -1.5258   -1.0160 C   0  0  0  0  0  3  0  0  0  0  0  0
   -0.0000   -0.2938   -0.5804 H   0  0  0  0  0  0  0  0  0  0  0  0
    0.8891   -2.0391   -0.6530 H   0  0  0  0  0  0  0  0  0  0  0  0
   -0.8891   -2.0391   -0.6530 H   0  0  0  0  0  0  0  0  0  0  0  0
   -0.0000   -1.5258   -2.1050 H   0  0  0  0  0  0  0  0  0  0  0  0
  1  2  1  0
  1  3  1  0
  1  4  1  0
  1  5  1  0
  2  7  1  0
  6  8  1  0
  6  9  1  0
  6 10  1  0
M  RAD  1   6   2
M  END
>  <reaction>  (9) 
rxn_321

>  <mol_properties>  (9) 
{"0": {"label": "*0", "atom_type": "Cs"}, "1": {"label": "*1", "atom_type": "O2s"}, "5": {"label": "*3", "atom_type": "Cs"}, "6": {"label": "*2", "atom_type": "H0"}, "7": {"label": "*4", "atom_type": "H0"}}

>  <type>  (9) 
unop_5

>  <geom_source>  (9) 
Heuristics

$$$$

     RDKit          3D

 10  8  0  0  0  0  0  0  0  0999 V2000
    0.8863    1.0668    0.3761 C   0  0  0  0  0  0  0  0  0  0  0  0
   -0.4495    0.6399    0.2251 O   0  0  0  0  0  0  0  0  0  0  0  0
    0.9424    1.6130    1.3168 H   0  0  0  0  0  0  0  0  0  0  0  0
    1.2002    1.7397   -0.4300 H   0  0  0  0  0  0  0  0  0  0  0  0
    1.5874    0.2259    0.4259 H   0  0  0  0  0  0  0  0  0  0  0  0
   -0.4495   -1.6749   -0.5932 C   0  0  0  0  0  3  0  0  0  0  0  0
   -0.4495   -0.4429   -0.1577 H   0  0  0  0  0  0  0  0  0  0  0  0
    0.4397   -2.1882   -0.2303 H   0  0  0  0  0  0  0  0  0  0  0  0
   -1.3386   -2.1882   -0.2303 H   0  0  0  0  0  0  0  0  0  0  0  0
   -0.4495   -1.6749   -1.6822 H   0  0  0  0  0  0  0  0  0  0  0  0
  1  2  1  0
  1  3  1  0
  1  4  1  0
  1  5  1  0
  2  7  1  0
  6  8  1  0
  6  9  1  0
  6 10  1  0
M  RAD  1   6   2
M  END
>  <reaction>  (10) 
rxn_321

>  <mol_properties>  (10) 
{"0": {"label": "*0", "atom_type": "Cs"}, "1": {"label": "*1", "atom_type": "O2s"}, "5": {"label": "*3", "atom_type": "Cs"}, "6": {"label": "*2", "atom_type": "H0"}, "7": {"label": "*4", "atom_type": "H0"}}

>  <type>  (10) 
unop_6

>  <geom_source>  (10) 
Heuristics

$$$$

     RDKit          3D

 10  8  0  0  0  0  0  0  0  0999 V2000
    0.7680    0.9191    0.7940 C   0  0  0  0  0  0  0  0  0  0  0  0
   -0.3887    0.7148    0.0134 O   0  0  0  0  0  0  0  0  0  0  0  0
    0.4628    1.4803    1.6761 H   0  0  0  0  0  0  0  0  0  0  0  0
    1.5289    1.5025    0.2631 H   0  0  0  0  0  0  0  0  0  0  0  0
    1.2161   -0.0243    1.1263 H   0  0  0  0  0  0  0  0  0  0  0  0
   -0.3887   -1.6000   -0.8050 C   0  0  0  0  0  3  0  0  0  0  0  0
   -0.3887   -0.3680   -0.3694 H   0  0  0  0  0  0  0  0  0  0  0  0
    0.5004   -2.1133   -0.4420 H   0  0  0  0  0  0  0  0  0  0  0  0
   -1.2778   -2.1133   -0.4420 H   0  0  0  0  0  0  0  0  0  0  0  0
   -0.3887   -1.6000   -1.8939 H   0  0  0  0  0  0  0  0  0  0  0  0
  1  2  1  0
  1  3  1  0
  1  4  1  0
  1  5  1  0
  2  7  1  0
  6  8  1  0
  6  9  1  0
  6 10  1  0
M  RAD  1   6   2
M  END
>  <reaction>  (11) 
rxn_321

>  <mol_properties>  (11) 
{"0": {"label": "*0", "atom_type": "Cs"}, "1": {"label": "*1", "atom_type": "O2s"}, "5": {"label": "*3", "atom_type": "Cs"}, "6": {"label": "*2", "atom_type": "H0"}, "7": {"label": "*4", "atom_type": "H0"}}

>  <type>  (11) 
unop_7

>  <geom_source>  (11) 
Heuristics

$$$$

     RDKit          3D

 10  8  0  0  0  0  0  0  0  0999 V2000
   -0.8863    1.0668    0.3761 C   0  0  0  0  0  0  0  0  0  0  0  0
    0.4495    0.6399    0.2251 O   0  0  0  0  0  0  0  0  0  0  0  0
   -0.9424    1.6130    1.3168 H   0  0  0  0  0  0  0  0  0  0  0  0
   -1.5874    0.2259    0.4259 H   0  0  0  0  0  0  0  0  0  0  0  0
   -1.2002    1.7398   -0.4300 H   0  0  0  0  0  0  0  0  0  0  0  0
    0.4495   -1.6749   -0.5932 C   0  0  0  0  0  3  0  0  0  0  0  0
    0.4495   -0.4429   -0.1577 H   0  0  0  0  0  0  0  0  0  0  0  0
    1.3386   -2.1882   -0.2303 H   0  0  0  0  0  0  0  0  0  0  0  0
   -0.4397   -2.1882   -0.2303 H   0  0  0  0  0  0  0  0  0  0  0  0
    0.4495   -1.6749   -1.6822 H   0  0  0  0  0  0  0  0  0  0  0  0
  1  2  1  0
  1  3  1  0
  1  4  1  0
  1  5  1  0
  2  7  1  0
  6  8  1  0
  6  9  1  0
  6 10  1  0
M  RAD  1   6   2
M  END
>  <reaction>  (12) 
rxn_321

>  <mol_properties>  (12) 
{"0": {"label": "*0", "atom_type": "Cs"}, "1": {"label": "*1", "atom_type": "O2s"}, "5": {"label": "*3", "atom_type": "Cs"}, "6": {"label": "*2", "atom_type": "H0"}, "7": {"label": "*4", "atom_type": "H0"}}

>  <type>  (12) 
unop_8

>  <geom_source>  (12) 
Heuristics

$$$$

     RDKit          3D

 10  8  0  0  0  0  0  0  0  0999 V2000
    0.4427    1.3221   -0.3470 C   0  0  0  0  0  0  0  0  0  0  0  0
   -0.2251    0.5096    0.5927 O   0  0  0  0  0  0  0  0  0  0  0  0
    0.7469    2.2289    0.1742 H   0  0  0  0  0  0  0  0  0  0  0  0
   -0.2058    1.6086   -1.1827 H   0  0  0  0  0  0  0  0  0  0  0  0
    1.3414    0.8397   -0.7480 H   0  0  0  0  0  0  0  0  0  0  0  0
   -0.2251   -1.8051   -0.2257 C   0  0  0  0  0  3  0  0  0  0  0  0
   -0.2251   -0.5731    0.2099 H   0  0  0  0  0  0  0  0  0  0  0  0
    0.6640   -2.3184    0.1373 H   0  0  0  0  0  0  0  0  0  0  0  0
   -1.1142   -2.3184    0.1373 H   0  0  0  0  0  0  0  0  0  0  0  0
   -0.2251   -1.8051   -1.3146 H   0  0  0  0  0  0  0  0  0  0  0  0
  1  2  1  0
  1  3  1  0
  1  4  1  0
  1  5  1  0
  2  7  1  0
  6  8  1  0
  6  9  1  0
  6 10  1  0
M  RAD  1   6   2
M  END
>  <reaction>  (13) 
rxn_321

>  <mol_properties>  (13) 
{"0": {"label": "*0", "atom_type": "Cs"}, "1": {"label": "*1", "atom_type": "O2s"}, "5": {"label": "*3", "atom_type": "Cs"}, "6": {"label": "*2", "atom_type": "H0"}, "7": {"label": "*4", "atom_type": "H0"}}

>  <type>  (13) 
unop_9

>  <geom_source>  (13) 
Heuristics

$$$$

     RDKit          3D

 10  8  0  0  0  0  0  0  0  0999 V2000
   -0.7671    1.2143   -0.0415 C   0  0  0  0  0  0  0  0  0  0  0  0
    0.3896    0.5648    0.4372 O   0  0  0  0  0  0  0  0  0  0  0  0
   -1.0878    1.9081    0.7345 H   0  0  0  0  0  0  0  0  0  0  0  0
   -1.5870    0.5129   -0.2340 H   0  0  0  0  0  0  0  0  0  0  0  0
   -0.5727    1.7880   -0.9549 H   0  0  0  0  0  0  0  0  0  0  0  0
    0.3896   -1.7500   -0.3812 C   0  0  0  0  0  3  0  0  0  0  0  0
    0.3896   -0.5180    0.0544 H   0  0  0  0  0  0  0  0  0  0  0  0
    1.2787   -2.2633   -0.0182 H   0  0  0  0  0  0  0  0  0  0  0  0
   -0.4995   -2.2633   -0.0182 H   0  0  0  0  0  0  0  0  0  0  0  0
    0.3896   -1.7500   -1.4701 H   0  0  0  0  0  0  0  0  0  0  0  0
  1  2  1  0
  1  3  1  0
  1  4  1  0
  1  5  1  0
  2  7  1  0
  6  8  1  0
  6  9  1  0
  6 10  1  0
M  RAD  1   6   2
M  END
>  <reaction>  (14) 
rxn_321

>  <mol_properties>  (14) 
{"0": {"label": "*0", "atom_type": "Cs"}, "1": {"label": "*1", "atom_type": "O2s"}, "5": {"label": "*3", "atom_type": "Cs"}, "6": {"label": "*2", "atom_type": "H0"}, "7": {"label": "*4", "atom_type": "H0"}}

>  <type>  (14) 
unop_10

>  <geom_source>  (14) 
Heuristics

$$$$

     RDKit          3D

 10  8  0  0  0  0  0  0  0  0999 V2000
    0.4438    0.8106    1.1003 C   0  0  0  0  0  0  0  0  0  0  0  0
   -0.2240    0.7693   -0.1412 O   0  0  0  0  0  0  0  0  0  0  0  0
   -0.0212    1.6020    1.6866 H   0  0  0  0  0  0  0  0  0  0  0  0
    1.5086    1.0459    0.9908 H   0  0  0  0  0  0  0  0  0  0  0  0
    0.3462   -0.1294    1.6553 H   0  0  0  0  0  0  0  0  0  0  0  0
   -0.2240   -1.5455   -0.9596 C   0  0  0  0  0  3  0  0  0  0  0  0
   -0.2240   -0.3135   -0.5241 H   0  0  0  0  0  0  0  0  0  0  0  0
    0.6651   -2.0588   -0.5967 H   0  0  0  0  0  0  0  0  0  0  0  0
   -1.1131   -2.0588   -0.5967 H   0  0  0  0  0  0  0  0  0  0  0  0
   -0.2240   -1.5455   -2.0486 H   0  0  0  0  0  0  0  0  0  0  0  0
  1  2  1  0
  1  3  1  0
  1  4  1  0
  1  5  1  0
  2  7  1  0
  6  8  1  0
  6  9  1  0
  6 10  1  0
M  RAD  1   6   2
M  END
>  <reaction>  (15) 
rxn_321

>  <mol_properties>  (15) 
{"0": {"label": "*0", "atom_type": "Cs"}, "1": {"label": "*1", "atom_type": "O2s"}, "5": {"label": "*3", "atom_type": "Cs"}, "6": {"label": "*2", "atom_type": "H0"}, "7": {"label": "*4", "atom_type": "H0"}}

>  <type>  (15) 
unop_11

>  <geom_source>  (15) 
Heuristics

$$$$

     RDKit          3D

 10  8  0  0  0  0  0  0  0  0999 V2000
    0.0000    1.3616   -0.4588 C   0  0  0  0  0  0  0  0  0  0  0  0
    0.0000    0.4894    0.6496 O   0  0  0  0  0  0  0  0  0  0  0  0
   -0.0000    2.3774   -0.0656 H   0  0  0  0  0  0  0  0  0  0  0  0
   -0.8908    1.2366   -1.0849 H   0  0  0  0  0  0  0  0  0  0  0  0
    0.8908    1.2366   -1.0849 H   0  0  0  0  0  0  0  0  0  0  0  0
    0.0000   -1.8253   -0.1688 C   0  0  0  0  0  3  0  0  0  0  0  0
    0.0000   -0.5933    0.2668 H   0  0  0  0  0  0  0  0  0  0  0  0
    0.8891   -2.3387    0.1942 H   0  0  0  0  0  0  0  0  0  0  0  0
   -0.8891   -2.3386    0.1942 H   0  0  0  0  0  0  0  0  0  0  0  0
    0.0000   -1.8253   -1.2577 H   0  0  0  0  0  0  0  0  0  0  0  0
  1  2  1  0
  1  3  1  0
  1  4  1  0
  1  5  1  0
  2  7  1  0
  6  8  1  0
  6  9  1  0
  6 10  1  0
M  RAD  1   6   2
M  END
>  <reaction>  (16) 
rxn_321

>  <mol_properties>  (16) 
{"0": {"label": "*0", "atom_type": "Cs"}, "1": {"label": "*1", "atom_type": "O2s"}, "5": {"label": "*3", "atom_type": "Cs"}, "6": {"label": "*2", "atom_type": "H0"}, "7": {"label": "*4", "atom_type": "H0"}}

>  <type>  (16) 
unop_12

>  <geom_source>  (16) 
Heuristics

$$$$

     RDKit          3D

 10  8  0  0  0  0  0  0  0  0999 V2000
   -0.5625   -0.3481    0.8904 O   0  0  0  0  0  1  0  0  0  0  0  0
   -1.6084   -0.0906    0.0024 C   0  0  0  0  0  0  0  0  0  0  0  0
    1.5995    0.1394   -0.0467 C   0  0  0  0  0  0  0  0  0  0  0  0
   -1.7755    1.0044   -0.0752 H   0  0  0  0  0  0  0  0  0  0  0  0
   -2.5344   -0.5735    0.3766 H   0  0  0  0  0  0  0  0  0  0  0  0
   -1.3626   -0.5030   -0.9988 H   0  0  0  0  0  0  0  0  0  0  0  0
    2.2236    1.0500   -0.1565 H   0  0  0  0  0  0  0  0  0  0  0  0
    1.4746   -0.3449   -1.0370 H   0  0  0  0  0  0  0  0  0  0  0  0
    2.0952   -0.5669    0.6504 H   0  0  0  0  0  0  0  0  0  0  0  0
    0.4504    0.2332    0.3943 H   0  0  0  0  0  0  0  0  0  0  0  0
  1  2  1  0
  2  4  1  0
  2  5  1  0
  2  6  1  0
  3  7  1  0
  3  8  1  0
  3  9  1  0
  3 10  1  0
M  RAD  1   1   2
M  END
>  <reaction>  (17) 
rxn_321

>  <mol_properties>  (17) 
{"0": {"label": "*0", "atom_type": "Cs"}, "1": {"label": "*1", "atom_type": "O2s"}, "5": {"label": "*3", "atom_type": "Cs"}, "6": {"label": "*2", "atom_type": "H0"}, "7": {"label": "*4", "atom_type": "H0"}}

>  <type>  (17) 
unop_13

>  <geom_source>  (17) 
AutoTST

$$$$

     RDKit          3D

 10  8  0  0  0  0  0  0  0  0999 V2000
   -0.4427    1.3221   -0.3470 C   0  0  0  0  0  0  0  0  0  0  0  0
    0.2251    0.5096    0.5927 O   0  0  0  0  0  0  0  0  0  0  0  0
   -0.7470    2.2289    0.1742 H   0  0  0  0  0  0  0  0  0  0  0  0
   -1.3414    0.8397   -0.7480 H   0  0  0  0  0  0  0  0  0  0  0  0
    0.2058    1.6087   -1.1827 H   0  0  0  0  0  0  0  0  0  0  0  0
    0.2251   -1.8051   -0.2257 C   0  0  0  0  0  3  0  0  0  0  0  0
    0.2251   -0.5731    0.2099 H   0  0  0  0  0  0  0  0  0  0  0  0
    1.1142   -2.3184    0.1373 H   0  0  0  0  0  0  0  0  0  0  0  0
   -0.6640   -2.3184    0.1373 H   0  0  0  0  0  0  0  0  0  0  0  0
    0.2251   -1.8051   -1.3147 H   0  0  0  0  0  0  0  0  0  0  0  0
  1  2  1  0
  1  3  1  0
  1  4  1  0
  1  5  1  0
  2  7  1  0
  6  8  1  0
  6  9  1  0
  6 10  1  0
M  RAD  1   6   2
M  END
>  <reaction>  (18) 
rxn_321

>  <mol_properties>  (18) 
{"0": {"label": "*0", "atom_type": "Cs"}, "1": {"label": "*1", "atom_type": "O2s"}, "5": {"label": "*3", "atom_type": "Cs"}, "6": {"label": "*2", "atom_type": "H0"}, "7": {"label": "*4", "atom_type": "H0"}}

>  <type>  (18) 
unop_14

>  <geom_source>  (18) 
gaussian_log

$$$$
