
     RDKit          3D

 12 11  0  0  0  0  0  0  0  0999 V2000
    1.9877    0.1011    0.4814 C   0  0  0  0  0  0  0  0  0  0  0  0
    0.8179    0.5502    0.0525 C   0  0  0  0  0  0  0  0  0  0  0  0
   -0.2939   -0.2692   -0.5320 C   0  0  0  0  0  0  0  0  0  0  0  0
   -0.0292   -1.7631   -0.6328 C   0  0  0  0  0  0  0  0  0  0  0  0
    2.2522   -0.9490    0.4436 H   0  0  0  0  0  0  0  0  0  0  0  0
    2.7295    0.7757    0.8896 H   0  0  0  0  0  0  0  0  0  0  0  0
    0.6162    1.6164    0.1190 H   0  0  0  0  0  0  0  0  0  0  0  0
   -0.5268    0.1319   -1.5245 H   0  0  0  0  0  0  0  0  0  0  0  0
   -1.1959   -0.0938    0.0644 H   0  0  0  0  0  0  0  0  0  0  0  0
    0.1590   -2.1992    0.3502 H   0  0  0  0  0  0  0  0  0  0  0  0
    0.8382   -1.9701   -1.2626 H   0  0  0  0  0  0  0  0  0  0  0  0
   -0.8879   -2.2759   -1.0672 H   0  0  0  0  0  0  0  0  0  0  0  0
  1  2  2  3
  1  5  1  0
  1  6  1  0
  2  3  1  0
  2  7  1  0
  3  4  1  0
  3  8  1  0
  3  9  1  0
  4 10  1  0
  4 11  1  0
  4 12  1  0
M  END
>  <reaction>  (1) 
rxn_1048

>  <mol_properties>  (1) 
{"2": {"label": "donator", "atom_type": "Cs"}, "7": {"label": "d_hydrogen", "atom_type": "H0"}}

>  <type>  (1) 
r1h

$$$$

     RDKit          3D

 12 11  0  0  0  0  0  0  0  0999 V2000
    2.5164   -0.5559   -0.0242 C   0  0  0  0  0  0  0  0  0  0  0  0
    1.3287   -0.2938   -0.0132 C   0  0  0  0  0  0  0  0  0  0  0  0
   -0.0146    0.0027   -0.0006 C   0  0  0  0  0  3  0  0  0  0  0  0
   -1.0396   -1.0729   -0.1642 C   0  0  0  0  0  0  0  0  0  0  0  0
   -0.4887    1.4091    0.1769 C   0  0  0  0  0  0  0  0  0  0  0  0
    3.5543   -0.7850   -0.0339 H   0  0  0  0  0  0  0  0  0  0  0  0
   -1.7064   -1.1056    0.7044 H   0  0  0  0  0  0  0  0  0  0  0  0
   -0.5831   -2.0533   -0.2854 H   0  0  0  0  0  0  0  0  0  0  0  0
   -1.6716   -0.8741   -1.0367 H   0  0  0  0  0  0  0  0  0  0  0  0
   -1.0951    1.7228   -0.6798 H   0  0  0  0  0  0  0  0  0  0  0  0
    0.3401    2.1059    0.2861 H   0  0  0  0  0  0  0  0  0  0  0  0
   -1.1300    1.4913    1.0613 H   0  0  0  0  0  0  0  0  0  0  0  0
  1  2  3  0
  1  6  1  0
  2  3  1  0
  3  4  1  0
  3  5  1  0
  4  7  1  0
  4  8  1  0
  4  9  1  0
  5 10  1  0
  5 11  1  0
  5 12  1  0
M  RAD  1   3   2
M  END
>  <reaction>  (2) 
rxn_1048

>  <mol_properties>  (2) 
{"2": {"label": "acceptor", "atom_type": "Cs"}}

>  <type>  (2) 
r2

$$$$

     RDKit          3D

 13 12  0  0  0  0  0  0  0  0999 V2000
    2.2975   -0.6134    0.7685 C   0  0  0  0  0  0  0  0  0  0  0  0
    1.1676   -0.5248    0.3802 C   0  0  0  0  0  0  0  0  0  0  0  0
   -0.2109   -0.3926   -0.0948 C   0  0  0  0  0  0  0  0  0  0  0  0
   -0.2501    0.2584   -1.4808 C   0  0  0  0  0  0  0  0  0  0  0  0
   -1.0633    0.3831    0.9141 C   0  0  0  0  0  0  0  0  0  0  0  0
    3.2999   -0.6974    1.1133 H   0  0  0  0  0  0  0  0  0  0  0  0
   -0.6209   -1.4038   -0.1814 H   0  0  0  0  0  0  0  0  0  0  0  0
    0.3402   -0.3102   -2.1992 H   0  0  0  0  0  0  0  0  0  0  0  0
    0.1511    1.2724   -1.4369 H   0  0  0  0  0  0  0  0  0  0  0  0
   -1.2791    0.3109   -1.8407 H   0  0  0  0  0  0  0  0  0  0  0  0
   -0.6861    1.4008    1.0287 H   0  0  0  0  0  0  0  0  0  0  0  0
   -1.0492   -0.0971    1.8924 H   0  0  0  0  0  0  0  0  0  0  0  0
   -2.0971    0.4363    0.5680 H   0  0  0  0  0  0  0  0  0  0  0  0
  1  2  3  0
  1  6  1  0
  2  3  1  0
  3  4  1  0
  3  5  1  0
  3  7  1  0
  4  8  1  0
  4  9  1  0
  4 10  1  0
  5 11  1  0
  5 12  1  0
  5 13  1  0
M  END
>  <reaction>  (3) 
rxn_1048

>  <mol_properties>  (3) 
{"2": {"label": "acceptor", "atom_type": "Cs"}, "12": {"label": "a_hydrogen", "atom_type": "H0"}}

>  <type>  (3) 
r2h

$$$$

     RDKit          3D

 24 22  0  0  0  0  0  0  0  0999 V2000
    2.8748    1.8369   -0.0101 C   0  0  0  0  0  0  0  0  0  0  0  0
    1.9699    1.1832    0.4393 C   0  0  0  0  0  0  0  0  0  0  0  0
    0.8588    0.4266    0.9201 C   0  0  0  0  0  3  0  0  0  0  0  0
    0.2158    0.9427    2.1891 C   0  0  0  0  0  0  0  0  0  0  0  0
    1.0110   -1.0775    0.8503 C   0  0  0  0  0  0  0  0  0  0  0  0
    3.6844    2.4097   -0.3933 H   0  0  0  0  0  0  0  0  0  0  0  0
   -0.7444    0.4462    2.3471 H   0  0  0  0  0  0  0  0  0  0  0  0
    0.0488    2.0188    2.1384 H   0  0  0  0  0  0  0  0  0  0  0  0
    0.8484    0.7379    3.0577 H   0  0  0  0  0  0  0  0  0  0  0  0
    1.6546   -1.4405    1.6575 H   0  0  0  0  0  0  0  0  0  0  0  0
    1.4515   -1.3869   -0.0972 H   0  0  0  0  0  0  0  0  0  0  0  0
    0.0341   -1.5549    0.9550 H   0  0  0  0  0  0  0  0  0  0  0  0
   -2.7750   -1.0050   -0.5052 C   0  0  0  0  0  0  0  0  0  0  0  0
   -2.2739    0.2157   -0.2856 C   0  0  0  0  0  0  0  0  0  0  0  0
   -1.0842    0.7844   -0.9030 C   0  0  0  0  0  0  0  0  0  0  0  0
   -0.4806    0.1217   -2.1134 C   0  0  0  0  0  0  0  0  0  0  0  0
   -2.3394   -1.6847   -1.2276 H   0  0  0  0  0  0  0  0  0  0  0  0
   -3.6506   -1.3524    0.0270 H   0  0  0  0  0  0  0  0  0  0  0  0
   -2.7693    0.8472    0.4471 H   0  0  0  0  0  0  0  0  0  0  0  0
   -0.1173    0.6607    0.0115 H   0  0  0  0  0  0  0  0  0  0  0  0
   -1.1048    1.8722   -0.9615 H   0  0  0  0  0  0  0  0  0  0  0  0
   -1.1474    0.1925   -2.9776 H   0  0  0  0  0  0  0  0  0  0  0  0
   -0.2847   -0.9371   -1.9339 H   0  0  0  0  0  0  0  0  0  0  0  0
    0.4670    0.5948   -2.3738 H   0  0  0  0  0  0  0  0  0  0  0  0
  1  2  3  0
  1  6  1  0
  2  3  1  0
  3  4  1  0
  3  5  1  0
  4  7  1  0
  4  8  1  0
  4  9  1  0
  5 10  1  0
  5 11  1  0
  5 12  1  0
 13 14  2  3
 13 17  1  0
 13 18  1  0
 14 15  1  0
 14 19  1  0
 15 16  1  0
 15 20  1  0
 15 21  1  0
 16 22  1  0
 16 23  1  0
 16 24  1  0
M  RAD  1   3   2
M  END
>  <reaction>  (4) 
rxn_1048

>  <mol_properties>  (4) 
{"1": {"label": "*4", "atom_type": "Ct"}, "2": {"label": "*3", "atom_type": "Cs"}, "13": {"label": "*0", "atom_type": "Cd"}, "14": {"label": "*1", "atom_type": "Cs"}, "19": {"label": "*2", "atom_type": "H0"}}

>  <type>  (4) 
ts

$$$$

     RDKit          3D

 24 22  0  0  0  0  0  0  0  0999 V2000
    2.2560    1.9284    0.5987 C   0  0  0  0  0  0  0  0  0  0  0  0
    1.5744    0.9608    0.7850 C   0  0  0  0  0  0  0  0  0  0  0  0
    0.7465   -0.2203    1.0361 C   0  0  0  0  0  0  0  0  0  0  0  0
   -0.4326    0.1248    1.9508 C   0  0  0  0  0  0  0  0  0  0  0  0
    1.5878   -1.3636    1.6116 C   0  0  0  0  0  0  0  0  0  0  0  0
    2.8609    2.7871    0.4334 H   0  0  0  0  0  0  0  0  0  0  0  0
   -1.0647   -0.7534    2.0940 H   0  0  0  0  0  0  0  0  0  0  0  0
   -1.0398    0.9237    1.5254 H   0  0  0  0  0  0  0  0  0  0  0  0
   -0.0735    0.4531    2.9277 H   0  0  0  0  0  0  0  0  0  0  0  0
    2.0065   -1.0792    2.5785 H   0  0  0  0  0  0  0  0  0  0  0  0
    2.4120   -1.6193    0.9458 H   0  0  0  0  0  0  0  0  0  0  0  0
    0.9674   -2.2504    1.7528 H   0  0  0  0  0  0  0  0  0  0  0  0
   -1.3392   -1.2617   -2.7726 C   0  0  0  0  0  0  0  0  0  0  0  0
   -1.3392   -1.2617   -1.4483 C   0  0  0  0  0  0  0  0  0  0  0  0
   -1.3392   -0.0572   -0.5548 C   0  0  0  0  0  3  0  0  0  0  0  0
   -1.3392    1.2886   -1.2625 C   0  0  0  0  0  0  0  0  0  0  0  0
   -1.3392   -0.3448   -3.3501 H   0  0  0  0  0  0  0  0  0  0  0  0
   -1.3392   -2.1890   -3.3313 H   0  0  0  0  0  0  0  0  0  0  0  0
   -1.3392   -2.2174   -0.9301 H   0  0  0  0  0  0  0  0  0  0  0  0
   -0.2959   -0.1388    0.2409 H   0  0  0  0  0  0  0  0  0  0  0  0
   -2.2086   -0.1252    0.1083 H   0  0  0  0  0  0  0  0  0  0  0  0
   -2.2216    1.4036   -1.8949 H   0  0  0  0  0  0  0  0  0  0  0  0
   -0.4567    1.4036   -1.8949 H   0  0  0  0  0  0  0  0  0  0  0  0
   -1.3392    2.1029   -0.5372 H   0  0  0  0  0  0  0  0  0  0  0  0
  1  2  3  0
  1  6  1  0
  2  3  1  0
  3  4  1  0
  3  5  1  0
  3 20  1  0
  4  7  1  0
  4  8  1  0
  4  9  1  0
  5 10  1  0
  5 11  1  0
  5 12  1  0
 13 14  2  3
 13 17  1  0
 13 18  1  0
 14 15  1  0
 14 19  1  0
 15 16  1  0
 15 21  1  0
 16 22  1  0
 16 23  1  0
 16 24  1  0
M  RAD  1  15   2
M  END
>  <reaction>  (5) 
rxn_1048

>  <mol_properties>  (5) 
{"1": {"label": "*4", "atom_type": "Ct"}, "2": {"label": "*3", "atom_type": "Cs"}, "13": {"label": "*0", "atom_type": "Cd"}, "14": {"label": "*1", "atom_type": "Cs"}, "19": {"label": "*2", "atom_type": "H0"}}

>  <type>  (5) 
unop_1

>  <geom_source>  (5) 
Heuristics

$$$$

     RDKit          3D

 24 22  0  0  0  0  0  0  0  0999 V2000
    2.5285   -1.2049   -0.1190 C   0  0  0  0  0  0  0  0  0  0  0  0
    1.6624   -0.6169    0.4637 C   0  0  0  0  0  0  0  0  0  0  0  0
    0.6205    0.1103    1.1910 C   0  0  0  0  0  0  0  0  0  0  0  0
    0.8662    1.6209    1.1304 C   0  0  0  0  0  0  0  0  0  0  0  0
    0.5183   -0.3844    2.6370 C   0  0  0  0  0  0  0  0  0  0  0  0
    3.2971   -1.7268   -0.6361 H   0  0  0  0  0  0  0  0  0  0  0  0
    0.0595    2.1521    1.6388 H   0  0  0  0  0  0  0  0  0  0  0  0
    0.9158    1.9703    0.0992 H   0  0  0  0  0  0  0  0  0  0  0  0
    1.8075    1.8738    1.6215 H   0  0  0  0  0  0  0  0  0  0  0  0
    1.4494   -0.1907    3.1726 H   0  0  0  0  0  0  0  0  0  0  0  0
    0.3215   -1.4558    2.6733 H   0  0  0  0  0  0  0  0  0  0  0  0
   -0.2903    0.1351    3.1541 H   0  0  0  0  0  0  0  0  0  0  0  0
   -1.4652   -0.9312   -2.6177 C   0  0  0  0  0  0  0  0  0  0  0  0
   -1.4652   -0.9312   -1.2933 C   0  0  0  0  0  0  0  0  0  0  0  0
   -1.4652    0.2733   -0.3999 C   0  0  0  0  0  3  0  0  0  0  0  0
   -1.4652    1.6191   -1.1076 C   0  0  0  0  0  0  0  0  0  0  0  0
   -1.4652   -0.0143   -3.1951 H   0  0  0  0  0  0  0  0  0  0  0  0
   -1.4652   -1.8585   -3.1764 H   0  0  0  0  0  0  0  0  0  0  0  0
   -1.4652   -1.8869   -0.7752 H   0  0  0  0  0  0  0  0  0  0  0  0
   -0.4220    0.1918    0.3959 H   0  0  0  0  0  0  0  0  0  0  0  0
   -2.3346    0.2054    0.2632 H   0  0  0  0  0  0  0  0  0  0  0  0
   -2.3477    1.7341   -1.7400 H   0  0  0  0  0  0  0  0  0  0  0  0
   -0.5828    1.7341   -1.7400 H   0  0  0  0  0  0  0  0  0  0  0  0
   -1.4652    2.4335   -0.3823 H   0  0  0  0  0  0  0  0  0  0  0  0
  1  2  3  0
  1  6  1  0
  2  3  1  0
  3  4  1  0
  3  5  1  0
  3 20  1  0
  4  7  1  0
  4  8  1  0
  4  9  1  0
  5 10  1  0
  5 11  1  0
  5 12  1  0
 13 14  2  3
 13 17  1  0
 13 18  1  0
 14 15  1  0
 14 19  1  0
 15 16  1  0
 15 21  1  0
 16 22  1  0
 16 23  1  0
 16 24  1  0
M  RAD  1  15   2
M  END
>  <reaction>  (6) 
rxn_1048

>  <mol_properties>  (6) 
{"1": {"label": "*4", "atom_type": "Ct"}, "2": {"label": "*3", "atom_type": "Cs"}, "13": {"label": "*0", "atom_type": "Cd"}, "14": {"label": "*1", "atom_type": "Cs"}, "19": {"label": "*2", "atom_type": "H0"}}

>  <type>  (6) 
unop_2

>  <geom_source>  (6) 
Heuristics

$$$$

     RDKit          3D

 24 22  0  0  0  0  0  0  0  0999 V2000
    1.5565    2.2911    1.5270 C   0  0  0  0  0  0  0  0  0  0  0  0
    1.2106    1.1768    1.2549 C   0  0  0  0  0  0  0  0  0  0  0  0
    0.7974   -0.1926    0.9430 C   0  0  0  0  0  0  0  0  0  0  0  0
   -0.2014   -0.7109    1.9822 C   0  0  0  0  0  0  0  0  0  0  0  0
    2.0139   -1.1157    0.8243 C   0  0  0  0  0  0  0  0  0  0  0  0
    1.8635    3.2801    1.7686 H   0  0  0  0  0  0  0  0  0  0  0  0
   -0.5337   -1.7153    1.7137 H   0  0  0  0  0  0  0  0  0  0  0  0
   -1.0748   -0.0620    2.0462 H   0  0  0  0  0  0  0  0  0  0  0  0
    0.2635   -0.7547    2.9687 H   0  0  0  0  0  0  0  0  0  0  0  0
    2.5442   -1.1715    1.7766 H   0  0  0  0  0  0  0  0  0  0  0  0
    2.7101   -0.7536    0.0680 H   0  0  0  0  0  0  0  0  0  0  0  0
    1.6945   -2.1224    0.5491 H   0  0  0  0  0  0  0  0  0  0  0  0
   -1.2883   -1.2340   -2.8657 C   0  0  0  0  0  0  0  0  0  0  0  0
   -1.2883   -1.2340   -1.5413 C   0  0  0  0  0  0  0  0  0  0  0  0
   -1.2883   -0.0295   -0.6479 C   0  0  0  0  0  3  0  0  0  0  0  0
   -1.2883    1.3162   -1.3556 C   0  0  0  0  0  0  0  0  0  0  0  0
   -1.2883   -0.3171   -3.4431 H   0  0  0  0  0  0  0  0  0  0  0  0
   -1.2883   -2.1614   -3.4243 H   0  0  0  0  0  0  0  0  0  0  0  0
   -1.2883   -2.1898   -1.0231 H   0  0  0  0  0  0  0  0  0  0  0  0
   -0.2450   -0.1111    0.1479 H   0  0  0  0  0  0  0  0  0  0  0  0
   -2.1577   -0.0975    0.0153 H   0  0  0  0  0  0  0  0  0  0  0  0
   -2.1707    1.4312   -1.9880 H   0  0  0  0  0  0  0  0  0  0  0  0
   -0.4059    1.4312   -1.9880 H   0  0  0  0  0  0  0  0  0  0  0  0
   -1.2883    2.1306   -0.6303 H   0  0  0  0  0  0  0  0  0  0  0  0
  1  2  3  0
  1  6  1  0
  2  3  1  0
  3  4  1  0
  3  5  1  0
  3 20  1  0
  4  7  1  0
  4  8  1  0
  4  9  1  0
  5 10  1  0
  5 11  1  0
  5 12  1  0
 13 14  2  3
 13 17  1  0
 13 18  1  0
 14 15  1  0
 14 19  1  0
 15 16  1  0
 15 21  1  0
 16 22  1  0
 16 23  1  0
 16 24  1  0
M  RAD  1  15   2
M  END
>  <reaction>  (7) 
rxn_1048

>  <mol_properties>  (7) 
{"1": {"label": "*4", "atom_type": "Ct"}, "2": {"label": "*3", "atom_type": "Cs"}, "13": {"label": "*0", "atom_type": "Cd"}, "14": {"label": "*1", "atom_type": "Cs"}, "19": {"label": "*2", "atom_type": "H0"}}

>  <type>  (7) 
unop_3

>  <geom_source>  (7) 
Heuristics

$$$$

     RDKit          3D

 24 22  0  0  0  0  0  0  0  0999 V2000
    0.6452   -2.0375    2.2886 C   0  0  0  0  0  0  0  0  0  0  0  0
    0.7527   -1.0357    1.6404 C   0  0  0  0  0  0  0  0  0  0  0  0
    0.8954    0.1989    0.8666 C   0  0  0  0  0  0  0  0  0  0  0  0
    2.3730    0.5359    0.6450 C   0  0  0  0  0  0  0  0  0  0  0  0
    0.1510    1.3548    1.5419 C   0  0  0  0  0  0  0  0  0  0  0  0
    0.5498   -2.9267    2.8639 H   0  0  0  0  0  0  0  0  0  0  0  0
    2.4642    1.4335    0.0307 H   0  0  0  0  0  0  0  0  0  0  0  0
    2.8921   -0.2813    0.1444 H   0  0  0  0  0  0  0  0  0  0  0  0
    2.8690    0.7206    1.5995 H   0  0  0  0  0  0  0  0  0  0  0  0
    0.5814    1.5636    2.5229 H   0  0  0  0  0  0  0  0  0  0  0  0
   -0.9042    1.1177    1.6768 H   0  0  0  0  0  0  0  0  0  0  0  0
    0.2293    2.2571    0.9328 H   0  0  0  0  0  0  0  0  0  0  0  0
   -1.1903   -0.8425   -2.9420 C   0  0  0  0  0  0  0  0  0  0  0  0
   -1.1903   -0.8425   -1.6177 C   0  0  0  0  0  0  0  0  0  0  0  0
   -1.1903    0.3620   -0.7243 C   0  0  0  0  0  3  0  0  0  0  0  0
   -1.1903    1.7077   -1.4320 C   0  0  0  0  0  0  0  0  0  0  0  0
   -1.1903    0.0744   -3.5195 H   0  0  0  0  0  0  0  0  0  0  0  0
   -1.1903   -1.7699   -3.5007 H   0  0  0  0  0  0  0  0  0  0  0  0
   -1.1903   -1.7983   -1.0995 H   0  0  0  0  0  0  0  0  0  0  0  0
   -0.1471    0.2804    0.0715 H   0  0  0  0  0  0  0  0  0  0  0  0
   -2.0597    0.2940   -0.0611 H   0  0  0  0  0  0  0  0  0  0  0  0
   -2.0728    1.8227   -2.0644 H   0  0  0  0  0  0  0  0  0  0  0  0
   -0.3079    1.8227   -2.0644 H   0  0  0  0  0  0  0  0  0  0  0  0
   -1.1903    2.5221   -0.7067 H   0  0  0  0  0  0  0  0  0  0  0  0
  1  2  3  0
  1  6  1  0
  2  3  1  0
  3  4  1  0
  3  5  1  0
  3 20  1  0
  4  7  1  0
  4  8  1  0
  4  9  1  0
  5 10  1  0
  5 11  1  0
  5 12  1  0
 13 14  2  3
 13 17  1  0
 13 18  1  0
 14 15  1  0
 14 19  1  0
 15 16  1  0
 15 21  1  0
 16 22  1  0
 16 23  1  0
 16 24  1  0
M  RAD  1  15   2
M  END
>  <reaction>  (8) 
rxn_1048

>  <mol_properties>  (8) 
{"1": {"label": "*4", "atom_type": "Ct"}, "2": {"label": "*3", "atom_type": "Cs"}, "13": {"label": "*0", "atom_type": "Cd"}, "14": {"label": "*1", "atom_type": "Cs"}, "19": {"label": "*2", "atom_type": "H0"}}

>  <type>  (8) 
unop_4

>  <geom_source>  (8) 
Heuristics

$$$$

     RDKit          3D

 24 22  0  0  0  0  0  0  0  0999 V2000
    0.7869    1.9904    2.4795 C   0  0  0  0  0  0  0  0  0  0  0  0
    0.7872    1.0280    1.7659 C   0  0  0  0  0  0  0  0  0  0  0  0
    0.8076   -0.1556    0.9046 C   0  0  0  0  0  0  0  0  0  0  0  0
    0.6756   -1.4363    1.7344 C   0  0  0  0  0  0  0  0  0  0  0  0
    2.0693   -0.1767    0.0364 C   0  0  0  0  0  0  0  0  0  0  0  0
    0.7867    2.8445    3.1128 H   0  0  0  0  0  0  0  0  0  0  0  0
    0.6485   -2.3071    1.0771 H   0  0  0  0  0  0  0  0  0  0  0  0
   -0.2351   -1.4249    2.3331 H   0  0  0  0  0  0  0  0  0  0  0  0
    1.5262   -1.5417    2.4101 H   0  0  0  0  0  0  0  0  0  0  0  0
    2.9610   -0.2450    0.6619 H   0  0  0  0  0  0  0  0  0  0  0  0
    2.1460    0.7270   -0.5680 H   0  0  0  0  0  0  0  0  0  0  0  0
    2.0502   -1.0403   -0.6308 H   0  0  0  0  0  0  0  0  0  0  0  0
   -1.2781   -1.1971   -2.9041 C   0  0  0  0  0  0  0  0  0  0  0  0
   -1.2781   -1.1971   -1.5798 C   0  0  0  0  0  0  0  0  0  0  0  0
   -1.2781    0.0074   -0.6863 C   0  0  0  0  0  3  0  0  0  0  0  0
   -1.2781    1.3532   -1.3940 C   0  0  0  0  0  0  0  0  0  0  0  0
   -1.2781   -0.2801   -3.4816 H   0  0  0  0  0  0  0  0  0  0  0  0
   -1.2781   -2.1244   -3.4628 H   0  0  0  0  0  0  0  0  0  0  0  0
   -1.2781   -2.1528   -1.0616 H   0  0  0  0  0  0  0  0  0  0  0  0
   -0.2349   -0.0741    0.1094 H   0  0  0  0  0  0  0  0  0  0  0  0
   -2.1475   -0.0605   -0.0232 H   0  0  0  0  0  0  0  0  0  0  0  0
   -2.1606    1.4682   -2.0264 H   0  0  0  0  0  0  0  0  0  0  0  0
   -0.3957    1.4682   -2.0264 H   0  0  0  0  0  0  0  0  0  0  0  0
   -1.2781    2.1676   -0.6687 H   0  0  0  0  0  0  0  0  0  0  0  0
  1  2  3  0
  1  6  1  0
  2  3  1  0
  3  4  1  0
  3  5  1  0
  3 20  1  0
  4  7  1  0
  4  8  1  0
  4  9  1  0
  5 10  1  0
  5 11  1  0
  5 12  1  0
 13 14  2  3
 13 17  1  0
 13 18  1  0
 14 15  1  0
 14 19  1  0
 15 16  1  0
 15 21  1  0
 16 22  1  0
 16 23  1  0
 16 24  1  0
M  RAD  1  15   2
M  END
>  <reaction>  (9) 
rxn_1048

>  <mol_properties>  (9) 
{"1": {"label": "*4", "atom_type": "Ct"}, "2": {"label": "*3", "atom_type": "Cs"}, "13": {"label": "*0", "atom_type": "Cd"}, "14": {"label": "*1", "atom_type": "Cs"}, "19": {"label": "*2", "atom_type": "H0"}}

>  <type>  (9) 
unop_5

>  <geom_source>  (9) 
Heuristics

$$$$

     RDKit          3D

 24 22  0  0  0  0  0  0  0  0999 V2000
    0.1710   -1.2364    3.0092 C   0  0  0  0  0  0  0  0  0  0  0  0
    0.5096   -0.6570    2.0167 C   0  0  0  0  0  0  0  0  0  0  0  0
    0.9369    0.0656    0.8173 C   0  0  0  0  0  0  0  0  0  0  0  0
    2.4521   -0.0475    0.6233 C   0  0  0  0  0  0  0  0  0  0  0  0
    0.4855    1.5283    0.8721 C   0  0  0  0  0  0  0  0  0  0  0  0
   -0.1296   -1.7506    3.8901 H   0  0  0  0  0  0  0  0  0  0  0  0
    2.7504    0.4583   -0.2967 H   0  0  0  0  0  0  0  0  0  0  0  0
    2.7641   -1.0901    0.5629 H   0  0  0  0  0  0  0  0  0  0  0  0
    2.9788    0.4180    1.4581 H   0  0  0  0  0  0  0  0  0  0  0  0
    0.9543    2.0403    1.7143 H   0  0  0  0  0  0  0  0  0  0  0  0
   -0.5957    1.6022    0.9881 H   0  0  0  0  0  0  0  0  0  0  0  0
    0.7725    2.0432   -0.0464 H   0  0  0  0  0  0  0  0  0  0  0  0
   -1.1488   -0.9758   -2.9913 C   0  0  0  0  0  0  0  0  0  0  0  0
   -1.1488   -0.9758   -1.6670 C   0  0  0  0  0  0  0  0  0  0  0  0
   -1.1488    0.2287   -0.7735 C   0  0  0  0  0  3  0  0  0  0  0  0
   -1.1488    1.5744   -1.4812 C   0  0  0  0  0  0  0  0  0  0  0  0
   -1.1488   -0.0589   -3.5688 H   0  0  0  0  0  0  0  0  0  0  0  0
   -1.1488   -1.9032   -3.5500 H   0  0  0  0  0  0  0  0  0  0  0  0
   -1.1488   -1.9316   -1.1488 H   0  0  0  0  0  0  0  0  0  0  0  0
   -0.1055    0.1471    0.0222 H   0  0  0  0  0  0  0  0  0  0  0  0
   -2.0182    0.1607   -0.1104 H   0  0  0  0  0  0  0  0  0  0  0  0
   -2.0313    1.6894   -2.1137 H   0  0  0  0  0  0  0  0  0  0  0  0
   -0.2664    1.6894   -2.1137 H   0  0  0  0  0  0  0  0  0  0  0  0
   -1.1488    2.3888   -0.7559 H   0  0  0  0  0  0  0  0  0  0  0  0
  1  2  3  0
  1  6  1  0
  2  3  1  0
  3  4  1  0
  3  5  1  0
  3 20  1  0
  4  7  1  0
  4  8  1  0
  4  9  1  0
  5 10  1  0
  5 11  1  0
  5 12  1  0
 13 14  2  3
 13 17  1  0
 13 18  1  0
 14 15  1  0
 14 19  1  0
 15 16  1  0
 15 21  1  0
 16 22  1  0
 16 23  1  0
 16 24  1  0
M  RAD  1  15   2
M  END
>  <reaction>  (10) 
rxn_1048

>  <mol_properties>  (10) 
{"1": {"label": "*4", "atom_type": "Ct"}, "2": {"label": "*3", "atom_type": "Cs"}, "13": {"label": "*0", "atom_type": "Cd"}, "14": {"label": "*1", "atom_type": "Cs"}, "19": {"label": "*2", "atom_type": "H0"}}

>  <type>  (10) 
unop_6

>  <geom_source>  (10) 
Heuristics

$$$$

     RDKit          3D

 24 22  0  0  0  0  0  0  0  0999 V2000
    0.0117   -0.1000    3.3331 C   0  0  0  0  0  0  0  0  0  0  0  0
    0.4103   -0.0913    2.2033 C   0  0  0  0  0  0  0  0  0  0  0  0
    0.9159   -0.0671    0.8296 C   0  0  0  0  0  0  0  0  0  0  0  0
    2.2984   -0.7214    0.7458 C   0  0  0  0  0  0  0  0  0  0  0  0
    0.9375    1.3630    0.2815 C   0  0  0  0  0  0  0  0  0  0  0  0
   -0.3421   -0.1076    4.3358 H   0  0  0  0  0  0  0  0  0  0  0  0
    2.6436   -0.7355   -0.2895 H   0  0  0  0  0  0  0  0  0  0  0  0
    2.2718   -1.7460    1.1166 H   0  0  0  0  0  0  0  0  0  0  0  0
    3.0214   -0.1620    1.3419 H   0  0  0  0  0  0  0  0  0  0  0  0
    1.6204    1.9839    0.8640 H   0  0  0  0  0  0  0  0  0  0  0  0
   -0.0533    1.8152    0.3235 H   0  0  0  0  0  0  0  0  0  0  0  0
    1.2749    1.3610   -0.7565 H   0  0  0  0  0  0  0  0  0  0  0  0
   -1.1698   -1.1086   -2.9790 C   0  0  0  0  0  0  0  0  0  0  0  0
   -1.1698   -1.1086   -1.6547 C   0  0  0  0  0  0  0  0  0  0  0  0
   -1.1698    0.0959   -0.7612 C   0  0  0  0  0  3  0  0  0  0  0  0
   -1.1698    1.4417   -1.4689 C   0  0  0  0  0  0  0  0  0  0  0  0
   -1.1698   -0.1917   -3.5565 H   0  0  0  0  0  0  0  0  0  0  0  0
   -1.1698   -2.0359   -3.5377 H   0  0  0  0  0  0  0  0  0  0  0  0
   -1.1698   -2.0643   -1.1365 H   0  0  0  0  0  0  0  0  0  0  0  0
   -0.1265    0.0144    0.0345 H   0  0  0  0  0  0  0  0  0  0  0  0
   -2.0391    0.0280   -0.0981 H   0  0  0  0  0  0  0  0  0  0  0  0
   -2.0522    1.5567   -2.1014 H   0  0  0  0  0  0  0  0  0  0  0  0
   -0.2873    1.5567   -2.1014 H   0  0  0  0  0  0  0  0  0  0  0  0
   -1.1698    2.2560   -0.7436 H   0  0  0  0  0  0  0  0  0  0  0  0
  1  2  3  0
  1  6  1  0
  2  3  1  0
  3  4  1  0
  3  5  1  0
  3 20  1  0
  4  7  1  0
  4  8  1  0
  4  9  1  0
  5 10  1  0
  5 11  1  0
  5 12  1  0
 13 14  2  3
 13 17  1  0
 13 18  1  0
 14 15  1  0
 14 19  1  0
 15 16  1  0
 15 21  1  0
 16 22  1  0
 16 23  1  0
 16 24  1  0
M  RAD  1  15   2
M  END
>  <reaction>  (11) 
rxn_1048

>  <mol_properties>  (11) 
{"1": {"label": "*4", "atom_type": "Ct"}, "2": {"label": "*3", "atom_type": "Cs"}, "13": {"label": "*0", "atom_type": "Cd"}, "14": {"label": "*1", "atom_type": "Cs"}, "19": {"label": "*2", "atom_type": "H0"}}

>  <type>  (11) 
unop_7

>  <geom_source>  (11) 
Heuristics

$$$$

     RDKit          3D

 24 22  0  0  0  0  0  0  0  0999 V2000
    2.7019    1.0510   -0.0745 C   0  0  0  0  0  0  0  0  0  0  0  0
    1.7856    0.4962    0.4621 C   0  0  0  0  0  0  0  0  0  0  0  0
    0.6730   -0.1729    1.1388 C   0  0  0  0  0  0  0  0  0  0  0  0
   -0.2653    0.8497    1.7869 C   0  0  0  0  0  0  0  0  0  0  0  0
    1.1890   -1.1891    2.1622 C   0  0  0  0  0  0  0  0  0  0  0  0
    3.5151    1.5434   -0.5507 H   0  0  0  0  0  0  0  0  0  0  0  0
   -1.1121    0.3399    2.2498 H   0  0  0  0  0  0  0  0  0  0  0  0
   -0.6464    1.5564    1.0498 H   0  0  0  0  0  0  0  0  0  0  0  0
    0.2608    1.4135    2.5593 H   0  0  0  0  0  0  0  0  0  0  0  0
    1.7580   -0.6854    2.9456 H   0  0  0  0  0  0  0  0  0  0  0  0
    1.8383   -1.9268    1.6910 H   0  0  0  0  0  0  0  0  0  0  0  0
    0.3506   -1.7106    2.6273 H   0  0  0  0  0  0  0  0  0  0  0  0
   -1.4127   -1.2143   -2.6699 C   0  0  0  0  0  0  0  0  0  0  0  0
   -1.4127   -1.2143   -1.3455 C   0  0  0  0  0  0  0  0  0  0  0  0
   -1.4127   -0.0098   -0.4521 C   0  0  0  0  0  3  0  0  0  0  0  0
   -1.4127    1.3359   -1.1598 C   0  0  0  0  0  0  0  0  0  0  0  0
   -1.4127   -0.2974   -3.2473 H   0  0  0  0  0  0  0  0  0  0  0  0
   -1.4127   -2.1416   -3.2285 H   0  0  0  0  0  0  0  0  0  0  0  0
   -1.4127   -2.1700   -0.8273 H   0  0  0  0  0  0  0  0  0  0  0  0
   -0.3694   -0.0914    0.3437 H   0  0  0  0  0  0  0  0  0  0  0  0
   -2.2821   -0.0778    0.2111 H   0  0  0  0  0  0  0  0  0  0  0  0
   -2.2951    1.4510   -1.7922 H   0  0  0  0  0  0  0  0  0  0  0  0
   -0.5302    1.4510   -1.7922 H   0  0  0  0  0  0  0  0  0  0  0  0
   -1.4127    2.1503   -0.4345 H   0  0  0  0  0  0  0  0  0  0  0  0
  1  2  3  0
  1  6  1  0
  2  3  1  0
  3  4  1  0
  3  5  1  0
  3 20  1  0
  4  7  1  0
  4  8  1  0
  4  9  1  0
  5 10  1  0
  5 11  1  0
  5 12  1  0
 13 14  2  3
 13 17  1  0
 13 18  1  0
 14 15  1  0
 14 19  1  0
 15 16  1  0
 15 21  1  0
 16 22  1  0
 16 23  1  0
 16 24  1  0
M  RAD  1  15   2
M  END
>  <reaction>  (12) 
rxn_1048

>  <mol_properties>  (12) 
{"1": {"label": "*4", "atom_type": "Ct"}, "2": {"label": "*3", "atom_type": "Cs"}, "13": {"label": "*0", "atom_type": "Cd"}, "14": {"label": "*1", "atom_type": "Cs"}, "19": {"label": "*2", "atom_type": "H0"}}

>  <type>  (12) 
unop_8

>  <geom_source>  (12) 
Heuristics

$$$$

     RDKit          3D

 24 22  0  0  0  0  0  0  0  0999 V2000
    1.3049   -2.3107    1.3718 C   0  0  0  0  0  0  0  0  0  0  0  0
    1.0717   -1.1508    1.1835 C   0  0  0  0  0  0  0  0  0  0  0  0
    0.7996    0.2722    0.9727 C   0  0  0  0  0  0  0  0  0  0  0  0
    2.0976    1.0429    0.7128 C   0  0  0  0  0  0  0  0  0  0  0  0
    0.0247    0.8604    2.1557 C   0  0  0  0  0  0  0  0  0  0  0  0
    1.5119   -3.3402    1.5390 H   0  0  0  0  0  0  0  0  0  0  0  0
    1.8761    2.0931    0.5146 H   0  0  0  0  0  0  0  0  0  0  0  0
    2.6334    0.6336   -0.1435 H   0  0  0  0  0  0  0  0  0  0  0  0
    2.7538    0.9882    1.5832 H   0  0  0  0  0  0  0  0  0  0  0  0
    0.6198    0.8003    3.0686 H   0  0  0  0  0  0  0  0  0  0  0  0
   -0.9082    0.3218    2.3216 H   0  0  0  0  0  0  0  0  0  0  0  0
   -0.2089    1.9095    1.9658 H   0  0  0  0  0  0  0  0  0  0  0  0
   -1.2861   -0.7692   -2.8360 C   0  0  0  0  0  0  0  0  0  0  0  0
   -1.2861   -0.7692   -1.5117 C   0  0  0  0  0  0  0  0  0  0  0  0
   -1.2861    0.4353   -0.6182 C   0  0  0  0  0  3  0  0  0  0  0  0
   -1.2861    1.7810   -1.3259 C   0  0  0  0  0  0  0  0  0  0  0  0
   -1.2861    0.1477   -3.4134 H   0  0  0  0  0  0  0  0  0  0  0  0
   -1.2861   -1.6966   -3.3947 H   0  0  0  0  0  0  0  0  0  0  0  0
   -1.2861   -1.7249   -0.9935 H   0  0  0  0  0  0  0  0  0  0  0  0
   -0.2428    0.3537    0.1775 H   0  0  0  0  0  0  0  0  0  0  0  0
   -2.1555    0.3673    0.0449 H   0  0  0  0  0  0  0  0  0  0  0  0
   -2.1685    1.8961   -1.9583 H   0  0  0  0  0  0  0  0  0  0  0  0
   -0.4036    1.8961   -1.9583 H   0  0  0  0  0  0  0  0  0  0  0  0
   -1.2861    2.5954   -0.6006 H   0  0  0  0  0  0  0  0  0  0  0  0
  1  2  3  0
  1  6  1  0
  2  3  1  0
  3  4  1  0
  3  5  1  0
  3 20  1  0
  4  7  1  0
  4  8  1  0
  4  9  1  0
  5 10  1  0
  5 11  1  0
  5 12  1  0
 13 14  2  3
 13 17  1  0
 13 18  1  0
 14 15  1  0
 14 19  1  0
 15 16  1  0
 15 21  1  0
 16 22  1  0
 16 23  1  0
 16 24  1  0
M  RAD  1  15   2
M  END
>  <reaction>  (13) 
rxn_1048

>  <mol_properties>  (13) 
{"1": {"label": "*4", "atom_type": "Ct"}, "2": {"label": "*3", "atom_type": "Cs"}, "13": {"label": "*0", "atom_type": "Cd"}, "14": {"label": "*1", "atom_type": "Cs"}, "19": {"label": "*2", "atom_type": "H0"}}

>  <type>  (13) 
unop_9

>  <geom_source>  (13) 
Heuristics

$$$$

     RDKit          3D

 24 22  0  0  0  0  0  0  0  0999 V2000
    2.7956   -0.0941   -0.3314 C   0  0  0  0  0  0  0  0  0  0  0  0
    1.8109   -0.0793    0.3510 C   0  0  0  0  0  0  0  0  0  0  0  0
    0.6201   -0.0499    1.2021 C   0  0  0  0  0  0  0  0  0  0  0  0
    0.1923    1.3920    1.4917 C   0  0  0  0  0  0  0  0  0  0  0  0
    0.8544   -0.8366    2.4953 C   0  0  0  0  0  0  0  0  0  0  0  0
    3.6695   -0.1072   -0.9370 H   0  0  0  0  0  0  0  0  0  0  0  0
   -0.7205    1.3987    2.0901 H   0  0  0  0  0  0  0  0  0  0  0  0
    0.0057    1.9400    0.5682 H   0  0  0  0  0  0  0  0  0  0  0  0
    0.9717    1.9163    2.0475 H   0  0  0  0  0  0  0  0  0  0  0  0
    1.6533   -0.3781    3.0806 H   0  0  0  0  0  0  0  0  0  0  0  0
    1.1369   -1.8676    2.2828 H   0  0  0  0  0  0  0  0  0  0  0  0
   -0.0546   -0.8429    3.0995 H   0  0  0  0  0  0  0  0  0  0  0  0
   -1.4656   -1.0913   -2.6066 C   0  0  0  0  0  0  0  0  0  0  0  0
   -1.4656   -1.0913   -1.2823 C   0  0  0  0  0  0  0  0  0  0  0  0
   -1.4656    0.1131   -0.3888 C   0  0  0  0  0  3  0  0  0  0  0  0
   -1.4656    1.4589   -1.0965 C   0  0  0  0  0  0  0  0  0  0  0  0
   -1.4656   -0.1744   -3.1841 H   0  0  0  0  0  0  0  0  0  0  0  0
   -1.4656   -2.0187   -3.1653 H   0  0  0  0  0  0  0  0  0  0  0  0
   -1.4656   -2.0471   -0.7641 H   0  0  0  0  0  0  0  0  0  0  0  0
   -0.4224    0.0316    0.4069 H   0  0  0  0  0  0  0  0  0  0  0  0
   -2.3350    0.0452    0.2743 H   0  0  0  0  0  0  0  0  0  0  0  0
   -2.3481    1.5739   -1.7289 H   0  0  0  0  0  0  0  0  0  0  0  0
   -0.5832    1.5739   -1.7289 H   0  0  0  0  0  0  0  0  0  0  0  0
   -1.4656    2.2733   -0.3712 H   0  0  0  0  0  0  0  0  0  0  0  0
  1  2  3  0
  1  6  1  0
  2  3  1  0
  3  4  1  0
  3  5  1  0
  3 20  1  0
  4  7  1  0
  4  8  1  0
  4  9  1  0
  5 10  1  0
  5 11  1  0
  5 12  1  0
 13 14  2  3
 13 17  1  0
 13 18  1  0
 14 15  1  0
 14 19  1  0
 15 16  1  0
 15 21  1  0
 16 22  1  0
 16 23  1  0
 16 24  1  0
M  RAD  1  15   2
M  END
>  <reaction>  (14) 
rxn_1048

>  <mol_properties>  (14) 
{"1": {"label": "*4", "atom_type": "Ct"}, "2": {"label": "*3", "atom_type": "Cs"}, "13": {"label": "*0", "atom_type": "Cd"}, "14": {"label": "*1", "atom_type": "Cs"}, "19": {"label": "*2", "atom_type": "H0"}}

>  <type>  (14) 
unop_10

>  <geom_source>  (14) 
Heuristics

$$$$

     RDKit          3D

 24 22  0  0  0  0  0  0  0  0999 V2000
    0.2226    1.0856    3.1523 C   0  0  0  0  0  0  0  0  0  0  0  0
    0.4955    0.5305    2.1262 C   0  0  0  0  0  0  0  0  0  0  0  0
    0.8522   -0.1431    0.8763 C   0  0  0  0  0  0  0  0  0  0  0  0
    1.7495   -1.3547    1.1465 C   0  0  0  0  0  0  0  0  0  0  0  0
    1.5093    0.8352   -0.1021 C   0  0  0  0  0  0  0  0  0  0  0  0
   -0.0196    1.5782    4.0629 H   0  0  0  0  0  0  0  0  0  0  0  0
    1.9717   -1.8719    0.2114 H   0  0  0  0  0  0  0  0  0  0  0  0
    1.2674   -2.0575    1.8258 H   0  0  0  0  0  0  0  0  0  0  0  0
    2.6920   -1.0378    1.5965 H   0  0  0  0  0  0  0  0  0  0  0  0
    2.4447    1.2166    0.3111 H   0  0  0  0  0  0  0  0  0  0  0  0
    0.8570    1.6839   -0.3075 H   0  0  0  0  0  0  0  0  0  0  0  0
    1.7300    0.3306   -1.0444 H   0  0  0  0  0  0  0  0  0  0  0  0
   -1.2335   -1.1845   -2.9324 C   0  0  0  0  0  0  0  0  0  0  0  0
   -1.2335   -1.1845   -1.6081 C   0  0  0  0  0  0  0  0  0  0  0  0
   -1.2335    0.0200   -0.7146 C   0  0  0  0  0  3  0  0  0  0  0  0
   -1.2335    1.3657   -1.4223 C   0  0  0  0  0  0  0  0  0  0  0  0
   -1.2335   -0.2676   -3.5098 H   0  0  0  0  0  0  0  0  0  0  0  0
   -1.2335   -2.1118   -3.4911 H   0  0  0  0  0  0  0  0  0  0  0  0
   -1.2335   -2.1402   -1.0899 H   0  0  0  0  0  0  0  0  0  0  0  0
   -0.1902   -0.0616    0.0811 H   0  0  0  0  0  0  0  0  0  0  0  0
   -2.1029   -0.0480   -0.0515 H   0  0  0  0  0  0  0  0  0  0  0  0
   -2.1160    1.4808   -2.0547 H   0  0  0  0  0  0  0  0  0  0  0  0
   -0.3511    1.4808   -2.0547 H   0  0  0  0  0  0  0  0  0  0  0  0
   -1.2335    2.1801   -0.6970 H   0  0  0  0  0  0  0  0  0  0  0  0
  1  2  3  0
  1  6  1  0
  2  3  1  0
  3  4  1  0
  3  5  1  0
  3 20  1  0
  4  7  1  0
  4  8  1  0
  4  9  1  0
  5 10  1  0
  5 11  1  0
  5 12  1  0
 13 14  2  3
 13 17  1  0
 13 18  1  0
 14 15  1  0
 14 19  1  0
 15 16  1  0
 15 21  1  0
 16 22  1  0
 16 23  1  0
 16 24  1  0
M  RAD  1  15   2
M  END
>  <reaction>  (15) 
rxn_1048

>  <mol_properties>  (15) 
{"1": {"label": "*4", "atom_type": "Ct"}, "2": {"label": "*3", "atom_type": "Cs"}, "13": {"label": "*0", "atom_type": "Cd"}, "14": {"label": "*1", "atom_type": "Cs"}, "19": {"label": "*2", "atom_type": "H0"}}

>  <type>  (15) 
unop_11

>  <geom_source>  (15) 
Heuristics

$$$$

     RDKit          3D

 24 22  0  0  0  0  0  0  0  0999 V2000
    1.9853   -2.0059    0.4987 C   0  0  0  0  0  0  0  0  0  0  0  0
    1.3946   -0.9973    0.7620 C   0  0  0  0  0  0  0  0  0  0  0  0
    0.6890    0.2399    1.1006 C   0  0  0  0  0  0  0  0  0  0  0  0
    1.5781    1.4613    0.8483 C   0  0  0  0  0  0  0  0  0  0  0  0
    0.1844    0.2018    2.5463 C   0  0  0  0  0  0  0  0  0  0  0  0
    2.5096   -2.9010    0.2651 H   0  0  0  0  0  0  0  0  0  0  0  0
    1.0253    2.3776    1.0633 H   0  0  0  0  0  0  0  0  0  0  0  0
    1.9158    1.4948   -0.1875 H   0  0  0  0  0  0  0  0  0  0  0  0
    2.4583    1.4315    1.4928 H   0  0  0  0  0  0  0  0  0  0  0  0
    1.0235    0.1347    3.2410 H   0  0  0  0  0  0  0  0  0  0  0  0
   -0.4653   -0.6572    2.7137 H   0  0  0  0  0  0  0  0  0  0  0  0
   -0.3764    1.1107    2.7712 H   0  0  0  0  0  0  0  0  0  0  0  0
   -1.3968   -0.8015   -2.7081 C   0  0  0  0  0  0  0  0  0  0  0  0
   -1.3968   -0.8015   -1.3837 C   0  0  0  0  0  0  0  0  0  0  0  0
   -1.3968    0.4030   -0.4903 C   0  0  0  0  0  3  0  0  0  0  0  0
   -1.3967    1.7487   -1.1980 C   0  0  0  0  0  0  0  0  0  0  0  0
   -1.3968    0.1154   -3.2855 H   0  0  0  0  0  0  0  0  0  0  0  0
   -1.3968   -1.7289   -3.2668 H   0  0  0  0  0  0  0  0  0  0  0  0
   -1.3968   -1.7573   -0.8655 H   0  0  0  0  0  0  0  0  0  0  0  0
   -0.3535    0.3214    0.3055 H   0  0  0  0  0  0  0  0  0  0  0  0
   -2.2661    0.3350    0.1729 H   0  0  0  0  0  0  0  0  0  0  0  0
   -2.2792    1.8637   -1.8304 H   0  0  0  0  0  0  0  0  0  0  0  0
   -0.5143    1.8637   -1.8304 H   0  0  0  0  0  0  0  0  0  0  0  0
   -1.3967    2.5631   -0.4727 H   0  0  0  0  0  0  0  0  0  0  0  0
  1  2  3  0
  1  6  1  0
  2  3  1  0
  3  4  1  0
  3  5  1  0
  3 20  1  0
  4  7  1  0
  4  8  1  0
  4  9  1  0
  5 10  1  0
  5 11  1  0
  5 12  1  0
 13 14  2  3
 13 17  1  0
 13 18  1  0
 14 15  1  0
 14 19  1  0
 15 16  1  0
 15 21  1  0
 16 22  1  0
 16 23  1  0
 16 24  1  0
M  RAD  1  15   2
M  END
>  <reaction>  (16) 
rxn_1048

>  <mol_properties>  (16) 
{"1": {"label": "*4", "atom_type": "Ct"}, "2": {"label": "*3", "atom_type": "Cs"}, "13": {"label": "*0", "atom_type": "Cd"}, "14": {"label": "*1", "atom_type": "Cs"}, "19": {"label": "*2", "atom_type": "H0"}}

>  <type>  (16) 
unop_12

>  <geom_source>  (16) 
Heuristics

$$$$

     RDKit          3D

 24 22  0  0  0  0  0  0  0  0999 V2000
   -1.1601    0.2298    0.1252 C   0  0  0  0  0  0  0  0  0  0  0  0
   -1.1972    1.4662    1.0244 C   0  0  0  0  0  0  0  0  0  0  0  0
   -1.8083   -0.9707    0.8163 C   0  0  0  0  0  0  0  0  0  0  0  0
    1.8179   -1.9747    0.4730 C   0  0  0  0  0  0  0  0  0  0  0  0
    1.3437   -0.5398    0.2828 C   0  0  0  0  0  3  0  0  0  0  0  0
    2.1528    0.1797   -0.7574 C   0  0  0  0  0  0  0  0  0  0  0  0
    1.8259    1.4172   -1.1329 C   0  0  0  0  0  0  0  0  0  0  0  0
   -1.8441    0.5099   -1.1465 C   0  0  0  0  0  0  0  0  0  0  0  0
   -2.4038    0.7394   -2.1895 C   0  0  0  0  0  0  0  0  0  0  0  0
    0.0817   -0.0597   -0.1318 H   0  0  0  0  0  0  0  0  0  0  0  0
   -0.6528    1.2633    1.9710 H   0  0  0  0  0  0  0  0  0  0  0  0
   -2.2452    1.7486    1.2653 H   0  0  0  0  0  0  0  0  0  0  0  0
   -0.7006    2.3211    0.5173 H   0  0  0  0  0  0  0  0  0  0  0  0
   -2.8751   -0.7632    1.0507 H   0  0  0  0  0  0  0  0  0  0  0  0
   -1.7505   -1.8652    0.1597 H   0  0  0  0  0  0  0  0  0  0  0  0
   -1.2707   -1.2006    1.7606 H   0  0  0  0  0  0  0  0  0  0  0  0
    1.1810   -2.4739    1.2325 H   0  0  0  0  0  0  0  0  0  0  0  0
    2.8726   -1.9902    0.8218 H   0  0  0  0  0  0  0  0  0  0  0  0
    1.7346   -2.5340   -0.4829 H   0  0  0  0  0  0  0  0  0  0  0  0
    1.3993    0.0056    1.2496 H   0  0  0  0  0  0  0  0  0  0  0  0
    3.0065   -0.3057   -1.2232 H   0  0  0  0  0  0  0  0  0  0  0  0
    0.9751    1.9281   -0.6917 H   0  0  0  0  0  0  0  0  0  0  0  0
    2.4125    1.9282   -1.8894 H   0  0  0  0  0  0  0  0  0  0  0  0
   -2.8952    0.9408   -3.1048 H   0  0  0  0  0  0  0  0  0  0  0  0
  1  2  1  0
  1  3  1  0
  1  8  1  0
  1 10  1  0
  2 11  1  0
  2 12  1  0
  2 13  1  0
  3 14  1  0
  3 15  1  0
  3 16  1  0
  4  5  1  0
  4 17  1  0
  4 18  1  0
  4 19  1  0
  5  6  1  0
  5 20  1  0
  6  7  2  3
  6 21  1  0
  7 22  1  0
  7 23  1  0
  8  9  3  0
  9 24  1  0
M  RAD  1   5   2
M  END
>  <reaction>  (17) 
rxn_1048

>  <mol_properties>  (17) 
{"1": {"label": "*4", "atom_type": "Ct"}, "2": {"label": "*3", "atom_type": "Cs"}, "13": {"label": "*0", "atom_type": "Cd"}, "14": {"label": "*1", "atom_type": "Cs"}, "19": {"label": "*2", "atom_type": "H0"}}

>  <type>  (17) 
unop_13

>  <geom_source>  (17) 
AutoTST

$$$$
