
     RDKit          3D

 11 10  0  0  0  0  0  0  0  0999 V2000
   -1.2710    0.1907   -0.2084 C   0  0  0  0  0  0  0  0  0  0  0  0
    0.0202   -0.6130   -0.2928 C   0  0  0  0  0  0  0  0  0  0  0  0
    0.1086   -1.6953    0.7756 C   0  0  0  0  0  0  0  0  0  0  0  0
   -1.3607    0.6851    0.7620 H   0  0  0  0  0  0  0  0  0  0  0  0
   -2.1429   -0.4567   -0.3299 H   0  0  0  0  0  0  0  0  0  0  0  0
   -1.3158    0.9602   -0.9809 H   0  0  0  0  0  0  0  0  0  0  0  0
    0.8757    0.0616   -0.1992 H   0  0  0  0  0  0  0  0  0  0  0  0
    0.0997   -1.0712   -1.2825 H   0  0  0  0  0  0  0  0  0  0  0  0
   -0.7198   -2.4022    0.6850 H   0  0  0  0  0  0  0  0  0  0  0  0
    1.0395   -2.2596    0.6989 H   0  0  0  0  0  0  0  0  0  0  0  0
    0.0624   -1.2603    1.7770 H   0  0  0  0  0  0  0  0  0  0  0  0
  1  2  1  0
  1  4  1  0
  1  5  1  0
  1  6  1  0
  2  3  1  0
  2  7  1  0
  2  8  1  0
  3  9  1  0
  3 10  1  0
  3 11  1  0
M  END
>  <reaction>  (1) 
rxn_924

>  <mol_properties>  (1) 
{"2": {"label": "donator", "atom_type": "Cs"}, "3": {"label": "d_hydrogen", "atom_type": "H0"}}

>  <type>  (1) 
r1h

$$$$

     RDKit          3D

 17 17  0  0  0  0  0  0  0  0999 V2000
    2.7069    0.2860   -0.1817 C   0  0  0  0  0  0  0  0  0  0  0  0
    1.6304   -0.7245    0.0085 C   0  0  0  0  0  0  0  0  0  0  0  0
    1.4786   -1.8800   -0.7837 C   0  0  0  0  0  0  0  0  0  0  0  0
    0.4231   -2.7891   -0.5312 C   0  0  0  0  0  3  0  0  0  0  0  0
    0.2582   -3.9235   -1.2940 C   0  0  0  0  0  0  0  0  0  0  0  0
    1.1348   -4.2030   -2.3401 C   0  0  0  0  0  0  0  0  0  0  0  0
    2.1804   -3.3260   -2.6093 C   0  0  0  0  0  0  0  0  0  0  0  0
    2.3549   -2.1866   -1.8513 C   0  0  0  0  0  0  0  0  0  0  0  0
    2.6698    0.7343   -1.1808 H   0  0  0  0  0  0  0  0  0  0  0  0
    3.7029   -0.1584   -0.0766 H   0  0  0  0  0  0  0  0  0  0  0  0
    2.6250    1.0917    0.5463 H   0  0  0  0  0  0  0  0  0  0  0  0
    0.9136   -0.5677    0.8059 H   0  0  0  0  0  0  0  0  0  0  0  0
   -0.2629   -2.5783    0.2811 H   0  0  0  0  0  0  0  0  0  0  0  0
   -0.5582   -4.6017   -1.0785 H   0  0  0  0  0  0  0  0  0  0  0  0
    1.0033   -5.0952   -2.9384 H   0  0  0  0  0  0  0  0  0  0  0  0
    2.8650   -3.5382   -3.4214 H   0  0  0  0  0  0  0  0  0  0  0  0
    3.1750   -1.5169   -2.0772 H   0  0  0  0  0  0  0  0  0  0  0  0
  1  2  1  0
  1  9  1  0
  1 10  1  0
  1 11  1  0
  2  3  2  3
  2 12  1  0
  3  4  1  0
  3  8  1  0
  4  5  1  0
  4 13  1  0
  5  6  2  0
  5 14  1  0
  6  7  1  0
  6 15  1  0
  7  8  2  0
  7 16  1  0
  8 17  1  0
M  RAD  1   4   2
M  END
>  <reaction>  (2) 
rxn_924

>  <mol_properties>  (2) 
{"0": {"label": "acceptor", "atom_type": "Cs"}}

>  <type>  (2) 
r2

$$$$

     RDKit          3D

 18 18  0  0  0  0  0  0  0  0999 V2000
   -2.4852    0.3210   -0.3966 C   0  0  0  0  0  0  0  0  0  0  0  0
   -1.5917   -0.2708    0.6941 C   0  0  0  0  0  0  0  0  0  0  0  0
   -0.1292   -0.1692    0.3493 C   0  0  0  0  0  0  0  0  0  0  0  0
    0.6099    0.9558    0.7015 C   0  0  0  0  0  0  0  0  0  0  0  0
    1.9447    1.0728    0.3458 C   0  0  0  0  0  0  0  0  0  0  0  0
    2.5646    0.0613   -0.3720 C   0  0  0  0  0  0  0  0  0  0  0  0
    1.8399   -1.0657   -0.7287 C   0  0  0  0  0  0  0  0  0  0  0  0
    0.5055   -1.1769   -0.3700 C   0  0  0  0  0  0  0  0  0  0  0  0
   -2.3325   -0.1971   -1.3452 H   0  0  0  0  0  0  0  0  0  0  0  0
   -2.2554    1.3763   -0.5546 H   0  0  0  0  0  0  0  0  0  0  0  0
   -3.5397    0.2376   -0.1280 H   0  0  0  0  0  0  0  0  0  0  0  0
   -1.7801    0.2462    1.6380 H   0  0  0  0  0  0  0  0  0  0  0  0
   -1.8568   -1.3190    0.8516 H   0  0  0  0  0  0  0  0  0  0  0  0
    0.1327    1.7497    1.2656 H   0  0  0  0  0  0  0  0  0  0  0  0
    2.5033    1.9550    0.6330 H   0  0  0  0  0  0  0  0  0  0  0  0
    3.6077    0.1491   -0.6484 H   0  0  0  0  0  0  0  0  0  0  0  0
    2.3163   -1.8632   -1.2854 H   0  0  0  0  0  0  0  0  0  0  0  0
   -0.0540   -2.0629   -0.6500 H   0  0  0  0  0  0  0  0  0  0  0  0
  1  2  1  0
  1  9  1  0
  1 10  1  0
  1 11  1  0
  2  3  1  0
  2 12  1  0
  2 13  1  0
  3  4  2  0
  3  8  1  0
  4  5  1  0
  4 14  1  0
  5  6  2  0
  5 15  1  0
  6  7  1  0
  6 16  1  0
  7  8  2  0
  7 17  1  0
  8 18  1  0
M  END
>  <reaction>  (3) 
rxn_924

>  <mol_properties>  (3) 
{"0": {"label": "acceptor", "atom_type": "Cs"}, "8": {"label": "a_hydrogen", "atom_type": "H0"}}

>  <type>  (3) 
r2h

$$$$

     RDKit          3D

 28 27  0  0  0  0  0  0  0  0999 V2000
   -0.0619   -1.4358    0.4462 C   0  0  0  0  0  0  0  0  0  0  0  0
   -0.0891   -2.5787   -0.5400 C   0  0  0  0  0  0  0  0  0  0  0  0
    1.9259    0.5049   -1.3872 C   0  0  0  0  0  0  0  0  0  0  0  0
    2.4081    0.7887    1.1047 C   0  0  0  0  0  0  0  0  0  0  0  0
   -1.0623   -0.3589    0.3228 C   0  0  0  0  0  0  0  0  0  0  0  0
    2.2445   -0.1376   -0.0670 C   0  0  0  0  0  3  0  0  0  0  0  0
   -1.2991    0.4948    1.4059 C   0  0  0  0  0  0  0  0  0  0  0  0
   -1.7481   -0.1029   -0.8670 C   0  0  0  0  0  0  0  0  0  0  0  0
   -2.1766    1.5587    1.3048 C   0  0  0  0  0  0  0  0  0  0  0  0
   -2.8470    1.8008    0.1130 C   0  0  0  0  0  0  0  0  0  0  0  0
   -2.6290    0.9623   -0.9691 C   0  0  0  0  0  0  0  0  0  0  0  0
    1.0806   -0.8554    0.2375 H   0  0  0  0  0  0  0  0  0  0  0  0
    0.0500   -1.7693    1.4781 H   0  0  0  0  0  0  0  0  0  0  0  0
    0.0809   -2.2336   -1.5623 H   0  0  0  0  0  0  0  0  0  0  0  0
   -1.0476   -3.1057   -0.5245 H   0  0  0  0  0  0  0  0  0  0  0  0
    0.6950   -3.3000   -0.3068 H   0  0  0  0  0  0  0  0  0  0  0  0
    1.0279    1.1235   -1.3099 H   0  0  0  0  0  0  0  0  0  0  0  0
    1.7570   -0.2395   -2.1674 H   0  0  0  0  0  0  0  0  0  0  0  0
    2.7433    1.1547   -1.7223 H   0  0  0  0  0  0  0  0  0  0  0  0
    2.5368    0.2384    2.0386 H   0  0  0  0  0  0  0  0  0  0  0  0
    3.2827    1.4384    0.9808 H   0  0  0  0  0  0  0  0  0  0  0  0
    1.5338    1.4367    1.2090 H   0  0  0  0  0  0  0  0  0  0  0  0
    2.9961   -0.9250   -0.1224 H   0  0  0  0  0  0  0  0  0  0  0  0
   -0.7800    0.3135    2.3406 H   0  0  0  0  0  0  0  0  0  0  0  0
   -2.3420    2.2021    2.1603 H   0  0  0  0  0  0  0  0  0  0  0  0
   -3.5357    2.6319    0.0316 H   0  0  0  0  0  0  0  0  0  0  0  0
   -3.1500    1.1371   -1.9025 H   0  0  0  0  0  0  0  0  0  0  0  0
   -1.5945   -0.7439   -1.7256 H   0  0  0  0  0  0  0  0  0  0  0  0
  1  2  1  0
  1  5  1  0
  1 12  1  0
  1 13  1  0
  2 14  1  0
  2 15  1  0
  2 16  1  0
  3  6  1  0
  3 17  1  0
  3 18  1  0
  3 19  1  0
  4  6  1  0
  4 20  1  0
  4 21  1  0
  4 22  1  0
  5  7  2  0
  5  8  1  0
  6 23  1  0
  7  9  1  0
  7 24  1  0
  8 11  2  0
  8 28  1  0
  9 10  2  0
  9 25  1  0
 10 11  1  0
 10 26  1  0
 11 27  1  0
M  RAD  1   6   2
M  END
>  <reaction>  (4) 
rxn_924

>  <mol_properties>  (4) 
{"0": {"label": "*1", "atom_type": "Cs"}, "2": {"label": "*4", "atom_type": "Cs"}, "4": {"label": "*0", "atom_type": "Cd"}, "5": {"label": "*3", "atom_type": "Cs"}, "11": {"label": "*2", "atom_type": "H0"}}

>  <type>  (4) 
ts

$$$$

     RDKit          3D

 28 27  0  0  0  0  0  0  0  0999 V2000
    0.6040    1.5124    1.5860 C   0  0  0  0  0  0  0  0  0  0  0  0
   -0.2607    0.5799    0.7368 C   0  0  0  0  0  0  0  0  0  0  0  0
    0.5058   -0.6221    0.2509 C   0  0  0  0  0  0  0  0  0  0  0  0
    0.5700   -1.7832    1.0147 C   0  0  0  0  0  0  0  0  0  0  0  0
    1.3122   -2.8752    0.5921 C   0  0  0  0  0  0  0  0  0  0  0  0
    2.0059   -2.8227   -0.6073 C   0  0  0  0  0  0  0  0  0  0  0  0
    1.9499   -1.6719   -1.3787 C   0  0  0  0  0  0  0  0  0  0  0  0
    1.2059   -0.5832   -0.9508 C   0  0  0  0  0  0  0  0  0  0  0  0
    1.4594    1.8753    1.0131 H   0  0  0  0  0  0  0  0  0  0  0  0
    0.9902    0.9899    2.4631 H   0  0  0  0  0  0  0  0  0  0  0  0
    0.0308    2.3759    1.9277 H   0  0  0  0  0  0  0  0  0  0  0  0
   -1.1222    0.2501    1.3223 H   0  0  0  0  0  0  0  0  0  0  0  0
    0.0275   -1.8329    1.9525 H   0  0  0  0  0  0  0  0  0  0  0  0
    1.3460   -3.7711    1.1996 H   0  0  0  0  0  0  0  0  0  0  0  0
    2.5838   -3.6753   -0.9409 H   0  0  0  0  0  0  0  0  0  0  0  0
    2.4846   -1.6226   -2.3192 H   0  0  0  0  0  0  0  0  0  0  0  0
    1.1644    0.3124   -1.5611 H   0  0  0  0  0  0  0  0  0  0  0  0
   -2.3586    1.8906   -1.6598 C   0  0  0  0  0  0  0  0  0  0  0  0
   -2.3586    1.8906   -0.1364 C   0  0  0  0  0  3  0  0  0  0  0  0
   -2.3586    3.2964    0.4503 C   0  0  0  0  0  0  0  0  0  0  0  0
   -1.4772    2.4048   -2.0504 H   0  0  0  0  0  0  0  0  0  0  0  0
   -3.2401    2.4048   -2.0504 H   0  0  0  0  0  0  0  0  0  0  0  0
   -2.3586    0.8757   -2.0609 H   0  0  0  0  0  0  0  0  0  0  0  0
   -1.3092    1.2349    0.3004 H   0  0  0  0  0  0  0  0  0  0  0  0
   -3.2332    1.3442    0.2276 H   0  0  0  0  0  0  0  0  0  0  0  0
   -3.2401    3.8549    0.1262 H   0  0  0  0  0  0  0  0  0  0  0  0
   -2.3586    3.2757    1.5414 H   0  0  0  0  0  0  0  0  0  0  0  0
   -1.4772    3.8549    0.1262 H   0  0  0  0  0  0  0  0  0  0  0  0
  1  2  1  0
  1  9  1  0
  1 10  1  0
  1 11  1  0
  2  3  1  0
  2 12  1  0
  2 24  1  0
  3  4  2  0
  3  8  1  0
  4  5  1  0
  4 13  1  0
  5  6  2  0
  5 14  1  0
  6  7  1  0
  6 15  1  0
  7  8  2  0
  7 16  1  0
  8 17  1  0
 18 19  1  0
 18 21  1  0
 18 22  1  0
 18 23  1  0
 19 20  1  0
 19 25  1  0
 20 26  1  0
 20 27  1  0
 20 28  1  0
M  RAD  1  19   2
M  END
>  <reaction>  (5) 
rxn_924

>  <mol_properties>  (5) 
{"0": {"label": "*1", "atom_type": "Cs"}, "2": {"label": "*4", "atom_type": "Cs"}, "4": {"label": "*0", "atom_type": "Cd"}, "5": {"label": "*3", "atom_type": "Cs"}, "11": {"label": "*2", "atom_type": "H0"}}

>  <type>  (5) 
unop_1

>  <geom_source>  (5) 
Heuristics

$$$$

     RDKit          3D

 28 27  0  0  0  0  0  0  0  0999 V2000
    1.7063    0.9981   -1.1227 C   0  0  0  0  0  0  0  0  0  0  0  0
    0.5652    0.8607   -0.1142 C   0  0  0  0  0  0  0  0  0  0  0  0
    0.4784   -0.5282    0.4618 C   0  0  0  0  0  0  0  0  0  0  0  0
    1.1963   -0.8731    1.6026 C   0  0  0  0  0  0  0  0  0  0  0  0
    1.1547   -2.1629    2.1090 C   0  0  0  0  0  0  0  0  0  0  0  0
    0.3907   -3.1335    1.4790 C   0  0  0  0  0  0  0  0  0  0  0  0
   -0.3304   -2.8030    0.3416 C   0  0  0  0  0  0  0  0  0  0  0  0
   -0.2848   -1.5114   -0.1600 C   0  0  0  0  0  0  0  0  0  0  0  0
    1.5735    0.3032   -1.9541 H   0  0  0  0  0  0  0  0  0  0  0  0
    2.6662    0.7741   -0.6537 H   0  0  0  0  0  0  0  0  0  0  0  0
    1.7521    2.0104   -1.5278 H   0  0  0  0  0  0  0  0  0  0  0  0
    0.7063    1.5820    0.6943 H   0  0  0  0  0  0  0  0  0  0  0  0
    1.7937   -0.1186    2.1027 H   0  0  0  0  0  0  0  0  0  0  0  0
    1.7179   -2.4100    3.0005 H   0  0  0  0  0  0  0  0  0  0  0  0
    0.3543   -4.1407    1.8743 H   0  0  0  0  0  0  0  0  0  0  0  0
   -0.9336   -3.5528   -0.1551 H   0  0  0  0  0  0  0  0  0  0  0  0
   -0.8539   -1.2597   -1.0482 H   0  0  0  0  0  0  0  0  0  0  0  0
   -1.5328    2.1714   -2.5107 C   0  0  0  0  0  0  0  0  0  0  0  0
   -1.5328    2.1714   -0.9874 C   0  0  0  0  0  3  0  0  0  0  0  0
   -1.5328    3.5772   -0.4007 C   0  0  0  0  0  0  0  0  0  0  0  0
   -0.6513    2.6857   -2.9014 H   0  0  0  0  0  0  0  0  0  0  0  0
   -2.4142    2.6857   -2.9014 H   0  0  0  0  0  0  0  0  0  0  0  0
   -1.5328    1.1565   -2.9119 H   0  0  0  0  0  0  0  0  0  0  0  0
   -0.4833    1.5158   -0.5506 H   0  0  0  0  0  0  0  0  0  0  0  0
   -2.4073    1.6250   -0.6234 H   0  0  0  0  0  0  0  0  0  0  0  0
   -2.4142    4.1358   -0.7248 H   0  0  0  0  0  0  0  0  0  0  0  0
   -1.5328    3.5565    0.6904 H   0  0  0  0  0  0  0  0  0  0  0  0
   -0.6513    4.1358   -0.7248 H   0  0  0  0  0  0  0  0  0  0  0  0
  1  2  1  0
  1  9  1  0
  1 10  1  0
  1 11  1  0
  2  3  1  0
  2 12  1  0
  2 24  1  0
  3  4  2  0
  3  8  1  0
  4  5  1  0
  4 13  1  0
  5  6  2  0
  5 14  1  0
  6  7  1  0
  6 15  1  0
  7  8  2  0
  7 16  1  0
  8 17  1  0
 18 19  1  0
 18 21  1  0
 18 22  1  0
 18 23  1  0
 19 20  1  0
 19 25  1  0
 20 26  1  0
 20 27  1  0
 20 28  1  0
M  RAD  1  19   2
M  END
>  <reaction>  (6) 
rxn_924

>  <mol_properties>  (6) 
{"0": {"label": "*1", "atom_type": "Cs"}, "2": {"label": "*4", "atom_type": "Cs"}, "4": {"label": "*0", "atom_type": "Cd"}, "5": {"label": "*3", "atom_type": "Cs"}, "11": {"label": "*2", "atom_type": "H0"}}

>  <type>  (6) 
unop_2

>  <geom_source>  (6) 
Heuristics

$$$$

     RDKit          3D

 28 27  0  0  0  0  0  0  0  0999 V2000
   -0.1727    0.5468    2.3281 C   0  0  0  0  0  0  0  0  0  0  0  0
   -0.6086   -0.0312    0.9812 C   0  0  0  0  0  0  0  0  0  0  0  0
    0.5517   -0.5854    0.1971 C   0  0  0  0  0  0  0  0  0  0  0  0
    0.9512   -1.9089    0.3544 C   0  0  0  0  0  0  0  0  0  0  0  0
    2.0470   -2.4098   -0.3313 C   0  0  0  0  0  0  0  0  0  0  0  0
    2.7646   -1.5905   -1.1896 C   0  0  0  0  0  0  0  0  0  0  0  0
    2.3767   -0.2697   -1.3562 C   0  0  0  0  0  0  0  0  0  0  0  0
    1.2800    0.2253   -0.6677 C   0  0  0  0  0  0  0  0  0  0  0  0
    0.5474    1.3550    2.1874 H   0  0  0  0  0  0  0  0  0  0  0  0
    0.3048   -0.2196    2.9415 H   0  0  0  0  0  0  0  0  0  0  0  0
   -1.0269    0.9427    2.8801 H   0  0  0  0  0  0  0  0  0  0  0  0
   -1.3466   -0.8198    1.1462 H   0  0  0  0  0  0  0  0  0  0  0  0
    0.3930   -2.5566    1.0216 H   0  0  0  0  0  0  0  0  0  0  0  0
    2.3392   -3.4440   -0.1977 H   0  0  0  0  0  0  0  0  0  0  0  0
    3.6189   -1.9802   -1.7284 H   0  0  0  0  0  0  0  0  0  0  0  0
    2.9279    0.3769   -2.0277 H   0  0  0  0  0  0  0  0  0  0  0  0
    0.9808    1.2586   -0.8057 H   0  0  0  0  0  0  0  0  0  0  0  0
   -2.7066    1.2795   -1.4154 C   0  0  0  0  0  0  0  0  0  0  0  0
   -2.7066    1.2795    0.1080 C   0  0  0  0  0  3  0  0  0  0  0  0
   -2.7066    2.6853    0.6947 C   0  0  0  0  0  0  0  0  0  0  0  0
   -1.8251    1.7938   -1.8060 H   0  0  0  0  0  0  0  0  0  0  0  0
   -3.5880    1.7938   -1.8060 H   0  0  0  0  0  0  0  0  0  0  0  0
   -2.7066    0.2646   -1.8165 H   0  0  0  0  0  0  0  0  0  0  0  0
   -1.6571    0.6239    0.5448 H   0  0  0  0  0  0  0  0  0  0  0  0
   -3.5811    0.7332    0.4720 H   0  0  0  0  0  0  0  0  0  0  0  0
   -3.5880    3.2439    0.3705 H   0  0  0  0  0  0  0  0  0  0  0  0
   -2.7066    2.6647    1.7858 H   0  0  0  0  0  0  0  0  0  0  0  0
   -1.8251    3.2439    0.3705 H   0  0  0  0  0  0  0  0  0  0  0  0
  1  2  1  0
  1  9  1  0
  1 10  1  0
  1 11  1  0
  2  3  1  0
  2 12  1  0
  2 24  1  0
  3  4  2  0
  3  8  1  0
  4  5  1  0
  4 13  1  0
  5  6  2  0
  5 14  1  0
  6  7  1  0
  6 15  1  0
  7  8  2  0
  7 16  1  0
  8 17  1  0
 18 19  1  0
 18 21  1  0
 18 22  1  0
 18 23  1  0
 19 20  1  0
 19 25  1  0
 20 26  1  0
 20 27  1  0
 20 28  1  0
M  RAD  1  19   2
M  END
>  <reaction>  (7) 
rxn_924

>  <mol_properties>  (7) 
{"0": {"label": "*1", "atom_type": "Cs"}, "2": {"label": "*4", "atom_type": "Cs"}, "4": {"label": "*0", "atom_type": "Cd"}, "5": {"label": "*3", "atom_type": "Cs"}, "11": {"label": "*2", "atom_type": "H0"}}

>  <type>  (7) 
unop_3

>  <geom_source>  (7) 
Heuristics

$$$$

     RDKit          3D

 28 27  0  0  0  0  0  0  0  0999 V2000
    1.2677   -1.9536   -1.4465 C   0  0  0  0  0  0  0  0  0  0  0  0
    1.3194   -0.5132   -0.9357 C   0  0  0  0  0  0  0  0  0  0  0  0
    0.6289   -0.3553    0.3934 C   0  0  0  0  0  0  0  0  0  0  0  0
    1.3241   -0.5396    1.5844 C   0  0  0  0  0  0  0  0  0  0  0  0
    0.6813   -0.4401    2.8086 C   0  0  0  0  0  0  0  0  0  0  0  0
   -0.6743   -0.1534    2.8613 C   0  0  0  0  0  0  0  0  0  0  0  0
   -1.3791    0.0335    1.6819 C   0  0  0  0  0  0  0  0  0  0  0  0
   -0.7306   -0.0673    0.4607 C   0  0  0  0  0  0  0  0  0  0  0  0
    0.2344   -2.2835   -1.5695 H   0  0  0  0  0  0  0  0  0  0  0  0
    1.7503   -2.6320   -0.7405 H   0  0  0  0  0  0  0  0  0  0  0  0
    1.7728   -2.0467   -2.4094 H   0  0  0  0  0  0  0  0  0  0  0  0
    2.3614   -0.1975   -0.8446 H   0  0  0  0  0  0  0  0  0  0  0  0
    2.3853   -0.7611    1.5513 H   0  0  0  0  0  0  0  0  0  0  0  0
    1.2415   -0.5834    3.7243 H   0  0  0  0  0  0  0  0  0  0  0  0
   -1.1779   -0.0723    3.8162 H   0  0  0  0  0  0  0  0  0  0  0  0
   -2.4372    0.2622    1.7126 H   0  0  0  0  0  0  0  0  0  0  0  0
   -1.2879    0.0833   -0.4575 H   0  0  0  0  0  0  0  0  0  0  0  0
   -0.7786    0.7974   -3.3323 C   0  0  0  0  0  0  0  0  0  0  0  0
   -0.7786    0.7974   -1.8090 C   0  0  0  0  0  3  0  0  0  0  0  0
   -0.7786    2.2032   -1.2222 C   0  0  0  0  0  0  0  0  0  0  0  0
    0.1029    1.3117   -3.7229 H   0  0  0  0  0  0  0  0  0  0  0  0
   -1.6600    1.3117   -3.7229 H   0  0  0  0  0  0  0  0  0  0  0  0
   -0.7786   -0.2175   -3.7334 H   0  0  0  0  0  0  0  0  0  0  0  0
    0.2709    0.1418   -1.3721 H   0  0  0  0  0  0  0  0  0  0  0  0
   -1.6531    0.2511   -1.4449 H   0  0  0  0  0  0  0  0  0  0  0  0
   -1.6600    2.7618   -1.5464 H   0  0  0  0  0  0  0  0  0  0  0  0
   -0.7786    2.1826   -0.1311 H   0  0  0  0  0  0  0  0  0  0  0  0
    0.1029    2.7618   -1.5464 H   0  0  0  0  0  0  0  0  0  0  0  0
  1  2  1  0
  1  9  1  0
  1 10  1  0
  1 11  1  0
  2  3  1  0
  2 12  1  0
  2 24  1  0
  3  4  2  0
  3  8  1  0
  4  5  1  0
  4 13  1  0
  5  6  2  0
  5 14  1  0
  6  7  1  0
  6 15  1  0
  7  8  2  0
  7 16  1  0
  8 17  1  0
 18 19  1  0
 18 21  1  0
 18 22  1  0
 18 23  1  0
 19 20  1  0
 19 25  1  0
 20 26  1  0
 20 27  1  0
 20 28  1  0
M  RAD  1  19   2
M  END
>  <reaction>  (8) 
rxn_924

>  <mol_properties>  (8) 
{"0": {"label": "*1", "atom_type": "Cs"}, "2": {"label": "*4", "atom_type": "Cs"}, "4": {"label": "*0", "atom_type": "Cd"}, "5": {"label": "*3", "atom_type": "Cs"}, "11": {"label": "*2", "atom_type": "H0"}}

>  <type>  (8) 
unop_4

>  <geom_source>  (8) 
Heuristics

$$$$

     RDKit          3D

 28 27  0  0  0  0  0  0  0  0999 V2000
   -0.6513   -1.1481    2.2729 C   0  0  0  0  0  0  0  0  0  0  0  0
   -0.6505   -1.1486    0.7438 C   0  0  0  0  0  0  0  0  0  0  0  0
    0.5997   -0.5311    0.1748 C   0  0  0  0  0  0  0  0  0  0  0  0
    1.7287   -1.3058   -0.0722 C   0  0  0  0  0  0  0  0  0  0  0  0
    2.8961   -0.7329   -0.5527 C   0  0  0  0  0  0  0  0  0  0  0  0
    2.9532    0.6312   -0.7949 C   0  0  0  0  0  0  0  0  0  0  0  0
    1.8349    1.4148   -0.5538 C   0  0  0  0  0  0  0  0  0  0  0  0
    0.6704    0.8361   -0.0733 C   0  0  0  0  0  0  0  0  0  0  0  0
   -0.5800   -0.1297    2.6595 H   0  0  0  0  0  0  0  0  0  0  0  0
    0.2007   -1.7100    2.6603 H   0  0  0  0  0  0  0  0  0  0  0  0
   -1.5645   -1.5991    2.6650 H   0  0  0  0  0  0  0  0  0  0  0  0
   -0.7477   -2.1745    0.3810 H   0  0  0  0  0  0  0  0  0  0  0  0
    1.6907   -2.3739    0.1119 H   0  0  0  0  0  0  0  0  0  0  0  0
    3.7627   -1.3542   -0.7421 H   0  0  0  0  0  0  0  0  0  0  0  0
    3.8627    1.0804   -1.1730 H   0  0  0  0  0  0  0  0  0  0  0  0
    1.8680    2.4805   -0.7440 H   0  0  0  0  0  0  0  0  0  0  0  0
   -0.2011    1.4550    0.1099 H   0  0  0  0  0  0  0  0  0  0  0  0
   -2.7485    0.1621   -1.6527 C   0  0  0  0  0  0  0  0  0  0  0  0
   -2.7485    0.1621   -0.1294 C   0  0  0  0  0  3  0  0  0  0  0  0
   -2.7485    1.5679    0.4573 C   0  0  0  0  0  0  0  0  0  0  0  0
   -1.8671    0.6764   -2.0434 H   0  0  0  0  0  0  0  0  0  0  0  0
   -3.6300    0.6764   -2.0434 H   0  0  0  0  0  0  0  0  0  0  0  0
   -2.7485   -0.8528   -2.0539 H   0  0  0  0  0  0  0  0  0  0  0  0
   -1.6991   -0.4935    0.3074 H   0  0  0  0  0  0  0  0  0  0  0  0
   -3.6231   -0.3842    0.2346 H   0  0  0  0  0  0  0  0  0  0  0  0
   -3.6300    2.1265    0.1332 H   0  0  0  0  0  0  0  0  0  0  0  0
   -2.7485    1.5473    1.5484 H   0  0  0  0  0  0  0  0  0  0  0  0
   -1.8671    2.1265    0.1332 H   0  0  0  0  0  0  0  0  0  0  0  0
  1  2  1  0
  1  9  1  0
  1 10  1  0
  1 11  1  0
  2  3  1  0
  2 12  1  0
  2 24  1  0
  3  4  2  0
  3  8  1  0
  4  5  1  0
  4 13  1  0
  5  6  2  0
  5 14  1  0
  6  7  1  0
  6 15  1  0
  7  8  2  0
  7 16  1  0
  8 17  1  0
 18 19  1  0
 18 21  1  0
 18 22  1  0
 18 23  1  0
 19 20  1  0
 19 25  1  0
 20 26  1  0
 20 27  1  0
 20 28  1  0
M  RAD  1  19   2
M  END
>  <reaction>  (9) 
rxn_924

>  <mol_properties>  (9) 
{"0": {"label": "*1", "atom_type": "Cs"}, "2": {"label": "*4", "atom_type": "Cs"}, "4": {"label": "*0", "atom_type": "Cd"}, "5": {"label": "*3", "atom_type": "Cs"}, "11": {"label": "*2", "atom_type": "H0"}}

>  <type>  (9) 
unop_5

>  <geom_source>  (9) 
Heuristics

$$$$

     RDKit          3D

 28 27  0  0  0  0  0  0  0  0999 V2000
    0.7254   -2.6641   -0.7034 C   0  0  0  0  0  0  0  0  0  0  0  0
    1.0831   -1.1871   -0.8726 C   0  0  0  0  0  0  0  0  0  0  0  0
    0.6621   -0.3598    0.3134 C   0  0  0  0  0  0  0  0  0  0  0  0
    1.5141   -0.1853    1.3994 C   0  0  0  0  0  0  0  0  0  0  0  0
    1.1128    0.5373    2.5124 C   0  0  0  0  0  0  0  0  0  0  0  0
   -0.1540    1.0995    2.5571 C   0  0  0  0  0  0  0  0  0  0  0  0
   -1.0129    0.9339    1.4812 C   0  0  0  0  0  0  0  0  0  0  0  0
   -0.6057    0.2103    0.3711 C   0  0  0  0  0  0  0  0  0  0  0  0
   -0.3518   -2.7894   -0.5786 H   0  0  0  0  0  0  0  0  0  0  0  0
    1.2122   -3.0813    0.1801 H   0  0  0  0  0  0  0  0  0  0  0  0
    1.0384   -3.2456   -1.5724 H   0  0  0  0  0  0  0  0  0  0  0  0
    2.1612   -1.0892   -1.0207 H   0  0  0  0  0  0  0  0  0  0  0  0
    2.5076   -0.6194    1.3704 H   0  0  0  0  0  0  0  0  0  0  0  0
    1.7925    0.6647    3.3457 H   0  0  0  0  0  0  0  0  0  0  0  0
   -0.4686    1.6666    3.4239 H   0  0  0  0  0  0  0  0  0  0  0  0
   -2.0026    1.3729    1.5047 H   0  0  0  0  0  0  0  0  0  0  0  0
   -1.2820    0.0877   -0.4679 H   0  0  0  0  0  0  0  0  0  0  0  0
   -1.0149    0.1236   -3.2692 C   0  0  0  0  0  0  0  0  0  0  0  0
   -1.0149    0.1236   -1.7459 C   0  0  0  0  0  3  0  0  0  0  0  0
   -1.0149    1.5294   -1.1591 C   0  0  0  0  0  0  0  0  0  0  0  0
   -0.1334    0.6378   -3.6598 H   0  0  0  0  0  0  0  0  0  0  0  0
   -1.8963    0.6378   -3.6598 H   0  0  0  0  0  0  0  0  0  0  0  0
   -1.0149   -0.8913   -3.6703 H   0  0  0  0  0  0  0  0  0  0  0  0
    0.0346   -0.5320   -1.3090 H   0  0  0  0  0  0  0  0  0  0  0  0
   -1.8894   -0.4228   -1.3819 H   0  0  0  0  0  0  0  0  0  0  0  0
   -1.8963    2.0880   -1.4833 H   0  0  0  0  0  0  0  0  0  0  0  0
   -1.0149    1.5087   -0.0680 H   0  0  0  0  0  0  0  0  0  0  0  0
   -0.1334    2.0880   -1.4833 H   0  0  0  0  0  0  0  0  0  0  0  0
  1  2  1  0
  1  9  1  0
  1 10  1  0
  1 11  1  0
  2  3  1  0
  2 12  1  0
  2 24  1  0
  3  4  2  0
  3  8  1  0
  4  5  1  0
  4 13  1  0
  5  6  2  0
  5 14  1  0
  6  7  1  0
  6 15  1  0
  7  8  2  0
  7 16  1  0
  8 17  1  0
 18 19  1  0
 18 21  1  0
 18 22  1  0
 18 23  1  0
 19 20  1  0
 19 25  1  0
 20 26  1  0
 20 27  1  0
 20 28  1  0
M  RAD  1  19   2
M  END
>  <reaction>  (10) 
rxn_924

>  <mol_properties>  (10) 
{"0": {"label": "*1", "atom_type": "Cs"}, "2": {"label": "*4", "atom_type": "Cs"}, "4": {"label": "*0", "atom_type": "Cd"}, "5": {"label": "*3", "atom_type": "Cs"}, "11": {"label": "*2", "atom_type": "H0"}}

>  <type>  (10) 
unop_6

>  <geom_source>  (10) 
Heuristics

$$$$

     RDKit          3D

 28 27  0  0  0  0  0  0  0  0999 V2000
    0.1781   -2.8714    0.3012 C   0  0  0  0  0  0  0  0  0  0  0  0
    0.6370   -1.6855   -0.5480 C   0  0  0  0  0  0  0  0  0  0  0  0
    0.6681   -0.4009    0.2376 C   0  0  0  0  0  0  0  0  0  0  0  0
    1.8085   -0.0210    0.9383 C   0  0  0  0  0  0  0  0  0  0  0  0
    1.8255    1.1375    1.6995 C   0  0  0  0  0  0  0  0  0  0  0  0
    0.6961    1.9386    1.7726 C   0  0  0  0  0  0  0  0  0  0  0  0
   -0.4470    1.5721    1.0785 C   0  0  0  0  0  0  0  0  0  0  0  0
   -0.4578    0.4124    0.3190 C   0  0  0  0  0  0  0  0  0  0  0  0
   -0.8256   -2.7002    0.6945 H   0  0  0  0  0  0  0  0  0  0  0  0
    0.8464   -3.0200    1.1514 H   0  0  0  0  0  0  0  0  0  0  0  0
    0.1625   -3.7914   -0.2857 H   0  0  0  0  0  0  0  0  0  0  0  0
    1.6319   -1.8904   -0.9504 H   0  0  0  0  0  0  0  0  0  0  0  0
    2.6967   -0.6409    0.8834 H   0  0  0  0  0  0  0  0  0  0  0  0
    2.7246    1.4174    2.2344 H   0  0  0  0  0  0  0  0  0  0  0  0
    0.7079    2.8453    2.3640 H   0  0  0  0  0  0  0  0  0  0  0  0
   -1.3328    2.1934    1.1256 H   0  0  0  0  0  0  0  0  0  0  0  0
   -1.3547    0.1340   -0.2237 H   0  0  0  0  0  0  0  0  0  0  0  0
   -1.4610   -0.3748   -2.9445 C   0  0  0  0  0  0  0  0  0  0  0  0
   -1.4610   -0.3748   -1.4212 C   0  0  0  0  0  3  0  0  0  0  0  0
   -1.4610    1.0310   -0.8345 C   0  0  0  0  0  0  0  0  0  0  0  0
   -0.5795    0.1395   -3.3352 H   0  0  0  0  0  0  0  0  0  0  0  0
   -2.3424    0.1395   -3.3352 H   0  0  0  0  0  0  0  0  0  0  0  0
   -1.4610   -1.3897   -3.3457 H   0  0  0  0  0  0  0  0  0  0  0  0
   -0.4115   -1.0304   -0.9844 H   0  0  0  0  0  0  0  0  0  0  0  0
   -2.3355   -0.9211   -1.0572 H   0  0  0  0  0  0  0  0  0  0  0  0
   -2.3424    1.5896   -1.1586 H   0  0  0  0  0  0  0  0  0  0  0  0
   -1.4610    1.0104    0.2566 H   0  0  0  0  0  0  0  0  0  0  0  0
   -0.5795    1.5896   -1.1586 H   0  0  0  0  0  0  0  0  0  0  0  0
  1  2  1  0
  1  9  1  0
  1 10  1  0
  1 11  1  0
  2  3  1  0
  2 12  1  0
  2 24  1  0
  3  4  2  0
  3  8  1  0
  4  5  1  0
  4 13  1  0
  5  6  2  0
  5 14  1  0
  6  7  1  0
  6 15  1  0
  7  8  2  0
  7 16  1  0
  8 17  1  0
 18 19  1  0
 18 21  1  0
 18 22  1  0
 18 23  1  0
 19 20  1  0
 19 25  1  0
 20 26  1  0
 20 27  1  0
 20 28  1  0
M  RAD  1  19   2
M  END
>  <reaction>  (11) 
rxn_924

>  <mol_properties>  (11) 
{"0": {"label": "*1", "atom_type": "Cs"}, "2": {"label": "*4", "atom_type": "Cs"}, "4": {"label": "*0", "atom_type": "Cd"}, "5": {"label": "*3", "atom_type": "Cs"}, "11": {"label": "*2", "atom_type": "H0"}}

>  <type>  (11) 
unop_7

>  <geom_source>  (11) 
Heuristics

$$$$

     RDKit          3D

 28 27  0  0  0  0  0  0  0  0999 V2000
    1.1873    1.7764    0.5810 C   0  0  0  0  0  0  0  0  0  0  0  0
    0.0168    0.8072    0.4118 C   0  0  0  0  0  0  0  0  0  0  0  0
    0.4719   -0.6259    0.3268 C   0  0  0  0  0  0  0  0  0  0  0  0
    0.6200   -1.3963    1.4758 C   0  0  0  0  0  0  0  0  0  0  0  0
    1.0825   -2.7013    1.4053 C   0  0  0  0  0  0  0  0  0  0  0  0
    1.4061   -3.2594    0.1779 C   0  0  0  0  0  0  0  0  0  0  0  0
    1.2623   -2.5030   -0.9753 C   0  0  0  0  0  0  0  0  0  0  0  0
    0.7993   -1.1985   -0.8983 C   0  0  0  0  0  0  0  0  0  0  0  0
    1.8787    1.6985   -0.2601 H   0  0  0  0  0  0  0  0  0  0  0  0
    1.7464    1.5525    1.4914 H   0  0  0  0  0  0  0  0  0  0  0  0
    0.8368    2.8083    0.6405 H   0  0  0  0  0  0  0  0  0  0  0  0
   -0.6732    0.9210    1.2513 H   0  0  0  0  0  0  0  0  0  0  0  0
    0.3660   -0.9677    2.4392 H   0  0  0  0  0  0  0  0  0  0  0  0
    1.1871   -3.2854    2.3113 H   0  0  0  0  0  0  0  0  0  0  0  0
    1.7646   -4.2792    0.1200 H   0  0  0  0  0  0  0  0  0  0  0  0
    1.5081   -2.9312   -1.9391 H   0  0  0  0  0  0  0  0  0  0  0  0
    0.6865   -0.6141   -1.8049 H   0  0  0  0  0  0  0  0  0  0  0  0
   -2.0812    2.1179   -1.9848 C   0  0  0  0  0  0  0  0  0  0  0  0
   -2.0812    2.1179   -0.4614 C   0  0  0  0  0  3  0  0  0  0  0  0
   -2.0812    3.5237    0.1253 C   0  0  0  0  0  0  0  0  0  0  0  0
   -1.1998    2.6321   -2.3754 H   0  0  0  0  0  0  0  0  0  0  0  0
   -2.9627    2.6321   -2.3754 H   0  0  0  0  0  0  0  0  0  0  0  0
   -2.0812    1.1030   -2.3859 H   0  0  0  0  0  0  0  0  0  0  0  0
   -1.0318    1.4623   -0.0246 H   0  0  0  0  0  0  0  0  0  0  0  0
   -2.9558    1.5715   -0.0974 H   0  0  0  0  0  0  0  0  0  0  0  0
   -2.9627    4.0823   -0.1989 H   0  0  0  0  0  0  0  0  0  0  0  0
   -2.0812    3.5030    1.2164 H   0  0  0  0  0  0  0  0  0  0  0  0
   -1.1998    4.0823   -0.1989 H   0  0  0  0  0  0  0  0  0  0  0  0
  1  2  1  0
  1  9  1  0
  1 10  1  0
  1 11  1  0
  2  3  1  0
  2 12  1  0
  2 24  1  0
  3  4  2  0
  3  8  1  0
  4  5  1  0
  4 13  1  0
  5  6  2  0
  5 14  1  0
  6  7  1  0
  6 15  1  0
  7  8  2  0
  7 16  1  0
  8 17  1  0
 18 19  1  0
 18 21  1  0
 18 22  1  0
 18 23  1  0
 19 20  1  0
 19 25  1  0
 20 26  1  0
 20 27  1  0
 20 28  1  0
M  RAD  1  19   2
M  END
>  <reaction>  (12) 
rxn_924

>  <mol_properties>  (12) 
{"0": {"label": "*1", "atom_type": "Cs"}, "2": {"label": "*4", "atom_type": "Cs"}, "4": {"label": "*0", "atom_type": "Cd"}, "5": {"label": "*3", "atom_type": "Cs"}, "11": {"label": "*2", "atom_type": "H0"}}

>  <type>  (12) 
unop_8

>  <geom_source>  (12) 
Heuristics

$$$$

     RDKit          3D

 28 27  0  0  0  0  0  0  0  0999 V2000
    1.6592   -0.9118   -1.7593 C   0  0  0  0  0  0  0  0  0  0  0  0
    1.2822    0.1740   -0.7508 C   0  0  0  0  0  0  0  0  0  0  0  0
    0.5772   -0.3891    0.4551 C   0  0  0  0  0  0  0  0  0  0  0  0
    1.2970   -0.8210    1.5647 C   0  0  0  0  0  0  0  0  0  0  0  0
    0.6548   -1.3820    2.6578 C   0  0  0  0  0  0  0  0  0  0  0  0
   -0.7248   -1.5209    2.6582 C   0  0  0  0  0  0  0  0  0  0  0  0
   -1.4545   -1.0938    1.5592 C   0  0  0  0  0  0  0  0  0  0  0  0
   -0.8065   -0.5336    0.4692 C   0  0  0  0  0  0  0  0  0  0  0  0
    0.7700   -1.4378   -2.1119 H   0  0  0  0  0  0  0  0  0  0  0  0
    2.3219   -1.6498   -1.3036 H   0  0  0  0  0  0  0  0  0  0  0  0
    2.1683   -0.4838   -2.6246 H   0  0  0  0  0  0  0  0  0  0  0  0
    2.1839    0.7022   -0.4318 H   0  0  0  0  0  0  0  0  0  0  0  0
    2.3761   -0.7127    1.5729 H   0  0  0  0  0  0  0  0  0  0  0  0
    1.2332   -1.7084    3.5132 H   0  0  0  0  0  0  0  0  0  0  0  0
   -1.2288   -1.9560    3.5119 H   0  0  0  0  0  0  0  0  0  0  0  0
   -2.5328   -1.1939    1.5518 H   0  0  0  0  0  0  0  0  0  0  0  0
   -1.3843   -0.1990   -0.3855 H   0  0  0  0  0  0  0  0  0  0  0  0
   -0.8158    1.4846   -3.1473 C   0  0  0  0  0  0  0  0  0  0  0  0
   -0.8158    1.4846   -1.6240 C   0  0  0  0  0  3  0  0  0  0  0  0
   -0.8158    2.8905   -1.0373 C   0  0  0  0  0  0  0  0  0  0  0  0
    0.0657    1.9989   -3.5380 H   0  0  0  0  0  0  0  0  0  0  0  0
   -1.6972    1.9989   -3.5380 H   0  0  0  0  0  0  0  0  0  0  0  0
   -0.8158    0.4697   -3.5485 H   0  0  0  0  0  0  0  0  0  0  0  0
    0.2337    0.8290   -1.1872 H   0  0  0  0  0  0  0  0  0  0  0  0
   -1.6903    0.9383   -1.2600 H   0  0  0  0  0  0  0  0  0  0  0  0
   -1.6972    3.4490   -1.3614 H   0  0  0  0  0  0  0  0  0  0  0  0
   -0.8158    2.8698    0.0538 H   0  0  0  0  0  0  0  0  0  0  0  0
    0.0657    3.4490   -1.3614 H   0  0  0  0  0  0  0  0  0  0  0  0
  1  2  1  0
  1  9  1  0
  1 10  1  0
  1 11  1  0
  2  3  1  0
  2 12  1  0
  2 24  1  0
  3  4  2  0
  3  8  1  0
  4  5  1  0
  4 13  1  0
  5  6  2  0
  5 14  1  0
  6  7  1  0
  6 15  1  0
  7  8  2  0
  7 16  1  0
  8 17  1  0
 18 19  1  0
 18 21  1  0
 18 22  1  0
 18 23  1  0
 19 20  1  0
 19 25  1  0
 20 26  1  0
 20 27  1  0
 20 28  1  0
M  RAD  1  19   2
M  END
>  <reaction>  (13) 
rxn_924

>  <mol_properties>  (13) 
{"0": {"label": "*1", "atom_type": "Cs"}, "2": {"label": "*4", "atom_type": "Cs"}, "4": {"label": "*0", "atom_type": "Cd"}, "5": {"label": "*3", "atom_type": "Cs"}, "11": {"label": "*2", "atom_type": "H0"}}

>  <type>  (13) 
unop_9

>  <geom_source>  (13) 
Heuristics

$$$$

     RDKit          3D

 28 27  0  0  0  0  0  0  0  0999 V2000
    1.5272    1.5540   -0.3735 C   0  0  0  0  0  0  0  0  0  0  0  0
    0.2555    0.8758    0.1373 C   0  0  0  0  0  0  0  0  0  0  0  0
    0.4609   -0.5921    0.4045 C   0  0  0  0  0  0  0  0  0  0  0  0
    0.8992   -1.0359    1.6482 C   0  0  0  0  0  0  0  0  0  0  0  0
    1.1333   -2.3818    1.8837 C   0  0  0  0  0  0  0  0  0  0  0  0
    0.9319   -3.3102    0.8736 C   0  0  0  0  0  0  0  0  0  0  0  0
    0.4944   -2.8815   -0.3704 C   0  0  0  0  0  0  0  0  0  0  0  0
    0.2620   -1.5342   -0.5998 C   0  0  0  0  0  0  0  0  0  0  0  0
    1.8647    1.0927   -1.3035 H   0  0  0  0  0  0  0  0  0  0  0  0
    2.3348    1.4604    0.3550 H   0  0  0  0  0  0  0  0  0  0  0  0
    1.3575    2.6157   -0.5608 H   0  0  0  0  0  0  0  0  0  0  0  0
   -0.0765    1.3698    1.0536 H   0  0  0  0  0  0  0  0  0  0  0  0
    1.0560   -0.3160    2.4441 H   0  0  0  0  0  0  0  0  0  0  0  0
    1.4705   -2.7071    2.8601 H   0  0  0  0  0  0  0  0  0  0  0  0
    1.1112   -4.3621    1.0560 H   0  0  0  0  0  0  0  0  0  0  0  0
    0.3298   -3.5993   -1.1645 H   0  0  0  0  0  0  0  0  0  0  0  0
   -0.0831   -1.2069   -1.5745 H   0  0  0  0  0  0  0  0  0  0  0  0
   -1.8425    2.1865   -2.2592 C   0  0  0  0  0  0  0  0  0  0  0  0
   -1.8425    2.1865   -0.7359 C   0  0  0  0  0  3  0  0  0  0  0  0
   -1.8425    3.5923   -0.1492 C   0  0  0  0  0  0  0  0  0  0  0  0
   -0.9611    2.7007   -2.6499 H   0  0  0  0  0  0  0  0  0  0  0  0
   -2.7240    2.7007   -2.6499 H   0  0  0  0  0  0  0  0  0  0  0  0
   -1.8425    1.1716   -2.6604 H   0  0  0  0  0  0  0  0  0  0  0  0
   -0.7931    1.5309   -0.2991 H   0  0  0  0  0  0  0  0  0  0  0  0
   -2.7171    1.6401   -0.3719 H   0  0  0  0  0  0  0  0  0  0  0  0
   -2.7240    4.1509   -0.4733 H   0  0  0  0  0  0  0  0  0  0  0  0
   -1.8425    3.5716    0.9419 H   0  0  0  0  0  0  0  0  0  0  0  0
   -0.9611    4.1509   -0.4733 H   0  0  0  0  0  0  0  0  0  0  0  0
  1  2  1  0
  1  9  1  0
  1 10  1  0
  1 11  1  0
  2  3  1  0
  2 12  1  0
  2 24  1  0
  3  4  2  0
  3  8  1  0
  4  5  1  0
  4 13  1  0
  5  6  2  0
  5 14  1  0
  6  7  1  0
  6 15  1  0
  7  8  2  0
  7 16  1  0
  8 17  1  0
 18 19  1  0
 18 21  1  0
 18 22  1  0
 18 23  1  0
 19 20  1  0
 19 25  1  0
 20 26  1  0
 20 27  1  0
 20 28  1  0
M  RAD  1  19   2
M  END
>  <reaction>  (14) 
rxn_924

>  <mol_properties>  (14) 
{"0": {"label": "*1", "atom_type": "Cs"}, "2": {"label": "*4", "atom_type": "Cs"}, "4": {"label": "*0", "atom_type": "Cd"}, "5": {"label": "*3", "atom_type": "Cs"}, "11": {"label": "*2", "atom_type": "H0"}}

>  <type>  (14) 
unop_10

>  <geom_source>  (14) 
Heuristics

$$$$

     RDKit          3D

 28 26  0  0  0  0  0  0  0  0999 V2000
   -0.3360   -2.4589    1.3758 C   0  0  0  0  0  0  0  0  0  0  0  0
   -0.0078   -1.8137    0.0289 C   0  0  0  0  0  0  0  0  0  0  0  0
    0.6444   -0.4655    0.1872 C   0  0  0  0  0  0  0  0  0  0  0  0
    2.0266   -0.3507    0.2978 C   0  0  0  0  0  0  0  0  0  0  0  0
    2.6270    0.8840    0.4895 C   0  0  0  0  0  0  0  0  0  0  0  0
    1.8504    2.0296    0.5745 C   0  0  0  0  0  0  0  0  0  0  0  0
    0.4717    1.9296    0.4652 C   0  0  0  0  0  0  0  0  0  0  0  0
   -0.1228    0.6920    0.2734 C   0  0  0  0  0  3  0  0  0  0  0  0
   -1.0162   -1.8282    1.9513 H   0  0  0  0  0  0  0  0  0  0  0  0
    0.5696   -2.5975    1.9693 H   0  0  0  0  0  0  0  0  0  0  0  0
   -0.8074   -3.4338    1.2394 H   0  0  0  0  0  0  0  0  0  0  0  0
    0.6529   -2.4735   -0.5384 H   0  0  0  0  0  0  0  0  0  0  0  0
    2.6408   -1.2419    0.2291 H   0  0  0  0  0  0  0  0  0  0  0  0
    3.7049    0.9523    0.5693 H   0  0  0  0  0  0  0  0  0  0  0  0
    2.3172    2.9953    0.7213 H   0  0  0  0  0  0  0  0  0  0  0  0
   -0.1432    2.8190    0.5258 H   0  0  0  0  0  0  0  0  0  0  0  0
   -1.2015    0.6220    0.1857 H   0  0  0  0  0  0  0  0  0  0  0  0
   -2.1058   -0.5030   -2.3677 C   0  0  0  0  0  0  0  0  0  0  0  0
   -2.1058   -0.5030   -0.8444 C   0  0  0  0  0  2  0  0  0  0  0  0
   -2.1058    0.9028   -0.2576 C   0  0  0  0  0  0  0  0  0  0  0  0
   -1.2244    0.0112   -2.7583 H   0  0  0  0  0  0  0  0  0  0  0  0
   -2.9873    0.0112   -2.7583 H   0  0  0  0  0  0  0  0  0  0  0  0
   -2.1058   -1.5179   -2.7688 H   0  0  0  0  0  0  0  0  0  0  0  0
   -1.0564   -1.1587   -0.4076 H   0  0  0  0  0  0  0  0  0  0  0  0
   -2.9803   -1.0494   -0.4804 H   0  0  0  0  0  0  0  0  0  0  0  0
   -2.9873    1.4613   -0.5818 H   0  0  0  0  0  0  0  0  0  0  0  0
   -2.1058    0.8821    0.8335 H   0  0  0  0  0  0  0  0  0  0  0  0
   -1.2244    1.4613   -0.5818 H   0  0  0  0  0  0  0  0  0  0  0  0
  1  2  1  0
  1  9  1  0
  1 10  1  0
  1 11  1  0
  2  3  1  0
  2 12  1  0
  2 24  1  0
  3  4  2  0
  3  8  1  0
  4  5  1  0
  4 13  1  0
  5  6  2  0
  5 14  1  0
  6  7  1  0
  6 15  1  0
  7  8  2  0
  7 16  1  0
 17 20  1  0
 18 19  1  0
 18 21  1  0
 18 22  1  0
 18 23  1  0
 19 25  1  0
 20 26  1  0
 20 27  1  0
 20 28  1  0
M  RAD  2   8   2  19   3
M  END
>  <reaction>  (15) 
rxn_924

>  <mol_properties>  (15) 
{"0": {"label": "*1", "atom_type": "Cs"}, "2": {"label": "*4", "atom_type": "Cs"}, "4": {"label": "*0", "atom_type": "Cd"}, "5": {"label": "*3", "atom_type": "Cs"}, "11": {"label": "*2", "atom_type": "H0"}}

>  <type>  (15) 
unop_11

>  <geom_source>  (15) 
Heuristics

$$$$

     RDKit          3D

 28 27  0  0  0  0  0  0  0  0999 V2000
    1.7823    0.1580   -1.6133 C   0  0  0  0  0  0  0  0  0  0  0  0
    0.9687    0.6663   -0.4225 C   0  0  0  0  0  0  0  0  0  0  0  0
    0.5214   -0.4528    0.4807 C   0  0  0  0  0  0  0  0  0  0  0  0
    1.3241   -0.8849    1.5317 C   0  0  0  0  0  0  0  0  0  0  0  0
    0.9363   -1.9448    2.3367 C   0  0  0  0  0  0  0  0  0  0  0  0
   -0.2668   -2.5929    2.1019 C   0  0  0  0  0  0  0  0  0  0  0  0
   -1.0768   -2.1719    1.0582 C   0  0  0  0  0  0  0  0  0  0  0  0
   -0.6835   -1.1114    0.2567 C   0  0  0  0  0  0  0  0  0  0  0  0
    1.1942   -0.5374   -2.2150 H   0  0  0  0  0  0  0  0  0  0  0  0
    2.6754   -0.3703   -1.2744 H   0  0  0  0  0  0  0  0  0  0  0  0
    2.0965    0.9833   -2.2547 H   0  0  0  0  0  0  0  0  0  0  0  0
    1.5683    1.3784    0.1495 H   0  0  0  0  0  0  0  0  0  0  0  0
    2.2651   -0.3809    1.7235 H   0  0  0  0  0  0  0  0  0  0  0  0
    1.5739   -2.2633    3.1522 H   0  0  0  0  0  0  0  0  0  0  0  0
   -0.5731   -3.4190    2.7310 H   0  0  0  0  0  0  0  0  0  0  0  0
   -2.0204   -2.6688    0.8695 H   0  0  0  0  0  0  0  0  0  0  0  0
   -1.3239   -0.7857   -0.5558 H   0  0  0  0  0  0  0  0  0  0  0  0
   -1.1293    1.9770   -2.8191 C   0  0  0  0  0  0  0  0  0  0  0  0
   -1.1293    1.9770   -1.2958 C   0  0  0  0  0  3  0  0  0  0  0  0
   -1.1293    3.3828   -0.7091 C   0  0  0  0  0  0  0  0  0  0  0  0
   -0.2478    2.4913   -3.2097 H   0  0  0  0  0  0  0  0  0  0  0  0
   -2.0107    2.4912   -3.2097 H   0  0  0  0  0  0  0  0  0  0  0  0
   -1.1293    0.9621   -3.2203 H   0  0  0  0  0  0  0  0  0  0  0  0
   -0.0798    1.3214   -0.8590 H   0  0  0  0  0  0  0  0  0  0  0  0
   -2.0038    1.4306   -0.9318 H   0  0  0  0  0  0  0  0  0  0  0  0
   -2.0107    3.9414   -1.0332 H   0  0  0  0  0  0  0  0  0  0  0  0
   -1.1293    3.3621    0.3820 H   0  0  0  0  0  0  0  0  0  0  0  0
   -0.2478    3.9414   -1.0332 H   0  0  0  0  0  0  0  0  0  0  0  0
  1  2  1  0
  1  9  1  0
  1 10  1  0
  1 11  1  0
  2  3  1  0
  2 12  1  0
  2 24  1  0
  3  4  2  0
  3  8  1  0
  4  5  1  0
  4 13  1  0
  5  6  2  0
  5 14  1  0
  6  7  1  0
  6 15  1  0
  7  8  2  0
  7 16  1  0
  8 17  1  0
 18 19  1  0
 18 21  1  0
 18 22  1  0
 18 23  1  0
 19 20  1  0
 19 25  1  0
 20 26  1  0
 20 27  1  0
 20 28  1  0
M  RAD  1  19   2
M  END
>  <reaction>  (16) 
rxn_924

>  <mol_properties>  (16) 
{"0": {"label": "*1", "atom_type": "Cs"}, "2": {"label": "*4", "atom_type": "Cs"}, "4": {"label": "*0", "atom_type": "Cd"}, "5": {"label": "*3", "atom_type": "Cs"}, "11": {"label": "*2", "atom_type": "H0"}}

>  <type>  (16) 
unop_12

>  <geom_source>  (16) 
Heuristics

$$$$

     RDKit          3D

 28 27  0  0  0  0  0  0  0  0999 V2000
   -0.1333   -1.0043    0.1947 C   0  0  0  0  0  0  0  0  0  0  0  0
    0.1997   -2.0872    1.2138 C   0  0  0  0  0  0  0  0  0  0  0  0
   -3.1234   -0.5832    0.3129 C   0  0  0  0  0  0  0  0  0  0  0  0
   -2.1501    1.6180   -0.4380 C   0  0  0  0  0  0  0  0  0  0  0  0
    1.1026   -0.2451   -0.2010 C   0  0  0  0  0  0  0  0  0  0  0  0
   -2.1752    0.5588    0.6570 C   0  0  0  0  0  0  0  0  0  0  0  0
    1.4889    0.8973    0.5181 C   0  0  0  0  0  3  0  0  0  0  0  0
    1.9080   -0.6996   -1.2587 C   0  0  0  0  0  0  0  0  0  0  0  0
    2.6541    1.5877    0.1692 C   0  0  0  0  0  0  0  0  0  0  0  0
    3.4441    1.1375   -0.8924 C   0  0  0  0  0  0  0  0  0  0  0  0
    3.0723   -0.0063   -1.6044 C   0  0  0  0  0  0  0  0  0  0  0  0
   -0.5992   -1.4710   -0.7005 H   0  0  0  0  0  0  0  0  0  0  0  0
   -1.0667   -0.1356    0.7466 H   0  0  0  0  0  0  0  0  0  0  0  0
    0.9219   -2.8140    0.7841 H   0  0  0  0  0  0  0  0  0  0  0  0
    0.6350   -1.6316    2.1286 H   0  0  0  0  0  0  0  0  0  0  0  0
   -0.7283   -2.6280    1.4937 H   0  0  0  0  0  0  0  0  0  0  0  0
   -4.1621   -0.2044    0.2052 H   0  0  0  0  0  0  0  0  0  0  0  0
   -2.8070   -1.0711   -0.6331 H   0  0  0  0  0  0  0  0  0  0  0  0
   -3.0989   -1.3379    1.1262 H   0  0  0  0  0  0  0  0  0  0  0  0
   -1.4371    2.4203   -0.1557 H   0  0  0  0  0  0  0  0  0  0  0  0
   -3.1593    2.0635   -0.5684 H   0  0  0  0  0  0  0  0  0  0  0  0
   -1.8166    1.1686   -1.3971 H   0  0  0  0  0  0  0  0  0  0  0  0
   -2.4750    1.0206    1.6223 H   0  0  0  0  0  0  0  0  0  0  0  0
    0.8908    1.2516    1.3484 H   0  0  0  0  0  0  0  0  0  0  0  0
    2.9463    2.4700    0.7238 H   0  0  0  0  0  0  0  0  0  0  0  0
    4.3461    1.6723   -1.1604 H   0  0  0  0  0  0  0  0  0  0  0  0
    3.6879   -0.3577   -2.4224 H   0  0  0  0  0  0  0  0  0  0  0  0
    1.6348   -1.5892   -1.8127 H   0  0  0  0  0  0  0  0  0  0  0  0
  1  2  1  0
  1  5  2  3
  1 12  1  0
  2 14  1  0
  2 15  1  0
  2 16  1  0
  3  6  1  0
  3 17  1  0
  3 18  1  0
  3 19  1  0
  4  6  1  0
  4 20  1  0
  4 21  1  0
  4 22  1  0
  5  7  1  0
  5  8  1  0
  6 13  1  0
  6 23  1  0
  7  9  1  0
  7 24  1  0
  8 11  2  0
  8 28  1  0
  9 10  2  0
  9 25  1  0
 10 11  1  0
 10 26  1  0
 11 27  1  0
M  RAD  1   7   2
M  END
>  <reaction>  (17) 
rxn_924

>  <mol_properties>  (17) 
{"0": {"label": "*1", "atom_type": "Cs"}, "2": {"label": "*4", "atom_type": "Cs"}, "4": {"label": "*0", "atom_type": "Cd"}, "5": {"label": "*3", "atom_type": "Cs"}, "11": {"label": "*2", "atom_type": "H0"}}

>  <type>  (17) 
unop_13

>  <geom_source>  (17) 
AutoTST

$$$$
