
     RDKit          3D

  7  6  0  0  0  0  0  0  0  0999 V2000
   -1.0240    0.8044   -0.4204 O   0  0  0  0  0  0  0  0  0  0  0  0
   -0.3365   -0.3409    0.0003 C   0  0  0  0  0  0  0  0  0  0  0  0
    1.1270   -0.1767   -0.0328 C   0  0  0  0  0  0  0  0  0  0  0  0
    2.2637   -0.0259   -0.0358 N   0  0  0  0  0  0  0  0  0  0  0  0
   -0.8050    1.5374    0.1584 H   0  0  0  0  0  0  0  0  0  0  0  0
   -0.6168   -0.6523    1.0127 H   0  0  0  0  0  0  0  0  0  0  0  0
   -0.6084   -1.1459   -0.6824 H   0  0  0  0  0  0  0  0  0  0  0  0
  1  2  1  0
  1  5  1  0
  2  3  1  0
  2  6  1  0
  2  7  1  0
  3  4  3  0
M  END
>  <reaction>  (1) 
rxn_3227

>  <mol_properties>  (1) 
{"0": {"label": "donator", "atom_type": "O2s"}, "4": {"label": "d_hydrogen", "atom_type": "H0"}}

>  <type>  (1) 
r1h

$$$$

     RDKit          3D

  7  6  0  0  0  0  0  0  0  0999 V2000
   -1.3059    0.5497   -0.1304 N   0  0  0  0  0  2  0  0  0  0  0  0
   -0.2700   -0.4288    0.0448 C   0  0  0  0  0  0  0  0  0  0  0  0
    1.1109    0.0669    0.0401 C   0  0  0  0  0  0  0  0  0  0  0  0
    2.1758    0.4925    0.0308 N   0  0  0  0  0  0  0  0  0  0  0  0
   -0.8815    1.4733   -0.2339 H   0  0  0  0  0  0  0  0  0  0  0  0
   -0.3767   -1.1909   -0.7373 H   0  0  0  0  0  0  0  0  0  0  0  0
   -0.4527   -0.9628    0.9858 H   0  0  0  0  0  0  0  0  0  0  0  0
  1  2  1  0
  1  5  1  0
  2  3  1  0
  2  6  1  0
  2  7  1  0
  3  4  3  0
M  RAD  1   1   2
M  END
>  <reaction>  (2) 
rxn_3227

>  <mol_properties>  (2) 
{"0": {"label": "acceptor", "atom_type": "N3s"}}

>  <type>  (2) 
r2

$$$$

     RDKit          3D

  8  7  0  0  0  0  0  0  0  0999 V2000
   -1.0805    0.5317    0.0204 N   0  0  0  0  0  0  0  0  0  0  0  0
   -0.1080   -0.5393    0.0956 C   0  0  0  0  0  0  0  0  0  0  0  0
    1.2945   -0.1247   -0.1005 C   0  0  0  0  0  0  0  0  0  0  0  0
    2.3714    0.2386   -0.2580 N   0  0  0  0  0  0  0  0  0  0  0  0
   -1.0516    0.9857   -0.8822 H   0  0  0  0  0  0  0  0  0  0  0  0
   -0.9009    1.2352    0.7235 H   0  0  0  0  0  0  0  0  0  0  0  0
   -0.3427   -1.2965   -0.6542 H   0  0  0  0  0  0  0  0  0  0  0  0
   -0.1810   -1.0288    1.0680 H   0  0  0  0  0  0  0  0  0  0  0  0
  1  2  1  0
  1  5  1  0
  1  6  1  0
  2  3  1  0
  2  7  1  0
  2  8  1  0
  3  4  3  0
M  END
>  <reaction>  (3) 
rxn_3227

>  <mol_properties>  (3) 
{"0": {"label": "acceptor", "atom_type": "N3s"}, "7": {"label": "a_hydrogen", "atom_type": "H0"}}

>  <type>  (3) 
r2h

$$$$

     RDKit          3D

 14 12  0  0  0  0  0  0  0  0999 V2000
   -1.2898    1.2886    0.4582 N   0  0  0  0  0  0  0  0  0  0  0  0
   -0.2586    1.6649   -0.4824 C   0  0  0  0  0  0  0  0  0  0  0  0
    1.1034    1.5252    0.0518 C   0  0  0  0  0  0  0  0  0  0  0  0
    2.1427    1.3894    0.5172 N   0  0  0  0  0  0  0  0  0  0  0  0
   -1.1208    1.7117    1.3674 H   0  0  0  0  0  0  0  0  0  0  0  0
   -0.4097    2.7127   -0.7638 H   0  0  0  0  0  0  0  0  0  0  0  0
   -0.3477    1.0640   -1.3878 H   0  0  0  0  0  0  0  0  0  0  0  0
   -1.2194   -0.9979    1.0594 O   0  0  0  0  0  1  0  0  0  0  0  0
   -0.0507   -1.6026    0.6414 C   0  0  0  0  0  0  0  0  0  0  0  0
    0.0840   -1.6454   -0.8286 C   0  0  0  0  0  0  0  0  0  0  0  0
    0.1702   -1.6099   -1.9719 N   0  0  0  0  0  0  0  0  0  0  0  0
   -1.4338    0.1362    0.6108 H   0  0  0  0  0  0  0  0  0  0  0  0
    0.8499   -1.1251    1.0484 H   0  0  0  0  0  0  0  0  0  0  0  0
   -0.0588   -2.6319    1.0188 H   0  0  0  0  0  0  0  0  0  0  0  0
  1  2  1  0
  1  5  1  0
  1 12  1  0
  2  3  1  0
  2  6  1  0
  2  7  1  0
  3  4  3  0
  8  9  1  0
  9 10  1  0
  9 13  1  0
  9 14  1  0
 10 11  3  0
M  RAD  1   8   2
M  END
>  <reaction>  (4) 
rxn_3227

>  <mol_properties>  (4) 
{"0": {"label": "*1", "atom_type": "N3s"}, "1": {"label": "*0", "atom_type": "Cs"}, "7": {"label": "*3", "atom_type": "O2s"}, "8": {"label": "*4", "atom_type": "Cs"}, "11": {"label": "*2", "atom_type": "H0"}}

>  <type>  (4) 
ts

$$$$

     RDKit          3D

 14 12  0  0  0  0  0  0  0  0999 V2000
   -0.1338    1.2610    1.0268 N   0  0  0  0  0  2  0  0  0  0  0  0
   -1.3587    1.4521    0.2774 C   0  0  0  0  0  0  0  0  0  0  0  0
   -1.1966    1.4772   -1.1890 C   0  0  0  0  0  0  0  0  0  0  0  0
   -1.0278    1.4906   -2.3239 N   0  0  0  0  0  0  0  0  0  0  0  0
    0.5278    2.0009    0.8359 H   0  0  0  0  0  0  0  0  0  0  0  0
   -1.8271    2.3900    0.5799 H   0  0  0  0  0  0  0  0  0  0  0  0
   -2.0635    0.6565    0.5241 H   0  0  0  0  0  0  0  0  0  0  0  0
    0.0528   -0.9667    1.7953 O   0  0  0  0  0  0  0  0  0  0  0  0
    1.2131   -1.5451    1.2655 C   0  0  0  0  0  0  0  0  0  0  0  0
    1.2131   -1.5867   -0.2069 C   0  0  0  0  0  0  0  0  0  0  0  0
    1.2131   -1.5867   -1.3536 N   0  0  0  0  0  0  0  0  0  0  0  0
   -0.0381    0.1180    1.4211 H   0  0  0  0  0  0  0  0  0  0  0  0
    2.1250   -1.0299    1.5870 H   0  0  0  0  0  0  0  0  0  0  0  0
    1.2598   -2.5680    1.6391 H   0  0  0  0  0  0  0  0  0  0  0  0
  1  2  1  0
  1  5  1  0
  2  3  1  0
  2  6  1  0
  2  7  1  0
  3  4  3  0
  8  9  1  0
  8 12  1  0
  9 10  1  0
  9 13  1  0
  9 14  1  0
 10 11  3  0
M  RAD  1   1   2
M  END
>  <reaction>  (5) 
rxn_3227

>  <mol_properties>  (5) 
{"0": {"label": "*1", "atom_type": "N3s"}, "1": {"label": "*0", "atom_type": "Cs"}, "7": {"label": "*3", "atom_type": "O2s"}, "8": {"label": "*4", "atom_type": "Cs"}, "11": {"label": "*2", "atom_type": "H0"}}

>  <type>  (5) 
unop_1

>  <geom_source>  (5) 
Heuristics

$$$$

     RDKit          3D

 14 12  0  0  0  0  0  0  0  0999 V2000
   -1.2128    1.2479    0.7471 N   0  0  0  0  0  2  0  0  0  0  0  0
   -0.6098    1.3992   -0.5613 C   0  0  0  0  0  0  0  0  0  0  0  0
    0.8618    1.5077   -0.5623 C   0  0  0  0  0  0  0  0  0  0  0  0
    2.0056    1.5886   -0.5198 N   0  0  0  0  0  0  0  0  0  0  0  0
   -0.9949    2.0364    1.3407 H   0  0  0  0  0  0  0  0  0  0  0  0
   -1.0128    2.2896   -1.0464 H   0  0  0  0  0  0  0  0  0  0  0  0
   -0.8846    0.5497   -1.1885 H   0  0  0  0  0  0  0  0  0  0  0  0
   -1.0262   -0.9798    1.5157 O   0  0  0  0  0  0  0  0  0  0  0  0
    0.1340   -1.5582    0.9859 C   0  0  0  0  0  0  0  0  0  0  0  0
    0.1340   -1.5998   -0.4866 C   0  0  0  0  0  0  0  0  0  0  0  0
    0.1340   -1.5998   -1.6332 N   0  0  0  0  0  0  0  0  0  0  0  0
   -1.1171    0.1049    1.1414 H   0  0  0  0  0  0  0  0  0  0  0  0
    1.0460   -1.0430    1.3074 H   0  0  0  0  0  0  0  0  0  0  0  0
    0.1808   -2.5811    1.3595 H   0  0  0  0  0  0  0  0  0  0  0  0
  1  2  1  0
  1  5  1  0
  2  3  1  0
  2  6  1  0
  2  7  1  0
  3  4  3  0
  8  9  1  0
  8 12  1  0
  9 10  1  0
  9 13  1  0
  9 14  1  0
 10 11  3  0
M  RAD  1   1   2
M  END
>  <reaction>  (6) 
rxn_3227

>  <mol_properties>  (6) 
{"0": {"label": "*1", "atom_type": "N3s"}, "1": {"label": "*0", "atom_type": "Cs"}, "7": {"label": "*3", "atom_type": "O2s"}, "8": {"label": "*4", "atom_type": "Cs"}, "11": {"label": "*2", "atom_type": "H0"}}

>  <type>  (6) 
unop_2

>  <geom_source>  (6) 
Heuristics

$$$$

     RDKit          3D

 14 12  0  0  0  0  0  0  0  0999 V2000
    0.1805    1.2731    0.7487 N   0  0  0  0  0  2  0  0  0  0  0  0
   -1.2079    1.6739    0.6467 C   0  0  0  0  0  0  0  0  0  0  0  0
   -1.8322    1.4346   -0.6687 C   0  0  0  0  0  0  0  0  0  0  0  0
   -2.2800    1.2321   -1.7056 N   0  0  0  0  0  0  0  0  0  0  0  0
    0.7518    1.7695    0.0789 H   0  0  0  0  0  0  0  0  0  0  0  0
   -1.2965    2.7377    0.8723 H   0  0  0  0  0  0  0  0  0  0  0  0
   -1.7950    1.1445    1.3988 H   0  0  0  0  0  0  0  0  0  0  0  0
    0.3671   -0.9546    1.5173 O   0  0  0  0  0  0  0  0  0  0  0  0
    1.5273   -1.5330    0.9875 C   0  0  0  0  0  0  0  0  0  0  0  0
    1.5273   -1.5746   -0.4850 C   0  0  0  0  0  0  0  0  0  0  0  0
    1.5273   -1.5746   -1.6316 N   0  0  0  0  0  0  0  0  0  0  0  0
    0.2762    0.1302    1.1430 H   0  0  0  0  0  0  0  0  0  0  0  0
    2.4393   -1.0178    1.3090 H   0  0  0  0  0  0  0  0  0  0  0  0
    1.5740   -2.5559    1.3611 H   0  0  0  0  0  0  0  0  0  0  0  0
  1  2  1  0
  1  5  1  0
  2  3  1  0
  2  6  1  0
  2  7  1  0
  3  4  3  0
  8  9  1  0
  8 12  1  0
  9 10  1  0
  9 13  1  0
  9 14  1  0
 10 11  3  0
M  RAD  1   1   2
M  END
>  <reaction>  (7) 
rxn_3227

>  <mol_properties>  (7) 
{"0": {"label": "*1", "atom_type": "N3s"}, "1": {"label": "*0", "atom_type": "Cs"}, "7": {"label": "*3", "atom_type": "O2s"}, "8": {"label": "*4", "atom_type": "Cs"}, "11": {"label": "*2", "atom_type": "H0"}}

>  <type>  (7) 
unop_3

>  <geom_source>  (7) 
Heuristics

$$$$

     RDKit          3D

 14 12  0  0  0  0  0  0  0  0999 V2000
   -1.1410    1.2112   -0.2715 N   0  0  0  0  0  2  0  0  0  0  0  0
    0.0018    2.0009    0.1395 C   0  0  0  0  0  0  0  0  0  0  0  0
    0.6756    1.5335    1.3663 C   0  0  0  0  0  0  0  0  0  0  0  0
    1.1706    1.1377    2.3228 N   0  0  0  0  0  0  0  0  0  0  0  0
   -1.8525    1.2014    0.4463 H   0  0  0  0  0  0  0  0  0  0  0  0
   -0.3093    3.0343    0.2999 H   0  0  0  0  0  0  0  0  0  0  0  0
    0.7399    2.0175   -0.6638 H   0  0  0  0  0  0  0  0  0  0  0  0
   -0.9544   -1.0165    0.4971 O   0  0  0  0  0  0  0  0  0  0  0  0
    0.2059   -1.5948   -0.0327 C   0  0  0  0  0  0  0  0  0  0  0  0
    0.2059   -1.6364   -1.5052 C   0  0  0  0  0  0  0  0  0  0  0  0
    0.2059   -1.6364   -2.6518 N   0  0  0  0  0  0  0  0  0  0  0  0
   -1.0452    0.0683    0.1229 H   0  0  0  0  0  0  0  0  0  0  0  0
    1.1179   -1.0797    0.2888 H   0  0  0  0  0  0  0  0  0  0  0  0
    0.2526   -2.6178    0.3409 H   0  0  0  0  0  0  0  0  0  0  0  0
  1  2  1  0
  1  5  1  0
  2  3  1  0
  2  6  1  0
  2  7  1  0
  3  4  3  0
  8  9  1  0
  8 12  1  0
  9 10  1  0
  9 13  1  0
  9 14  1  0
 10 11  3  0
M  RAD  1   1   2
M  END
>  <reaction>  (8) 
rxn_3227

>  <mol_properties>  (8) 
{"0": {"label": "*1", "atom_type": "N3s"}, "1": {"label": "*0", "atom_type": "Cs"}, "7": {"label": "*3", "atom_type": "O2s"}, "8": {"label": "*4", "atom_type": "Cs"}, "11": {"label": "*2", "atom_type": "H0"}}

>  <type>  (8) 
unop_4

>  <geom_source>  (8) 
Heuristics

$$$$

     RDKit          3D

 14 12  0  0  0  0  0  0  0  0999 V2000
    0.3237    1.3288    0.2163 N   0  0  0  0  0  2  0  0  0  0  0  0
   -0.8671    1.9632    0.7436 C   0  0  0  0  0  0  0  0  0  0  0  0
   -2.1377    1.3060    0.3816 C   0  0  0  0  0  0  0  0  0  0  0  0
   -3.1030    0.7652    0.0778 N   0  0  0  0  0  0  0  0  0  0  0  0
    0.3049    1.3043   -0.7940 H   0  0  0  0  0  0  0  0  0  0  0  0
   -0.9124    2.9966    0.3965 H   0  0  0  0  0  0  0  0  0  0  0  0
   -0.8067    2.0013    1.8324 H   0  0  0  0  0  0  0  0  0  0  0  0
    0.5102   -0.8990    0.9848 O   0  0  0  0  0  0  0  0  0  0  0  0
    1.6705   -1.4773    0.4550 C   0  0  0  0  0  0  0  0  0  0  0  0
    1.6705   -1.5189   -1.0174 C   0  0  0  0  0  0  0  0  0  0  0  0
    1.6705   -1.5189   -2.1641 N   0  0  0  0  0  0  0  0  0  0  0  0
    0.4194    0.1858    0.6106 H   0  0  0  0  0  0  0  0  0  0  0  0
    2.5825   -0.9622    0.7765 H   0  0  0  0  0  0  0  0  0  0  0  0
    1.7172   -2.5002    0.8286 H   0  0  0  0  0  0  0  0  0  0  0  0
  1  2  1  0
  1  5  1  0
  2  3  1  0
  2  6  1  0
  2  7  1  0
  3  4  3  0
  8  9  1  0
  8 12  1  0
  9 10  1  0
  9 13  1  0
  9 14  1  0
 10 11  3  0
M  RAD  1   1   2
M  END
>  <reaction>  (9) 
rxn_3227

>  <mol_properties>  (9) 
{"0": {"label": "*1", "atom_type": "N3s"}, "1": {"label": "*0", "atom_type": "Cs"}, "7": {"label": "*3", "atom_type": "O2s"}, "8": {"label": "*4", "atom_type": "Cs"}, "11": {"label": "*2", "atom_type": "H0"}}

>  <type>  (9) 
unop_5

>  <geom_source>  (9) 
Heuristics

$$$$

     RDKit          3D

 14 12  0  0  0  0  0  0  0  0999 V2000
   -0.8309    1.1870   -0.4866 N   0  0  0  0  0  2  0  0  0  0  0  0
   -0.1687    2.1062    0.4163 C   0  0  0  0  0  0  0  0  0  0  0  0
    0.0878    1.5767    1.7696 C   0  0  0  0  0  0  0  0  0  0  0  0
    0.2687    1.1276    2.8098 N   0  0  0  0  0  0  0  0  0  0  0  0
   -1.7327    0.9090   -0.1247 H   0  0  0  0  0  0  0  0  0  0  0  0
   -0.7690    3.0116    0.5178 H   0  0  0  0  0  0  0  0  0  0  0  0
    0.7874    2.4110   -0.0121 H   0  0  0  0  0  0  0  0  0  0  0  0
   -0.6443   -1.0407    0.2819 O   0  0  0  0  0  0  0  0  0  0  0  0
    0.5160   -1.6191   -0.2479 C   0  0  0  0  0  0  0  0  0  0  0  0
    0.5160   -1.6606   -1.7203 C   0  0  0  0  0  0  0  0  0  0  0  0
    0.5160   -1.6606   -2.8669 N   0  0  0  0  0  0  0  0  0  0  0  0
   -0.7351    0.0441   -0.0923 H   0  0  0  0  0  0  0  0  0  0  0  0
    1.4280   -1.1039    0.0737 H   0  0  0  0  0  0  0  0  0  0  0  0
    0.5627   -2.6420    0.1257 H   0  0  0  0  0  0  0  0  0  0  0  0
  1  2  1  0
  1  5  1  0
  2  3  1  0
  2  6  1  0
  2  7  1  0
  3  4  3  0
  8  9  1  0
  8 12  1  0
  9 10  1  0
  9 13  1  0
  9 14  1  0
 10 11  3  0
M  RAD  1   1   2
M  END
>  <reaction>  (10) 
rxn_3227

>  <mol_properties>  (10) 
{"0": {"label": "*1", "atom_type": "N3s"}, "1": {"label": "*0", "atom_type": "Cs"}, "7": {"label": "*3", "atom_type": "O2s"}, "8": {"label": "*4", "atom_type": "Cs"}, "11": {"label": "*2", "atom_type": "H0"}}

>  <type>  (10) 
unop_6

>  <geom_source>  (10) 
Heuristics

$$$$

     RDKit          3D

 14 12  0  0  0  0  0  0  0  0999 V2000
   -0.4093    1.2044   -0.5444 N   0  0  0  0  0  2  0  0  0  0  0  0
   -0.4162    2.1381    0.5632 C   0  0  0  0  0  0  0  0  0  0  0  0
   -0.7168    1.5435    1.8798 C   0  0  0  0  0  0  0  0  0  0  0  0
   -0.9542    1.0423    2.8843 N   0  0  0  0  0  0  0  0  0  0  0  0
   -1.3084    0.7539   -0.6450 H   0  0  0  0  0  0  0  0  0  0  0  0
   -1.1507    2.9222    0.3729 H   0  0  0  0  0  0  0  0  0  0  0  0
    0.5557    2.6295    0.6303 H   0  0  0  0  0  0  0  0  0  0  0  0
   -0.2227   -1.0233    0.2242 O   0  0  0  0  0  0  0  0  0  0  0  0
    0.9376   -1.6017   -0.3056 C   0  0  0  0  0  0  0  0  0  0  0  0
    0.9376   -1.6433   -1.7781 C   0  0  0  0  0  0  0  0  0  0  0  0
    0.9376   -1.6433   -2.9247 N   0  0  0  0  0  0  0  0  0  0  0  0
   -0.3136    0.0615   -0.1501 H   0  0  0  0  0  0  0  0  0  0  0  0
    1.8495   -1.0865    0.0159 H   0  0  0  0  0  0  0  0  0  0  0  0
    0.9843   -2.6246    0.0680 H   0  0  0  0  0  0  0  0  0  0  0  0
  1  2  1  0
  1  5  1  0
  2  3  1  0
  2  6  1  0
  2  7  1  0
  3  4  3  0
  8  9  1  0
  8 12  1  0
  9 10  1  0
  9 13  1  0
  9 14  1  0
 10 11  3  0
M  RAD  1   1   2
M  END
>  <reaction>  (11) 
rxn_3227

>  <mol_properties>  (11) 
{"0": {"label": "*1", "atom_type": "N3s"}, "1": {"label": "*0", "atom_type": "Cs"}, "7": {"label": "*3", "atom_type": "O2s"}, "8": {"label": "*4", "atom_type": "Cs"}, "11": {"label": "*2", "atom_type": "H0"}}

>  <type>  (11) 
unop_7

>  <geom_source>  (11) 
Heuristics

$$$$

     RDKit          3D

 14 12  0  0  0  0  0  0  0  0999 V2000
   -0.5201    1.2669    1.1200 N   0  0  0  0  0  2  0  0  0  0  0  0
   -1.2644    1.3285   -0.1212 C   0  0  0  0  0  0  0  0  0  0  0  0
   -0.4410    1.4769   -1.3368 C   0  0  0  0  0  0  0  0  0  0  0  0
    0.2348    1.5922   -2.2569 N   0  0  0  0  0  0  0  0  0  0  0  0
    0.0255    2.1064    1.2583 H   0  0  0  0  0  0  0  0  0  0  0  0
   -1.9634    2.1655   -0.0846 H   0  0  0  0  0  0  0  0  0  0  0  0
   -1.8647    0.4240   -0.2303 H   0  0  0  0  0  0  0  0  0  0  0  0
   -0.3335   -0.9609    1.8886 O   0  0  0  0  0  0  0  0  0  0  0  0
    0.8268   -1.5392    1.3588 C   0  0  0  0  0  0  0  0  0  0  0  0
    0.8268   -1.5808   -0.1137 C   0  0  0  0  0  0  0  0  0  0  0  0
    0.8268   -1.5808   -1.2603 N   0  0  0  0  0  0  0  0  0  0  0  0
   -0.4243    0.1239    1.5143 H   0  0  0  0  0  0  0  0  0  0  0  0
    1.7388   -1.0241    1.6803 H   0  0  0  0  0  0  0  0  0  0  0  0
    0.8735   -2.5621    1.7324 H   0  0  0  0  0  0  0  0  0  0  0  0
  1  2  1  0
  1  5  1  0
  2  3  1  0
  2  6  1  0
  2  7  1  0
  3  4  3  0
  8  9  1  0
  8 12  1  0
  9 10  1  0
  9 13  1  0
  9 14  1  0
 10 11  3  0
M  RAD  1   1   2
M  END
>  <reaction>  (12) 
rxn_3227

>  <mol_properties>  (12) 
{"0": {"label": "*1", "atom_type": "N3s"}, "1": {"label": "*0", "atom_type": "Cs"}, "7": {"label": "*3", "atom_type": "O2s"}, "8": {"label": "*4", "atom_type": "Cs"}, "11": {"label": "*2", "atom_type": "H0"}}

>  <type>  (12) 
unop_8

>  <geom_source>  (12) 
Heuristics

$$$$

     RDKit          3D

 14 12  0  0  0  0  0  0  0  0999 V2000
   -1.3157    1.2394    0.0301 N   0  0  0  0  0  2  0  0  0  0  0  0
   -0.0095    1.8194   -0.2063 C   0  0  0  0  0  0  0  0  0  0  0  0
    1.0129    1.4898    0.8055 C   0  0  0  0  0  0  0  0  0  0  0  0
    1.7781    1.2099    1.6133 N   0  0  0  0  0  0  0  0  0  0  0  0
   -1.6950    1.5475    0.9148 H   0  0  0  0  0  0  0  0  0  0  0  0
   -0.0975    2.9060   -0.2535 H   0  0  0  0  0  0  0  0  0  0  0  0
    0.3625    1.4931   -1.1787 H   0  0  0  0  0  0  0  0  0  0  0  0
   -1.1291   -0.9884    0.7987 O   0  0  0  0  0  0  0  0  0  0  0  0
    0.0312   -1.5667    0.2689 C   0  0  0  0  0  0  0  0  0  0  0  0
    0.0312   -1.6083   -1.2036 C   0  0  0  0  0  0  0  0  0  0  0  0
    0.0312   -1.6083   -2.3502 N   0  0  0  0  0  0  0  0  0  0  0  0
   -1.2200    0.0964    0.4244 H   0  0  0  0  0  0  0  0  0  0  0  0
    0.9431   -1.0516    0.5904 H   0  0  0  0  0  0  0  0  0  0  0  0
    0.0779   -2.5896    0.6425 H   0  0  0  0  0  0  0  0  0  0  0  0
  1  2  1  0
  1  5  1  0
  2  3  1  0
  2  6  1  0
  2  7  1  0
  3  4  3  0
  8  9  1  0
  8 12  1  0
  9 10  1  0
  9 13  1  0
  9 14  1  0
 10 11  3  0
M  RAD  1   1   2
M  END
>  <reaction>  (13) 
rxn_3227

>  <mol_properties>  (13) 
{"0": {"label": "*1", "atom_type": "N3s"}, "1": {"label": "*0", "atom_type": "Cs"}, "7": {"label": "*3", "atom_type": "O2s"}, "8": {"label": "*4", "atom_type": "Cs"}, "11": {"label": "*2", "atom_type": "H0"}}

>  <type>  (13) 
unop_9

>  <geom_source>  (13) 
Heuristics

$$$$

     RDKit          3D

 14 12  0  0  0  0  0  0  0  0999 V2000
   -0.9118    1.2597    1.0207 N   0  0  0  0  0  2  0  0  0  0  0  0
   -0.9870    1.3068   -0.4252 C   0  0  0  0  0  0  0  0  0  0  0  0
    0.3055    1.4931   -1.1123 C   0  0  0  0  0  0  0  0  0  0  0  0
    1.3301    1.6388   -1.6078 N   0  0  0  0  0  0  0  0  0  0  0  0
   -0.5238    2.1159    1.3922 H   0  0  0  0  0  0  0  0  0  0  0  0
   -1.6490    2.1194   -0.7283 H   0  0  0  0  0  0  0  0  0  0  0  0
   -1.4348    0.3835   -0.7960 H   0  0  0  0  0  0  0  0  0  0  0  0
   -0.7252   -0.9680    1.7893 O   0  0  0  0  0  0  0  0  0  0  0  0
    0.4351   -1.5464    1.2595 C   0  0  0  0  0  0  0  0  0  0  0  0
    0.4351   -1.5879   -0.2130 C   0  0  0  0  0  0  0  0  0  0  0  0
    0.4351   -1.5879   -1.3596 N   0  0  0  0  0  0  0  0  0  0  0  0
   -0.8160    0.1168    1.4150 H   0  0  0  0  0  0  0  0  0  0  0  0
    1.3471   -1.0312    1.5810 H   0  0  0  0  0  0  0  0  0  0  0  0
    0.4818   -2.5693    1.6331 H   0  0  0  0  0  0  0  0  0  0  0  0
  1  2  1  0
  1  5  1  0
  2  3  1  0
  2  6  1  0
  2  7  1  0
  3  4  3  0
  8  9  1  0
  8 12  1  0
  9 10  1  0
  9 13  1  0
  9 14  1  0
 10 11  3  0
M  RAD  1   1   2
M  END
>  <reaction>  (14) 
rxn_3227

>  <mol_properties>  (14) 
{"0": {"label": "*1", "atom_type": "N3s"}, "1": {"label": "*0", "atom_type": "Cs"}, "7": {"label": "*3", "atom_type": "O2s"}, "8": {"label": "*4", "atom_type": "Cs"}, "11": {"label": "*2", "atom_type": "H0"}}

>  <type>  (14) 
unop_10

>  <geom_source>  (14) 
Heuristics

$$$$

     RDKit          3D

 14 12  0  0  0  0  0  0  0  0999 V2000
    0.0495    1.2794   -0.3410 N   0  0  0  0  0  2  0  0  0  0  0  0
   -0.6356    2.1089    0.6291 C   0  0  0  0  0  0  0  0  0  0  0  0
   -1.6049    1.3983    1.4851 C   0  0  0  0  0  0  0  0  0  0  0  0
   -2.3488    0.8088    2.1300 N   0  0  0  0  0  0  0  0  0  0  0  0
   -0.6069    0.8425   -0.9732 H   0  0  0  0  0  0  0  0  0  0  0  0
   -1.1673    2.9092    0.1120 H   0  0  0  0  0  0  0  0  0  0  0  0
    0.0977    2.5893    1.2788 H   0  0  0  0  0  0  0  0  0  0  0  0
    0.2361   -0.9483    0.4276 O   0  0  0  0  0  0  0  0  0  0  0  0
    1.3964   -1.5267   -0.1022 C   0  0  0  0  0  0  0  0  0  0  0  0
    1.3964   -1.5682   -1.5747 C   0  0  0  0  0  0  0  0  0  0  0  0
    1.3964   -1.5682   -2.7213 N   0  0  0  0  0  0  0  0  0  0  0  0
    0.1453    0.1365    0.0533 H   0  0  0  0  0  0  0  0  0  0  0  0
    2.3084   -1.0115    0.2193 H   0  0  0  0  0  0  0  0  0  0  0  0
    1.4431   -2.5496    0.2714 H   0  0  0  0  0  0  0  0  0  0  0  0
  1  2  1  0
  1  5  1  0
  2  3  1  0
  2  6  1  0
  2  7  1  0
  3  4  3  0
  8  9  1  0
  8 12  1  0
  9 10  1  0
  9 13  1  0
  9 14  1  0
 10 11  3  0
M  RAD  1   1   2
M  END
>  <reaction>  (15) 
rxn_3227

>  <mol_properties>  (15) 
{"0": {"label": "*1", "atom_type": "N3s"}, "1": {"label": "*0", "atom_type": "Cs"}, "7": {"label": "*3", "atom_type": "O2s"}, "8": {"label": "*4", "atom_type": "Cs"}, "11": {"label": "*2", "atom_type": "H0"}}

>  <type>  (15) 
unop_11

>  <geom_source>  (15) 
Heuristics

$$$$

     RDKit          3D

 14 12  0  0  0  0  0  0  0  0999 V2000
   -1.3484    1.2465    0.3835 N   0  0  0  0  0  2  0  0  0  0  0  0
   -0.2398    1.5928   -0.4822 C   0  0  0  0  0  0  0  0  0  0  0  0
    1.0942    1.4936    0.1409 C   0  0  0  0  0  0  0  0  0  0  0  0
    2.1123    1.4036    0.6622 N   0  0  0  0  0  0  0  0  0  0  0  0
   -1.3781    1.8493    1.1943 H   0  0  0  0  0  0  0  0  0  0  0  0
   -0.3666    2.6144   -0.8439 H   0  0  0  0  0  0  0  0  0  0  0  0
   -0.2492    0.9463   -1.3610 H   0  0  0  0  0  0  0  0  0  0  0  0
   -1.1618   -0.9813    1.1521 O   0  0  0  0  0  0  0  0  0  0  0  0
   -0.0015   -1.5596    0.6223 C   0  0  0  0  0  0  0  0  0  0  0  0
   -0.0015   -1.6012   -0.8502 C   0  0  0  0  0  0  0  0  0  0  0  0
   -0.0015   -1.6012   -1.9968 N   0  0  0  0  0  0  0  0  0  0  0  0
   -1.2527    0.1035    0.7779 H   0  0  0  0  0  0  0  0  0  0  0  0
    0.9104   -1.0445    0.9438 H   0  0  0  0  0  0  0  0  0  0  0  0
    0.0452   -2.5825    0.9959 H   0  0  0  0  0  0  0  0  0  0  0  0
  1  2  1  0
  1  5  1  0
  2  3  1  0
  2  6  1  0
  2  7  1  0
  3  4  3  0
  8  9  1  0
  8 12  1  0
  9 10  1  0
  9 13  1  0
  9 14  1  0
 10 11  3  0
M  RAD  1   1   2
M  END
>  <reaction>  (16) 
rxn_3227

>  <mol_properties>  (16) 
{"0": {"label": "*1", "atom_type": "N3s"}, "1": {"label": "*0", "atom_type": "Cs"}, "7": {"label": "*3", "atom_type": "O2s"}, "8": {"label": "*4", "atom_type": "Cs"}, "11": {"label": "*2", "atom_type": "H0"}}

>  <type>  (16) 
unop_12

>  <geom_source>  (16) 
Heuristics

$$$$

     RDKit          3D

 14 12  0  0  0  0  0  0  0  0999 V2000
   -1.2128    1.2479    0.7471 N   0  0  0  0  0  2  0  0  0  0  0  0
   -0.6098    1.3992   -0.5613 C   0  0  0  0  0  0  0  0  0  0  0  0
    0.8618    1.5077   -0.5623 C   0  0  0  0  0  0  0  0  0  0  0  0
    2.0056    1.5886   -0.5198 N   0  0  0  0  0  0  0  0  0  0  0  0
   -0.9949    2.0364    1.3407 H   0  0  0  0  0  0  0  0  0  0  0  0
   -1.0128    2.2896   -1.0464 H   0  0  0  0  0  0  0  0  0  0  0  0
   -0.8846    0.5497   -1.1885 H   0  0  0  0  0  0  0  0  0  0  0  0
   -1.0262   -0.9798    1.5157 O   0  0  0  0  0  0  0  0  0  0  0  0
    0.1341   -1.5582    0.9859 C   0  0  0  0  0  0  0  0  0  0  0  0
    0.1341   -1.5998   -0.4866 C   0  0  0  0  0  0  0  0  0  0  0  0
    0.1341   -1.5998   -1.6332 N   0  0  0  0  0  0  0  0  0  0  0  0
   -1.1171    0.1049    1.1414 H   0  0  0  0  0  0  0  0  0  0  0  0
    1.0460   -1.0431    1.3074 H   0  0  0  0  0  0  0  0  0  0  0  0
    0.1807   -2.5811    1.3595 H   0  0  0  0  0  0  0  0  0  0  0  0
  1  2  1  0
  1  5  1  0
  2  3  1  0
  2  6  1  0
  2  7  1  0
  3  4  3  0
  8  9  1  0
  8 12  1  0
  9 10  1  0
  9 13  1  0
  9 14  1  0
 10 11  3  0
M  RAD  1   1   2
M  END
>  <reaction>  (17) 
rxn_3227

>  <mol_properties>  (17) 
{"0": {"label": "*1", "atom_type": "N3s"}, "1": {"label": "*0", "atom_type": "Cs"}, "7": {"label": "*3", "atom_type": "O2s"}, "8": {"label": "*4", "atom_type": "Cs"}, "11": {"label": "*2", "atom_type": "H0"}}

>  <type>  (17) 
unop_13

>  <geom_source>  (17) 
gaussian_log

$$$$
