
     RDKit          3D

  6  5  0  0  0  0  0  0  0  0999 V2000
   -0.3669    0.0060    0.0609 C   0  0  0  0  0  0  0  0  0  0  0  0
    0.9818   -0.0507    0.4695 O   0  0  0  0  0  0  0  0  0  0  0  0
   -0.6066    0.9462   -0.4488 H   0  0  0  0  0  0  0  0  0  0  0  0
   -0.5221   -0.8115   -0.6420 H   0  0  0  0  0  0  0  0  0  0  0  0
   -1.0602   -0.1268    0.8992 H   0  0  0  0  0  0  0  0  0  0  0  0
    1.1451    0.6595    1.0897 H   0  0  0  0  0  0  0  0  0  0  0  0
  1  2  1  0
  1  3  1  0
  1  4  1  0
  1  5  1  0
  2  6  1  0
M  END
>  <reaction>  (1) 
rxn_3129

>  <mol_properties>  (1) 
{"0": {"label": "donator", "atom_type": "Cs"}, "2": {"label": "d_hydrogen", "atom_type": "H0"}}

>  <type>  (1) 
r1h

$$$$

     RDKit          3D

  6  6  0  0  0  0  0  0  0  0999 V2000
    1.9594    0.0134   -0.3734 N   0  0  0  0  0  2  0  0  0  0  0  0
    0.7437    0.0051   -0.0788 C   0  0  0  0  0  0  0  0  0  0  0  0
   -0.0745    1.0868    0.0233 O   0  0  0  0  0  0  0  0  0  0  0  0
   -1.3223    0.5972    0.3682 N   0  0  0  0  0  0  0  0  0  0  0  0
   -1.2899   -0.6150    0.4676 N   0  0  0  0  0  0  0  0  0  0  0  0
   -0.0165   -1.0874    0.2015 O   0  0  0  0  0  0  0  0  0  0  0  0
  1  2  2  0
  2  3  1  0
  2  6  1  0
  3  4  1  0
  4  5  2  0
  5  6  1  0
M  RAD  1   1   2
M  END
>  <reaction>  (2) 
rxn_3129

>  <mol_properties>  (2) 
{"0": {"label": "acceptor", "atom_type": "N3d"}}

>  <type>  (2) 
r2

$$$$

     RDKit          3D

  7  7  0  0  0  0  0  0  0  0999 V2000
    1.6064   -0.4313    0.1905 N   0  0  0  0  0  0  0  0  0  0  0  0
    0.3982   -0.1725    0.0701 C   0  0  0  0  0  0  0  0  0  0  0  0
   -0.6051   -1.0481    0.3497 O   0  0  0  0  0  0  0  0  0  0  0  0
   -1.7906   -0.4044    0.0958 N   0  0  0  0  0  0  0  0  0  0  0  0
   -1.5819    0.7348   -0.2956 N   0  0  0  0  0  0  0  0  0  0  0  0
   -0.2229    0.9708   -0.3436 O   0  0  0  0  0  0  0  0  0  0  0  0
    2.1958    0.3506   -0.0669 H   0  0  0  0  0  0  0  0  0  0  0  0
  1  2  2  3
  1  7  1  0
  2  3  1  0
  2  6  1  0
  3  4  1  0
  4  5  2  0
  5  6  1  0
M  END
>  <reaction>  (3) 
rxn_3129

>  <mol_properties>  (3) 
{"0": {"label": "acceptor", "atom_type": "N3d"}, "6": {"label": "a_hydrogen", "atom_type": "H0"}}

>  <type>  (3) 
r2h

$$$$

     RDKit          3D

 12 11  0  0  0  0  0  0  0  0999 V2000
    1.4271    0.2280   -0.3281 N   0  0  0  0  0  2  0  0  0  0  0  0
    0.4251    0.4653    0.3721 C   0  0  0  0  0  0  0  0  0  0  0  0
    0.2850    1.5419    1.2074 O   0  0  0  0  0  0  0  0  0  0  0  0
   -0.9542    1.4402    1.7945 N   0  0  0  0  0  0  0  0  0  0  0  0
   -1.5336    0.4416    1.3978 N   0  0  0  0  0  0  0  0  0  0  0  0
   -0.7429   -0.2400    0.4973 O   0  0  0  0  0  0  0  0  0  0  0  0
    0.7608   -1.8920   -1.7546 C   0  0  0  0  0  0  0  0  0  0  0  0
   -0.0011   -1.4490   -2.8126 O   0  0  0  0  0  0  0  0  0  0  0  0
    1.1121   -0.9442   -1.0582 H   0  0  0  0  0  0  0  0  0  0  0  0
    0.1580   -2.5373   -1.1199 H   0  0  0  0  0  0  0  0  0  0  0  0
    1.7125   -2.3527   -2.0366 H   0  0  0  0  0  0  0  0  0  0  0  0
    0.5563   -0.9760   -3.4330 H   0  0  0  0  0  0  0  0  0  0  0  0
  1  2  2  0
  2  3  1  0
  2  6  1  0
  3  4  1  0
  4  5  2  0
  5  6  1  0
  7  8  1  0
  7  9  1  0
  7 10  1  0
  7 11  1  0
  8 12  1  0
M  RAD  1   1   2
M  END
>  <reaction>  (4) 
rxn_3129

>  <mol_properties>  (4) 
{"0": {"label": "*3", "atom_type": "N3d"}, "1": {"label": "*4", "atom_type": "Cd"}, "6": {"label": "*1", "atom_type": "Cs"}, "7": {"label": "*0", "atom_type": "O2s"}, "8": {"label": "*2", "atom_type": "H0"}}

>  <type>  (4) 
ts

$$$$

     RDKit          3D

 12 11  0  0  0  0  0  0  0  0999 V2000
    1.1591    0.3497   -0.4186 N   0  0  0  0  0  0  0  0  0  0  0  0
    0.1650    0.5702    0.2916 C   0  0  0  0  0  0  0  0  0  0  0  0
    0.2052    1.2201    1.4863 O   0  0  0  0  0  0  0  0  0  0  0  0
   -1.0797    1.2696    1.9670 N   0  0  0  0  0  0  0  0  0  0  0  0
   -1.8477    0.7247    1.1875 N   0  0  0  0  0  0  0  0  0  0  0  0
   -1.1480    0.2510    0.0962 O   0  0  0  0  0  0  0  0  0  0  0  0
    1.1591   -1.9922   -1.3762 C   0  0  0  0  0  3  0  0  0  0  0  0
    1.1591   -1.9922   -2.7865 O   0  0  0  0  0  0  0  0  0  0  0  0
    1.1591   -0.7749   -0.8784 H   0  0  0  0  0  0  0  0  0  0  0  0
    0.2446   -2.4905   -1.0570 H   0  0  0  0  0  0  0  0  0  0  0  0
    2.0115   -2.5422   -0.9614 H   0  0  0  0  0  0  0  0  0  0  0  0
    1.9550   -1.5585   -3.0938 H   0  0  0  0  0  0  0  0  0  0  0  0
  1  2  2  3
  1  9  1  0
  2  3  1  0
  2  6  1  0
  3  4  1  0
  4  5  2  0
  5  6  1  0
  7  8  1  0
  7 10  1  0
  7 11  1  0
  8 12  1  0
M  RAD  1   7   2
M  END
>  <reaction>  (5) 
rxn_3129

>  <mol_properties>  (5) 
{"0": {"label": "*3", "atom_type": "N3d"}, "1": {"label": "*4", "atom_type": "Cd"}, "6": {"label": "*1", "atom_type": "Cs"}, "7": {"label": "*0", "atom_type": "O2s"}, "8": {"label": "*2", "atom_type": "H0"}}

>  <type>  (5) 
unop_1

>  <geom_source>  (5) 
Heuristics

$$$$

     RDKit          3D

 12 11  0  0  0  0  0  0  0  0999 V2000
    0.6831   -0.3657    1.3113 N   0  0  0  0  0  0  0  0  0  0  0  0
    0.1092    0.4483    0.5701 C   0  0  0  0  0  0  0  0  0  0  0  0
   -0.3596    1.6588    0.9781 O   0  0  0  0  0  0  0  0  0  0  0  0
   -0.9256    2.2663   -0.1150 N   0  0  0  0  0  0  0  0  0  0  0  0
   -0.8349    1.5453   -1.0981 N   0  0  0  0  0  0  0  0  0  0  0  0
   -0.1931    0.3714   -0.7591 O   0  0  0  0  0  0  0  0  0  0  0  0
    0.6831   -2.7076    0.3538 C   0  0  0  0  0  3  0  0  0  0  0  0
    0.6831   -2.7076   -1.0566 O   0  0  0  0  0  0  0  0  0  0  0  0
    0.6831   -1.4902    0.8515 H   0  0  0  0  0  0  0  0  0  0  0  0
   -0.2314   -3.2058    0.6729 H   0  0  0  0  0  0  0  0  0  0  0  0
    1.5355   -3.2576    0.7685 H   0  0  0  0  0  0  0  0  0  0  0  0
    1.4790   -2.2739   -1.3639 H   0  0  0  0  0  0  0  0  0  0  0  0
  1  2  2  3
  1  9  1  0
  2  3  1  0
  2  6  1  0
  3  4  1  0
  4  5  2  0
  5  6  1  0
  7  8  1  0
  7 10  1  0
  7 11  1  0
  8 12  1  0
M  RAD  1   7   2
M  END
>  <reaction>  (6) 
rxn_3129

>  <mol_properties>  (6) 
{"0": {"label": "*3", "atom_type": "N3d"}, "1": {"label": "*4", "atom_type": "Cd"}, "6": {"label": "*1", "atom_type": "Cs"}, "7": {"label": "*0", "atom_type": "O2s"}, "8": {"label": "*2", "atom_type": "H0"}}

>  <type>  (6) 
unop_2

>  <geom_source>  (6) 
Heuristics

$$$$

     RDKit          3D

 12 11  0  0  0  0  0  0  0  0999 V2000
    0.6557    0.5293   -0.8685 N   0  0  0  0  0  0  0  0  0  0  0  0
    0.0818    0.5908    0.2307 C   0  0  0  0  0  0  0  0  0  0  0  0
    0.4274    1.4480    1.2292 O   0  0  0  0  0  0  0  0  0  0  0  0
   -0.4297    1.2202    2.2770 N   0  0  0  0  0  0  0  0  0  0  0  0
   -1.2231    0.3344    1.9939 N   0  0  0  0  0  0  0  0  0  0  0  0
   -0.9750   -0.1244    0.7161 O   0  0  0  0  0  0  0  0  0  0  0  0
    0.6557   -1.8126   -1.8260 C   0  0  0  0  0  3  0  0  0  0  0  0
    0.6557   -1.8126   -3.2364 O   0  0  0  0  0  0  0  0  0  0  0  0
    0.6557   -0.5952   -1.3283 H   0  0  0  0  0  0  0  0  0  0  0  0
   -0.2588   -2.3108   -1.5068 H   0  0  0  0  0  0  0  0  0  0  0  0
    1.5081   -2.3626   -1.4112 H   0  0  0  0  0  0  0  0  0  0  0  0
    1.4516   -1.3789   -3.5436 H   0  0  0  0  0  0  0  0  0  0  0  0
  1  2  2  3
  1  9  1  0
  2  3  1  0
  2  6  1  0
  3  4  1  0
  4  5  2  0
  5  6  1  0
  7  8  1  0
  7 10  1  0
  7 11  1  0
  8 12  1  0
M  RAD  1   7   2
M  END
>  <reaction>  (7) 
rxn_3129

>  <mol_properties>  (7) 
{"0": {"label": "*3", "atom_type": "N3d"}, "1": {"label": "*4", "atom_type": "Cd"}, "6": {"label": "*1", "atom_type": "Cs"}, "7": {"label": "*0", "atom_type": "O2s"}, "8": {"label": "*2", "atom_type": "H0"}}

>  <type>  (7) 
unop_3

>  <geom_source>  (7) 
Heuristics

$$$$

     RDKit          3D

 12 11  0  0  0  0  0  0  0  0999 V2000
   -1.1937   -0.1698    0.8426 N   0  0  0  0  0  0  0  0  0  0  0  0
   -0.1995    0.4851    0.4903 C   0  0  0  0  0  0  0  0  0  0  0  0
    0.4142    1.4224    1.2625 O   0  0  0  0  0  0  0  0  0  0  0  0
    1.4653    1.9243    0.5363 N   0  0  0  0  0  0  0  0  0  0  0  0
    1.5235    1.3841   -0.5588 N   0  0  0  0  0  0  0  0  0  0  0  0
    0.5077    0.4572   -0.6772 O   0  0  0  0  0  0  0  0  0  0  0  0
   -1.1937   -2.5117   -0.1149 C   0  0  0  0  0  3  0  0  0  0  0  0
   -1.1937   -2.5117   -1.5253 O   0  0  0  0  0  0  0  0  0  0  0  0
   -1.1937   -1.2944    0.3828 H   0  0  0  0  0  0  0  0  0  0  0  0
   -2.1081   -3.0100    0.2042 H   0  0  0  0  0  0  0  0  0  0  0  0
   -0.3412   -3.0617    0.2998 H   0  0  0  0  0  0  0  0  0  0  0  0
   -0.3978   -2.0781   -1.8326 H   0  0  0  0  0  0  0  0  0  0  0  0
  1  2  2  3
  1  9  1  0
  2  3  1  0
  2  6  1  0
  3  4  1  0
  4  5  2  0
  5  6  1  0
  7  8  1  0
  7 10  1  0
  7 11  1  0
  8 12  1  0
M  RAD  1   7   2
M  END
>  <reaction>  (8) 
rxn_3129

>  <mol_properties>  (8) 
{"0": {"label": "*3", "atom_type": "N3d"}, "1": {"label": "*4", "atom_type": "Cd"}, "6": {"label": "*1", "atom_type": "Cs"}, "7": {"label": "*0", "atom_type": "O2s"}, "8": {"label": "*2", "atom_type": "H0"}}

>  <type>  (8) 
unop_4

>  <geom_source>  (8) 
Heuristics

$$$$

     RDKit          3D

 12 11  0  0  0  0  0  0  0  0999 V2000
   -0.0063    0.5886   -1.0276 N   0  0  0  0  0  0  0  0  0  0  0  0
   -0.0063    0.5919    0.2138 C   0  0  0  0  0  0  0  0  0  0  0  0
   -0.0063    1.7180    0.9776 O   0  0  0  0  0  0  0  0  0  0  0  0
   -0.0063    1.3197    2.2913 N   0  0  0  0  0  0  0  0  0  0  0  0
   -0.0063    0.0996    2.3668 N   0  0  0  0  0  0  0  0  0  0  0  0
   -0.0063   -0.4471    1.0995 O   0  0  0  0  0  0  0  0  0  0  0  0
   -0.0063   -1.7533   -1.9852 C   0  0  0  0  0  3  0  0  0  0  0  0
   -0.0063   -1.7533   -3.3955 O   0  0  0  0  0  0  0  0  0  0  0  0
   -0.0063   -0.5360   -1.4874 H   0  0  0  0  0  0  0  0  0  0  0  0
   -0.9207   -2.2516   -1.6660 H   0  0  0  0  0  0  0  0  0  0  0  0
    0.8461   -2.3033   -1.5704 H   0  0  0  0  0  0  0  0  0  0  0  0
    0.7896   -1.3196   -3.7028 H   0  0  0  0  0  0  0  0  0  0  0  0
  1  2  2  3
  1  9  1  0
  2  3  1  0
  2  6  1  0
  3  4  1  0
  4  5  2  0
  5  6  1  0
  7  8  1  0
  7 10  1  0
  7 11  1  0
  8 12  1  0
M  RAD  1   7   2
M  END
>  <reaction>  (9) 
rxn_3129

>  <mol_properties>  (9) 
{"0": {"label": "*3", "atom_type": "N3d"}, "1": {"label": "*4", "atom_type": "Cd"}, "6": {"label": "*1", "atom_type": "Cs"}, "7": {"label": "*0", "atom_type": "O2s"}, "8": {"label": "*2", "atom_type": "H0"}}

>  <type>  (9) 
unop_5

>  <geom_source>  (9) 
Heuristics

$$$$

     RDKit          3D

 12 11  0  0  0  0  0  0  0  0999 V2000
   -1.3666    0.0929    0.2082 N   0  0  0  0  0  0  0  0  0  0  0  0
   -0.2187    0.5306    0.3871 C   0  0  0  0  0  0  0  0  0  0  0  0
    0.1705    1.2366    1.4833 O   0  0  0  0  0  0  0  0  0  0  0  0
    1.4984    1.5436    1.3202 N   0  0  0  0  0  0  0  0  0  0  0  0
    1.9125    1.0961    0.2607 N   0  0  0  0  0  0  0  0  0  0  0  0
    0.8939    0.4382   -0.3987 O   0  0  0  0  0  0  0  0  0  0  0  0
   -1.3666   -2.2490   -0.7493 C   0  0  0  0  0  3  0  0  0  0  0  0
   -1.3666   -2.2490   -2.1597 O   0  0  0  0  0  0  0  0  0  0  0  0
   -1.3666   -1.0317   -0.2516 H   0  0  0  0  0  0  0  0  0  0  0  0
   -2.2811   -2.7473   -0.4302 H   0  0  0  0  0  0  0  0  0  0  0  0
   -0.5142   -2.7990   -0.3346 H   0  0  0  0  0  0  0  0  0  0  0  0
   -0.5707   -1.8154   -2.4670 H   0  0  0  0  0  0  0  0  0  0  0  0
  1  2  2  3
  1  9  1  0
  2  3  1  0
  2  6  1  0
  3  4  1  0
  4  5  2  0
  5  6  1  0
  7  8  1  0
  7 10  1  0
  7 11  1  0
  8 12  1  0
M  RAD  1   7   2
M  END
>  <reaction>  (10) 
rxn_3129

>  <mol_properties>  (10) 
{"0": {"label": "*3", "atom_type": "N3d"}, "1": {"label": "*4", "atom_type": "Cd"}, "6": {"label": "*1", "atom_type": "Cs"}, "7": {"label": "*0", "atom_type": "O2s"}, "8": {"label": "*2", "atom_type": "H0"}}

>  <type>  (10) 
unop_6

>  <geom_source>  (10) 
Heuristics

$$$$

     RDKit          3D

 12 11  0  0  0  0  0  0  0  0999 V2000
   -1.1716    0.3497   -0.4186 N   0  0  0  0  0  0  0  0  0  0  0  0
   -0.1775    0.5702    0.2916 C   0  0  0  0  0  0  0  0  0  0  0  0
   -0.2177    1.2201    1.4863 O   0  0  0  0  0  0  0  0  0  0  0  0
    1.0671    1.2696    1.9670 N   0  0  0  0  0  0  0  0  0  0  0  0
    1.8352    0.7247    1.1875 N   0  0  0  0  0  0  0  0  0  0  0  0
    1.1354    0.2510    0.0962 O   0  0  0  0  0  0  0  0  0  0  0  0
   -1.1716   -1.9922   -1.3762 C   0  0  0  0  0  3  0  0  0  0  0  0
   -1.1716   -1.9922   -2.7865 O   0  0  0  0  0  0  0  0  0  0  0  0
   -1.1716   -0.7749   -0.8784 H   0  0  0  0  0  0  0  0  0  0  0  0
   -2.0861   -2.4905   -1.0570 H   0  0  0  0  0  0  0  0  0  0  0  0
   -0.3192   -2.5422   -0.9614 H   0  0  0  0  0  0  0  0  0  0  0  0
   -0.3758   -1.5585   -3.0938 H   0  0  0  0  0  0  0  0  0  0  0  0
  1  2  2  3
  1  9  1  0
  2  3  1  0
  2  6  1  0
  3  4  1  0
  4  5  2  0
  5  6  1  0
  7  8  1  0
  7 10  1  0
  7 11  1  0
  8 12  1  0
M  RAD  1   7   2
M  END
>  <reaction>  (11) 
rxn_3129

>  <mol_properties>  (11) 
{"0": {"label": "*3", "atom_type": "N3d"}, "1": {"label": "*4", "atom_type": "Cd"}, "6": {"label": "*1", "atom_type": "Cs"}, "7": {"label": "*0", "atom_type": "O2s"}, "8": {"label": "*2", "atom_type": "H0"}}

>  <type>  (11) 
unop_7

>  <geom_source>  (11) 
Heuristics

$$$$

     RDKit          3D

 12 11  0  0  0  0  0  0  0  0999 V2000
    1.3541    0.0929    0.2082 N   0  0  0  0  0  0  0  0  0  0  0  0
    0.2061    0.5306    0.3871 C   0  0  0  0  0  0  0  0  0  0  0  0
   -0.1830    1.2366    1.4833 O   0  0  0  0  0  0  0  0  0  0  0  0
   -1.5109    1.5436    1.3202 N   0  0  0  0  0  0  0  0  0  0  0  0
   -1.9250    1.0961    0.2607 N   0  0  0  0  0  0  0  0  0  0  0  0
   -0.9065    0.4382   -0.3987 O   0  0  0  0  0  0  0  0  0  0  0  0
    1.3541   -2.2490   -0.7493 C   0  0  0  0  0  3  0  0  0  0  0  0
    1.3541   -2.2490   -2.1597 O   0  0  0  0  0  0  0  0  0  0  0  0
    1.3541   -1.0317   -0.2516 H   0  0  0  0  0  0  0  0  0  0  0  0
    0.4396   -2.7473   -0.4302 H   0  0  0  0  0  0  0  0  0  0  0  0
    2.2065   -2.7990   -0.3346 H   0  0  0  0  0  0  0  0  0  0  0  0
    2.1499   -1.8154   -2.4670 H   0  0  0  0  0  0  0  0  0  0  0  0
  1  2  2  3
  1  9  1  0
  2  3  1  0
  2  6  1  0
  3  4  1  0
  4  5  2  0
  5  6  1  0
  7  8  1  0
  7 10  1  0
  7 11  1  0
  8 12  1  0
M  RAD  1   7   2
M  END
>  <reaction>  (12) 
rxn_3129

>  <mol_properties>  (12) 
{"0": {"label": "*3", "atom_type": "N3d"}, "1": {"label": "*4", "atom_type": "Cd"}, "6": {"label": "*1", "atom_type": "Cs"}, "7": {"label": "*0", "atom_type": "O2s"}, "8": {"label": "*2", "atom_type": "H0"}}

>  <type>  (12) 
unop_8

>  <geom_source>  (12) 
Heuristics

$$$$

     RDKit          3D

 12 11  0  0  0  0  0  0  0  0999 V2000
   -0.6957   -0.3657    1.3113 N   0  0  0  0  0  0  0  0  0  0  0  0
   -0.1217    0.4483    0.5701 C   0  0  0  0  0  0  0  0  0  0  0  0
    0.3471    1.6588    0.9781 O   0  0  0  0  0  0  0  0  0  0  0  0
    0.9130    2.2663   -0.1150 N   0  0  0  0  0  0  0  0  0  0  0  0
    0.8224    1.5453   -1.0981 N   0  0  0  0  0  0  0  0  0  0  0  0
    0.1806    0.3714   -0.7591 O   0  0  0  0  0  0  0  0  0  0  0  0
   -0.6957   -2.7076    0.3538 C   0  0  0  0  0  3  0  0  0  0  0  0
   -0.6957   -2.7076   -1.0566 O   0  0  0  0  0  0  0  0  0  0  0  0
   -0.6957   -1.4902    0.8515 H   0  0  0  0  0  0  0  0  0  0  0  0
   -1.6101   -3.2058    0.6729 H   0  0  0  0  0  0  0  0  0  0  0  0
    0.1568   -3.2576    0.7685 H   0  0  0  0  0  0  0  0  0  0  0  0
    0.1002   -2.2739   -1.3639 H   0  0  0  0  0  0  0  0  0  0  0  0
  1  2  2  3
  1  9  1  0
  2  3  1  0
  2  6  1  0
  3  4  1  0
  4  5  2  0
  5  6  1  0
  7  8  1  0
  7 10  1  0
  7 11  1  0
  8 12  1  0
M  RAD  1   7   2
M  END
>  <reaction>  (13) 
rxn_3129

>  <mol_properties>  (13) 
{"0": {"label": "*3", "atom_type": "N3d"}, "1": {"label": "*4", "atom_type": "Cd"}, "6": {"label": "*1", "atom_type": "Cs"}, "7": {"label": "*0", "atom_type": "O2s"}, "8": {"label": "*2", "atom_type": "H0"}}

>  <type>  (13) 
unop_9

>  <geom_source>  (13) 
Heuristics

$$$$

     RDKit          3D

 12 11  0  0  0  0  0  0  0  0999 V2000
    1.1811   -0.1698    0.8426 N   0  0  0  0  0  0  0  0  0  0  0  0
    0.1870    0.4851    0.4903 C   0  0  0  0  0  0  0  0  0  0  0  0
   -0.4267    1.4224    1.2625 O   0  0  0  0  0  0  0  0  0  0  0  0
   -1.4778    1.9243    0.5363 N   0  0  0  0  0  0  0  0  0  0  0  0
   -1.5360    1.3841   -0.5588 N   0  0  0  0  0  0  0  0  0  0  0  0
   -0.5202    0.4572   -0.6772 O   0  0  0  0  0  0  0  0  0  0  0  0
    1.1811   -2.5117   -0.1149 C   0  0  0  0  0  3  0  0  0  0  0  0
    1.1811   -2.5117   -1.5253 O   0  0  0  0  0  0  0  0  0  0  0  0
    1.1811   -1.2944    0.3828 H   0  0  0  0  0  0  0  0  0  0  0  0
    0.2666   -3.0100    0.2042 H   0  0  0  0  0  0  0  0  0  0  0  0
    2.0335   -3.0617    0.2998 H   0  0  0  0  0  0  0  0  0  0  0  0
    1.9770   -2.0781   -1.8326 H   0  0  0  0  0  0  0  0  0  0  0  0
  1  2  2  3
  1  9  1  0
  2  3  1  0
  2  6  1  0
  3  4  1  0
  4  5  2  0
  5  6  1  0
  7  8  1  0
  7 10  1  0
  7 11  1  0
  8 12  1  0
M  RAD  1   7   2
M  END
>  <reaction>  (14) 
rxn_3129

>  <mol_properties>  (14) 
{"0": {"label": "*3", "atom_type": "N3d"}, "1": {"label": "*4", "atom_type": "Cd"}, "6": {"label": "*1", "atom_type": "Cs"}, "7": {"label": "*0", "atom_type": "O2s"}, "8": {"label": "*2", "atom_type": "H0"}}

>  <type>  (14) 
unop_10

>  <geom_source>  (14) 
Heuristics

$$$$

     RDKit          3D

 12 11  0  0  0  0  0  0  0  0999 V2000
   -0.6682    0.5293   -0.8685 N   0  0  0  0  0  0  0  0  0  0  0  0
   -0.0943    0.5908    0.2307 C   0  0  0  0  0  0  0  0  0  0  0  0
   -0.4399    1.4480    1.2292 O   0  0  0  0  0  0  0  0  0  0  0  0
    0.4171    1.2202    2.2770 N   0  0  0  0  0  0  0  0  0  0  0  0
    1.2106    0.3344    1.9939 N   0  0  0  0  0  0  0  0  0  0  0  0
    0.9624   -0.1244    0.7161 O   0  0  0  0  0  0  0  0  0  0  0  0
   -0.6682   -1.8126   -1.8260 C   0  0  0  0  0  3  0  0  0  0  0  0
   -0.6682   -1.8126   -3.2364 O   0  0  0  0  0  0  0  0  0  0  0  0
   -0.6682   -0.5952   -1.3283 H   0  0  0  0  0  0  0  0  0  0  0  0
   -1.5827   -2.3108   -1.5068 H   0  0  0  0  0  0  0  0  0  0  0  0
    0.1842   -2.3626   -1.4112 H   0  0  0  0  0  0  0  0  0  0  0  0
    0.1276   -1.3789   -3.5436 H   0  0  0  0  0  0  0  0  0  0  0  0
  1  2  2  3
  1  9  1  0
  2  3  1  0
  2  6  1  0
  3  4  1  0
  4  5  2  0
  5  6  1  0
  7  8  1  0
  7 10  1  0
  7 11  1  0
  8 12  1  0
M  RAD  1   7   2
M  END
>  <reaction>  (15) 
rxn_3129

>  <mol_properties>  (15) 
{"0": {"label": "*3", "atom_type": "N3d"}, "1": {"label": "*4", "atom_type": "Cd"}, "6": {"label": "*1", "atom_type": "Cs"}, "7": {"label": "*0", "atom_type": "O2s"}, "8": {"label": "*2", "atom_type": "H0"}}

>  <type>  (15) 
unop_11

>  <geom_source>  (15) 
Heuristics

$$$$

     RDKit          3D

 12 11  0  0  0  0  0  0  0  0999 V2000
   -0.0063   -0.4383    1.4839 N   0  0  0  0  0  0  0  0  0  0  0  0
   -0.0063    0.4338    0.6003 C   0  0  0  0  0  0  0  0  0  0  0  0
   -0.0063    1.7725    0.8443 O   0  0  0  0  0  0  0  0  0  0  0  0
   -0.0063    2.4086   -0.3721 N   0  0  0  0  0  0  0  0  0  0  0  0
   -0.0063    1.5909   -1.2808 N   0  0  0  0  0  0  0  0  0  0  0  0
   -0.0063    0.3130   -0.7596 O   0  0  0  0  0  0  0  0  0  0  0  0
   -0.0063   -2.7802    0.5264 C   0  0  0  0  0  3  0  0  0  0  0  0
   -0.0063   -2.7802   -0.8840 O   0  0  0  0  0  0  0  0  0  0  0  0
   -0.0063   -1.5628    1.0241 H   0  0  0  0  0  0  0  0  0  0  0  0
   -0.9207   -3.2785    0.8455 H   0  0  0  0  0  0  0  0  0  0  0  0
    0.8461   -3.3302    0.9411 H   0  0  0  0  0  0  0  0  0  0  0  0
    0.7896   -2.3465   -1.1913 H   0  0  0  0  0  0  0  0  0  0  0  0
  1  2  2  3
  1  9  1  0
  2  3  1  0
  2  6  1  0
  3  4  1  0
  4  5  2  0
  5  6  1  0
  7  8  1  0
  7 10  1  0
  7 11  1  0
  8 12  1  0
M  RAD  1   7   2
M  END
>  <reaction>  (16) 
rxn_3129

>  <mol_properties>  (16) 
{"0": {"label": "*3", "atom_type": "N3d"}, "1": {"label": "*4", "atom_type": "Cd"}, "6": {"label": "*1", "atom_type": "Cs"}, "7": {"label": "*0", "atom_type": "O2s"}, "8": {"label": "*2", "atom_type": "H0"}}

>  <type>  (16) 
unop_12

>  <geom_source>  (16) 
Heuristics

$$$$

     RDKit          3D

 12 11  0  0  0  0  0  0  0  0999 V2000
    0.6831   -0.3657    1.3113 N   0  0  0  0  0  0  0  0  0  0  0  0
    0.1092    0.4483    0.5701 C   0  0  0  0  0  0  0  0  0  0  0  0
   -0.3596    1.6588    0.9780 O   0  0  0  0  0  0  0  0  0  0  0  0
   -0.9256    2.2663   -0.1150 N   0  0  0  0  0  0  0  0  0  0  0  0
   -0.8349    1.5453   -1.0981 N   0  0  0  0  0  0  0  0  0  0  0  0
   -0.1931    0.3714   -0.7591 O   0  0  0  0  0  0  0  0  0  0  0  0
    0.6831   -2.7076    0.3538 C   0  0  0  0  0  3  0  0  0  0  0  0
    0.6831   -2.7076   -1.0566 O   0  0  0  0  0  0  0  0  0  0  0  0
    0.6831   -1.4902    0.8515 H   0  0  0  0  0  0  0  0  0  0  0  0
   -0.2314   -3.2058    0.6729 H   0  0  0  0  0  0  0  0  0  0  0  0
    1.5355   -3.2576    0.7685 H   0  0  0  0  0  0  0  0  0  0  0  0
    1.4790   -2.2739   -1.3639 H   0  0  0  0  0  0  0  0  0  0  0  0
  1  2  2  3
  1  9  1  0
  2  3  1  0
  2  6  1  0
  3  4  1  0
  4  5  2  0
  5  6  1  0
  7  8  1  0
  7 10  1  0
  7 11  1  0
  8 12  1  0
M  RAD  1   7   2
M  END
>  <reaction>  (17) 
rxn_3129

>  <mol_properties>  (17) 
{"0": {"label": "*3", "atom_type": "N3d"}, "1": {"label": "*4", "atom_type": "Cd"}, "6": {"label": "*1", "atom_type": "Cs"}, "7": {"label": "*0", "atom_type": "O2s"}, "8": {"label": "*2", "atom_type": "H0"}}

>  <type>  (17) 
unop_13

>  <geom_source>  (17) 
gaussian_log

$$$$
