
     RDKit          3D

 25 26  0  0  0  0  0  0  0  0999 V2000
    2.0298   -1.1515    0.0571 C   0  0  0  0  0  0  0  0  0  0  0  0
    2.2278    0.2445    0.6528 C   0  0  0  0  0  0  0  0  0  0  0  0
    1.2292    1.2625    0.0947 C   0  0  0  0  0  0  0  0  0  0  0  0
   -0.1869    0.7454    0.2762 C   0  0  0  0  0  0  0  0  0  0  0  0
   -1.3415    1.5501   -0.3122 C   0  0  0  0  0  0  0  0  0  0  0  0
   -2.5060    0.5338   -0.4178 C   0  0  0  0  0  0  0  0  0  0  0  0
   -1.8709   -0.8658   -0.2234 C   0  0  0  0  0  0  0  0  0  0  0  0
   -0.3715   -0.6265   -0.3693 C   0  0  0  0  0  0  0  0  0  0  0  0
    0.5898   -1.6500    0.2086 C   0  0  0  0  0  0  0  0  0  0  0  0
    2.2820   -1.1226   -1.0088 H   0  0  0  0  0  0  0  0  0  0  0  0
    2.7243   -1.8549    0.5221 H   0  0  0  0  0  0  0  0  0  0  0  0
    2.1030    0.1885    1.7400 H   0  0  0  0  0  0  0  0  0  0  0  0
    3.2514    0.5819    0.4743 H   0  0  0  0  0  0  0  0  0  0  0  0
    1.3611    2.2304    0.5855 H   0  0  0  0  0  0  0  0  0  0  0  0
    1.4198    1.4194   -0.9737 H   0  0  0  0  0  0  0  0  0  0  0  0
   -0.3675    0.6209    1.3539 H   0  0  0  0  0  0  0  0  0  0  0  0
   -1.5992    2.4249    0.2862 H   0  0  0  0  0  0  0  0  0  0  0  0
   -1.0595    1.9116   -1.3055 H   0  0  0  0  0  0  0  0  0  0  0  0
   -3.2666    0.7244    0.3399 H   0  0  0  0  0  0  0  0  0  0  0  0
   -3.0030    0.6112   -1.3853 H   0  0  0  0  0  0  0  0  0  0  0  0
   -2.2549   -1.6039   -0.9288 H   0  0  0  0  0  0  0  0  0  0  0  0
   -2.0796   -1.2429    0.7821 H   0  0  0  0  0  0  0  0  0  0  0  0
   -0.1432   -0.5121   -1.4391 H   0  0  0  0  0  0  0  0  0  0  0  0
    0.4720   -2.6209   -0.2799 H   0  0  0  0  0  0  0  0  0  0  0  0
    0.3601   -1.7986    1.2704 H   0  0  0  0  0  0  0  0  0  0  0  0
  1  2  1  0
  1  9  1  0
  1 10  1  0
  1 11  1  0
  2  3  1  0
  2 12  1  0
  2 13  1  0
  3  4  1  0
  3 14  1  0
  3 15  1  0
  4  5  1  0
  4  8  1  0
  4 16  1  0
  5  6  1  0
  5 17  1  0
  5 18  1  0
  6  7  1  0
  6 19  1  0
  6 20  1  0
  7  8  1  0
  7 21  1  0
  7 22  1  0
  8  9  1  0
  8 23  1  0
  9 24  1  0
  9 25  1  0
M  END
>  <reaction>  (1) 
rxn_590

>  <mol_properties>  (1) 
{"3": {"label": "donator", "atom_type": "Cs"}, "17": {"label": "d_hydrogen", "atom_type": "H0"}}

>  <type>  (1) 
r1h

$$$$

     RDKit          3D

 11 10  0  0  0  0  0  0  0  0999 V2000
   -0.9580    1.1013   -2.2955 C   0  0  0  0  0  0  0  0  0  0  0  0
   -0.5129    0.5941   -1.2929 C   0  0  0  0  0  0  0  0  0  0  0  0
   -0.0301   -0.0160   -0.1357 C   0  0  0  0  0  3  0  0  0  0  0  0
   -0.6593   -1.2845    0.3661 C   0  0  0  0  0  0  0  0  0  0  0  0
    1.0691    0.5292    0.5269 C   0  0  0  0  0  0  0  0  0  0  0  0
    2.0168    0.9794    1.1266 C   0  0  0  0  0  0  0  0  0  0  0  0
   -1.3415    1.5561   -3.1769 H   0  0  0  0  0  0  0  0  0  0  0  0
   -1.7166   -1.3186    0.1054 H   0  0  0  0  0  0  0  0  0  0  0  0
   -0.1742   -2.1550   -0.0865 H   0  0  0  0  0  0  0  0  0  0  0  0
   -0.5505   -1.3663    1.4470 H   0  0  0  0  0  0  0  0  0  0  0  0
    2.8514    1.3842    1.6465 H   0  0  0  0  0  0  0  0  0  0  0  0
  1  2  3  0
  1  7  1  0
  2  3  1  0
  3  4  1  0
  3  5  1  0
  4  8  1  0
  4  9  1  0
  4 10  1  0
  5  6  3  0
  6 11  1  0
M  RAD  1   3   2
M  END
>  <reaction>  (2) 
rxn_590

>  <mol_properties>  (2) 
{"1": {"label": "acceptor", "atom_type": "Cs"}}

>  <type>  (2) 
r2

$$$$

     RDKit          3D

 12 11  0  0  0  0  0  0  0  0999 V2000
    2.1696    0.6854    1.1310 C   0  0  0  0  0  0  0  0  0  0  0  0
    1.2518    0.4145    0.4134 C   0  0  0  0  0  0  0  0  0  0  0  0
    0.1391    0.0443   -0.4683 C   0  0  0  0  0  0  0  0  0  0  0  0
   -0.2054   -1.4492   -0.3339 C   0  0  0  0  0  0  0  0  0  0  0  0
   -1.0375    0.8853   -0.2222 C   0  0  0  0  0  0  0  0  0  0  0  0
   -2.0160    1.5463   -0.0311 C   0  0  0  0  0  0  0  0  0  0  0  0
    2.9819    0.9356    1.7702 H   0  0  0  0  0  0  0  0  0  0  0  0
    0.4629    0.2285   -1.4981 H   0  0  0  0  0  0  0  0  0  0  0  0
   -0.5327   -1.6703    0.6812 H   0  0  0  0  0  0  0  0  0  0  0  0
    0.6727   -2.0535   -0.5593 H   0  0  0  0  0  0  0  0  0  0  0  0
   -1.0064   -1.7081   -1.0256 H   0  0  0  0  0  0  0  0  0  0  0  0
   -2.8802    2.1413    0.1426 H   0  0  0  0  0  0  0  0  0  0  0  0
  1  2  3  0
  1  7  1  0
  2  3  1  0
  3  4  1  0
  3  5  1  0
  3  8  1  0
  4  9  1  0
  4 10  1  0
  4 11  1  0
  5  6  3  0
  6 12  1  0
M  END
>  <reaction>  (3) 
rxn_590

>  <mol_properties>  (3) 
{"1": {"label": "acceptor", "atom_type": "Cs"}, "6": {"label": "a_hydrogen", "atom_type": "H0"}}

>  <type>  (3) 
r2h

$$$$

     RDKit          3D

 36 36  0  0  0  0  0  0  0  0999 V2000
    1.1675   -1.2753    0.1625 C   0  0  0  0  0  0  0  0  0  0  0  0
    2.0212   -0.4410   -0.8117 C   0  0  0  0  0  0  0  0  0  0  0  0
    1.2109   -0.8055    1.6201 C   0  0  0  0  0  0  0  0  0  0  0  0
   -0.1898   -1.3584   -0.5103 C   0  0  0  0  0  3  0  0  0  0  0  0
    1.4874   -0.8695   -2.1811 C   0  0  0  0  0  0  0  0  0  0  0  0
    1.8694    1.0615   -0.5751 C   0  0  0  0  0  0  0  0  0  0  0  0
    2.1064    1.4342    0.8831 C   0  0  0  0  0  0  0  0  0  0  0  0
    1.1132    0.7088    1.7831 C   0  0  0  0  0  0  0  0  0  0  0  0
   -0.0323   -1.0096   -1.9776 C   0  0  0  0  0  0  0  0  0  0  0  0
   -3.2568   -0.4463   -0.6004 C   0  0  0  0  0  0  0  0  0  0  0  0
   -2.2061    0.2633    0.2497 C   0  0  0  0  0  0  0  0  0  0  0  0
   -1.9245    1.6124   -0.1734 C   0  0  0  0  0  0  0  0  0  0  0  0
   -2.4029    0.1076    1.6707 C   0  0  0  0  0  0  0  0  0  0  0  0
   -1.6615    2.7143   -0.5693 C   0  0  0  0  0  0  0  0  0  0  0  0
   -2.5440   -0.0831    2.8464 C   0  0  0  0  0  0  0  0  0  0  0  0
    1.5658   -2.2998    0.1452 H   0  0  0  0  0  0  0  0  0  0  0  0
    3.0777   -0.7012   -0.6991 H   0  0  0  0  0  0  0  0  0  0  0  0
    2.0125    2.5144    1.0149 H   0  0  0  0  0  0  0  0  0  0  0  0
    3.1304    1.1671    1.1700 H   0  0  0  0  0  0  0  0  0  0  0  0
    0.1056    1.0534    1.5434 H   0  0  0  0  0  0  0  0  0  0  0  0
    1.2828    0.9689    2.8305 H   0  0  0  0  0  0  0  0  0  0  0  0
    0.4167   -1.2963    2.1885 H   0  0  0  0  0  0  0  0  0  0  0  0
    2.1598   -1.1386    2.0534 H   0  0  0  0  0  0  0  0  0  0  0  0
   -1.1331   -0.4038   -0.0034 H   0  0  0  0  0  0  0  0  0  0  0  0
   -0.7878   -2.2335   -0.2618 H   0  0  0  0  0  0  0  0  0  0  0  0
   -0.5311   -0.0600   -2.2025 H   0  0  0  0  0  0  0  0  0  0  0  0
   -0.4777   -1.7564   -2.6367 H   0  0  0  0  0  0  0  0  0  0  0  0
    1.9121   -1.8385   -2.4554 H   0  0  0  0  0  0  0  0  0  0  0  0
    1.7422   -0.1623   -2.9724 H   0  0  0  0  0  0  0  0  0  0  0  0
    2.5612    1.5976   -1.2304 H   0  0  0  0  0  0  0  0  0  0  0  0
    0.8603    1.3818   -0.8551 H   0  0  0  0  0  0  0  0  0  0  0  0
   -2.9806   -0.3956   -1.6536 H   0  0  0  0  0  0  0  0  0  0  0  0
   -4.2357    0.0179   -0.4739 H   0  0  0  0  0  0  0  0  0  0  0  0
   -3.3279   -1.4926   -0.3029 H   0  0  0  0  0  0  0  0  0  0  0  0
   -1.4350    3.6970   -0.9061 H   0  0  0  0  0  0  0  0  0  0  0  0
   -2.6763   -0.2326    3.8907 H   0  0  0  0  0  0  0  0  0  0  0  0
  1  3  1  0
  1  4  1  0
  1  2  1  0
  1 16  1  0
  2  6  1  0
  2  5  1  0
  2 17  1  0
  3  8  1  0
  3 22  1  0
  3 23  1  0
  4  9  1  0
  4 25  1  0
  5  9  1  0
  5 28  1  0
  5 29  1  0
  6  7  1  0
  6 30  1  0
  6 31  1  0
  7  8  1  0
  7 18  1  0
  7 19  1  0
  8 20  1  0
  8 21  1  0
  9 26  1  0
  9 27  1  0
 10 11  1  0
 10 32  1  0
 10 33  1  0
 10 34  1  0
 11 12  1  0
 11 13  1  0
 11 24  1  0
 12 14  3  0
 13 15  3  0
 14 35  1  0
 15 36  1  0
M  RAD  1   4   2
M  END
>  <reaction>  (4) 
rxn_590

>  <mol_properties>  (4) 
{"0": {"label": "*4", "atom_type": "Cs"}, "3": {"label": "*3", "atom_type": "Cs"}, "10": {"label": "*1", "atom_type": "Cs"}, "11": {"label": "*0", "atom_type": "Ct"}, "23": {"label": "*2", "atom_type": "H0"}}

>  <type>  (4) 
ts

$$$$

     RDKit          3D

 36 36  0  0  0  0  0  0  0  0999 V2000
   -1.7857    0.5951    0.9761 C   0  0  0  0  0  0  0  0  0  0  0  0
   -0.8027   -0.1839    0.1273 C   0  0  0  0  0  0  0  0  0  0  0  0
   -3.2066    0.0788    0.7312 C   0  0  0  0  0  0  0  0  0  0  0  0
   -1.2301    0.4475    2.3809 C   0  0  0  0  0  0  0  0  0  0  0  0
   -1.0625    0.0917   -1.3565 C   0  0  0  0  0  0  0  0  0  0  0  0
   -3.5565    0.2704   -0.7602 C   0  0  0  0  0  0  0  0  0  0  0  0
   -2.4996   -0.3544   -1.7018 C   0  0  0  0  0  0  0  0  0  0  0  0
    0.2945    0.4283    2.1801 C   0  0  0  0  0  0  0  0  0  0  0  0
    2.7293   -0.3157   -0.5965 C   0  0  0  0  0  3  0  0  0  0  0  0
    2.7160   -1.0706   -1.9237 C   0  0  0  0  0  0  0  0  0  0  0  0
    0.5504    0.2241    0.6790 C   0  0  0  0  0  0  0  0  0  0  0  0
    3.5130    0.9196   -0.7184 C   0  0  0  0  0  0  0  0  0  0  0  0
    3.3037   -1.1539    0.4631 C   0  0  0  0  0  0  0  0  0  0  0  0
    4.1552    1.9353   -0.8191 C   0  0  0  0  0  0  0  0  0  0  0  0
    3.7738   -1.8431    1.3338 C   0  0  0  0  0  0  0  0  0  0  0  0
   -1.7476    1.6782    0.7068 H   0  0  0  0  0  0  0  0  0  0  0  0
   -0.9163   -1.2784    0.3119 H   0  0  0  0  0  0  0  0  0  0  0  0
   -3.2840   -0.9976    1.0012 H   0  0  0  0  0  0  0  0  0  0  0  0
   -3.9255    0.6500    1.3571 H   0  0  0  0  0  0  0  0  0  0  0  0
   -4.5468   -0.1896   -0.9653 H   0  0  0  0  0  0  0  0  0  0  0  0
   -3.6387    1.3577   -0.9795 H   0  0  0  0  0  0  0  0  0  0  0  0
   -1.5653   -0.5121    2.8339 H   0  0  0  0  0  0  0  0  0  0  0  0
   -1.5452    1.2938    3.0291 H   0  0  0  0  0  0  0  0  0  0  0  0
   -2.7290   -0.0681   -2.7506 H   0  0  0  0  0  0  0  0  0  0  0  0
   -2.5645   -1.4626   -1.6336 H   0  0  0  0  0  0  0  0  0  0  0  0
   -0.3381   -0.4793   -1.9762 H   0  0  0  0  0  0  0  0  0  0  0  0
   -0.9397    1.1743   -1.5808 H   0  0  0  0  0  0  0  0  0  0  0  0
    1.4583    0.0052   -0.2585 H   0  0  0  0  0  0  0  0  0  0  0  0
    0.7475   -0.4086    2.7532 H   0  0  0  0  0  0  0  0  0  0  0  0
    0.7453    1.3862    2.5200 H   0  0  0  0  0  0  0  0  0  0  0  0
    3.7474   -1.3504   -2.2319 H   0  0  0  0  0  0  0  0  0  0  0  0
    2.1054   -1.9940   -1.8288 H   0  0  0  0  0  0  0  0  0  0  0  0
    2.2625   -0.4372   -2.7158 H   0  0  0  0  0  0  0  0  0  0  0  0
    0.8770    1.1849    0.2221 H   0  0  0  0  0  0  0  0  0  0  0  0
    4.7188    2.8266   -0.9075 H   0  0  0  0  0  0  0  0  0  0  0  0
    4.1864   -2.4479    2.0979 H   0  0  0  0  0  0  0  0  0  0  0  0
  1  3  1  0
  1  4  1  0
  1  2  1  0
  1 16  1  0
  2  5  1  0
  2 11  1  0
  2 17  1  0
  3  6  1  0
  3 18  1  0
  3 19  1  0
  4  8  1  0
  4 22  1  0
  4 23  1  0
  5  7  1  0
  5 26  1  0
  5 27  1  0
  6  7  1  0
  6 20  1  0
  6 21  1  0
  7 24  1  0
  7 25  1  0
  8 11  1  0
  8 29  1  0
  8 30  1  0
  9 10  1  0
  9 12  1  0
  9 13  1  0
 10 31  1  0
 10 32  1  0
 10 33  1  0
 11 28  1  0
 11 34  1  0
 12 14  3  0
 13 15  3  0
 14 35  1  0
 15 36  1  0
M  RAD  1   9   2
M  END
>  <reaction>  (5) 
rxn_590

>  <mol_properties>  (5) 
{"0": {"label": "*4", "atom_type": "Cs"}, "3": {"label": "*3", "atom_type": "Cs"}, "10": {"label": "*1", "atom_type": "Cs"}, "11": {"label": "*0", "atom_type": "Ct"}, "23": {"label": "*2", "atom_type": "H0"}}

>  <type>  (5) 
unop_1

>  <geom_source>  (5) 
AutoTST

$$$$

     RDKit          3D

 36 36  0  0  0  0  0  0  0  0999 V2000
   -1.7857    0.5951    0.9761 C   0  0  0  0  0  0  0  0  0  0  0  0
   -0.8027   -0.1839    0.1273 C   0  0  0  0  0  0  0  0  0  0  0  0
   -3.2066    0.0788    0.7312 C   0  0  0  0  0  0  0  0  0  0  0  0
   -1.2301    0.4475    2.3809 C   0  0  0  0  0  0  0  0  0  0  0  0
   -1.0625    0.0917   -1.3565 C   0  0  0  0  0  0  0  0  0  0  0  0
   -3.5565    0.2704   -0.7602 C   0  0  0  0  0  0  0  0  0  0  0  0
   -2.4996   -0.3544   -1.7018 C   0  0  0  0  0  0  0  0  0  0  0  0
    0.2945    0.4283    2.1801 C   0  0  0  0  0  0  0  0  0  0  0  0
    2.7293   -0.3157   -0.5965 C   0  0  0  0  0  3  0  0  0  0  0  0
    2.7160   -1.0706   -1.9237 C   0  0  0  0  0  0  0  0  0  0  0  0
    0.5504    0.2241    0.6790 C   0  0  0  0  0  0  0  0  0  0  0  0
    3.5130    0.9196   -0.7184 C   0  0  0  0  0  0  0  0  0  0  0  0
    3.3037   -1.1539    0.4631 C   0  0  0  0  0  0  0  0  0  0  0  0
    4.1552    1.9353   -0.8191 C   0  0  0  0  0  0  0  0  0  0  0  0
    3.7738   -1.8431    1.3338 C   0  0  0  0  0  0  0  0  0  0  0  0
   -1.7476    1.6782    0.7068 H   0  0  0  0  0  0  0  0  0  0  0  0
   -0.9163   -1.2784    0.3119 H   0  0  0  0  0  0  0  0  0  0  0  0
   -3.2840   -0.9976    1.0012 H   0  0  0  0  0  0  0  0  0  0  0  0
   -3.9255    0.6500    1.3571 H   0  0  0  0  0  0  0  0  0  0  0  0
   -4.5468   -0.1896   -0.9653 H   0  0  0  0  0  0  0  0  0  0  0  0
   -3.6387    1.3577   -0.9795 H   0  0  0  0  0  0  0  0  0  0  0  0
   -1.5653   -0.5121    2.8339 H   0  0  0  0  0  0  0  0  0  0  0  0
   -1.5452    1.2938    3.0291 H   0  0  0  0  0  0  0  0  0  0  0  0
   -2.7290   -0.0681   -2.7506 H   0  0  0  0  0  0  0  0  0  0  0  0
   -2.5645   -1.4626   -1.6336 H   0  0  0  0  0  0  0  0  0  0  0  0
   -0.3381   -0.4793   -1.9762 H   0  0  0  0  0  0  0  0  0  0  0  0
   -0.9397    1.1743   -1.5808 H   0  0  0  0  0  0  0  0  0  0  0  0
    1.4583    0.0052   -0.2585 H   0  0  0  0  0  0  0  0  0  0  0  0
    0.7475   -0.4086    2.7532 H   0  0  0  0  0  0  0  0  0  0  0  0
    0.7453    1.3862    2.5200 H   0  0  0  0  0  0  0  0  0  0  0  0
    3.7474   -1.3504   -2.2319 H   0  0  0  0  0  0  0  0  0  0  0  0
    2.1054   -1.9940   -1.8288 H   0  0  0  0  0  0  0  0  0  0  0  0
    2.2625   -0.4372   -2.7158 H   0  0  0  0  0  0  0  0  0  0  0  0
    0.8770    1.1849    0.2221 H   0  0  0  0  0  0  0  0  0  0  0  0
    4.7188    2.8266   -0.9075 H   0  0  0  0  0  0  0  0  0  0  0  0
    4.1864   -2.4479    2.0979 H   0  0  0  0  0  0  0  0  0  0  0  0
  1  3  1  0
  1  4  1  0
  1  2  1  0
  1 16  1  0
  2  5  1  0
  2 11  1  0
  2 17  1  0
  3  6  1  0
  3 18  1  0
  3 19  1  0
  4  8  1  0
  4 22  1  0
  4 23  1  0
  5  7  1  0
  5 26  1  0
  5 27  1  0
  6  7  1  0
  6 20  1  0
  6 21  1  0
  7 24  1  0
  7 25  1  0
  8 11  1  0
  8 29  1  0
  8 30  1  0
  9 10  1  0
  9 12  1  0
  9 13  1  0
 10 31  1  0
 10 32  1  0
 10 33  1  0
 11 28  1  0
 11 34  1  0
 12 14  3  0
 13 15  3  0
 14 35  1  0
 15 36  1  0
M  RAD  1   9   2
M  END
>  <reaction>  (6) 
rxn_590

>  <mol_properties>  (6) 
{"0": {"label": "*4", "atom_type": "Cs"}, "3": {"label": "*3", "atom_type": "Cs"}, "10": {"label": "*1", "atom_type": "Cs"}, "11": {"label": "*0", "atom_type": "Ct"}, "23": {"label": "*2", "atom_type": "H0"}}

>  <type>  (6) 
unop_2

>  <geom_source>  (6) 
gaussian_log

$$$$
