
     RDKit          3D

 10  9  0  0  0  0  0  0  0  0999 V2000
   -1.3430   -0.0068    0.1802 C   0  0  0  0  0  0  0  0  0  0  0  0
    0.0800   -0.1753   -0.3125 C   0  0  0  0  0  0  0  0  0  0  0  0
    0.4144    0.6817   -1.3880 O   0  0  0  0  0  0  0  0  0  0  0  0
    0.4868    2.0101   -0.8782 O   0  0  0  0  0  0  0  0  0  0  0  0
   -2.0531   -0.1437   -0.6372 H   0  0  0  0  0  0  0  0  0  0  0  0
   -1.5603   -0.7484    0.9509 H   0  0  0  0  0  0  0  0  0  0  0  0
   -1.4899    0.9815    0.6164 H   0  0  0  0  0  0  0  0  0  0  0  0
    0.2328   -1.1698   -0.7380 H   0  0  0  0  0  0  0  0  0  0  0  0
    0.8000   -0.0345    0.4993 H   0  0  0  0  0  0  0  0  0  0  0  0
   -0.2791    2.4184   -1.2952 H   0  0  0  0  0  0  0  0  0  0  0  0
  1  2  1  0
  1  5  1  0
  1  6  1  0
  1  7  1  0
  2  3  1  0
  2  8  1  0
  2  9  1  0
  3  4  1  0
  4 10  1  0
M  END
>  <reaction>  (1) 
rxn_460

>  <mol_properties>  (1) 
{"3": {"label": "donator", "atom_type": "O2s"}, "9": {"label": "d_hydrogen", "atom_type": "H0"}}

>  <type>  (1) 
r1h

$$$$

     RDKit          3D

  6  5  0  0  0  0  0  0  0  0999 V2000
   -0.7133   -0.0465   -0.1138 C   0  0  0  0  0  0  0  0  0  0  0  0
    0.6837    0.0990    0.1040 C   0  0  0  0  0  0  0  0  0  0  0  0
    1.4284   -0.8504    0.3164 O   0  0  0  0  0  1  0  0  0  0  0  0
   -1.3425    0.8143   -0.2988 H   0  0  0  0  0  0  0  0  0  0  0  0
   -1.1519   -1.0358   -0.0939 H   0  0  0  0  0  0  0  0  0  0  0  0
    1.0889    1.1261    0.0750 H   0  0  0  0  0  0  0  0  0  0  0  0
  1  2  2  3
  1  4  1  0
  1  5  1  0
  2  3  1  0
  2  6  1  0
M  RAD  1   3   2
M  END
>  <reaction>  (2) 
rxn_460

>  <mol_properties>  (2) 
{"0": {"label": "acceptor", "atom_type": "Cs"}}

>  <type>  (2) 
r2

$$$$

     RDKit          3D

  7  6  0  0  0  0  0  0  0  0999 V2000
   -0.6468   -0.0443   -0.0231 C   0  0  0  0  0  0  0  0  0  0  0  0
    0.8470    0.0371    0.0688 C   0  0  0  0  0  0  0  0  0  0  0  0
    1.4866   -0.2280    1.0479 O   0  0  0  0  0  0  0  0  0  0  0  0
   -1.0466    0.9363   -0.2943 H   0  0  0  0  0  0  0  0  0  0  0  0
   -0.9229   -0.7318   -0.8269 H   0  0  0  0  0  0  0  0  0  0  0  0
   -1.0759   -0.3772    0.9198 H   0  0  0  0  0  0  0  0  0  0  0  0
    1.3584    0.3712   -0.8589 H   0  0  0  0  0  0  0  0  0  0  0  0
  1  2  1  0
  1  4  1  0
  1  5  1  0
  1  6  1  0
  2  3  2  0
  2  7  1  0
M  END
>  <reaction>  (3) 
rxn_460

>  <mol_properties>  (3) 
{"0": {"label": "a_hydrogen", "atom_type": "H0"}, "1": {"label": "acceptor", "atom_type": "Cs"}}

>  <type>  (3) 
r2h

$$$$

     RDKit          3D

 16 14  0  0  0  0  0  0  0  0999 V2000
    0.9835   -1.7447   -0.1966 C   0  0  0  0  0  0  0  0  0  0  0  0
    0.3757   -1.9296    1.1768 C   0  0  0  0  0  0  0  0  0  0  0  0
    0.1006   -0.6952    1.8420 O   0  0  0  0  0  0  0  0  0  0  0  0
   -1.0243   -0.1210    1.3196 O   0  0  0  0  0  0  0  0  0  0  0  0
    1.8974   -1.1514   -0.1391 H   0  0  0  0  0  0  0  0  0  0  0  0
    1.2390   -2.7213   -0.6113 H   0  0  0  0  0  0  0  0  0  0  0  0
    0.2917   -1.2618   -0.8864 H   0  0  0  0  0  0  0  0  0  0  0  0
    1.0741   -2.4221    1.8557 H   0  0  0  0  0  0  0  0  0  0  0  0
   -0.5470   -2.5119    1.1360 H   0  0  0  0  0  0  0  0  0  0  0  0
   -0.6871    0.6426    0.5426 H   0  0  0  0  0  0  0  0  0  0  0  0
   -0.2500    1.5895   -0.3820 C   0  0  0  0  0  0  0  0  0  0  0  0
   -1.0537    1.2812   -1.5612 C   0  0  0  0  0  0  0  0  0  0  0  0
   -0.6923    0.5383   -2.4456 O   0  0  0  0  0  1  0  0  0  0  0  0
   -0.4913    2.5002    0.1582 H   0  0  0  0  0  0  0  0  0  0  0  0
    0.8014    1.3227   -0.4352 H   0  0  0  0  0  0  0  0  0  0  0  0
   -2.0538    1.7532   -1.6019 H   0  0  0  0  0  0  0  0  0  0  0  0
  1  2  1  0
  1  5  1  0
  1  6  1  0
  1  7  1  0
  2  3  1  0
  2  8  1  0
  2  9  1  0
  3  4  1  0
  4 10  1  0
 11 12  2  3
 11 14  1  0
 11 15  1  0
 12 13  1  0
 12 16  1  0
M  RAD  1  13   2
M  END
>  <reaction>  (4) 
rxn_460

>  <mol_properties>  (4) 
{"2": {"label": "*0", "atom_type": "O2s"}, "3": {"label": "*1", "atom_type": "O2s"}, "9": {"label": "*2", "atom_type": "H0"}, "10": {"label": "*3", "atom_type": "Cd"}, "11": {"label": "*4", "atom_type": "Cd"}}

>  <type>  (4) 
ts

$$$$

     RDKit          3D

 16 14  0  0  0  0  0  0  0  0999 V2000
    0.6599   -2.0086   -0.3905 C   0  0  0  0  0  0  0  0  0  0  0  0
    0.6599   -2.0086    1.1248 C   0  0  0  0  0  0  0  0  0  0  0  0
    0.6599   -0.7125    1.6932 O   0  0  0  0  0  0  0  0  0  0  0  0
   -0.6173   -0.1308    1.4477 O   0  0  0  0  0  0  0  0  0  0  0  0
    1.5043   -1.4347   -0.7764 H   0  0  0  0  0  0  0  0  0  0  0  0
    0.7416   -3.0313   -0.7627 H   0  0  0  0  0  0  0  0  0  0  0  0
   -0.2656   -1.5841   -0.7801 H   0  0  0  0  0  0  0  0  0  0  0  0
    1.5809   -2.4457    1.5172 H   0  0  0  0  0  0  0  0  0  0  0  0
   -0.1866   -2.5772    1.5214 H   0  0  0  0  0  0  0  0  0  0  0  0
   -0.3506    0.7024    0.6928 H   0  0  0  0  0  0  0  0  0  0  0  0
   -0.0478    1.6483   -0.1642 C   0  0  0  0  0  0  0  0  0  0  0  0
   -0.7917    1.4147   -1.4442 C   0  0  0  0  0  0  0  0  0  0  0  0
   -0.4927    1.8889   -2.5043 O   0  0  0  0  0  1  0  0  0  0  0  0
   -0.7267    2.0814    0.5751 H   0  0  0  0  0  0  0  0  0  0  0  0
    0.8028    2.3075   -0.3246 H   0  0  0  0  0  0  0  0  0  0  0  0
   -1.6766    0.7488   -1.3598 H   0  0  0  0  0  0  0  0  0  0  0  0
  1  2  1  0
  1  5  1  0
  1  6  1  0
  1  7  1  0
  2  3  1  0
  2  8  1  0
  2  9  1  0
  3  4  1  0
  4 10  1  0
 11 12  2  3
 11 14  1  0
 11 15  1  0
 12 13  1  0
 12 16  1  0
M  RAD  1  13   2
M  END
>  <reaction>  (5) 
rxn_460

>  <mol_properties>  (5) 
{"2": {"label": "*0", "atom_type": "O2s"}, "3": {"label": "*1", "atom_type": "O2s"}, "9": {"label": "*2", "atom_type": "H0"}, "10": {"label": "*3", "atom_type": "Cd"}, "11": {"label": "*4", "atom_type": "Cd"}}

>  <type>  (5) 
unop_1

>  <geom_source>  (5) 
Heuristics

$$$$

     RDKit          3D

 16 14  0  0  0  0  0  0  0  0999 V2000
    0.0353   -1.9879   -0.6220 C   0  0  0  0  0  0  0  0  0  0  0  0
    0.0353   -1.9879    0.8933 C   0  0  0  0  0  0  0  0  0  0  0  0
    0.0353   -0.6918    1.4617 O   0  0  0  0  0  0  0  0  0  0  0  0
   -1.2419   -0.1101    1.2162 O   0  0  0  0  0  0  0  0  0  0  0  0
    0.8797   -1.4140   -1.0079 H   0  0  0  0  0  0  0  0  0  0  0  0
    0.1171   -3.0106   -0.9942 H   0  0  0  0  0  0  0  0  0  0  0  0
   -0.8902   -1.5634   -1.0116 H   0  0  0  0  0  0  0  0  0  0  0  0
    0.9564   -2.4251    1.2857 H   0  0  0  0  0  0  0  0  0  0  0  0
   -0.8112   -2.5565    1.2899 H   0  0  0  0  0  0  0  0  0  0  0  0
   -0.9751    0.7231    0.4613 H   0  0  0  0  0  0  0  0  0  0  0  0
   -0.6723    1.6690   -0.3957 C   0  0  0  0  0  0  0  0  0  0  0  0
    0.5177    1.2452   -1.2023 C   0  0  0  0  0  0  0  0  0  0  0  0
    1.4202    1.9682   -1.5197 O   0  0  0  0  0  1  0  0  0  0  0  0
   -1.5841    1.4756   -0.9669 H   0  0  0  0  0  0  0  0  0  0  0  0
   -0.6089    2.7235   -0.1352 H   0  0  0  0  0  0  0  0  0  0  0  0
    0.5240    0.1771   -1.5069 H   0  0  0  0  0  0  0  0  0  0  0  0
  1  2  1  0
  1  5  1  0
  1  6  1  0
  1  7  1  0
  2  3  1  0
  2  8  1  0
  2  9  1  0
  3  4  1  0
  4 10  1  0
 11 12  2  3
 11 14  1  0
 11 15  1  0
 12 13  1  0
 12 16  1  0
M  RAD  1  13   2
M  END
>  <reaction>  (6) 
rxn_460

>  <mol_properties>  (6) 
{"2": {"label": "*0", "atom_type": "O2s"}, "3": {"label": "*1", "atom_type": "O2s"}, "9": {"label": "*2", "atom_type": "H0"}, "10": {"label": "*3", "atom_type": "Cd"}, "11": {"label": "*4", "atom_type": "Cd"}}

>  <type>  (6) 
unop_2

>  <geom_source>  (6) 
Heuristics

$$$$

     RDKit          3D

 16 14  0  0  0  0  0  0  0  0999 V2000
    0.8037   -2.1238   -0.4819 C   0  0  0  0  0  0  0  0  0  0  0  0
    0.8037   -2.1238    1.0333 C   0  0  0  0  0  0  0  0  0  0  0  0
    0.8037   -0.8277    1.6018 O   0  0  0  0  0  0  0  0  0  0  0  0
   -0.4735   -0.2461    1.3563 O   0  0  0  0  0  0  0  0  0  0  0  0
    1.6481   -1.5500   -0.8678 H   0  0  0  0  0  0  0  0  0  0  0  0
    0.8855   -3.1465   -0.8541 H   0  0  0  0  0  0  0  0  0  0  0  0
   -0.1218   -1.6993   -0.8716 H   0  0  0  0  0  0  0  0  0  0  0  0
    1.7248   -2.5610    1.4257 H   0  0  0  0  0  0  0  0  0  0  0  0
   -0.0428   -2.6924    1.4299 H   0  0  0  0  0  0  0  0  0  0  0  0
   -0.2068    0.5872    0.6014 H   0  0  0  0  0  0  0  0  0  0  0  0
    0.0960    1.5330   -0.2556 C   0  0  0  0  0  0  0  0  0  0  0  0
   -1.0706    1.7694   -1.1664 C   0  0  0  0  0  0  0  0  0  0  0  0
   -0.9850    2.1339   -2.3056 O   0  0  0  0  0  1  0  0  0  0  0  0
    0.0011    2.1708    0.6271 H   0  0  0  0  0  0  0  0  0  0  0  0
    1.0347    1.7367   -0.7668 H   0  0  0  0  0  0  0  0  0  0  0  0
   -2.0672    1.5816   -0.7134 H   0  0  0  0  0  0  0  0  0  0  0  0
  1  2  1  0
  1  5  1  0
  1  6  1  0
  1  7  1  0
  2  3  1  0
  2  8  1  0
  2  9  1  0
  3  4  1  0
  4 10  1  0
 11 12  2  3
 11 14  1  0
 11 15  1  0
 12 13  1  0
 12 16  1  0
M  RAD  1  13   2
M  END
>  <reaction>  (7) 
rxn_460

>  <mol_properties>  (7) 
{"2": {"label": "*0", "atom_type": "O2s"}, "3": {"label": "*1", "atom_type": "O2s"}, "9": {"label": "*2", "atom_type": "H0"}, "10": {"label": "*3", "atom_type": "Cd"}, "11": {"label": "*4", "atom_type": "Cd"}}

>  <type>  (7) 
unop_3

>  <geom_source>  (7) 
Heuristics

$$$$

     RDKit          3D

 16 14  0  0  0  0  0  0  0  0999 V2000
    0.2689   -2.4076   -1.1584 C   0  0  0  0  0  0  0  0  0  0  0  0
    0.2689   -2.4076    0.3569 C   0  0  0  0  0  0  0  0  0  0  0  0
    0.2689   -1.1115    0.9253 O   0  0  0  0  0  0  0  0  0  0  0  0
   -1.0083   -0.5299    0.6799 O   0  0  0  0  0  0  0  0  0  0  0  0
    1.1133   -1.8338   -1.5443 H   0  0  0  0  0  0  0  0  0  0  0  0
    0.3507   -3.4303   -1.5306 H   0  0  0  0  0  0  0  0  0  0  0  0
   -0.6566   -1.9831   -1.5480 H   0  0  0  0  0  0  0  0  0  0  0  0
    1.1900   -2.8448    0.7493 H   0  0  0  0  0  0  0  0  0  0  0  0
   -0.5776   -2.9762    0.7535 H   0  0  0  0  0  0  0  0  0  0  0  0
   -0.7415    0.3033   -0.0751 H   0  0  0  0  0  0  0  0  0  0  0  0
   -0.4387    1.2492   -0.9321 C   0  0  0  0  0  0  0  0  0  0  0  0
    0.5342    2.1983   -0.3003 C   0  0  0  0  0  0  0  0  0  0  0  0
    0.2281    3.1755    0.3236 O   0  0  0  0  0  1  0  0  0  0  0  0
   -0.2465    1.1962   -2.0069 H   0  0  0  0  0  0  0  0  0  0  0  0
   -1.4636    1.5654   -0.7490 H   0  0  0  0  0  0  0  0  0  0  0  0
    1.6049    1.9404   -0.4447 H   0  0  0  0  0  0  0  0  0  0  0  0
  1  2  1  0
  1  5  1  0
  1  6  1  0
  1  7  1  0
  2  3  1  0
  2  8  1  0
  2  9  1  0
  3  4  1  0
  4 10  1  0
 11 12  2  3
 11 14  1  0
 11 15  1  0
 12 13  1  0
 12 16  1  0
M  RAD  1  13   2
M  END
>  <reaction>  (8) 
rxn_460

>  <mol_properties>  (8) 
{"2": {"label": "*0", "atom_type": "O2s"}, "3": {"label": "*1", "atom_type": "O2s"}, "9": {"label": "*2", "atom_type": "H0"}, "10": {"label": "*3", "atom_type": "Cd"}, "11": {"label": "*4", "atom_type": "Cd"}}

>  <type>  (8) 
unop_4

>  <geom_source>  (8) 
Heuristics

$$$$

     RDKit          3D

 16 14  0  0  0  0  0  0  0  0999 V2000
    0.8941   -2.2240   -0.6268 C   0  0  0  0  0  0  0  0  0  0  0  0
    0.8941   -2.2240    0.8885 C   0  0  0  0  0  0  0  0  0  0  0  0
    0.8941   -0.9279    1.4570 O   0  0  0  0  0  0  0  0  0  0  0  0
   -0.3831   -0.3463    1.2115 O   0  0  0  0  0  0  0  0  0  0  0  0
    1.7384   -1.6502   -1.0126 H   0  0  0  0  0  0  0  0  0  0  0  0
    0.9758   -3.2468   -0.9989 H   0  0  0  0  0  0  0  0  0  0  0  0
   -0.0314   -1.7996   -1.0164 H   0  0  0  0  0  0  0  0  0  0  0  0
    1.8151   -2.6612    1.2809 H   0  0  0  0  0  0  0  0  0  0  0  0
    0.0476   -2.7927    1.2851 H   0  0  0  0  0  0  0  0  0  0  0  0
   -0.1164    0.4869    0.4566 H   0  0  0  0  0  0  0  0  0  0  0  0
    0.1864    1.4328   -0.4005 C   0  0  0  0  0  0  0  0  0  0  0  0
   -1.0597    2.1716   -0.7847 C   0  0  0  0  0  0  0  0  0  0  0  0
   -1.4719    2.2792   -1.9057 O   0  0  0  0  0  1  0  0  0  0  0  0
    0.8692    2.1163    0.1111 H   0  0  0  0  0  0  0  0  0  0  0  0
    0.6696    1.0052   -1.2766 H   0  0  0  0  0  0  0  0  0  0  0  0
   -1.6102    2.6377    0.0600 H   0  0  0  0  0  0  0  0  0  0  0  0
  1  2  1  0
  1  5  1  0
  1  6  1  0
  1  7  1  0
  2  3  1  0
  2  8  1  0
  2  9  1  0
  3  4  1  0
  4 10  1  0
 11 12  2  3
 11 14  1  0
 11 15  1  0
 12 13  1  0
 12 16  1  0
M  RAD  1  13   2
M  END
>  <reaction>  (9) 
rxn_460

>  <mol_properties>  (9) 
{"2": {"label": "*0", "atom_type": "O2s"}, "3": {"label": "*1", "atom_type": "O2s"}, "9": {"label": "*2", "atom_type": "H0"}, "10": {"label": "*3", "atom_type": "Cd"}, "11": {"label": "*4", "atom_type": "Cd"}}

>  <type>  (9) 
unop_5

>  <geom_source>  (9) 
Heuristics

$$$$

     RDKit          3D

 16 14  0  0  0  0  0  0  0  0999 V2000
    0.5242   -2.4644   -1.1574 C   0  0  0  0  0  0  0  0  0  0  0  0
    0.5242   -2.4644    0.3579 C   0  0  0  0  0  0  0  0  0  0  0  0
    0.5242   -1.1683    0.9264 O   0  0  0  0  0  0  0  0  0  0  0  0
   -0.7530   -0.5866    0.6809 O   0  0  0  0  0  0  0  0  0  0  0  0
    1.3686   -1.8905   -1.5432 H   0  0  0  0  0  0  0  0  0  0  0  0
    0.6060   -3.4871   -1.5295 H   0  0  0  0  0  0  0  0  0  0  0  0
   -0.4012   -2.0399   -1.5470 H   0  0  0  0  0  0  0  0  0  0  0  0
    1.4453   -2.9015    0.7503 H   0  0  0  0  0  0  0  0  0  0  0  0
   -0.3222   -3.0330    0.7545 H   0  0  0  0  0  0  0  0  0  0  0  0
   -0.4862    0.2466   -0.0740 H   0  0  0  0  0  0  0  0  0  0  0  0
   -0.1834    1.1925   -0.9310 C   0  0  0  0  0  0  0  0  0  0  0  0
    0.1367    2.4530   -0.1861 C   0  0  0  0  0  0  0  0  0  0  0  0
   -0.6791    3.2327    0.2195 O   0  0  0  0  0  1  0  0  0  0  0  0
    0.3094    1.2135   -1.9066 H   0  0  0  0  0  0  0  0  0  0  0  0
   -1.2582    1.0779   -1.0557 H   0  0  0  0  0  0  0  0  0  0  0  0
    1.2189    2.6396   -0.0195 H   0  0  0  0  0  0  0  0  0  0  0  0
  1  2  1  0
  1  5  1  0
  1  6  1  0
  1  7  1  0
  2  3  1  0
  2  8  1  0
  2  9  1  0
  3  4  1  0
  4 10  1  0
 11 12  2  3
 11 14  1  0
 11 15  1  0
 12 13  1  0
 12 16  1  0
M  RAD  1  13   2
M  END
>  <reaction>  (10) 
rxn_460

>  <mol_properties>  (10) 
{"2": {"label": "*0", "atom_type": "O2s"}, "3": {"label": "*1", "atom_type": "O2s"}, "9": {"label": "*2", "atom_type": "H0"}, "10": {"label": "*3", "atom_type": "Cd"}, "11": {"label": "*4", "atom_type": "Cd"}}

>  <type>  (10) 
unop_6

>  <geom_source>  (10) 
Heuristics

$$$$

     RDKit          3D

 16 14  0  0  0  0  0  0  0  0999 V2000
    0.7610   -2.4370   -1.0435 C   0  0  0  0  0  0  0  0  0  0  0  0
    0.7610   -2.4370    0.4718 C   0  0  0  0  0  0  0  0  0  0  0  0
    0.7610   -1.1409    1.0403 O   0  0  0  0  0  0  0  0  0  0  0  0
   -0.5162   -0.5593    0.7948 O   0  0  0  0  0  0  0  0  0  0  0  0
    1.6054   -1.8632   -1.4293 H   0  0  0  0  0  0  0  0  0  0  0  0
    0.8428   -3.4597   -1.4156 H   0  0  0  0  0  0  0  0  0  0  0  0
   -0.1645   -2.0125   -1.4331 H   0  0  0  0  0  0  0  0  0  0  0  0
    1.6821   -2.8742    0.8642 H   0  0  0  0  0  0  0  0  0  0  0  0
   -0.0855   -3.0056    0.8684 H   0  0  0  0  0  0  0  0  0  0  0  0
   -0.2495    0.2740    0.0399 H   0  0  0  0  0  0  0  0  0  0  0  0
    0.0533    1.2198   -0.8171 C   0  0  0  0  0  0  0  0  0  0  0  0
   -0.3344    2.5500   -0.2455 C   0  0  0  0  0  0  0  0  0  0  0  0
   -1.4384    3.0161   -0.2880 O   0  0  0  0  0  1  0  0  0  0  0  0
    0.8488    1.3605   -1.5537 H   0  0  0  0  0  0  0  0  0  0  0  0
   -0.8028    0.7311   -1.2777 H   0  0  0  0  0  0  0  0  0  0  0  0
    0.4903    3.1108    0.2435 H   0  0  0  0  0  0  0  0  0  0  0  0
  1  2  1  0
  1  5  1  0
  1  6  1  0
  1  7  1  0
  2  3  1  0
  2  8  1  0
  2  9  1  0
  3  4  1  0
  4 10  1  0
 11 12  2  3
 11 14  1  0
 11 15  1  0
 12 13  1  0
 12 16  1  0
M  RAD  1  13   2
M  END
>  <reaction>  (11) 
rxn_460

>  <mol_properties>  (11) 
{"2": {"label": "*0", "atom_type": "O2s"}, "3": {"label": "*1", "atom_type": "O2s"}, "9": {"label": "*2", "atom_type": "H0"}, "10": {"label": "*3", "atom_type": "Cd"}, "11": {"label": "*4", "atom_type": "Cd"}}

>  <type>  (11) 
unop_7

>  <geom_source>  (11) 
Heuristics

$$$$

     RDKit          3D

 16 14  0  0  0  0  0  0  0  0999 V2000
    0.4488   -1.9231   -0.3707 C   0  0  0  0  0  0  0  0  0  0  0  0
    0.4488   -1.9231    1.1446 C   0  0  0  0  0  0  0  0  0  0  0  0
    0.4488   -0.6270    1.7130 O   0  0  0  0  0  0  0  0  0  0  0  0
   -0.8284   -0.0453    1.4675 O   0  0  0  0  0  0  0  0  0  0  0  0
    1.2932   -1.3492   -0.7566 H   0  0  0  0  0  0  0  0  0  0  0  0
    0.5305   -2.9458   -0.7429 H   0  0  0  0  0  0  0  0  0  0  0  0
   -0.4767   -1.4986   -0.7603 H   0  0  0  0  0  0  0  0  0  0  0  0
    1.3698   -2.3602    1.5370 H   0  0  0  0  0  0  0  0  0  0  0  0
   -0.3977   -2.4917    1.5412 H   0  0  0  0  0  0  0  0  0  0  0  0
   -0.5617    0.7879    0.7126 H   0  0  0  0  0  0  0  0  0  0  0  0
   -0.2589    1.7338   -0.1444 C   0  0  0  0  0  0  0  0  0  0  0  0
   -0.3500    1.1887   -1.5376 C   0  0  0  0  0  0  0  0  0  0  0  0
    0.1703    1.6813   -2.4992 O   0  0  0  0  0  1  0  0  0  0  0  0
   -1.2650    1.9406    0.2298 H   0  0  0  0  0  0  0  0  0  0  0  0
    0.3442    2.6391   -0.1207 H   0  0  0  0  0  0  0  0  0  0  0  0
   -0.9520    0.2611   -1.6419 H   0  0  0  0  0  0  0  0  0  0  0  0
  1  2  1  0
  1  5  1  0
  1  6  1  0
  1  7  1  0
  2  3  1  0
  2  8  1  0
  2  9  1  0
  3  4  1  0
  4 10  1  0
 11 12  2  3
 11 14  1  0
 11 15  1  0
 12 13  1  0
 12 16  1  0
M  RAD  1  13   2
M  END
>  <reaction>  (12) 
rxn_460

>  <mol_properties>  (12) 
{"2": {"label": "*0", "atom_type": "O2s"}, "3": {"label": "*1", "atom_type": "O2s"}, "9": {"label": "*2", "atom_type": "H0"}, "10": {"label": "*3", "atom_type": "Cd"}, "11": {"label": "*4", "atom_type": "Cd"}}

>  <type>  (12) 
unop_8

>  <geom_source>  (12) 
Heuristics

$$$$

     RDKit          3D

 16 14  0  0  0  0  0  0  0  0999 V2000
    0.0664   -2.2844   -1.0454 C   0  0  0  0  0  0  0  0  0  0  0  0
    0.0664   -2.2844    0.4699 C   0  0  0  0  0  0  0  0  0  0  0  0
    0.0664   -0.9883    1.0383 O   0  0  0  0  0  0  0  0  0  0  0  0
   -1.2109   -0.4067    0.7928 O   0  0  0  0  0  0  0  0  0  0  0  0
    0.9107   -1.7106   -1.4313 H   0  0  0  0  0  0  0  0  0  0  0  0
    0.1481   -3.3072   -1.4176 H   0  0  0  0  0  0  0  0  0  0  0  0
   -0.8591   -1.8599   -1.4350 H   0  0  0  0  0  0  0  0  0  0  0  0
    0.9874   -2.7216    0.8623 H   0  0  0  0  0  0  0  0  0  0  0  0
   -0.7801   -2.8530    0.8665 H   0  0  0  0  0  0  0  0  0  0  0  0
   -0.9441    0.4265    0.0379 H   0  0  0  0  0  0  0  0  0  0  0  0
   -0.6413    1.3724   -0.8191 C   0  0  0  0  0  0  0  0  0  0  0  0
    0.7544    1.8515   -0.5566 C   0  0  0  0  0  0  0  0  0  0  0  0
    1.0312    2.8791   -0.0039 O   0  0  0  0  0  1  0  0  0  0  0  0
   -0.7778    1.2269   -1.8939 H   0  0  0  0  0  0  0  0  0  0  0  0
   -1.3731    2.0831   -0.4404 H   0  0  0  0  0  0  0  0  0  0  0  0
    1.5595    1.1760   -0.9161 H   0  0  0  0  0  0  0  0  0  0  0  0
  1  2  1  0
  1  5  1  0
  1  6  1  0
  1  7  1  0
  2  3  1  0
  2  8  1  0
  2  9  1  0
  3  4  1  0
  4 10  1  0
 11 12  2  3
 11 14  1  0
 11 15  1  0
 12 13  1  0
 12 16  1  0
M  RAD  1  13   2
M  END
>  <reaction>  (13) 
rxn_460

>  <mol_properties>  (13) 
{"2": {"label": "*0", "atom_type": "O2s"}, "3": {"label": "*1", "atom_type": "O2s"}, "9": {"label": "*2", "atom_type": "H0"}, "10": {"label": "*3", "atom_type": "Cd"}, "11": {"label": "*4", "atom_type": "Cd"}}

>  <type>  (13) 
unop_9

>  <geom_source>  (13) 
Heuristics

$$$$

     RDKit          3D

 16 14  0  0  0  0  0  0  0  0999 V2000
    0.2158   -1.9115   -0.4492 C   0  0  0  0  0  0  0  0  0  0  0  0
    0.2158   -1.9115    1.0661 C   0  0  0  0  0  0  0  0  0  0  0  0
    0.2158   -0.6154    1.6345 O   0  0  0  0  0  0  0  0  0  0  0  0
   -1.0614   -0.0338    1.3890 O   0  0  0  0  0  0  0  0  0  0  0  0
    1.0602   -1.3377   -0.8351 H   0  0  0  0  0  0  0  0  0  0  0  0
    0.2976   -2.9343   -0.8214 H   0  0  0  0  0  0  0  0  0  0  0  0
   -0.7096   -1.4871   -0.8389 H   0  0  0  0  0  0  0  0  0  0  0  0
    1.1369   -2.3487    1.4585 H   0  0  0  0  0  0  0  0  0  0  0  0
   -0.6306   -2.4802    1.4627 H   0  0  0  0  0  0  0  0  0  0  0  0
   -0.7946    0.7994    0.6341 H   0  0  0  0  0  0  0  0  0  0  0  0
   -0.4918    1.7453   -0.2229 C   0  0  0  0  0  0  0  0  0  0  0  0
    0.1249    1.1306   -1.4428 C   0  0  0  0  0  0  0  0  0  0  0  0
    0.8945    1.6884   -2.1740 O   0  0  0  0  0  1  0  0  0  0  0  0
   -1.5807    1.7228   -0.3175 H   0  0  0  0  0  0  0  0  0  0  0  0
   -0.1476    2.7686   -0.0879 H   0  0  0  0  0  0  0  0  0  0  0  0
   -0.1799    0.0823   -1.6472 H   0  0  0  0  0  0  0  0  0  0  0  0
  1  2  1  0
  1  5  1  0
  1  6  1  0
  1  7  1  0
  2  3  1  0
  2  8  1  0
  2  9  1  0
  3  4  1  0
  4 10  1  0
 11 12  2  3
 11 14  1  0
 11 15  1  0
 12 13  1  0
 12 16  1  0
M  RAD  1  13   2
M  END
>  <reaction>  (14) 
rxn_460

>  <mol_properties>  (14) 
{"2": {"label": "*0", "atom_type": "O2s"}, "3": {"label": "*1", "atom_type": "O2s"}, "9": {"label": "*2", "atom_type": "H0"}, "10": {"label": "*3", "atom_type": "Cd"}, "11": {"label": "*4", "atom_type": "Cd"}}

>  <type>  (14) 
unop_10

>  <geom_source>  (14) 
Heuristics

$$$$

     RDKit          3D

 16 14  0  0  0  0  0  0  0  0999 V2000
    0.9023   -2.3372   -0.8425 C   0  0  0  0  0  0  0  0  0  0  0  0
    0.9023   -2.3372    0.6727 C   0  0  0  0  0  0  0  0  0  0  0  0
    0.9023   -1.0411    1.2412 O   0  0  0  0  0  0  0  0  0  0  0  0
   -0.3749   -0.4595    0.9957 O   0  0  0  0  0  0  0  0  0  0  0  0
    1.7466   -1.7634   -1.2284 H   0  0  0  0  0  0  0  0  0  0  0  0
    0.9840   -3.3600   -1.2147 H   0  0  0  0  0  0  0  0  0  0  0  0
   -0.0232   -1.9127   -1.2322 H   0  0  0  0  0  0  0  0  0  0  0  0
    1.8233   -2.7744    1.0652 H   0  0  0  0  0  0  0  0  0  0  0  0
    0.0558   -2.9059    1.0693 H   0  0  0  0  0  0  0  0  0  0  0  0
   -0.1082    0.3737    0.2408 H   0  0  0  0  0  0  0  0  0  0  0  0
    0.1946    1.3196   -0.6162 C   0  0  0  0  0  0  0  0  0  0  0  0
   -0.7665    2.4588   -0.4579 C   0  0  0  0  0  0  0  0  0  0  0  0
   -1.7692    2.6008   -1.1000 O   0  0  0  0  0  1  0  0  0  0  0  0
    1.1851    1.7130   -0.8593 H   0  0  0  0  0  0  0  0  0  0  0  0
   -0.1392    0.6357   -1.3939 H   0  0  0  0  0  0  0  0  0  0  0  0
   -0.4919    3.2017    0.3209 H   0  0  0  0  0  0  0  0  0  0  0  0
  1  2  1  0
  1  5  1  0
  1  6  1  0
  1  7  1  0
  2  3  1  0
  2  8  1  0
  2  9  1  0
  3  4  1  0
  4 10  1  0
 11 12  2  3
 11 14  1  0
 11 15  1  0
 12 13  1  0
 12 16  1  0
M  RAD  1  13   2
M  END
>  <reaction>  (15) 
rxn_460

>  <mol_properties>  (15) 
{"2": {"label": "*0", "atom_type": "O2s"}, "3": {"label": "*1", "atom_type": "O2s"}, "9": {"label": "*2", "atom_type": "H0"}, "10": {"label": "*3", "atom_type": "Cd"}, "11": {"label": "*4", "atom_type": "Cd"}}

>  <type>  (15) 
unop_11

>  <geom_source>  (15) 
Heuristics

$$$$

     RDKit          3D

 16 14  0  0  0  0  0  0  0  0999 V2000
   -0.0227   -2.1288   -0.8455 C   0  0  0  0  0  0  0  0  0  0  0  0
   -0.0227   -2.1288    0.6698 C   0  0  0  0  0  0  0  0  0  0  0  0
   -0.0227   -0.8327    1.2382 O   0  0  0  0  0  0  0  0  0  0  0  0
   -1.2999   -0.2510    0.9927 O   0  0  0  0  0  0  0  0  0  0  0  0
    0.8217   -1.5549   -1.2314 H   0  0  0  0  0  0  0  0  0  0  0  0
    0.0591   -3.1515   -1.2177 H   0  0  0  0  0  0  0  0  0  0  0  0
   -0.9482   -1.7043   -1.2352 H   0  0  0  0  0  0  0  0  0  0  0  0
    0.8984   -2.5659    1.0622 H   0  0  0  0  0  0  0  0  0  0  0  0
   -0.8692   -2.6974    1.0664 H   0  0  0  0  0  0  0  0  0  0  0  0
   -1.0332    0.5822    0.2378 H   0  0  0  0  0  0  0  0  0  0  0  0
   -0.7304    1.5281   -0.6192 C   0  0  0  0  0  0  0  0  0  0  0  0
    0.7448    1.5047   -0.8832 C   0  0  0  0  0  0  0  0  0  0  0  0
    1.4869    2.4279   -0.6961 O   0  0  0  0  0  1  0  0  0  0  0  0
   -1.2671    1.3006   -1.5440 H   0  0  0  0  0  0  0  0  0  0  0  0
   -1.0402    2.4973   -0.2338 H   0  0  0  0  0  0  0  0  0  0  0  0
    1.1370    0.5442   -1.2799 H   0  0  0  0  0  0  0  0  0  0  0  0
  1  2  1  0
  1  5  1  0
  1  6  1  0
  1  7  1  0
  2  3  1  0
  2  8  1  0
  2  9  1  0
  3  4  1  0
  4 10  1  0
 11 12  2  3
 11 14  1  0
 11 15  1  0
 12 13  1  0
 12 16  1  0
M  RAD  1  13   2
M  END
>  <reaction>  (16) 
rxn_460

>  <mol_properties>  (16) 
{"2": {"label": "*0", "atom_type": "O2s"}, "3": {"label": "*1", "atom_type": "O2s"}, "9": {"label": "*2", "atom_type": "H0"}, "10": {"label": "*3", "atom_type": "Cd"}, "11": {"label": "*4", "atom_type": "Cd"}}

>  <type>  (16) 
unop_12

>  <geom_source>  (16) 
Heuristics

$$$$

     RDKit          3D

 16 14  0  0  0  0  0  0  0  0999 V2000
    1.1083   -1.2615   -0.4443 O   0  0  0  0  0  0  0  0  0  0  0  0
   -2.3312    1.3584    1.4436 O   0  0  0  0  0  0  0  0  0  0  0  0
   -0.1810   -1.3700   -0.7012 O   0  0  0  0  0  1  0  0  0  0  0  0
    1.3561    0.1122   -0.3081 C   0  0  0  0  0  0  0  0  0  0  0  0
    2.8308    0.3331   -0.0081 C   0  0  0  0  0  0  0  0  0  0  0  0
   -2.3271   -0.6600    0.2188 C   0  0  0  0  0  0  0  0  0  0  0  0
   -2.4376    0.8241    0.3514 C   0  0  0  0  0  0  0  0  0  0  0  0
    1.0990    0.6460   -1.2511 H   0  0  0  0  0  0  0  0  0  0  0  0
    0.7538    0.5318    0.5293 H   0  0  0  0  0  0  0  0  0  0  0  0
    3.4518   -0.0674   -0.8373 H   0  0  0  0  0  0  0  0  0  0  0  0
    3.0329    1.4195    0.1008 H   0  0  0  0  0  0  0  0  0  0  0  0
    3.1079   -0.1812    0.9366 H   0  0  0  0  0  0  0  0  0  0  0  0
   -3.2703   -1.0634   -0.2045 H   0  0  0  0  0  0  0  0  0  0  0  0
   -2.1424   -1.1316    1.2077 H   0  0  0  0  0  0  0  0  0  0  0  0
   -1.4368   -0.9217   -0.5039 H   0  0  0  0  0  0  0  0  0  0  0  0
   -2.6142    1.4319   -0.5296 H   0  0  0  0  0  0  0  0  0  0  0  0
  1  4  1  0
  1  3  1  0
  2  7  2  0
  4  5  1  0
  4  8  1  0
  4  9  1  0
  5 10  1  0
  5 11  1  0
  5 12  1  0
  6  7  1  0
  6 13  1  0
  6 14  1  0
  6 15  1  0
  7 16  1  0
M  RAD  1   3   2
M  END
>  <reaction>  (17) 
rxn_460

>  <mol_properties>  (17) 
{"2": {"label": "*0", "atom_type": "O2s"}, "3": {"label": "*1", "atom_type": "O2s"}, "9": {"label": "*2", "atom_type": "H0"}, "10": {"label": "*3", "atom_type": "Cd"}, "11": {"label": "*4", "atom_type": "Cd"}}

>  <type>  (17) 
unop_13

>  <geom_source>  (17) 
AutoTST

$$$$
