
     RDKit          3D

 12 11  0  0  0  0  0  0  0  0999 V2000
    1.2394   -0.3763   -0.3020 C   0  0  0  0  0  0  0  0  0  0  0  0
    0.1007    0.3023    0.4464 C   0  0  0  0  0  0  0  0  0  0  0  0
   -0.1187    2.0399   -0.0725 S   0  0  0  0  0  0  0  0  0  0  0  0
   -1.1974   -0.4877    0.3552 C   0  0  0  0  0  0  0  0  0  0  0  0
    2.1681    0.1849   -0.2048 H   0  0  0  0  0  0  0  0  0  0  0  0
    1.0031   -0.4606   -1.3656 H   0  0  0  0  0  0  0  0  0  0  0  0
    1.3994   -1.3856    0.0860 H   0  0  0  0  0  0  0  0  0  0  0  0
    0.3796    0.4050    1.4981 H   0  0  0  0  0  0  0  0  0  0  0  0
   -0.4500    1.7779   -1.3452 H   0  0  0  0  0  0  0  0  0  0  0  0
   -1.0545   -1.4978    0.7479 H   0  0  0  0  0  0  0  0  0  0  0  0
   -1.5206   -0.5759   -0.6849 H   0  0  0  0  0  0  0  0  0  0  0  0
   -1.9957   -0.0054    0.9183 H   0  0  0  0  0  0  0  0  0  0  0  0
  1  2  1  0
  1  5  1  0
  1  6  1  0
  1  7  1  0
  2  4  1  0
  2  3  1  0
  2  8  1  0
  3  9  1  0
  4 10  1  0
  4 11  1  0
  4 12  1  0
M  END
>  <reaction>  (1) 
rxn_1940

>  <mol_properties>  (1) 
{"1": {"label": "donator", "atom_type": "Cs"}, "7": {"label": "d_hydrogen", "atom_type": "H0"}}

>  <type>  (1) 
r1h

$$$$

     RDKit          3D

 10  9  0  0  0  0  0  0  0  0999 V2000
   -1.3354   -0.2069    0.0525 C   0  0  0  0  0  0  0  0  0  0  0  0
    0.0851    0.2624    0.0266 C   0  0  0  0  0  0  0  0  0  0  0  0
    0.4841    1.3876    0.7359 C   0  0  0  0  0  0  0  0  0  0  0  0
    2.0191    2.0303    0.8057 S   0  0  0  0  0  1  0  0  0  0  0  0
    1.1566   -0.6823   -0.9297 S   0  0  0  0  0  0  0  0  0  0  0  0
   -1.7589   -0.2174   -0.9545 H   0  0  0  0  0  0  0  0  0  0  0  0
   -1.4004   -1.2253    0.4427 H   0  0  0  0  0  0  0  0  0  0  0  0
   -1.9442    0.4442    0.6783 H   0  0  0  0  0  0  0  0  0  0  0  0
   -0.3073    1.8814    1.2951 H   0  0  0  0  0  0  0  0  0  0  0  0
    2.2383    0.0827   -0.6554 H   0  0  0  0  0  0  0  0  0  0  0  0
  1  2  1  0
  1  6  1  0
  1  7  1  0
  1  8  1  0
  2  3  2  3
  2  5  1  0
  3  4  1  0
  3  9  1  0
  5 10  1  0
M  RAD  1   4   2
M  END
>  <reaction>  (2) 
rxn_1940

>  <mol_properties>  (2) 
{"1": {"label": "acceptor", "atom_type": "Cs"}}

>  <type>  (2) 
r2

$$$$

     RDKit          3D

 11 10  0  0  0  0  0  0  0  0999 V2000
   -1.0997   -0.5860   -0.1182 C   0  0  0  0  0  0  0  0  0  0  0  0
    0.0827    0.2961    0.2270 C   0  0  0  0  0  0  0  0  0  0  0  0
    0.1622    1.6171   -0.4774 C   0  0  0  0  0  0  0  0  0  0  0  0
   -0.9879    2.3087   -1.3633 S   0  0  0  0  0  0  0  0  0  0  0  0
    0.2176    0.6619    2.0187 S   0  0  0  0  0  0  0  0  0  0  0  0
   -1.1052   -0.8107   -1.1861 H   0  0  0  0  0  0  0  0  0  0  0  0
   -2.0402   -0.0893    0.1198 H   0  0  0  0  0  0  0  0  0  0  0  0
   -1.0438   -1.5182    0.4423 H   0  0  0  0  0  0  0  0  0  0  0  0
    1.0207   -0.2324    0.0280 H   0  0  0  0  0  0  0  0  0  0  0  0
    1.1091    2.1333   -0.3182 H   0  0  0  0  0  0  0  0  0  0  0  0
   -0.9205    1.3661    2.0994 H   0  0  0  0  0  0  0  0  0  0  0  0
  1  2  1  0
  1  6  1  0
  1  7  1  0
  1  8  1  0
  2  3  1  0
  2  5  1  0
  2  9  1  0
  3  4  2  0
  3 10  1  0
  5 11  1  0
M  END
>  <reaction>  (3) 
rxn_1940

>  <mol_properties>  (3) 
{"1": {"label": "acceptor", "atom_type": "Cs"}, "10": {"label": "a_hydrogen", "atom_type": "H0"}}

>  <type>  (3) 
r2h

$$$$

     RDKit          3D

 22 20  0  0  0  0  0  0  0  0999 V2000
   -0.6935   -0.1233    1.8230 C   0  0  0  0  0  0  0  0  0  0  0  0
   -0.8464   -0.0188    0.3243 C   0  0  0  0  0  0  0  0  0  0  0  0
   -0.7165   -1.2162   -0.4831 C   0  0  0  0  0  0  0  0  0  0  0  0
   -0.0090   -2.6162   -0.0365 S   0  0  0  0  0  0  0  0  0  0  0  0
   -2.1370    1.1161   -0.2423 S   0  0  0  0  0  0  0  0  0  0  0  0
   -1.5518   -0.6420    2.2573 H   0  0  0  0  0  0  0  0  0  0  0  0
    0.2026   -0.6895    2.0749 H   0  0  0  0  0  0  0  0  0  0  0  0
   -0.6300    0.8695    2.2671 H   0  0  0  0  0  0  0  0  0  0  0  0
   -1.0926   -1.1124   -1.5005 H   0  0  0  0  0  0  0  0  0  0  0  0
   -3.1888    0.3912    0.1672 H   0  0  0  0  0  0  0  0  0  0  0  0
    1.3596    1.1019   -1.8795 C   0  0  0  0  0  0  0  0  0  0  0  0
    1.3844    1.3584   -0.3979 C   0  0  0  0  0  3  0  0  0  0  0  0
    2.6695    0.5796    0.5286 S   0  0  0  0  0  0  0  0  0  0  0  0
    1.1376    2.7757    0.0459 C   0  0  0  0  0  0  0  0  0  0  0  0
    1.3776    0.0328   -2.1002 H   0  0  0  0  0  0  0  0  0  0  0  0
    2.2245    1.5618   -2.3665 H   0  0  0  0  0  0  0  0  0  0  0  0
    0.4533    1.5257   -2.3179 H   0  0  0  0  0  0  0  0  0  0  0  0
    0.2018    0.6476   -0.0213 H   0  0  0  0  0  0  0  0  0  0  0  0
    2.6589   -0.5922   -0.1220 H   0  0  0  0  0  0  0  0  0  0  0  0
    0.2095    3.1484   -0.3901 H   0  0  0  0  0  0  0  0  0  0  0  0
    1.9495    3.4325   -0.2836 H   0  0  0  0  0  0  0  0  0  0  0  0
    1.0599    2.8510    1.1311 H   0  0  0  0  0  0  0  0  0  0  0  0
  1  2  1  0
  1  6  1  0
  1  7  1  0
  1  8  1  0
  2  3  1  0
  2  5  1  0
  2 18  1  0
  3  4  2  0
  3  9  1  0
  5 10  1  0
 11 12  1  0
 11 15  1  0
 11 16  1  0
 11 17  1  0
 12 14  1  0
 12 13  1  0
 13 19  1  0
 14 20  1  0
 14 21  1  0
 14 22  1  0
M  RAD  1  12   2
M  END
>  <reaction>  (4) 
rxn_1940

>  <mol_properties>  (4) 
{"1": {"label": "*1", "atom_type": "Cs"}, "2": {"label": "*0", "atom_type": "CS"}, "11": {"label": "*3", "atom_type": "Cs"}, "12": {"label": "*4", "atom_type": "S2s"}, "17": {"label": "*2", "atom_type": "H0"}}

>  <type>  (4) 
ts

$$$$

     RDKit          3D

 22 20  0  0  0  0  0  0  0  0999 V2000
   -0.2560   -1.6819    0.9872 C   0  0  0  0  0  0  0  0  0  0  0  0
   -0.6541   -0.4870    0.1449 C   0  0  0  0  0  0  0  0  0  0  0  0
   -2.0525   -0.4834   -0.3954 C   0  0  0  0  0  0  0  0  0  0  0  0
   -3.2501   -1.4723    0.0209 S   0  0  0  0  0  1  0  0  0  0  0  0
   -0.4340    1.1157    1.0079 S   0  0  0  0  0  0  0  0  0  0  0  0
   -0.8923   -1.7684    1.8678 H   0  0  0  0  0  0  0  0  0  0  0  0
   -0.3612   -2.6028    0.4112 H   0  0  0  0  0  0  0  0  0  0  0  0
    0.7789   -1.5798    1.3110 H   0  0  0  0  0  0  0  0  0  0  0  0
   -2.2304    0.3084   -1.1233 H   0  0  0  0  0  0  0  0  0  0  0  0
   -1.3592    0.8897    1.9517 H   0  0  0  0  0  0  0  0  0  0  0  0
    1.4836    0.7778   -2.2282 C   0  0  0  0  0  0  0  0  0  0  0  0
    1.4836    0.7778   -0.7058 C   0  0  0  0  0  0  0  0  0  0  0  0
    2.8386   -0.2386   -0.0222 S   0  0  0  0  0  0  0  0  0  0  0  0
    1.4836    2.1878   -0.1318 C   0  0  0  0  0  0  0  0  0  0  0  0
    1.4550   -0.2364   -2.6248 H   0  0  0  0  0  0  0  0  0  0  0  0
    2.3820    1.2675   -2.6118 H   0  0  0  0  0  0  0  0  0  0  0  0
    0.6166    1.3252   -2.6070 H   0  0  0  0  0  0  0  0  0  0  0  0
    0.4157    0.1459   -0.2808 H   0  0  0  0  0  0  0  0  0  0  0  0
    3.8449    0.4969   -0.5169 H   0  0  0  0  0  0  0  0  0  0  0  0
    0.6166    2.7450   -0.4959 H   0  0  0  0  0  0  0  0  0  0  0  0
    2.3820    2.7277   -0.4407 H   0  0  0  0  0  0  0  0  0  0  0  0
    1.4550    2.1727    0.9572 H   0  0  0  0  0  0  0  0  0  0  0  0
  1  2  1  0
  1  6  1  0
  1  7  1  0
  1  8  1  0
  2  3  2  3
  2  5  1  0
  3  4  1  0
  3  9  1  0
  5 10  1  0
 11 12  1  0
 11 15  1  0
 11 16  1  0
 11 17  1  0
 12 14  1  0
 12 13  1  0
 12 18  1  0
 13 19  1  0
 14 20  1  0
 14 21  1  0
 14 22  1  0
M  RAD  1   4   2
M  END
>  <reaction>  (5) 
rxn_1940

>  <mol_properties>  (5) 
{"1": {"label": "*1", "atom_type": "Cs"}, "2": {"label": "*0", "atom_type": "CS"}, "11": {"label": "*3", "atom_type": "Cs"}, "12": {"label": "*4", "atom_type": "S2s"}, "17": {"label": "*2", "atom_type": "H0"}}

>  <type>  (5) 
unop_1

>  <geom_source>  (5) 
Heuristics

$$$$

     RDKit          3D

 22 20  0  0  0  0  0  0  0  0999 V2000
   -1.1499   -1.4611   -0.9978 C   0  0  0  0  0  0  0  0  0  0  0  0
   -0.7415   -0.3937   -0.0032 C   0  0  0  0  0  0  0  0  0  0  0  0
   -1.8507    0.3825    0.6408 C   0  0  0  0  0  0  0  0  0  0  0  0
   -3.4220    0.0453    0.5866 S   0  0  0  0  0  1  0  0  0  0  0  0
    0.2968   -1.0350    1.3653 S   0  0  0  0  0  0  0  0  0  0  0  0
   -1.7768   -2.2166   -0.5246 H   0  0  0  0  0  0  0  0  0  0  0  0
   -1.7239   -1.0184   -1.8136 H   0  0  0  0  0  0  0  0  0  0  0  0
   -0.2644   -1.9460   -1.4067 H   0  0  0  0  0  0  0  0  0  0  0  0
   -1.4989    1.2396    1.2153 H   0  0  0  0  0  0  0  0  0  0  0  0
   -0.6504   -1.8210    1.8972 H   0  0  0  0  0  0  0  0  0  0  0  0
    1.3961    0.8712   -2.3762 C   0  0  0  0  0  0  0  0  0  0  0  0
    1.3961    0.8712   -0.8539 C   0  0  0  0  0  0  0  0  0  0  0  0
    2.7512   -0.1452   -0.1703 S   0  0  0  0  0  0  0  0  0  0  0  0
    1.3961    2.2812   -0.2799 C   0  0  0  0  0  0  0  0  0  0  0  0
    1.3675   -0.1431   -2.7729 H   0  0  0  0  0  0  0  0  0  0  0  0
    2.2946    1.3609   -2.7598 H   0  0  0  0  0  0  0  0  0  0  0  0
    0.5292    1.4186   -2.7550 H   0  0  0  0  0  0  0  0  0  0  0  0
    0.3282    0.2393   -0.4289 H   0  0  0  0  0  0  0  0  0  0  0  0
    3.7574    0.5903   -0.6650 H   0  0  0  0  0  0  0  0  0  0  0  0
    0.5292    2.8384   -0.6440 H   0  0  0  0  0  0  0  0  0  0  0  0
    2.2946    2.8211   -0.5888 H   0  0  0  0  0  0  0  0  0  0  0  0
    1.3675    2.2661    0.8091 H   0  0  0  0  0  0  0  0  0  0  0  0
  1  2  1  0
  1  6  1  0
  1  7  1  0
  1  8  1  0
  2  3  2  3
  2  5  1  0
  3  4  1  0
  3  9  1  0
  5 10  1  0
 11 12  1  0
 11 15  1  0
 11 16  1  0
 11 17  1  0
 12 14  1  0
 12 13  1  0
 12 18  1  0
 13 19  1  0
 14 20  1  0
 14 21  1  0
 14 22  1  0
M  RAD  1   4   2
M  END
>  <reaction>  (6) 
rxn_1940

>  <mol_properties>  (6) 
{"1": {"label": "*1", "atom_type": "Cs"}, "2": {"label": "*0", "atom_type": "CS"}, "11": {"label": "*3", "atom_type": "Cs"}, "12": {"label": "*4", "atom_type": "S2s"}, "17": {"label": "*2", "atom_type": "H0"}}

>  <type>  (6) 
unop_2

>  <geom_source>  (6) 
Heuristics

$$$$

     RDKit          3D

 22 20  0  0  0  0  0  0  0  0999 V2000
   -0.3588   -1.0192    1.6538 C   0  0  0  0  0  0  0  0  0  0  0  0
   -0.6370   -0.3580    0.3193 C   0  0  0  0  0  0  0  0  0  0  0  0
   -1.6541   -1.0223   -0.5592 C   0  0  0  0  0  0  0  0  0  0  0  0
   -2.6598   -2.2067   -0.1454 S   0  0  0  0  0  1  0  0  0  0  0  0
   -1.1568    1.3938    0.4710 S   0  0  0  0  0  0  0  0  0  0  0  0
   -1.2615   -1.0651    2.2627 H   0  0  0  0  0  0  0  0  0  0  0  0
   -0.0086   -2.0418    1.5037 H   0  0  0  0  0  0  0  0  0  0  0  0
    0.4013   -0.4576    2.1953 H   0  0  0  0  0  0  0  0  0  0  0  0
   -1.6932   -0.6033   -1.5649 H   0  0  0  0  0  0  0  0  0  0  0  0
   -2.3094    1.1387    1.1069 H   0  0  0  0  0  0  0  0  0  0  0  0
    1.5007    0.9069   -2.0537 C   0  0  0  0  0  0  0  0  0  0  0  0
    1.5007    0.9069   -0.5314 C   0  0  0  0  0  0  0  0  0  0  0  0
    2.8557   -0.1095    0.1522 S   0  0  0  0  0  0  0  0  0  0  0  0
    1.5007    2.3169    0.0427 C   0  0  0  0  0  0  0  0  0  0  0  0
    1.4721   -0.1074   -2.4504 H   0  0  0  0  0  0  0  0  0  0  0  0
    2.3991    1.3966   -2.4373 H   0  0  0  0  0  0  0  0  0  0  0  0
    0.6337    1.4543   -2.4325 H   0  0  0  0  0  0  0  0  0  0  0  0
    0.4328    0.2750   -0.1064 H   0  0  0  0  0  0  0  0  0  0  0  0
    3.8619    0.6260   -0.3424 H   0  0  0  0  0  0  0  0  0  0  0  0
    0.6337    2.8741   -0.3215 H   0  0  0  0  0  0  0  0  0  0  0  0
    2.3991    2.8568   -0.2663 H   0  0  0  0  0  0  0  0  0  0  0  0
    1.4721    2.3018    1.1316 H   0  0  0  0  0  0  0  0  0  0  0  0
  1  2  1  0
  1  6  1  0
  1  7  1  0
  1  8  1  0
  2  3  2  3
  2  5  1  0
  3  4  1  0
  3  9  1  0
  5 10  1  0
 11 12  1  0
 11 15  1  0
 11 16  1  0
 11 17  1  0
 12 14  1  0
 12 13  1  0
 12 18  1  0
 13 19  1  0
 14 20  1  0
 14 21  1  0
 14 22  1  0
M  RAD  1   4   2
M  END
>  <reaction>  (7) 
rxn_1940

>  <mol_properties>  (7) 
{"1": {"label": "*1", "atom_type": "Cs"}, "2": {"label": "*0", "atom_type": "CS"}, "11": {"label": "*3", "atom_type": "Cs"}, "12": {"label": "*4", "atom_type": "S2s"}, "17": {"label": "*2", "atom_type": "H0"}}

>  <type>  (7) 
unop_3

>  <geom_source>  (7) 
Heuristics

$$$$

     RDKit          3D

 22 20  0  0  0  0  0  0  0  0999 V2000
   -2.2560    0.2141   -0.6867 C   0  0  0  0  0  0  0  0  0  0  0  0
   -1.0040   -0.4754   -0.1843 C   0  0  0  0  0  0  0  0  0  0  0  0
   -0.4772   -0.0240    1.1448 C   0  0  0  0  0  0  0  0  0  0  0  0
   -1.2241    0.9246    2.2068 S   0  0  0  0  0  1  0  0  0  0  0  0
   -1.1719   -2.2981   -0.0767 S   0  0  0  0  0  0  0  0  0  0  0  0
   -3.0865    0.0673    0.0036 H   0  0  0  0  0  0  0  0  0  0  0  0
   -2.0863    1.2883   -0.7765 H   0  0  0  0  0  0  0  0  0  0  0  0
   -2.5348   -0.1858   -1.6607 H   0  0  0  0  0  0  0  0  0  0  0  0
    0.5068   -0.4310    1.3783 H   0  0  0  0  0  0  0  0  0  0  0  0
   -2.1094   -2.2916    0.8819 H   0  0  0  0  0  0  0  0  0  0  0  0
    1.1337    0.7895   -2.5573 C   0  0  0  0  0  0  0  0  0  0  0  0
    1.1337    0.7895   -1.0350 C   0  0  0  0  0  0  0  0  0  0  0  0
    2.4887   -0.2270   -0.3514 S   0  0  0  0  0  0  0  0  0  0  0  0
    1.1337    2.1994   -0.4609 C   0  0  0  0  0  0  0  0  0  0  0  0
    1.1051   -0.2248   -2.9540 H   0  0  0  0  0  0  0  0  0  0  0  0
    2.0321    1.2792   -2.9409 H   0  0  0  0  0  0  0  0  0  0  0  0
    0.2667    1.3369   -2.9361 H   0  0  0  0  0  0  0  0  0  0  0  0
    0.0658    0.1576   -0.6100 H   0  0  0  0  0  0  0  0  0  0  0  0
    3.4950    0.5085   -0.8460 H   0  0  0  0  0  0  0  0  0  0  0  0
    0.2667    2.7567   -0.8251 H   0  0  0  0  0  0  0  0  0  0  0  0
    2.0321    2.7394   -0.7699 H   0  0  0  0  0  0  0  0  0  0  0  0
    1.1051    2.1843    0.6280 H   0  0  0  0  0  0  0  0  0  0  0  0
  1  2  1  0
  1  6  1  0
  1  7  1  0
  1  8  1  0
  2  3  2  3
  2  5  1  0
  3  4  1  0
  3  9  1  0
  5 10  1  0
 11 12  1  0
 11 15  1  0
 11 16  1  0
 11 17  1  0
 12 14  1  0
 12 13  1  0
 12 18  1  0
 13 19  1  0
 14 20  1  0
 14 21  1  0
 14 22  1  0
M  RAD  1   4   2
M  END
>  <reaction>  (8) 
rxn_1940

>  <mol_properties>  (8) 
{"1": {"label": "*1", "atom_type": "Cs"}, "2": {"label": "*0", "atom_type": "CS"}, "11": {"label": "*3", "atom_type": "Cs"}, "12": {"label": "*4", "atom_type": "S2s"}, "17": {"label": "*2", "atom_type": "H0"}}

>  <type>  (8) 
unop_4

>  <geom_source>  (8) 
Heuristics

$$$$

     RDKit          3D

 22 20  0  0  0  0  0  0  0  0999 V2000
   -0.8595   -0.0793    1.8892 C   0  0  0  0  0  0  0  0  0  0  0  0
   -0.8289   -0.0612    0.3746 C   0  0  0  0  0  0  0  0  0  0  0  0
   -0.8566   -1.3932   -0.3128 C   0  0  0  0  0  0  0  0  0  0  0  0
   -1.1666   -2.8200    0.3608 S   0  0  0  0  0  1  0  0  0  0  0  0
   -2.1837    0.9267   -0.3676 S   0  0  0  0  0  0  0  0  0  0  0  0
   -1.7662   -0.5602    2.2559 H   0  0  0  0  0  0  0  0  0  0  0  0
   -0.0074   -0.6393    2.2782 H   0  0  0  0  0  0  0  0  0  0  0  0
   -0.8227    0.9391    2.2737 H   0  0  0  0  0  0  0  0  0  0  0  0
   -0.6665   -1.3285   -1.3843 H   0  0  0  0  0  0  0  0  0  0  0  0
   -3.1785    0.1374    0.0628 H   0  0  0  0  0  0  0  0  0  0  0  0
    1.3088    1.2037   -1.9985 C   0  0  0  0  0  0  0  0  0  0  0  0
    1.3088    1.2037   -0.4761 C   0  0  0  0  0  0  0  0  0  0  0  0
    2.6638    0.1873    0.2075 S   0  0  0  0  0  0  0  0  0  0  0  0
    1.3088    2.6137    0.0979 C   0  0  0  0  0  0  0  0  0  0  0  0
    1.2802    0.1895   -2.3951 H   0  0  0  0  0  0  0  0  0  0  0  0
    2.2072    1.6934   -2.3821 H   0  0  0  0  0  0  0  0  0  0  0  0
    0.4418    1.7511   -2.3773 H   0  0  0  0  0  0  0  0  0  0  0  0
    0.2409    0.5718   -0.0512 H   0  0  0  0  0  0  0  0  0  0  0  0
    3.6701    0.9228   -0.2872 H   0  0  0  0  0  0  0  0  0  0  0  0
    0.4418    3.1709   -0.2663 H   0  0  0  0  0  0  0  0  0  0  0  0
    2.2072    3.1536   -0.2110 H   0  0  0  0  0  0  0  0  0  0  0  0
    1.2802    2.5986    1.1869 H   0  0  0  0  0  0  0  0  0  0  0  0
  1  2  1  0
  1  6  1  0
  1  7  1  0
  1  8  1  0
  2  3  2  3
  2  5  1  0
  3  4  1  0
  3  9  1  0
  5 10  1  0
 11 12  1  0
 11 15  1  0
 11 16  1  0
 11 17  1  0
 12 14  1  0
 12 13  1  0
 12 18  1  0
 13 19  1  0
 14 20  1  0
 14 21  1  0
 14 22  1  0
M  RAD  1   4   2
M  END
>  <reaction>  (9) 
rxn_1940

>  <mol_properties>  (9) 
{"1": {"label": "*1", "atom_type": "Cs"}, "2": {"label": "*0", "atom_type": "CS"}, "11": {"label": "*3", "atom_type": "Cs"}, "12": {"label": "*4", "atom_type": "S2s"}, "17": {"label": "*2", "atom_type": "H0"}}

>  <type>  (9) 
unop_5

>  <geom_source>  (9) 
Heuristics

$$$$

     RDKit          3D

 22 20  0  0  0  0  0  0  0  0999 V2000
   -2.3083    0.6464   -0.0127 C   0  0  0  0  0  0  0  0  0  0  0  0
   -1.1575   -0.3242   -0.1827 C   0  0  0  0  0  0  0  0  0  0  0  0
   -0.1852   -0.4174    0.9547 C   0  0  0  0  0  0  0  0  0  0  0  0
   -0.3608    0.2041    2.4273 S   0  0  0  0  0  1  0  0  0  0  0  0
   -1.7002   -2.0399   -0.5347 S   0  0  0  0  0  0  0  0  0  0  0  0
   -2.9183    0.3818    0.8508 H   0  0  0  0  0  0  0  0  0  0  0  0
   -1.9301    1.6576    0.1468 H   0  0  0  0  0  0  0  0  0  0  0  0
   -2.9368    0.6368   -0.9022 H   0  0  0  0  0  0  0  0  0  0  0  0
    0.7042   -1.0000    0.7138 H   0  0  0  0  0  0  0  0  0  0  0  0
   -2.2983   -2.2385    0.6488 H   0  0  0  0  0  0  0  0  0  0  0  0
    0.9802    0.9407   -2.5557 C   0  0  0  0  0  0  0  0  0  0  0  0
    0.9802    0.9407   -1.0334 C   0  0  0  0  0  0  0  0  0  0  0  0
    2.3352   -0.0758   -0.3498 S   0  0  0  0  0  0  0  0  0  0  0  0
    0.9802    2.3506   -0.4593 C   0  0  0  0  0  0  0  0  0  0  0  0
    0.9516   -0.0736   -2.9524 H   0  0  0  0  0  0  0  0  0  0  0  0
    1.8786    1.4304   -2.9393 H   0  0  0  0  0  0  0  0  0  0  0  0
    0.1132    1.4881   -2.9345 H   0  0  0  0  0  0  0  0  0  0  0  0
   -0.0877    0.3088   -0.6084 H   0  0  0  0  0  0  0  0  0  0  0  0
    3.3415    0.6597   -0.8444 H   0  0  0  0  0  0  0  0  0  0  0  0
    0.1132    2.9079   -0.8235 H   0  0  0  0  0  0  0  0  0  0  0  0
    1.8786    2.8906   -0.7683 H   0  0  0  0  0  0  0  0  0  0  0  0
    0.9516    2.3355    0.6296 H   0  0  0  0  0  0  0  0  0  0  0  0
  1  2  1  0
  1  6  1  0
  1  7  1  0
  1  8  1  0
  2  3  2  3
  2  5  1  0
  3  4  1  0
  3  9  1  0
  5 10  1  0
 11 12  1  0
 11 15  1  0
 11 16  1  0
 11 17  1  0
 12 14  1  0
 12 13  1  0
 12 18  1  0
 13 19  1  0
 14 20  1  0
 14 21  1  0
 14 22  1  0
M  RAD  1   4   2
M  END
>  <reaction>  (10) 
rxn_1940

>  <mol_properties>  (10) 
{"1": {"label": "*1", "atom_type": "Cs"}, "2": {"label": "*0", "atom_type": "CS"}, "11": {"label": "*3", "atom_type": "Cs"}, "12": {"label": "*4", "atom_type": "S2s"}, "17": {"label": "*2", "atom_type": "H0"}}

>  <type>  (10) 
unop_6

>  <geom_source>  (10) 
Heuristics

$$$$

     RDKit          3D

 22 20  0  0  0  0  0  0  0  0999 V2000
   -2.0854    0.7987    0.7788 C   0  0  0  0  0  0  0  0  0  0  0  0
   -1.2297   -0.1253   -0.0635 C   0  0  0  0  0  0  0  0  0  0  0  0
   -0.0846   -0.7983    0.6317 C   0  0  0  0  0  0  0  0  0  0  0  0
    0.1874   -0.8480    2.2158 S   0  0  0  0  0  1  0  0  0  0  0  0
   -2.1875   -1.4580   -0.8811 S   0  0  0  0  0  0  0  0  0  0  0  0
   -2.5441    0.2592    1.6072 H   0  0  0  0  0  0  0  0  0  0  0  0
   -1.4751    1.5983    1.2021 H   0  0  0  0  0  0  0  0  0  0  0  0
   -2.8726    1.2367    0.1666 H   0  0  0  0  0  0  0  0  0  0  0  0
    0.5896   -1.3153   -0.0514 H   0  0  0  0  0  0  0  0  0  0  0  0
   -2.5541   -2.0757    0.2511 H   0  0  0  0  0  0  0  0  0  0  0  0
    0.9080    1.1396   -2.4366 C   0  0  0  0  0  0  0  0  0  0  0  0
    0.9080    1.1396   -0.9143 C   0  0  0  0  0  0  0  0  0  0  0  0
    2.2630    0.1232   -0.2306 S   0  0  0  0  0  0  0  0  0  0  0  0
    0.9080    2.5495   -0.3402 C   0  0  0  0  0  0  0  0  0  0  0  0
    0.8794    0.1253   -2.8333 H   0  0  0  0  0  0  0  0  0  0  0  0
    1.8064    1.6293   -2.8202 H   0  0  0  0  0  0  0  0  0  0  0  0
    0.0410    1.6870   -2.8154 H   0  0  0  0  0  0  0  0  0  0  0  0
   -0.1599    0.5077   -0.4893 H   0  0  0  0  0  0  0  0  0  0  0  0
    3.2693    0.8587   -0.7253 H   0  0  0  0  0  0  0  0  0  0  0  0
    0.0410    3.1068   -0.7044 H   0  0  0  0  0  0  0  0  0  0  0  0
    1.8064    3.0895   -0.6491 H   0  0  0  0  0  0  0  0  0  0  0  0
    0.8794    2.5345    0.7487 H   0  0  0  0  0  0  0  0  0  0  0  0
  1  2  1  0
  1  6  1  0
  1  7  1  0
  1  8  1  0
  2  3  2  3
  2  5  1  0
  3  4  1  0
  3  9  1  0
  5 10  1  0
 11 12  1  0
 11 15  1  0
 11 16  1  0
 11 17  1  0
 12 14  1  0
 12 13  1  0
 12 18  1  0
 13 19  1  0
 14 20  1  0
 14 21  1  0
 14 22  1  0
M  RAD  1   4   2
M  END
>  <reaction>  (11) 
rxn_1940

>  <mol_properties>  (11) 
{"1": {"label": "*1", "atom_type": "Cs"}, "2": {"label": "*0", "atom_type": "CS"}, "11": {"label": "*3", "atom_type": "Cs"}, "12": {"label": "*4", "atom_type": "S2s"}, "17": {"label": "*2", "atom_type": "H0"}}

>  <type>  (11) 
unop_7

>  <geom_source>  (11) 
Heuristics

$$$$

     RDKit          3D

 22 20  0  0  0  0  0  0  0  0999 V2000
   -0.4172   -1.9413    0.1948 C   0  0  0  0  0  0  0  0  0  0  0  0
   -0.7140   -0.4653    0.0249 C   0  0  0  0  0  0  0  0  0  0  0  0
   -2.1594   -0.0782   -0.0678 C   0  0  0  0  0  0  0  0  0  0  0  0
   -3.4303   -1.0133    0.2423 S   0  0  0  0  0  1  0  0  0  0  0  0
    0.0123    0.5784    1.3459 S   0  0  0  0  0  0  0  0  0  0  0  0
   -0.8655   -2.3270    1.1102 H   0  0  0  0  0  0  0  0  0  0  0  0
   -0.8304   -2.5090   -0.6406 H   0  0  0  0  0  0  0  0  0  0  0  0
    0.6593   -2.1012    0.2370 H   0  0  0  0  0  0  0  0  0  0  0  0
   -2.3085    0.9632   -0.3533 H   0  0  0  0  0  0  0  0  0  0  0  0
   -0.7290    0.0720    2.3418 H   0  0  0  0  0  0  0  0  0  0  0  0
    1.4236    0.7995   -2.3482 C   0  0  0  0  0  0  0  0  0  0  0  0
    1.4236    0.7995   -0.8259 C   0  0  0  0  0  0  0  0  0  0  0  0
    2.7786   -0.2169   -0.1422 S   0  0  0  0  0  0  0  0  0  0  0  0
    1.4236    2.2095   -0.2518 C   0  0  0  0  0  0  0  0  0  0  0  0
    1.3950   -0.2147   -2.7449 H   0  0  0  0  0  0  0  0  0  0  0  0
    2.3220    1.2892   -2.7318 H   0  0  0  0  0  0  0  0  0  0  0  0
    0.5566    1.3469   -2.7270 H   0  0  0  0  0  0  0  0  0  0  0  0
    0.3557    0.1676   -0.4009 H   0  0  0  0  0  0  0  0  0  0  0  0
    3.7849    0.5186   -0.6369 H   0  0  0  0  0  0  0  0  0  0  0  0
    0.5566    2.7667   -0.6160 H   0  0  0  0  0  0  0  0  0  0  0  0
    2.3220    2.7494   -0.5607 H   0  0  0  0  0  0  0  0  0  0  0  0
    1.3950    2.1944    0.8371 H   0  0  0  0  0  0  0  0  0  0  0  0
  1  2  1  0
  1  6  1  0
  1  7  1  0
  1  8  1  0
  2  3  2  3
  2  5  1  0
  3  4  1  0
  3  9  1  0
  5 10  1  0
 11 12  1  0
 11 15  1  0
 11 16  1  0
 11 17  1  0
 12 14  1  0
 12 13  1  0
 12 18  1  0
 13 19  1  0
 14 20  1  0
 14 21  1  0
 14 22  1  0
M  RAD  1   4   2
M  END
>  <reaction>  (12) 
rxn_1940

>  <mol_properties>  (12) 
{"1": {"label": "*1", "atom_type": "Cs"}, "2": {"label": "*0", "atom_type": "CS"}, "11": {"label": "*3", "atom_type": "Cs"}, "12": {"label": "*4", "atom_type": "S2s"}, "17": {"label": "*2", "atom_type": "H0"}}

>  <type>  (12) 
unop_8

>  <geom_source>  (12) 
Heuristics

$$$$

     RDKit          3D

 22 20  0  0  0  0  0  0  0  0999 V2000
   -1.9766   -0.3635   -1.1000 C   0  0  0  0  0  0  0  0  0  0  0  0
   -0.8444   -0.5193   -0.1054 C   0  0  0  0  0  0  0  0  0  0  0  0
   -0.9313    0.3044    1.1443 C   0  0  0  0  0  0  0  0  0  0  0  0
   -2.2038    1.1398    1.6624 S   0  0  0  0  0  1  0  0  0  0  0  0
   -0.5894   -2.2515    0.4394 S   0  0  0  0  0  0  0  0  0  0  0  0
   -2.9307   -0.6409   -0.6523 H   0  0  0  0  0  0  0  0  0  0  0  0
   -2.0536    0.6752   -1.4259 H   0  0  0  0  0  0  0  0  0  0  0  0
   -1.7986   -0.9974   -1.9676 H   0  0  0  0  0  0  0  0  0  0  0  0
   -0.0191    0.2789    1.7407 H   0  0  0  0  0  0  0  0  0  0  0  0
   -1.7698   -2.3725    1.0637 H   0  0  0  0  0  0  0  0  0  0  0  0
    1.2933    0.7455   -2.4784 C   0  0  0  0  0  0  0  0  0  0  0  0
    1.2933    0.7455   -0.9561 C   0  0  0  0  0  0  0  0  0  0  0  0
    2.6483   -0.2709   -0.2724 S   0  0  0  0  0  0  0  0  0  0  0  0
    1.2933    2.1555   -0.3820 C   0  0  0  0  0  0  0  0  0  0  0  0
    1.2647   -0.2687   -2.8751 H   0  0  0  0  0  0  0  0  0  0  0  0
    2.1917    1.2352   -2.8620 H   0  0  0  0  0  0  0  0  0  0  0  0
    0.4263    1.2929   -2.8572 H   0  0  0  0  0  0  0  0  0  0  0  0
    0.2254    0.1136   -0.5311 H   0  0  0  0  0  0  0  0  0  0  0  0
    3.6546    0.4646   -0.7671 H   0  0  0  0  0  0  0  0  0  0  0  0
    0.4263    2.7127   -0.7462 H   0  0  0  0  0  0  0  0  0  0  0  0
    2.1917    2.6954   -0.6909 H   0  0  0  0  0  0  0  0  0  0  0  0
    1.2647    2.1404    0.7069 H   0  0  0  0  0  0  0  0  0  0  0  0
  1  2  1  0
  1  6  1  0
  1  7  1  0
  1  8  1  0
  2  3  2  3
  2  5  1  0
  3  4  1  0
  3  9  1  0
  5 10  1  0
 11 12  1  0
 11 15  1  0
 11 16  1  0
 11 17  1  0
 12 14  1  0
 12 13  1  0
 12 18  1  0
 13 19  1  0
 14 20  1  0
 14 21  1  0
 14 22  1  0
M  RAD  1   4   2
M  END
>  <reaction>  (13) 
rxn_1940

>  <mol_properties>  (13) 
{"1": {"label": "*1", "atom_type": "Cs"}, "2": {"label": "*0", "atom_type": "CS"}, "11": {"label": "*3", "atom_type": "Cs"}, "12": {"label": "*4", "atom_type": "S2s"}, "17": {"label": "*2", "atom_type": "H0"}}

>  <type>  (13) 
unop_9

>  <geom_source>  (13) 
Heuristics

$$$$

     RDKit          3D

 22 20  0  0  0  0  0  0  0  0999 V2000
   -0.7447   -1.8337   -0.5139 C   0  0  0  0  0  0  0  0  0  0  0  0
   -0.7463   -0.4044   -0.0115 C   0  0  0  0  0  0  0  0  0  0  0  0
   -2.0850    0.1978    0.2934 C   0  0  0  0  0  0  0  0  0  0  0  0
   -3.4917   -0.5755    0.3877 S   0  0  0  0  0  1  0  0  0  0  0  0
    0.2789   -0.1607    1.4890 S   0  0  0  0  0  0  0  0  0  0  0  0
   -1.1891   -2.5061    0.2196 H   0  0  0  0  0  0  0  0  0  0  0  0
   -1.3292   -1.9127   -1.4321 H   0  0  0  0  0  0  0  0  0  0  0  0
    0.2765   -2.1565   -0.7122 H   0  0  0  0  0  0  0  0  0  0  0  0
   -2.0402    1.2692    0.4898 H   0  0  0  0  0  0  0  0  0  0  0  0
   -0.4697   -0.9310    2.2914 H   0  0  0  0  0  0  0  0  0  0  0  0
    1.3913    0.8605   -2.3846 C   0  0  0  0  0  0  0  0  0  0  0  0
    1.3913    0.8605   -0.8622 C   0  0  0  0  0  0  0  0  0  0  0  0
    2.7463   -0.1559   -0.1786 S   0  0  0  0  0  0  0  0  0  0  0  0
    1.3913    2.2705   -0.2882 C   0  0  0  0  0  0  0  0  0  0  0  0
    1.3627   -0.1538   -2.7812 H   0  0  0  0  0  0  0  0  0  0  0  0
    2.2897    1.3502   -2.7682 H   0  0  0  0  0  0  0  0  0  0  0  0
    0.5243    1.4079   -2.7634 H   0  0  0  0  0  0  0  0  0  0  0  0
    0.3234    0.2286   -0.4372 H   0  0  0  0  0  0  0  0  0  0  0  0
    3.7526    0.5796   -0.6733 H   0  0  0  0  0  0  0  0  0  0  0  0
    0.5243    2.8277   -0.6524 H   0  0  0  0  0  0  0  0  0  0  0  0
    2.2897    2.8104   -0.5971 H   0  0  0  0  0  0  0  0  0  0  0  0
    1.3627    2.2554    0.8008 H   0  0  0  0  0  0  0  0  0  0  0  0
  1  2  1  0
  1  6  1  0
  1  7  1  0
  1  8  1  0
  2  3  2  3
  2  5  1  0
  3  4  1  0
  3  9  1  0
  5 10  1  0
 11 12  1  0
 11 15  1  0
 11 16  1  0
 11 17  1  0
 12 14  1  0
 12 13  1  0
 12 18  1  0
 13 19  1  0
 14 20  1  0
 14 21  1  0
 14 22  1  0
M  RAD  1   4   2
M  END
>  <reaction>  (14) 
rxn_1940

>  <mol_properties>  (14) 
{"1": {"label": "*1", "atom_type": "Cs"}, "2": {"label": "*0", "atom_type": "CS"}, "11": {"label": "*3", "atom_type": "Cs"}, "12": {"label": "*4", "atom_type": "S2s"}, "17": {"label": "*2", "atom_type": "H0"}}

>  <type>  (14) 
unop_10

>  <geom_source>  (14) 
Heuristics

$$$$

     RDKit          3D

 22 20  0  0  0  0  0  0  0  0999 V2000
   -1.5803    0.5890    1.4982 C   0  0  0  0  0  0  0  0  0  0  0  0
   -1.1346    0.0269    0.1637 C   0  0  0  0  0  0  0  0  0  0  0  0
   -0.2356   -1.1720    0.2075 C   0  0  0  0  0  0  0  0  0  0  0  0
    0.1047   -2.0761    1.4930 S   0  0  0  0  0  1  0  0  0  0  0  0
   -2.5299   -0.4190   -0.9391 S   0  0  0  0  0  0  0  0  0  0  0  0
   -2.1383   -0.1537    2.0682 H   0  0  0  0  0  0  0  0  0  0  0  0
   -0.7139    0.8809    2.0942 H   0  0  0  0  0  0  0  0  0  0  0  0
   -2.2151    1.4600    1.3410 H   0  0  0  0  0  0  0  0  0  0  0  0
    0.1843   -1.4307   -0.7647 H   0  0  0  0  0  0  0  0  0  0  0  0
   -3.0078   -1.4020   -0.1625 H   0  0  0  0  0  0  0  0  0  0  0  0
    1.0030    1.2918   -2.2093 C   0  0  0  0  0  0  0  0  0  0  0  0
    1.0030    1.2918   -0.6870 C   0  0  0  0  0  0  0  0  0  0  0  0
    2.3581    0.2753   -0.0034 S   0  0  0  0  0  0  0  0  0  0  0  0
    1.0030    2.7017   -0.1129 C   0  0  0  0  0  0  0  0  0  0  0  0
    0.9744    0.2775   -2.6060 H   0  0  0  0  0  0  0  0  0  0  0  0
    1.9015    1.7815   -2.5929 H   0  0  0  0  0  0  0  0  0  0  0  0
    0.1361    1.8392   -2.5881 H   0  0  0  0  0  0  0  0  0  0  0  0
   -0.0649    0.6599   -0.2620 H   0  0  0  0  0  0  0  0  0  0  0  0
    3.3643    1.0108   -0.4980 H   0  0  0  0  0  0  0  0  0  0  0  0
    0.1361    3.2590   -0.4771 H   0  0  0  0  0  0  0  0  0  0  0  0
    1.9015    3.2417   -0.4219 H   0  0  0  0  0  0  0  0  0  0  0  0
    0.9744    2.6867    0.9760 H   0  0  0  0  0  0  0  0  0  0  0  0
  1  2  1  0
  1  6  1  0
  1  7  1  0
  1  8  1  0
  2  3  2  3
  2  5  1  0
  3  4  1  0
  3  9  1  0
  5 10  1  0
 11 12  1  0
 11 15  1  0
 11 16  1  0
 11 17  1  0
 12 14  1  0
 12 13  1  0
 12 18  1  0
 13 19  1  0
 14 20  1  0
 14 21  1  0
 14 22  1  0
M  RAD  1   4   2
M  END
>  <reaction>  (15) 
rxn_1940

>  <mol_properties>  (15) 
{"1": {"label": "*1", "atom_type": "Cs"}, "2": {"label": "*0", "atom_type": "CS"}, "11": {"label": "*3", "atom_type": "Cs"}, "12": {"label": "*4", "atom_type": "S2s"}, "17": {"label": "*2", "atom_type": "H0"}}

>  <type>  (15) 
unop_11

>  <geom_source>  (15) 
Heuristics

$$$$

     RDKit          3D

 22 20  0  0  0  0  0  0  0  0999 V2000
   -1.5753   -0.9467   -1.1992 C   0  0  0  0  0  0  0  0  0  0  0  0
   -0.7519   -0.4595   -0.0244 C   0  0  0  0  0  0  0  0  0  0  0  0
   -1.4433    0.4471    0.9491 C   0  0  0  0  0  0  0  0  0  0  0  0
   -3.0190    0.7580    1.0261 S   0  0  0  0  0  1  0  0  0  0  0  0
   -0.0268   -1.8199    0.9684 S   0  0  0  0  0  0  0  0  0  0  0  0
   -2.4415   -1.5148   -0.8602 H   0  0  0  0  0  0  0  0  0  0  0  0
   -1.9423   -0.0997   -1.7812 H   0  0  0  0  0  0  0  0  0  0  0  0
   -0.9672   -1.5835   -1.8402 H   0  0  0  0  0  0  0  0  0  0  0  0
   -0.7652    0.8960    1.6752 H   0  0  0  0  0  0  0  0  0  0  0  0
   -1.1972   -2.3119    1.3997 H   0  0  0  0  0  0  0  0  0  0  0  0
    1.3857    0.8053   -2.3974 C   0  0  0  0  0  0  0  0  0  0  0  0
    1.3857    0.8053   -0.8751 C   0  0  0  0  0  0  0  0  0  0  0  0
    2.7408   -0.2111   -0.1915 S   0  0  0  0  0  0  0  0  0  0  0  0
    1.3857    2.2153   -0.3010 C   0  0  0  0  0  0  0  0  0  0  0  0
    1.3571   -0.2089   -2.7941 H   0  0  0  0  0  0  0  0  0  0  0  0
    2.2842    1.2951   -2.7810 H   0  0  0  0  0  0  0  0  0  0  0  0
    0.5188    1.3527   -2.7762 H   0  0  0  0  0  0  0  0  0  0  0  0
    0.3179    0.1734   -0.4501 H   0  0  0  0  0  0  0  0  0  0  0  0
    3.7470    0.5244   -0.6861 H   0  0  0  0  0  0  0  0  0  0  0  0
    0.5188    2.7725   -0.6652 H   0  0  0  0  0  0  0  0  0  0  0  0
    2.2842    2.7552   -0.6100 H   0  0  0  0  0  0  0  0  0  0  0  0
    1.3571    2.2002    0.7879 H   0  0  0  0  0  0  0  0  0  0  0  0
  1  2  1  0
  1  6  1  0
  1  7  1  0
  1  8  1  0
  2  3  2  3
  2  5  1  0
  3  4  1  0
  3  9  1  0
  5 10  1  0
 11 12  1  0
 11 15  1  0
 11 16  1  0
 11 17  1  0
 12 14  1  0
 12 13  1  0
 12 18  1  0
 13 19  1  0
 14 20  1  0
 14 21  1  0
 14 22  1  0
M  RAD  1   4   2
M  END
>  <reaction>  (16) 
rxn_1940

>  <mol_properties>  (16) 
{"1": {"label": "*1", "atom_type": "Cs"}, "2": {"label": "*0", "atom_type": "CS"}, "11": {"label": "*3", "atom_type": "Cs"}, "12": {"label": "*4", "atom_type": "S2s"}, "17": {"label": "*2", "atom_type": "H0"}}

>  <type>  (16) 
unop_12

>  <geom_source>  (16) 
Heuristics

$$$$

     RDKit          3D

 22 20  0  0  0  0  0  0  0  0999 V2000
   -2.0520    0.6552   -0.9191 S   0  0  0  0  0  0  0  0  0  0  0  0
   -0.1270   -2.6293   -0.5563 S   0  0  0  0  0  0  0  0  0  0  0  0
   -2.7573    0.6553    2.3729 S   0  0  0  0  0  0  0  0  0  0  0  0
   -0.9381    0.6616    0.5312 C   0  0  0  0  0  0  0  0  0  0  0  0
   -0.3926    2.0667    0.7967 C   0  0  0  0  0  0  0  0  0  0  0  0
    2.0478   -1.0389    0.0251 C   0  0  0  0  0  0  0  0  0  0  0  0
    0.7491   -0.5079   -2.0712 C   0  0  0  0  0  0  0  0  0  0  0  0
    0.6678   -0.9911   -0.6264 C   0  0  0  0  0  3  0  0  0  0  0  0
   -1.6050    0.0605    1.7469 C   0  0  0  0  0  0  0  0  0  0  0  0
    0.1004   -0.1146    0.2233 H   0  0  0  0  0  0  0  0  0  0  0  0
    0.1607    2.4274   -0.0958 H   0  0  0  0  0  0  0  0  0  0  0  0
   -1.2155    2.7790    1.0183 H   0  0  0  0  0  0  0  0  0  0  0  0
    0.3087    2.0441    1.6577 H   0  0  0  0  0  0  0  0  0  0  0  0
    2.7071   -1.7567   -0.5085 H   0  0  0  0  0  0  0  0  0  0  0  0
    2.5127   -0.0308    0.0031 H   0  0  0  0  0  0  0  0  0  0  0  0
    1.9522   -1.3535    1.0853 H   0  0  0  0  0  0  0  0  0  0  0  0
    1.3672   -1.2010   -2.6815 H   0  0  0  0  0  0  0  0  0  0  0  0
    1.1963    0.5078   -2.1070 H   0  0  0  0  0  0  0  0  0  0  0  0
   -0.2713   -0.4542   -2.5052 H   0  0  0  0  0  0  0  0  0  0  0  0
   -1.1912   -0.8480    2.1712 H   0  0  0  0  0  0  0  0  0  0  0  0
   -2.9232    1.6320   -0.4001 H   0  0  0  0  0  0  0  0  0  0  0  0
   -0.2969   -2.5638    0.8395 H   0  0  0  0  0  0  0  0  0  0  0  0
  1  4  1  0
  1 21  1  0
  2  8  1  0
  2 22  1  0
  3  9  2  0
  4  5  1  0
  4  9  1  0
  4 10  1  0
  5 11  1  0
  5 12  1  0
  5 13  1  0
  6  8  1  0
  6 14  1  0
  6 15  1  0
  6 16  1  0
  7  8  1  0
  7 17  1  0
  7 18  1  0
  7 19  1  0
  9 20  1  0
M  RAD  1   8   2
M  END
>  <reaction>  (17) 
rxn_1940

>  <mol_properties>  (17) 
{"1": {"label": "*1", "atom_type": "Cs"}, "2": {"label": "*0", "atom_type": "CS"}, "11": {"label": "*3", "atom_type": "Cs"}, "12": {"label": "*4", "atom_type": "S2s"}, "17": {"label": "*2", "atom_type": "H0"}}

>  <type>  (17) 
unop_13

>  <geom_source>  (17) 
AutoTST

$$$$
