
     RDKit          3D

  5  4  0  0  0  0  0  0  0  0999 V2000
    0.0000    0.0000    0.0000 C   0  0  0  0  0  0  0  0  0  0  0  0
   -0.6486   -0.7720   -0.4113 H   0  0  0  0  0  0  0  0  0  0  0  0
   -0.3482    0.9787   -0.3267 H   0  0  0  0  0  0  0  0  0  0  0  0
   -0.0223   -0.0487    1.0876 H   0  0  0  0  0  0  0  0  0  0  0  0
    1.0191   -0.1580   -0.3496 H   0  0  0  0  0  0  0  0  0  0  0  0
  1  2  1  0
  1  3  1  0
  1  4  1  0
  1  5  1  0
M  END
>  <reaction>  (1) 
rxn_68

>  <mol_properties>  (1) 
{"0": {"label": "donator", "atom_type": "Cs"}, "1": {"label": "d_hydrogen", "atom_type": "H0"}}

>  <type>  (1) 
r1h

$$$$

     RDKit          3D

  3  2  0  0  0  0  0  0  0  0999 V2000
    0.0002    0.4233    0.0000 N   0  0  0  0  0  2  0  0  0  0  0  0
   -0.8051   -0.2112    0.0000 H   0  0  0  0  0  0  0  0  0  0  0  0
    0.8049   -0.2121    0.0000 H   0  0  0  0  0  0  0  0  0  0  0  0
  1  2  1  0
  1  3  1  0
M  RAD  1   1   2
M  END
>  <reaction>  (2) 
rxn_68

>  <mol_properties>  (2) 
{"0": {"label": "acceptor", "atom_type": "N3s"}}

>  <type>  (2) 
r2

$$$$

     RDKit          3D

  4  3  0  0  0  0  0  0  0  0999 V2000
    0.0006   -0.0009    0.2762 N   0  0  0  0  0  0  0  0  0  0  0  0
   -0.4188    0.8439   -0.0883 H   0  0  0  0  0  0  0  0  0  0  0  0
   -0.5215   -0.7840   -0.0936 H   0  0  0  0  0  0  0  0  0  0  0  0
    0.9397   -0.0590   -0.0943 H   0  0  0  0  0  0  0  0  0  0  0  0
  1  2  1  0
  1  3  1  0
  1  4  1  0
M  END
>  <reaction>  (3) 
rxn_68

>  <mol_properties>  (3) 
{"0": {"label": "acceptor", "atom_type": "N3s"}, "3": {"label": "a_hydrogen", "atom_type": "H0"}}

>  <type>  (3) 
r2h

$$$$

     RDKit          3D

  8  6  0  0  0  0  0  0  0  0999 V2000
   -0.0768    1.2136    0.4632 N   0  0  0  0  0  0  0  0  0  0  0  0
    0.0001    0.9807    1.4547 H   0  0  0  0  0  0  0  0  0  0  0  0
    0.8714    1.4796    0.1924 H   0  0  0  0  0  0  0  0  0  0  0  0
   -0.0121   -1.1912   -0.4425 C   0  0  0  0  0  3  0  0  0  0  0  0
   -0.1425    0.0465   -0.0434 H   0  0  0  0  0  0  0  0  0  0  0  0
    0.8831   -1.6051    0.0118 H   0  0  0  0  0  0  0  0  0  0  0  0
   -0.9258   -1.6728   -0.1049 H   0  0  0  0  0  0  0  0  0  0  0  0
    0.0539   -1.1119   -1.5243 H   0  0  0  0  0  0  0  0  0  0  0  0
  1  2  1  0
  1  3  1  0
  1  5  1  0
  4  6  1  0
  4  7  1  0
  4  8  1  0
M  RAD  1   4   2
M  END
>  <reaction>  (4) 
rxn_68

>  <mol_properties>  (4) 
{"0": {"label": "*1", "atom_type": "N3s"}, "1": {"label": "*0", "atom_type": "H0"}, "3": {"label": "*3", "atom_type": "Cs"}, "4": {"label": "*2", "atom_type": "H0"}, "5": {"label": "*4", "atom_type": "H0"}}

>  <type>  (4) 
ts

$$$$

     RDKit          3D

  8  6  0  0  0  0  0  0  0  0999 V2000
    0.0078    1.1937    0.3798 N   0  0  0  0  0  0  0  0  0  0  0  0
   -0.8274    1.3200    0.9359 H   0  0  0  0  0  0  0  0  0  0  0  0
    0.5958    0.6958    1.0347 H   0  0  0  0  0  0  0  0  0  0  0  0
    0.0078   -1.1823   -0.4602 C   0  0  0  0  0  3  0  0  0  0  0  0
    0.0078    0.0497   -0.0247 H   0  0  0  0  0  0  0  0  0  0  0  0
    0.8969   -1.6957   -0.0972 H   0  0  0  0  0  0  0  0  0  0  0  0
   -0.8813   -1.6957   -0.0972 H   0  0  0  0  0  0  0  0  0  0  0  0
    0.0078   -1.1823   -1.5492 H   0  0  0  0  0  0  0  0  0  0  0  0
  1  2  1  0
  1  3  1  0
  1  5  1  0
  4  6  1  0
  4  7  1  0
  4  8  1  0
M  RAD  1   4   2
M  END
>  <reaction>  (5) 
rxn_68

>  <mol_properties>  (5) 
{"0": {"label": "*1", "atom_type": "N3s"}, "1": {"label": "*0", "atom_type": "H0"}, "3": {"label": "*3", "atom_type": "Cs"}, "4": {"label": "*2", "atom_type": "H0"}, "5": {"label": "*4", "atom_type": "H0"}}

>  <type>  (5) 
unop_1

>  <geom_source>  (5) 
Heuristics

$$$$

     RDKit          3D

  8  6  0  0  0  0  0  0  0  0999 V2000
    0.0324    1.1807    0.4184 N   0  0  0  0  0  0  0  0  0  0  0  0
   -0.4498    1.7461   -0.2675 H   0  0  0  0  0  0  0  0  0  0  0  0
   -0.5149    0.6574    1.0886 H   0  0  0  0  0  0  0  0  0  0  0  0
    0.0324   -1.1953   -0.4217 C   0  0  0  0  0  3  0  0  0  0  0  0
    0.0324    0.0366    0.0139 H   0  0  0  0  0  0  0  0  0  0  0  0
    0.9215   -1.7087   -0.0587 H   0  0  0  0  0  0  0  0  0  0  0  0
   -0.8567   -1.7087   -0.0587 H   0  0  0  0  0  0  0  0  0  0  0  0
    0.0324   -1.1953   -1.5106 H   0  0  0  0  0  0  0  0  0  0  0  0
  1  2  1  0
  1  3  1  0
  1  5  1  0
  4  6  1  0
  4  7  1  0
  4  8  1  0
M  RAD  1   4   2
M  END
>  <reaction>  (6) 
rxn_68

>  <mol_properties>  (6) 
{"0": {"label": "*1", "atom_type": "N3s"}, "1": {"label": "*0", "atom_type": "H0"}, "3": {"label": "*3", "atom_type": "Cs"}, "4": {"label": "*2", "atom_type": "H0"}, "5": {"label": "*4", "atom_type": "H0"}}

>  <type>  (6) 
unop_2

>  <geom_source>  (6) 
Heuristics

$$$$

     RDKit          3D

  8  6  0  0  0  0  0  0  0  0999 V2000
   -0.0131    1.1863    0.3761 N   0  0  0  0  0  0  0  0  0  0  0  0
   -0.4952    1.1949    1.2649 H   0  0  0  0  0  0  0  0  0  0  0  0
    0.8847    1.0417    0.8184 H   0  0  0  0  0  0  0  0  0  0  0  0
   -0.0131   -1.1897   -0.4640 C   0  0  0  0  0  3  0  0  0  0  0  0
   -0.0131    0.0422   -0.0284 H   0  0  0  0  0  0  0  0  0  0  0  0
    0.8760   -1.7031   -0.1010 H   0  0  0  0  0  0  0  0  0  0  0  0
   -0.9022   -1.7031   -0.1010 H   0  0  0  0  0  0  0  0  0  0  0  0
   -0.0131   -1.1897   -1.5529 H   0  0  0  0  0  0  0  0  0  0  0  0
  1  2  1  0
  1  3  1  0
  1  5  1  0
  4  6  1  0
  4  7  1  0
  4  8  1  0
M  RAD  1   4   2
M  END
>  <reaction>  (7) 
rxn_68

>  <mol_properties>  (7) 
{"0": {"label": "*1", "atom_type": "N3s"}, "1": {"label": "*0", "atom_type": "H0"}, "3": {"label": "*3", "atom_type": "Cs"}, "4": {"label": "*2", "atom_type": "H0"}, "5": {"label": "*4", "atom_type": "H0"}}

>  <type>  (7) 
unop_3

>  <geom_source>  (7) 
Heuristics

$$$$

     RDKit          3D

  8  6  0  0  0  0  0  0  0  0999 V2000
   -0.0001    1.1499    0.4287 N   0  0  0  0  0  0  0  0  0  0  0  0
    0.8350    1.5976    0.0756 H   0  0  0  0  0  0  0  0  0  0  0  0
   -0.8320    1.7247    0.4381 H   0  0  0  0  0  0  0  0  0  0  0  0
   -0.0001   -1.2262   -0.4113 C   0  0  0  0  0  3  0  0  0  0  0  0
   -0.0001    0.0058    0.0242 H   0  0  0  0  0  0  0  0  0  0  0  0
    0.8890   -1.7395   -0.0484 H   0  0  0  0  0  0  0  0  0  0  0  0
   -0.8892   -1.7395   -0.0484 H   0  0  0  0  0  0  0  0  0  0  0  0
   -0.0001   -1.2262   -1.5003 H   0  0  0  0  0  0  0  0  0  0  0  0
  1  2  1  0
  1  3  1  0
  1  5  1  0
  4  6  1  0
  4  7  1  0
  4  8  1  0
M  RAD  1   4   2
M  END
>  <reaction>  (8) 
rxn_68

>  <mol_properties>  (8) 
{"0": {"label": "*1", "atom_type": "N3s"}, "1": {"label": "*0", "atom_type": "H0"}, "3": {"label": "*3", "atom_type": "Cs"}, "4": {"label": "*2", "atom_type": "H0"}, "5": {"label": "*4", "atom_type": "H0"}}

>  <type>  (8) 
unop_4

>  <geom_source>  (8) 
Heuristics

$$$$

     RDKit          3D

  8  6  0  0  0  0  0  0  0  0999 V2000
   -0.0274    1.1670    0.3847 N   0  0  0  0  0  0  0  0  0  0  0  0
   -0.0274    1.1326    1.3953 H   0  0  0  0  0  0  0  0  0  0  0  0
    0.8429    1.6798    0.4314 H   0  0  0  0  0  0  0  0  0  0  0  0
   -0.0274   -1.2091   -0.4554 C   0  0  0  0  0  3  0  0  0  0  0  0
   -0.0274    0.0229   -0.0198 H   0  0  0  0  0  0  0  0  0  0  0  0
    0.8617   -1.7224   -0.0924 H   0  0  0  0  0  0  0  0  0  0  0  0
   -0.9165   -1.7224   -0.0924 H   0  0  0  0  0  0  0  0  0  0  0  0
   -0.0274   -1.2091   -1.5443 H   0  0  0  0  0  0  0  0  0  0  0  0
  1  2  1  0
  1  3  1  0
  1  5  1  0
  4  6  1  0
  4  7  1  0
  4  8  1  0
M  RAD  1   4   2
M  END
>  <reaction>  (9) 
rxn_68

>  <mol_properties>  (9) 
{"0": {"label": "*1", "atom_type": "N3s"}, "1": {"label": "*0", "atom_type": "H0"}, "3": {"label": "*3", "atom_type": "Cs"}, "4": {"label": "*2", "atom_type": "H0"}, "5": {"label": "*4", "atom_type": "H0"}}

>  <type>  (9) 
unop_5

>  <geom_source>  (9) 
Heuristics

$$$$

     RDKit          3D

  8  6  0  0  0  0  0  0  0  0999 V2000
   -0.0121    1.1473    0.4190 N   0  0  0  0  0  0  0  0  0  0  0  0
    0.9522    1.4343    0.5205 H   0  0  0  0  0  0  0  0  0  0  0  0
   -0.5906    1.9653    0.2821 H   0  0  0  0  0  0  0  0  0  0  0  0
   -0.0121   -1.2288   -0.4210 C   0  0  0  0  0  3  0  0  0  0  0  0
   -0.0121    0.0032    0.0145 H   0  0  0  0  0  0  0  0  0  0  0  0
    0.8770   -1.7421   -0.0581 H   0  0  0  0  0  0  0  0  0  0  0  0
   -0.9012   -1.7421   -0.0581 H   0  0  0  0  0  0  0  0  0  0  0  0
   -0.0121   -1.2288   -1.5100 H   0  0  0  0  0  0  0  0  0  0  0  0
  1  2  1  0
  1  3  1  0
  1  5  1  0
  4  6  1  0
  4  7  1  0
  4  8  1  0
M  RAD  1   4   2
M  END
>  <reaction>  (10) 
rxn_68

>  <mol_properties>  (10) 
{"0": {"label": "*1", "atom_type": "N3s"}, "1": {"label": "*0", "atom_type": "H0"}, "3": {"label": "*3", "atom_type": "Cs"}, "4": {"label": "*2", "atom_type": "H0"}, "5": {"label": "*4", "atom_type": "H0"}}

>  <type>  (10) 
unop_6

>  <geom_source>  (10) 
Heuristics

$$$$

     RDKit          3D

  8  6  0  0  0  0  0  0  0  0999 V2000
   -0.0192    1.1479    0.4074 N   0  0  0  0  0  0  0  0  0  0  0  0
    0.8159    1.2741    0.9635 H   0  0  0  0  0  0  0  0  0  0  0  0
   -0.2434    2.1084    0.1847 H   0  0  0  0  0  0  0  0  0  0  0  0
   -0.0192   -1.2282   -0.4326 C   0  0  0  0  0  3  0  0  0  0  0  0
   -0.0192    0.0038    0.0029 H   0  0  0  0  0  0  0  0  0  0  0  0
    0.8699   -1.7415   -0.0697 H   0  0  0  0  0  0  0  0  0  0  0  0
   -0.9083   -1.7415   -0.0697 H   0  0  0  0  0  0  0  0  0  0  0  0
   -0.0192   -1.2282   -1.5216 H   0  0  0  0  0  0  0  0  0  0  0  0
  1  2  1  0
  1  3  1  0
  1  5  1  0
  4  6  1  0
  4  7  1  0
  4  8  1  0
M  RAD  1   4   2
M  END
>  <reaction>  (11) 
rxn_68

>  <mol_properties>  (11) 
{"0": {"label": "*1", "atom_type": "N3s"}, "1": {"label": "*0", "atom_type": "H0"}, "3": {"label": "*3", "atom_type": "Cs"}, "4": {"label": "*2", "atom_type": "H0"}, "5": {"label": "*4", "atom_type": "H0"}}

>  <type>  (11) 
unop_7

>  <geom_source>  (11) 
Heuristics

$$$$

     RDKit          3D

  8  6  0  0  0  0  0  0  0  0999 V2000
    0.0229    1.1933    0.3914 N   0  0  0  0  0  0  0  0  0  0  0  0
   -0.9414    1.4803    0.4928 H   0  0  0  0  0  0  0  0  0  0  0  0
    0.2588    0.5491    1.1343 H   0  0  0  0  0  0  0  0  0  0  0  0
    0.0229   -1.1828   -0.4487 C   0  0  0  0  0  3  0  0  0  0  0  0
    0.0229    0.0492   -0.0131 H   0  0  0  0  0  0  0  0  0  0  0  0
    0.9120   -1.6961   -0.0857 H   0  0  0  0  0  0  0  0  0  0  0  0
   -0.8662   -1.6961   -0.0857 H   0  0  0  0  0  0  0  0  0  0  0  0
    0.0229   -1.1828   -1.5376 H   0  0  0  0  0  0  0  0  0  0  0  0
  1  2  1  0
  1  3  1  0
  1  5  1  0
  4  6  1  0
  4  7  1  0
  4  8  1  0
M  RAD  1   4   2
M  END
>  <reaction>  (12) 
rxn_68

>  <mol_properties>  (12) 
{"0": {"label": "*1", "atom_type": "N3s"}, "1": {"label": "*0", "atom_type": "H0"}, "3": {"label": "*3", "atom_type": "Cs"}, "4": {"label": "*2", "atom_type": "H0"}, "5": {"label": "*4", "atom_type": "H0"}}

>  <type>  (12) 
unop_8

>  <geom_source>  (12) 
Heuristics

$$$$

     RDKit          3D

  8  6  0  0  0  0  0  0  0  0999 V2000
    0.0151    1.1573    0.4325 N   0  0  0  0  0  0  0  0  0  0  0  0
    0.4972    1.7227   -0.2534 H   0  0  0  0  0  0  0  0  0  0  0  0
   -0.9464    1.3777    0.6551 H   0  0  0  0  0  0  0  0  0  0  0  0
    0.0151   -1.2187   -0.4076 C   0  0  0  0  0  3  0  0  0  0  0  0
    0.0151    0.0133    0.0280 H   0  0  0  0  0  0  0  0  0  0  0  0
    0.9042   -1.7321   -0.0446 H   0  0  0  0  0  0  0  0  0  0  0  0
   -0.8740   -1.7320   -0.0446 H   0  0  0  0  0  0  0  0  0  0  0  0
    0.0151   -1.2187   -1.4965 H   0  0  0  0  0  0  0  0  0  0  0  0
  1  2  1  0
  1  3  1  0
  1  5  1  0
  4  6  1  0
  4  7  1  0
  4  8  1  0
M  RAD  1   4   2
M  END
>  <reaction>  (13) 
rxn_68

>  <mol_properties>  (13) 
{"0": {"label": "*1", "atom_type": "N3s"}, "1": {"label": "*0", "atom_type": "H0"}, "3": {"label": "*3", "atom_type": "Cs"}, "4": {"label": "*2", "atom_type": "H0"}, "5": {"label": "*4", "atom_type": "H0"}}

>  <type>  (13) 
unop_9

>  <geom_source>  (13) 
Heuristics

$$$$

     RDKit          3D

  8  6  0  0  0  0  0  0  0  0999 V2000
    0.0308    1.1887    0.4054 N   0  0  0  0  0  0  0  0  0  0  0  0
   -0.8043    1.6364    0.0522 H   0  0  0  0  0  0  0  0  0  0  0  0
   -0.1134    0.5287    1.1578 H   0  0  0  0  0  0  0  0  0  0  0  0
    0.0308   -1.1873   -0.4347 C   0  0  0  0  0  3  0  0  0  0  0  0
    0.0308    0.0446    0.0009 H   0  0  0  0  0  0  0  0  0  0  0  0
    0.9199   -1.7007   -0.0717 H   0  0  0  0  0  0  0  0  0  0  0  0
   -0.8583   -1.7007   -0.0717 H   0  0  0  0  0  0  0  0  0  0  0  0
    0.0308   -1.1873   -1.5236 H   0  0  0  0  0  0  0  0  0  0  0  0
  1  2  1  0
  1  3  1  0
  1  5  1  0
  4  6  1  0
  4  7  1  0
  4  8  1  0
M  RAD  1   4   2
M  END
>  <reaction>  (14) 
rxn_68

>  <mol_properties>  (14) 
{"0": {"label": "*1", "atom_type": "N3s"}, "1": {"label": "*0", "atom_type": "H0"}, "3": {"label": "*3", "atom_type": "Cs"}, "4": {"label": "*2", "atom_type": "H0"}, "5": {"label": "*4", "atom_type": "H0"}}

>  <type>  (14) 
unop_10

>  <geom_source>  (14) 
Heuristics

$$$$

     RDKit          3D

  8  6  0  0  0  0  0  0  0  0999 V2000
   -0.0243    1.1521    0.3967 N   0  0  0  0  0  0  0  0  0  0  0  0
    0.4578    1.1607    1.2855 H   0  0  0  0  0  0  0  0  0  0  0  0
    0.2668    2.0967    0.1835 H   0  0  0  0  0  0  0  0  0  0  0  0
   -0.0243   -1.2240   -0.4434 C   0  0  0  0  0  3  0  0  0  0  0  0
   -0.0243    0.0080   -0.0078 H   0  0  0  0  0  0  0  0  0  0  0  0
    0.8648   -1.7373   -0.0804 H   0  0  0  0  0  0  0  0  0  0  0  0
   -0.9134   -1.7373   -0.0804 H   0  0  0  0  0  0  0  0  0  0  0  0
   -0.0243   -1.2240   -1.5323 H   0  0  0  0  0  0  0  0  0  0  0  0
  1  2  1  0
  1  3  1  0
  1  5  1  0
  4  6  1  0
  4  7  1  0
  4  8  1  0
M  RAD  1   4   2
M  END
>  <reaction>  (15) 
rxn_68

>  <mol_properties>  (15) 
{"0": {"label": "*1", "atom_type": "N3s"}, "1": {"label": "*0", "atom_type": "H0"}, "3": {"label": "*3", "atom_type": "Cs"}, "4": {"label": "*2", "atom_type": "H0"}, "5": {"label": "*4", "atom_type": "H0"}}

>  <type>  (15) 
unop_11

>  <geom_source>  (15) 
Heuristics

$$$$

     RDKit          3D

  8  6  0  0  0  0  0  0  0  0999 V2000
    0.0274    1.1692    0.4284 N   0  0  0  0  0  0  0  0  0  0  0  0
    0.0274    1.7776   -0.3793 H   0  0  0  0  0  0  0  0  0  0  0  0
   -0.8429    0.9703    0.9033 H   0  0  0  0  0  0  0  0  0  0  0  0
    0.0274   -1.2069   -0.4117 C   0  0  0  0  0  3  0  0  0  0  0  0
    0.0274    0.0251    0.0239 H   0  0  0  0  0  0  0  0  0  0  0  0
    0.9165   -1.7202   -0.0487 H   0  0  0  0  0  0  0  0  0  0  0  0
   -0.8617   -1.7202   -0.0487 H   0  0  0  0  0  0  0  0  0  0  0  0
    0.0274   -1.2069   -1.5006 H   0  0  0  0  0  0  0  0  0  0  0  0
  1  2  1  0
  1  3  1  0
  1  5  1  0
  4  6  1  0
  4  7  1  0
  4  8  1  0
M  RAD  1   4   2
M  END
>  <reaction>  (16) 
rxn_68

>  <mol_properties>  (16) 
{"0": {"label": "*1", "atom_type": "N3s"}, "1": {"label": "*0", "atom_type": "H0"}, "3": {"label": "*3", "atom_type": "Cs"}, "4": {"label": "*2", "atom_type": "H0"}, "5": {"label": "*4", "atom_type": "H0"}}

>  <type>  (16) 
unop_12

>  <geom_source>  (16) 
Heuristics

$$$$
