
     RDKit          3D

  8  7  0  0  0  0  0  0  0  0999 V2000
    0.7610    0.0250    0.0051 C   0  0  0  0  0  0  0  0  0  0  0  0
   -0.7610   -0.0250   -0.0051 C   0  0  0  0  0  0  0  0  0  0  0  0
    1.1904   -0.9237   -0.3217 H   0  0  0  0  0  0  0  0  0  0  0  0
    1.1359    0.8041   -0.6609 H   0  0  0  0  0  0  0  0  0  0  0  0
    1.1435    0.2336    1.0058 H   0  0  0  0  0  0  0  0  0  0  0  0
   -1.1435   -0.2336   -1.0058 H   0  0  0  0  0  0  0  0  0  0  0  0
   -1.1904    0.9237    0.3216 H   0  0  0  0  0  0  0  0  0  0  0  0
   -1.1359   -0.8041    0.6609 H   0  0  0  0  0  0  0  0  0  0  0  0
  1  2  1  0
  1  3  1  0
  1  4  1  0
  1  5  1  0
  2  6  1  0
  2  7  1  0
  2  8  1  0
M  END
>  <reaction>  (1) 
rxn_879

>  <mol_properties>  (1) 
{"1": {"label": "donator", "atom_type": "Cs"}, "5": {"label": "d_hydrogen", "atom_type": "H0"}}

>  <type>  (1) 
r1h

$$$$

     RDKit          3D

 11 10  0  0  0  0  0  0  0  0999 V2000
   -0.9580    1.1013   -2.2955 C   0  0  0  0  0  0  0  0  0  0  0  0
   -0.5129    0.5941   -1.2929 C   0  0  0  0  0  0  0  0  0  0  0  0
   -0.0301   -0.0160   -0.1357 C   0  0  0  0  0  3  0  0  0  0  0  0
   -0.6593   -1.2845    0.3661 C   0  0  0  0  0  0  0  0  0  0  0  0
    1.0691    0.5292    0.5269 C   0  0  0  0  0  0  0  0  0  0  0  0
    2.0168    0.9794    1.1266 C   0  0  0  0  0  0  0  0  0  0  0  0
   -1.3415    1.5561   -3.1769 H   0  0  0  0  0  0  0  0  0  0  0  0
   -1.7166   -1.3186    0.1054 H   0  0  0  0  0  0  0  0  0  0  0  0
   -0.1742   -2.1550   -0.0865 H   0  0  0  0  0  0  0  0  0  0  0  0
   -0.5505   -1.3663    1.4470 H   0  0  0  0  0  0  0  0  0  0  0  0
    2.8514    1.3842    1.6465 H   0  0  0  0  0  0  0  0  0  0  0  0
  1  2  3  0
  1  7  1  0
  2  3  1  0
  3  4  1  0
  3  5  1  0
  4  8  1  0
  4  9  1  0
  4 10  1  0
  5  6  3  0
  6 11  1  0
M  RAD  1   3   2
M  END
>  <reaction>  (2) 
rxn_879

>  <mol_properties>  (2) 
{"2": {"label": "acceptor", "atom_type": "Cs"}}

>  <type>  (2) 
r2

$$$$

     RDKit          3D

 12 11  0  0  0  0  0  0  0  0999 V2000
    2.1696    0.6854    1.1310 C   0  0  0  0  0  0  0  0  0  0  0  0
    1.2518    0.4145    0.4134 C   0  0  0  0  0  0  0  0  0  0  0  0
    0.1391    0.0443   -0.4683 C   0  0  0  0  0  0  0  0  0  0  0  0
   -0.2054   -1.4492   -0.3339 C   0  0  0  0  0  0  0  0  0  0  0  0
   -1.0375    0.8853   -0.2222 C   0  0  0  0  0  0  0  0  0  0  0  0
   -2.0160    1.5463   -0.0311 C   0  0  0  0  0  0  0  0  0  0  0  0
    2.9819    0.9356    1.7702 H   0  0  0  0  0  0  0  0  0  0  0  0
    0.4629    0.2285   -1.4981 H   0  0  0  0  0  0  0  0  0  0  0  0
   -0.5327   -1.6703    0.6812 H   0  0  0  0  0  0  0  0  0  0  0  0
    0.6727   -2.0535   -0.5593 H   0  0  0  0  0  0  0  0  0  0  0  0
   -1.0064   -1.7081   -1.0256 H   0  0  0  0  0  0  0  0  0  0  0  0
   -2.8802    2.1413    0.1426 H   0  0  0  0  0  0  0  0  0  0  0  0
  1  2  3  0
  1  7  1  0
  2  3  1  0
  3  4  1  0
  3  5  1  0
  3  8  1  0
  4  9  1  0
  4 10  1  0
  4 11  1  0
  5  6  3  0
  6 12  1  0
M  END
>  <reaction>  (3) 
rxn_879

>  <mol_properties>  (3) 
{"2": {"label": "acceptor", "atom_type": "Cs"}, "11": {"label": "a_hydrogen", "atom_type": "H0"}}

>  <type>  (3) 
r2h

$$$$

     RDKit          3D

 19 17  0  0  0  0  0  0  0  0999 V2000
   -1.2240    2.0288   -1.1992 C   0  0  0  0  0  0  0  0  0  0  0  0
   -0.5474    1.3487   -0.4796 C   0  0  0  0  0  0  0  0  0  0  0  0
    0.3089    0.5101    0.3282 C   0  0  0  0  0  0  0  0  0  0  0  0
    1.6192    1.1719    0.7473 C   0  0  0  0  0  0  0  0  0  0  0  0
   -0.3798   -0.1733    1.3995 C   0  0  0  0  0  0  0  0  0  0  0  0
   -0.9137   -0.7887    2.2795 C   0  0  0  0  0  0  0  0  0  0  0  0
   -1.8342    2.6389   -1.8205 H   0  0  0  0  0  0  0  0  0  0  0  0
    2.1363    1.5578   -0.1312 H   0  0  0  0  0  0  0  0  0  0  0  0
    1.4338    1.9991    1.4338 H   0  0  0  0  0  0  0  0  0  0  0  0
    2.2591    0.4433    1.2450 H   0  0  0  0  0  0  0  0  0  0  0  0
   -1.3984   -1.3175    3.0643 H   0  0  0  0  0  0  0  0  0  0  0  0
   -0.3471   -2.0655   -1.6994 C   0  0  0  0  0  0  0  0  0  0  0  0
    0.9977   -1.5026   -1.3634 C   0  0  0  0  0  3  0  0  0  0  0  0
   -0.8584   -2.4236   -0.8042 H   0  0  0  0  0  0  0  0  0  0  0  0
   -0.9806   -1.3142   -2.1740 H   0  0  0  0  0  0  0  0  0  0  0  0
   -0.2619   -2.9108   -2.3916 H   0  0  0  0  0  0  0  0  0  0  0  0
    0.6670   -0.4118   -0.4505 H   0  0  0  0  0  0  0  0  0  0  0  0
    1.5207   -0.9694   -2.1528 H   0  0  0  0  0  0  0  0  0  0  0  0
    1.6467   -2.1129   -0.7410 H   0  0  0  0  0  0  0  0  0  0  0  0
  1  2  3  0
  1  7  1  0
  2  3  1  0
  3  4  1  0
  3  5  1  0
  3 17  1  0
  4  8  1  0
  4  9  1  0
  4 10  1  0
  5  6  3  0
  6 11  1  0
 12 13  1  0
 12 14  1  0
 12 15  1  0
 12 16  1  0
 13 18  1  0
 13 19  1  0
M  RAD  1  13   2
M  END
>  <reaction>  (4) 
rxn_879

>  <mol_properties>  (4) 
{"1": {"label": "*0", "atom_type": "Ct"}, "2": {"label": "*1", "atom_type": "Cs"}, "11": {"label": "*4", "atom_type": "Cs"}, "12": {"label": "*3", "atom_type": "Cs"}, "16": {"label": "*2", "atom_type": "H0"}}

>  <type>  (4) 
ts

$$$$

     RDKit          3D

 19 17  0  0  0  0  0  0  0  0999 V2000
   -2.2283    0.9780    1.4897 C   0  0  0  0  0  0  0  0  0  0  0  0
   -1.2328    0.8247    0.8444 C   0  0  0  0  0  0  0  0  0  0  0  0
   -0.0202    0.6705    0.0331 C   0  0  0  0  0  3  0  0  0  0  0  0
    0.4908    2.0320   -0.4696 C   0  0  0  0  0  0  0  0  0  0  0  0
    1.0244   -0.0504    0.7689 C   0  0  0  0  0  0  0  0  0  0  0  0
    1.8987   -0.6220    1.3517 C   0  0  0  0  0  0  0  0  0  0  0  0
   -3.1133    1.1143    2.0634 H   0  0  0  0  0  0  0  0  0  0  0  0
   -0.2884    2.5302   -1.0455 H   0  0  0  0  0  0  0  0  0  0  0  0
    0.7647    2.6658    0.3728 H   0  0  0  0  0  0  0  0  0  0  0  0
    1.3671    1.8884   -1.1008 H   0  0  0  0  0  0  0  0  0  0  0  0
    2.6761   -1.1301    1.8699 H   0  0  0  0  0  0  0  0  0  0  0  0
   -0.0202   -1.7746   -2.4413 C   0  0  0  0  0  0  0  0  0  0  0  0
   -0.0202   -1.7746   -0.9185 C   0  0  0  0  0  0  0  0  0  0  0  0
   -0.9011   -1.2661   -2.8371 H   0  0  0  0  0  0  0  0  0  0  0  0
    0.8606   -1.2661   -2.8371 H   0  0  0  0  0  0  0  0  0  0  0  0
   -0.0202   -2.7917   -2.8371 H   0  0  0  0  0  0  0  0  0  0  0  0
   -0.0202   -0.5541   -0.4435 H   0  0  0  0  0  0  0  0  0  0  0  0
    0.8606   -2.2832   -0.5226 H   0  0  0  0  0  0  0  0  0  0  0  0
   -0.9011   -2.2832   -0.5226 H   0  0  0  0  0  0  0  0  0  0  0  0
  1  2  3  0
  1  7  1  0
  2  3  1  0
  3  4  1  0
  3  5  1  0
  4  8  1  0
  4  9  1  0
  4 10  1  0
  5  6  3  0
  6 11  1  0
 12 13  1  0
 12 14  1  0
 12 15  1  0
 12 16  1  0
 13 17  1  0
 13 18  1  0
 13 19  1  0
M  RAD  1   3   2
M  END
>  <reaction>  (5) 
rxn_879

>  <mol_properties>  (5) 
{"1": {"label": "*0", "atom_type": "Ct"}, "2": {"label": "*1", "atom_type": "Cs"}, "11": {"label": "*4", "atom_type": "Cs"}, "12": {"label": "*3", "atom_type": "Cs"}, "16": {"label": "*2", "atom_type": "H0"}}

>  <type>  (5) 
unop_1

>  <geom_source>  (5) 
Heuristics

$$$$

     RDKit          3D

 19 17  0  0  0  0  0  0  0  0999 V2000
   -0.8998    1.9778   -1.4143 C   0  0  0  0  0  0  0  0  0  0  0  0
   -0.3575    1.2723   -0.6150 C   0  0  0  0  0  0  0  0  0  0  0  0
    0.3426    0.4244    0.3562 C   0  0  0  0  0  3  0  0  0  0  0  0
    1.6196    1.1085    0.8748 C   0  0  0  0  0  0  0  0  0  0  0  0
   -0.5413    0.0406    1.4625 C   0  0  0  0  0  0  0  0  0  0  0  0
   -1.2359   -0.2741    2.3840 C   0  0  0  0  0  0  0  0  0  0  0  0
   -1.3820    2.6051   -2.1249 H   0  0  0  0  0  0  0  0  0  0  0  0
    2.2767    1.3480    0.0393 H   0  0  0  0  0  0  0  0  0  0  0  0
    1.3672    2.0295    1.3985 H   0  0  0  0  0  0  0  0  0  0  0  0
    2.1418    0.4447    1.5630 H   0  0  0  0  0  0  0  0  0  0  0  0
   -1.8534   -0.5538    3.2034 H   0  0  0  0  0  0  0  0  0  0  0  0
    0.3426   -2.0208   -2.1182 C   0  0  0  0  0  0  0  0  0  0  0  0
    0.3426   -2.0208   -0.5954 C   0  0  0  0  0  0  0  0  0  0  0  0
   -0.5382   -1.5122   -2.5141 H   0  0  0  0  0  0  0  0  0  0  0  0
    1.2235   -1.5122   -2.5141 H   0  0  0  0  0  0  0  0  0  0  0  0
    0.3426   -3.0379   -2.5141 H   0  0  0  0  0  0  0  0  0  0  0  0
    0.3426   -0.8002   -0.1204 H   0  0  0  0  0  0  0  0  0  0  0  0
    1.2235   -2.5293   -0.1996 H   0  0  0  0  0  0  0  0  0  0  0  0
   -0.5382   -2.5293   -0.1996 H   0  0  0  0  0  0  0  0  0  0  0  0
  1  2  3  0
  1  7  1  0
  2  3  1  0
  3  4  1  0
  3  5  1  0
  4  8  1  0
  4  9  1  0
  4 10  1  0
  5  6  3  0
  6 11  1  0
 12 13  1  0
 12 14  1  0
 12 15  1  0
 12 16  1  0
 13 17  1  0
 13 18  1  0
 13 19  1  0
M  RAD  1   3   2
M  END
>  <reaction>  (6) 
rxn_879

>  <mol_properties>  (6) 
{"1": {"label": "*0", "atom_type": "Ct"}, "2": {"label": "*1", "atom_type": "Cs"}, "11": {"label": "*4", "atom_type": "Cs"}, "12": {"label": "*3", "atom_type": "Cs"}, "16": {"label": "*2", "atom_type": "H0"}}

>  <type>  (6) 
unop_2

>  <geom_source>  (6) 
Heuristics

$$$$

     RDKit          3D

 19 17  0  0  0  0  0  0  0  0999 V2000
   -1.5017    0.5353    2.4277 C   0  0  0  0  0  0  0  0  0  0  0  0
   -0.9086    0.5407    1.3890 C   0  0  0  0  0  0  0  0  0  0  0  0
   -0.2085    0.5724    0.1001 C   0  0  0  0  0  3  0  0  0  0  0  0
   -0.4833    1.8867   -0.6512 C   0  0  0  0  0  0  0  0  0  0  0  0
    1.2314    0.3490    0.2708 C   0  0  0  0  0  0  0  0  0  0  0  0
    2.4109    0.1848    0.3833 C   0  0  0  0  0  0  0  0  0  0  0  0
   -2.0291    0.5306    3.3512 H   0  0  0  0  0  0  0  0  0  0  0  0
   -1.5554    2.0108   -0.8003 H   0  0  0  0  0  0  0  0  0  0  0  0
   -0.1080    2.7336   -0.0781 H   0  0  0  0  0  0  0  0  0  0  0  0
    0.0142    1.8702   -1.6204 H   0  0  0  0  0  0  0  0  0  0  0  0
    3.4596    0.0389    0.4833 H   0  0  0  0  0  0  0  0  0  0  0  0
   -0.2085   -1.8728   -2.3743 C   0  0  0  0  0  0  0  0  0  0  0  0
   -0.2085   -1.8728   -0.8515 C   0  0  0  0  0  0  0  0  0  0  0  0
   -1.0893   -1.3642   -2.7701 H   0  0  0  0  0  0  0  0  0  0  0  0
    0.6724   -1.3642   -2.7701 H   0  0  0  0  0  0  0  0  0  0  0  0
   -0.2085   -2.8899   -2.7701 H   0  0  0  0  0  0  0  0  0  0  0  0
   -0.2085   -0.6522   -0.3765 H   0  0  0  0  0  0  0  0  0  0  0  0
    0.6724   -2.3813   -0.4557 H   0  0  0  0  0  0  0  0  0  0  0  0
   -1.0893   -2.3813   -0.4557 H   0  0  0  0  0  0  0  0  0  0  0  0
  1  2  3  0
  1  7  1  0
  2  3  1  0
  3  4  1  0
  3  5  1  0
  4  8  1  0
  4  9  1  0
  4 10  1  0
  5  6  3  0
  6 11  1  0
 12 13  1  0
 12 14  1  0
 12 15  1  0
 12 16  1  0
 13 17  1  0
 13 18  1  0
 13 19  1  0
M  RAD  1   3   2
M  END
>  <reaction>  (7) 
rxn_879

>  <mol_properties>  (7) 
{"1": {"label": "*0", "atom_type": "Ct"}, "2": {"label": "*1", "atom_type": "Cs"}, "11": {"label": "*4", "atom_type": "Cs"}, "12": {"label": "*3", "atom_type": "Cs"}, "16": {"label": "*2", "atom_type": "H0"}}

>  <type>  (7) 
unop_3

>  <geom_source>  (7) 
Heuristics

$$$$

     RDKit          3D

 19 17  0  0  0  0  0  0  0  0999 V2000
    2.1379    1.4323   -0.4900 C   0  0  0  0  0  0  0  0  0  0  0  0
    1.1313    0.9153   -0.1026 C   0  0  0  0  0  0  0  0  0  0  0  0
   -0.0814    0.2533    0.3910 C   0  0  0  0  0  3  0  0  0  0  0  0
    0.1966   -0.5216    1.6910 C   0  0  0  0  0  0  0  0  0  0  0  0
   -1.1770    1.2127    0.5682 C   0  0  0  0  0  0  0  0  0  0  0  0
   -2.0824    1.9760    0.7364 C   0  0  0  0  0  0  0  0  0  0  0  0
    3.0329    1.8920   -0.8344 H   0  0  0  0  0  0  0  0  0  0  0  0
    0.9857   -1.2540    1.5239 H   0  0  0  0  0  0  0  0  0  0  0  0
    0.5131    0.1629    2.4769 H   0  0  0  0  0  0  0  0  0  0  0  0
   -0.7073   -1.0359    2.0159 H   0  0  0  0  0  0  0  0  0  0  0  0
   -2.8874    2.6547    0.8860 H   0  0  0  0  0  0  0  0  0  0  0  0
   -0.0814   -2.1919   -2.0834 C   0  0  0  0  0  0  0  0  0  0  0  0
   -0.0814   -2.1919   -0.5606 C   0  0  0  0  0  0  0  0  0  0  0  0
   -0.9622   -1.6833   -2.4793 H   0  0  0  0  0  0  0  0  0  0  0  0
    0.7995   -1.6833   -2.4793 H   0  0  0  0  0  0  0  0  0  0  0  0
   -0.0814   -3.2090   -2.4793 H   0  0  0  0  0  0  0  0  0  0  0  0
   -0.0814   -0.9714   -0.0856 H   0  0  0  0  0  0  0  0  0  0  0  0
    0.7995   -2.7004   -0.1648 H   0  0  0  0  0  0  0  0  0  0  0  0
   -0.9622   -2.7004   -0.1648 H   0  0  0  0  0  0  0  0  0  0  0  0
  1  2  3  0
  1  7  1  0
  2  3  1  0
  3  4  1  0
  3  5  1  0
  4  8  1  0
  4  9  1  0
  4 10  1  0
  5  6  3  0
  6 11  1  0
 12 13  1  0
 12 14  1  0
 12 15  1  0
 12 16  1  0
 13 17  1  0
 13 18  1  0
 13 19  1  0
M  RAD  1   3   2
M  END
>  <reaction>  (8) 
rxn_879

>  <mol_properties>  (8) 
{"1": {"label": "*0", "atom_type": "Ct"}, "2": {"label": "*1", "atom_type": "Cs"}, "11": {"label": "*4", "atom_type": "Cs"}, "12": {"label": "*3", "atom_type": "Cs"}, "16": {"label": "*2", "atom_type": "H0"}}

>  <type>  (8) 
unop_4

>  <geom_source>  (8) 
Heuristics

$$$$

     RDKit          3D

 19 17  0  0  0  0  0  0  0  0999 V2000
   -0.2528    0.2075    2.8841 C   0  0  0  0  0  0  0  0  0  0  0  0
   -0.2201    0.2878    1.6911 C   0  0  0  0  0  0  0  0  0  0  0  0
   -0.2201    0.3875    0.2274 C   0  0  0  0  0  3  0  0  0  0  0  0
   -1.4847    1.1005   -0.2826 C   0  0  0  0  0  0  0  0  0  0  0  0
    0.9956    1.0476   -0.2612 C   0  0  0  0  0  0  0  0  0  0  0  0
    1.9700    1.5967   -0.6853 C   0  0  0  0  0  0  0  0  0  0  0  0
   -0.2818    0.1361    3.9448 H   0  0  0  0  0  0  0  0  0  0  0  0
   -2.3725    0.5700    0.0601 H   0  0  0  0  0  0  0  0  0  0  0  0
   -1.5187    2.1220    0.0938 H   0  0  0  0  0  0  0  0  0  0  0  0
   -1.4808    1.1273   -1.3718 H   0  0  0  0  0  0  0  0  0  0  0  0
    2.8363    2.0848   -1.0624 H   0  0  0  0  0  0  0  0  0  0  0  0
   -0.2201   -2.0576   -2.2470 C   0  0  0  0  0  0  0  0  0  0  0  0
   -0.2201   -2.0576   -0.7242 C   0  0  0  0  0  0  0  0  0  0  0  0
   -1.1010   -1.5490   -2.6429 H   0  0  0  0  0  0  0  0  0  0  0  0
    0.6607   -1.5490   -2.6429 H   0  0  0  0  0  0  0  0  0  0  0  0
   -0.2201   -3.0747   -2.6429 H   0  0  0  0  0  0  0  0  0  0  0  0
   -0.2201   -0.8371   -0.2492 H   0  0  0  0  0  0  0  0  0  0  0  0
    0.6607   -2.5661   -0.3284 H   0  0  0  0  0  0  0  0  0  0  0  0
   -1.1010   -2.5662   -0.3284 H   0  0  0  0  0  0  0  0  0  0  0  0
  1  2  3  0
  1  7  1  0
  2  3  1  0
  3  4  1  0
  3  5  1  0
  4  8  1  0
  4  9  1  0
  4 10  1  0
  5  6  3  0
  6 11  1  0
 12 13  1  0
 12 14  1  0
 12 15  1  0
 12 16  1  0
 13 17  1  0
 13 18  1  0
 13 19  1  0
M  RAD  1   3   2
M  END
>  <reaction>  (9) 
rxn_879

>  <mol_properties>  (9) 
{"1": {"label": "*0", "atom_type": "Ct"}, "2": {"label": "*1", "atom_type": "Cs"}, "11": {"label": "*4", "atom_type": "Cs"}, "12": {"label": "*3", "atom_type": "Cs"}, "16": {"label": "*2", "atom_type": "H0"}}

>  <type>  (9) 
unop_5

>  <geom_source>  (9) 
Heuristics

$$$$

     RDKit          3D

 19 17  0  0  0  0  0  0  0  0999 V2000
    2.4401    1.0021    0.6069 C   0  0  0  0  0  0  0  0  0  0  0  0
    1.2930    0.6964    0.4599 C   0  0  0  0  0  0  0  0  0  0  0  0
   -0.1072    0.2883    0.3011 C   0  0  0  0  0  3  0  0  0  0  0  0
   -0.5616   -0.6090    1.4655 C   0  0  0  0  0  0  0  0  0  0  0  0
   -0.9874    1.4525    0.1525 C   0  0  0  0  0  0  0  0  0  0  0  0
   -1.7293    2.3846    0.0449 C   0  0  0  0  0  0  0  0  0  0  0  0
    3.4599    1.2739    0.7377 H   0  0  0  0  0  0  0  0  0  0  0  0
    0.0824   -1.4854    1.5308 H   0  0  0  0  0  0  0  0  0  0  0  0
   -0.5070   -0.0620    2.4058 H   0  0  0  0  0  0  0  0  0  0  0  0
   -1.5902   -0.9308    1.3054 H   0  0  0  0  0  0  0  0  0  0  0  0
   -2.3890    3.2133   -0.0507 H   0  0  0  0  0  0  0  0  0  0  0  0
   -0.1072   -2.1569   -2.1733 C   0  0  0  0  0  0  0  0  0  0  0  0
   -0.1072   -2.1569   -0.6506 C   0  0  0  0  0  0  0  0  0  0  0  0
   -0.9880   -1.6483   -2.5692 H   0  0  0  0  0  0  0  0  0  0  0  0
    0.7737   -1.6483   -2.5692 H   0  0  0  0  0  0  0  0  0  0  0  0
   -0.1072   -3.1740   -2.5692 H   0  0  0  0  0  0  0  0  0  0  0  0
   -0.1072   -0.9363   -0.1755 H   0  0  0  0  0  0  0  0  0  0  0  0
    0.7737   -2.6654   -0.2547 H   0  0  0  0  0  0  0  0  0  0  0  0
   -0.9880   -2.6654   -0.2547 H   0  0  0  0  0  0  0  0  0  0  0  0
  1  2  3  0
  1  7  1  0
  2  3  1  0
  3  4  1  0
  3  5  1  0
  4  8  1  0
  4  9  1  0
  4 10  1  0
  5  6  3  0
  6 11  1  0
 12 13  1  0
 12 14  1  0
 12 15  1  0
 12 16  1  0
 13 17  1  0
 13 18  1  0
 13 19  1  0
M  RAD  1   3   2
M  END
>  <reaction>  (10) 
rxn_879

>  <mol_properties>  (10) 
{"1": {"label": "*0", "atom_type": "Ct"}, "2": {"label": "*1", "atom_type": "Cs"}, "11": {"label": "*4", "atom_type": "Cs"}, "12": {"label": "*3", "atom_type": "Cs"}, "16": {"label": "*2", "atom_type": "H0"}}

>  <type>  (10) 
unop_6

>  <geom_source>  (10) 
Heuristics

$$$$

     RDKit          3D

 19 17  0  0  0  0  0  0  0  0999 V2000
    2.1100    0.5587    1.7462 C   0  0  0  0  0  0  0  0  0  0  0  0
    1.1298    0.4596    1.0678 C   0  0  0  0  0  0  0  0  0  0  0  0
   -0.0828    0.3054    0.2565 C   0  0  0  0  0  3  0  0  0  0  0  0
   -1.1858   -0.4305    1.0372 C   0  0  0  0  0  0  0  0  0  0  0  0
   -0.5583    1.6009   -0.2415 C   0  0  0  0  0  0  0  0  0  0  0  0
   -0.9766    2.6453   -0.6476 C   0  0  0  0  0  0  0  0  0  0  0  0
    2.9814    0.6468    2.3494 H   0  0  0  0  0  0  0  0  0  0  0  0
   -0.8222   -1.4047    1.3624 H   0  0  0  0  0  0  0  0  0  0  0  0
   -1.4756    0.1469    1.9142 H   0  0  0  0  0  0  0  0  0  0  0  0
   -2.0603   -0.5676    0.4021 H   0  0  0  0  0  0  0  0  0  0  0  0
   -1.3484    3.5739   -1.0087 H   0  0  0  0  0  0  0  0  0  0  0  0
   -0.0828   -2.1397   -2.2179 C   0  0  0  0  0  0  0  0  0  0  0  0
   -0.0828   -2.1397   -0.6951 C   0  0  0  0  0  0  0  0  0  0  0  0
   -0.9637   -1.6312   -2.6137 H   0  0  0  0  0  0  0  0  0  0  0  0
    0.7980   -1.6312   -2.6137 H   0  0  0  0  0  0  0  0  0  0  0  0
   -0.0828   -3.1568   -2.6137 H   0  0  0  0  0  0  0  0  0  0  0  0
   -0.0828   -0.9192   -0.2201 H   0  0  0  0  0  0  0  0  0  0  0  0
    0.7980   -2.6483   -0.2992 H   0  0  0  0  0  0  0  0  0  0  0  0
   -0.9637   -2.6483   -0.2992 H   0  0  0  0  0  0  0  0  0  0  0  0
  1  2  3  0
  1  7  1  0
  2  3  1  0
  3  4  1  0
  3  5  1  0
  4  8  1  0
  4  9  1  0
  4 10  1  0
  5  6  3  0
  6 11  1  0
 12 13  1  0
 12 14  1  0
 12 15  1  0
 12 16  1  0
 13 17  1  0
 13 18  1  0
 13 19  1  0
M  RAD  1   3   2
M  END
>  <reaction>  (11) 
rxn_879

>  <mol_properties>  (11) 
{"1": {"label": "*0", "atom_type": "Ct"}, "2": {"label": "*1", "atom_type": "Cs"}, "11": {"label": "*4", "atom_type": "Cs"}, "12": {"label": "*3", "atom_type": "Cs"}, "16": {"label": "*2", "atom_type": "H0"}}

>  <type>  (11) 
unop_7

>  <geom_source>  (11) 
Heuristics

$$$$

     RDKit          3D

 19 17  0  0  0  0  0  0  0  0999 V2000
   -2.3460    1.4258    0.3477 C   0  0  0  0  0  0  0  0  0  0  0  0
   -1.2111    1.0653    0.2341 C   0  0  0  0  0  0  0  0  0  0  0  0
    0.1891    0.6572    0.0753 C   0  0  0  0  0  3  0  0  0  0  0  0
    1.1142    1.8796   -0.0573 C   0  0  0  0  0  0  0  0  0  0  0  0
    0.6168   -0.2162    1.1737 C   0  0  0  0  0  0  0  0  0  0  0  0
    0.9961   -0.9174    2.0655 C   0  0  0  0  0  0  0  0  0  0  0  0
   -3.3550    1.7462    0.4486 H   0  0  0  0  0  0  0  0  0  0  0  0
    0.8006    2.4913   -0.9026 H   0  0  0  0  0  0  0  0  0  0  0  0
    1.0723    2.4835    0.8481 H   0  0  0  0  0  0  0  0  0  0  0  0
    2.1413    1.5513   -0.2135 H   0  0  0  0  0  0  0  0  0  0  0  0
    1.3334   -1.5407    2.8584 H   0  0  0  0  0  0  0  0  0  0  0  0
    0.1891   -1.7879   -2.3991 C   0  0  0  0  0  0  0  0  0  0  0  0
    0.1891   -1.7879   -0.8763 C   0  0  0  0  0  0  0  0  0  0  0  0
   -0.6917   -1.2793   -2.7950 H   0  0  0  0  0  0  0  0  0  0  0  0
    1.0699   -1.2794   -2.7950 H   0  0  0  0  0  0  0  0  0  0  0  0
    0.1891   -2.8050   -2.7950 H   0  0  0  0  0  0  0  0  0  0  0  0
    0.1891   -0.5674   -0.4013 H   0  0  0  0  0  0  0  0  0  0  0  0
    1.0699   -2.2965   -0.4805 H   0  0  0  0  0  0  0  0  0  0  0  0
   -0.6917   -2.2965   -0.4805 H   0  0  0  0  0  0  0  0  0  0  0  0
  1  2  3  0
  1  7  1  0
  2  3  1  0
  3  4  1  0
  3  5  1  0
  4  8  1  0
  4  9  1  0
  4 10  1  0
  5  6  3  0
  6 11  1  0
 12 13  1  0
 12 14  1  0
 12 15  1  0
 12 16  1  0
 13 17  1  0
 13 18  1  0
 13 19  1  0
M  RAD  1   3   2
M  END
>  <reaction>  (12) 
rxn_879

>  <mol_properties>  (12) 
{"1": {"label": "*0", "atom_type": "Ct"}, "2": {"label": "*1", "atom_type": "Cs"}, "11": {"label": "*4", "atom_type": "Cs"}, "12": {"label": "*3", "atom_type": "Cs"}, "16": {"label": "*2", "atom_type": "H0"}}

>  <type>  (12) 
unop_8

>  <geom_source>  (12) 
Heuristics

$$$$

     RDKit          3D

 19 17  0  0  0  0  0  0  0  0999 V2000
    1.3392    1.7645   -1.2838 C   0  0  0  0  0  0  0  0  0  0  0  0
    0.7401    1.0865   -0.5014 C   0  0  0  0  0  0  0  0  0  0  0  0
    0.0400    0.2386    0.4699 C   0  0  0  0  0  3  0  0  0  0  0  0
    0.9611   -0.1443    1.6414 C   0  0  0  0  0  0  0  0  0  0  0  0
   -1.1893    0.8807    0.9484 C   0  0  0  0  0  0  0  0  0  0  0  0
   -2.1884    1.3882    1.3668 C   0  0  0  0  0  0  0  0  0  0  0  0
    1.8718    2.3673   -1.9794 H   0  0  0  0  0  0  0  0  0  0  0  0
    1.8473   -0.6539    1.2643 H   0  0  0  0  0  0  0  0  0  0  0  0
    1.2726    0.7481    2.1827 H   0  0  0  0  0  0  0  0  0  0  0  0
    0.4322   -0.8048    2.3277 H   0  0  0  0  0  0  0  0  0  0  0  0
   -3.0766    1.8394    1.7389 H   0  0  0  0  0  0  0  0  0  0  0  0
    0.0400   -2.2065   -2.0045 C   0  0  0  0  0  0  0  0  0  0  0  0
    0.0400   -2.2065   -0.4818 C   0  0  0  0  0  0  0  0  0  0  0  0
   -0.8409   -1.6980   -2.4004 H   0  0  0  0  0  0  0  0  0  0  0  0
    0.9208   -1.6980   -2.4004 H   0  0  0  0  0  0  0  0  0  0  0  0
    0.0400   -3.2236   -2.4004 H   0  0  0  0  0  0  0  0  0  0  0  0
    0.0400   -0.9860   -0.0067 H   0  0  0  0  0  0  0  0  0  0  0  0
    0.9208   -2.7151   -0.0859 H   0  0  0  0  0  0  0  0  0  0  0  0
   -0.8409   -2.7151   -0.0859 H   0  0  0  0  0  0  0  0  0  0  0  0
  1  2  3  0
  1  7  1  0
  2  3  1  0
  3  4  1  0
  3  5  1  0
  4  8  1  0
  4  9  1  0
  4 10  1  0
  5  6  3  0
  6 11  1  0
 12 13  1  0
 12 14  1  0
 12 15  1  0
 12 16  1  0
 13 17  1  0
 13 18  1  0
 13 19  1  0
M  RAD  1   3   2
M  END
>  <reaction>  (13) 
rxn_879

>  <mol_properties>  (13) 
{"1": {"label": "*0", "atom_type": "Ct"}, "2": {"label": "*1", "atom_type": "Cs"}, "11": {"label": "*4", "atom_type": "Cs"}, "12": {"label": "*3", "atom_type": "Cs"}, "16": {"label": "*2", "atom_type": "H0"}}

>  <type>  (13) 
unop_9

>  <geom_source>  (13) 
Heuristics

$$$$

     RDKit          3D

 19 17  0  0  0  0  0  0  0  0999 V2000
   -1.8542    1.7892   -0.7084 C   0  0  0  0  0  0  0  0  0  0  0  0
   -0.8842    1.2261   -0.2928 C   0  0  0  0  0  0  0  0  0  0  0  0
    0.3284    0.5641    0.2008 C   0  0  0  0  0  3  0  0  0  0  0  0
    1.4700    1.5747    0.4082 C   0  0  0  0  0  0  0  0  0  0  0  0
    0.0595   -0.1930    1.4283 C   0  0  0  0  0  0  0  0  0  0  0  0
   -0.1289   -0.8054    2.4385 C   0  0  0  0  0  0  0  0  0  0  0  0
   -2.7166    2.2899   -1.0779 H   0  0  0  0  0  0  0  0  0  0  0  0
    1.6774    2.0958   -0.5259 H   0  0  0  0  0  0  0  0  0  0  0  0
    1.1916    2.3071    1.1648 H   0  0  0  0  0  0  0  0  0  0  0  0
    2.3695    1.0549    0.7365 H   0  0  0  0  0  0  0  0  0  0  0  0
   -0.2964   -1.3498    3.3365 H   0  0  0  0  0  0  0  0  0  0  0  0
    0.3284   -1.8811   -2.2736 C   0  0  0  0  0  0  0  0  0  0  0  0
    0.3284   -1.8811   -0.7508 C   0  0  0  0  0  0  0  0  0  0  0  0
   -0.5524   -1.3725   -2.6695 H   0  0  0  0  0  0  0  0  0  0  0  0
    1.2093   -1.3725   -2.6695 H   0  0  0  0  0  0  0  0  0  0  0  0
    0.3284   -2.8982   -2.6695 H   0  0  0  0  0  0  0  0  0  0  0  0
    0.3284   -0.6605   -0.2758 H   0  0  0  0  0  0  0  0  0  0  0  0
    1.2093   -2.3896   -0.3550 H   0  0  0  0  0  0  0  0  0  0  0  0
   -0.5524   -2.3896   -0.3550 H   0  0  0  0  0  0  0  0  0  0  0  0
  1  2  3  0
  1  7  1  0
  2  3  1  0
  3  4  1  0
  3  5  1  0
  4  8  1  0
  4  9  1  0
  4 10  1  0
  5  6  3  0
  6 11  1  0
 12 13  1  0
 12 14  1  0
 12 15  1  0
 12 16  1  0
 13 17  1  0
 13 18  1  0
 13 19  1  0
M  RAD  1   3   2
M  END
>  <reaction>  (14) 
rxn_879

>  <mol_properties>  (14) 
{"1": {"label": "*0", "atom_type": "Ct"}, "2": {"label": "*1", "atom_type": "Cs"}, "11": {"label": "*4", "atom_type": "Cs"}, "12": {"label": "*3", "atom_type": "Cs"}, "16": {"label": "*2", "atom_type": "H0"}}

>  <type>  (14) 
unop_10

>  <geom_source>  (14) 
Heuristics

$$$$

     RDKit          3D

 19 17  0  0  0  0  0  0  0  0999 V2000
    1.1443    0.2303    2.6143 C   0  0  0  0  0  0  0  0  0  0  0  0
    0.5973    0.2751    1.5515 C   0  0  0  0  0  0  0  0  0  0  0  0
   -0.1028    0.3068    0.2626 C   0  0  0  0  0  3  0  0  0  0  0  0
   -1.6159    0.0953    0.4450 C   0  0  0  0  0  0  0  0  0  0  0  0
    0.1762    1.5502   -0.4642 C   0  0  0  0  0  0  0  0  0  0  0  0
    0.3744    2.5617   -1.0712 C   0  0  0  0  0  0  0  0  0  0  0  0
    1.6306    0.1905    3.5592 H   0  0  0  0  0  0  0  0  0  0  0  0
   -1.7990   -0.8518    0.9514 H   0  0  0  0  0  0  0  0  0  0  0  0
   -2.0393    0.9011    1.0432 H   0  0  0  0  0  0  0  0  0  0  0  0
   -2.1079    0.0835   -0.5270 H   0  0  0  0  0  0  0  0  0  0  0  0
    0.5506    3.4610   -1.6108 H   0  0  0  0  0  0  0  0  0  0  0  0
   -0.1028   -2.1384   -2.2118 C   0  0  0  0  0  0  0  0  0  0  0  0
   -0.1028   -2.1384   -0.6890 C   0  0  0  0  0  0  0  0  0  0  0  0
   -0.9836   -1.6298   -2.6076 H   0  0  0  0  0  0  0  0  0  0  0  0
    0.7781   -1.6298   -2.6076 H   0  0  0  0  0  0  0  0  0  0  0  0
   -0.1028   -3.1555   -2.6076 H   0  0  0  0  0  0  0  0  0  0  0  0
   -0.1028   -0.9178   -0.2140 H   0  0  0  0  0  0  0  0  0  0  0  0
    0.7781   -2.6469   -0.2931 H   0  0  0  0  0  0  0  0  0  0  0  0
   -0.9836   -2.6469   -0.2931 H   0  0  0  0  0  0  0  0  0  0  0  0
  1  2  3  0
  1  7  1  0
  2  3  1  0
  3  4  1  0
  3  5  1  0
  4  8  1  0
  4  9  1  0
  4 10  1  0
  5  6  3  0
  6 11  1  0
 12 13  1  0
 12 14  1  0
 12 15  1  0
 12 16  1  0
 13 17  1  0
 13 18  1  0
 13 19  1  0
M  RAD  1   3   2
M  END
>  <reaction>  (15) 
rxn_879

>  <mol_properties>  (15) 
{"1": {"label": "*0", "atom_type": "Ct"}, "2": {"label": "*1", "atom_type": "Cs"}, "11": {"label": "*4", "atom_type": "Cs"}, "12": {"label": "*3", "atom_type": "Cs"}, "16": {"label": "*2", "atom_type": "H0"}}

>  <type>  (15) 
unop_11

>  <geom_source>  (15) 
Heuristics

$$$$

     RDKit          3D

 19 17  0  0  0  0  0  0  0  0999 V2000
    0.2528    1.9581   -1.6140 C   0  0  0  0  0  0  0  0  0  0  0  0
    0.2201    1.2108   -0.6806 C   0  0  0  0  0  0  0  0  0  0  0  0
    0.2201    0.2949    0.4655 C   0  0  0  0  0  3  0  0  0  0  0  0
    1.4847    0.4755    1.3233 C   0  0  0  0  0  0  0  0  0  0  0  0
   -0.9956    0.4510    1.2717 C   0  0  0  0  0  0  0  0  0  0  0  0
   -1.9700    0.5689    1.9554 C   0  0  0  0  0  0  0  0  0  0  0  0
    0.2818    2.6225   -2.4439 H   0  0  0  0  0  0  0  0  0  0  0  0
    2.3725    0.3162    0.7121 H   0  0  0  0  0  0  0  0  0  0  0  0
    1.5187    1.4827    1.7364 H   0  0  0  0  0  0  0  0  0  0  0  0
    1.4808   -0.2410    2.1440 H   0  0  0  0  0  0  0  0  0  0  0  0
   -2.8363    0.6738    2.5633 H   0  0  0  0  0  0  0  0  0  0  0  0
    0.2201   -2.1503   -2.0089 C   0  0  0  0  0  0  0  0  0  0  0  0
    0.2201   -2.1503   -0.4861 C   0  0  0  0  0  0  0  0  0  0  0  0
   -0.6607   -1.6417   -2.4048 H   0  0  0  0  0  0  0  0  0  0  0  0
    1.1010   -1.6417   -2.4048 H   0  0  0  0  0  0  0  0  0  0  0  0
    0.2201   -3.1674   -2.4048 H   0  0  0  0  0  0  0  0  0  0  0  0
    0.2201   -0.9297   -0.0111 H   0  0  0  0  0  0  0  0  0  0  0  0
    1.1010   -2.6588   -0.0903 H   0  0  0  0  0  0  0  0  0  0  0  0
   -0.6607   -2.6588   -0.0903 H   0  0  0  0  0  0  0  0  0  0  0  0
  1  2  3  0
  1  7  1  0
  2  3  1  0
  3  4  1  0
  3  5  1  0
  4  8  1  0
  4  9  1  0
  4 10  1  0
  5  6  3  0
  6 11  1  0
 12 13  1  0
 12 14  1  0
 12 15  1  0
 12 16  1  0
 13 17  1  0
 13 18  1  0
 13 19  1  0
M  RAD  1   3   2
M  END
>  <reaction>  (16) 
rxn_879

>  <mol_properties>  (16) 
{"1": {"label": "*0", "atom_type": "Ct"}, "2": {"label": "*1", "atom_type": "Cs"}, "11": {"label": "*4", "atom_type": "Cs"}, "12": {"label": "*3", "atom_type": "Cs"}, "16": {"label": "*2", "atom_type": "H0"}}

>  <type>  (16) 
unop_12

>  <geom_source>  (16) 
Heuristics

$$$$

     RDKit          3D

 19 17  0  0  0  0  0  0  0  0999 V2000
   -0.8549    0.1540   -0.2283 C   0  0  0  0  0  3  0  0  0  0  0  0
   -1.3828   -0.4629   -1.5214 C   0  0  0  0  0  0  0  0  0  0  0  0
    2.4189   -0.8713    0.9859 C   0  0  0  0  0  0  0  0  0  0  0  0
    1.6910   -0.2659   -0.1999 C   0  0  0  0  0  0  0  0  0  0  0  0
   -0.8171    1.6175   -0.3377 C   0  0  0  0  0  0  0  0  0  0  0  0
   -1.7060   -0.2275    0.9054 C   0  0  0  0  0  0  0  0  0  0  0  0
   -0.7843    2.8195   -0.4283 C   0  0  0  0  0  0  0  0  0  0  0  0
   -2.4040   -0.5425    1.8369 C   0  0  0  0  0  0  0  0  0  0  0  0
    0.4273   -0.3092    0.0009 H   0  0  0  0  0  0  0  0  0  0  0  0
   -0.7226   -0.1855   -2.3709 H   0  0  0  0  0  0  0  0  0  0  0  0
   -2.4155   -0.1107   -1.7370 H   0  0  0  0  0  0  0  0  0  0  0  0
   -1.3899   -1.5707   -1.4376 H   0  0  0  0  0  0  0  0  0  0  0  0
    2.1069   -1.9287    1.1136 H   0  0  0  0  0  0  0  0  0  0  0  0
    3.5158   -0.8295    0.8183 H   0  0  0  0  0  0  0  0  0  0  0  0
    2.1663   -0.3047    1.9063 H   0  0  0  0  0  0  0  0  0  0  0  0
    1.9318   -0.8329   -1.1237 H   0  0  0  0  0  0  0  0  0  0  0  0
    1.9913    0.7953   -0.3290 H   0  0  0  0  0  0  0  0  0  0  0  0
   -0.7557    3.8744   -0.5078 H   0  0  0  0  0  0  0  0  0  0  0  0
   -3.0166   -0.8189    2.6543 H   0  0  0  0  0  0  0  0  0  0  0  0
  1  2  1  0
  1  5  1  0
  1  6  1  0
  2 10  1  0
  2 11  1  0
  2 12  1  0
  3  4  1  0
  3 13  1  0
  3 14  1  0
  3 15  1  0
  4  9  1  0
  4 16  1  0
  4 17  1  0
  5  7  3  0
  6  8  3  0
  7 18  1  0
  8 19  1  0
M  RAD  1   1   2
M  END
>  <reaction>  (17) 
rxn_879

>  <mol_properties>  (17) 
{"1": {"label": "*0", "atom_type": "Ct"}, "2": {"label": "*1", "atom_type": "Cs"}, "11": {"label": "*4", "atom_type": "Cs"}, "12": {"label": "*3", "atom_type": "Cs"}, "16": {"label": "*2", "atom_type": "H0"}}

>  <type>  (17) 
unop_13

>  <geom_source>  (17) 
AutoTST

$$$$
