
     RDKit          3D

 18 18  0  0  0  0  0  0  0  0999 V2000
   -2.4852    0.3210   -0.3966 C   0  0  0  0  0  0  0  0  0  0  0  0
   -1.5917   -0.2708    0.6941 C   0  0  0  0  0  0  0  0  0  0  0  0
   -0.1292   -0.1692    0.3493 C   0  0  0  0  0  0  0  0  0  0  0  0
    0.6099    0.9558    0.7015 C   0  0  0  0  0  0  0  0  0  0  0  0
    1.9447    1.0728    0.3458 C   0  0  0  0  0  0  0  0  0  0  0  0
    2.5646    0.0613   -0.3720 C   0  0  0  0  0  0  0  0  0  0  0  0
    1.8399   -1.0657   -0.7287 C   0  0  0  0  0  0  0  0  0  0  0  0
    0.5055   -1.1769   -0.3700 C   0  0  0  0  0  0  0  0  0  0  0  0
   -2.3325   -0.1971   -1.3452 H   0  0  0  0  0  0  0  0  0  0  0  0
   -2.2554    1.3763   -0.5546 H   0  0  0  0  0  0  0  0  0  0  0  0
   -3.5397    0.2376   -0.1280 H   0  0  0  0  0  0  0  0  0  0  0  0
   -1.7801    0.2462    1.6380 H   0  0  0  0  0  0  0  0  0  0  0  0
   -1.8568   -1.3190    0.8516 H   0  0  0  0  0  0  0  0  0  0  0  0
    0.1327    1.7497    1.2656 H   0  0  0  0  0  0  0  0  0  0  0  0
    2.5033    1.9550    0.6330 H   0  0  0  0  0  0  0  0  0  0  0  0
    3.6077    0.1491   -0.6484 H   0  0  0  0  0  0  0  0  0  0  0  0
    2.3163   -1.8632   -1.2854 H   0  0  0  0  0  0  0  0  0  0  0  0
   -0.0540   -2.0629   -0.6500 H   0  0  0  0  0  0  0  0  0  0  0  0
  1  2  1  0
  1  9  1  0
  1 10  1  0
  1 11  1  0
  2  3  1  0
  2 12  1  0
  2 13  1  0
  3  4  2  0
  3  8  1  0
  4  5  1  0
  4 14  1  0
  5  6  2  0
  5 15  1  0
  6  7  1  0
  6 16  1  0
  7  8  2  0
  7 17  1  0
  8 18  1  0
M  END
>  <reaction>  (1) 
rxn_1478

>  <mol_properties>  (1) 
{"1": {"label": "donator", "atom_type": "Cs"}, "11": {"label": "d_hydrogen", "atom_type": "H0"}}

>  <type>  (1) 
r1h

$$$$

     RDKit          3D

  4  3  0  0  0  0  0  0  0  0999 V2000
    0.0000    0.0000    0.0000 C   0  0  0  0  0  3  0  0  0  0  0  0
    1.0638   -0.1747    0.0540 H   0  0  0  0  0  0  0  0  0  0  0  0
   -0.6833   -0.8351   -0.0280 H   0  0  0  0  0  0  0  0  0  0  0  0
   -0.3805    1.0098   -0.0260 H   0  0  0  0  0  0  0  0  0  0  0  0
  1  2  1  0
  1  3  1  0
  1  4  1  0
M  RAD  1   1   2
M  END
>  <reaction>  (2) 
rxn_1478

>  <mol_properties>  (2) 
{"0": {"label": "acceptor", "atom_type": "Cs"}}

>  <type>  (2) 
r2

$$$$

     RDKit          3D

  5  4  0  0  0  0  0  0  0  0999 V2000
    0.0000    0.0000    0.0000 C   0  0  0  0  0  0  0  0  0  0  0  0
   -0.6486   -0.7720   -0.4113 H   0  0  0  0  0  0  0  0  0  0  0  0
   -0.3482    0.9787   -0.3267 H   0  0  0  0  0  0  0  0  0  0  0  0
   -0.0223   -0.0487    1.0876 H   0  0  0  0  0  0  0  0  0  0  0  0
    1.0191   -0.1580   -0.3496 H   0  0  0  0  0  0  0  0  0  0  0  0
  1  2  1  0
  1  3  1  0
  1  4  1  0
  1  5  1  0
M  END
>  <reaction>  (3) 
rxn_1478

>  <mol_properties>  (3) 
{"0": {"label": "acceptor", "atom_type": "Cs"}, "4": {"label": "a_hydrogen", "atom_type": "H0"}}

>  <type>  (3) 
r2h

$$$$

     RDKit          3D

 22 21  0  0  0  0  0  0  0  0999 V2000
   -1.1565   -3.0121    0.7132 C   0  0  0  0  0  3  0  0  0  0  0  0
   -0.9500   -4.0168    0.3601 H   0  0  0  0  0  0  0  0  0  0  0  0
   -2.1682   -2.6632    0.5353 H   0  0  0  0  0  0  0  0  0  0  0  0
   -0.7623   -2.7797    1.6966 H   0  0  0  0  0  0  0  0  0  0  0  0
   -0.4259   -1.5381   -2.2668 C   0  0  0  0  0  0  0  0  0  0  0  0
    0.2633   -1.3888   -0.9300 C   0  0  0  0  0  0  0  0  0  0  0  0
    0.2655   -0.0579   -0.2768 C   0  0  0  0  0  0  0  0  0  0  0  0
   -0.6721    0.9286   -0.5823 C   0  0  0  0  0  0  0  0  0  0  0  0
   -0.6725    2.1437    0.0858 C   0  0  0  0  0  0  0  0  0  0  0  0
    0.2614    2.3998    1.0771 C   0  0  0  0  0  0  0  0  0  0  0  0
    1.2006    1.4278    1.3937 C   0  0  0  0  0  0  0  0  0  0  0  0
    1.2002    0.2170    0.7247 C   0  0  0  0  0  0  0  0  0  0  0  0
   -0.0016   -0.8621   -3.0141 H   0  0  0  0  0  0  0  0  0  0  0  0
   -1.4947   -1.3269   -2.1958 H   0  0  0  0  0  0  0  0  0  0  0  0
   -0.3200   -2.5588   -2.6360 H   0  0  0  0  0  0  0  0  0  0  0  0
   -0.3626   -2.1503   -0.1510 H   0  0  0  0  0  0  0  0  0  0  0  0
    1.2596   -1.8328   -0.9269 H   0  0  0  0  0  0  0  0  0  0  0  0
   -1.4087    0.7528   -1.3557 H   0  0  0  0  0  0  0  0  0  0  0  0
   -1.4079    2.8957   -0.1724 H   0  0  0  0  0  0  0  0  0  0  0  0
    0.2607    3.3493    1.5970 H   0  0  0  0  0  0  0  0  0  0  0  0
    1.9384    1.6167    2.1637 H   0  0  0  0  0  0  0  0  0  0  0  0
    1.9390   -0.5358    0.9768 H   0  0  0  0  0  0  0  0  0  0  0  0
  1  2  1  0
  1  3  1  0
  1  4  1  0
  5  6  1  0
  5 13  1  0
  5 14  1  0
  5 15  1  0
  6  7  1  0
  6 16  1  0
  6 17  1  0
  7  8  2  0
  7 12  1  0
  8  9  1  0
  8 18  1  0
  9 10  2  0
  9 19  1  0
 10 11  1  0
 10 20  1  0
 11 12  2  0
 11 21  1  0
 12 22  1  0
M  RAD  1   1   2
M  END
>  <reaction>  (4) 
rxn_1478

>  <mol_properties>  (4) 
{"0": {"label": "*3", "atom_type": "Cs"}, "1": {"label": "*4", "atom_type": "H0"}, "5": {"label": "*1", "atom_type": "Cs"}, "6": {"label": "*0", "atom_type": "Cd"}, "15": {"label": "*2", "atom_type": "H0"}}

>  <type>  (4) 
ts

$$$$

     RDKit          3D

 22 21  0  0  0  0  0  0  0  0999 V2000
   -1.8331   -2.8691    0.2671 C   0  0  0  0  0  0  0  0  0  0  0  0
   -1.5119   -3.7158    0.8719 H   0  0  0  0  0  0  0  0  0  0  0  0
   -2.8500   -3.0387   -0.0838 H   0  0  0  0  0  0  0  0  0  0  0  0
   -1.7658   -2.0762    1.0104 H   0  0  0  0  0  0  0  0  0  0  0  0
    0.2673   -1.5713   -2.1321 C   0  0  0  0  0  0  0  0  0  0  0  0
    0.2673   -1.5713   -0.6030 C   0  0  0  0  0  0  0  0  0  0  0  0
    0.2673   -0.1770   -0.0336 C   0  0  0  0  0  0  0  0  0  0  0  0
   -0.9273    0.4919    0.2142 C   0  0  0  0  0  3  0  0  0  0  0  0
   -0.9305    1.7922    0.6951 C   0  0  0  0  0  0  0  0  0  0  0  0
    0.2673    2.4475    0.9369 C   0  0  0  0  0  0  0  0  0  0  0  0
    1.4651    1.7922    0.6951 C   0  0  0  0  0  0  0  0  0  0  0  0
    1.4618    0.4919    0.2142 C   0  0  0  0  0  0  0  0  0  0  0  0
    1.1485   -1.0562   -2.5189 H   0  0  0  0  0  0  0  0  0  0  0  0
   -0.6140   -1.0562   -2.5189 H   0  0  0  0  0  0  0  0  0  0  0  0
    0.2673   -2.5897   -2.5244 H   0  0  0  0  0  0  0  0  0  0  0  0
   -0.7847   -2.2213   -0.1672 H   0  0  0  0  0  0  0  0  0  0  0  0
    1.1439   -2.1130   -0.2398 H   0  0  0  0  0  0  0  0  0  0  0  0
   -1.8682   -0.0152    0.0304 H   0  0  0  0  0  0  0  0  0  0  0  0
   -1.8713    2.2939    0.8850 H   0  0  0  0  0  0  0  0  0  0  0  0
    0.2673    3.4619    1.3153 H   0  0  0  0  0  0  0  0  0  0  0  0
    2.4058    2.2939    0.8850 H   0  0  0  0  0  0  0  0  0  0  0  0
    2.4027   -0.0152    0.0304 H   0  0  0  0  0  0  0  0  0  0  0  0
  1  2  1  0
  1  3  1  0
  1  4  1  0
  1 16  1  0
  5  6  1  0
  5 13  1  0
  5 14  1  0
  5 15  1  0
  6  7  2  3
  6 17  1  0
  7  8  1  0
  7 12  1  0
  8  9  1  0
  8 18  1  0
  9 10  2  0
  9 19  1  0
 10 11  1  0
 10 20  1  0
 11 12  2  0
 11 21  1  0
 12 22  1  0
M  RAD  1   8   2
M  END
>  <reaction>  (5) 
rxn_1478

>  <mol_properties>  (5) 
{"0": {"label": "*3", "atom_type": "Cs"}, "1": {"label": "*4", "atom_type": "H0"}, "5": {"label": "*1", "atom_type": "Cs"}, "6": {"label": "*0", "atom_type": "Cd"}, "15": {"label": "*2", "atom_type": "H0"}}

>  <type>  (5) 
unop_1

>  <geom_source>  (5) 
Heuristics

$$$$

     RDKit          3D

 22 21  0  0  0  0  0  0  0  0999 V2000
   -1.8343   -2.8694    0.2713 C   0  0  0  0  0  0  0  0  0  0  0  0
   -2.1071   -3.6414   -0.4466 H   0  0  0  0  0  0  0  0  0  0  0  0
   -2.7351   -2.3784    0.6361 H   0  0  0  0  0  0  0  0  0  0  0  0
   -1.1529   -2.7765    1.1156 H   0  0  0  0  0  0  0  0  0  0  0  0
    0.2661   -1.5716   -2.1279 C   0  0  0  0  0  0  0  0  0  0  0  0
    0.2661   -1.5716   -0.5988 C   0  0  0  0  0  0  0  0  0  0  0  0
    0.2661   -0.1773   -0.0293 C   0  0  0  0  0  0  0  0  0  0  0  0
   -0.9284    0.4917    0.2184 C   0  0  0  0  0  3  0  0  0  0  0  0
   -0.9317    1.7919    0.6993 C   0  0  0  0  0  0  0  0  0  0  0  0
    0.2661    2.4472    0.9411 C   0  0  0  0  0  0  0  0  0  0  0  0
    1.4639    1.7919    0.6993 C   0  0  0  0  0  0  0  0  0  0  0  0
    1.4606    0.4917    0.2184 C   0  0  0  0  0  0  0  0  0  0  0  0
    1.1474   -1.0565   -2.5147 H   0  0  0  0  0  0  0  0  0  0  0  0
   -0.6152   -1.0565   -2.5147 H   0  0  0  0  0  0  0  0  0  0  0  0
    0.2661   -2.5900   -2.5202 H   0  0  0  0  0  0  0  0  0  0  0  0
   -0.7858   -2.2216   -0.1630 H   0  0  0  0  0  0  0  0  0  0  0  0
    1.1428   -2.1132   -0.2356 H   0  0  0  0  0  0  0  0  0  0  0  0
   -1.8693   -0.0155    0.0347 H   0  0  0  0  0  0  0  0  0  0  0  0
   -1.8725    2.2936    0.8892 H   0  0  0  0  0  0  0  0  0  0  0  0
    0.2661    3.4616    1.3195 H   0  0  0  0  0  0  0  0  0  0  0  0
    2.4047    2.2936    0.8892 H   0  0  0  0  0  0  0  0  0  0  0  0
    2.4015   -0.0155    0.0346 H   0  0  0  0  0  0  0  0  0  0  0  0
  1  2  1  0
  1  3  1  0
  1  4  1  0
  1 16  1  0
  5  6  1  0
  5 13  1  0
  5 14  1  0
  5 15  1  0
  6  7  2  3
  6 17  1  0
  7  8  1  0
  7 12  1  0
  8  9  1  0
  8 18  1  0
  9 10  2  0
  9 19  1  0
 10 11  1  0
 10 20  1  0
 11 12  2  0
 11 21  1  0
 12 22  1  0
M  RAD  1   8   2
M  END
>  <reaction>  (6) 
rxn_1478

>  <mol_properties>  (6) 
{"0": {"label": "*3", "atom_type": "Cs"}, "1": {"label": "*4", "atom_type": "H0"}, "5": {"label": "*1", "atom_type": "Cs"}, "6": {"label": "*0", "atom_type": "Cd"}, "15": {"label": "*2", "atom_type": "H0"}}

>  <type>  (6) 
unop_2

>  <geom_source>  (6) 
Heuristics

$$$$

     RDKit          3D

 22 21  0  0  0  0  0  0  0  0999 V2000
   -1.8310   -2.8692    0.2676 C   0  0  0  0  0  0  0  0  0  0  0  0
   -1.6011   -3.3305    1.2269 H   0  0  0  0  0  0  0  0  0  0  0  0
   -2.5419   -3.4919   -0.2734 H   0  0  0  0  0  0  0  0  0  0  0  0
   -2.2303   -1.9950    0.7796 H   0  0  0  0  0  0  0  0  0  0  0  0
    0.2694   -1.5714   -2.1315 C   0  0  0  0  0  0  0  0  0  0  0  0
    0.2694   -1.5714   -0.6024 C   0  0  0  0  0  0  0  0  0  0  0  0
    0.2694   -0.1771   -0.0330 C   0  0  0  0  0  0  0  0  0  0  0  0
   -0.9252    0.4918    0.2147 C   0  0  0  0  0  3  0  0  0  0  0  0
   -0.9285    1.7920    0.6957 C   0  0  0  0  0  0  0  0  0  0  0  0
    0.2694    2.4474    0.9375 C   0  0  0  0  0  0  0  0  0  0  0  0
    1.4672    1.7920    0.6957 C   0  0  0  0  0  0  0  0  0  0  0  0
    1.4639    0.4918    0.2147 C   0  0  0  0  0  0  0  0  0  0  0  0
    1.1506   -1.0563   -2.5183 H   0  0  0  0  0  0  0  0  0  0  0  0
   -0.6119   -1.0563   -2.5183 H   0  0  0  0  0  0  0  0  0  0  0  0
    0.2694   -2.5898   -2.5238 H   0  0  0  0  0  0  0  0  0  0  0  0
   -0.7826   -2.2214   -0.1666 H   0  0  0  0  0  0  0  0  0  0  0  0
    1.1460   -2.1131   -0.2393 H   0  0  0  0  0  0  0  0  0  0  0  0
   -1.8661   -0.0153    0.0310 H   0  0  0  0  0  0  0  0  0  0  0  0
   -1.8692    2.2937    0.8856 H   0  0  0  0  0  0  0  0  0  0  0  0
    0.2693    3.4617    1.3158 H   0  0  0  0  0  0  0  0  0  0  0  0
    2.4079    2.2937    0.8856 H   0  0  0  0  0  0  0  0  0  0  0  0
    2.4048   -0.0153    0.0310 H   0  0  0  0  0  0  0  0  0  0  0  0
  1  2  1  0
  1  3  1  0
  1  4  1  0
  1 16  1  0
  5  6  1  0
  5 13  1  0
  5 14  1  0
  5 15  1  0
  6  7  2  3
  6 17  1  0
  7  8  1  0
  7 12  1  0
  8  9  1  0
  8 18  1  0
  9 10  2  0
  9 19  1  0
 10 11  1  0
 10 20  1  0
 11 12  2  0
 11 21  1  0
 12 22  1  0
M  RAD  1   8   2
M  END
>  <reaction>  (7) 
rxn_1478

>  <mol_properties>  (7) 
{"0": {"label": "*3", "atom_type": "Cs"}, "1": {"label": "*4", "atom_type": "H0"}, "5": {"label": "*1", "atom_type": "Cs"}, "6": {"label": "*0", "atom_type": "Cd"}, "15": {"label": "*2", "atom_type": "H0"}}

>  <type>  (7) 
unop_3

>  <geom_source>  (7) 
Heuristics

$$$$

     RDKit          3D

 22 21  0  0  0  0  0  0  0  0999 V2000
   -1.8345   -2.8699    0.2693 C   0  0  0  0  0  0  0  0  0  0  0  0
   -2.7383   -2.3832   -0.0942 H   0  0  0  0  0  0  0  0  0  0  0  0
   -1.5341   -2.4188    1.2138 H   0  0  0  0  0  0  0  0  0  0  0  0
   -1.6912   -3.9394    0.4152 H   0  0  0  0  0  0  0  0  0  0  0  0
    0.2659   -1.5720   -2.1298 C   0  0  0  0  0  0  0  0  0  0  0  0
    0.2659   -1.5720   -0.6007 C   0  0  0  0  0  0  0  0  0  0  0  0
    0.2659   -0.1778   -0.0313 C   0  0  0  0  0  0  0  0  0  0  0  0
   -0.9287    0.4912    0.2164 C   0  0  0  0  0  3  0  0  0  0  0  0
   -0.9319    1.7914    0.6974 C   0  0  0  0  0  0  0  0  0  0  0  0
    0.2659    2.4468    0.9392 C   0  0  0  0  0  0  0  0  0  0  0  0
    1.4637    1.7914    0.6974 C   0  0  0  0  0  0  0  0  0  0  0  0
    1.4604    0.4912    0.2164 C   0  0  0  0  0  0  0  0  0  0  0  0
    1.1471   -1.0570   -2.5167 H   0  0  0  0  0  0  0  0  0  0  0  0
   -0.6154   -1.0570   -2.5167 H   0  0  0  0  0  0  0  0  0  0  0  0
    0.2659   -2.5905   -2.5221 H   0  0  0  0  0  0  0  0  0  0  0  0
   -0.7861   -2.2220   -0.1650 H   0  0  0  0  0  0  0  0  0  0  0  0
    1.1425   -2.1137   -0.2376 H   0  0  0  0  0  0  0  0  0  0  0  0
   -1.8696   -0.0160    0.0327 H   0  0  0  0  0  0  0  0  0  0  0  0
   -1.8727    2.2931    0.8873 H   0  0  0  0  0  0  0  0  0  0  0  0
    0.2659    3.4611    1.3175 H   0  0  0  0  0  0  0  0  0  0  0  0
    2.4044    2.2931    0.8873 H   0  0  0  0  0  0  0  0  0  0  0  0
    2.4013   -0.0160    0.0327 H   0  0  0  0  0  0  0  0  0  0  0  0
  1  2  1  0
  1  3  1  0
  1  4  1  0
  1 16  1  0
  5  6  1  0
  5 13  1  0
  5 14  1  0
  5 15  1  0
  6  7  2  3
  6 17  1  0
  7  8  1  0
  7 12  1  0
  8  9  1  0
  8 18  1  0
  9 10  2  0
  9 19  1  0
 10 11  1  0
 10 20  1  0
 11 12  2  0
 11 21  1  0
 12 22  1  0
M  RAD  1   8   2
M  END
>  <reaction>  (8) 
rxn_1478

>  <mol_properties>  (8) 
{"0": {"label": "*3", "atom_type": "Cs"}, "1": {"label": "*4", "atom_type": "H0"}, "5": {"label": "*1", "atom_type": "Cs"}, "6": {"label": "*0", "atom_type": "Cd"}, "15": {"label": "*2", "atom_type": "H0"}}

>  <type>  (8) 
unop_4

>  <geom_source>  (8) 
Heuristics

$$$$

     RDKit          3D

 22 21  0  0  0  0  0  0  0  0999 V2000
   -1.8306   -2.8666    0.2688 C   0  0  0  0  0  0  0  0  0  0  0  0
   -1.8315   -2.8672    1.3577 H   0  0  0  0  0  0  0  0  0  0  0  0
   -1.7996   -3.8926   -0.0947 H   0  0  0  0  0  0  0  0  0  0  0  0
   -2.7957   -2.3670    0.3375 H   0  0  0  0  0  0  0  0  0  0  0  0
    0.2698   -1.5687   -2.1304 C   0  0  0  0  0  0  0  0  0  0  0  0
    0.2698   -1.5687   -0.6013 C   0  0  0  0  0  0  0  0  0  0  0  0
    0.2698   -0.1745   -0.0319 C   0  0  0  0  0  0  0  0  0  0  0  0
   -0.9247    0.4945    0.2159 C   0  0  0  0  0  3  0  0  0  0  0  0
   -0.9280    1.7947    0.6968 C   0  0  0  0  0  0  0  0  0  0  0  0
    0.2698    2.4501    0.9386 C   0  0  0  0  0  0  0  0  0  0  0  0
    1.4676    1.7947    0.6968 C   0  0  0  0  0  0  0  0  0  0  0  0
    1.4643    0.4945    0.2159 C   0  0  0  0  0  0  0  0  0  0  0  0
    1.1511   -1.0537   -2.5172 H   0  0  0  0  0  0  0  0  0  0  0  0
   -0.6115   -1.0537   -2.5172 H   0  0  0  0  0  0  0  0  0  0  0  0
    0.2698   -2.5872   -2.5227 H   0  0  0  0  0  0  0  0  0  0  0  0
   -0.7822   -2.2188   -0.1655 H   0  0  0  0  0  0  0  0  0  0  0  0
    1.1464   -2.1104   -0.2381 H   0  0  0  0  0  0  0  0  0  0  0  0
   -1.8656   -0.0127    0.0321 H   0  0  0  0  0  0  0  0  0  0  0  0
   -1.8688    2.2964    0.8867 H   0  0  0  0  0  0  0  0  0  0  0  0
    0.2698    3.4644    1.3170 H   0  0  0  0  0  0  0  0  0  0  0  0
    2.4084    2.2964    0.8867 H   0  0  0  0  0  0  0  0  0  0  0  0
    2.4052   -0.0127    0.0321 H   0  0  0  0  0  0  0  0  0  0  0  0
  1  2  1  0
  1  3  1  0
  1  4  1  0
  1 16  1  0
  5  6  1  0
  5 13  1  0
  5 14  1  0
  5 15  1  0
  6  7  2  3
  6 17  1  0
  7  8  1  0
  7 12  1  0
  8  9  1  0
  8 18  1  0
  9 10  2  0
  9 19  1  0
 10 11  1  0
 10 20  1  0
 11 12  2  0
 11 21  1  0
 12 22  1  0
M  RAD  1   8   2
M  END
>  <reaction>  (9) 
rxn_1478

>  <mol_properties>  (9) 
{"0": {"label": "*3", "atom_type": "Cs"}, "1": {"label": "*4", "atom_type": "H0"}, "5": {"label": "*1", "atom_type": "Cs"}, "6": {"label": "*0", "atom_type": "Cd"}, "15": {"label": "*2", "atom_type": "H0"}}

>  <type>  (9) 
unop_5

>  <geom_source>  (9) 
Heuristics

$$$$

     RDKit          3D

 22 21  0  0  0  0  0  0  0  0999 V2000
   -1.8342   -2.8687    0.2680 C   0  0  0  0  0  0  0  0  0  0  0  0
   -2.6651   -2.1753    0.3887 H   0  0  0  0  0  0  0  0  0  0  0  0
   -1.1766   -2.8012    1.1333 H   0  0  0  0  0  0  0  0  0  0  0  0
   -2.1624   -3.9018    0.1643 H   0  0  0  0  0  0  0  0  0  0  0  0
    0.2662   -1.5709   -2.1311 C   0  0  0  0  0  0  0  0  0  0  0  0
    0.2662   -1.5709   -0.6020 C   0  0  0  0  0  0  0  0  0  0  0  0
    0.2662   -0.1766   -0.0326 C   0  0  0  0  0  0  0  0  0  0  0  0
   -0.9283    0.4924    0.2151 C   0  0  0  0  0  3  0  0  0  0  0  0
   -0.9316    1.7926    0.6961 C   0  0  0  0  0  0  0  0  0  0  0  0
    0.2662    2.4479    0.9379 C   0  0  0  0  0  0  0  0  0  0  0  0
    1.4640    1.7926    0.6961 C   0  0  0  0  0  0  0  0  0  0  0  0
    1.4607    0.4924    0.2151 C   0  0  0  0  0  0  0  0  0  0  0  0
    1.1475   -1.0558   -2.5179 H   0  0  0  0  0  0  0  0  0  0  0  0
   -0.6151   -1.0558   -2.5179 H   0  0  0  0  0  0  0  0  0  0  0  0
    0.2662   -2.5893   -2.5234 H   0  0  0  0  0  0  0  0  0  0  0  0
   -0.7858   -2.2209   -0.1662 H   0  0  0  0  0  0  0  0  0  0  0  0
    1.1428   -2.1125   -0.2389 H   0  0  0  0  0  0  0  0  0  0  0  0
   -1.8692   -0.0148    0.0314 H   0  0  0  0  0  0  0  0  0  0  0  0
   -1.8724    2.2943    0.8860 H   0  0  0  0  0  0  0  0  0  0  0  0
    0.2662    3.4623    1.3162 H   0  0  0  0  0  0  0  0  0  0  0  0
    2.4048    2.2943    0.8860 H   0  0  0  0  0  0  0  0  0  0  0  0
    2.4016   -0.0148    0.0314 H   0  0  0  0  0  0  0  0  0  0  0  0
  1  2  1  0
  1  3  1  0
  1  4  1  0
  1 16  1  0
  5  6  1  0
  5 13  1  0
  5 14  1  0
  5 15  1  0
  6  7  2  3
  6 17  1  0
  7  8  1  0
  7 12  1  0
  8  9  1  0
  8 18  1  0
  9 10  2  0
  9 19  1  0
 10 11  1  0
 10 20  1  0
 11 12  2  0
 11 21  1  0
 12 22  1  0
M  RAD  1   8   2
M  END
>  <reaction>  (10) 
rxn_1478

>  <mol_properties>  (10) 
{"0": {"label": "*3", "atom_type": "Cs"}, "1": {"label": "*4", "atom_type": "H0"}, "5": {"label": "*1", "atom_type": "Cs"}, "6": {"label": "*0", "atom_type": "Cd"}, "15": {"label": "*2", "atom_type": "H0"}}

>  <type>  (10) 
unop_6

>  <geom_source>  (10) 
Heuristics

$$$$

     RDKit          3D

 22 21  0  0  0  0  0  0  0  0999 V2000
   -1.8340   -2.8670    0.2673 C   0  0  0  0  0  0  0  0  0  0  0  0
   -2.4474   -2.2009    0.8721 H   0  0  0  0  0  0  0  0  0  0  0  0
   -1.0089   -3.2462    0.8684 H   0  0  0  0  0  0  0  0  0  0  0  0
   -2.5727   -3.6305    0.0281 H   0  0  0  0  0  0  0  0  0  0  0  0
    0.2664   -1.5692   -2.1318 C   0  0  0  0  0  0  0  0  0  0  0  0
    0.2664   -1.5692   -0.6027 C   0  0  0  0  0  0  0  0  0  0  0  0
    0.2664   -0.1749   -0.0333 C   0  0  0  0  0  0  0  0  0  0  0  0
   -0.9281    0.4941    0.2144 C   0  0  0  0  0  3  0  0  0  0  0  0
   -0.9314    1.7943    0.6954 C   0  0  0  0  0  0  0  0  0  0  0  0
    0.2664    2.4496    0.9372 C   0  0  0  0  0  0  0  0  0  0  0  0
    1.4642    1.7943    0.6954 C   0  0  0  0  0  0  0  0  0  0  0  0
    1.4609    0.4941    0.2144 C   0  0  0  0  0  0  0  0  0  0  0  0
    1.1477   -1.0541   -2.5186 H   0  0  0  0  0  0  0  0  0  0  0  0
   -0.6149   -1.0541   -2.5186 H   0  0  0  0  0  0  0  0  0  0  0  0
    0.2664   -2.5876   -2.5241 H   0  0  0  0  0  0  0  0  0  0  0  0
   -0.7855   -2.2192   -0.1670 H   0  0  0  0  0  0  0  0  0  0  0  0
    1.1430   -2.1108   -0.2396 H   0  0  0  0  0  0  0  0  0  0  0  0
   -1.8690   -0.0131    0.0307 H   0  0  0  0  0  0  0  0  0  0  0  0
   -1.8722    2.2960    0.8853 H   0  0  0  0  0  0  0  0  0  0  0  0
    0.2664    3.4640    1.3155 H   0  0  0  0  0  0  0  0  0  0  0  0
    2.4050    2.2960    0.8853 H   0  0  0  0  0  0  0  0  0  0  0  0
    2.4018   -0.0131    0.0307 H   0  0  0  0  0  0  0  0  0  0  0  0
  1  2  1  0
  1  3  1  0
  1  4  1  0
  1 16  1  0
  5  6  1  0
  5 13  1  0
  5 14  1  0
  5 15  1  0
  6  7  2  3
  6 17  1  0
  7  8  1  0
  7 12  1  0
  8  9  1  0
  8 18  1  0
  9 10  2  0
  9 19  1  0
 10 11  1  0
 10 20  1  0
 11 12  2  0
 11 21  1  0
 12 22  1  0
M  RAD  1   8   2
M  END
>  <reaction>  (11) 
rxn_1478

>  <mol_properties>  (11) 
{"0": {"label": "*3", "atom_type": "Cs"}, "1": {"label": "*4", "atom_type": "H0"}, "5": {"label": "*1", "atom_type": "Cs"}, "6": {"label": "*0", "atom_type": "Cd"}, "15": {"label": "*2", "atom_type": "H0"}}

>  <type>  (11) 
unop_7

>  <geom_source>  (11) 
Heuristics

$$$$

     RDKit          3D

 22 21  0  0  0  0  0  0  0  0999 V2000
   -1.8343   -2.8682    0.2682 C   0  0  0  0  0  0  0  0  0  0  0  0
   -1.5859   -3.9215    0.3888 H   0  0  0  0  0  0  0  0  0  0  0  0
   -2.9142   -2.7575    0.1825 H   0  0  0  0  0  0  0  0  0  0  0  0
   -1.4904   -2.2585    1.1023 H   0  0  0  0  0  0  0  0  0  0  0  0
    0.2661   -1.5704   -2.1310 C   0  0  0  0  0  0  0  0  0  0  0  0
    0.2661   -1.5704   -0.6019 C   0  0  0  0  0  0  0  0  0  0  0  0
    0.2661   -0.1761   -0.0325 C   0  0  0  0  0  0  0  0  0  0  0  0
   -0.9284    0.4929    0.2153 C   0  0  0  0  0  3  0  0  0  0  0  0
   -0.9317    1.7931    0.6962 C   0  0  0  0  0  0  0  0  0  0  0  0
    0.2661    2.4484    0.9380 C   0  0  0  0  0  0  0  0  0  0  0  0
    1.4639    1.7931    0.6962 C   0  0  0  0  0  0  0  0  0  0  0  0
    1.4606    0.4929    0.2153 C   0  0  0  0  0  0  0  0  0  0  0  0
    1.1474   -1.0553   -2.5178 H   0  0  0  0  0  0  0  0  0  0  0  0
   -0.6152   -1.0553   -2.5178 H   0  0  0  0  0  0  0  0  0  0  0  0
    0.2661   -2.5888   -2.5233 H   0  0  0  0  0  0  0  0  0  0  0  0
   -0.7859   -2.2204   -0.1661 H   0  0  0  0  0  0  0  0  0  0  0  0
    1.1427   -2.1120   -0.2388 H   0  0  0  0  0  0  0  0  0  0  0  0
   -1.8693   -0.0143    0.0315 H   0  0  0  0  0  0  0  0  0  0  0  0
   -1.8725    2.2948    0.8861 H   0  0  0  0  0  0  0  0  0  0  0  0
    0.2661    3.4628    1.3163 H   0  0  0  0  0  0  0  0  0  0  0  0
    2.4047    2.2948    0.8861 H   0  0  0  0  0  0  0  0  0  0  0  0
    2.4015   -0.0143    0.0315 H   0  0  0  0  0  0  0  0  0  0  0  0
  1  2  1  0
  1  3  1  0
  1  4  1  0
  1 16  1  0
  5  6  1  0
  5 13  1  0
  5 14  1  0
  5 15  1  0
  6  7  2  3
  6 17  1  0
  7  8  1  0
  7 12  1  0
  8  9  1  0
  8 18  1  0
  9 10  2  0
  9 19  1  0
 10 11  1  0
 10 20  1  0
 11 12  2  0
 11 21  1  0
 12 22  1  0
M  RAD  1   8   2
M  END
>  <reaction>  (12) 
rxn_1478

>  <mol_properties>  (12) 
{"0": {"label": "*3", "atom_type": "Cs"}, "1": {"label": "*4", "atom_type": "H0"}, "5": {"label": "*1", "atom_type": "Cs"}, "6": {"label": "*0", "atom_type": "Cd"}, "15": {"label": "*2", "atom_type": "H0"}}

>  <type>  (12) 
unop_8

>  <geom_source>  (12) 
Heuristics

$$$$

     RDKit          3D

 22 21  0  0  0  0  0  0  0  0999 V2000
   -1.8348   -2.8707    0.2706 C   0  0  0  0  0  0  0  0  0  0  0  0
   -2.6473   -2.7693   -0.4474 H   0  0  0  0  0  0  0  0  0  0  0  0
   -2.0027   -2.1936    1.1067 H   0  0  0  0  0  0  0  0  0  0  0  0
   -1.2810   -3.6871    0.7316 H   0  0  0  0  0  0  0  0  0  0  0  0
    0.2656   -1.5728   -2.1286 C   0  0  0  0  0  0  0  0  0  0  0  0
    0.2656   -1.5728   -0.5995 C   0  0  0  0  0  0  0  0  0  0  0  0
    0.2656   -0.1785   -0.0301 C   0  0  0  0  0  0  0  0  0  0  0  0
   -0.9289    0.4904    0.2177 C   0  0  0  0  0  3  0  0  0  0  0  0
   -0.9322    1.7906    0.6986 C   0  0  0  0  0  0  0  0  0  0  0  0
    0.2656    2.4460    0.9404 C   0  0  0  0  0  0  0  0  0  0  0  0
    1.4634    1.7906    0.6986 C   0  0  0  0  0  0  0  0  0  0  0  0
    1.4601    0.4904    0.2177 C   0  0  0  0  0  0  0  0  0  0  0  0
    1.1469   -1.0578   -2.5154 H   0  0  0  0  0  0  0  0  0  0  0  0
   -0.6157   -1.0578   -2.5154 H   0  0  0  0  0  0  0  0  0  0  0  0
    0.2656   -2.5912   -2.5209 H   0  0  0  0  0  0  0  0  0  0  0  0
   -0.7864   -2.2228   -0.1637 H   0  0  0  0  0  0  0  0  0  0  0  0
    1.1422   -2.1145   -0.2364 H   0  0  0  0  0  0  0  0  0  0  0  0
   -1.8698   -0.0168    0.0339 H   0  0  0  0  0  0  0  0  0  0  0  0
   -1.8730    2.2923    0.8885 H   0  0  0  0  0  0  0  0  0  0  0  0
    0.2656    3.4603    1.3188 H   0  0  0  0  0  0  0  0  0  0  0  0
    2.4042    2.2923    0.8885 H   0  0  0  0  0  0  0  0  0  0  0  0
    2.4010   -0.0168    0.0339 H   0  0  0  0  0  0  0  0  0  0  0  0
  1  2  1  0
  1  3  1  0
  1  4  1  0
  1 16  1  0
  5  6  1  0
  5 13  1  0
  5 14  1  0
  5 15  1  0
  6  7  2  3
  6 17  1  0
  7  8  1  0
  7 12  1  0
  8  9  1  0
  8 18  1  0
  9 10  2  0
  9 19  1  0
 10 11  1  0
 10 20  1  0
 11 12  2  0
 11 21  1  0
 12 22  1  0
M  RAD  1   8   2
M  END
>  <reaction>  (13) 
rxn_1478

>  <mol_properties>  (13) 
{"0": {"label": "*3", "atom_type": "Cs"}, "1": {"label": "*4", "atom_type": "H0"}, "5": {"label": "*1", "atom_type": "Cs"}, "6": {"label": "*0", "atom_type": "Cd"}, "15": {"label": "*2", "atom_type": "H0"}}

>  <type>  (13) 
unop_9

>  <geom_source>  (13) 
Heuristics

$$$$

     RDKit          3D

 22 21  0  0  0  0  0  0  0  0999 V2000
   -1.8344   -2.8682    0.2700 C   0  0  0  0  0  0  0  0  0  0  0  0
   -1.8034   -3.8942   -0.0935 H   0  0  0  0  0  0  0  0  0  0  0  0
   -2.8702   -2.5674    0.4200 H   0  0  0  0  0  0  0  0  0  0  0  0
   -1.3032   -2.4732    1.1346 H   0  0  0  0  0  0  0  0  0  0  0  0
    0.2660   -1.5704   -2.1292 C   0  0  0  0  0  0  0  0  0  0  0  0
    0.2660   -1.5704   -0.6001 C   0  0  0  0  0  0  0  0  0  0  0  0
    0.2660   -0.1761   -0.0307 C   0  0  0  0  0  0  0  0  0  0  0  0
   -0.9286    0.4928    0.2171 C   0  0  0  0  0  3  0  0  0  0  0  0
   -0.9318    1.7931    0.6980 C   0  0  0  0  0  0  0  0  0  0  0  0
    0.2660    2.4484    0.9398 C   0  0  0  0  0  0  0  0  0  0  0  0
    1.4638    1.7931    0.6980 C   0  0  0  0  0  0  0  0  0  0  0  0
    1.4605    0.4928    0.2171 C   0  0  0  0  0  0  0  0  0  0  0  0
    1.1473   -1.0553   -2.5160 H   0  0  0  0  0  0  0  0  0  0  0  0
   -0.6153   -1.0553   -2.5160 H   0  0  0  0  0  0  0  0  0  0  0  0
    0.2660   -2.5888   -2.5215 H   0  0  0  0  0  0  0  0  0  0  0  0
   -0.7860   -2.2204   -0.1643 H   0  0  0  0  0  0  0  0  0  0  0  0
    1.1426   -2.1121   -0.2370 H   0  0  0  0  0  0  0  0  0  0  0  0
   -1.8694   -0.0143    0.0333 H   0  0  0  0  0  0  0  0  0  0  0  0
   -1.8726    2.2948    0.8879 H   0  0  0  0  0  0  0  0  0  0  0  0
    0.2660    3.4627    1.3182 H   0  0  0  0  0  0  0  0  0  0  0  0
    2.4046    2.2948    0.8879 H   0  0  0  0  0  0  0  0  0  0  0  0
    2.4014   -0.0143    0.0333 H   0  0  0  0  0  0  0  0  0  0  0  0
  1  2  1  0
  1  3  1  0
  1  4  1  0
  1 16  1  0
  5  6  1  0
  5 13  1  0
  5 14  1  0
  5 15  1  0
  6  7  2  3
  6 17  1  0
  7  8  1  0
  7 12  1  0
  8  9  1  0
  8 18  1  0
  9 10  2  0
  9 19  1  0
 10 11  1  0
 10 20  1  0
 11 12  2  0
 11 21  1  0
 12 22  1  0
M  RAD  1   8   2
M  END
>  <reaction>  (14) 
rxn_1478

>  <mol_properties>  (14) 
{"0": {"label": "*3", "atom_type": "Cs"}, "1": {"label": "*4", "atom_type": "H0"}, "5": {"label": "*1", "atom_type": "Cs"}, "6": {"label": "*0", "atom_type": "Cd"}, "15": {"label": "*2", "atom_type": "H0"}}

>  <type>  (14) 
unop_10

>  <geom_source>  (14) 
Heuristics

$$$$

     RDKit          3D

 22 21  0  0  0  0  0  0  0  0999 V2000
   -1.8329   -2.8654    0.2679 C   0  0  0  0  0  0  0  0  0  0  0  0
   -2.1426   -2.4533    1.2271 H   0  0  0  0  0  0  0  0  0  0  0  0
   -1.1455   -3.6935    0.4336 H   0  0  0  0  0  0  0  0  0  0  0  0
   -2.8667   -3.1201    0.0394 H   0  0  0  0  0  0  0  0  0  0  0  0
    0.2675   -1.5675   -2.1312 C   0  0  0  0  0  0  0  0  0  0  0  0
    0.2675   -1.5675   -0.6021 C   0  0  0  0  0  0  0  0  0  0  0  0
    0.2675   -0.1733   -0.0327 C   0  0  0  0  0  0  0  0  0  0  0  0
   -0.9270    0.4957    0.2150 C   0  0  0  0  0  3  0  0  0  0  0  0
   -0.9303    1.7959    0.6960 C   0  0  0  0  0  0  0  0  0  0  0  0
    0.2675    2.4512    0.9378 C   0  0  0  0  0  0  0  0  0  0  0  0
    1.4653    1.7959    0.6960 C   0  0  0  0  0  0  0  0  0  0  0  0
    1.4620    0.4957    0.2150 C   0  0  0  0  0  0  0  0  0  0  0  0
    1.1488   -1.0525   -2.5181 H   0  0  0  0  0  0  0  0  0  0  0  0
   -0.6138   -1.0525   -2.5181 H   0  0  0  0  0  0  0  0  0  0  0  0
    0.2675   -2.5860   -2.5236 H   0  0  0  0  0  0  0  0  0  0  0  0
   -0.7845   -2.2176   -0.1664 H   0  0  0  0  0  0  0  0  0  0  0  0
    1.1441   -2.1092   -0.2390 H   0  0  0  0  0  0  0  0  0  0  0  0
   -1.8679   -0.0115    0.0313 H   0  0  0  0  0  0  0  0  0  0  0  0
   -1.8711    2.2976    0.8859 H   0  0  0  0  0  0  0  0  0  0  0  0
    0.2675    3.4656    1.3161 H   0  0  0  0  0  0  0  0  0  0  0  0
    2.4061    2.2976    0.8859 H   0  0  0  0  0  0  0  0  0  0  0  0
    2.4029   -0.0115    0.0313 H   0  0  0  0  0  0  0  0  0  0  0  0
  1  2  1  0
  1  3  1  0
  1  4  1  0
  1 16  1  0
  5  6  1  0
  5 13  1  0
  5 14  1  0
  5 15  1  0
  6  7  2  3
  6 17  1  0
  7  8  1  0
  7 12  1  0
  8  9  1  0
  8 18  1  0
  9 10  2  0
  9 19  1  0
 10 11  1  0
 10 20  1  0
 11 12  2  0
 11 21  1  0
 12 22  1  0
M  RAD  1   8   2
M  END
>  <reaction>  (15) 
rxn_1478

>  <mol_properties>  (15) 
{"0": {"label": "*3", "atom_type": "Cs"}, "1": {"label": "*4", "atom_type": "H0"}, "5": {"label": "*1", "atom_type": "Cs"}, "6": {"label": "*0", "atom_type": "Cd"}, "15": {"label": "*2", "atom_type": "H0"}}

>  <type>  (15) 
unop_11

>  <geom_source>  (15) 
Heuristics

$$$$

     RDKit          3D

 22 21  0  0  0  0  0  0  0  0999 V2000
   -1.8345   -2.8706    0.2714 C   0  0  0  0  0  0  0  0  0  0  0  0
   -2.4160   -3.2299   -0.5763 H   0  0  0  0  0  0  0  0  0  0  0  0
   -2.4480   -2.2045    0.8762 H   0  0  0  0  0  0  0  0  0  0  0  0
   -1.0988   -3.2217    0.9934 H   0  0  0  0  0  0  0  0  0  0  0  0
    0.2658   -1.5728   -2.1278 C   0  0  0  0  0  0  0  0  0  0  0  0
    0.2658   -1.5728   -0.5987 C   0  0  0  0  0  0  0  0  0  0  0  0
    0.2658   -0.1785   -0.0292 C   0  0  0  0  0  0  0  0  0  0  0  0
   -0.9287    0.4905    0.2185 C   0  0  0  0  0  3  0  0  0  0  0  0
   -0.9320    1.7907    0.6994 C   0  0  0  0  0  0  0  0  0  0  0  0
    0.2658    2.4460    0.9412 C   0  0  0  0  0  0  0  0  0  0  0  0
    1.4637    1.7907    0.6994 C   0  0  0  0  0  0  0  0  0  0  0  0
    1.4604    0.4905    0.2185 C   0  0  0  0  0  0  0  0  0  0  0  0
    1.1471   -1.0577   -2.5146 H   0  0  0  0  0  0  0  0  0  0  0  0
   -0.6154   -1.0577   -2.5146 H   0  0  0  0  0  0  0  0  0  0  0  0
    0.2658   -2.5912   -2.5201 H   0  0  0  0  0  0  0  0  0  0  0  0
   -0.7861   -2.2228   -0.1629 H   0  0  0  0  0  0  0  0  0  0  0  0
    1.1425   -2.1144   -0.2355 H   0  0  0  0  0  0  0  0  0  0  0  0
   -1.8696   -0.0167    0.0348 H   0  0  0  0  0  0  0  0  0  0  0  0
   -1.8727    2.2924    0.8893 H   0  0  0  0  0  0  0  0  0  0  0  0
    0.2658    3.4604    1.3196 H   0  0  0  0  0  0  0  0  0  0  0  0
    2.4044    2.2924    0.8893 H   0  0  0  0  0  0  0  0  0  0  0  0
    2.4013   -0.0167    0.0348 H   0  0  0  0  0  0  0  0  0  0  0  0
  1  2  1  0
  1  3  1  0
  1  4  1  0
  1 16  1  0
  5  6  1  0
  5 13  1  0
  5 14  1  0
  5 15  1  0
  6  7  2  3
  6 17  1  0
  7  8  1  0
  7 12  1  0
  8  9  1  0
  8 18  1  0
  9 10  2  0
  9 19  1  0
 10 11  1  0
 10 20  1  0
 11 12  2  0
 11 21  1  0
 12 22  1  0
M  RAD  1   8   2
M  END
>  <reaction>  (16) 
rxn_1478

>  <mol_properties>  (16) 
{"0": {"label": "*3", "atom_type": "Cs"}, "1": {"label": "*4", "atom_type": "H0"}, "5": {"label": "*1", "atom_type": "Cs"}, "6": {"label": "*0", "atom_type": "Cd"}, "15": {"label": "*2", "atom_type": "H0"}}

>  <type>  (16) 
unop_12

>  <geom_source>  (16) 
Heuristics

$$$$

     RDKit          3D

 22 21  0  0  0  0  0  0  0  0999 V2000
   -0.8187   -2.3288   -0.2679 C   0  0  0  0  0  0  0  0  0  0  0  0
   -2.7981    1.0521    0.0970 C   0  0  0  0  0  0  0  0  0  0  0  0
    0.3338   -0.1305   -0.0045 C   0  0  0  0  0  0  0  0  0  0  0  0
   -0.9888   -0.8357   -0.0197 C   0  0  0  0  0  0  0  0  0  0  0  0
    0.7850    0.5228   -1.1599 C   0  0  0  0  0  3  0  0  0  0  0  0
    1.1402   -0.1439    1.1450 C   0  0  0  0  0  0  0  0  0  0  0  0
    2.0263    1.1674   -1.1626 C   0  0  0  0  0  0  0  0  0  0  0  0
    2.8233    1.1576   -0.0139 C   0  0  0  0  0  0  0  0  0  0  0  0
    2.3810    0.5015    1.1388 C   0  0  0  0  0  0  0  0  0  0  0  0
   -0.3004   -2.4983   -1.2355 H   0  0  0  0  0  0  0  0  0  0  0  0
   -0.2318   -2.7933    0.5530 H   0  0  0  0  0  0  0  0  0  0  0  0
   -1.8180   -2.8093   -0.3114 H   0  0  0  0  0  0  0  0  0  0  0  0
   -2.2506    1.8414   -0.4580 H   0  0  0  0  0  0  0  0  0  0  0  0
   -2.8316    1.3134    1.1747 H   0  0  0  0  0  0  0  0  0  0  0  0
   -3.8323    0.9729   -0.2967 H   0  0  0  0  0  0  0  0  0  0  0  0
   -2.2193   -0.0288   -0.0466 H   0  0  0  0  0  0  0  0  0  0  0  0
   -1.5402   -0.6598    0.9292 H   0  0  0  0  0  0  0  0  0  0  0  0
    0.1766    0.5321   -2.0559 H   0  0  0  0  0  0  0  0  0  0  0  0
    2.3712    1.6728   -2.0554 H   0  0  0  0  0  0  0  0  0  0  0  0
    0.8083   -0.6533    2.0413 H   0  0  0  0  0  0  0  0  0  0  0  0
    3.7840    1.6561   -0.0176 H   0  0  0  0  0  0  0  0  0  0  0  0
    3.0001    0.4917    2.0266 H   0  0  0  0  0  0  0  0  0  0  0  0
  1  4  1  0
  1 10  1  0
  1 11  1  0
  1 12  1  0
  2 13  1  0
  2 14  1  0
  2 15  1  0
  2 16  1  0
  3  4  2  3
  3  5  1  0
  3  6  1  0
  4 17  1  0
  5  7  1  0
  5 18  1  0
  6  9  2  0
  6 20  1  0
  7  8  2  0
  7 19  1  0
  8  9  1  0
  8 21  1  0
  9 22  1  0
M  RAD  1   5   2
M  END
>  <reaction>  (17) 
rxn_1478

>  <mol_properties>  (17) 
{"0": {"label": "*3", "atom_type": "Cs"}, "1": {"label": "*4", "atom_type": "H0"}, "5": {"label": "*1", "atom_type": "Cs"}, "6": {"label": "*0", "atom_type": "Cd"}, "15": {"label": "*2", "atom_type": "H0"}}

>  <type>  (17) 
unop_13

>  <geom_source>  (17) 
AutoTST

$$$$
