
     RDKit          3D

 14 13  0  0  0  0  0  0  0  0999 V2000
    1.8106   -0.5953    0.5577 C   0  0  0  0  0  0  0  0  0  0  0  0
    0.5197    0.2064    0.6554 C   0  0  0  0  0  0  0  0  0  0  0  0
   -0.5206   -0.2080   -0.3788 C   0  0  0  0  0  0  0  0  0  0  0  0
   -1.8114    0.5937   -0.2812 C   0  0  0  0  0  0  0  0  0  0  0  0
    2.2725   -0.4752   -0.4251 H   0  0  0  0  0  0  0  0  0  0  0  0
    1.6214   -1.6612    0.7052 H   0  0  0  0  0  0  0  0  0  0  0  0
    2.5364   -0.2784    1.3084 H   0  0  0  0  0  0  0  0  0  0  0  0
    0.0930    0.0950    1.6574 H   0  0  0  0  0  0  0  0  0  0  0  0
    0.7393    1.2723    0.5354 H   0  0  0  0  0  0  0  0  0  0  0  0
   -0.7402   -1.2739   -0.2588 H   0  0  0  0  0  0  0  0  0  0  0  0
   -0.0938   -0.0965   -1.3808 H   0  0  0  0  0  0  0  0  0  0  0  0
   -1.6222    1.6596   -0.4287 H   0  0  0  0  0  0  0  0  0  0  0  0
   -2.2734    0.4736    0.7017 H   0  0  0  0  0  0  0  0  0  0  0  0
   -2.5373    0.2768   -1.0318 H   0  0  0  0  0  0  0  0  0  0  0  0
  1  2  1  0
  1  5  1  0
  1  6  1  0
  1  7  1  0
  2  3  1  0
  2  8  1  0
  2  9  1  0
  3  4  1  0
  3 10  1  0
  3 11  1  0
  4 12  1  0
  4 13  1  0
  4 14  1  0
M  END
>  <reaction>  (1) 
rxn_135

>  <mol_properties>  (1) 
{"3": {"label": "donator", "atom_type": "Cs"}, "12": {"label": "d_hydrogen", "atom_type": "H0"}}

>  <type>  (1) 
r1h

$$$$

     RDKit          3D

  1  0  0  0  0  0  0  0  0  0999 V2000
    0.0000    0.0000    0.0000 Cl  0  0  0  0  0 15  0  0  0  0  0  0
M  END
>  <reaction>  (2) 
rxn_135

>  <mol_properties>  (2) 
{"0": {"label": "acceptor", "atom_type": "Cl1s"}}

>  <type>  (2) 
r2

$$$$

     RDKit          3D

  2  1  0  0  0  0  0  0  0  0999 V2000
    0.0000    0.0000    0.6391 Cl  0  0  0  0  0  0  0  0  0  0  0  0
    0.0000    0.0000   -0.6391 H   0  0  0  0  0  0  0  0  0  0  0  0
  1  2  1  0
M  END
>  <reaction>  (3) 
rxn_135

>  <mol_properties>  (3) 
{"0": {"label": "acceptor", "atom_type": "Cl1s"}, "1": {"label": "a_hydrogen", "atom_type": "H0"}}

>  <type>  (3) 
r2h

$$$$

     RDKit          3D

 15 13  0  0  0  0  0  0  0  0999 V2000
   -1.4740   -0.2540    1.6057 Cl  0  0  0  0  0 15  0  0  0  0  0  0
    0.8400   -0.4633   -2.8780 C   0  0  0  0  0  0  0  0  0  0  0  0
    0.9143   -0.4731   -1.3580 C   0  0  0  0  0  0  0  0  0  0  0  0
    0.8676    0.9293   -0.7611 C   0  0  0  0  0  0  0  0  0  0  0  0
    0.9639    0.9628    0.7281 C   0  0  0  0  0  0  0  0  0  0  0  0
    1.6717    0.0977   -3.3109 H   0  0  0  0  0  0  0  0  0  0  0  0
   -0.0879   -0.0004   -3.2210 H   0  0  0  0  0  0  0  0  0  0  0  0
    0.8749   -1.4761   -3.2806 H   0  0  0  0  0  0  0  0  0  0  0  0
    0.0866   -1.0582   -0.9494 H   0  0  0  0  0  0  0  0  0  0  0  0
    1.8349   -0.9687   -1.0350 H   0  0  0  0  0  0  0  0  0  0  0  0
   -0.0408    1.4472   -1.0831 H   0  0  0  0  0  0  0  0  0  0  0  0
    1.7039    1.5235   -1.1595 H   0  0  0  0  0  0  0  0  0  0  0  0
    1.6934    0.3038    1.1940 H   0  0  0  0  0  0  0  0  0  0  0  0
   -0.2141    0.3614    1.1879 H   0  0  0  0  0  0  0  0  0  0  0  0
    0.8623    1.9292    1.2144 H   0  0  0  0  0  0  0  0  0  0  0  0
  2  3  1  0
  2  6  1  0
  2  7  1  0
  2  8  1  0
  3  4  1  0
  3  9  1  0
  3 10  1  0
  4  5  1  0
  4 11  1  0
  4 12  1  0
  5 13  1  0
  5 14  1  0
  5 15  1  0
M  END
>  <reaction>  (4) 
rxn_135

>  <mol_properties>  (4) 
{"0": {"label": "*3", "atom_type": "Cl1s"}, "3": {"label": "*0", "atom_type": "Cs"}, "4": {"label": "*1", "atom_type": "Cs"}, "13": {"label": "*2", "atom_type": "H0"}}

>  <type>  (4) 
ts

$$$$

     RDKit          3D

 15 13  0  0  0  0  0  0  0  0999 V2000
   -1.4308   -0.3956    1.7721 Cl  0  0  0  0  0 15  0  0  0  0  0  0
    0.8646   -0.4612   -2.8897 C   0  0  0  0  0  0  0  0  0  0  0  0
    0.8646   -0.4612   -1.3670 C   0  0  0  0  0  0  0  0  0  0  0  0
    0.8646    0.9412   -0.7697 C   0  0  0  0  0  0  0  0  0  0  0  0
    0.8646    0.9412    0.7530 C   0  0  0  0  0  0  0  0  0  0  0  0
    1.7461    0.0521   -3.2811 H   0  0  0  0  0  0  0  0  0  0  0  0
   -0.0170    0.0521   -3.2811 H   0  0  0  0  0  0  0  0  0  0  0  0
    0.8646   -1.4763   -3.2901 H   0  0  0  0  0  0  0  0  0  0  0  0
   -0.0105   -1.0071   -0.9997 H   0  0  0  0  0  0  0  0  0  0  0  0
    1.7396   -1.0071   -0.9997 H   0  0  0  0  0  0  0  0  0  0  0  0
   -0.0105    1.4870   -1.1370 H   0  0  0  0  0  0  0  0  0  0  0  0
    1.7396    1.4870   -1.1370 H   0  0  0  0  0  0  0  0  0  0  0  0
    1.7461    0.4278    1.1444 H   0  0  0  0  0  0  0  0  0  0  0  0
   -0.1933    0.3251    1.2227 H   0  0  0  0  0  0  0  0  0  0  0  0
    0.8646    1.9563    1.1534 H   0  0  0  0  0  0  0  0  0  0  0  0
  2  3  1  0
  2  6  1  0
  2  7  1  0
  2  8  1  0
  3  4  1  0
  3  9  1  0
  3 10  1  0
  4  5  1  0
  4 11  1  0
  4 12  1  0
  5 13  1  0
  5 14  1  0
  5 15  1  0
M  END
>  <reaction>  (5) 
rxn_135

>  <mol_properties>  (5) 
{"0": {"label": "*3", "atom_type": "Cl1s"}, "3": {"label": "*0", "atom_type": "Cs"}, "4": {"label": "*1", "atom_type": "Cs"}, "13": {"label": "*2", "atom_type": "H0"}}

>  <type>  (5) 
unop_1

>  <geom_source>  (5) 
Heuristics

$$$$
