
     RDKit          3D

  9  8  0  0  0  0  0  0  0  0999 V2000
   -0.9895    0.3048    0.1041 C   0  0  0  0  0  0  0  0  0  0  0  0
    0.3761   -0.3562    0.0721 C   0  0  0  0  0  0  0  0  0  0  0  0
    0.3441   -1.6564   -0.4834 O   0  0  0  0  0  0  0  0  0  0  0  0
   -1.6997   -0.3114    0.6572 H   0  0  0  0  0  0  0  0  0  0  0  0
   -0.9320    1.2848    0.5822 H   0  0  0  0  0  0  0  0  0  0  0  0
   -1.3774    0.4507   -0.9077 H   0  0  0  0  0  0  0  0  0  0  0  0
    0.7581   -0.4813    1.0862 H   0  0  0  0  0  0  0  0  0  0  0  0
    1.0900    0.2787   -0.4681 H   0  0  0  0  0  0  0  0  0  0  0  0
    0.0089   -1.5959   -1.3792 H   0  0  0  0  0  0  0  0  0  0  0  0
  1  2  1  0
  1  4  1  0
  1  5  1  0
  1  6  1  0
  2  3  1  0
  2  7  1  0
  2  8  1  0
  3  9  1  0
M  END
>  <reaction>  (1) 
rxn_223

>  <mol_properties>  (1) 
{"0": {"label": "donator", "atom_type": "Cs"}, "3": {"label": "d_hydrogen", "atom_type": "H0"}}

>  <type>  (1) 
r1h

$$$$

     RDKit          3D

  1  0  0  0  0  0  0  0  0  0999 V2000
    0.0000    0.0000    0.0000 O   0  0  0  0  0 15  0  0  0  0  0  0
M  END
>  <reaction>  (2) 
rxn_223

>  <mol_properties>  (2) 
{"0": {"label": "acceptor", "atom_type": "O2s"}}

>  <type>  (2) 
r2

$$$$

     RDKit          3D

  2  1  0  0  0  0  0  0  0  0999 V2000
    0.0000    0.0000    0.4855 O   0  0  0  0  0  1  0  0  0  0  0  0
    0.0000    0.0000   -0.4855 H   0  0  0  0  0  0  0  0  0  0  0  0
  1  2  1  0
M  RAD  1   1   2
M  END
>  <reaction>  (3) 
rxn_223

>  <mol_properties>  (3) 
{"0": {"label": "a_hydrogen", "atom_type": "H0"}, "1": {"label": "acceptor", "atom_type": "O2s"}}

>  <type>  (3) 
r2h

$$$$

     RDKit          3D

 10  8  0  0  0  0  0  0  0  0999 V2000
    0.5498    0.3452    0.8858 C   0  0  0  0  0  3  0  0  0  0  0  0
    0.4703   -1.0237    0.2741 C   0  0  0  0  0  0  0  0  0  0  0  0
    0.5280   -1.0222   -1.1316 O   0  0  0  0  0  0  0  0  0  0  0  0
   -0.4889    0.9955    0.4834 H   0  0  0  0  0  0  0  0  0  0  0  0
    0.4492    0.3599    1.9700 H   0  0  0  0  0  0  0  0  0  0  0  0
    1.3762    0.9647    0.5379 H   0  0  0  0  0  0  0  0  0  0  0  0
   -0.4754   -1.4989    0.5383 H   0  0  0  0  0  0  0  0  0  0  0  0
    1.2717   -1.6459    0.7038 H   0  0  0  0  0  0  0  0  0  0  0  0
    1.3586   -0.6345   -1.4118 H   0  0  0  0  0  0  0  0  0  0  0  0
   -1.5032    1.5749    0.1380 O   0  0  0  0  0  1  0  0  0  0  0  0
  1  2  1  0
  1  5  1  0
  1  6  1  0
  2  3  1  0
  2  7  1  0
  2  8  1  0
  3  9  1  0
  4 10  1  0
M  RAD  2   1   2  10   2
M  END
>  <reaction>  (4) 
rxn_223

>  <mol_properties>  (4) 
{"0": {"label": "*3", "atom_type": "Cs"}, "1": {"label": "*4", "atom_type": "Cs"}, "3": {"label": "*2", "atom_type": "H0"}, "9": {"label": "*1", "atom_type": "O2s"}}

>  <type>  (4) 
ts

$$$$

     RDKit          3D

 10  8  0  0  0  0  0  0  0  0999 V2000
    0.4915    0.3577    0.8837 C   0  0  0  0  0  3  0  0  0  0  0  0
    0.4915   -1.0406    0.2942 C   0  0  0  0  0  0  0  0  0  0  0  0
    0.4915   -1.0406   -1.1200 O   0  0  0  0  0  0  0  0  0  0  0  0
   -0.5358    1.0404    0.4453 H   0  0  0  0  0  0  0  0  0  0  0  0
    0.4430    0.3163    1.9737 H   0  0  0  0  0  0  0  0  0  0  0  0
    1.4029    0.8970    0.6116 H   0  0  0  0  0  0  0  0  0  0  0  0
   -0.4150   -1.5726    0.5862 H   0  0  0  0  0  0  0  0  0  0  0  0
    1.3436   -1.6134    0.6819 H   0  0  0  0  0  0  0  0  0  0  0  0
    1.2734   -0.5771   -1.4238 H   0  0  0  0  0  0  0  0  0  0  0  0
   -1.4502    1.6480    0.0552 O   0  0  0  0  0  1  0  0  0  0  0  0
  1  2  1  0
  1  5  1  0
  1  6  1  0
  2  3  1  0
  2  7  1  0
  2  8  1  0
  3  9  1  0
  4 10  1  0
M  RAD  2   1   2  10   2
M  END
>  <reaction>  (5) 
rxn_223

>  <mol_properties>  (5) 
{"0": {"label": "*3", "atom_type": "Cs"}, "1": {"label": "*4", "atom_type": "Cs"}, "3": {"label": "*2", "atom_type": "H0"}, "9": {"label": "*1", "atom_type": "O2s"}}

>  <type>  (5) 
unop_1

>  <geom_source>  (5) 
Heuristics

$$$$

     RDKit          3D

 10  8  0  0  0  0  0  0  0  0999 V2000
   -1.4658    0.4083   -0.8522 O   0  0  0  0  0  0  0  0  0  0  0  0
    2.5437    0.4800   -0.8696 O   0  0  0  0  0 15  0  0  0  0  0  0
   -0.7407    0.3895    0.3462 C   0  0  0  0  0  0  0  0  0  0  0  0
    0.5490   -0.3968    0.1653 C   0  0  0  0  0  0  0  0  0  0  0  0
   -1.3481   -0.0544    1.1674 H   0  0  0  0  0  0  0  0  0  0  0  0
   -0.4881    1.4335    0.6260 H   0  0  0  0  0  0  0  0  0  0  0  0
    1.1498   -0.3601    1.0984 H   0  0  0  0  0  0  0  0  0  0  0  0
    0.3229   -1.4555   -0.0826 H   0  0  0  0  0  0  0  0  0  0  0  0
   -1.9048   -0.4788   -0.9325 H   0  0  0  0  0  0  0  0  0  0  0  0
    1.3820    0.0342   -0.6665 H   0  0  0  0  0  0  0  0  0  0  0  0
  1  3  1  0
  1  9  1  0
  3  4  1  0
  3  5  1  0
  3  6  1  0
  4  7  1  0
  4  8  1  0
  4 10  1  0
M  END
>  <reaction>  (6) 
rxn_223

>  <mol_properties>  (6) 
{"0": {"label": "*3", "atom_type": "Cs"}, "1": {"label": "*4", "atom_type": "Cs"}, "3": {"label": "*2", "atom_type": "H0"}, "9": {"label": "*1", "atom_type": "O2s"}}

>  <type>  (6) 
unop_2

>  <geom_source>  (6) 
AutoTST

$$$$

     RDKit          3D

 10  8  0  0  0  0  0  0  0  0999 V2000
   -1.0141    0.6649    1.1055 O   0  0  0  0  0  0  0  0  0  0  0  0
    2.4620    0.1650    0.8418 O   0  0  0  0  0  1  0  0  0  0  0  0
   -0.8522   -0.2988    0.1012 C   0  0  0  0  0  0  0  0  0  0  0  0
    0.5168   -0.1573   -0.5508 C   0  0  0  0  0  3  0  0  0  0  0  0
   -1.6523   -0.2022   -0.6674 H   0  0  0  0  0  0  0  0  0  0  0  0
   -0.9321   -1.3074    0.5581 H   0  0  0  0  0  0  0  0  0  0  0  0
    1.4211   -0.2794    0.3220 H   0  0  0  0  0  0  0  0  0  0  0  0
    0.6486   -0.9464   -1.3208 H   0  0  0  0  0  0  0  0  0  0  0  0
    0.6081    0.8376   -1.0358 H   0  0  0  0  0  0  0  0  0  0  0  0
   -1.2058    1.5241    0.6462 H   0  0  0  0  0  0  0  0  0  0  0  0
  1  3  1  0
  1 10  1  0
  2  7  1  0
  3  4  1  0
  3  5  1  0
  3  6  1  0
  4  8  1  0
  4  9  1  0
M  RAD  2   2   2   4   2
M  END
>  <reaction>  (7) 
rxn_223

>  <mol_properties>  (7) 
{"0": {"label": "*3", "atom_type": "Cs"}, "1": {"label": "*4", "atom_type": "Cs"}, "3": {"label": "*2", "atom_type": "H0"}, "9": {"label": "*1", "atom_type": "O2s"}}

>  <type>  (7) 
unop_3

>  <geom_source>  (7) 
gaussian_log

$$$$
