
     RDKit          3D

 10  9  0  0  0  0  0  0  0  0999 V2000
    2.2738    0.0217   -0.0992 C   0  0  0  0  0  0  0  0  0  0  0  0
    1.1083    0.2960   -0.0695 C   0  0  0  0  0  0  0  0  0  0  0  0
   -0.3173    0.6046   -0.0227 C   0  0  0  0  0  0  0  0  0  0  0  0
   -1.1561   -0.5495    0.5292 C   0  0  0  0  0  0  0  0  0  0  0  0
    3.3097   -0.2166   -0.1277 H   0  0  0  0  0  0  0  0  0  0  0  0
   -0.6542    0.8617   -1.0302 H   0  0  0  0  0  0  0  0  0  0  0  0
   -0.4633    1.4978    0.5900 H   0  0  0  0  0  0  0  0  0  0  0  0
   -0.8485   -0.7997    1.5447 H   0  0  0  0  0  0  0  0  0  0  0  0
   -2.2115   -0.2752    0.5459 H   0  0  0  0  0  0  0  0  0  0  0  0
   -1.0409   -1.4407   -0.0879 H   0  0  0  0  0  0  0  0  0  0  0  0
  1  2  3  0
  1  5  1  0
  2  3  1  0
  3  4  1  0
  3  6  1  0
  3  7  1  0
  4  8  1  0
  4  9  1  0
  4 10  1  0
M  END
>  <reaction>  (1) 
rxn_1290

>  <mol_properties>  (1) 
{"2": {"label": "donator", "atom_type": "Cs"}, "5": {"label": "d_hydrogen", "atom_type": "H0"}}

>  <type>  (1) 
r1h

$$$$

     RDKit          3D

  7  6  0  0  0  0  0  0  0  0999 V2000
    1.8092   -0.3013   -0.2242 S   0  0  0  0  0  0  0  0  0  0  0  0
    0.1552   -0.6967   -0.1137 C   0  0  0  0  0  0  0  0  0  0  0  0
   -0.8921    0.1788    0.1148 C   0  0  0  0  0  0  0  0  0  0  0  0
   -0.7548    1.8245    0.3328 S   0  0  0  0  0  1  0  0  0  0  0  0
    1.6168    1.0210   -0.0187 H   0  0  0  0  0  0  0  0  0  0  0  0
   -0.0550   -1.7522   -0.2412 H   0  0  0  0  0  0  0  0  0  0  0  0
   -1.8791   -0.2740    0.1502 H   0  0  0  0  0  0  0  0  0  0  0  0
  1  2  1  0
  1  5  1  0
  2  3  2  3
  2  6  1  0
  3  4  1  0
  3  7  1  0
M  RAD  1   4   2
M  END
>  <reaction>  (2) 
rxn_1290

>  <mol_properties>  (2) 
{"1": {"label": "acceptor", "atom_type": "Cs"}}

>  <type>  (2) 
r2

$$$$

     RDKit          3D

  8  7  0  0  0  0  0  0  0  0999 V2000
    1.7301   -0.0562    0.5281 S   0  0  0  0  0  0  0  0  0  0  0  0
    0.1858    0.6127   -0.1669 C   0  0  0  0  0  0  0  0  0  0  0  0
   -0.9621   -0.2567    0.2171 C   0  0  0  0  0  0  0  0  0  0  0  0
   -1.8663   -1.1002   -0.8086 S   0  0  0  0  0  0  0  0  0  0  0  0
    1.7025   -1.2092   -0.1540 H   0  0  0  0  0  0  0  0  0  0  0  0
    0.2619    0.7246   -1.2458 H   0  0  0  0  0  0  0  0  0  0  0  0
    0.0809    1.5982    0.2929 H   0  0  0  0  0  0  0  0  0  0  0  0
   -1.1456   -0.3126    1.2907 H   0  0  0  0  0  0  0  0  0  0  0  0
  1  2  1  0
  1  5  1  0
  2  3  1  0
  2  6  1  0
  2  7  1  0
  3  4  2  0
  3  8  1  0
M  END
>  <reaction>  (3) 
rxn_1290

>  <mol_properties>  (3) 
{"0": {"label": "a_hydrogen", "atom_type": "H0"}, "2": {"label": "acceptor", "atom_type": "Cs"}}

>  <type>  (3) 
r2h

$$$$

     RDKit          3D

 17 15  0  0  0  0  0  0  0  0999 V2000
   -3.0355    0.3298   -1.1837 C   0  0  0  0  0  0  0  0  0  0  0  0
   -2.1875    0.9785   -0.6255 C   0  0  0  0  0  0  0  0  0  0  0  0
   -1.1395    1.6654    0.0256 C   0  0  0  0  0  3  0  0  0  0  0  0
   -0.1471    2.4378   -0.7992 C   0  0  0  0  0  0  0  0  0  0  0  0
   -3.8005   -0.2178   -1.6799 H   0  0  0  0  0  0  0  0  0  0  0  0
   -0.3135    0.5890    0.5120 H   0  0  0  0  0  0  0  0  0  0  0  0
   -1.4025    2.1035    0.9860 H   0  0  0  0  0  0  0  0  0  0  0  0
   -0.5934    3.3665   -1.1660 H   0  0  0  0  0  0  0  0  0  0  0  0
    0.7247    2.6957   -0.1966 H   0  0  0  0  0  0  0  0  0  0  0  0
    0.1794    1.8568   -1.6618 H   0  0  0  0  0  0  0  0  0  0  0  0
    1.7049    0.5805    1.9412 S   0  0  0  0  0  0  0  0  0  0  0  0
    0.4972   -0.2850    0.9729 C   0  0  0  0  0  0  0  0  0  0  0  0
    0.8749   -0.9927   -0.2358 C   0  0  0  0  0  0  0  0  0  0  0  0
    2.2415   -0.8194   -1.0967 S   0  0  0  0  0  0  0  0  0  0  0  0
    2.6215    0.6230    0.9552 H   0  0  0  0  0  0  0  0  0  0  0  0
   -0.1900   -0.8427    1.6073 H   0  0  0  0  0  0  0  0  0  0  0  0
    0.0912   -1.6502   -0.6106 H   0  0  0  0  0  0  0  0  0  0  0  0
  1  2  3  0
  1  5  1  0
  2  3  1  0
  3  4  1  0
  3  7  1  0
  4  8  1  0
  4  9  1  0
  4 10  1  0
  6 12  1  0
 11 12  1  0
 11 15  1  0
 12 13  1  0
 12 16  1  0
 13 14  2  0
 13 17  1  0
M  RAD  1   3   2
M  END
>  <reaction>  (4) 
rxn_1290

>  <mol_properties>  (4) 
{"1": {"label": "*4", "atom_type": "Ct"}, "2": {"label": "*3", "atom_type": "Cs"}, "5": {"label": "*2", "atom_type": "H0"}, "11": {"label": "*1", "atom_type": "Cs"}, "12": {"label": "*0", "atom_type": "CS"}}

>  <type>  (4) 
ts

$$$$

     RDKit          3D

 17 15  0  0  0  0  0  0  0  0999 V2000
   -1.8755    0.8761   -2.6719 C   0  0  0  0  0  0  0  0  0  0  0  0
   -1.8755    0.8761   -1.4742 C   0  0  0  0  0  0  0  0  0  0  0  0
   -1.8755    0.9044   -0.0151 C   0  0  0  0  0  3  0  0  0  0  0  0
   -1.8755    2.3257    0.5505 C   0  0  0  0  0  0  0  0  0  0  0  0
   -1.8755    0.8761   -3.7352 H   0  0  0  0  0  0  0  0  0  0  0  0
   -0.8249    0.2503    0.4190 H   0  0  0  0  0  0  0  0  0  0  0  0
   -2.7510    0.3593    0.3466 H   0  0  0  0  0  0  0  0  0  0  0  0
   -2.7577    2.8736    0.2191 H   0  0  0  0  0  0  0  0  0  0  0  0
   -1.8755    2.2985    1.6408 H   0  0  0  0  0  0  0  0  0  0  0  0
   -0.9932    2.8736    0.2191 H   0  0  0  0  0  0  0  0  0  0  0  0
    1.2958    0.6821    1.8443 S   0  0  0  0  0  0  0  0  0  0  0  0
    0.2204   -0.4005    0.8508 C   0  0  0  0  0  0  0  0  0  0  0  0
    0.9669   -1.6256    0.4473 C   0  0  0  0  0  0  0  0  0  0  0  0
    1.3327   -2.0291   -1.0642 S   0  0  0  0  0  0  0  0  0  0  0  0
    2.1913    0.9165    0.8755 H   0  0  0  0  0  0  0  0  0  0  0  0
   -0.6002   -0.6647    1.5221 H   0  0  0  0  0  0  0  0  0  0  0  0
    1.2915   -2.2503    1.2802 H   0  0  0  0  0  0  0  0  0  0  0  0
  1  2  3  0
  1  5  1  0
  2  3  1  0
  3  4  1  0
  3  7  1  0
  4  8  1  0
  4  9  1  0
  4 10  1  0
  6 12  1  0
 11 12  1  0
 11 15  1  0
 12 13  1  0
 12 16  1  0
 13 14  2  0
 13 17  1  0
M  RAD  1   3   2
M  END
>  <reaction>  (5) 
rxn_1290

>  <mol_properties>  (5) 
{"1": {"label": "*4", "atom_type": "Ct"}, "2": {"label": "*3", "atom_type": "Cs"}, "5": {"label": "*2", "atom_type": "H0"}, "11": {"label": "*1", "atom_type": "Cs"}, "12": {"label": "*0", "atom_type": "CS"}}

>  <type>  (5) 
unop_1

>  <geom_source>  (5) 
Heuristics

$$$$

     RDKit          3D

 17 15  0  0  0  0  0  0  0  0999 V2000
   -1.3599    1.2821   -2.7819 C   0  0  0  0  0  0  0  0  0  0  0  0
   -1.3599    1.2821   -1.5842 C   0  0  0  0  0  0  0  0  0  0  0  0
   -1.3599    1.3103   -0.1250 C   0  0  0  0  0  3  0  0  0  0  0  0
   -1.3599    2.7317    0.4406 C   0  0  0  0  0  0  0  0  0  0  0  0
   -1.3599    1.2821   -3.8452 H   0  0  0  0  0  0  0  0  0  0  0  0
   -0.3093    0.6562    0.3091 H   0  0  0  0  0  0  0  0  0  0  0  0
   -2.2354    0.7653    0.2367 H   0  0  0  0  0  0  0  0  0  0  0  0
   -2.2421    3.2796    0.1091 H   0  0  0  0  0  0  0  0  0  0  0  0
   -1.3599    2.7044    1.5309 H   0  0  0  0  0  0  0  0  0  0  0  0
   -0.4776    3.2796    0.1091 H   0  0  0  0  0  0  0  0  0  0  0  0
    2.1107    0.1210   -0.4475 S   0  0  0  0  0  0  0  0  0  0  0  0
    0.7360    0.0054    0.7409 C   0  0  0  0  0  0  0  0  0  0  0  0
    0.7018   -1.3556    1.3468 C   0  0  0  0  0  0  0  0  0  0  0  0
   -0.4895   -2.4183    1.1655 S   0  0  0  0  0  0  0  0  0  0  0  0
    1.6449   -0.8101   -1.2910 H   0  0  0  0  0  0  0  0  0  0  0  0
    0.9689    0.7510    1.5049 H   0  0  0  0  0  0  0  0  0  0  0  0
    1.5887   -1.6132    1.9269 H   0  0  0  0  0  0  0  0  0  0  0  0
  1  2  3  0
  1  5  1  0
  2  3  1  0
  3  4  1  0
  3  7  1  0
  4  8  1  0
  4  9  1  0
  4 10  1  0
  6 12  1  0
 11 12  1  0
 11 15  1  0
 12 13  1  0
 12 16  1  0
 13 14  2  0
 13 17  1  0
M  RAD  1   3   2
M  END
>  <reaction>  (6) 
rxn_1290

>  <mol_properties>  (6) 
{"1": {"label": "*4", "atom_type": "Ct"}, "2": {"label": "*3", "atom_type": "Cs"}, "5": {"label": "*2", "atom_type": "H0"}, "11": {"label": "*1", "atom_type": "Cs"}, "12": {"label": "*0", "atom_type": "CS"}}

>  <type>  (6) 
unop_2

>  <geom_source>  (6) 
Heuristics

$$$$

     RDKit          3D

 17 15  0  0  0  0  0  0  0  0999 V2000
   -1.9347    0.5799   -2.7289 C   0  0  0  0  0  0  0  0  0  0  0  0
   -1.9347    0.5799   -1.5312 C   0  0  0  0  0  0  0  0  0  0  0  0
   -1.9347    0.6081   -0.0720 C   0  0  0  0  0  3  0  0  0  0  0  0
   -1.9346    2.0295    0.4936 C   0  0  0  0  0  0  0  0  0  0  0  0
   -1.9347    0.5799   -3.7922 H   0  0  0  0  0  0  0  0  0  0  0  0
   -0.8841   -0.0460    0.3620 H   0  0  0  0  0  0  0  0  0  0  0  0
   -2.8102    0.0630    0.2897 H   0  0  0  0  0  0  0  0  0  0  0  0
   -2.8169    2.5774    0.1621 H   0  0  0  0  0  0  0  0  0  0  0  0
   -1.9346    2.0022    1.5839 H   0  0  0  0  0  0  0  0  0  0  0  0
   -1.0524    2.5773    0.1621 H   0  0  0  0  0  0  0  0  0  0  0  0
    0.7354   -0.0226    2.3849 S   0  0  0  0  0  0  0  0  0  0  0  0
    0.1612   -0.6968    0.7939 C   0  0  0  0  0  0  0  0  0  0  0  0
    1.3023   -1.3187    0.0646 C   0  0  0  0  0  0  0  0  0  0  0  0
    1.8934   -0.8041   -1.3380 S   0  0  0  0  0  0  0  0  0  0  0  0
    1.5703    0.8841    1.8593 H   0  0  0  0  0  0  0  0  0  0  0  0
   -0.5712   -1.4603    1.0665 H   0  0  0  0  0  0  0  0  0  0  0  0
    1.7544   -2.1692    0.5762 H   0  0  0  0  0  0  0  0  0  0  0  0
  1  2  3  0
  1  5  1  0
  2  3  1  0
  3  4  1  0
  3  7  1  0
  4  8  1  0
  4  9  1  0
  4 10  1  0
  6 12  1  0
 11 12  1  0
 11 15  1  0
 12 13  1  0
 12 16  1  0
 13 14  2  0
 13 17  1  0
M  RAD  1   3   2
M  END
>  <reaction>  (7) 
rxn_1290

>  <mol_properties>  (7) 
{"1": {"label": "*4", "atom_type": "Ct"}, "2": {"label": "*3", "atom_type": "Cs"}, "5": {"label": "*2", "atom_type": "H0"}, "11": {"label": "*1", "atom_type": "Cs"}, "12": {"label": "*0", "atom_type": "CS"}}

>  <type>  (7) 
unop_3

>  <geom_source>  (7) 
Heuristics

$$$$

     RDKit          3D

 17 15  0  0  0  0  0  0  0  0999 V2000
   -0.8124    0.8307   -3.2618 C   0  0  0  0  0  0  0  0  0  0  0  0
   -0.8124    0.8307   -2.0641 C   0  0  0  0  0  0  0  0  0  0  0  0
   -0.8124    0.8589   -0.6049 C   0  0  0  0  0  3  0  0  0  0  0  0
   -0.8123    2.2803   -0.0393 C   0  0  0  0  0  0  0  0  0  0  0  0
   -0.8124    0.8307   -4.3251 H   0  0  0  0  0  0  0  0  0  0  0  0
    0.2382    0.2048   -0.1709 H   0  0  0  0  0  0  0  0  0  0  0  0
   -1.6879    0.3139   -0.2432 H   0  0  0  0  0  0  0  0  0  0  0  0
   -1.6946    2.8282   -0.3708 H   0  0  0  0  0  0  0  0  0  0  0  0
   -0.8123    2.2530    1.0510 H   0  0  0  0  0  0  0  0  0  0  0  0
    0.0699    2.8281   -0.3708 H   0  0  0  0  0  0  0  0  0  0  0  0
    1.2500   -2.1773   -0.3020 S   0  0  0  0  0  0  0  0  0  0  0  0
    1.2835   -0.4460    0.2610 C   0  0  0  0  0  0  0  0  0  0  0  0
    0.6373   -0.3347    1.5992 C   0  0  0  0  0  0  0  0  0  0  0  0
   -0.7105    0.4829    1.9096 S   0  0  0  0  0  0  0  0  0  0  0  0
   -0.0848   -2.2792   -0.3611 H   0  0  0  0  0  0  0  0  0  0  0  0
    2.3457   -0.2010    0.3352 H   0  0  0  0  0  0  0  0  0  0  0  0
    1.1412   -0.8907    2.3906 H   0  0  0  0  0  0  0  0  0  0  0  0
  1  2  3  0
  1  5  1  0
  2  3  1  0
  3  4  1  0
  3  7  1  0
  4  8  1  0
  4  9  1  0
  4 10  1  0
  6 12  1  0
 11 12  1  0
 11 15  1  0
 12 13  1  0
 12 16  1  0
 13 14  2  0
 13 17  1  0
M  RAD  1   3   2
M  END
>  <reaction>  (8) 
rxn_1290

>  <mol_properties>  (8) 
{"1": {"label": "*4", "atom_type": "Ct"}, "2": {"label": "*3", "atom_type": "Cs"}, "5": {"label": "*2", "atom_type": "H0"}, "11": {"label": "*1", "atom_type": "Cs"}, "12": {"label": "*0", "atom_type": "CS"}}

>  <type>  (8) 
unop_4

>  <geom_source>  (8) 
Heuristics

$$$$

     RDKit          3D

 17 15  0  0  0  0  0  0  0  0999 V2000
   -1.7532    0.1770   -2.9576 C   0  0  0  0  0  0  0  0  0  0  0  0
   -1.7532    0.1770   -1.7599 C   0  0  0  0  0  0  0  0  0  0  0  0
   -1.7532    0.2052   -0.3007 C   0  0  0  0  0  3  0  0  0  0  0  0
   -1.7531    1.6266    0.2649 C   0  0  0  0  0  0  0  0  0  0  0  0
   -1.7532    0.1770   -4.0209 H   0  0  0  0  0  0  0  0  0  0  0  0
   -0.7026   -0.4489    0.1333 H   0  0  0  0  0  0  0  0  0  0  0  0
   -2.6287   -0.3399    0.0610 H   0  0  0  0  0  0  0  0  0  0  0  0
   -2.6354    2.1744   -0.0666 H   0  0  0  0  0  0  0  0  0  0  0  0
   -1.7531    1.5993    1.3551 H   0  0  0  0  0  0  0  0  0  0  0  0
   -0.8709    2.1744   -0.0666 H   0  0  0  0  0  0  0  0  0  0  0  0
    0.4015   -1.1016    2.3851 S   0  0  0  0  0  0  0  0  0  0  0  0
    0.3427   -1.0997    0.5652 C   0  0  0  0  0  0  0  0  0  0  0  0
    1.6083   -0.5354    0.0170 C   0  0  0  0  0  0  0  0  0  0  0  0
    1.7224    0.8224   -0.8344 S   0  0  0  0  0  0  0  0  0  0  0  0
    0.4784    0.2290    2.5237 H   0  0  0  0  0  0  0  0  0  0  0  0
    0.2517   -2.1536    0.2914 H   0  0  0  0  0  0  0  0  0  0  0  0
    2.5018   -1.1106    0.2623 H   0  0  0  0  0  0  0  0  0  0  0  0
  1  2  3  0
  1  5  1  0
  2  3  1  0
  3  4  1  0
  3  7  1  0
  4  8  1  0
  4  9  1  0
  4 10  1  0
  6 12  1  0
 11 12  1  0
 11 15  1  0
 12 13  1  0
 12 16  1  0
 13 14  2  0
 13 17  1  0
M  RAD  1   3   2
M  END
>  <reaction>  (9) 
rxn_1290

>  <mol_properties>  (9) 
{"1": {"label": "*4", "atom_type": "Ct"}, "2": {"label": "*3", "atom_type": "Cs"}, "5": {"label": "*2", "atom_type": "H0"}, "11": {"label": "*1", "atom_type": "Cs"}, "12": {"label": "*0", "atom_type": "CS"}}

>  <type>  (9) 
unop_5

>  <geom_source>  (9) 
Heuristics

$$$$

     RDKit          3D

 17 15  0  0  0  0  0  0  0  0999 V2000
   -0.8567    0.5597   -3.3459 C   0  0  0  0  0  0  0  0  0  0  0  0
   -0.8567    0.5597   -2.1482 C   0  0  0  0  0  0  0  0  0  0  0  0
   -0.8567    0.5879   -0.6891 C   0  0  0  0  0  0  0  0  0  0  0  0
   -0.8567    2.0093   -0.1234 C   0  0  0  0  0  0  0  0  0  0  0  0
   -0.8567    0.5597   -4.4092 H   0  0  0  0  0  0  0  0  0  0  0  0
    0.1938   -0.0662   -0.2550 H   0  0  0  0  0  0  0  0  0  0  0  0
   -1.7323    0.0429   -0.3273 H   0  0  0  0  0  0  0  0  0  0  0  0
   -1.7390    2.5572   -0.4549 H   0  0  0  0  0  0  0  0  0  0  0  0
   -0.8567    1.9820    0.9668 H   0  0  0  0  0  0  0  0  0  0  0  0
    0.0255    2.5572   -0.4549 H   0  0  0  0  0  0  0  0  0  0  0  0
    0.8530   -2.4797    0.4199 S   0  0  0  0  0  0  0  0  0  0  0  0
    1.2391   -0.7170    0.1769 C   0  0  0  0  0  0  0  0  0  0  0  0
    0.8452    0.0604    1.3857 C   0  0  0  0  0  3  0  0  0  0  0  0
   -0.2945    1.1922    1.4259 S   0  0  0  0  0  0  0  0  0  0  0  0
   -0.4733   -2.3193    0.5233 H   0  0  0  0  0  0  0  0  0  0  0  0
    2.3238   -0.6877    0.0484 H   0  0  0  0  0  0  0  0  0  0  0  0
    1.3822   -0.2157    2.2938 H   0  0  0  0  0  0  0  0  0  0  0  0
  1  2  3  0
  1  5  1  0
  2  3  1  0
  3  4  2  3
  3  7  1  0
  4  8  1  0
  4 10  1  0
  6 12  1  0
  9 14  1  0
 11 12  1  0
 11 15  1  0
 12 13  1  0
 12 16  1  0
 13 14  1  0
 13 17  1  0
M  RAD  1  13   2
M  END
>  <reaction>  (10) 
rxn_1290

>  <mol_properties>  (10) 
{"1": {"label": "*4", "atom_type": "Ct"}, "2": {"label": "*3", "atom_type": "Cs"}, "5": {"label": "*2", "atom_type": "H0"}, "11": {"label": "*1", "atom_type": "Cs"}, "12": {"label": "*0", "atom_type": "CS"}}

>  <type>  (10) 
unop_6

>  <geom_source>  (10) 
Heuristics

$$$$

     RDKit          3D

 17 15  0  0  0  0  0  0  0  0999 V2000
   -1.0117    0.3000   -3.3510 C   0  0  0  0  0  3  0  0  0  0  0  0
   -1.0117    0.3000   -2.1533 C   0  0  0  0  0  0  0  0  0  0  0  0
   -1.0117    0.3282   -0.6941 C   0  0  0  0  0  3  0  0  0  0  0  0
   -1.0117    1.7496   -0.1285 C   0  0  0  0  0  0  0  0  0  0  0  0
   -1.0117    0.3000   -4.4143 H   0  0  0  0  0  0  0  0  0  0  0  0
    0.0389   -0.3259   -0.2601 H   0  0  0  0  0  0  0  0  0  0  0  0
   -1.8872   -0.2168   -0.3324 H   0  0  0  0  0  0  0  0  0  0  0  0
   -1.8939    2.2975   -0.4600 H   0  0  0  0  0  0  0  0  0  0  0  0
   -1.0117    1.7223    0.9618 H   0  0  0  0  0  0  0  0  0  0  0  0
   -0.1294    2.2974   -0.4600 H   0  0  0  0  0  0  0  0  0  0  0  0
    0.5885   -2.3855    1.2135 S   0  0  0  0  0  0  0  0  0  0  0  0
    1.0842   -0.9767    0.1718 C   0  0  0  0  0  0  0  0  0  0  0  0
    1.1310    0.2680    0.9900 C   0  0  0  0  0  3  0  0  0  0  0  0
    0.1801    1.5463    0.7830 S   0  0  0  0  0  0  0  0  0  0  0  0
   -0.6303   -1.9160    1.5127 H   0  0  0  0  0  0  0  0  0  0  0  0
    2.0865   -1.2332   -0.1796 H   0  0  0  0  0  0  0  0  0  0  0  0
    1.8657    0.2502    1.7958 H   0  0  0  0  0  0  0  0  0  0  0  0
  1  2  2  0
  1  5  1  0
  2  3  2  0
  3  7  1  0
  4 14  1  0
  4  8  1  0
  4  9  1  0
  4 10  1  0
  6 12  1  0
 11 12  1  0
 11 15  1  0
 12 13  1  0
 12 16  1  0
 13 14  1  0
 13 17  1  0
M  CHG  2   1   1   3  -1
M  RAD  1  13   2
M  END
>  <reaction>  (11) 
rxn_1290

>  <mol_properties>  (11) 
{"1": {"label": "*4", "atom_type": "Ct"}, "2": {"label": "*3", "atom_type": "Cs"}, "5": {"label": "*2", "atom_type": "H0"}, "11": {"label": "*1", "atom_type": "Cs"}, "12": {"label": "*0", "atom_type": "CS"}}

>  <type>  (11) 
unop_7

>  <geom_source>  (11) 
Heuristics

$$$$

     RDKit          3D

 17 15  0  0  0  0  0  0  0  0999 V2000
   -1.7573    1.0608   -2.6714 C   0  0  0  0  0  0  0  0  0  0  0  0
   -1.7573    1.0608   -1.4737 C   0  0  0  0  0  0  0  0  0  0  0  0
   -1.7573    1.0890   -0.0145 C   0  0  0  0  0  3  0  0  0  0  0  0
   -1.7573    2.5104    0.5511 C   0  0  0  0  0  0  0  0  0  0  0  0
   -1.7573    1.0608   -3.7347 H   0  0  0  0  0  0  0  0  0  0  0  0
   -0.7067    0.4349    0.4195 H   0  0  0  0  0  0  0  0  0  0  0  0
   -2.6329    0.5439    0.3472 H   0  0  0  0  0  0  0  0  0  0  0  0
   -2.6396    3.0583    0.2196 H   0  0  0  0  0  0  0  0  0  0  0  0
   -1.7573    2.4831    1.6414 H   0  0  0  0  0  0  0  0  0  0  0  0
   -0.8751    3.0582    0.2196 H   0  0  0  0  0  0  0  0  0  0  0  0
    1.7665    0.8982    1.0388 S   0  0  0  0  0  0  0  0  0  0  0  0
    0.3386   -0.2159    0.8514 C   0  0  0  0  0  0  0  0  0  0  0  0
    0.7981   -1.6335    0.8442 C   0  0  0  0  0  0  0  0  0  0  0  0
    0.6659   -2.6416   -0.3998 S   0  0  0  0  0  0  0  0  0  0  0  0
    2.3646    0.5532   -0.1096 H   0  0  0  0  0  0  0  0  0  0  0  0
   -0.2773   -0.0251    1.7335 H   0  0  0  0  0  0  0  0  0  0  0  0
    1.2788   -1.9561    1.7684 H   0  0  0  0  0  0  0  0  0  0  0  0
  1  2  3  0
  1  5  1  0
  2  3  1  0
  3  4  1  0
  3  7  1  0
  4  8  1  0
  4  9  1  0
  4 10  1  0
  6 12  1  0
 11 12  1  0
 11 15  1  0
 12 13  1  0
 12 16  1  0
 13 14  2  0
 13 17  1  0
M  RAD  1   3   2
M  END
>  <reaction>  (12) 
rxn_1290

>  <mol_properties>  (12) 
{"1": {"label": "*4", "atom_type": "Ct"}, "2": {"label": "*3", "atom_type": "Cs"}, "5": {"label": "*2", "atom_type": "H0"}, "11": {"label": "*1", "atom_type": "Cs"}, "12": {"label": "*0", "atom_type": "CS"}}

>  <type>  (12) 
unop_8

>  <geom_source>  (12) 
Heuristics

$$$$

     RDKit          3D

 17 15  0  0  0  0  0  0  0  0999 V2000
   -0.8886    1.0837   -3.1135 C   0  0  0  0  0  0  0  0  0  0  0  0
   -0.8886    1.0837   -1.9158 C   0  0  0  0  0  0  0  0  0  0  0  0
   -0.8886    1.1119   -0.4566 C   0  0  0  0  0  3  0  0  0  0  0  0
   -0.8885    2.5333    0.1090 C   0  0  0  0  0  0  0  0  0  0  0  0
   -0.8886    1.0837   -4.1768 H   0  0  0  0  0  0  0  0  0  0  0  0
    0.1620    0.4578   -0.0226 H   0  0  0  0  0  0  0  0  0  0  0  0
   -1.7641    0.5669   -0.0949 H   0  0  0  0  0  0  0  0  0  0  0  0
   -1.7708    3.0812   -0.2225 H   0  0  0  0  0  0  0  0  0  0  0  0
   -0.8885    2.5060    1.1993 H   0  0  0  0  0  0  0  0  0  0  0  0
   -0.0063    3.0812   -0.2225 H   0  0  0  0  0  0  0  0  0  0  0  0
    1.6750   -1.5158   -0.7513 S   0  0  0  0  0  0  0  0  0  0  0  0
    1.2073   -0.1930    0.4093 C   0  0  0  0  0  0  0  0  0  0  0  0
    0.5631   -0.7817    1.6172 C   0  0  0  0  0  0  0  0  0  0  0  0
   -0.9624   -0.5420    2.0607 S   0  0  0  0  0  0  0  0  0  0  0  0
    0.4270   -1.9434   -0.9860 H   0  0  0  0  0  0  0  0  0  0  0  0
    2.1531    0.2817    0.6816 H   0  0  0  0  0  0  0  0  0  0  0  0
    1.2105   -1.4401    2.1976 H   0  0  0  0  0  0  0  0  0  0  0  0
  1  2  3  0
  1  5  1  0
  2  3  1  0
  3  4  1  0
  3  7  1  0
  4  8  1  0
  4  9  1  0
  4 10  1  0
  6 12  1  0
 11 12  1  0
 11 15  1  0
 12 13  1  0
 12 16  1  0
 13 14  2  0
 13 17  1  0
M  RAD  1   3   2
M  END
>  <reaction>  (13) 
rxn_1290

>  <mol_properties>  (13) 
{"1": {"label": "*4", "atom_type": "Ct"}, "2": {"label": "*3", "atom_type": "Cs"}, "5": {"label": "*2", "atom_type": "H0"}, "11": {"label": "*1", "atom_type": "Cs"}, "12": {"label": "*0", "atom_type": "CS"}}

>  <type>  (13) 
unop_9

>  <geom_source>  (13) 
Heuristics

$$$$

     RDKit          3D

 17 15  0  0  0  0  0  0  0  0999 V2000
   -1.5913    1.1977   -2.7006 C   0  0  0  0  0  0  0  0  0  0  0  0
   -1.5913    1.1977   -1.5029 C   0  0  0  0  0  0  0  0  0  0  0  0
   -1.5913    1.2259   -0.0437 C   0  0  0  0  0  3  0  0  0  0  0  0
   -1.5913    2.6473    0.5219 C   0  0  0  0  0  0  0  0  0  0  0  0
   -1.5913    1.1977   -3.7639 H   0  0  0  0  0  0  0  0  0  0  0  0
   -0.5407    0.5718    0.3903 H   0  0  0  0  0  0  0  0  0  0  0  0
   -2.4668    0.6809    0.3180 H   0  0  0  0  0  0  0  0  0  0  0  0
   -2.4735    3.1952    0.1904 H   0  0  0  0  0  0  0  0  0  0  0  0
   -1.5913    2.6200    1.6121 H   0  0  0  0  0  0  0  0  0  0  0  0
   -0.7090    3.1952    0.1904 H   0  0  0  0  0  0  0  0  0  0  0  0
    2.0422    0.6812    0.2110 S   0  0  0  0  0  0  0  0  0  0  0  0
    0.5046   -0.0790    0.8222 C   0  0  0  0  0  0  0  0  0  0  0  0
    0.7414   -1.5144    1.1451 C   0  0  0  0  0  0  0  0  0  0  0  0
    0.0522   -2.7565    0.3945 S   0  0  0  0  0  0  0  0  0  0  0  0
    2.1515   -0.0849   -0.8830 H   0  0  0  0  0  0  0  0  0  0  0  0
    0.2656    0.4764    1.7323 H   0  0  0  0  0  0  0  0  0  0  0  0
    1.4669   -1.6834    1.9417 H   0  0  0  0  0  0  0  0  0  0  0  0
  1  2  3  0
  1  5  1  0
  2  3  1  0
  3  4  1  0
  3  7  1  0
  4  8  1  0
  4  9  1  0
  4 10  1  0
  6 12  1  0
 11 12  1  0
 11 15  1  0
 12 13  1  0
 12 16  1  0
 13 14  2  0
 13 17  1  0
M  RAD  1   3   2
M  END
>  <reaction>  (14) 
rxn_1290

>  <mol_properties>  (14) 
{"1": {"label": "*4", "atom_type": "Ct"}, "2": {"label": "*3", "atom_type": "Cs"}, "5": {"label": "*2", "atom_type": "H0"}, "11": {"label": "*1", "atom_type": "Cs"}, "12": {"label": "*0", "atom_type": "CS"}}

>  <type>  (14) 
unop_10

>  <geom_source>  (14) 
Heuristics

$$$$

     RDKit          3D

 17 15  0  0  0  0  0  0  0  0999 V2000
   -1.3140    0.0989   -3.2392 C   0  0  0  0  0  0  0  0  0  0  0  0
   -1.3140    0.0989   -2.0415 C   0  0  0  0  0  0  0  0  0  0  0  0
   -1.3140    0.1271   -0.5824 C   0  0  0  0  0  3  0  0  0  0  0  0
   -1.3140    1.5485   -0.0168 C   0  0  0  0  0  0  0  0  0  0  0  0
   -1.3140    0.0989   -4.3025 H   0  0  0  0  0  0  0  0  0  0  0  0
   -0.2634   -0.5270   -0.1483 H   0  0  0  0  0  0  0  0  0  0  0  0
   -2.1895   -0.4179   -0.2207 H   0  0  0  0  0  0  0  0  0  0  0  0
   -2.1962    2.0964   -0.3482 H   0  0  0  0  0  0  0  0  0  0  0  0
   -1.3140    1.5212    1.0735 H   0  0  0  0  0  0  0  0  0  0  0  0
   -0.4318    2.0964   -0.3482 H   0  0  0  0  0  0  0  0  0  0  0  0
    0.4490   -1.9420    1.9024 S   0  0  0  0  0  0  0  0  0  0  0  0
    0.7819   -1.1778    0.2835 C   0  0  0  0  0  0  0  0  0  0  0  0
    1.4479    0.1419    0.4725 C   0  0  0  0  0  0  0  0  0  0  0  0
    0.8198    1.5618    0.0592 S   0  0  0  0  0  0  0  0  0  0  0  0
   -0.3933   -0.9936    2.3341 H   0  0  0  0  0  0  0  0  0  0  0  0
    1.4611   -1.8734   -0.2150 H   0  0  0  0  0  0  0  0  0  0  0  0
    2.4235    0.0891    0.9571 H   0  0  0  0  0  0  0  0  0  0  0  0
  1  2  3  0
  1  5  1  0
  2  3  1  0
  3  4  1  0
  3  7  1  0
  4  8  1  0
  4  9  1  0
  4 10  1  0
  6 12  1  0
 11 12  1  0
 11 15  1  0
 12 13  1  0
 12 16  1  0
 13 14  2  0
 13 17  1  0
M  RAD  1   3   2
M  END
>  <reaction>  (15) 
rxn_1290

>  <mol_properties>  (15) 
{"1": {"label": "*4", "atom_type": "Ct"}, "2": {"label": "*3", "atom_type": "Cs"}, "5": {"label": "*2", "atom_type": "H0"}, "11": {"label": "*1", "atom_type": "Cs"}, "12": {"label": "*0", "atom_type": "CS"}}

>  <type>  (15) 
unop_11

>  <geom_source>  (15) 
Heuristics

$$$$

     RDKit          3D

 17 15  0  0  0  0  0  0  0  0999 V2000
   -1.0930    1.2541   -2.9323 C   0  0  0  0  0  0  0  0  0  0  0  0
   -1.0930    1.2541   -1.7346 C   0  0  0  0  0  0  0  0  0  0  0  0
   -1.0930    1.2824   -0.2754 C   0  0  0  0  0  3  0  0  0  0  0  0
   -1.0930    2.7037    0.2902 C   0  0  0  0  0  0  0  0  0  0  0  0
   -1.0930    1.2541   -3.9956 H   0  0  0  0  0  0  0  0  0  0  0  0
   -0.0424    0.6282    0.1586 H   0  0  0  0  0  0  0  0  0  0  0  0
   -1.9685    0.7373    0.0863 H   0  0  0  0  0  0  0  0  0  0  0  0
   -1.9752    3.2516   -0.0413 H   0  0  0  0  0  0  0  0  0  0  0  0
   -1.0930    2.6764    1.3805 H   0  0  0  0  0  0  0  0  0  0  0  0
   -0.2107    3.2516   -0.0413 H   0  0  0  0  0  0  0  0  0  0  0  0
    1.9860   -0.6694   -0.7989 S   0  0  0  0  0  0  0  0  0  0  0  0
    1.0029   -0.0226    0.5905 C   0  0  0  0  0  0  0  0  0  0  0  0
    0.6200   -1.1365    1.5034 C   0  0  0  0  0  0  0  0  0  0  0  0
   -0.8840   -1.6288    1.7805 S   0  0  0  0  0  0  0  0  0  0  0  0
    1.0182   -1.4452   -1.3057 H   0  0  0  0  0  0  0  0  0  0  0  0
    1.6741    0.6701    1.1039 H   0  0  0  0  0  0  0  0  0  0  0  0
    1.4630   -1.6423    1.9754 H   0  0  0  0  0  0  0  0  0  0  0  0
  1  2  3  0
  1  5  1  0
  2  3  1  0
  3  4  1  0
  3  7  1  0
  4  8  1  0
  4  9  1  0
  4 10  1  0
  6 12  1  0
 11 12  1  0
 11 15  1  0
 12 13  1  0
 12 16  1  0
 13 14  2  0
 13 17  1  0
M  RAD  1   3   2
M  END
>  <reaction>  (16) 
rxn_1290

>  <mol_properties>  (16) 
{"1": {"label": "*4", "atom_type": "Ct"}, "2": {"label": "*3", "atom_type": "Cs"}, "5": {"label": "*2", "atom_type": "H0"}, "11": {"label": "*1", "atom_type": "Cs"}, "12": {"label": "*0", "atom_type": "CS"}}

>  <type>  (16) 
unop_12

>  <geom_source>  (16) 
Heuristics

$$$$

     RDKit          3D

 17 15  0  0  0  0  0  0  0  0999 V2000
    1.1576   -0.1727    2.4566 S   0  0  0  0  0  0  0  0  0  0  0  0
    2.2153    1.3141   -0.4579 S   0  0  0  0  0  0  0  0  0  0  0  0
    1.4986   -0.8025    0.7824 C   0  0  0  0  0  0  0  0  0  0  0  0
   -1.9586   -0.7277    0.1902 C   0  0  0  0  0  0  0  0  0  0  0  0
   -0.7185   -0.1694   -0.4925 C   0  0  0  0  0  3  0  0  0  0  0  0
    2.5421    0.0313    0.1003 C   0  0  0  0  0  0  0  0  0  0  0  0
   -1.0312    1.0767   -1.2006 C   0  0  0  0  0  0  0  0  0  0  0  0
   -1.2872    2.1009   -1.7828 C   0  0  0  0  0  0  0  0  0  0  0  0
    1.8723   -1.8437    0.8744 H   0  0  0  0  0  0  0  0  0  0  0  0
    0.3631   -0.8248    0.0605 H   0  0  0  0  0  0  0  0  0  0  0  0
   -2.7453   -0.9569   -0.5604 H   0  0  0  0  0  0  0  0  0  0  0  0
   -1.6920   -1.6622    0.7263 H   0  0  0  0  0  0  0  0  0  0  0  0
   -2.3518    0.0038    0.9281 H   0  0  0  0  0  0  0  0  0  0  0  0
   -0.3145   -0.9121   -1.2123 H   0  0  0  0  0  0  0  0  0  0  0  0
    3.5199   -0.3960   -0.0968 H   0  0  0  0  0  0  0  0  0  0  0  0
    0.4423    0.9414    1.9782 H   0  0  0  0  0  0  0  0  0  0  0  0
   -1.5122    2.9999   -2.2937 H   0  0  0  0  0  0  0  0  0  0  0  0
  1  3  1  0
  1 16  1  0
  2  6  2  0
  3  6  1  0
  3  9  1  0
  3 10  1  0
  4  5  1  0
  4 11  1  0
  4 12  1  0
  4 13  1  0
  5  7  1  0
  5 14  1  0
  6 15  1  0
  7  8  3  0
  8 17  1  0
M  RAD  1   5   2
M  END
>  <reaction>  (17) 
rxn_1290

>  <mol_properties>  (17) 
{"1": {"label": "*4", "atom_type": "Ct"}, "2": {"label": "*3", "atom_type": "Cs"}, "5": {"label": "*2", "atom_type": "H0"}, "11": {"label": "*1", "atom_type": "Cs"}, "12": {"label": "*0", "atom_type": "CS"}}

>  <type>  (17) 
unop_13

>  <geom_source>  (17) 
AutoTST

$$$$
