
     RDKit          3D

 13 12  0  0  0  0  0  0  0  0999 V2000
    2.2975   -0.6134    0.7685 C   0  0  0  0  0  0  0  0  0  0  0  0
    1.1676   -0.5248    0.3802 C   0  0  0  0  0  0  0  0  0  0  0  0
   -0.2109   -0.3926   -0.0948 C   0  0  0  0  0  0  0  0  0  0  0  0
   -0.2501    0.2584   -1.4808 C   0  0  0  0  0  0  0  0  0  0  0  0
   -1.0633    0.3831    0.9141 C   0  0  0  0  0  0  0  0  0  0  0  0
    3.2999   -0.6974    1.1133 H   0  0  0  0  0  0  0  0  0  0  0  0
   -0.6209   -1.4038   -0.1814 H   0  0  0  0  0  0  0  0  0  0  0  0
    0.3402   -0.3102   -2.1992 H   0  0  0  0  0  0  0  0  0  0  0  0
    0.1511    1.2724   -1.4369 H   0  0  0  0  0  0  0  0  0  0  0  0
   -1.2791    0.3109   -1.8407 H   0  0  0  0  0  0  0  0  0  0  0  0
   -0.6861    1.4008    1.0287 H   0  0  0  0  0  0  0  0  0  0  0  0
   -1.0492   -0.0971    1.8924 H   0  0  0  0  0  0  0  0  0  0  0  0
   -2.0971    0.4363    0.5680 H   0  0  0  0  0  0  0  0  0  0  0  0
  1  2  3  0
  1  6  1  0
  2  3  1  0
  3  4  1  0
  3  5  1  0
  3  7  1  0
  4  8  1  0
  4  9  1  0
  4 10  1  0
  5 11  1  0
  5 12  1  0
  5 13  1  0
M  END
>  <reaction>  (1) 
rxn_1322

>  <mol_properties>  (1) 
{"2": {"label": "donator", "atom_type": "Cs"}, "6": {"label": "d_hydrogen", "atom_type": "H0"}}

>  <type>  (1) 
r1h

$$$$

     RDKit          3D

  7  6  0  0  0  0  0  0  0  0999 V2000
    1.3002    0.7433    2.1279 C   0  0  0  0  0  0  0  0  0  0  0  0
    0.5758    0.3292    1.2319 C   0  0  0  0  0  0  0  0  0  0  0  0
   -0.2057   -0.1176    0.2652 C   0  0  0  0  0  3  0  0  0  0  0  0
   -0.9747   -0.5572   -0.6858 C   0  0  0  0  0  0  0  0  0  0  0  0
    1.9293    1.1030    2.9060 H   0  0  0  0  0  0  0  0  0  0  0  0
   -1.9977   -0.8727   -0.4932 H   0  0  0  0  0  0  0  0  0  0  0  0
   -0.6274   -0.6280   -1.7143 H   0  0  0  0  0  0  0  0  0  0  0  0
  1  2  3  0
  1  5  1  0
  2  3  1  0
  3  4  2  3
  4  6  1  0
  4  7  1  0
M  RAD  1   3   2
M  END
>  <reaction>  (2) 
rxn_1322

>  <mol_properties>  (2) 
{"2": {"label": "acceptor", "atom_type": "Cd"}}

>  <type>  (2) 
r2

$$$$

     RDKit          3D

  8  7  0  0  0  0  0  0  0  0999 V2000
    1.9029    0.9046   -0.2050 C   0  0  0  0  0  0  0  0  0  0  0  0
    0.8517    0.4283    0.1217 C   0  0  0  0  0  0  0  0  0  0  0  0
   -0.3908   -0.1311    0.5404 C   0  0  0  0  0  0  0  0  0  0  0  0
   -1.2847   -0.6576   -0.2899 C   0  0  0  0  0  0  0  0  0  0  0  0
    2.8335    1.3255   -0.5014 H   0  0  0  0  0  0  0  0  0  0  0  0
   -0.5867   -0.1096    1.6074 H   0  0  0  0  0  0  0  0  0  0  0  0
   -2.2126   -1.0686    0.0850 H   0  0  0  0  0  0  0  0  0  0  0  0
   -1.1134   -0.6914   -1.3582 H   0  0  0  0  0  0  0  0  0  0  0  0
  1  2  3  0
  1  5  1  0
  2  3  1  0
  3  4  2  3
  3  6  1  0
  4  7  1  0
  4  8  1  0
M  END
>  <reaction>  (3) 
rxn_1322

>  <mol_properties>  (3) 
{"0": {"label": "a_hydrogen", "atom_type": "H0"}, "3": {"label": "acceptor", "atom_type": "Cd"}}

>  <type>  (3) 
r2h

$$$$

     RDKit          3D

 20 18  0  0  0  0  0  0  0  0999 V2000
   -2.1931    1.8379   -1.3609 C   0  0  0  0  0  0  0  0  0  0  0  0
   -1.1905    1.5817   -0.7501 C   0  0  0  0  0  0  0  0  0  0  0  0
   -0.0031    1.2378   -0.0156 C   0  0  0  0  0  0  0  0  0  0  0  0
    0.1008    1.8936    1.3497 C   0  0  0  0  0  0  0  0  0  0  0  0
    1.2753    1.2860   -0.8332 C   0  0  0  0  0  0  0  0  0  0  0  0
   -3.0765    2.0766   -1.9026 H   0  0  0  0  0  0  0  0  0  0  0  0
   -0.1351    0.0150    0.2538 H   0  0  0  0  0  0  0  0  0  0  0  0
   -0.8204    1.7664    1.9176 H   0  0  0  0  0  0  0  0  0  0  0  0
    0.2961    2.9644    1.2482 H   0  0  0  0  0  0  0  0  0  0  0  0
    0.9218    1.4474    1.9139 H   0  0  0  0  0  0  0  0  0  0  0  0
    1.5426    2.3196   -1.0685 H   0  0  0  0  0  0  0  0  0  0  0  0
    1.1634    0.7401   -1.7696 H   0  0  0  0  0  0  0  0  0  0  0  0
    2.0949    0.8405   -0.2665 H   0  0  0  0  0  0  0  0  0  0  0  0
    1.8282   -2.1526    1.9132 C   0  0  0  0  0  0  0  0  0  0  0  0
    0.8361   -1.8519    1.2958 C   0  0  0  0  0  0  0  0  0  0  0  0
   -0.2496   -1.3718    0.5782 C   0  0  0  0  0  3  0  0  0  0  0  0
   -1.3732   -1.8787    0.1147 C   0  0  0  0  0  0  0  0  0  0  0  0
    2.6908   -2.4493    2.4598 H   0  0  0  0  0  0  0  0  0  0  0  0
   -1.6364   -2.9221    0.2636 H   0  0  0  0  0  0  0  0  0  0  0  0
   -2.0720   -1.2565   -0.4343 H   0  0  0  0  0  0  0  0  0  0  0  0
  1  2  3  0
  1  6  1  0
  2  3  1  0
  3  4  1  0
  3  5  1  0
  3  7  1  0
  4  8  1  0
  4  9  1  0
  4 10  1  0
  5 11  1  0
  5 12  1  0
  5 13  1  0
 14 15  3  0
 14 18  1  0
 15 16  1  0
 16 17  2  3
 17 19  1  0
 17 20  1  0
M  RAD  1  16   2
M  END
>  <reaction>  (4) 
rxn_1322

>  <mol_properties>  (4) 
{"1": {"label": "*0", "atom_type": "Ct"}, "2": {"label": "*1", "atom_type": "Cs"}, "6": {"label": "*2", "atom_type": "H0"}, "14": {"label": "*4", "atom_type": "Ct"}, "15": {"label": "*3", "atom_type": "Cd"}}

>  <type>  (4) 
ts

$$$$

     RDKit          3D

 20 18  0  0  0  0  0  0  0  0999 V2000
   -0.1868    1.0410   -2.9846 C   0  0  0  0  0  0  0  0  0  0  0  0
   -0.1868    1.0410   -1.7865 C   0  0  0  0  0  0  0  0  0  0  0  0
   -0.1868    1.0649   -0.3227 C   0  0  0  0  0  3  0  0  0  0  0  0
   -1.4529    1.7414    0.2116 C   0  0  0  0  0  0  0  0  0  0  0  0
    1.0793    1.7414    0.2116 C   0  0  0  0  0  0  0  0  0  0  0  0
   -0.1868    1.0410   -4.0479 H   0  0  0  0  0  0  0  0  0  0  0  0
   -0.1868   -0.1837    0.0852 H   0  0  0  0  0  0  0  0  0  0  0  0
   -2.3500    1.2421   -0.1543 H   0  0  0  0  0  0  0  0  0  0  0  0
   -1.4903    2.7849   -0.1059 H   0  0  0  0  0  0  0  0  0  0  0  0
   -1.4603    1.7134    1.3027 H   0  0  0  0  0  0  0  0  0  0  0  0
    1.1167    2.7849   -0.1059 H   0  0  0  0  0  0  0  0  0  0  0  0
    1.9763    1.2420   -0.1543 H   0  0  0  0  0  0  0  0  0  0  0  0
    1.0866    1.7134    1.3027 H   0  0  0  0  0  0  0  0  0  0  0  0
    1.8725   -2.1356    1.9517 C   0  0  0  0  0  0  0  0  0  0  0  0
    0.9227   -1.8166    1.2925 C   0  0  0  0  0  0  0  0  0  0  0  0
   -0.1869   -1.4214    0.4895 C   0  0  0  0  0  0  0  0  0  0  0  0
   -1.4449   -1.7680    0.7402 C   0  0  0  0  0  0  0  0  0  0  0  0
    2.7147   -2.4185    2.5362 H   0  0  0  0  0  0  0  0  0  0  0  0
   -1.7027   -2.3859    1.5908 H   0  0  0  0  0  0  0  0  0  0  0  0
   -2.2483   -1.4381    0.0949 H   0  0  0  0  0  0  0  0  0  0  0  0
  1  2  3  0
  1  6  1  0
  2  3  1  0
  3  4  1  0
  3  5  1  0
  4  8  1  0
  4  9  1  0
  4 10  1  0
  5 11  1  0
  5 12  1  0
  5 13  1  0
  7 16  1  0
 14 15  3  0
 14 18  1  0
 15 16  1  0
 16 17  2  3
 17 19  1  0
 17 20  1  0
M  RAD  1   3   2
M  END
>  <reaction>  (5) 
rxn_1322

>  <mol_properties>  (5) 
{"1": {"label": "*0", "atom_type": "Ct"}, "2": {"label": "*1", "atom_type": "Cs"}, "6": {"label": "*2", "atom_type": "H0"}, "14": {"label": "*4", "atom_type": "Ct"}, "15": {"label": "*3", "atom_type": "Cd"}}

>  <type>  (5) 
unop_1

>  <geom_source>  (5) 
Heuristics

$$$$

     RDKit          3D

 20 18  0  0  0  0  0  0  0  0999 V2000
   -0.1635    1.1936   -2.6000 C   0  0  0  0  0  0  0  0  0  0  0  0
   -0.1635    1.1936   -1.4019 C   0  0  0  0  0  0  0  0  0  0  0  0
   -0.1635    1.2176    0.0619 C   0  0  0  0  0  3  0  0  0  0  0  0
   -1.4296    1.8940    0.5963 C   0  0  0  0  0  0  0  0  0  0  0  0
    1.1027    1.8940    0.5963 C   0  0  0  0  0  0  0  0  0  0  0  0
   -0.1635    1.1936   -3.6633 H   0  0  0  0  0  0  0  0  0  0  0  0
   -0.1635   -0.0311    0.4698 H   0  0  0  0  0  0  0  0  0  0  0  0
   -2.3266    1.3947    0.2303 H   0  0  0  0  0  0  0  0  0  0  0  0
   -1.4669    2.9375    0.2787 H   0  0  0  0  0  0  0  0  0  0  0  0
   -1.4369    1.8660    1.6873 H   0  0  0  0  0  0  0  0  0  0  0  0
    1.1400    2.9375    0.2787 H   0  0  0  0  0  0  0  0  0  0  0  0
    1.9997    1.3947    0.2303 H   0  0  0  0  0  0  0  0  0  0  0  0
    1.1100    1.8660    1.6873 H   0  0  0  0  0  0  0  0  0  0  0  0
    1.0144   -2.9795   -0.7307 C   0  0  0  0  0  0  0  0  0  0  0  0
    0.4771   -2.2074    0.0134 C   0  0  0  0  0  0  0  0  0  0  0  0
   -0.1635   -1.2688    0.8741 C   0  0  0  0  0  0  0  0  0  0  0  0
   -0.4338   -1.5004    2.1543 C   0  0  0  0  0  0  0  0  0  0  0  0
    1.4908   -3.6641   -1.3905 H   0  0  0  0  0  0  0  0  0  0  0  0
   -0.1753   -2.4397    2.6261 H   0  0  0  0  0  0  0  0  0  0  0  0
   -0.9227   -0.7495    2.7607 H   0  0  0  0  0  0  0  0  0  0  0  0
  1  2  3  0
  1  6  1  0
  2  3  1  0
  3  4  1  0
  3  5  1  0
  4  8  1  0
  4  9  1  0
  4 10  1  0
  5 11  1  0
  5 12  1  0
  5 13  1  0
  7 16  1  0
 14 15  3  0
 14 18  1  0
 15 16  1  0
 16 17  2  3
 17 19  1  0
 17 20  1  0
M  RAD  1   3   2
M  END
>  <reaction>  (6) 
rxn_1322

>  <mol_properties>  (6) 
{"1": {"label": "*0", "atom_type": "Ct"}, "2": {"label": "*1", "atom_type": "Cs"}, "6": {"label": "*2", "atom_type": "H0"}, "14": {"label": "*4", "atom_type": "Ct"}, "15": {"label": "*3", "atom_type": "Cd"}}

>  <type>  (6) 
unop_2

>  <geom_source>  (6) 
Heuristics

$$$$

     RDKit          3D

 20 18  0  0  0  0  0  0  0  0999 V2000
   -0.0686    1.0375   -3.0363 C   0  0  0  0  0  0  0  0  0  0  0  0
   -0.0686    1.0375   -1.8383 C   0  0  0  0  0  0  0  0  0  0  0  0
   -0.0686    1.0615   -0.3745 C   0  0  0  0  0  3  0  0  0  0  0  0
   -1.3347    1.7379    0.1599 C   0  0  0  0  0  0  0  0  0  0  0  0
    1.1975    1.7379    0.1599 C   0  0  0  0  0  0  0  0  0  0  0  0
   -0.0686    1.0375   -4.0997 H   0  0  0  0  0  0  0  0  0  0  0  0
   -0.0687   -0.1872    0.0334 H   0  0  0  0  0  0  0  0  0  0  0  0
   -2.2318    1.2386   -0.2060 H   0  0  0  0  0  0  0  0  0  0  0  0
   -1.3721    2.7815   -0.1576 H   0  0  0  0  0  0  0  0  0  0  0  0
   -1.3421    1.7099    1.2510 H   0  0  0  0  0  0  0  0  0  0  0  0
    1.2349    2.7814   -0.1576 H   0  0  0  0  0  0  0  0  0  0  0  0
    2.0945    1.2386   -0.2060 H   0  0  0  0  0  0  0  0  0  0  0  0
    1.2048    1.7099    1.2510 H   0  0  0  0  0  0  0  0  0  0  0  0
    1.1281   -1.8646    2.7320 C   0  0  0  0  0  0  0  0  0  0  0  0
    0.5719   -1.6744    1.6865 C   0  0  0  0  0  0  0  0  0  0  0  0
   -0.0687   -1.4249    0.4377 C   0  0  0  0  0  0  0  0  0  0  0  0
   -1.1166   -2.1093   -0.0084 C   0  0  0  0  0  0  0  0  0  0  0  0
    1.6213   -2.0332    3.6590 H   0  0  0  0  0  0  0  0  0  0  0  0
   -1.5527   -2.9154    0.5677 H   0  0  0  0  0  0  0  0  0  0  0  0
   -1.5628   -1.8754   -0.9659 H   0  0  0  0  0  0  0  0  0  0  0  0
  1  2  3  0
  1  6  1  0
  2  3  1  0
  3  4  1  0
  3  5  1  0
  4  8  1  0
  4  9  1  0
  4 10  1  0
  5 11  1  0
  5 12  1  0
  5 13  1  0
  7 16  1  0
 14 15  3  0
 14 18  1  0
 15 16  1  0
 16 17  2  3
 17 19  1  0
 17 20  1  0
M  RAD  1   3   2
M  END
>  <reaction>  (7) 
rxn_1322

>  <mol_properties>  (7) 
{"1": {"label": "*0", "atom_type": "Ct"}, "2": {"label": "*1", "atom_type": "Cs"}, "6": {"label": "*2", "atom_type": "H0"}, "14": {"label": "*4", "atom_type": "Ct"}, "15": {"label": "*3", "atom_type": "Cd"}}

>  <type>  (7) 
unop_3

>  <geom_source>  (7) 
Heuristics

$$$$

     RDKit          3D

 20 18  0  0  0  0  0  0  0  0999 V2000
    0.2621    1.1410   -2.7211 C   0  0  0  0  0  0  0  0  0  0  0  0
    0.2621    1.1410   -1.5230 C   0  0  0  0  0  0  0  0  0  0  0  0
    0.2621    1.1649   -0.0592 C   0  0  0  0  0  3  0  0  0  0  0  0
   -1.0040    1.8414    0.4752 C   0  0  0  0  0  0  0  0  0  0  0  0
    1.5282    1.8413    0.4752 C   0  0  0  0  0  0  0  0  0  0  0  0
    0.2621    1.1410   -3.7844 H   0  0  0  0  0  0  0  0  0  0  0  0
    0.2621   -0.0837    0.3487 H   0  0  0  0  0  0  0  0  0  0  0  0
   -1.9011    1.3421    0.1093 H   0  0  0  0  0  0  0  0  0  0  0  0
   -1.0414    2.8849    0.1577 H   0  0  0  0  0  0  0  0  0  0  0  0
   -1.0113    1.8134    1.5662 H   0  0  0  0  0  0  0  0  0  0  0  0
    1.5656    2.8849    0.1577 H   0  0  0  0  0  0  0  0  0  0  0  0
    2.4253    1.3420    0.1093 H   0  0  0  0  0  0  0  0  0  0  0  0
    1.5356    1.8133    1.5662 H   0  0  0  0  0  0  0  0  0  0  0  0
   -1.7824   -2.7674   -0.0335 C   0  0  0  0  0  0  0  0  0  0  0  0
   -0.8475   -2.1144    0.3381 C   0  0  0  0  0  0  0  0  0  0  0  0
    0.2621   -1.3214    0.7530 C   0  0  0  0  0  0  0  0  0  0  0  0
    0.9032   -1.4875    1.9050 C   0  0  0  0  0  0  0  0  0  0  0  0
   -2.6113   -3.3464   -0.3631 H   0  0  0  0  0  0  0  0  0  0  0  0
    0.6099   -2.2547    2.6102 H   0  0  0  0  0  0  0  0  0  0  0  0
    1.7405   -0.8548    2.1679 H   0  0  0  0  0  0  0  0  0  0  0  0
  1  2  3  0
  1  6  1  0
  2  3  1  0
  3  4  1  0
  3  5  1  0
  4  8  1  0
  4  9  1  0
  4 10  1  0
  5 11  1  0
  5 12  1  0
  5 13  1  0
  7 16  1  0
 14 15  3  0
 14 18  1  0
 15 16  1  0
 16 17  2  3
 17 19  1  0
 17 20  1  0
M  RAD  1   3   2
M  END
>  <reaction>  (8) 
rxn_1322

>  <mol_properties>  (8) 
{"1": {"label": "*0", "atom_type": "Ct"}, "2": {"label": "*1", "atom_type": "Cs"}, "6": {"label": "*2", "atom_type": "H0"}, "14": {"label": "*4", "atom_type": "Ct"}, "15": {"label": "*3", "atom_type": "Cd"}}

>  <type>  (8) 
unop_4

>  <geom_source>  (8) 
Heuristics

$$$$

     RDKit          3D

 20 18  0  0  0  0  0  0  0  0999 V2000
    0.0000    1.0584   -3.0327 C   0  0  0  0  0  0  0  0  0  0  0  0
    0.0000    1.0584   -1.8346 C   0  0  0  0  0  0  0  0  0  0  0  0
    0.0000    1.0824   -0.3708 C   0  0  0  0  0  3  0  0  0  0  0  0
   -1.2661    1.7588    0.1636 C   0  0  0  0  0  0  0  0  0  0  0  0
    1.2661    1.7588    0.1636 C   0  0  0  0  0  0  0  0  0  0  0  0
    0.0000    1.0584   -4.0960 H   0  0  0  0  0  0  0  0  0  0  0  0
   -0.0000   -0.1663    0.0371 H   0  0  0  0  0  0  0  0  0  0  0  0
   -2.1631    1.2595   -0.2024 H   0  0  0  0  0  0  0  0  0  0  0  0
   -1.3034    2.8023   -0.1539 H   0  0  0  0  0  0  0  0  0  0  0  0
   -1.2734    1.7308    1.2546 H   0  0  0  0  0  0  0  0  0  0  0  0
    1.3035    2.8023   -0.1539 H   0  0  0  0  0  0  0  0  0  0  0  0
    2.1632    1.2595   -0.2024 H   0  0  0  0  0  0  0  0  0  0  0  0
    1.2735    1.7308    1.2546 H   0  0  0  0  0  0  0  0  0  0  0  0
   -0.0000   -1.7388    3.0447 C   0  0  0  0  0  0  0  0  0  0  0  0
   -0.0000   -1.6002    1.8534 C   0  0  0  0  0  0  0  0  0  0  0  0
   -0.0000   -1.4040    0.4414 C   0  0  0  0  0  0  0  0  0  0  0  0
   -0.0000   -2.3937   -0.4452 C   0  0  0  0  0  0  0  0  0  0  0  0
   -0.0000   -1.8617    4.1011 H   0  0  0  0  0  0  0  0  0  0  0  0
   -0.0001   -3.4309   -0.1352 H   0  0  0  0  0  0  0  0  0  0  0  0
   -0.0000   -2.1850   -1.5068 H   0  0  0  0  0  0  0  0  0  0  0  0
  1  2  3  0
  1  6  1  0
  2  3  1  0
  3  4  1  0
  3  5  1  0
  4  8  1  0
  4  9  1  0
  4 10  1  0
  5 11  1  0
  5 12  1  0
  5 13  1  0
  7 16  1  0
 14 15  3  0
 14 18  1  0
 15 16  1  0
 16 17  2  3
 17 19  1  0
 17 20  1  0
M  RAD  1   3   2
M  END
>  <reaction>  (9) 
rxn_1322

>  <mol_properties>  (9) 
{"1": {"label": "*0", "atom_type": "Ct"}, "2": {"label": "*1", "atom_type": "Cs"}, "6": {"label": "*2", "atom_type": "H0"}, "14": {"label": "*4", "atom_type": "Ct"}, "15": {"label": "*3", "atom_type": "Cd"}}

>  <type>  (9) 
unop_5

>  <geom_source>  (9) 
Heuristics

$$$$

     RDKit          3D

 20 18  0  0  0  0  0  0  0  0999 V2000
    0.2668    1.0822   -2.8665 C   0  0  0  0  0  0  0  0  0  0  0  0
    0.2668    1.0822   -1.6684 C   0  0  0  0  0  0  0  0  0  0  0  0
    0.2668    1.1062   -0.2046 C   0  0  0  0  0  3  0  0  0  0  0  0
   -0.9993    1.7826    0.3297 C   0  0  0  0  0  0  0  0  0  0  0  0
    1.5329    1.7826    0.3297 C   0  0  0  0  0  0  0  0  0  0  0  0
    0.2668    1.0822   -3.9299 H   0  0  0  0  0  0  0  0  0  0  0  0
    0.2668   -0.1425    0.2032 H   0  0  0  0  0  0  0  0  0  0  0  0
   -1.8964    1.2833   -0.0362 H   0  0  0  0  0  0  0  0  0  0  0  0
   -1.0367    2.8261    0.0122 H   0  0  0  0  0  0  0  0  0  0  0  0
   -1.0067    1.7546    1.4208 H   0  0  0  0  0  0  0  0  0  0  0  0
    1.5703    2.8261    0.0122 H   0  0  0  0  0  0  0  0  0  0  0  0
    2.4300    1.2833   -0.0362 H   0  0  0  0  0  0  0  0  0  0  0  0
    1.5403    1.7546    1.4208 H   0  0  0  0  0  0  0  0  0  0  0  0
   -2.1011   -2.4620    0.9427 C   0  0  0  0  0  0  0  0  0  0  0  0
   -1.0145   -1.9743    0.8016 C   0  0  0  0  0  0  0  0  0  0  0  0
    0.2668   -1.3802    0.6075 C   0  0  0  0  0  0  0  0  0  0  0  0
    1.3010   -1.5647    1.4212 C   0  0  0  0  0  0  0  0  0  0  0  0
   -3.0646   -2.8945    1.0677 H   0  0  0  0  0  0  0  0  0  0  0  0
    1.2249   -2.1930    2.2993 H   0  0  0  0  0  0  0  0  0  0  0  0
    2.2517   -1.0873    1.2239 H   0  0  0  0  0  0  0  0  0  0  0  0
  1  2  3  0
  1  6  1  0
  2  3  1  0
  3  4  1  0
  3  5  1  0
  4  8  1  0
  4  9  1  0
  4 10  1  0
  5 11  1  0
  5 12  1  0
  5 13  1  0
  7 16  1  0
 14 15  3  0
 14 18  1  0
 15 16  1  0
 16 17  2  3
 17 19  1  0
 17 20  1  0
M  RAD  1   3   2
M  END
>  <reaction>  (10) 
rxn_1322

>  <mol_properties>  (10) 
{"1": {"label": "*0", "atom_type": "Ct"}, "2": {"label": "*1", "atom_type": "Cs"}, "6": {"label": "*2", "atom_type": "H0"}, "14": {"label": "*4", "atom_type": "Ct"}, "15": {"label": "*3", "atom_type": "Cd"}}

>  <type>  (10) 
unop_6

>  <geom_source>  (10) 
Heuristics

$$$$

     RDKit          3D

 20 18  0  0  0  0  0  0  0  0999 V2000
    0.1869    1.0410   -2.9846 C   0  0  0  0  0  0  0  0  0  0  0  0
    0.1869    1.0410   -1.7865 C   0  0  0  0  0  0  0  0  0  0  0  0
    0.1869    1.0649   -0.3227 C   0  0  0  0  0  3  0  0  0  0  0  0
   -1.0793    1.7414    0.2116 C   0  0  0  0  0  0  0  0  0  0  0  0
    1.4530    1.7414    0.2116 C   0  0  0  0  0  0  0  0  0  0  0  0
    0.1869    1.0410   -4.0479 H   0  0  0  0  0  0  0  0  0  0  0  0
    0.1868   -0.1837    0.0852 H   0  0  0  0  0  0  0  0  0  0  0  0
   -1.9763    1.2421   -0.1543 H   0  0  0  0  0  0  0  0  0  0  0  0
   -1.1166    2.7849   -0.1059 H   0  0  0  0  0  0  0  0  0  0  0  0
   -1.0866    1.7134    1.3027 H   0  0  0  0  0  0  0  0  0  0  0  0
    1.4904    2.7849   -0.1059 H   0  0  0  0  0  0  0  0  0  0  0  0
    2.3500    1.2420   -0.1543 H   0  0  0  0  0  0  0  0  0  0  0  0
    1.4603    1.7134    1.3027 H   0  0  0  0  0  0  0  0  0  0  0  0
   -1.8726   -2.1356    1.9517 C   0  0  0  0  0  0  0  0  0  0  0  0
   -0.9227   -1.8166    1.2925 C   0  0  0  0  0  0  0  0  0  0  0  0
    0.1868   -1.4214    0.4895 C   0  0  0  0  0  0  0  0  0  0  0  0
    1.4449   -1.7680    0.7402 C   0  0  0  0  0  0  0  0  0  0  0  0
   -2.7148   -2.4184    2.5362 H   0  0  0  0  0  0  0  0  0  0  0  0
    1.7026   -2.3859    1.5908 H   0  0  0  0  0  0  0  0  0  0  0  0
    2.2483   -1.4382    0.0949 H   0  0  0  0  0  0  0  0  0  0  0  0
  1  2  3  0
  1  6  1  0
  2  3  1  0
  3  4  1  0
  3  5  1  0
  4  8  1  0
  4  9  1  0
  4 10  1  0
  5 11  1  0
  5 12  1  0
  5 13  1  0
  7 16  1  0
 14 15  3  0
 14 18  1  0
 15 16  1  0
 16 17  2  3
 17 19  1  0
 17 20  1  0
M  RAD  1   3   2
M  END
>  <reaction>  (11) 
rxn_1322

>  <mol_properties>  (11) 
{"1": {"label": "*0", "atom_type": "Ct"}, "2": {"label": "*1", "atom_type": "Cs"}, "6": {"label": "*2", "atom_type": "H0"}, "14": {"label": "*4", "atom_type": "Ct"}, "15": {"label": "*3", "atom_type": "Cd"}}

>  <type>  (11) 
unop_7

>  <geom_source>  (11) 
Heuristics

$$$$

     RDKit          3D

 20 18  0  0  0  0  0  0  0  0999 V2000
   -0.2668    1.0822   -2.8665 C   0  0  0  0  0  0  0  0  0  0  0  0
   -0.2668    1.0822   -1.6684 C   0  0  0  0  0  0  0  0  0  0  0  0
   -0.2668    1.1062   -0.2046 C   0  0  0  0  0  3  0  0  0  0  0  0
   -1.5329    1.7826    0.3297 C   0  0  0  0  0  0  0  0  0  0  0  0
    0.9994    1.7826    0.3297 C   0  0  0  0  0  0  0  0  0  0  0  0
   -0.2668    1.0822   -3.9299 H   0  0  0  0  0  0  0  0  0  0  0  0
   -0.2668   -0.1425    0.2032 H   0  0  0  0  0  0  0  0  0  0  0  0
   -2.4299    1.2833   -0.0362 H   0  0  0  0  0  0  0  0  0  0  0  0
   -1.5702    2.8261    0.0122 H   0  0  0  0  0  0  0  0  0  0  0  0
   -1.5402    1.7546    1.4208 H   0  0  0  0  0  0  0  0  0  0  0  0
    1.0367    2.8261    0.0122 H   0  0  0  0  0  0  0  0  0  0  0  0
    1.8964    1.2833   -0.0362 H   0  0  0  0  0  0  0  0  0  0  0  0
    1.0067    1.7546    1.4208 H   0  0  0  0  0  0  0  0  0  0  0  0
    2.1010   -2.4621    0.9427 C   0  0  0  0  0  0  0  0  0  0  0  0
    1.0144   -1.9743    0.8016 C   0  0  0  0  0  0  0  0  0  0  0  0
   -0.2668   -1.3802    0.6075 C   0  0  0  0  0  0  0  0  0  0  0  0
   -1.3010   -1.5646    1.4212 C   0  0  0  0  0  0  0  0  0  0  0  0
    3.0645   -2.8945    1.0677 H   0  0  0  0  0  0  0  0  0  0  0  0
   -1.2250   -2.1929    2.2993 H   0  0  0  0  0  0  0  0  0  0  0  0
   -2.2517   -1.0873    1.2239 H   0  0  0  0  0  0  0  0  0  0  0  0
  1  2  3  0
  1  6  1  0
  2  3  1  0
  3  4  1  0
  3  5  1  0
  4  8  1  0
  4  9  1  0
  4 10  1  0
  5 11  1  0
  5 12  1  0
  5 13  1  0
  7 16  1  0
 14 15  3  0
 14 18  1  0
 15 16  1  0
 16 17  2  3
 17 19  1  0
 17 20  1  0
M  RAD  1   3   2
M  END
>  <reaction>  (12) 
rxn_1322

>  <mol_properties>  (12) 
{"1": {"label": "*0", "atom_type": "Ct"}, "2": {"label": "*1", "atom_type": "Cs"}, "6": {"label": "*2", "atom_type": "H0"}, "14": {"label": "*4", "atom_type": "Ct"}, "15": {"label": "*3", "atom_type": "Cd"}}

>  <type>  (12) 
unop_8

>  <geom_source>  (12) 
Heuristics

$$$$

     RDKit          3D

 20 18  0  0  0  0  0  0  0  0999 V2000
    0.1635    1.1936   -2.6000 C   0  0  0  0  0  0  0  0  0  0  0  0
    0.1635    1.1936   -1.4019 C   0  0  0  0  0  0  0  0  0  0  0  0
    0.1635    1.2176    0.0619 C   0  0  0  0  0  3  0  0  0  0  0  0
   -1.1026    1.8940    0.5963 C   0  0  0  0  0  0  0  0  0  0  0  0
    1.4296    1.8940    0.5963 C   0  0  0  0  0  0  0  0  0  0  0  0
    0.1635    1.1936   -3.6633 H   0  0  0  0  0  0  0  0  0  0  0  0
    0.1635   -0.0311    0.4698 H   0  0  0  0  0  0  0  0  0  0  0  0
   -1.9997    1.3947    0.2303 H   0  0  0  0  0  0  0  0  0  0  0  0
   -1.1399    2.9375    0.2787 H   0  0  0  0  0  0  0  0  0  0  0  0
   -1.1099    1.8660    1.6873 H   0  0  0  0  0  0  0  0  0  0  0  0
    1.4670    2.9375    0.2787 H   0  0  0  0  0  0  0  0  0  0  0  0
    2.3267    1.3947    0.2303 H   0  0  0  0  0  0  0  0  0  0  0  0
    1.4370    1.8660    1.6873 H   0  0  0  0  0  0  0  0  0  0  0  0
   -1.0145   -2.9794   -0.7307 C   0  0  0  0  0  0  0  0  0  0  0  0
   -0.4771   -2.2074    0.0134 C   0  0  0  0  0  0  0  0  0  0  0  0
    0.1635   -1.2688    0.8741 C   0  0  0  0  0  0  0  0  0  0  0  0
    0.4337   -1.5004    2.1543 C   0  0  0  0  0  0  0  0  0  0  0  0
   -1.4909   -3.6640   -1.3905 H   0  0  0  0  0  0  0  0  0  0  0  0
    0.1752   -2.4397    2.6261 H   0  0  0  0  0  0  0  0  0  0  0  0
    0.9227   -0.7495    2.7607 H   0  0  0  0  0  0  0  0  0  0  0  0
  1  2  3  0
  1  6  1  0
  2  3  1  0
  3  4  1  0
  3  5  1  0
  4  8  1  0
  4  9  1  0
  4 10  1  0
  5 11  1  0
  5 12  1  0
  5 13  1  0
  7 16  1  0
 14 15  3  0
 14 18  1  0
 15 16  1  0
 16 17  2  3
 17 19  1  0
 17 20  1  0
M  RAD  1   3   2
M  END
>  <reaction>  (13) 
rxn_1322

>  <mol_properties>  (13) 
{"1": {"label": "*0", "atom_type": "Ct"}, "2": {"label": "*1", "atom_type": "Cs"}, "6": {"label": "*2", "atom_type": "H0"}, "14": {"label": "*4", "atom_type": "Ct"}, "15": {"label": "*3", "atom_type": "Cd"}}

>  <type>  (13) 
unop_9

>  <geom_source>  (13) 
Heuristics

$$$$

     RDKit          3D

 20 18  0  0  0  0  0  0  0  0999 V2000
   -0.2621    1.1410   -2.7211 C   0  0  0  0  0  0  0  0  0  0  0  0
   -0.2621    1.1410   -1.5230 C   0  0  0  0  0  0  0  0  0  0  0  0
   -0.2621    1.1649   -0.0592 C   0  0  0  0  0  3  0  0  0  0  0  0
   -1.5282    1.8414    0.4752 C   0  0  0  0  0  0  0  0  0  0  0  0
    1.0041    1.8413    0.4752 C   0  0  0  0  0  0  0  0  0  0  0  0
   -0.2621    1.1410   -3.7844 H   0  0  0  0  0  0  0  0  0  0  0  0
   -0.2621   -0.0837    0.3487 H   0  0  0  0  0  0  0  0  0  0  0  0
   -2.4252    1.3421    0.1093 H   0  0  0  0  0  0  0  0  0  0  0  0
   -1.5655    2.8849    0.1577 H   0  0  0  0  0  0  0  0  0  0  0  0
   -1.5355    1.8134    1.5662 H   0  0  0  0  0  0  0  0  0  0  0  0
    1.0414    2.8849    0.1577 H   0  0  0  0  0  0  0  0  0  0  0  0
    1.9011    1.3420    0.1093 H   0  0  0  0  0  0  0  0  0  0  0  0
    1.0114    1.8133    1.5662 H   0  0  0  0  0  0  0  0  0  0  0  0
    1.7823   -2.7675   -0.0335 C   0  0  0  0  0  0  0  0  0  0  0  0
    0.8474   -2.1144    0.3381 C   0  0  0  0  0  0  0  0  0  0  0  0
   -0.2621   -1.3214    0.7530 C   0  0  0  0  0  0  0  0  0  0  0  0
   -0.9032   -1.4875    1.9050 C   0  0  0  0  0  0  0  0  0  0  0  0
    2.6112   -3.3465   -0.3631 H   0  0  0  0  0  0  0  0  0  0  0  0
   -0.6100   -2.2546    2.6102 H   0  0  0  0  0  0  0  0  0  0  0  0
   -1.7405   -0.8547    2.1679 H   0  0  0  0  0  0  0  0  0  0  0  0
  1  2  3  0
  1  6  1  0
  2  3  1  0
  3  4  1  0
  3  5  1  0
  4  8  1  0
  4  9  1  0
  4 10  1  0
  5 11  1  0
  5 12  1  0
  5 13  1  0
  7 16  1  0
 14 15  3  0
 14 18  1  0
 15 16  1  0
 16 17  2  3
 17 19  1  0
 17 20  1  0
M  RAD  1   3   2
M  END
>  <reaction>  (14) 
rxn_1322

>  <mol_properties>  (14) 
{"1": {"label": "*0", "atom_type": "Ct"}, "2": {"label": "*1", "atom_type": "Cs"}, "6": {"label": "*2", "atom_type": "H0"}, "14": {"label": "*4", "atom_type": "Ct"}, "15": {"label": "*3", "atom_type": "Cd"}}

>  <type>  (14) 
unop_10

>  <geom_source>  (14) 
Heuristics

$$$$

     RDKit          3D

 20 18  0  0  0  0  0  0  0  0999 V2000
    0.0687    1.0375   -3.0363 C   0  0  0  0  0  0  0  0  0  0  0  0
    0.0687    1.0375   -1.8383 C   0  0  0  0  0  0  0  0  0  0  0  0
    0.0687    1.0615   -0.3745 C   0  0  0  0  0  3  0  0  0  0  0  0
   -1.1974    1.7379    0.1599 C   0  0  0  0  0  0  0  0  0  0  0  0
    1.3348    1.7379    0.1599 C   0  0  0  0  0  0  0  0  0  0  0  0
    0.0687    1.0375   -4.0997 H   0  0  0  0  0  0  0  0  0  0  0  0
    0.0686   -0.1872    0.0334 H   0  0  0  0  0  0  0  0  0  0  0  0
   -2.0945    1.2386   -0.2060 H   0  0  0  0  0  0  0  0  0  0  0  0
   -1.2348    2.7815   -0.1576 H   0  0  0  0  0  0  0  0  0  0  0  0
   -1.2048    1.7099    1.2510 H   0  0  0  0  0  0  0  0  0  0  0  0
    1.3722    2.7814   -0.1576 H   0  0  0  0  0  0  0  0  0  0  0  0
    2.2318    1.2386   -0.2060 H   0  0  0  0  0  0  0  0  0  0  0  0
    1.3421    1.7099    1.2510 H   0  0  0  0  0  0  0  0  0  0  0  0
   -1.1282   -1.8646    2.7320 C   0  0  0  0  0  0  0  0  0  0  0  0
   -0.5720   -1.6744    1.6865 C   0  0  0  0  0  0  0  0  0  0  0  0
    0.0686   -1.4249    0.4377 C   0  0  0  0  0  0  0  0  0  0  0  0
    1.1166   -2.1093   -0.0084 C   0  0  0  0  0  0  0  0  0  0  0  0
   -1.6213   -2.0332    3.6590 H   0  0  0  0  0  0  0  0  0  0  0  0
    1.5526   -2.9154    0.5677 H   0  0  0  0  0  0  0  0  0  0  0  0
    1.5627   -1.8755   -0.9659 H   0  0  0  0  0  0  0  0  0  0  0  0
  1  2  3  0
  1  6  1  0
  2  3  1  0
  3  4  1  0
  3  5  1  0
  4  8  1  0
  4  9  1  0
  4 10  1  0
  5 11  1  0
  5 12  1  0
  5 13  1  0
  7 16  1  0
 14 15  3  0
 14 18  1  0
 15 16  1  0
 16 17  2  3
 17 19  1  0
 17 20  1  0
M  RAD  1   3   2
M  END
>  <reaction>  (15) 
rxn_1322

>  <mol_properties>  (15) 
{"1": {"label": "*0", "atom_type": "Ct"}, "2": {"label": "*1", "atom_type": "Cs"}, "6": {"label": "*2", "atom_type": "H0"}, "14": {"label": "*4", "atom_type": "Ct"}, "15": {"label": "*3", "atom_type": "Cd"}}

>  <type>  (15) 
unop_11

>  <geom_source>  (15) 
Heuristics

$$$$

     RDKit          3D

 20 18  0  0  0  0  0  0  0  0999 V2000
    0.0000    1.2153   -2.5524 C   0  0  0  0  0  0  0  0  0  0  0  0
    0.0000    1.2153   -1.3543 C   0  0  0  0  0  0  0  0  0  0  0  0
    0.0000    1.2393    0.1095 C   0  0  0  0  0  3  0  0  0  0  0  0
   -1.2661    1.9157    0.6439 C   0  0  0  0  0  0  0  0  0  0  0  0
    1.2661    1.9157    0.6439 C   0  0  0  0  0  0  0  0  0  0  0  0
    0.0000    1.2153   -3.6157 H   0  0  0  0  0  0  0  0  0  0  0  0
   -0.0000   -0.0094    0.5174 H   0  0  0  0  0  0  0  0  0  0  0  0
   -2.1631    1.4164    0.2780 H   0  0  0  0  0  0  0  0  0  0  0  0
   -1.3034    2.9592    0.3264 H   0  0  0  0  0  0  0  0  0  0  0  0
   -1.2734    1.8877    1.7349 H   0  0  0  0  0  0  0  0  0  0  0  0
    1.3035    2.9592    0.3264 H   0  0  0  0  0  0  0  0  0  0  0  0
    2.1632    1.4164    0.2780 H   0  0  0  0  0  0  0  0  0  0  0  0
    1.2735    1.8877    1.7349 H   0  0  0  0  0  0  0  0  0  0  0  0
   -0.0000   -3.0542   -0.9819 C   0  0  0  0  0  0  0  0  0  0  0  0
   -0.0000   -2.2390   -0.1021 C   0  0  0  0  0  0  0  0  0  0  0  0
   -0.0000   -1.2471    0.9217 C   0  0  0  0  0  0  0  0  0  0  0  0
   -0.0000   -1.5226    2.2216 C   0  0  0  0  0  0  0  0  0  0  0  0
   -0.0001   -3.7769   -1.7620 H   0  0  0  0  0  0  0  0  0  0  0  0
   -0.0000   -2.5427    2.5837 H   0  0  0  0  0  0  0  0  0  0  0  0
   -0.0000   -0.7274    2.9553 H   0  0  0  0  0  0  0  0  0  0  0  0
  1  2  3  0
  1  6  1  0
  2  3  1  0
  3  4  1  0
  3  5  1  0
  4  8  1  0
  4  9  1  0
  4 10  1  0
  5 11  1  0
  5 12  1  0
  5 13  1  0
  7 16  1  0
 14 15  3  0
 14 18  1  0
 15 16  1  0
 16 17  2  3
 17 19  1  0
 17 20  1  0
M  RAD  1   3   2
M  END
>  <reaction>  (16) 
rxn_1322

>  <mol_properties>  (16) 
{"1": {"label": "*0", "atom_type": "Ct"}, "2": {"label": "*1", "atom_type": "Cs"}, "6": {"label": "*2", "atom_type": "H0"}, "14": {"label": "*4", "atom_type": "Ct"}, "15": {"label": "*3", "atom_type": "Cd"}}

>  <type>  (16) 
unop_12

>  <geom_source>  (16) 
Heuristics

$$$$

     RDKit          3D

 20 18  0  0  0  0  0  0  0  0999 V2000
   -1.1378    1.1266   -1.3116 C   0  0  0  0  0  0  0  0  0  0  0  0
   -1.4482   -1.3474   -0.9028 C   0  0  0  0  0  0  0  0  0  0  0  0
   -0.8921   -0.0357   -0.3508 C   0  0  0  0  0  3  0  0  0  0  0  0
    1.5262   -0.2554    0.5648 C   0  0  0  0  0  0  0  0  0  0  0  0
    1.7769   -0.5483    1.8355 C   0  0  0  0  0  0  0  0  0  0  0  0
   -1.4692    0.2550    0.9703 C   0  0  0  0  0  0  0  0  0  0  0  0
    2.5519    0.2906   -0.2825 C   0  0  0  0  0  0  0  0  0  0  0  0
    3.4109    0.7484   -0.9937 C   0  0  0  0  0  0  0  0  0  0  0  0
   -1.9416    0.4933    2.0537 C   0  0  0  0  0  0  0  0  0  0  0  0
   -2.2269    1.2857   -1.4677 H   0  0  0  0  0  0  0  0  0  0  0  0
   -0.6897    2.0572   -0.9028 H   0  0  0  0  0  0  0  0  0  0  0  0
   -0.6590    0.9145   -2.2908 H   0  0  0  0  0  0  0  0  0  0  0  0
   -1.2214   -2.1795   -0.2027 H   0  0  0  0  0  0  0  0  0  0  0  0
   -2.5490   -1.2808   -1.0436 H   0  0  0  0  0  0  0  0  0  0  0  0
   -0.9718   -1.5783   -1.8789 H   0  0  0  0  0  0  0  0  0  0  0  0
    0.3819   -0.4559    0.0933 H   0  0  0  0  0  0  0  0  0  0  0  0
    0.9926   -0.9584    2.4576 H   0  0  0  0  0  0  0  0  0  0  0  0
    2.7576   -0.3841    2.2659 H   0  0  0  0  0  0  0  0  0  0  0  0
    4.1651    1.1502   -1.6180 H   0  0  0  0  0  0  0  0  0  0  0  0
   -2.3563    0.7024    3.0046 H   0  0  0  0  0  0  0  0  0  0  0  0
  1  3  1  0
  1 10  1  0
  1 11  1  0
  1 12  1  0
  2  3  1  0
  2 13  1  0
  2 14  1  0
  2 15  1  0
  3  6  1  0
  4  5  2  3
  4  7  1  0
  4 16  1  0
  5 17  1  0
  5 18  1  0
  6  9  3  0
  7  8  3  0
  8 19  1  0
  9 20  1  0
M  RAD  1   3   2
M  END
>  <reaction>  (17) 
rxn_1322

>  <mol_properties>  (17) 
{"1": {"label": "*0", "atom_type": "Ct"}, "2": {"label": "*1", "atom_type": "Cs"}, "6": {"label": "*2", "atom_type": "H0"}, "14": {"label": "*4", "atom_type": "Ct"}, "15": {"label": "*3", "atom_type": "Cd"}}

>  <type>  (17) 
unop_13

>  <geom_source>  (17) 
AutoTST

$$$$
