
     RDKit          3D

 16 15  0  0  0  0  0  0  0  0999 V2000
    1.7961   -0.3807    1.6176 C   0  0  0  0  0  0  0  0  0  0  0  0
    0.8562   -0.8708    0.8256 C   0  0  0  0  0  0  0  0  0  0  0  0
    0.0895   -0.0826   -0.2048 C   0  0  0  0  0  0  0  0  0  0  0  0
   -1.4061   -0.1111    0.0982 C   0  0  0  0  0  0  0  0  0  0  0  0
    0.4476   -0.5902   -1.5797 C   0  0  0  0  0  0  0  0  0  0  0  0
   -0.3793   -1.1113   -2.4728 C   0  0  0  0  0  0  0  0  0  0  0  0
    2.3110   -1.0032    2.3386 H   0  0  0  0  0  0  0  0  0  0  0  0
    2.0846    0.6643    1.5737 H   0  0  0  0  0  0  0  0  0  0  0  0
    0.5921   -1.9241    0.8925 H   0  0  0  0  0  0  0  0  0  0  0  0
    0.4358    0.9557   -0.1462 H   0  0  0  0  0  0  0  0  0  0  0  0
   -1.5968    0.3080    1.0865 H   0  0  0  0  0  0  0  0  0  0  0  0
   -1.9674    0.4693   -0.6359 H   0  0  0  0  0  0  0  0  0  0  0  0
   -1.7902   -1.1338    0.0883 H   0  0  0  0  0  0  0  0  0  0  0  0
    1.5049   -0.5197   -1.8214 H   0  0  0  0  0  0  0  0  0  0  0  0
   -1.4421   -1.2131   -2.2889 H   0  0  0  0  0  0  0  0  0  0  0  0
   -0.0162   -1.4558   -3.4328 H   0  0  0  0  0  0  0  0  0  0  0  0
  1  2  2  3
  1  7  1  0
  1  8  1  0
  2  3  1  0
  2  9  1  0
  3  4  1  0
  3  5  1  0
  3 10  1  0
  4 11  1  0
  4 12  1  0
  4 13  1  0
  5  6  2  3
  5 14  1  0
  6 15  1  0
  6 16  1  0
M  END
>  <reaction>  (1) 
rxn_1192

>  <mol_properties>  (1) 
{"2": {"label": "donator", "atom_type": "Cs"}, "9": {"label": "d_hydrogen", "atom_type": "H0"}}

>  <type>  (1) 
r1h

$$$$

     RDKit          3D

  8  7  0  0  0  0  0  0  0  0999 V2000
   -1.0607    0.1793   -0.1423 C   0  0  0  0  0  0  0  0  0  0  0  0
    0.2796    0.0327    0.4820 C   0  0  0  0  0  3  0  0  0  0  0  0
    0.8817   -1.4663    1.0791 S   0  0  0  0  0  0  0  0  0  0  0  0
   -1.3043    1.2328   -0.2850 H   0  0  0  0  0  0  0  0  0  0  0  0
   -1.8444   -0.2641    0.4799 H   0  0  0  0  0  0  0  0  0  0  0  0
   -1.1164   -0.3100   -1.1237 H   0  0  0  0  0  0  0  0  0  0  0  0
    1.0449    0.7826    0.3391 H   0  0  0  0  0  0  0  0  0  0  0  0
   -0.2993   -2.0726    1.2718 H   0  0  0  0  0  0  0  0  0  0  0  0
  1  2  1  0
  1  4  1  0
  1  5  1  0
  1  6  1  0
  2  3  1  0
  2  7  1  0
  3  8  1  0
M  RAD  1   2   2
M  END
>  <reaction>  (2) 
rxn_1192

>  <mol_properties>  (2) 
{"1": {"label": "acceptor", "atom_type": "Cs"}}

>  <type>  (2) 
r2

$$$$

     RDKit          3D

  9  8  0  0  0  0  0  0  0  0999 V2000
   -0.8818   -0.3578    0.1297 C   0  0  0  0  0  0  0  0  0  0  0  0
    0.6153   -0.3021   -0.1188 C   0  0  0  0  0  0  0  0  0  0  0  0
    1.5354   -1.7170    0.5545 S   0  0  0  0  0  0  0  0  0  0  0  0
   -1.1018   -0.3317    1.1984 H   0  0  0  0  0  0  0  0  0  0  0  0
   -1.3114   -1.2723   -0.2799 H   0  0  0  0  0  0  0  0  0  0  0  0
   -1.3767    0.4976   -0.3363 H   0  0  0  0  0  0  0  0  0  0  0  0
    1.0467    0.6194    0.2718 H   0  0  0  0  0  0  0  0  0  0  0  0
    0.8295   -0.3275   -1.1882 H   0  0  0  0  0  0  0  0  0  0  0  0
    1.2306   -1.5077    1.8423 H   0  0  0  0  0  0  0  0  0  0  0  0
  1  2  1  0
  1  4  1  0
  1  5  1  0
  1  6  1  0
  2  3  1  0
  2  7  1  0
  2  8  1  0
  3  9  1  0
M  END
>  <reaction>  (3) 
rxn_1192

>  <mol_properties>  (3) 
{"1": {"label": "acceptor", "atom_type": "Cs"}, "8": {"label": "a_hydrogen", "atom_type": "H0"}}

>  <type>  (3) 
r2h

$$$$

     RDKit          3D

 24 22  0  0  0  0  0  0  0  0999 V2000
   -1.6038    1.5771   -0.9990 C   0  0  0  0  0  0  0  0  0  0  0  0
   -0.2355    1.5964   -0.3834 C   0  0  0  0  0  3  0  0  0  0  0  0
    1.1731    1.6407   -1.4358 S   0  0  0  0  0  0  0  0  0  0  0  0
   -2.3639    1.4741   -0.2217 H   0  0  0  0  0  0  0  0  0  0  0  0
   -1.7061    0.7343   -1.6876 H   0  0  0  0  0  0  0  0  0  0  0  0
   -1.8095    2.4929   -1.5605 H   0  0  0  0  0  0  0  0  0  0  0  0
   -0.0959    2.2888    0.4432 H   0  0  0  0  0  0  0  0  0  0  0  0
    0.7870    0.6542   -2.2590 H   0  0  0  0  0  0  0  0  0  0  0  0
    0.5913   -2.3130   -1.1008 C   0  0  0  0  0  0  0  0  0  0  0  0
   -0.3543   -1.7251   -0.3710 C   0  0  0  0  0  0  0  0  0  0  0  0
   -0.1566   -0.8573    0.8104 C   0  0  0  0  0  0  0  0  0  0  0  0
    1.2244   -0.8584    1.4262 C   0  0  0  0  0  0  0  0  0  0  0  0
   -1.3037   -0.8785    1.7460 C   0  0  0  0  0  0  0  0  0  0  0  0
   -1.2643   -0.7283    3.0666 C   0  0  0  0  0  0  0  0  0  0  0  0
    0.3320   -2.9074   -1.9675 H   0  0  0  0  0  0  0  0  0  0  0  0
    1.6433   -2.2391   -0.8553 H   0  0  0  0  0  0  0  0  0  0  0  0
   -1.3901   -1.8561   -0.6766 H   0  0  0  0  0  0  0  0  0  0  0  0
   -0.2152    0.2961    0.2988 H   0  0  0  0  0  0  0  0  0  0  0  0
    1.9837   -0.6494    0.6724 H   0  0  0  0  0  0  0  0  0  0  0  0
    1.3086   -0.0848    2.1901 H   0  0  0  0  0  0  0  0  0  0  0  0
    1.4503   -1.8231    1.8883 H   0  0  0  0  0  0  0  0  0  0  0  0
   -2.2758   -1.0068    1.2746 H   0  0  0  0  0  0  0  0  0  0  0  0
   -0.3353   -0.6097    3.6102 H   0  0  0  0  0  0  0  0  0  0  0  0
   -2.1745   -0.7340    3.6520 H   0  0  0  0  0  0  0  0  0  0  0  0
  1  2  1  0
  1  4  1  0
  1  5  1  0
  1  6  1  0
  2  3  1  0
  2  7  1  0
  3  8  1  0
  9 10  2  3
  9 15  1  0
  9 16  1  0
 10 11  1  0
 10 17  1  0
 11 12  1  0
 11 13  1  0
 11 18  1  0
 12 19  1  0
 12 20  1  0
 12 21  1  0
 13 14  2  3
 13 22  1  0
 14 23  1  0
 14 24  1  0
M  RAD  1   2   2
M  END
>  <reaction>  (4) 
rxn_1192

>  <mol_properties>  (4) 
{"1": {"label": "*3", "atom_type": "Cs"}, "2": {"label": "*4", "atom_type": "S2s"}, "9": {"label": "*0", "atom_type": "Cd"}, "10": {"label": "*1", "atom_type": "Cs"}, "17": {"label": "*2", "atom_type": "H0"}}

>  <type>  (4) 
ts

$$$$

     RDKit          3D

 24 22  0  0  0  0  0  0  0  0999 V2000
   -1.1164    2.1276   -0.4519 C   0  0  0  0  0  0  0  0  0  0  0  0
    0.0996    1.2398   -0.6503 C   0  0  0  0  0  0  0  0  0  0  0  0
    1.0106    1.5573   -2.1901 S   0  0  0  0  0  0  0  0  0  0  0  0
   -1.5906    1.9139    0.5090 H   0  0  0  0  0  0  0  0  0  0  0  0
   -1.8561    1.9581   -1.2363 H   0  0  0  0  0  0  0  0  0  0  0  0
   -0.8378    3.1814   -0.4743 H   0  0  0  0  0  0  0  0  0  0  0  0
    0.8351    1.4124    0.1368 H   0  0  0  0  0  0  0  0  0  0  0  0
    0.0161    1.2445   -3.0317 H   0  0  0  0  0  0  0  0  0  0  0  0
    0.0266   -2.0737   -1.2499 C   0  0  0  0  0  0  0  0  0  0  0  0
    0.0266   -2.0737    0.0734 C   0  0  0  0  0  0  0  0  0  0  0  0
    0.0266   -0.8429    0.9428 C   0  0  0  0  0  3  0  0  0  0  0  0
    1.2650   -0.8131    1.8344 C   0  0  0  0  0  0  0  0  0  0  0  0
   -1.2769   -0.7744    1.6993 C   0  0  0  0  0  0  0  0  0  0  0  0
   -1.4315   -0.7741    3.0142 C   0  0  0  0  0  0  0  0  0  0  0  0
    0.0259   -2.9963   -1.8166 H   0  0  0  0  0  0  0  0  0  0  0  0
    0.0284   -1.1479   -1.8156 H   0  0  0  0  0  0  0  0  0  0  0  0
    0.0219   -3.0195    0.6110 H   0  0  0  0  0  0  0  0  0  0  0  0
    0.0632    0.2014    0.1440 H   0  0  0  0  0  0  0  0  0  0  0  0
    2.1678   -0.8215    1.2231 H   0  0  0  0  0  0  0  0  0  0  0  0
    1.2797    0.0826    2.4575 H   0  0  0  0  0  0  0  0  0  0  0  0
    1.2976   -1.6849    2.4920 H   0  0  0  0  0  0  0  0  0  0  0  0
   -2.1601   -0.7386    1.0667 H   0  0  0  0  0  0  0  0  0  0  0  0
   -0.5911   -0.8134    3.6968 H   0  0  0  0  0  0  0  0  0  0  0  0
   -2.4179   -0.7310    3.4584 H   0  0  0  0  0  0  0  0  0  0  0  0
  1  2  1  0
  1  4  1  0
  1  5  1  0
  1  6  1  0
  2  3  1  0
  2  7  1  0
  2 18  1  0
  3  8  1  0
  9 10  2  3
  9 15  1  0
  9 16  1  0
 10 11  1  0
 10 17  1  0
 11 12  1  0
 11 13  1  0
 12 19  1  0
 12 20  1  0
 12 21  1  0
 13 14  2  3
 13 22  1  0
 14 23  1  0
 14 24  1  0
M  RAD  1  11   2
M  END
>  <reaction>  (5) 
rxn_1192

>  <mol_properties>  (5) 
{"1": {"label": "*3", "atom_type": "Cs"}, "2": {"label": "*4", "atom_type": "S2s"}, "9": {"label": "*0", "atom_type": "Cd"}, "10": {"label": "*1", "atom_type": "Cs"}, "17": {"label": "*2", "atom_type": "H0"}}

>  <type>  (5) 
unop_1

>  <geom_source>  (5) 
Heuristics

$$$$

     RDKit          3D

 24 22  0  0  0  0  0  0  0  0999 V2000
   -0.7764    0.9112   -2.1285 C   0  0  0  0  0  0  0  0  0  0  0  0
   -0.0950    1.2071   -0.8039 C   0  0  0  0  0  0  0  0  0  0  0  0
    1.3948    2.2375   -0.9464 S   0  0  0  0  0  0  0  0  0  0  0  0
   -1.6847    0.3259   -1.9666 H   0  0  0  0  0  0  0  0  0  0  0  0
   -0.1204    0.3379   -2.7860 H   0  0  0  0  0  0  0  0  0  0  0  0
   -1.0456    1.8338   -2.6433 H   0  0  0  0  0  0  0  0  0  0  0  0
   -0.7553    1.7792   -0.1505 H   0  0  0  0  0  0  0  0  0  0  0  0
    2.1057    1.3876   -1.6996 H   0  0  0  0  0  0  0  0  0  0  0  0
   -0.1680   -2.1064   -1.4035 C   0  0  0  0  0  0  0  0  0  0  0  0
   -0.1680   -2.1064   -0.0803 C   0  0  0  0  0  0  0  0  0  0  0  0
   -0.1680   -0.8756    0.7891 C   0  0  0  0  0  3  0  0  0  0  0  0
    1.0703   -0.8458    1.6807 C   0  0  0  0  0  0  0  0  0  0  0  0
   -1.4715   -0.8070    1.5456 C   0  0  0  0  0  0  0  0  0  0  0  0
   -1.6262   -0.8068    2.8606 C   0  0  0  0  0  0  0  0  0  0  0  0
   -0.1688   -3.0290   -1.9702 H   0  0  0  0  0  0  0  0  0  0  0  0
   -0.1663   -1.1806   -1.9692 H   0  0  0  0  0  0  0  0  0  0  0  0
   -0.1728   -3.0522    0.4573 H   0  0  0  0  0  0  0  0  0  0  0  0
   -0.1314    0.1687   -0.0097 H   0  0  0  0  0  0  0  0  0  0  0  0
    1.9731   -0.8542    1.0695 H   0  0  0  0  0  0  0  0  0  0  0  0
    1.0850    0.0499    2.3038 H   0  0  0  0  0  0  0  0  0  0  0  0
    1.1029   -1.7176    2.3383 H   0  0  0  0  0  0  0  0  0  0  0  0
   -2.3547   -0.7713    0.9131 H   0  0  0  0  0  0  0  0  0  0  0  0
   -0.7858   -0.8461    3.5431 H   0  0  0  0  0  0  0  0  0  0  0  0
   -2.6126   -0.7637    3.3048 H   0  0  0  0  0  0  0  0  0  0  0  0
  1  2  1  0
  1  4  1  0
  1  5  1  0
  1  6  1  0
  2  3  1  0
  2  7  1  0
  2 18  1  0
  3  8  1  0
  9 10  2  3
  9 15  1  0
  9 16  1  0
 10 11  1  0
 10 17  1  0
 11 12  1  0
 11 13  1  0
 12 19  1  0
 12 20  1  0
 12 21  1  0
 13 14  2  3
 13 22  1  0
 14 23  1  0
 14 24  1  0
M  RAD  1  11   2
M  END
>  <reaction>  (6) 
rxn_1192

>  <mol_properties>  (6) 
{"1": {"label": "*3", "atom_type": "Cs"}, "2": {"label": "*4", "atom_type": "S2s"}, "9": {"label": "*0", "atom_type": "Cd"}, "10": {"label": "*1", "atom_type": "Cs"}, "17": {"label": "*2", "atom_type": "H0"}}

>  <type>  (6) 
unop_2

>  <geom_source>  (6) 
Heuristics

$$$$

     RDKit          3D

 24 22  0  0  0  0  0  0  0  0999 V2000
   -0.4500    2.4725   -0.0122 C   0  0  0  0  0  0  0  0  0  0  0  0
    0.2526    1.2786   -0.6343 C   0  0  0  0  0  0  0  0  0  0  0  0
    0.2542    1.2787   -2.4514 S   0  0  0  0  0  0  0  0  0  0  0  0
   -0.3770    2.4316    1.0772 H   0  0  0  0  0  0  0  0  0  0  0  0
   -1.5087    2.4846   -0.2774 H   0  0  0  0  0  0  0  0  0  0  0  0
   -0.0069    3.4080   -0.3546 H   0  0  0  0  0  0  0  0  0  0  0  0
    1.3099    1.2708   -0.3653 H   0  0  0  0  0  0  0  0  0  0  0  0
   -1.0746    1.2210   -2.6125 H   0  0  0  0  0  0  0  0  0  0  0  0
    0.1797   -2.0349   -1.2339 C   0  0  0  0  0  0  0  0  0  0  0  0
    0.1797   -2.0349    0.0893 C   0  0  0  0  0  0  0  0  0  0  0  0
    0.1797   -0.8041    0.9587 C   0  0  0  0  0  3  0  0  0  0  0  0
    1.4180   -0.7743    1.8503 C   0  0  0  0  0  0  0  0  0  0  0  0
   -1.1239   -0.7355    1.7152 C   0  0  0  0  0  0  0  0  0  0  0  0
   -1.2785   -0.7353    3.0302 C   0  0  0  0  0  0  0  0  0  0  0  0
    0.1789   -2.9575   -1.8006 H   0  0  0  0  0  0  0  0  0  0  0  0
    0.1814   -1.1091   -1.7996 H   0  0  0  0  0  0  0  0  0  0  0  0
    0.1749   -2.9807    0.6270 H   0  0  0  0  0  0  0  0  0  0  0  0
    0.2163    0.2402    0.1599 H   0  0  0  0  0  0  0  0  0  0  0  0
    2.3208   -0.7827    1.2391 H   0  0  0  0  0  0  0  0  0  0  0  0
    1.4327    0.1214    2.4734 H   0  0  0  0  0  0  0  0  0  0  0  0
    1.4506   -1.6461    2.5079 H   0  0  0  0  0  0  0  0  0  0  0  0
   -2.0070   -0.6998    1.0827 H   0  0  0  0  0  0  0  0  0  0  0  0
   -0.4381   -0.7746    3.7127 H   0  0  0  0  0  0  0  0  0  0  0  0
   -2.2649   -0.6922    3.4744 H   0  0  0  0  0  0  0  0  0  0  0  0
  1  2  1  0
  1  4  1  0
  1  5  1  0
  1  6  1  0
  2  3  1  0
  2  7  1  0
  2 18  1  0
  3  8  1  0
  9 10  2  3
  9 15  1  0
  9 16  1  0
 10 11  1  0
 10 17  1  0
 11 12  1  0
 11 13  1  0
 12 19  1  0
 12 20  1  0
 12 21  1  0
 13 14  2  3
 13 22  1  0
 14 23  1  0
 14 24  1  0
M  RAD  1  11   2
M  END
>  <reaction>  (7) 
rxn_1192

>  <mol_properties>  (7) 
{"1": {"label": "*3", "atom_type": "Cs"}, "2": {"label": "*4", "atom_type": "S2s"}, "9": {"label": "*0", "atom_type": "Cd"}, "10": {"label": "*1", "atom_type": "Cs"}, "17": {"label": "*2", "atom_type": "H0"}}

>  <type>  (7) 
unop_3

>  <geom_source>  (7) 
Heuristics

$$$$

     RDKit          3D

 24 22  0  0  0  0  0  0  0  0999 V2000
    1.2387    1.1884   -2.1142 C   0  0  0  0  0  0  0  0  0  0  0  0
   -0.0080    1.2019   -1.2470 C   0  0  0  0  0  0  0  0  0  0  0  0
    0.1779    2.1191    0.3106 S   0  0  0  0  0  0  0  0  0  0  0  0
    1.0452    0.6587   -3.0500 H   0  0  0  0  0  0  0  0  0  0  0  0
    2.0623    0.6831   -1.6065 H   0  0  0  0  0  0  0  0  0  0  0  0
    1.5608    2.2029   -2.3501 H   0  0  0  0  0  0  0  0  0  0  0  0
   -0.8281    1.7070   -1.7594 H   0  0  0  0  0  0  0  0  0  0  0  0
    1.1459    1.3538    0.8323 H   0  0  0  0  0  0  0  0  0  0  0  0
   -0.0810   -2.1116   -1.8466 C   0  0  0  0  0  0  0  0  0  0  0  0
   -0.0810   -2.1116   -0.5233 C   0  0  0  0  0  0  0  0  0  0  0  0
   -0.0810   -0.8808    0.3461 C   0  0  0  0  0  3  0  0  0  0  0  0
    1.1574   -0.8510    1.2377 C   0  0  0  0  0  0  0  0  0  0  0  0
   -1.3845   -0.8122    1.1026 C   0  0  0  0  0  0  0  0  0  0  0  0
   -1.5391   -0.8120    2.4175 C   0  0  0  0  0  0  0  0  0  0  0  0
   -0.0817   -3.0342   -2.4133 H   0  0  0  0  0  0  0  0  0  0  0  0
   -0.0792   -1.1858   -2.4123 H   0  0  0  0  0  0  0  0  0  0  0  0
   -0.0857   -3.0574    0.0143 H   0  0  0  0  0  0  0  0  0  0  0  0
   -0.0444    0.1635   -0.4528 H   0  0  0  0  0  0  0  0  0  0  0  0
    2.0602   -0.8594    0.6264 H   0  0  0  0  0  0  0  0  0  0  0  0
    1.1721    0.0447    1.8608 H   0  0  0  0  0  0  0  0  0  0  0  0
    1.1900   -1.7228    1.8953 H   0  0  0  0  0  0  0  0  0  0  0  0
   -2.2676   -0.7765    0.4700 H   0  0  0  0  0  0  0  0  0  0  0  0
   -0.6987   -0.8513    3.1000 H   0  0  0  0  0  0  0  0  0  0  0  0
   -2.5255   -0.7689    2.8617 H   0  0  0  0  0  0  0  0  0  0  0  0
  1  2  1  0
  1  4  1  0
  1  5  1  0
  1  6  1  0
  2  3  1  0
  2  7  1  0
  2 18  1  0
  3  8  1  0
  9 10  2  3
  9 15  1  0
  9 16  1  0
 10 11  1  0
 10 17  1  0
 11 12  1  0
 11 13  1  0
 12 19  1  0
 12 20  1  0
 12 21  1  0
 13 14  2  3
 13 22  1  0
 14 23  1  0
 14 24  1  0
M  RAD  1  11   2
M  END
>  <reaction>  (8) 
rxn_1192

>  <mol_properties>  (8) 
{"1": {"label": "*3", "atom_type": "Cs"}, "2": {"label": "*4", "atom_type": "S2s"}, "9": {"label": "*0", "atom_type": "Cd"}, "10": {"label": "*1", "atom_type": "Cs"}, "17": {"label": "*2", "atom_type": "H0"}}

>  <type>  (8) 
unop_4

>  <geom_source>  (8) 
Heuristics

$$$$

     RDKit          3D

 24 22  0  0  0  0  0  0  0  0999 V2000
    0.4881    2.5949   -0.0047 C   0  0  0  0  0  0  0  0  0  0  0  0
    0.4850    1.2977   -0.7942 C   0  0  0  0  0  0  0  0  0  0  0  0
   -0.8650    1.1644   -2.0031 S   0  0  0  0  0  0  0  0  0  0  0  0
    1.3466    2.6273    0.6704 H   0  0  0  0  0  0  0  0  0  0  0  0
   -0.4169    2.6874    0.5985 H   0  0  0  0  0  0  0  0  0  0  0  0
    0.5379    3.4568   -0.6706 H   0  0  0  0  0  0  0  0  0  0  0  0
    1.3919    1.2099   -1.3943 H   0  0  0  0  0  0  0  0  0  0  0  0
   -1.8738    1.2207   -1.1232 H   0  0  0  0  0  0  0  0  0  0  0  0
    0.4121   -2.0158   -1.3938 C   0  0  0  0  0  0  0  0  0  0  0  0
    0.4121   -2.0158   -0.0706 C   0  0  0  0  0  0  0  0  0  0  0  0
    0.4121   -0.7850    0.7988 C   0  0  0  0  0  3  0  0  0  0  0  0
    1.6504   -0.7552    1.6904 C   0  0  0  0  0  0  0  0  0  0  0  0
   -0.8915   -0.7164    1.5554 C   0  0  0  0  0  0  0  0  0  0  0  0
   -1.0461   -0.7162    2.8703 C   0  0  0  0  0  0  0  0  0  0  0  0
    0.4113   -2.9384   -1.9605 H   0  0  0  0  0  0  0  0  0  0  0  0
    0.4138   -1.0900   -1.9595 H   0  0  0  0  0  0  0  0  0  0  0  0
    0.4073   -2.9616    0.4671 H   0  0  0  0  0  0  0  0  0  0  0  0
    0.4487    0.2593    0.0000 H   0  0  0  0  0  0  0  0  0  0  0  0
    2.5532   -0.7636    1.0792 H   0  0  0  0  0  0  0  0  0  0  0  0
    1.6651    0.1405    2.3135 H   0  0  0  0  0  0  0  0  0  0  0  0
    1.6830   -1.6270    2.3481 H   0  0  0  0  0  0  0  0  0  0  0  0
   -1.7746   -0.6807    0.9228 H   0  0  0  0  0  0  0  0  0  0  0  0
   -0.2057   -0.7555    3.5528 H   0  0  0  0  0  0  0  0  0  0  0  0
   -2.0325   -0.6731    3.3145 H   0  0  0  0  0  0  0  0  0  0  0  0
  1  2  1  0
  1  4  1  0
  1  5  1  0
  1  6  1  0
  2  3  1  0
  2  7  1  0
  2 18  1  0
  3  8  1  0
  9 10  2  3
  9 15  1  0
  9 16  1  0
 10 11  1  0
 10 17  1  0
 11 12  1  0
 11 13  1  0
 12 19  1  0
 12 20  1  0
 12 21  1  0
 13 14  2  3
 13 22  1  0
 14 23  1  0
 14 24  1  0
M  RAD  1  11   2
M  END
>  <reaction>  (9) 
rxn_1192

>  <mol_properties>  (9) 
{"1": {"label": "*3", "atom_type": "Cs"}, "2": {"label": "*4", "atom_type": "S2s"}, "9": {"label": "*0", "atom_type": "Cd"}, "10": {"label": "*1", "atom_type": "Cs"}, "17": {"label": "*2", "atom_type": "H0"}}

>  <type>  (9) 
unop_5

>  <geom_source>  (9) 
Heuristics

$$$$

     RDKit          3D

 24 22  0  0  0  0  0  0  0  0999 V2000
    1.5970    1.6221   -1.6085 C   0  0  0  0  0  0  0  0  0  0  0  0
    0.1669    1.2088   -1.3078 C   0  0  0  0  0  0  0  0  0  0  0  0
   -0.4956    1.8902    0.2409 S   0  0  0  0  0  0  0  0  0  0  0  0
    1.9165    1.2142   -2.5703 H   0  0  0  0  0  0  0  0  0  0  0  0
    2.2803    1.2508   -0.8427 H   0  0  0  0  0  0  0  0  0  0  0  0
    1.6899    2.7079   -1.6442 H   0  0  0  0  0  0  0  0  0  0  0  0
   -0.5115    1.5816   -2.0766 H   0  0  0  0  0  0  0  0  0  0  0  0
    0.3825    1.3008    1.0635 H   0  0  0  0  0  0  0  0  0  0  0  0
    0.0939   -2.1047   -1.9074 C   0  0  0  0  0  0  0  0  0  0  0  0
    0.0939   -2.1047   -0.5841 C   0  0  0  0  0  0  0  0  0  0  0  0
    0.0939   -0.8739    0.2853 C   0  0  0  0  0  3  0  0  0  0  0  0
    1.3323   -0.8441    1.1769 C   0  0  0  0  0  0  0  0  0  0  0  0
   -1.2096   -0.8053    1.0418 C   0  0  0  0  0  0  0  0  0  0  0  0
   -1.3642   -0.8051    2.3567 C   0  0  0  0  0  0  0  0  0  0  0  0
    0.0932   -3.0273   -2.4741 H   0  0  0  0  0  0  0  0  0  0  0  0
    0.0957   -1.1789   -2.4731 H   0  0  0  0  0  0  0  0  0  0  0  0
    0.0892   -3.0505   -0.0465 H   0  0  0  0  0  0  0  0  0  0  0  0
    0.1305    0.1705   -0.5136 H   0  0  0  0  0  0  0  0  0  0  0  0
    2.2351   -0.8525    0.5656 H   0  0  0  0  0  0  0  0  0  0  0  0
    1.3470    0.0517    1.8000 H   0  0  0  0  0  0  0  0  0  0  0  0
    1.3649   -1.7159    1.8345 H   0  0  0  0  0  0  0  0  0  0  0  0
   -2.0928   -0.7696    0.4092 H   0  0  0  0  0  0  0  0  0  0  0  0
   -0.5238   -0.8444    3.0392 H   0  0  0  0  0  0  0  0  0  0  0  0
   -2.3506   -0.7620    2.8009 H   0  0  0  0  0  0  0  0  0  0  0  0
  1  2  1  0
  1  4  1  0
  1  5  1  0
  1  6  1  0
  2  3  1  0
  2  7  1  0
  2 18  1  0
  3  8  1  0
  9 10  2  3
  9 15  1  0
  9 16  1  0
 10 11  1  0
 10 17  1  0
 11 12  1  0
 11 13  1  0
 12 19  1  0
 12 20  1  0
 12 21  1  0
 13 14  2  3
 13 22  1  0
 14 23  1  0
 14 24  1  0
M  RAD  1  11   2
M  END
>  <reaction>  (10) 
rxn_1192

>  <mol_properties>  (10) 
{"1": {"label": "*3", "atom_type": "Cs"}, "2": {"label": "*4", "atom_type": "S2s"}, "9": {"label": "*0", "atom_type": "Cd"}, "10": {"label": "*1", "atom_type": "Cs"}, "17": {"label": "*2", "atom_type": "H0"}}

>  <type>  (10) 
unop_6

>  <geom_source>  (10) 
Heuristics

$$$$

     RDKit          3D

 24 22  0  0  0  0  0  0  0  0999 V2000
    1.5910    2.0820   -1.0125 C   0  0  0  0  0  0  0  0  0  0  0  0
    0.3566    1.2354   -1.2693 C   0  0  0  0  0  0  0  0  0  0  0  0
   -1.0358    1.5919   -0.1574 S   0  0  0  0  0  0  0  0  0  0  0  0
    2.3713    1.8470   -1.7402 H   0  0  0  0  0  0  0  0  0  0  0  0
    1.9937    1.8934   -0.0157 H   0  0  0  0  0  0  0  0  0  0  0  0
    1.3574    3.1444   -1.0854 H   0  0  0  0  0  0  0  0  0  0  0  0
   -0.0411    1.4270   -2.2669 H   0  0  0  0  0  0  0  0  0  0  0  0
   -0.4206    1.2522    0.9833 H   0  0  0  0  0  0  0  0  0  0  0  0
    0.2836   -2.0781   -1.8688 C   0  0  0  0  0  0  0  0  0  0  0  0
    0.2836   -2.0781   -0.5456 C   0  0  0  0  0  0  0  0  0  0  0  0
    0.2836   -0.8473    0.3238 C   0  0  0  0  0  3  0  0  0  0  0  0
    1.5220   -0.8175    1.2154 C   0  0  0  0  0  0  0  0  0  0  0  0
   -1.0199   -0.7787    1.0803 C   0  0  0  0  0  0  0  0  0  0  0  0
   -1.1745   -0.7785    2.3952 C   0  0  0  0  0  0  0  0  0  0  0  0
    0.2829   -3.0007   -2.4356 H   0  0  0  0  0  0  0  0  0  0  0  0
    0.2854   -1.1523   -2.4346 H   0  0  0  0  0  0  0  0  0  0  0  0
    0.2789   -3.0239   -0.0080 H   0  0  0  0  0  0  0  0  0  0  0  0
    0.3202    0.1970   -0.4750 H   0  0  0  0  0  0  0  0  0  0  0  0
    2.4247   -0.8259    0.6041 H   0  0  0  0  0  0  0  0  0  0  0  0
    1.5367    0.0782    1.8385 H   0  0  0  0  0  0  0  0  0  0  0  0
    1.5546   -1.6893    1.8730 H   0  0  0  0  0  0  0  0  0  0  0  0
   -1.9031   -0.7430    0.4478 H   0  0  0  0  0  0  0  0  0  0  0  0
   -0.3342   -0.8178    3.0778 H   0  0  0  0  0  0  0  0  0  0  0  0
   -2.1609   -0.7354    2.8395 H   0  0  0  0  0  0  0  0  0  0  0  0
  1  2  1  0
  1  4  1  0
  1  5  1  0
  1  6  1  0
  2  3  1  0
  2  7  1  0
  2 18  1  0
  3  8  1  0
  9 10  2  3
  9 15  1  0
  9 16  1  0
 10 11  1  0
 10 17  1  0
 11 12  1  0
 11 13  1  0
 12 19  1  0
 12 20  1  0
 12 21  1  0
 13 14  2  3
 13 22  1  0
 14 23  1  0
 14 24  1  0
M  RAD  1  11   2
M  END
>  <reaction>  (11) 
rxn_1192

>  <mol_properties>  (11) 
{"1": {"label": "*3", "atom_type": "Cs"}, "2": {"label": "*4", "atom_type": "S2s"}, "9": {"label": "*0", "atom_type": "Cd"}, "10": {"label": "*1", "atom_type": "Cs"}, "17": {"label": "*2", "atom_type": "H0"}}

>  <type>  (11) 
unop_7

>  <geom_source>  (11) 
Heuristics

$$$$

     RDKit          3D

 24 22  0  0  0  0  0  0  0  0999 V2000
   -1.3715    1.6721   -1.0604 C   0  0  0  0  0  0  0  0  0  0  0  0
    0.0279    1.2112   -0.6923 C   0  0  0  0  0  0  0  0  0  0  0  0
    1.3348    1.8593   -1.7758 S   0  0  0  0  0  0  0  0  0  0  0  0
   -2.1006    1.2819   -0.3463 H   0  0  0  0  0  0  0  0  0  0  0  0
   -1.6513    1.3168   -2.0538 H   0  0  0  0  0  0  0  0  0  0  0  0
   -1.4359    2.7605   -1.0620 H   0  0  0  0  0  0  0  0  0  0  0  0
    0.3020    1.5681    0.3015 H   0  0  0  0  0  0  0  0  0  0  0  0
    0.8994    1.2918   -2.9087 H   0  0  0  0  0  0  0  0  0  0  0  0
   -0.0451   -2.1023   -1.2919 C   0  0  0  0  0  0  0  0  0  0  0  0
   -0.0451   -2.1023    0.0313 C   0  0  0  0  0  0  0  0  0  0  0  0
   -0.0451   -0.8715    0.9007 C   0  0  0  0  0  3  0  0  0  0  0  0
    1.1933   -0.8417    1.7923 C   0  0  0  0  0  0  0  0  0  0  0  0
   -1.3486   -0.8029    1.6572 C   0  0  0  0  0  0  0  0  0  0  0  0
   -1.5032   -0.8027    2.9722 C   0  0  0  0  0  0  0  0  0  0  0  0
   -0.0458   -3.0249   -1.8586 H   0  0  0  0  0  0  0  0  0  0  0  0
   -0.0433   -1.1765   -1.8576 H   0  0  0  0  0  0  0  0  0  0  0  0
   -0.0498   -3.0481    0.5689 H   0  0  0  0  0  0  0  0  0  0  0  0
   -0.0085    0.1728    0.1019 H   0  0  0  0  0  0  0  0  0  0  0  0
    2.0961   -0.8501    1.1811 H   0  0  0  0  0  0  0  0  0  0  0  0
    1.2080    0.0540    2.4154 H   0  0  0  0  0  0  0  0  0  0  0  0
    1.2259   -1.7135    2.4499 H   0  0  0  0  0  0  0  0  0  0  0  0
   -2.2318   -0.7672    1.0247 H   0  0  0  0  0  0  0  0  0  0  0  0
   -0.6629   -0.8420    3.6547 H   0  0  0  0  0  0  0  0  0  0  0  0
   -2.4896   -0.7596    3.4164 H   0  0  0  0  0  0  0  0  0  0  0  0
  1  2  1  0
  1  4  1  0
  1  5  1  0
  1  6  1  0
  2  3  1  0
  2  7  1  0
  2 18  1  0
  3  8  1  0
  9 10  2  3
  9 15  1  0
  9 16  1  0
 10 11  1  0
 10 17  1  0
 11 12  1  0
 11 13  1  0
 12 19  1  0
 12 20  1  0
 12 21  1  0
 13 14  2  3
 13 22  1  0
 14 23  1  0
 14 24  1  0
M  RAD  1  11   2
M  END
>  <reaction>  (12) 
rxn_1192

>  <mol_properties>  (12) 
{"1": {"label": "*3", "atom_type": "Cs"}, "2": {"label": "*4", "atom_type": "S2s"}, "9": {"label": "*0", "atom_type": "Cd"}, "10": {"label": "*1", "atom_type": "Cs"}, "17": {"label": "*2", "atom_type": "H0"}}

>  <type>  (12) 
unop_8

>  <geom_source>  (12) 
Heuristics

$$$$

     RDKit          3D

 24 22  0  0  0  0  0  0  0  0999 V2000
    0.6079    0.8879   -2.3981 C   0  0  0  0  0  0  0  0  0  0  0  0
   -0.1254    1.2076   -1.1072 C   0  0  0  0  0  0  0  0  0  0  0  0
    0.8170    2.2473    0.0472 S   0  0  0  0  0  0  0  0  0  0  0  0
   -0.0291    0.2980   -3.0613 H   0  0  0  0  0  0  0  0  0  0  0  0
    1.5129    0.3105   -2.2007 H   0  0  0  0  0  0  0  0  0  0  0  0
    0.8984    1.8011   -2.9181 H   0  0  0  0  0  0  0  0  0  0  0  0
   -1.0293    1.7837   -1.3102 H   0  0  0  0  0  0  0  0  0  0  0  0
    1.8300    1.3924    0.2420 H   0  0  0  0  0  0  0  0  0  0  0  0
   -0.1984   -2.1059   -1.7068 C   0  0  0  0  0  0  0  0  0  0  0  0
   -0.1984   -2.1059   -0.3835 C   0  0  0  0  0  0  0  0  0  0  0  0
   -0.1984   -0.8751    0.4859 C   0  0  0  0  0  3  0  0  0  0  0  0
    1.0400   -0.8453    1.3775 C   0  0  0  0  0  0  0  0  0  0  0  0
   -1.5019   -0.8065    1.2424 C   0  0  0  0  0  0  0  0  0  0  0  0
   -1.6565   -0.8063    2.5573 C   0  0  0  0  0  0  0  0  0  0  0  0
   -0.1991   -3.0285   -2.2735 H   0  0  0  0  0  0  0  0  0  0  0  0
   -0.1966   -1.1801   -2.2725 H   0  0  0  0  0  0  0  0  0  0  0  0
   -0.2031   -3.0517    0.1541 H   0  0  0  0  0  0  0  0  0  0  0  0
   -0.1618    0.1692   -0.3130 H   0  0  0  0  0  0  0  0  0  0  0  0
    1.9427   -0.8537    0.7662 H   0  0  0  0  0  0  0  0  0  0  0  0
    1.0547    0.0504    2.0006 H   0  0  0  0  0  0  0  0  0  0  0  0
    1.0726   -1.7171    2.0351 H   0  0  0  0  0  0  0  0  0  0  0  0
   -2.3851   -0.7708    0.6098 H   0  0  0  0  0  0  0  0  0  0  0  0
   -0.8162   -0.8456    3.2399 H   0  0  0  0  0  0  0  0  0  0  0  0
   -2.6429   -0.7632    3.0015 H   0  0  0  0  0  0  0  0  0  0  0  0
  1  2  1  0
  1  4  1  0
  1  5  1  0
  1  6  1  0
  2  3  1  0
  2  7  1  0
  2 18  1  0
  3  8  1  0
  9 10  2  3
  9 15  1  0
  9 16  1  0
 10 11  1  0
 10 17  1  0
 11 12  1  0
 11 13  1  0
 12 19  1  0
 12 20  1  0
 12 21  1  0
 13 14  2  3
 13 22  1  0
 14 23  1  0
 14 24  1  0
M  RAD  1  11   2
M  END
>  <reaction>  (13) 
rxn_1192

>  <mol_properties>  (13) 
{"1": {"label": "*3", "atom_type": "Cs"}, "2": {"label": "*4", "atom_type": "S2s"}, "9": {"label": "*0", "atom_type": "Cd"}, "10": {"label": "*1", "atom_type": "Cs"}, "17": {"label": "*2", "atom_type": "H0"}}

>  <type>  (13) 
unop_9

>  <geom_source>  (13) 
Heuristics

$$$$

     RDKit          3D

 24 22  0  0  0  0  0  0  0  0999 V2000
   -1.2308    1.2299   -1.6598 C   0  0  0  0  0  0  0  0  0  0  0  0
   -0.0271    1.2022   -0.7343 C   0  0  0  0  0  0  0  0  0  0  0  0
    1.4210    2.0980   -1.3685 S   0  0  0  0  0  0  0  0  0  0  0  0
   -2.0757    0.7114   -1.2005 H   0  0  0  0  0  0  0  0  0  0  0  0
   -1.0074    0.7347   -2.6064 H   0  0  0  0  0  0  0  0  0  0  0  0
   -1.5308    2.2549   -1.8791 H   0  0  0  0  0  0  0  0  0  0  0  0
   -0.2562    1.6975    0.2104 H   0  0  0  0  0  0  0  0  0  0  0  0
    1.6086    1.3457   -2.4612 H   0  0  0  0  0  0  0  0  0  0  0  0
   -0.1001   -2.1112   -1.3339 C   0  0  0  0  0  0  0  0  0  0  0  0
   -0.1001   -2.1112   -0.0106 C   0  0  0  0  0  0  0  0  0  0  0  0
   -0.1001   -0.8804    0.8588 C   0  0  0  0  0  3  0  0  0  0  0  0
    1.1383   -0.8506    1.7504 C   0  0  0  0  0  0  0  0  0  0  0  0
   -1.4036   -0.8119    1.6153 C   0  0  0  0  0  0  0  0  0  0  0  0
   -1.5582   -0.8116    2.9302 C   0  0  0  0  0  0  0  0  0  0  0  0
   -0.1008   -3.0338   -1.9006 H   0  0  0  0  0  0  0  0  0  0  0  0
   -0.0983   -1.1854   -1.8996 H   0  0  0  0  0  0  0  0  0  0  0  0
   -0.1048   -3.0570    0.5270 H   0  0  0  0  0  0  0  0  0  0  0  0
   -0.0635    0.1639    0.0599 H   0  0  0  0  0  0  0  0  0  0  0  0
    2.0410   -0.8590    1.1391 H   0  0  0  0  0  0  0  0  0  0  0  0
    1.1530    0.0451    2.3735 H   0  0  0  0  0  0  0  0  0  0  0  0
    1.1709   -1.7224    2.4080 H   0  0  0  0  0  0  0  0  0  0  0  0
   -2.2868   -0.7761    0.9827 H   0  0  0  0  0  0  0  0  0  0  0  0
   -0.7179   -0.8509    3.6127 H   0  0  0  0  0  0  0  0  0  0  0  0
   -2.5446   -0.7685    3.3744 H   0  0  0  0  0  0  0  0  0  0  0  0
  1  2  1  0
  1  4  1  0
  1  5  1  0
  1  6  1  0
  2  3  1  0
  2  7  1  0
  2 18  1  0
  3  8  1  0
  9 10  2  3
  9 15  1  0
  9 16  1  0
 10 11  1  0
 10 17  1  0
 11 12  1  0
 11 13  1  0
 12 19  1  0
 12 20  1  0
 12 21  1  0
 13 14  2  3
 13 22  1  0
 14 23  1  0
 14 24  1  0
M  RAD  1  11   2
M  END
>  <reaction>  (14) 
rxn_1192

>  <mol_properties>  (14) 
{"1": {"label": "*3", "atom_type": "Cs"}, "2": {"label": "*4", "atom_type": "S2s"}, "9": {"label": "*0", "atom_type": "Cd"}, "10": {"label": "*1", "atom_type": "Cs"}, "17": {"label": "*2", "atom_type": "H0"}}

>  <type>  (14) 
unop_10

>  <geom_source>  (14) 
Heuristics

$$$$

     RDKit          3D

 24 22  0  0  0  0  0  0  0  0999 V2000
    1.2226    2.4443   -0.4442 C   0  0  0  0  0  0  0  0  0  0  0  0
    0.5105    1.2742   -1.1000 C   0  0  0  0  0  0  0  0  0  0  0  0
   -1.2971    1.3049   -0.9174 S   0  0  0  0  0  0  0  0  0  0  0  0
    2.2981    2.3865   -0.6279 H   0  0  0  0  0  0  0  0  0  0  0  0
    1.0660    2.4414    0.6360 H   0  0  0  0  0  0  0  0  0  0  0  0
    0.8547    3.3934   -0.8347 H   0  0  0  0  0  0  0  0  0  0  0  0
    0.6712    1.2814   -2.1790 H   0  0  0  0  0  0  0  0  0  0  0  0
   -1.3241    1.2255    0.4198 H   0  0  0  0  0  0  0  0  0  0  0  0
    0.4376   -2.0393   -1.6996 C   0  0  0  0  0  0  0  0  0  0  0  0
    0.4376   -2.0393   -0.3763 C   0  0  0  0  0  0  0  0  0  0  0  0
    0.4376   -0.8085    0.4931 C   0  0  0  0  0  3  0  0  0  0  0  0
    1.6759   -0.7787    1.3847 C   0  0  0  0  0  0  0  0  0  0  0  0
   -0.8660   -0.7399    1.2496 C   0  0  0  0  0  0  0  0  0  0  0  0
   -1.0206   -0.7397    2.5645 C   0  0  0  0  0  0  0  0  0  0  0  0
    0.4368   -2.9619   -2.2663 H   0  0  0  0  0  0  0  0  0  0  0  0
    0.4393   -1.1135   -2.2653 H   0  0  0  0  0  0  0  0  0  0  0  0
    0.4328   -2.9851    0.1613 H   0  0  0  0  0  0  0  0  0  0  0  0
    0.4742    0.2359   -0.3058 H   0  0  0  0  0  0  0  0  0  0  0  0
    2.5787   -0.7871    0.7734 H   0  0  0  0  0  0  0  0  0  0  0  0
    1.6906    0.1171    2.0078 H   0  0  0  0  0  0  0  0  0  0  0  0
    1.7085   -1.6505    2.0423 H   0  0  0  0  0  0  0  0  0  0  0  0
   -1.7491   -0.7042    0.6170 H   0  0  0  0  0  0  0  0  0  0  0  0
   -0.1802   -0.7790    3.2471 H   0  0  0  0  0  0  0  0  0  0  0  0
   -2.0070   -0.6966    3.0087 H   0  0  0  0  0  0  0  0  0  0  0  0
  1  2  1  0
  1  4  1  0
  1  5  1  0
  1  6  1  0
  2  3  1  0
  2  7  1  0
  2 18  1  0
  3  8  1  0
  9 10  2  3
  9 15  1  0
  9 16  1  0
 10 11  1  0
 10 17  1  0
 11 12  1  0
 11 13  1  0
 12 19  1  0
 12 20  1  0
 12 21  1  0
 13 14  2  3
 13 22  1  0
 14 23  1  0
 14 24  1  0
M  RAD  1  11   2
M  END
>  <reaction>  (15) 
rxn_1192

>  <mol_properties>  (15) 
{"1": {"label": "*3", "atom_type": "Cs"}, "2": {"label": "*4", "atom_type": "S2s"}, "9": {"label": "*0", "atom_type": "Cd"}, "10": {"label": "*1", "atom_type": "Cs"}, "17": {"label": "*2", "atom_type": "H0"}}

>  <type>  (15) 
unop_11

>  <geom_source>  (15) 
Heuristics

$$$$

     RDKit          3D

 24 22  0  0  0  0  0  0  0  0999 V2000
   -0.1213    0.7887   -2.3940 C   0  0  0  0  0  0  0  0  0  0  0  0
   -0.1489    1.2117   -0.9357 C   0  0  0  0  0  0  0  0  0  0  0  0
    1.2340    2.2831   -0.4444 S   0  0  0  0  0  0  0  0  0  0  0  0
   -0.9999    0.1841   -2.6313 H   0  0  0  0  0  0  0  0  0  0  0  0
    0.7659    0.1911   -2.6108 H   0  0  0  0  0  0  0  0  0  0  0  0
   -0.1105    1.6579   -3.0521 H   0  0  0  0  0  0  0  0  0  0  0  0
   -1.0380    1.8076   -0.7243 H   0  0  0  0  0  0  0  0  0  0  0  0
    2.2139    1.4046   -0.6954 H   0  0  0  0  0  0  0  0  0  0  0  0
   -0.2219   -2.1018   -1.5352 C   0  0  0  0  0  0  0  0  0  0  0  0
   -0.2219   -2.1018   -0.2120 C   0  0  0  0  0  0  0  0  0  0  0  0
   -0.2219   -0.8710    0.6574 C   0  0  0  0  0  3  0  0  0  0  0  0
    1.0165   -0.8412    1.5490 C   0  0  0  0  0  0  0  0  0  0  0  0
   -1.5254   -0.8024    1.4139 C   0  0  0  0  0  0  0  0  0  0  0  0
   -1.6801   -0.8022    2.7288 C   0  0  0  0  0  0  0  0  0  0  0  0
   -0.2227   -3.0244   -2.1019 H   0  0  0  0  0  0  0  0  0  0  0  0
   -0.2201   -1.1760   -2.1009 H   0  0  0  0  0  0  0  0  0  0  0  0
   -0.2267   -3.0476    0.3256 H   0  0  0  0  0  0  0  0  0  0  0  0
   -0.1853    0.1733   -0.1414 H   0  0  0  0  0  0  0  0  0  0  0  0
    1.9192   -0.8496    0.9377 H   0  0  0  0  0  0  0  0  0  0  0  0
    1.0311    0.0545    2.1721 H   0  0  0  0  0  0  0  0  0  0  0  0
    1.0490   -1.7130    2.2066 H   0  0  0  0  0  0  0  0  0  0  0  0
   -2.4086   -0.7667    0.7814 H   0  0  0  0  0  0  0  0  0  0  0  0
   -0.8397   -0.8415    3.4114 H   0  0  0  0  0  0  0  0  0  0  0  0
   -2.6665   -0.7591    3.1731 H   0  0  0  0  0  0  0  0  0  0  0  0
  1  2  1  0
  1  4  1  0
  1  5  1  0
  1  6  1  0
  2  3  1  0
  2  7  1  0
  2 18  1  0
  3  8  1  0
  9 10  2  3
  9 15  1  0
  9 16  1  0
 10 11  1  0
 10 17  1  0
 11 12  1  0
 11 13  1  0
 12 19  1  0
 12 20  1  0
 12 21  1  0
 13 14  2  3
 13 22  1  0
 14 23  1  0
 14 24  1  0
M  RAD  1  11   2
M  END
>  <reaction>  (16) 
rxn_1192

>  <mol_properties>  (16) 
{"1": {"label": "*3", "atom_type": "Cs"}, "2": {"label": "*4", "atom_type": "S2s"}, "9": {"label": "*0", "atom_type": "Cd"}, "10": {"label": "*1", "atom_type": "Cs"}, "17": {"label": "*2", "atom_type": "H0"}}

>  <type>  (16) 
unop_12

>  <geom_source>  (16) 
Heuristics

$$$$

     RDKit          3D

 24 22  0  0  0  0  0  0  0  0999 V2000
    2.1975    1.8217    0.1636 S   0  0  0  0  0  0  0  0  0  0  0  0
    1.6590    0.2029   -0.4681 C   0  0  0  0  0  3  0  0  0  0  0  0
    2.6707   -0.8744   -0.1076 C   0  0  0  0  0  0  0  0  0  0  0  0
   -1.7506   -1.5854   -0.2280 C   0  0  0  0  0  0  0  0  0  0  0  0
   -0.8574   -0.3492   -0.1320 C   0  0  0  0  0  0  0  0  0  0  0  0
   -0.6107    0.0799    1.2909 C   0  0  0  0  0  0  0  0  0  0  0  0
   -1.3785    0.7811   -0.9714 C   0  0  0  0  0  0  0  0  0  0  0  0
   -1.5920    0.4915    2.1019 C   0  0  0  0  0  0  0  0  0  0  0  0
   -0.6211    1.3198   -1.9273 C   0  0  0  0  0  0  0  0  0  0  0  0
    1.5580    0.2622   -1.5722 H   0  0  0  0  0  0  0  0  0  0  0  0
    0.4500   -0.1105    0.0685 H   0  0  0  0  0  0  0  0  0  0  0  0
    2.3312   -1.8506   -0.5125 H   0  0  0  0  0  0  0  0  0  0  0  0
    2.7621   -0.9586    0.9957 H   0  0  0  0  0  0  0  0  0  0  0  0
    3.6629   -0.6298   -0.5427 H   0  0  0  0  0  0  0  0  0  0  0  0
   -2.7767   -1.3637    0.1356 H   0  0  0  0  0  0  0  0  0  0  0  0
   -1.8086   -1.9235   -1.2841 H   0  0  0  0  0  0  0  0  0  0  0  0
   -1.3197   -2.4099    0.3784 H   0  0  0  0  0  0  0  0  0  0  0  0
    0.4085    0.0604    1.6629 H   0  0  0  0  0  0  0  0  0  0  0  0
   -2.3758    1.1729   -0.7923 H   0  0  0  0  0  0  0  0  0  0  0  0
   -1.3636    0.7948    3.1184 H   0  0  0  0  0  0  0  0  0  0  0  0
   -2.6218    0.5323    1.7614 H   0  0  0  0  0  0  0  0  0  0  0  0
   -1.0035    2.1405   -2.5254 H   0  0  0  0  0  0  0  0  0  0  0  0
    0.3810    0.9483   -2.1201 H   0  0  0  0  0  0  0  0  0  0  0  0
    1.9991    1.4472    1.5063 H   0  0  0  0  0  0  0  0  0  0  0  0
  1  2  1  0
  1 24  1  0
  2  3  1  0
  2 10  1  0
  3 12  1  0
  3 13  1  0
  3 14  1  0
  4  5  1  0
  4 15  1  0
  4 16  1  0
  4 17  1  0
  5  6  1  0
  5  7  1  0
  5 11  1  0
  6  8  2  3
  6 18  1  0
  7  9  2  3
  7 19  1  0
  8 20  1  0
  8 21  1  0
  9 22  1  0
  9 23  1  0
M  RAD  1   2   2
M  END
>  <reaction>  (17) 
rxn_1192

>  <mol_properties>  (17) 
{"1": {"label": "*3", "atom_type": "Cs"}, "2": {"label": "*4", "atom_type": "S2s"}, "9": {"label": "*0", "atom_type": "Cd"}, "10": {"label": "*1", "atom_type": "Cs"}, "17": {"label": "*2", "atom_type": "H0"}}

>  <type>  (17) 
unop_13

>  <geom_source>  (17) 
AutoTST

$$$$
