
     RDKit          3D

 10  9  0  0  0  0  0  0  0  0999 V2000
    1.8334    0.0847   -0.1062 C   0  0  0  0  0  0  0  0  0  0  0  0
    0.5993   -0.4071   -0.0750 C   0  0  0  0  0  0  0  0  0  0  0  0
   -0.5993    0.4071    0.0750 C   0  0  0  0  0  0  0  0  0  0  0  0
   -1.8334   -0.0847    0.1062 C   0  0  0  0  0  0  0  0  0  0  0  0
    2.0179    1.1498   -0.0189 H   0  0  0  0  0  0  0  0  0  0  0  0
    2.6972   -0.5572   -0.2194 H   0  0  0  0  0  0  0  0  0  0  0  0
    0.4465   -1.4793   -0.1649 H   0  0  0  0  0  0  0  0  0  0  0  0
   -0.4465    1.4793    0.1649 H   0  0  0  0  0  0  0  0  0  0  0  0
   -2.0179   -1.1498    0.0189 H   0  0  0  0  0  0  0  0  0  0  0  0
   -2.6972    0.5572    0.2194 H   0  0  0  0  0  0  0  0  0  0  0  0
  1  2  2  3
  1  5  1  0
  1  6  1  0
  2  3  1  0
  2  7  1  0
  3  4  2  3
  3  8  1  0
  4  9  1  0
  4 10  1  0
M  END
>  <reaction>  (1) 
rxn_1683

>  <mol_properties>  (1) 
{"2": {"label": "donator", "atom_type": "Cd"}, "7": {"label": "d_hydrogen", "atom_type": "H0"}}

>  <type>  (1) 
r1h

$$$$

     RDKit          3D

 18 18  0  0  0  0  0  0  0  0999 V2000
    2.7512    0.0489   -0.5734 C   0  0  0  0  0  0  0  0  0  0  0  0
    1.4277   -0.4568   -0.0957 C   0  0  0  0  0  3  0  0  0  0  0  0
    0.5787   -1.2468   -0.9255 C   0  0  0  0  0  0  0  0  0  0  0  0
    0.9949   -1.6342   -2.2194 C   0  0  0  0  0  0  0  0  0  0  0  0
    0.1850   -2.4001   -3.0330 C   0  0  0  0  0  0  0  0  0  0  0  0
   -1.0677   -2.8151   -2.5986 C   0  0  0  0  0  0  0  0  0  0  0  0
   -1.4988   -2.4481   -1.3288 C   0  0  0  0  0  0  0  0  0  0  0  0
   -0.6986   -1.6827   -0.5072 C   0  0  0  0  0  0  0  0  0  0  0  0
    0.9655   -0.2084    1.5666 S   0  0  0  0  0  0  0  0  0  0  0  0
    3.1739    0.7873    0.1063 H   0  0  0  0  0  0  0  0  0  0  0  0
    3.4796   -0.7649   -0.6651 H   0  0  0  0  0  0  0  0  0  0  0  0
    2.6603    0.5178   -1.5558 H   0  0  0  0  0  0  0  0  0  0  0  0
    1.9693   -1.3375   -2.5829 H   0  0  0  0  0  0  0  0  0  0  0  0
    0.5357   -2.6808   -4.0185 H   0  0  0  0  0  0  0  0  0  0  0  0
   -1.6995   -3.4158   -3.2398 H   0  0  0  0  0  0  0  0  0  0  0  0
   -2.4742   -2.7614   -0.9778 H   0  0  0  0  0  0  0  0  0  0  0  0
   -1.0689   -1.4003    0.4702 H   0  0  0  0  0  0  0  0  0  0  0  0
    1.8478    0.7580    1.8433 H   0  0  0  0  0  0  0  0  0  0  0  0
  1  2  1  0
  1 10  1  0
  1 11  1  0
  1 12  1  0
  2  3  1  0
  2  9  1  0
  3  4  2  0
  3  8  1  0
  4  5  1  0
  4 13  1  0
  5  6  2  0
  5 14  1  0
  6  7  1  0
  6 15  1  0
  7  8  2  0
  7 16  1  0
  8 17  1  0
  9 18  1  0
M  RAD  1   2   2
M  END
>  <reaction>  (2) 
rxn_1683

>  <mol_properties>  (2) 
{"1": {"label": "acceptor", "atom_type": "Cs"}}

>  <type>  (2) 
r2

$$$$

     RDKit          3D

 19 19  0  0  0  0  0  0  0  0999 V2000
    2.2396    0.0552    0.8759 C   0  0  0  0  0  0  0  0  0  0  0  0
    1.4030   -0.9182    0.0491 C   0  0  0  0  0  0  0  0  0  0  0  0
    1.9465   -1.1096   -1.3460 C   0  0  0  0  0  0  0  0  0  0  0  0
    3.2062   -1.6607   -1.5671 C   0  0  0  0  0  0  0  0  0  0  0  0
    3.7015   -1.7950   -2.8519 C   0  0  0  0  0  0  0  0  0  0  0  0
    2.9436   -1.3845   -3.9410 C   0  0  0  0  0  0  0  0  0  0  0  0
    1.6880   -0.8403   -3.7327 C   0  0  0  0  0  0  0  0  0  0  0  0
    1.1950   -0.7046   -2.4420 C   0  0  0  0  0  0  0  0  0  0  0  0
    1.2970   -2.4864    0.9925 S   0  0  0  0  0  0  0  0  0  0  0  0
    2.2863    1.0196    0.3684 H   0  0  0  0  0  0  0  0  0  0  0  0
    1.8023    0.2034    1.8644 H   0  0  0  0  0  0  0  0  0  0  0  0
    3.2592   -0.3118    1.0018 H   0  0  0  0  0  0  0  0  0  0  0  0
    0.3897   -0.5237   -0.0274 H   0  0  0  0  0  0  0  0  0  0  0  0
    3.7943   -2.0027   -0.7240 H   0  0  0  0  0  0  0  0  0  0  0  0
    4.6828   -2.2258   -3.0068 H   0  0  0  0  0  0  0  0  0  0  0  0
    3.3313   -1.4930   -4.9459 H   0  0  0  0  0  0  0  0  0  0  0  0
    1.0868   -0.5204   -4.5746 H   0  0  0  0  0  0  0  0  0  0  0  0
    0.2111   -0.2764   -2.2859 H   0  0  0  0  0  0  0  0  0  0  0  0
    0.6371   -3.1863    0.0608 H   0  0  0  0  0  0  0  0  0  0  0  0
  1  2  1  0
  1 10  1  0
  1 11  1  0
  1 12  1  0
  2  3  1  0
  2  9  1  0
  2 13  1  0
  3  4  2  0
  3  8  1  0
  4  5  1  0
  4 14  1  0
  5  6  2  0
  5 15  1  0
  6  7  1  0
  6 16  1  0
  7  8  2  0
  7 17  1  0
  8 18  1  0
  9 19  1  0
M  END
>  <reaction>  (3) 
rxn_1683

>  <mol_properties>  (3) 
{"1": {"label": "acceptor", "atom_type": "Cs"}, "18": {"label": "a_hydrogen", "atom_type": "H0"}}

>  <type>  (3) 
r2h

$$$$

     RDKit          3D

 28 27  0  0  0  0  0  0  0  0999 V2000
   -2.2893    0.4800   -0.1391 C   0  0  0  0  0  0  0  0  0  0  0  0
   -0.9261    0.4087    0.5168 C   0  0  1  0  0  0  0  0  0  0  0  0
    0.2444    0.8679   -0.2988 C   0  0  0  0  0  0  0  0  0  0  0  0
    0.1038    1.7304   -1.3812 C   0  0  0  0  0  0  0  0  0  0  0  0
    1.2088    2.1178   -2.1254 C   0  0  0  0  0  0  0  0  0  0  0  0
    2.4703    1.6455   -1.8027 C   0  0  0  0  0  0  0  0  0  0  0  0
    2.6214    0.7778   -0.7301 C   0  0  0  0  0  0  0  0  0  0  0  0
    1.5185    0.3930    0.0112 C   0  0  0  0  0  0  0  0  0  0  0  0
   -1.0229    1.1646    2.1570 S   0  0  0  0  0  0  0  0  0  0  0  0
   -3.0346   -0.0081    0.4903 H   0  0  0  0  0  0  0  0  0  0  0  0
   -2.6125    1.5098   -0.3071 H   0  0  0  0  0  0  0  0  0  0  0  0
   -2.2665   -0.0388   -1.0987 H   0  0  0  0  0  0  0  0  0  0  0  0
   -0.8737    2.1100   -1.6484 H   0  0  0  0  0  0  0  0  0  0  0  0
    1.0801    2.7927   -2.9624 H   0  0  0  0  0  0  0  0  0  0  0  0
    3.3310    1.9462   -2.3862 H   0  0  0  0  0  0  0  0  0  0  0  0
    3.6007    0.3918   -0.4769 H   0  0  0  0  0  0  0  0  0  0  0  0
    1.6377   -0.3064    0.8315 H   0  0  0  0  0  0  0  0  0  0  0  0
    0.2875    1.1448    2.4295 H   0  0  0  0  0  0  0  0  0  0  0  0
   -0.1044   -2.6042   -1.4408 C   0  0  0  0  0  0  0  0  0  0  0  0
   -0.3725   -3.0703   -0.2247 C   0  0  0  0  0  0  0  0  0  0  0  0
   -0.6161   -2.2526    0.9411 C   0  0  0  0  0  3  0  0  0  0  0  0
   -0.7965   -2.5784    2.2049 C   0  0  0  0  0  0  0  0  0  0  0  0
   -0.0373   -1.5413   -1.6402 H   0  0  0  0  0  0  0  0  0  0  0  0
    0.0682   -3.2767   -2.2708 H   0  0  0  0  0  0  0  0  0  0  0  0
   -0.4209   -4.1481   -0.0653 H   0  0  0  0  0  0  0  0  0  0  0  0
   -0.7369   -0.8013    0.7068 H   0  0  0  0  0  0  0  0  0  0  0  0
   -0.7613   -3.6161    2.5355 H   0  0  0  0  0  0  0  0  0  0  0  0
   -0.9885   -1.8245    2.9611 H   0  0  0  0  0  0  0  0  0  0  0  0
  1  2  1  0
  1 10  1  0
  1 11  1  0
  1 12  1  0
  2  3  1  0
  2  9  1  0
  2 26  1  1
  3  4  2  0
  3  8  1  0
  4  5  1  0
  4 13  1  0
  5  6  2  0
  5 14  1  0
  6  7  1  0
  6 15  1  0
  7  8  2  0
  7 16  1  0
  8 17  1  0
  9 18  1  0
 19 20  2  3
 19 23  1  0
 19 24  1  0
 20 21  1  0
 20 25  1  0
 21 22  2  3
 22 27  1  0
 22 28  1  0
M  RAD  1  21   2
M  END
>  <reaction>  (4) 
rxn_1683

>  <mol_properties>  (4) 
{"1": {"label": "*1", "atom_type": "Cs"}, "2": {"label": "*0", "atom_type": "Cd"}, "19": {"label": "*4", "atom_type": "Cd"}, "20": {"label": "*3", "atom_type": "Cd"}, "25": {"label": "*2", "atom_type": "H0"}}

>  <type>  (4) 
ts

$$$$

     RDKit          3D

 28 27  0  0  0  0  0  0  0  0999 V2000
   -1.8017    1.1490    0.9162 C   0  0  0  0  0  0  0  0  0  0  0  0
   -0.5474    0.3712    0.5252 C   0  0  0  0  0  3  0  0  0  0  0  0
    0.0304    0.8274   -0.7925 C   0  0  0  0  0  0  0  0  0  0  0  0
    0.5126    2.1223   -0.9664 C   0  0  0  0  0  0  0  0  0  0  0  0
    1.0056    2.5325   -2.1923 C   0  0  0  0  0  0  0  0  0  0  0  0
    1.0300    1.6530   -3.2669 C   0  0  0  0  0  0  0  0  0  0  0  0
    0.5582    0.3619   -3.1035 C   0  0  0  0  0  0  0  0  0  0  0  0
    0.0617   -0.0456   -1.8727 C   0  0  0  0  0  0  0  0  0  0  0  0
    0.6419    0.5179    1.9124 S   0  0  0  0  0  0  0  0  0  0  0  0
   -2.2186    0.7726    1.8514 H   0  0  0  0  0  0  0  0  0  0  0  0
   -1.5831    2.2108    1.0391 H   0  0  0  0  0  0  0  0  0  0  0  0
   -2.5546    1.0459    0.1337 H   0  0  0  0  0  0  0  0  0  0  0  0
    0.5164    2.8073   -0.1271 H   0  0  0  0  0  0  0  0  0  0  0  0
    1.3772    3.5426   -2.3109 H   0  0  0  0  0  0  0  0  0  0  0  0
    1.4190    1.9744   -4.2247 H   0  0  0  0  0  0  0  0  0  0  0  0
    0.5759   -0.3334   -3.9333 H   0  0  0  0  0  0  0  0  0  0  0  0
   -0.3075   -1.0579   -1.7518 H   0  0  0  0  0  0  0  0  0  0  0  0
    1.6560   -0.1245    1.3188 H   0  0  0  0  0  0  0  0  0  0  0  0
   -0.5474   -3.1076   -0.3291 C   0  0  0  0  0  0  0  0  0  0  0  0
   -0.5474   -3.1076    0.9998 C   0  0  0  0  0  0  0  0  0  0  0  0
   -0.5474   -1.9003    1.8151 C   0  0  0  0  0  0  0  0  0  0  0  0
   -0.5474   -1.9003    3.1440 C   0  0  0  0  0  0  0  0  0  0  0  0
   -0.5474   -2.1810   -0.8926 H   0  0  0  0  0  0  0  0  0  0  0  0
   -0.5474   -4.0291   -0.8963 H   0  0  0  0  0  0  0  0  0  0  0  0
   -0.5474   -4.0525    1.5364 H   0  0  0  0  0  0  0  0  0  0  0  0
   -0.5474   -0.7664    1.1711 H   0  0  0  0  0  0  0  0  0  0  0  0
   -0.5474   -2.8269    3.7074 H   0  0  0  0  0  0  0  0  0  0  0  0
   -0.5474   -0.9787    3.7111 H   0  0  0  0  0  0  0  0  0  0  0  0
  1  2  1  0
  1 10  1  0
  1 11  1  0
  1 12  1  0
  2  3  1  0
  2  9  1  0
  3  4  2  0
  3  8  1  0
  4  5  1  0
  4 13  1  0
  5  6  2  0
  5 14  1  0
  6  7  1  0
  6 15  1  0
  7  8  2  0
  7 16  1  0
  8 17  1  0
  9 18  1  0
 19 20  2  3
 19 23  1  0
 19 24  1  0
 20 21  1  0
 20 25  1  0
 21 22  2  3
 21 26  1  0
 22 27  1  0
 22 28  1  0
M  RAD  1   2   2
M  END
>  <reaction>  (5) 
rxn_1683

>  <mol_properties>  (5) 
{"1": {"label": "*1", "atom_type": "Cs"}, "2": {"label": "*0", "atom_type": "Cd"}, "19": {"label": "*4", "atom_type": "Cd"}, "20": {"label": "*3", "atom_type": "Cd"}, "25": {"label": "*2", "atom_type": "H0"}}

>  <type>  (5) 
unop_1

>  <geom_source>  (5) 
Heuristics

$$$$

     RDKit          3D

 28 27  0  0  0  0  0  0  0  0999 V2000
   -1.4432   -0.1459   -1.5591 C   0  0  0  0  0  0  0  0  0  0  0  0
   -0.7190    0.0532   -0.2298 C   0  0  0  0  0  3  0  0  0  0  0  0
    0.5246    0.8973   -0.3678 C   0  0  0  0  0  0  0  0  0  0  0  0
    0.4606    2.2250   -0.7834 C   0  0  0  0  0  0  0  0  0  0  0  0
    1.6148    2.9719   -0.9383 C   0  0  0  0  0  0  0  0  0  0  0  0
    2.8556    2.4058   -0.6756 C   0  0  0  0  0  0  0  0  0  0  0  0
    2.9302    1.0885   -0.2568 C   0  0  0  0  0  0  0  0  0  0  0  0
    1.7701    0.3411   -0.1049 C   0  0  0  0  0  0  0  0  0  0  0  0
   -1.9297    0.7582    0.9524 S   0  0  0  0  0  0  0  0  0  0  0  0
   -2.3147   -0.7904   -1.4360 H   0  0  0  0  0  0  0  0  0  0  0  0
   -1.7754    0.8076   -1.9721 H   0  0  0  0  0  0  0  0  0  0  0  0
   -0.7667   -0.6099   -2.2781 H   0  0  0  0  0  0  0  0  0  0  0  0
   -0.5050    2.6797   -0.9697 H   0  0  0  0  0  0  0  0  0  0  0  0
    1.5478    4.0031   -1.2619 H   0  0  0  0  0  0  0  0  0  0  0  0
    3.7577    2.9924   -0.7943 H   0  0  0  0  0  0  0  0  0  0  0  0
    3.8919    0.6380   -0.0455 H   0  0  0  0  0  0  0  0  0  0  0  0
    1.8358   -0.6906    0.2223 H   0  0  0  0  0  0  0  0  0  0  0  0
   -1.0737    0.9365    1.9667 H   0  0  0  0  0  0  0  0  0  0  0  0
   -0.7190   -3.4256   -1.0840 C   0  0  0  0  0  0  0  0  0  0  0  0
   -0.7190   -3.4256    0.2449 C   0  0  0  0  0  0  0  0  0  0  0  0
   -0.7190   -2.2183    1.0601 C   0  0  0  0  0  0  0  0  0  0  0  0
   -0.7190   -2.2183    2.3890 C   0  0  0  0  0  0  0  0  0  0  0  0
   -0.7190   -2.4990   -1.6475 H   0  0  0  0  0  0  0  0  0  0  0  0
   -0.7190   -4.3471   -1.6512 H   0  0  0  0  0  0  0  0  0  0  0  0
   -0.7190   -4.3705    0.7815 H   0  0  0  0  0  0  0  0  0  0  0  0
   -0.7190   -1.0843    0.4162 H   0  0  0  0  0  0  0  0  0  0  0  0
   -0.7190   -3.1449    2.9525 H   0  0  0  0  0  0  0  0  0  0  0  0
   -0.7190   -1.2967    2.9562 H   0  0  0  0  0  0  0  0  0  0  0  0
  1  2  1  0
  1 10  1  0
  1 11  1  0
  1 12  1  0
  2  3  1  0
  2  9  1  0
  3  4  2  0
  3  8  1  0
  4  5  1  0
  4 13  1  0
  5  6  2  0
  5 14  1  0
  6  7  1  0
  6 15  1  0
  7  8  2  0
  7 16  1  0
  8 17  1  0
  9 18  1  0
 19 20  2  3
 19 23  1  0
 19 24  1  0
 20 21  1  0
 20 25  1  0
 21 22  2  3
 21 26  1  0
 22 27  1  0
 22 28  1  0
M  RAD  1   2   2
M  END
>  <reaction>  (6) 
rxn_1683

>  <mol_properties>  (6) 
{"1": {"label": "*1", "atom_type": "Cs"}, "2": {"label": "*0", "atom_type": "Cd"}, "19": {"label": "*4", "atom_type": "Cd"}, "20": {"label": "*3", "atom_type": "Cd"}, "25": {"label": "*2", "atom_type": "H0"}}

>  <type>  (6) 
unop_2

>  <geom_source>  (6) 
Heuristics

$$$$

     RDKit          3D

 28 27  0  0  0  0  0  0  0  0999 V2000
   -0.8048    1.5902    1.6122 C   0  0  0  0  0  0  0  0  0  0  0  0
   -0.0807    0.5506    0.7602 C   0  0  0  0  0  3  0  0  0  0  0  0
   -0.2721    0.7785   -0.7195 C   0  0  0  0  0  0  0  0  0  0  0  0
    0.1908    1.9342   -1.3437 C   0  0  0  0  0  0  0  0  0  0  0  0
   -0.0259    2.1412   -2.6944 C   0  0  0  0  0  0  0  0  0  0  0  0
   -0.7061    1.1932   -3.4478 C   0  0  0  0  0  0  0  0  0  0  0  0
   -1.1657    0.0384   -2.8384 C   0  0  0  0  0  0  0  0  0  0  0  0
   -0.9488   -0.1650   -1.4822 C   0  0  0  0  0  0  0  0  0  0  0  0
    1.6829    0.5661    1.2601 S   0  0  0  0  0  0  0  0  0  0  0  0
   -0.6810    1.3784    2.6752 H   0  0  0  0  0  0  0  0  0  0  0  0
   -0.4251    2.5937    1.4144 H   0  0  0  0  0  0  0  0  0  0  0  0
   -1.8699    1.5779    1.3772 H   0  0  0  0  0  0  0  0  0  0  0  0
    0.7406    2.6682   -0.7671 H   0  0  0  0  0  0  0  0  0  0  0  0
    0.3408    3.0450   -3.1648 H   0  0  0  0  0  0  0  0  0  0  0  0
   -0.8721    1.3551   -4.5052 H   0  0  0  0  0  0  0  0  0  0  0  0
   -1.6939   -0.7093   -3.4167 H   0  0  0  0  0  0  0  0  0  0  0  0
   -1.3126   -1.0712   -1.0109 H   0  0  0  0  0  0  0  0  0  0  0  0
    2.1141   -0.3093    0.3429 H   0  0  0  0  0  0  0  0  0  0  0  0
   -0.0807   -2.9282   -0.0940 C   0  0  0  0  0  0  0  0  0  0  0  0
   -0.0807   -2.9282    1.2349 C   0  0  0  0  0  0  0  0  0  0  0  0
   -0.0807   -1.7209    2.0502 C   0  0  0  0  0  0  0  0  0  0  0  0
   -0.0807   -1.7209    3.3790 C   0  0  0  0  0  0  0  0  0  0  0  0
   -0.0807   -2.0016   -0.6575 H   0  0  0  0  0  0  0  0  0  0  0  0
   -0.0807   -3.8497   -0.6612 H   0  0  0  0  0  0  0  0  0  0  0  0
   -0.0807   -3.8731    1.7715 H   0  0  0  0  0  0  0  0  0  0  0  0
   -0.0807   -0.5869    1.4062 H   0  0  0  0  0  0  0  0  0  0  0  0
   -0.0807   -2.6475    3.9425 H   0  0  0  0  0  0  0  0  0  0  0  0
   -0.0807   -0.7993    3.9462 H   0  0  0  0  0  0  0  0  0  0  0  0
  1  2  1  0
  1 10  1  0
  1 11  1  0
  1 12  1  0
  2  3  1  0
  2  9  1  0
  3  4  2  0
  3  8  1  0
  4  5  1  0
  4 13  1  0
  5  6  2  0
  5 14  1  0
  6  7  1  0
  6 15  1  0
  7  8  2  0
  7 16  1  0
  8 17  1  0
  9 18  1  0
 19 20  2  3
 19 23  1  0
 19 24  1  0
 20 21  1  0
 20 25  1  0
 21 22  2  3
 21 26  1  0
 22 27  1  0
 22 28  1  0
M  RAD  1   2   2
M  END
>  <reaction>  (7) 
rxn_1683

>  <mol_properties>  (7) 
{"1": {"label": "*1", "atom_type": "Cs"}, "2": {"label": "*0", "atom_type": "Cd"}, "19": {"label": "*4", "atom_type": "Cd"}, "20": {"label": "*3", "atom_type": "Cd"}, "25": {"label": "*2", "atom_type": "H0"}}

>  <type>  (7) 
unop_3

>  <geom_source>  (7) 
Heuristics

$$$$

     RDKit          3D

 28 25  0  0  0  0  0  0  0  0999 V2000
    1.1909    0.3083   -1.9939 C   0  0  0  0  0  0  0  0  0  0  0  0
   -0.0633    0.2456   -1.1256 C   0  0  0  0  0  0  0  0  0  0  0  0
    0.1689    0.7779    0.2676 C   0  0  0  0  0  3  0  0  0  0  0  0
    0.5229    2.1064    0.4895 C   0  0  0  0  0  0  0  0  0  0  0  0
    0.7664    2.5666    1.7713 C   0  0  0  0  0  0  0  0  0  0  0  0
    0.6560    1.7071    2.8566 C   0  0  0  0  0  0  0  0  0  0  0  0
    0.2995    0.3859    2.6478 C   0  0  0  0  0  3  0  0  0  0  0  0
    0.0583   -0.0732    1.3599 C   0  0  0  0  0 15  0  0  0  0  0  0
   -1.3912    1.1413   -2.0171 S   0  0  0  0  0  0  0  0  0  0  0  0
    1.0041   -0.1177   -2.9807 H   0  0  0  0  0  0  0  0  0  0  0  0
    1.5294    1.3376   -2.1215 H   0  0  0  0  0  0  0  0  0  0  0  0
    1.9937   -0.2564   -1.5180 H   0  0  0  0  0  0  0  0  0  0  0  0
    0.5903    2.7879   -0.3500 H   0  0  0  0  0  0  0  0  0  0  0  0
    1.0403    3.6026    1.9269 H   0  0  0  0  0  0  0  0  0  0  0  0
    0.8438    2.0694    3.8593 H   0  0  0  0  0  0  0  0  0  0  0  0
    0.2066   -0.2922    3.4868 H   0  0  0  0  0  0  0  0  0  0  0  0
   -0.2194   -1.1096    1.2033 H   0  0  0  0  0  0  0  0  0  0  0  0
   -2.3179    1.0472   -1.0550 H   0  0  0  0  0  0  0  0  0  0  0  0
   -0.0633   -3.2332   -1.9798 C   0  0  0  0  0  0  0  0  0  0  0  0
   -0.0633   -3.2332   -0.6509 C   0  0  0  0  0  0  0  0  0  0  0  0
   -0.0633   -2.0258    0.1643 C   0  0  0  0  0  3  0  0  0  0  0  0
   -0.0633   -2.0258    1.4932 C   0  0  0  0  0  0  0  0  0  0  0  0
   -0.0633   -2.3066   -2.5433 H   0  0  0  0  0  0  0  0  0  0  0  0
   -0.0633   -4.1547   -2.5470 H   0  0  0  0  0  0  0  0  0  0  0  0
   -0.0633   -4.1781   -0.1143 H   0  0  0  0  0  0  0  0  0  0  0  0
   -0.0633   -0.8919   -0.4796 H   0  0  0  0  0  0  0  0  0  0  0  0
   -0.0633   -2.9524    2.0567 H   0  0  0  0  0  0  0  0  0  0  0  0
   -0.0633   -1.1043    2.0604 H   0  0  0  0  0  0  0  0  0  0  0  0
  1  2  1  0
  1 10  1  0
  1 11  1  0
  1 12  1  0
  2  3  2  3
  2  9  1  0
  3  4  1  0
  4  5  2  3
  4 13  1  0
  5  6  1  0
  5 14  1  0
  6  7  2  3
  6 15  1  0
  7 16  1  0
  9 18  1  0
 17 22  1  0
 19 20  2  3
 19 23  1  0
 19 24  1  0
 20 21  1  0
 20 25  1  0
 21 22  1  0
 21 26  1  0
 22 27  1  0
 22 28  1  0
M  CHG  2   3   1   7  -1
M  RAD  1  21   2
M  END
>  <reaction>  (8) 
rxn_1683

>  <mol_properties>  (8) 
{"1": {"label": "*1", "atom_type": "Cs"}, "2": {"label": "*0", "atom_type": "Cd"}, "19": {"label": "*4", "atom_type": "Cd"}, "20": {"label": "*3", "atom_type": "Cd"}, "25": {"label": "*2", "atom_type": "H0"}}

>  <type>  (8) 
unop_4

>  <geom_source>  (8) 
Heuristics

$$$$

     RDKit          3D

 28 27  0  0  0  0  0  0  0  0999 V2000
    0.6867    1.8176    1.5495 C   0  0  0  0  0  0  0  0  0  0  0  0
    0.6867    0.6822    0.5288 C   0  0  0  0  0  3  0  0  0  0  0  0
   -0.5207    0.7162   -0.3762 C   0  0  0  0  0  0  0  0  0  0  0  0
   -0.7547    1.7852   -1.2377 C   0  0  0  0  0  0  0  0  0  0  0  0
   -1.8860    1.8149   -2.0336 C   0  0  0  0  0  0  0  0  0  0  0  0
   -2.8029    0.7728   -1.9862 C   0  0  0  0  0  0  0  0  0  0  0  0
   -2.5773   -0.2972   -1.1375 C   0  0  0  0  0  0  0  0  0  0  0  0
   -1.4424   -0.3225   -0.3382 C   0  0  0  0  0  0  0  0  0  0  0  0
    2.2690    0.7747   -0.3923 S   0  0  0  0  0  0  0  0  0  0  0  0
    1.5493    1.7454    2.2136 H   0  0  0  0  0  0  0  0  0  0  0  0
    0.7128    2.7900    1.0555 H   0  0  0  0  0  0  0  0  0  0  0  0
   -0.2210    1.7674    2.1523 H   0  0  0  0  0  0  0  0  0  0  0  0
   -0.0333    2.5914   -1.2956 H   0  0  0  0  0  0  0  0  0  0  0  0
   -2.0530    2.6532   -2.6983 H   0  0  0  0  0  0  0  0  0  0  0  0
   -3.6861    0.7959   -2.6119 H   0  0  0  0  0  0  0  0  0  0  0  0
   -3.2835   -1.1169   -1.0951 H   0  0  0  0  0  0  0  0  0  0  0  0
   -1.2723   -1.1631    0.3253 H   0  0  0  0  0  0  0  0  0  0  0  0
    2.0026   -0.2084   -1.2618 H   0  0  0  0  0  0  0  0  0  0  0  0
    0.6867   -2.7966   -0.3254 C   0  0  0  0  0  0  0  0  0  0  0  0
    0.6867   -2.7966    1.0034 C   0  0  0  0  0  0  0  0  0  0  0  0
    0.6867   -1.5893    1.8187 C   0  0  0  0  0  0  0  0  0  0  0  0
    0.6867   -1.5893    3.1476 C   0  0  0  0  0  0  0  0  0  0  0  0
    0.6867   -1.8700   -0.8889 H   0  0  0  0  0  0  0  0  0  0  0  0
    0.6867   -3.7181   -0.8926 H   0  0  0  0  0  0  0  0  0  0  0  0
    0.6867   -3.7415    1.5400 H   0  0  0  0  0  0  0  0  0  0  0  0
    0.6867   -0.4553    1.1748 H   0  0  0  0  0  0  0  0  0  0  0  0
    0.6867   -2.5159    3.7111 H   0  0  0  0  0  0  0  0  0  0  0  0
    0.6867   -0.6677    3.7148 H   0  0  0  0  0  0  0  0  0  0  0  0
  1  2  1  0
  1 10  1  0
  1 11  1  0
  1 12  1  0
  2  3  1  0
  2  9  1  0
  3  4  2  0
  3  8  1  0
  4  5  1  0
  4 13  1  0
  5  6  2  0
  5 14  1  0
  6  7  1  0
  6 15  1  0
  7  8  2  0
  7 16  1  0
  8 17  1  0
  9 18  1  0
 19 20  2  3
 19 23  1  0
 19 24  1  0
 20 21  1  0
 20 25  1  0
 21 22  2  3
 21 26  1  0
 22 27  1  0
 22 28  1  0
M  RAD  1   2   2
M  END
>  <reaction>  (9) 
rxn_1683

>  <mol_properties>  (9) 
{"1": {"label": "*1", "atom_type": "Cs"}, "2": {"label": "*0", "atom_type": "Cd"}, "19": {"label": "*4", "atom_type": "Cd"}, "20": {"label": "*3", "atom_type": "Cd"}, "25": {"label": "*2", "atom_type": "H0"}}

>  <type>  (9) 
unop_5

>  <geom_source>  (9) 
Heuristics

$$$$

     RDKit          3D

 28 27  0  0  0  0  0  0  0  0999 V2000
    1.8774    0.8069   -1.3410 C   0  0  0  0  0  0  0  0  0  0  0  0
    0.4291    0.3866   -1.1023 C   0  0  0  0  0  3  0  0  0  0  0  0
   -0.0525    0.7288    0.2866 C   0  0  0  0  0  0  0  0  0  0  0  0
   -0.1322    2.0484    0.7248 C   0  0  0  0  0  0  0  0  0  0  0  0
   -0.5421    2.3399    2.0136 C   0  0  0  0  0  0  0  0  0  0  0  0
   -0.8847    1.3164    2.8878 C   0  0  0  0  0  0  0  0  0  0  0  0
   -0.8142    0.0016    2.4607 C   0  0  0  0  0  0  0  0  0  0  0  0
   -0.3999   -0.2876    1.1676 C   0  0  0  0  0  0  0  0  0  0  0  0
   -0.5881    1.1577   -2.4180 S   0  0  0  0  0  0  0  0  0  0  0  0
    2.2098    0.5129   -2.3376 H   0  0  0  0  0  0  0  0  0  0  0  0
    1.9941    1.8873   -1.2436 H   0  0  0  0  0  0  0  0  0  0  0  0
    2.5233    0.3280   -0.6039 H   0  0  0  0  0  0  0  0  0  0  0  0
    0.1130    2.8529    0.0419 H   0  0  0  0  0  0  0  0  0  0  0  0
   -0.5991    3.3712    2.3387 H   0  0  0  0  0  0  0  0  0  0  0  0
   -1.2082    1.5462    3.8950 H   0  0  0  0  0  0  0  0  0  0  0  0
   -1.0824   -0.8042    3.1325 H   0  0  0  0  0  0  0  0  0  0  0  0
   -0.3458   -1.3198    0.8399 H   0  0  0  0  0  0  0  0  0  0  0  0
   -1.7775    0.7509   -1.9562 H   0  0  0  0  0  0  0  0  0  0  0  0
    0.4291   -3.0922   -1.9566 C   0  0  0  0  0  0  0  0  0  0  0  0
    0.4291   -3.0922   -0.6277 C   0  0  0  0  0  0  0  0  0  0  0  0
    0.4291   -1.8848    0.1876 C   0  0  0  0  0  0  0  0  0  0  0  0
    0.4291   -1.8848    1.5165 C   0  0  0  0  0  0  0  0  0  0  0  0
    0.4291   -2.1656   -2.5200 H   0  0  0  0  0  0  0  0  0  0  0  0
    0.4291   -4.0137   -2.5238 H   0  0  0  0  0  0  0  0  0  0  0  0
    0.4291   -4.0371   -0.0911 H   0  0  0  0  0  0  0  0  0  0  0  0
    0.4291   -0.7509   -0.4564 H   0  0  0  0  0  0  0  0  0  0  0  0
    0.4291   -2.8114    2.0799 H   0  0  0  0  0  0  0  0  0  0  0  0
    0.4291   -0.9633    2.0837 H   0  0  0  0  0  0  0  0  0  0  0  0
  1  2  1  0
  1 10  1  0
  1 11  1  0
  1 12  1  0
  2  3  1  0
  2  9  1  0
  3  4  2  0
  3  8  1  0
  4  5  1  0
  4 13  1  0
  5  6  2  0
  5 14  1  0
  6  7  1  0
  6 15  1  0
  7  8  2  0
  7 16  1  0
  8 17  1  0
  9 18  1  0
 19 20  2  3
 19 23  1  0
 19 24  1  0
 20 21  1  0
 20 25  1  0
 21 22  2  3
 21 26  1  0
 22 27  1  0
 22 28  1  0
M  RAD  1   2   2
M  END
>  <reaction>  (10) 
rxn_1683

>  <mol_properties>  (10) 
{"1": {"label": "*1", "atom_type": "Cs"}, "2": {"label": "*0", "atom_type": "Cd"}, "19": {"label": "*4", "atom_type": "Cd"}, "20": {"label": "*3", "atom_type": "Cd"}, "25": {"label": "*2", "atom_type": "H0"}}

>  <type>  (10) 
unop_6

>  <geom_source>  (10) 
Heuristics

$$$$

     RDKit          3D

 28 27  0  0  0  0  0  0  0  0999 V2000
    2.1027    1.3310   -0.4115 C   0  0  0  0  0  0  0  0  0  0  0  0
    0.8485    0.5531   -0.8025 C   0  0  0  0  0  3  0  0  0  0  0  0
   -0.2587    0.6894    0.2142 C   0  0  0  0  0  0  0  0  0  0  0  0
   -0.8434    1.9223    0.4927 C   0  0  0  0  0  0  0  0  0  0  0  0
   -1.8324    2.0327    1.4539 C   0  0  0  0  0  0  0  0  0  0  0  0
   -2.2588    0.9103    2.1519 C   0  0  0  0  0  0  0  0  0  0  0  0
   -1.6880   -0.3210    1.8792 C   0  0  0  0  0  0  0  0  0  0  0  0
   -0.6940   -0.4278    0.9158 C   0  0  0  0  0  0  0  0  0  0  0  0
    0.3528    1.1191   -2.4742 S   0  0  0  0  0  0  0  0  0  0  0  0
    2.8977    1.1832   -1.1438 H   0  0  0  0  0  0  0  0  0  0  0  0
    1.8956    2.3997   -0.3390 H   0  0  0  0  0  0  0  0  0  0  0  0
    2.4578    0.9874    0.5610 H   0  0  0  0  0  0  0  0  0  0  0  0
   -0.5310    2.7985   -0.0627 H   0  0  0  0  0  0  0  0  0  0  0  0
   -2.2772    2.9986    1.6582 H   0  0  0  0  0  0  0  0  0  0  0  0
   -3.0349    0.9977    2.9015 H   0  0  0  0  0  0  0  0  0  0  0  0
   -2.0153   -1.2034    2.4146 H   0  0  0  0  0  0  0  0  0  0  0  0
   -0.2503   -1.3951    0.7080 H   0  0  0  0  0  0  0  0  0  0  0  0
   -0.7781    0.4062   -2.5527 H   0  0  0  0  0  0  0  0  0  0  0  0
    0.8485   -2.9256   -1.6568 C   0  0  0  0  0  0  0  0  0  0  0  0
    0.8485   -2.9256   -0.3279 C   0  0  0  0  0  0  0  0  0  0  0  0
    0.8485   -1.7183    0.4874 C   0  0  0  0  0  0  0  0  0  0  0  0
    0.8485   -1.7183    1.8163 C   0  0  0  0  0  0  0  0  0  0  0  0
    0.8485   -1.9990   -2.2202 H   0  0  0  0  0  0  0  0  0  0  0  0
    0.8485   -3.8472   -2.2240 H   0  0  0  0  0  0  0  0  0  0  0  0
    0.8485   -3.8706    0.2087 H   0  0  0  0  0  0  0  0  0  0  0  0
    0.8485   -0.5844   -0.1565 H   0  0  0  0  0  0  0  0  0  0  0  0
    0.8485   -2.6449    2.3797 H   0  0  0  0  0  0  0  0  0  0  0  0
    0.8485   -0.7968    2.3835 H   0  0  0  0  0  0  0  0  0  0  0  0
  1  2  1  0
  1 10  1  0
  1 11  1  0
  1 12  1  0
  2  3  1  0
  2  9  1  0
  3  4  2  0
  3  8  1  0
  4  5  1  0
  4 13  1  0
  5  6  2  0
  5 14  1  0
  6  7  1  0
  6 15  1  0
  7  8  2  0
  7 16  1  0
  8 17  1  0
  9 18  1  0
 19 20  2  3
 19 23  1  0
 19 24  1  0
 20 21  1  0
 20 25  1  0
 21 22  2  3
 21 26  1  0
 22 27  1  0
 22 28  1  0
M  RAD  1   2   2
M  END
>  <reaction>  (11) 
rxn_1683

>  <mol_properties>  (11) 
{"1": {"label": "*1", "atom_type": "Cs"}, "2": {"label": "*0", "atom_type": "Cd"}, "19": {"label": "*4", "atom_type": "Cd"}, "20": {"label": "*3", "atom_type": "Cd"}, "25": {"label": "*2", "atom_type": "H0"}}

>  <type>  (11) 
unop_7

>  <geom_source>  (11) 
Heuristics

$$$$

     RDKit          3D

 28 27  0  0  0  0  0  0  0  0999 V2000
   -2.1502    0.6241   -0.0074 C   0  0  0  0  0  0  0  0  0  0  0  0
   -0.7019    0.2038    0.2313 C   0  0  0  0  0  3  0  0  0  0  0  0
    0.2593    0.8674   -0.7246 C   0  0  0  0  0  0  0  0  0  0  0  0
    0.4320    2.2493   -0.7409 C   0  0  0  0  0  0  0  0  0  0  0  0
    1.2913    2.8419   -1.6489 C   0  0  0  0  0  0  0  0  0  0  0  0
    1.9982    2.0625   -2.5555 C   0  0  0  0  0  0  0  0  0  0  0  0
    1.8380    0.6876   -2.5443 C   0  0  0  0  0  0  0  0  0  0  0  0
    0.9729    0.0963   -1.6335 C   0  0  0  0  0  0  0  0  0  0  0  0
   -0.3133    0.5538    1.9883 S   0  0  0  0  0  0  0  0  0  0  0  0
   -2.8253    0.1006    0.6711 H   0  0  0  0  0  0  0  0  0  0  0  0
   -2.2772    1.6975    0.1406 H   0  0  0  0  0  0  0  0  0  0  0  0
   -2.4355    0.3868   -1.0331 H   0  0  0  0  0  0  0  0  0  0  0  0
   -0.0998    2.8618   -0.0228 H   0  0  0  0  0  0  0  0  0  0  0  0
    1.4147    3.9177   -1.6483 H   0  0  0  0  0  0  0  0  0  0  0  0
    2.6725    2.5274   -3.2634 H   0  0  0  0  0  0  0  0  0  0  0  0
    2.3869    0.0698   -3.2440 H   0  0  0  0  0  0  0  0  0  0  0  0
    0.8513   -0.9811   -1.6310 H   0  0  0  0  0  0  0  0  0  0  0  0
    0.9819    0.2179    1.9328 H   0  0  0  0  0  0  0  0  0  0  0  0
   -0.7019   -3.2749   -0.6229 C   0  0  0  0  0  0  0  0  0  0  0  0
   -0.7019   -3.2749    0.7059 C   0  0  0  0  0  0  0  0  0  0  0  0
   -0.7019   -2.0676    1.5212 C   0  0  0  0  0  0  0  0  0  0  0  0
   -0.7019   -2.0676    2.8501 C   0  0  0  0  0  0  0  0  0  0  0  0
   -0.7019   -2.3483   -1.1864 H   0  0  0  0  0  0  0  0  0  0  0  0
   -0.7019   -4.1965   -1.1901 H   0  0  0  0  0  0  0  0  0  0  0  0
   -0.7019   -4.2199    1.2426 H   0  0  0  0  0  0  0  0  0  0  0  0
   -0.7019   -0.9337    0.8773 H   0  0  0  0  0  0  0  0  0  0  0  0
   -0.7019   -2.9942    3.4136 H   0  0  0  0  0  0  0  0  0  0  0  0
   -0.7019   -1.1461    3.4173 H   0  0  0  0  0  0  0  0  0  0  0  0
  1  2  1  0
  1 10  1  0
  1 11  1  0
  1 12  1  0
  2  3  1  0
  2  9  1  0
  3  4  2  0
  3  8  1  0
  4  5  1  0
  4 13  1  0
  5  6  2  0
  5 14  1  0
  6  7  1  0
  6 15  1  0
  7  8  2  0
  7 16  1  0
  8 17  1  0
  9 18  1  0
 19 20  2  3
 19 23  1  0
 19 24  1  0
 20 21  1  0
 20 25  1  0
 21 22  2  3
 21 26  1  0
 22 27  1  0
 22 28  1  0
M  RAD  1   2   2
M  END
>  <reaction>  (12) 
rxn_1683

>  <mol_properties>  (12) 
{"1": {"label": "*1", "atom_type": "Cs"}, "2": {"label": "*0", "atom_type": "Cd"}, "19": {"label": "*4", "atom_type": "Cd"}, "20": {"label": "*3", "atom_type": "Cd"}, "25": {"label": "*2", "atom_type": "H0"}}

>  <type>  (12) 
unop_8

>  <geom_source>  (12) 
Heuristics

$$$$

     RDKit          3D

 28 27  0  0  0  0  0  0  0  0999 V2000
    0.2455   -0.0546   -2.2252 C   0  0  0  0  0  0  0  0  0  0  0  0
   -0.4787    0.1445   -0.8959 C   0  0  0  0  0  3  0  0  0  0  0  0
    0.3835    0.8281    0.1373 C   0  0  0  0  0  0  0  0  0  0  0  0
    0.8557    2.1247   -0.0514 C   0  0  0  0  0  0  0  0  0  0  0  0
    1.6743    2.7212    0.8910 C   0  0  0  0  0  0  0  0  0  0  0  0
    2.0327    2.0332    2.0430 C   0  0  0  0  0  0  0  0  0  0  0  0
    1.5646    0.7459    2.2431 C   0  0  0  0  0  0  0  0  0  0  0  0
    0.7454    0.1493    1.2941 C   0  0  0  0  0  0  0  0  0  0  0  0
   -2.0273    1.0598   -1.2484 S   0  0  0  0  0  0  0  0  0  0  0  0
   -0.3872   -0.5845   -2.9387 H   0  0  0  0  0  0  0  0  0  0  0  0
    0.5323    0.9024   -2.6635 H   0  0  0  0  0  0  0  0  0  0  0  0
    1.1521   -0.6393   -2.0637 H   0  0  0  0  0  0  0  0  0  0  0  0
    0.5631    2.6753   -0.9374 H   0  0  0  0  0  0  0  0  0  0  0  0
    2.0326    3.7301    0.7295 H   0  0  0  0  0  0  0  0  0  0  0  0
    2.6708    2.5023    2.7810 H   0  0  0  0  0  0  0  0  0  0  0  0
    1.8345    0.2015    3.1393 H   0  0  0  0  0  0  0  0  0  0  0  0
    0.3832   -0.8597    1.4564 H   0  0  0  0  0  0  0  0  0  0  0  0
   -2.4188    1.2027    0.0243 H   0  0  0  0  0  0  0  0  0  0  0  0
   -0.4787   -3.3343   -1.7501 C   0  0  0  0  0  0  0  0  0  0  0  0
   -0.4787   -3.3343   -0.4212 C   0  0  0  0  0  0  0  0  0  0  0  0
   -0.4787   -2.1270    0.3940 C   0  0  0  0  0  0  0  0  0  0  0  0
   -0.4787   -2.1270    1.7229 C   0  0  0  0  0  0  0  0  0  0  0  0
   -0.4787   -2.4077   -2.3136 H   0  0  0  0  0  0  0  0  0  0  0  0
   -0.4787   -4.2558   -2.3173 H   0  0  0  0  0  0  0  0  0  0  0  0
   -0.4787   -4.2792    0.1154 H   0  0  0  0  0  0  0  0  0  0  0  0
   -0.4787   -0.9930   -0.2499 H   0  0  0  0  0  0  0  0  0  0  0  0
   -0.4787   -3.0536    2.2864 H   0  0  0  0  0  0  0  0  0  0  0  0
   -0.4787   -1.2054    2.2901 H   0  0  0  0  0  0  0  0  0  0  0  0
  1  2  1  0
  1 10  1  0
  1 11  1  0
  1 12  1  0
  2  3  1  0
  2  9  1  0
  3  4  2  0
  3  8  1  0
  4  5  1  0
  4 13  1  0
  5  6  2  0
  5 14  1  0
  6  7  1  0
  6 15  1  0
  7  8  2  0
  7 16  1  0
  8 17  1  0
  9 18  1  0
 19 20  2  3
 19 23  1  0
 19 24  1  0
 20 21  1  0
 20 25  1  0
 21 22  2  3
 21 26  1  0
 22 27  1  0
 22 28  1  0
M  RAD  1   2   2
M  END
>  <reaction>  (13) 
rxn_1683

>  <mol_properties>  (13) 
{"1": {"label": "*1", "atom_type": "Cs"}, "2": {"label": "*0", "atom_type": "Cd"}, "19": {"label": "*4", "atom_type": "Cd"}, "20": {"label": "*3", "atom_type": "Cd"}, "25": {"label": "*2", "atom_type": "H0"}}

>  <type>  (13) 
unop_9

>  <geom_source>  (13) 
Heuristics

$$$$

     RDKit          3D

 28 27  0  0  0  0  0  0  0  0999 V2000
   -1.9730    0.1550   -0.8753 C   0  0  0  0  0  0  0  0  0  0  0  0
   -0.7188    0.0923   -0.0070 C   0  0  0  0  0  3  0  0  0  0  0  0
    0.4241    0.8941   -0.5806 C   0  0  0  0  0  0  0  0  0  0  0  0
    0.3367    2.2749   -0.7398 C   0  0  0  0  0  0  0  0  0  0  0  0
    1.3814    2.9877   -1.3007 C   0  0  0  0  0  0  0  0  0  0  0  0
    2.5362    2.3328   -1.7089 C   0  0  0  0  0  0  0  0  0  0  0  0
    2.6357    0.9613   -1.5502 C   0  0  0  0  0  0  0  0  0  0  0  0
    1.5844    0.2488   -0.9895 C   0  0  0  0  0  0  0  0  0  0  0  0
   -1.1928    0.6348    1.6787 S   0  0  0  0  0  0  0  0  0  0  0  0
   -2.7685   -0.4636   -0.4572 H   0  0  0  0  0  0  0  0  0  0  0  0
   -2.3412    1.1784   -0.9605 H   0  0  0  0  0  0  0  0  0  0  0  0
   -1.7420   -0.2071   -1.8780 H   0  0  0  0  0  0  0  0  0  0  0  0
   -0.5523    2.7953   -0.4042 H   0  0  0  0  0  0  0  0  0  0  0  0
    1.2978    4.0610   -1.4172 H   0  0  0  0  0  0  0  0  0  0  0  0
    3.3541    2.8923   -2.1447 H   0  0  0  0  0  0  0  0  0  0  0  0
    3.5328    0.4409   -1.8615 H   0  0  0  0  0  0  0  0  0  0  0  0
    1.6684   -0.8256   -0.8692 H   0  0  0  0  0  0  0  0  0  0  0  0
    0.0372    0.6001    2.2069 H   0  0  0  0  0  0  0  0  0  0  0  0
   -0.7188   -3.3865   -0.8612 C   0  0  0  0  0  0  0  0  0  0  0  0
   -0.7188   -3.3865    0.4677 C   0  0  0  0  0  0  0  0  0  0  0  0
   -0.7188   -2.1791    1.2829 C   0  0  0  0  0  0  0  0  0  0  0  0
   -0.7188   -2.1791    2.6118 C   0  0  0  0  0  0  0  0  0  0  0  0
   -0.7188   -2.4599   -1.4247 H   0  0  0  0  0  0  0  0  0  0  0  0
   -0.7188   -4.3080   -1.4284 H   0  0  0  0  0  0  0  0  0  0  0  0
   -0.7188   -4.3314    1.0043 H   0  0  0  0  0  0  0  0  0  0  0  0
   -0.7188   -1.0452    0.6390 H   0  0  0  0  0  0  0  0  0  0  0  0
   -0.7188   -3.1057    3.1753 H   0  0  0  0  0  0  0  0  0  0  0  0
   -0.7188   -1.2576    3.1790 H   0  0  0  0  0  0  0  0  0  0  0  0
  1  2  1  0
  1 10  1  0
  1 11  1  0
  1 12  1  0
  2  3  1  0
  2  9  1  0
  3  4  2  0
  3  8  1  0
  4  5  1  0
  4 13  1  0
  5  6  2  0
  5 14  1  0
  6  7  1  0
  6 15  1  0
  7  8  2  0
  7 16  1  0
  8 17  1  0
  9 18  1  0
 19 20  2  3
 19 23  1  0
 19 24  1  0
 20 21  1  0
 20 25  1  0
 21 22  2  3
 21 26  1  0
 22 27  1  0
 22 28  1  0
M  RAD  1   2   2
M  END
>  <reaction>  (14) 
rxn_1683

>  <mol_properties>  (14) 
{"1": {"label": "*1", "atom_type": "Cs"}, "2": {"label": "*0", "atom_type": "Cd"}, "19": {"label": "*4", "atom_type": "Cd"}, "20": {"label": "*3", "atom_type": "Cd"}, "25": {"label": "*2", "atom_type": "H0"}}

>  <type>  (14) 
unop_10

>  <geom_source>  (14) 
Heuristics

$$$$

     RDKit          3D

 28 27  0  0  0  0  0  0  0  0999 V2000
    1.7615    1.7240    0.6358 C   0  0  0  0  0  0  0  0  0  0  0  0
    1.0373    0.6844   -0.2162 C   0  0  0  0  0  3  0  0  0  0  0  0
   -0.4533    0.6770    0.0208 C   0  0  0  0  0  0  0  0  0  0  0  0
   -1.2421    1.7871   -0.2707 C   0  0  0  0  0  0  0  0  0  0  0  0
   -2.6013    1.7737   -0.0130 C   0  0  0  0  0  0  0  0  0  0  0  0
   -3.1985    0.6470    0.5374 C   0  0  0  0  0  0  0  0  0  0  0  0
   -2.4246   -0.4639    0.8260 C   0  0  0  0  0  0  0  0  0  0  0  0
   -1.0604   -0.4460    0.5685 C   0  0  0  0  0  0  0  0  0  0  0  0
    1.4778    1.0082   -1.9659 S   0  0  0  0  0  0  0  0  0  0  0  0
    2.8392    1.6803    0.4725 H   0  0  0  0  0  0  0  0  0  0  0  0
    1.4181    2.7326    0.4010 H   0  0  0  0  0  0  0  0  0  0  0  0
    1.5620    1.5348    1.6914 H   0  0  0  0  0  0  0  0  0  0  0  0
   -0.7870    2.6618   -0.7197 H   0  0  0  0  0  0  0  0  0  0  0  0
   -3.2007    2.6449   -0.2458 H   0  0  0  0  0  0  0  0  0  0  0  0
   -4.2627    0.6368    0.7356 H   0  0  0  0  0  0  0  0  0  0  0  0
   -2.8801   -1.3491    1.2517 H   0  0  0  0  0  0  0  0  0  0  0  0
   -0.4599   -1.3192    0.7981 H   0  0  0  0  0  0  0  0  0  0  0  0
    0.6755    0.0809   -2.5043 H   0  0  0  0  0  0  0  0  0  0  0  0
    1.0373   -2.7944   -1.0704 C   0  0  0  0  0  0  0  0  0  0  0  0
    1.0373   -2.7944    0.2585 C   0  0  0  0  0  0  0  0  0  0  0  0
    1.0373   -1.5870    1.0737 C   0  0  0  0  0  0  0  0  0  0  0  0
    1.0373   -1.5870    2.4026 C   0  0  0  0  0  0  0  0  0  0  0  0
    1.0373   -1.8678   -1.6339 H   0  0  0  0  0  0  0  0  0  0  0  0
    1.0373   -3.7159   -1.6376 H   0  0  0  0  0  0  0  0  0  0  0  0
    1.0373   -3.7393    0.7951 H   0  0  0  0  0  0  0  0  0  0  0  0
    1.0373   -0.4531    0.4298 H   0  0  0  0  0  0  0  0  0  0  0  0
    1.0373   -2.5136    2.9661 H   0  0  0  0  0  0  0  0  0  0  0  0
    1.0373   -0.6655    2.9698 H   0  0  0  0  0  0  0  0  0  0  0  0
  1  2  1  0
  1 10  1  0
  1 11  1  0
  1 12  1  0
  2  3  1  0
  2  9  1  0
  3  4  2  0
  3  8  1  0
  4  5  1  0
  4 13  1  0
  5  6  2  0
  5 14  1  0
  6  7  1  0
  6 15  1  0
  7  8  2  0
  7 16  1  0
  8 17  1  0
  9 18  1  0
 19 20  2  3
 19 23  1  0
 19 24  1  0
 20 21  1  0
 20 25  1  0
 21 22  2  3
 21 26  1  0
 22 27  1  0
 22 28  1  0
M  RAD  1   2   2
M  END
>  <reaction>  (15) 
rxn_1683

>  <mol_properties>  (15) 
{"1": {"label": "*1", "atom_type": "Cs"}, "2": {"label": "*0", "atom_type": "Cd"}, "19": {"label": "*4", "atom_type": "Cd"}, "20": {"label": "*3", "atom_type": "Cd"}, "25": {"label": "*2", "atom_type": "H0"}}

>  <type>  (15) 
unop_11

>  <geom_source>  (15) 
Heuristics

$$$$

     RDKit          3D

 28 27  0  0  0  0  0  0  0  0999 V2000
   -0.6867   -0.2173   -2.0338 C   0  0  0  0  0  0  0  0  0  0  0  0
   -0.6867    0.0776   -0.5358 C   0  0  0  0  0  3  0  0  0  0  0  0
    0.5207    0.8723   -0.1014 C   0  0  0  0  0  0  0  0  0  0  0  0
    0.7547    2.1597   -0.5781 C   0  0  0  0  0  0  0  0  0  0  0  0
    1.8860    2.8585   -0.1959 C   0  0  0  0  0  0  0  0  0  0  0  0
    2.8029    2.2840    0.6748 C   0  0  0  0  0  0  0  0  0  0  0  0
    2.5773    1.0069    1.1589 C   0  0  0  0  0  0  0  0  0  0  0  0
    1.4424    0.3075    0.7713 C   0  0  0  0  0  0  0  0  0  0  0  0
   -2.2690    0.9161   -0.1434 S   0  0  0  0  0  0  0  0  0  0  0  0
   -1.5493   -0.8246   -2.3120 H   0  0  0  0  0  0  0  0  0  0  0  0
   -0.7128    0.7051   -2.6158 H   0  0  0  0  0  0  0  0  0  0  0  0
    0.2210   -0.7606   -2.2995 H   0  0  0  0  0  0  0  0  0  0  0  0
    0.0333    2.6225   -1.2408 H   0  0  0  0  0  0  0  0  0  0  0  0
    2.0530    3.8588   -0.5753 H   0  0  0  0  0  0  0  0  0  0  0  0
    3.6861    2.8332    0.9755 H   0  0  0  0  0  0  0  0  0  0  0  0
    3.2835    0.5506    1.8412 H   0  0  0  0  0  0  0  0  0  0  0  0
    1.2723   -0.6929    1.1532 H   0  0  0  0  0  0  0  0  0  0  0  0
   -2.0026    1.1592    1.1463 H   0  0  0  0  0  0  0  0  0  0  0  0
   -0.6867   -3.4012   -1.3900 C   0  0  0  0  0  0  0  0  0  0  0  0
   -0.6867   -3.4012   -0.0611 C   0  0  0  0  0  0  0  0  0  0  0  0
   -0.6867   -2.1938    0.7542 C   0  0  0  0  0  0  0  0  0  0  0  0
   -0.6867   -2.1938    2.0830 C   0  0  0  0  0  0  0  0  0  0  0  0
   -0.6867   -2.4746   -1.9535 H   0  0  0  0  0  0  0  0  0  0  0  0
   -0.6867   -4.3227   -1.9572 H   0  0  0  0  0  0  0  0  0  0  0  0
   -0.6867   -4.3461    0.4755 H   0  0  0  0  0  0  0  0  0  0  0  0
   -0.6867   -1.0599    0.1102 H   0  0  0  0  0  0  0  0  0  0  0  0
   -0.6867   -3.1204    2.6465 H   0  0  0  0  0  0  0  0  0  0  0  0
   -0.6867   -1.2723    2.6502 H   0  0  0  0  0  0  0  0  0  0  0  0
  1  2  1  0
  1 10  1  0
  1 11  1  0
  1 12  1  0
  2  3  1  0
  2  9  1  0
  3  4  2  0
  3  8  1  0
  4  5  1  0
  4 13  1  0
  5  6  2  0
  5 14  1  0
  6  7  1  0
  6 15  1  0
  7  8  2  0
  7 16  1  0
  8 17  1  0
  9 18  1  0
 19 20  2  3
 19 23  1  0
 19 24  1  0
 20 21  1  0
 20 25  1  0
 21 22  2  3
 21 26  1  0
 22 27  1  0
 22 28  1  0
M  RAD  1   2   2
M  END
>  <reaction>  (16) 
rxn_1683

>  <mol_properties>  (16) 
{"1": {"label": "*1", "atom_type": "Cs"}, "2": {"label": "*0", "atom_type": "Cd"}, "19": {"label": "*4", "atom_type": "Cd"}, "20": {"label": "*3", "atom_type": "Cd"}, "25": {"label": "*2", "atom_type": "H0"}}

>  <type>  (16) 
unop_12

>  <geom_source>  (16) 
Heuristics

$$$$

     RDKit          3D

 28 27  0  0  0  0  0  0  0  0999 V2000
    0.6047    2.2254   -0.2709 S   0  0  0  0  0  0  0  0  0  0  0  0
    0.0843    0.5513   -0.7837 C   0  0  0  0  0  3  0  0  0  0  0  0
    0.0413    0.4339   -2.3079 C   0  0  0  0  0  0  0  0  0  0  0  0
   -1.2364    0.1813   -0.1454 C   0  0  0  0  0  0  0  0  0  0  0  0
   -1.2802   -0.8347    0.8256 C   0  0  0  0  0  0  0  0  0  0  0  0
   -2.4293    0.8482   -0.4882 C   0  0  0  0  0  0  0  0  0  0  0  0
   -2.4908   -1.1822    1.4332 C   0  0  0  0  0  0  0  0  0  0  0  0
   -3.6679   -0.5180    1.0816 C   0  0  0  0  0  0  0  0  0  0  0  0
   -3.6369    0.4966    0.1225 C   0  0  0  0  0  0  0  0  0  0  0  0
    2.7732    0.3973    1.1000 C   0  0  0  0  0  0  0  0  0  0  0  0
    4.1047    0.3425    1.1556 C   0  0  0  0  0  0  0  0  0  0  0  0
    2.3224   -1.8403    0.0693 C   0  0  0  0  0  0  0  0  0  0  0  0
    1.9086   -0.6758    0.5667 C   0  0  0  0  0  0  0  0  0  0  0  0
    1.1051   -0.3498   -0.3321 H   0  0  0  0  0  0  0  0  0  0  0  0
    1.0536    0.6223   -2.7229 H   0  0  0  0  0  0  0  0  0  0  0  0
   -0.6646    1.1661   -2.7521 H   0  0  0  0  0  0  0  0  0  0  0  0
   -0.2693   -0.5920   -2.5987 H   0  0  0  0  0  0  0  0  0  0  0  0
   -0.3801   -1.3607    1.1170 H   0  0  0  0  0  0  0  0  0  0  0  0
   -2.5156   -1.9666    2.1786 H   0  0  0  0  0  0  0  0  0  0  0  0
   -4.6037   -0.7884    1.5535 H   0  0  0  0  0  0  0  0  0  0  0  0
   -4.5493    1.0123   -0.1476 H   0  0  0  0  0  0  0  0  0  0  0  0
   -2.4301    1.6390   -1.2261 H   0  0  0  0  0  0  0  0  0  0  0  0
    2.2815    1.2878    1.4698 H   0  0  0  0  0  0  0  0  0  0  0  0
    4.6673   -0.5108    0.8068 H   0  0  0  0  0  0  0  0  0  0  0  0
    4.6567    1.1790    1.5640 H   0  0  0  0  0  0  0  0  0  0  0  0
    1.5888   -2.5477   -0.2921 H   0  0  0  0  0  0  0  0  0  0  0  0
    3.3661   -2.1115    0.0106 H   0  0  0  0  0  0  0  0  0  0  0  0
   -0.4039    2.8955   -0.9872 H   0  0  0  0  0  0  0  0  0  0  0  0
  1  2  1  0
  1 28  1  0
  2  3  1  0
  2  4  1  0
  3 15  1  0
  3 16  1  0
  3 17  1  0
  4  5  2  0
  4  6  1  0
  5  7  1  0
  5 18  1  0
  6  9  2  0
  6 22  1  0
  7  8  2  0
  7 19  1  0
  8  9  1  0
  8 20  1  0
  9 21  1  0
 10 11  2  3
 10 13  1  0
 10 23  1  0
 11 24  1  0
 11 25  1  0
 12 13  2  3
 12 26  1  0
 12 27  1  0
 13 14  1  0
M  RAD  1   2   2
M  END
>  <reaction>  (17) 
rxn_1683

>  <mol_properties>  (17) 
{"1": {"label": "*1", "atom_type": "Cs"}, "2": {"label": "*0", "atom_type": "Cd"}, "19": {"label": "*4", "atom_type": "Cd"}, "20": {"label": "*3", "atom_type": "Cd"}, "25": {"label": "*2", "atom_type": "H0"}}

>  <type>  (17) 
unop_13

>  <geom_source>  (17) 
AutoTST

$$$$
