
     RDKit          3D

  8  7  0  0  0  0  0  0  0  0999 V2000
    0.7610    0.0250    0.0051 C   0  0  0  0  0  0  0  0  0  0  0  0
   -0.7610   -0.0250   -0.0051 C   0  0  0  0  0  0  0  0  0  0  0  0
    1.1904   -0.9237   -0.3217 H   0  0  0  0  0  0  0  0  0  0  0  0
    1.1359    0.8041   -0.6609 H   0  0  0  0  0  0  0  0  0  0  0  0
    1.1435    0.2336    1.0058 H   0  0  0  0  0  0  0  0  0  0  0  0
   -1.1435   -0.2336   -1.0058 H   0  0  0  0  0  0  0  0  0  0  0  0
   -1.1904    0.9237    0.3216 H   0  0  0  0  0  0  0  0  0  0  0  0
   -1.1359   -0.8041    0.6609 H   0  0  0  0  0  0  0  0  0  0  0  0
  1  2  1  0
  1  3  1  0
  1  4  1  0
  1  5  1  0
  2  6  1  0
  2  7  1  0
  2  8  1  0
M  END
>  <reaction>  (1) 
rxn_881

>  <mol_properties>  (1) 
{"1": {"label": "donator", "atom_type": "Cs"}, "5": {"label": "d_hydrogen", "atom_type": "H0"}}

>  <type>  (1) 
r1h

$$$$

     RDKit          3D

 17 17  0  0  0  0  0  0  0  0999 V2000
    2.7069    0.2860   -0.1817 C   0  0  0  0  0  0  0  0  0  0  0  0
    1.6304   -0.7245    0.0085 C   0  0  0  0  0  0  0  0  0  0  0  0
    1.4786   -1.8800   -0.7837 C   0  0  0  0  0  0  0  0  0  0  0  0
    0.4231   -2.7891   -0.5312 C   0  0  0  0  0  3  0  0  0  0  0  0
    0.2582   -3.9235   -1.2940 C   0  0  0  0  0  0  0  0  0  0  0  0
    1.1348   -4.2030   -2.3401 C   0  0  0  0  0  0  0  0  0  0  0  0
    2.1804   -3.3260   -2.6093 C   0  0  0  0  0  0  0  0  0  0  0  0
    2.3549   -2.1866   -1.8513 C   0  0  0  0  0  0  0  0  0  0  0  0
    2.6698    0.7343   -1.1808 H   0  0  0  0  0  0  0  0  0  0  0  0
    3.7029   -0.1584   -0.0766 H   0  0  0  0  0  0  0  0  0  0  0  0
    2.6250    1.0917    0.5463 H   0  0  0  0  0  0  0  0  0  0  0  0
    0.9136   -0.5677    0.8059 H   0  0  0  0  0  0  0  0  0  0  0  0
   -0.2629   -2.5783    0.2811 H   0  0  0  0  0  0  0  0  0  0  0  0
   -0.5582   -4.6017   -1.0785 H   0  0  0  0  0  0  0  0  0  0  0  0
    1.0033   -5.0952   -2.9384 H   0  0  0  0  0  0  0  0  0  0  0  0
    2.8650   -3.5382   -3.4214 H   0  0  0  0  0  0  0  0  0  0  0  0
    3.1750   -1.5169   -2.0772 H   0  0  0  0  0  0  0  0  0  0  0  0
  1  2  1  0
  1  9  1  0
  1 10  1  0
  1 11  1  0
  2  3  2  3
  2 12  1  0
  3  4  1  0
  3  8  1  0
  4  5  1  0
  4 13  1  0
  5  6  2  0
  5 14  1  0
  6  7  1  0
  6 15  1  0
  7  8  2  0
  7 16  1  0
  8 17  1  0
M  RAD  1   4   2
M  END
>  <reaction>  (2) 
rxn_881

>  <mol_properties>  (2) 
{"1": {"label": "acceptor", "atom_type": "Cs"}}

>  <type>  (2) 
r2

$$$$

     RDKit          3D

 18 18  0  0  0  0  0  0  0  0999 V2000
   -2.4852    0.3210   -0.3966 C   0  0  0  0  0  0  0  0  0  0  0  0
   -1.5917   -0.2708    0.6941 C   0  0  0  0  0  0  0  0  0  0  0  0
   -0.1292   -0.1692    0.3493 C   0  0  0  0  0  0  0  0  0  0  0  0
    0.6099    0.9558    0.7015 C   0  0  0  0  0  0  0  0  0  0  0  0
    1.9447    1.0728    0.3458 C   0  0  0  0  0  0  0  0  0  0  0  0
    2.5646    0.0613   -0.3720 C   0  0  0  0  0  0  0  0  0  0  0  0
    1.8399   -1.0657   -0.7287 C   0  0  0  0  0  0  0  0  0  0  0  0
    0.5055   -1.1769   -0.3700 C   0  0  0  0  0  0  0  0  0  0  0  0
   -2.3325   -0.1971   -1.3452 H   0  0  0  0  0  0  0  0  0  0  0  0
   -2.2554    1.3763   -0.5546 H   0  0  0  0  0  0  0  0  0  0  0  0
   -3.5397    0.2376   -0.1280 H   0  0  0  0  0  0  0  0  0  0  0  0
   -1.7801    0.2462    1.6380 H   0  0  0  0  0  0  0  0  0  0  0  0
   -1.8568   -1.3190    0.8516 H   0  0  0  0  0  0  0  0  0  0  0  0
    0.1327    1.7497    1.2656 H   0  0  0  0  0  0  0  0  0  0  0  0
    2.5033    1.9550    0.6330 H   0  0  0  0  0  0  0  0  0  0  0  0
    3.6077    0.1491   -0.6484 H   0  0  0  0  0  0  0  0  0  0  0  0
    2.3163   -1.8632   -1.2854 H   0  0  0  0  0  0  0  0  0  0  0  0
   -0.0540   -2.0629   -0.6500 H   0  0  0  0  0  0  0  0  0  0  0  0
  1  2  1  0
  1  9  1  0
  1 10  1  0
  1 11  1  0
  2  3  1  0
  2 12  1  0
  2 13  1  0
  3  4  2  0
  3  8  1  0
  4  5  1  0
  4 14  1  0
  5  6  2  0
  5 15  1  0
  6  7  1  0
  6 16  1  0
  7  8  2  0
  7 17  1  0
  8 18  1  0
M  END
>  <reaction>  (3) 
rxn_881

>  <mol_properties>  (3) 
{"1": {"label": "acceptor", "atom_type": "Cs"}, "17": {"label": "a_hydrogen", "atom_type": "H0"}}

>  <type>  (3) 
r2h

$$$$

     RDKit          3D

 25 24  0  0  0  0  0  0  0  0999 V2000
    0.1630    0.9670   -2.6266 C   0  0  0  0  0  0  0  0  0  0  0  0
   -0.7624    0.7690   -1.4499 C   0  0  0  0  0  0  0  0  0  0  0  0
   -0.1823    0.6705   -0.0940 C   0  0  0  0  0  0  0  0  0  0  0  0
   -1.0164    0.7901    1.0221 C   0  0  0  0  0  0  0  0  0  0  0  0
   -0.5268    0.6286    2.3053 C   0  0  0  0  0  0  0  0  0  0  0  0
    0.8169    0.3436    2.5092 C   0  0  0  0  0  0  0  0  0  0  0  0
    1.6590    0.2273    1.4146 C   0  0  0  0  0  0  0  0  0  0  0  0
    1.1661    0.3872    0.1287 C   0  0  0  0  0  0  0  0  0  0  0  0
    0.8548    0.1292   -2.7394 H   0  0  0  0  0  0  0  0  0  0  0  0
    0.7597    1.8779   -2.5245 H   0  0  0  0  0  0  0  0  0  0  0  0
   -0.4100    1.0423   -3.5514 H   0  0  0  0  0  0  0  0  0  0  0  0
   -1.6224    1.4388   -1.4732 H   0  0  0  0  0  0  0  0  0  0  0  0
   -2.0675    1.0108    0.8718 H   0  0  0  0  0  0  0  0  0  0  0  0
   -1.1947    0.7273    3.1522 H   0  0  0  0  0  0  0  0  0  0  0  0
    1.2032    0.2180    3.5126 H   0  0  0  0  0  0  0  0  0  0  0  0
    2.7100    0.0105    1.5612 H   0  0  0  0  0  0  0  0  0  0  0  0
    1.8429    0.2918   -0.7106 H   0  0  0  0  0  0  0  0  0  0  0  0
   -0.7954   -2.5412   -1.0714 C   0  0  0  0  0  0  0  0  0  0  0  0
   -1.7754   -1.7043   -1.8398 C   0  0  0  0  0  3  0  0  0  0  0  0
    0.2163   -2.4310   -1.4673 H   0  0  0  0  0  0  0  0  0  0  0  0
   -0.7702   -2.2538   -0.0185 H   0  0  0  0  0  0  0  0  0  0  0  0
   -1.0503   -3.6057   -1.1180 H   0  0  0  0  0  0  0  0  0  0  0  0
   -1.3149   -0.3684   -1.6547 H   0  0  0  0  0  0  0  0  0  0  0  0
   -2.7841   -1.6610   -1.4358 H   0  0  0  0  0  0  0  0  0  0  0  0
   -1.7601   -1.8186   -2.9213 H   0  0  0  0  0  0  0  0  0  0  0  0
  1  2  1  0
  1  9  1  0
  1 10  1  0
  1 11  1  0
  2  3  1  0
  2 12  1  0
  2 23  1  0
  3  4  2  0
  3  8  1  0
  4  5  1  0
  4 13  1  0
  5  6  2  0
  5 14  1  0
  6  7  1  0
  6 15  1  0
  7  8  2  0
  7 16  1  0
  8 17  1  0
 18 19  1  0
 18 20  1  0
 18 21  1  0
 18 22  1  0
 19 24  1  0
 19 25  1  0
M  RAD  1  19   2
M  END
>  <reaction>  (4) 
rxn_881

>  <mol_properties>  (4) 
{"1": {"label": "*1", "atom_type": "Cs"}, "2": {"label": "*0", "atom_type": "Cd"}, "17": {"label": "*4", "atom_type": "Cs"}, "18": {"label": "*3", "atom_type": "Cs"}, "22": {"label": "*2", "atom_type": "H0"}}

>  <type>  (4) 
ts

$$$$

     RDKit          3D

 25 24  0  0  0  0  0  0  0  0999 V2000
   -1.7720   -0.7302    1.6142 C   0  0  0  0  0  0  0  0  0  0  0  0
   -0.5231   -0.9423    0.7579 C   0  0  0  0  0  0  0  0  0  0  0  0
    0.0902    0.3594    0.3132 C   0  0  0  0  0  0  0  0  0  0  0  0
    1.0410    1.0044    1.0979 C   0  0  0  0  0  3  0  0  0  0  0  0
    1.5739    2.2253    0.7139 C   0  0  0  0  0  0  0  0  0  0  0  0
    1.1618    2.8237   -0.4671 C   0  0  0  0  0  0  0  0  0  0  0  0
    0.2154    2.1912   -1.2590 C   0  0  0  0  0  0  0  0  0  0  0  0
   -0.3137    0.9705   -0.8697 C   0  0  0  0  0  0  0  0  0  0  0  0
   -2.5330   -0.1791    1.0586 H   0  0  0  0  0  0  0  0  0  0  0  0
   -1.5335   -0.1540    2.5101 H   0  0  0  0  0  0  0  0  0  0  0  0
   -2.2007   -1.6843    1.9258 H   0  0  0  0  0  0  0  0  0  0  0  0
    0.2131   -1.5166    1.3254 H   0  0  0  0  0  0  0  0  0  0  0  0
    1.3706    0.5410    2.0214 H   0  0  0  0  0  0  0  0  0  0  0  0
    2.3158    2.7091    1.3371 H   0  0  0  0  0  0  0  0  0  0  0  0
    1.5786    3.7756   -0.7705 H   0  0  0  0  0  0  0  0  0  0  0  0
   -0.1096    2.6483   -2.1854 H   0  0  0  0  0  0  0  0  0  0  0  0
   -1.0512    0.4804   -1.4959 H   0  0  0  0  0  0  0  0  0  0  0  0
   -0.5231   -3.3847   -1.7154 C   0  0  0  0  0  0  0  0  0  0  0  0
   -0.5231   -3.3847   -0.1926 C   0  0  0  0  0  0  0  0  0  0  0  0
   -1.4039   -2.8761   -2.1113 H   0  0  0  0  0  0  0  0  0  0  0  0
    0.3578   -2.8761   -2.1113 H   0  0  0  0  0  0  0  0  0  0  0  0
   -0.5231   -4.4018   -2.1113 H   0  0  0  0  0  0  0  0  0  0  0  0
   -0.5231   -2.1642    0.2824 H   0  0  0  0  0  0  0  0  0  0  0  0
    0.3578   -3.8932    0.2032 H   0  0  0  0  0  0  0  0  0  0  0  0
   -1.4039   -3.8932    0.2032 H   0  0  0  0  0  0  0  0  0  0  0  0
  1  2  1  0
  1  9  1  0
  1 10  1  0
  1 11  1  0
  2  3  2  3
  2 12  1  0
  3  4  1  0
  3  8  1  0
  4  5  1  0
  4 13  1  0
  5  6  2  0
  5 14  1  0
  6  7  1  0
  6 15  1  0
  7  8  2  0
  7 16  1  0
  8 17  1  0
 18 19  1  0
 18 20  1  0
 18 21  1  0
 18 22  1  0
 19 23  1  0
 19 24  1  0
 19 25  1  0
M  RAD  1   4   2
M  END
>  <reaction>  (5) 
rxn_881

>  <mol_properties>  (5) 
{"1": {"label": "*1", "atom_type": "Cs"}, "2": {"label": "*0", "atom_type": "Cd"}, "17": {"label": "*4", "atom_type": "Cs"}, "18": {"label": "*3", "atom_type": "Cs"}, "22": {"label": "*2", "atom_type": "H0"}}

>  <type>  (5) 
unop_1

>  <geom_source>  (5) 
Heuristics

$$$$

     RDKit          3D

 25 24  0  0  0  0  0  0  0  0999 V2000
   -1.9900    0.6227   -1.1411 C   0  0  0  0  0  0  0  0  0  0  0  0
   -1.2689   -0.3039   -0.1615 C   0  0  0  0  0  0  0  0  0  0  0  0
   -0.0450    0.3397    0.4352 C   0  0  0  0  0  0  0  0  0  0  0  0
   -0.1328    1.0946    1.6006 C   0  0  0  0  0  3  0  0  0  0  0  0
    0.9831    1.7263    2.1274 C   0  0  0  0  0  0  0  0  0  0  0  0
    2.2110    1.6127    1.4934 C   0  0  0  0  0  0  0  0  0  0  0  0
    2.3128    0.8626    0.3316 C   0  0  0  0  0  0  0  0  0  0  0  0
    1.1932    0.2333   -0.1903 C   0  0  0  0  0  0  0  0  0  0  0  0
   -1.3303    0.9046   -1.9639 H   0  0  0  0  0  0  0  0  0  0  0  0
   -2.3086    1.5400   -0.6426 H   0  0  0  0  0  0  0  0  0  0  0  0
   -2.8728    0.1383   -1.5618 H   0  0  0  0  0  0  0  0  0  0  0  0
   -1.9554   -0.5920    0.6382 H   0  0  0  0  0  0  0  0  0  0  0  0
   -1.0892    1.1856    2.1038 H   0  0  0  0  0  0  0  0  0  0  0  0
    0.8942    2.3062    3.0377 H   0  0  0  0  0  0  0  0  0  0  0  0
    3.0845    2.1026    1.9045 H   0  0  0  0  0  0  0  0  0  0  0  0
    3.2683    0.7641   -0.1685 H   0  0  0  0  0  0  0  0  0  0  0  0
    1.2813   -0.3543   -1.0976 H   0  0  0  0  0  0  0  0  0  0  0  0
   -1.2689   -2.7463   -2.6348 C   0  0  0  0  0  0  0  0  0  0  0  0
   -1.2689   -2.7463   -1.1121 C   0  0  0  0  0  0  0  0  0  0  0  0
   -2.1497   -2.2377   -3.0307 H   0  0  0  0  0  0  0  0  0  0  0  0
   -0.3880   -2.2377   -3.0307 H   0  0  0  0  0  0  0  0  0  0  0  0
   -1.2689   -3.7634   -3.0307 H   0  0  0  0  0  0  0  0  0  0  0  0
   -1.2689   -1.5258   -0.6370 H   0  0  0  0  0  0  0  0  0  0  0  0
   -0.3880   -3.2549   -0.7162 H   0  0  0  0  0  0  0  0  0  0  0  0
   -2.1497   -3.2549   -0.7162 H   0  0  0  0  0  0  0  0  0  0  0  0
  1  2  1  0
  1  9  1  0
  1 10  1  0
  1 11  1  0
  2  3  2  3
  2 12  1  0
  3  4  1  0
  3  8  1  0
  4  5  1  0
  4 13  1  0
  5  6  2  0
  5 14  1  0
  6  7  1  0
  6 15  1  0
  7  8  2  0
  7 16  1  0
  8 17  1  0
 18 19  1  0
 18 20  1  0
 18 21  1  0
 18 22  1  0
 19 23  1  0
 19 24  1  0
 19 25  1  0
M  RAD  1   4   2
M  END
>  <reaction>  (6) 
rxn_881

>  <mol_properties>  (6) 
{"1": {"label": "*1", "atom_type": "Cs"}, "2": {"label": "*0", "atom_type": "Cd"}, "17": {"label": "*4", "atom_type": "Cs"}, "18": {"label": "*3", "atom_type": "Cs"}, "22": {"label": "*2", "atom_type": "H0"}}

>  <type>  (6) 
unop_2

>  <geom_source>  (6) 
Heuristics

$$$$

     RDKit          3D

 25 24  0  0  0  0  0  0  0  0999 V2000
   -0.4687   -0.8987    2.3768 C   0  0  0  0  0  0  0  0  0  0  0  0
    0.2524   -0.9193    1.0285 C   0  0  0  0  0  0  0  0  0  0  0  0
    0.1077    0.3827    0.2854 C   0  0  0  0  0  0  0  0  0  0  0  0
    1.0184    1.4172    0.4757 C   0  0  0  0  0  3  0  0  0  0  0  0
    0.8627    2.6331   -0.1716 C   0  0  0  0  0  0  0  0  0  0  0  0
   -0.2123    2.8349   -1.0239 C   0  0  0  0  0  0  0  0  0  0  0  0
   -1.1270    1.8119   -1.2232 C   0  0  0  0  0  0  0  0  0  0  0  0
   -0.9658    0.5982   -0.5730 C   0  0  0  0  0  0  0  0  0  0  0  0
   -1.5357   -0.7117    2.2420 H   0  0  0  0  0  0  0  0  0  0  0  0
   -0.0718   -0.1075    3.0157 H   0  0  0  0  0  0  0  0  0  0  0  0
   -0.3519   -1.8500    2.8987 H   0  0  0  0  0  0  0  0  0  0  0  0
    1.3122   -1.1325    1.1868 H   0  0  0  0  0  0  0  0  0  0  0  0
    1.8635    1.2658    1.1384 H   0  0  0  0  0  0  0  0  0  0  0  0
    1.5849    3.4243   -0.0128 H   0  0  0  0  0  0  0  0  0  0  0  0
   -0.3345    3.7825   -1.5328 H   0  0  0  0  0  0  0  0  0  0  0  0
   -1.9675    1.9581   -1.8904 H   0  0  0  0  0  0  0  0  0  0  0  0
   -1.6836   -0.1982   -0.7363 H   0  0  0  0  0  0  0  0  0  0  0  0
    0.2524   -3.3617   -1.4448 C   0  0  0  0  0  0  0  0  0  0  0  0
    0.2524   -3.3617    0.0780 C   0  0  0  0  0  0  0  0  0  0  0  0
   -0.6284   -2.8531   -1.8407 H   0  0  0  0  0  0  0  0  0  0  0  0
    1.1332   -2.8531   -1.8407 H   0  0  0  0  0  0  0  0  0  0  0  0
    0.2524   -4.3788   -1.8407 H   0  0  0  0  0  0  0  0  0  0  0  0
    0.2524   -2.1411    0.5530 H   0  0  0  0  0  0  0  0  0  0  0  0
    1.1332   -3.8702    0.4738 H   0  0  0  0  0  0  0  0  0  0  0  0
   -0.6285   -3.8702    0.4738 H   0  0  0  0  0  0  0  0  0  0  0  0
  1  2  1  0
  1  9  1  0
  1 10  1  0
  1 11  1  0
  2  3  2  3
  2 12  1  0
  3  4  1  0
  3  8  1  0
  4  5  1  0
  4 13  1  0
  5  6  2  0
  5 14  1  0
  6  7  1  0
  6 15  1  0
  7  8  2  0
  7 16  1  0
  8 17  1  0
 18 19  1  0
 18 20  1  0
 18 21  1  0
 18 22  1  0
 19 23  1  0
 19 24  1  0
 19 25  1  0
M  RAD  1   4   2
M  END
>  <reaction>  (7) 
rxn_881

>  <mol_properties>  (7) 
{"1": {"label": "*1", "atom_type": "Cs"}, "2": {"label": "*0", "atom_type": "Cd"}, "17": {"label": "*4", "atom_type": "Cs"}, "18": {"label": "*3", "atom_type": "Cs"}, "22": {"label": "*2", "atom_type": "H0"}}

>  <type>  (7) 
unop_3

>  <geom_source>  (7) 
Heuristics

$$$$

     RDKit          3D

 25 24  0  0  0  0  0  0  0  0999 V2000
    0.8251    1.9688   -1.5075 C   0  0  0  0  0  0  0  0  0  0  0  0
   -0.4238    1.2336   -1.0198 C   0  0  0  0  0  0  0  0  0  0  0  0
   -0.1919    0.5224    0.2873 C   0  0  0  0  0  0  0  0  0  0  0  0
   -0.4039    1.1714    1.4995 C   0  0  0  0  0  3  0  0  0  0  0  0
   -0.1478    0.5349    2.7042 C   0  0  0  0  0  0  0  0  0  0  0  0
    0.3274   -0.7677    2.7155 C   0  0  0  0  0  0  0  0  0  0  0  0
    0.5422   -1.4266    1.5145 C   0  0  0  0  0  0  0  0  0  0  0  0
    0.2842   -0.7847    0.3131 C   0  0  0  0  0  0  0  0  0  0  0  0
    1.6524    1.2716   -1.6528 H   0  0  0  0  0  0  0  0  0  0  0  0
    1.1447    2.7147   -0.7774 H   0  0  0  0  0  0  0  0  0  0  0  0
    0.6365    2.4769   -2.4547 H   0  0  0  0  0  0  0  0  0  0  0  0
   -1.2437    1.9468   -0.9059 H   0  0  0  0  0  0  0  0  0  0  0  0
   -0.7784    2.1893    1.4988 H   0  0  0  0  0  0  0  0  0  0  0  0
   -0.3230    1.0565    3.6369 H   0  0  0  0  0  0  0  0  0  0  0  0
    0.5254   -1.2679    3.6550 H   0  0  0  0  0  0  0  0  0  0  0  0
    0.9089   -2.4456    1.5128 H   0  0  0  0  0  0  0  0  0  0  0  0
    0.4517   -1.3076   -0.6222 H   0  0  0  0  0  0  0  0  0  0  0  0
   -0.4238   -1.2087   -3.4932 C   0  0  0  0  0  0  0  0  0  0  0  0
   -0.4238   -1.2087   -1.9704 C   0  0  0  0  0  0  0  0  0  0  0  0
   -1.3047   -0.7002   -3.8890 H   0  0  0  0  0  0  0  0  0  0  0  0
    0.4570   -0.7002   -3.8890 H   0  0  0  0  0  0  0  0  0  0  0  0
   -0.4238   -2.2259   -3.8890 H   0  0  0  0  0  0  0  0  0  0  0  0
   -0.4238    0.0118   -1.4954 H   0  0  0  0  0  0  0  0  0  0  0  0
    0.4570   -1.7173   -1.5745 H   0  0  0  0  0  0  0  0  0  0  0  0
   -1.3047   -1.7173   -1.5745 H   0  0  0  0  0  0  0  0  0  0  0  0
  1  2  1  0
  1  9  1  0
  1 10  1  0
  1 11  1  0
  2  3  2  3
  2 12  1  0
  3  4  1  0
  3  8  1  0
  4  5  1  0
  4 13  1  0
  5  6  2  0
  5 14  1  0
  6  7  1  0
  6 15  1  0
  7  8  2  0
  7 16  1  0
  8 17  1  0
 18 19  1  0
 18 20  1  0
 18 21  1  0
 18 22  1  0
 19 23  1  0
 19 24  1  0
 19 25  1  0
M  RAD  1   4   2
M  END
>  <reaction>  (8) 
rxn_881

>  <mol_properties>  (8) 
{"1": {"label": "*1", "atom_type": "Cs"}, "2": {"label": "*0", "atom_type": "Cd"}, "17": {"label": "*4", "atom_type": "Cs"}, "18": {"label": "*3", "atom_type": "Cs"}, "22": {"label": "*2", "atom_type": "H0"}}

>  <type>  (8) 
unop_4

>  <geom_source>  (8) 
Heuristics

$$$$

     RDKit          3D

 25 24  0  0  0  0  0  0  0  0999 V2000
    1.3229   -0.3465    2.3145 C   0  0  0  0  0  0  0  0  0  0  0  0
    1.3229   -0.2971    0.7862 C   0  0  0  0  0  0  0  0  0  0  0  0
    0.1368    0.4539    0.2408 C   0  0  0  0  0  0  0  0  0  0  0  0
    0.1956    1.8290    0.0374 C   0  0  0  0  0  3  0  0  0  0  0  0
   -0.9088    2.5304   -0.4211 C   0  0  0  0  0  0  0  0  0  0  0  0
   -2.0959    1.8641   -0.6846 C   0  0  0  0  0  0  0  0  0  0  0  0
   -2.1680    0.4935   -0.4870 C   0  0  0  0  0  0  0  0  0  0  0  0
   -1.0602   -0.2023   -0.0283 C   0  0  0  0  0  0  0  0  0  0  0  0
    0.4215   -0.8378    2.6856 H   0  0  0  0  0  0  0  0  0  0  0  0
    1.3480    0.6609    2.7341 H   0  0  0  0  0  0  0  0  0  0  0  0
    2.1893   -0.8943    2.6893 H   0  0  0  0  0  0  0  0  0  0  0  0
    2.2445    0.1755    0.4382 H   0  0  0  0  0  0  0  0  0  0  0  0
    1.1216    2.3566    0.2383 H   0  0  0  0  0  0  0  0  0  0  0  0
   -0.8410    3.6001   -0.5765 H   0  0  0  0  0  0  0  0  0  0  0  0
   -2.9588    2.4093   -1.0455 H   0  0  0  0  0  0  0  0  0  0  0  0
   -3.0893   -0.0366   -0.6942 H   0  0  0  0  0  0  0  0  0  0  0  0
   -1.1233   -1.2747    0.1208 H   0  0  0  0  0  0  0  0  0  0  0  0
    1.3229   -2.7395   -1.6871 C   0  0  0  0  0  0  0  0  0  0  0  0
    1.3229   -2.7395   -0.1644 C   0  0  0  0  0  0  0  0  0  0  0  0
    0.4421   -2.2309   -2.0830 H   0  0  0  0  0  0  0  0  0  0  0  0
    2.2037   -2.2309   -2.0830 H   0  0  0  0  0  0  0  0  0  0  0  0
    1.3229   -3.7566   -2.0830 H   0  0  0  0  0  0  0  0  0  0  0  0
    1.3229   -1.5189    0.3107 H   0  0  0  0  0  0  0  0  0  0  0  0
    2.2037   -3.2480    0.2315 H   0  0  0  0  0  0  0  0  0  0  0  0
    0.4420   -3.2480    0.2315 H   0  0  0  0  0  0  0  0  0  0  0  0
  1  2  1  0
  1  9  1  0
  1 10  1  0
  1 11  1  0
  2  3  2  3
  2 12  1  0
  3  4  1  0
  3  8  1  0
  4  5  1  0
  4 13  1  0
  5  6  2  0
  5 14  1  0
  6  7  1  0
  6 15  1  0
  7  8  2  0
  7 16  1  0
  8 17  1  0
 18 19  1  0
 18 20  1  0
 18 21  1  0
 18 22  1  0
 19 23  1  0
 19 24  1  0
 19 25  1  0
M  RAD  1   4   2
M  END
>  <reaction>  (9) 
rxn_881

>  <mol_properties>  (9) 
{"1": {"label": "*1", "atom_type": "Cs"}, "2": {"label": "*0", "atom_type": "Cd"}, "17": {"label": "*4", "atom_type": "Cs"}, "18": {"label": "*3", "atom_type": "Cs"}, "22": {"label": "*2", "atom_type": "H0"}}

>  <type>  (9) 
unop_5

>  <geom_source>  (9) 
Heuristics

$$$$

     RDKit          3D

 25 24  0  0  0  0  0  0  0  0999 V2000
    1.7873    1.8778   -0.7604 C   0  0  0  0  0  0  0  0  0  0  0  0
    0.3451    1.4042   -0.9447 C   0  0  0  0  0  0  0  0  0  0  0  0
   -0.1334    0.5715    0.2154 C   0  0  0  0  0  0  0  0  0  0  0  0
   -0.7329    1.1668    1.3209 C   0  0  0  0  0  3  0  0  0  0  0  0
   -1.1330    0.4085    2.4103 C   0  0  0  0  0  0  0  0  0  0  0  0
   -0.9387   -0.9644    2.4114 C   0  0  0  0  0  0  0  0  0  0  0  0
   -0.3432   -1.5706    1.3157 C   0  0  0  0  0  0  0  0  0  0  0  0
    0.0548   -0.8069    0.2293 C   0  0  0  0  0  0  0  0  0  0  0  0
    2.4643    1.0271   -0.6625 H   0  0  0  0  0  0  0  0  0  0  0  0
    1.8832    2.4832    0.1428 H   0  0  0  0  0  0  0  0  0  0  0  0
    2.1146    2.4787   -1.6106 H   0  0  0  0  0  0  0  0  0  0  0  0
   -0.3091    2.2709   -1.0653 H   0  0  0  0  0  0  0  0  0  0  0  0
   -0.8910    2.2397    1.3260 H   0  0  0  0  0  0  0  0  0  0  0  0
   -1.6012    0.8908    3.2594 H   0  0  0  0  0  0  0  0  0  0  0  0
   -1.2530   -1.5590    3.2597 H   0  0  0  0  0  0  0  0  0  0  0  0
   -0.1911   -2.6428    1.3050 H   0  0  0  0  0  0  0  0  0  0  0  0
    0.5171   -1.2886   -0.6255 H   0  0  0  0  0  0  0  0  0  0  0  0
    0.3451   -1.0382   -3.4181 C   0  0  0  0  0  0  0  0  0  0  0  0
    0.3451   -1.0382   -1.8953 C   0  0  0  0  0  0  0  0  0  0  0  0
   -0.5357   -0.5296   -3.8139 H   0  0  0  0  0  0  0  0  0  0  0  0
    1.2260   -0.5296   -3.8139 H   0  0  0  0  0  0  0  0  0  0  0  0
    0.3451   -2.0553   -3.8139 H   0  0  0  0  0  0  0  0  0  0  0  0
    0.3451    0.1823   -1.4202 H   0  0  0  0  0  0  0  0  0  0  0  0
    1.2260   -1.5467   -1.4994 H   0  0  0  0  0  0  0  0  0  0  0  0
   -0.5357   -1.5467   -1.4994 H   0  0  0  0  0  0  0  0  0  0  0  0
  1  2  1  0
  1  9  1  0
  1 10  1  0
  1 11  1  0
  2  3  2  3
  2 12  1  0
  3  4  1  0
  3  8  1  0
  4  5  1  0
  4 13  1  0
  5  6  2  0
  5 14  1  0
  6  7  1  0
  6 15  1  0
  7  8  2  0
  7 16  1  0
  8 17  1  0
 18 19  1  0
 18 20  1  0
 18 21  1  0
 18 22  1  0
 19 23  1  0
 19 24  1  0
 19 25  1  0
M  RAD  1   4   2
M  END
>  <reaction>  (10) 
rxn_881

>  <mol_properties>  (10) 
{"1": {"label": "*1", "atom_type": "Cs"}, "2": {"label": "*0", "atom_type": "Cd"}, "17": {"label": "*4", "atom_type": "Cs"}, "18": {"label": "*3", "atom_type": "Cs"}, "22": {"label": "*2", "atom_type": "H0"}}

>  <type>  (10) 
unop_6

>  <geom_source>  (10) 
Heuristics

$$$$

     RDKit          3D

 25 24  0  0  0  0  0  0  0  0999 V2000
    2.3215    1.4788    0.2657 C   0  0  0  0  0  0  0  0  0  0  0  0
    1.0725    1.2667   -0.5906 C   0  0  0  0  0  0  0  0  0  0  0  0
   -0.0334    0.5878    0.1738 C   0  0  0  0  0  0  0  0  0  0  0  0
   -0.9598    1.3310    0.8984 C   0  0  0  0  0  3  0  0  0  0  0  0
   -1.9513    0.7078    1.6402 C   0  0  0  0  0  0  0  0  0  0  0  0
   -2.0323   -0.6762    1.6693 C   0  0  0  0  0  0  0  0  0  0  0  0
   -1.1159   -1.4290    0.9509 C   0  0  0  0  0  0  0  0  0  0  0  0
   -0.1266   -0.7999    0.2110 C   0  0  0  0  0  0  0  0  0  0  0  0
    2.7081    0.5248    0.6289 H   0  0  0  0  0  0  0  0  0  0  0  0
    2.0934    2.0969    1.1361 H   0  0  0  0  0  0  0  0  0  0  0  0
    3.1100    1.9715   -0.3058 H   0  0  0  0  0  0  0  0  0  0  0  0
    0.7192    2.2314   -0.9626 H   0  0  0  0  0  0  0  0  0  0  0  0
   -0.9047    2.4140    0.8780 H   0  0  0  0  0  0  0  0  0  0  0  0
   -2.6651    1.3047    2.1944 H   0  0  0  0  0  0  0  0  0  0  0  0
   -2.8075   -1.1651    2.2455 H   0  0  0  0  0  0  0  0  0  0  0  0
   -1.1735   -2.5104    0.9637 H   0  0  0  0  0  0  0  0  0  0  0  0
    0.5847   -1.3954   -0.3508 H   0  0  0  0  0  0  0  0  0  0  0  0
    1.0725   -1.1756   -3.0639 C   0  0  0  0  0  0  0  0  0  0  0  0
    1.0725   -1.1756   -1.5411 C   0  0  0  0  0  0  0  0  0  0  0  0
    0.1917   -0.6671   -3.4598 H   0  0  0  0  0  0  0  0  0  0  0  0
    1.9534   -0.6671   -3.4598 H   0  0  0  0  0  0  0  0  0  0  0  0
    1.0725   -2.1928   -3.4598 H   0  0  0  0  0  0  0  0  0  0  0  0
    1.0725    0.0449   -1.0661 H   0  0  0  0  0  0  0  0  0  0  0  0
    1.9534   -1.6842   -1.1453 H   0  0  0  0  0  0  0  0  0  0  0  0
    0.1917   -1.6842   -1.1453 H   0  0  0  0  0  0  0  0  0  0  0  0
  1  2  1  0
  1  9  1  0
  1 10  1  0
  1 11  1  0
  2  3  2  3
  2 12  1  0
  3  4  1  0
  3  8  1  0
  4  5  1  0
  4 13  1  0
  5  6  2  0
  5 14  1  0
  6  7  1  0
  6 15  1  0
  7  8  2  0
  7 16  1  0
  8 17  1  0
 18 19  1  0
 18 20  1  0
 18 21  1  0
 18 22  1  0
 19 23  1  0
 19 24  1  0
 19 25  1  0
M  RAD  1   4   2
M  END
>  <reaction>  (11) 
rxn_881

>  <mol_properties>  (11) 
{"1": {"label": "*1", "atom_type": "Cs"}, "2": {"label": "*0", "atom_type": "Cd"}, "17": {"label": "*4", "atom_type": "Cs"}, "18": {"label": "*3", "atom_type": "Cs"}, "22": {"label": "*2", "atom_type": "H0"}}

>  <type>  (11) 
unop_7

>  <geom_source>  (11) 
Heuristics

$$$$

     RDKit          3D

 25 24  0  0  0  0  0  0  0  0999 V2000
   -2.3403   -0.3306    0.5877 C   0  0  0  0  0  0  0  0  0  0  0  0
   -0.8981   -0.8042    0.4034 C   0  0  0  0  0  0  0  0  0  0  0  0
    0.0762    0.3432    0.3548 C   0  0  0  0  0  0  0  0  0  0  0  0
    0.6511    0.8402    1.5202 C   0  0  0  0  0  3  0  0  0  0  0  0
    1.5128    1.9256    1.4842 C   0  0  0  0  0  0  0  0  0  0  0  0
    1.8147    2.5344    0.2756 C   0  0  0  0  0  0  0  0  0  0  0  0
    1.2493    2.0486   -0.8937 C   0  0  0  0  0  0  0  0  0  0  0  0
    0.3883    0.9629   -0.8511 C   0  0  0  0  0  0  0  0  0  0  0  0
   -2.6405    0.3235   -0.2330 H   0  0  0  0  0  0  0  0  0  0  0  0
   -2.4466    0.2329    1.5165 H   0  0  0  0  0  0  0  0  0  0  0  0
   -3.0297   -1.1760    0.6203 H   0  0  0  0  0  0  0  0  0  0  0  0
   -0.6291   -1.4760    1.2220 H   0  0  0  0  0  0  0  0  0  0  0  0
    0.4222    0.3673    2.4690 H   0  0  0  0  0  0  0  0  0  0  0  0
    1.9528    2.2948    2.4024 H   0  0  0  0  0  0  0  0  0  0  0  0
    2.4897    3.3803    0.2445 H   0  0  0  0  0  0  0  0  0  0  0  0
    1.4823    2.5145   -1.8432 H   0  0  0  0  0  0  0  0  0  0  0  0
   -0.0475    0.5867   -1.7702 H   0  0  0  0  0  0  0  0  0  0  0  0
   -0.8981   -3.2466   -2.0700 C   0  0  0  0  0  0  0  0  0  0  0  0
   -0.8981   -3.2466   -0.5472 C   0  0  0  0  0  0  0  0  0  0  0  0
   -1.7789   -2.7380   -2.4658 H   0  0  0  0  0  0  0  0  0  0  0  0
   -0.0172   -2.7380   -2.4658 H   0  0  0  0  0  0  0  0  0  0  0  0
   -0.8981   -4.2637   -2.4658 H   0  0  0  0  0  0  0  0  0  0  0  0
   -0.8981   -2.0261   -0.0721 H   0  0  0  0  0  0  0  0  0  0  0  0
   -0.0172   -3.7551   -0.1513 H   0  0  0  0  0  0  0  0  0  0  0  0
   -1.7789   -3.7552   -0.1513 H   0  0  0  0  0  0  0  0  0  0  0  0
  1  2  1  0
  1  9  1  0
  1 10  1  0
  1 11  1  0
  2  3  2  3
  2 12  1  0
  3  4  1  0
  3  8  1  0
  4  5  1  0
  4 13  1  0
  5  6  2  0
  5 14  1  0
  6  7  1  0
  6 15  1  0
  7  8  2  0
  7 16  1  0
  8 17  1  0
 18 19  1  0
 18 20  1  0
 18 21  1  0
 18 22  1  0
 19 23  1  0
 19 24  1  0
 19 25  1  0
M  RAD  1   4   2
M  END
>  <reaction>  (12) 
rxn_881

>  <mol_properties>  (12) 
{"1": {"label": "*1", "atom_type": "Cs"}, "2": {"label": "*0", "atom_type": "Cd"}, "17": {"label": "*4", "atom_type": "Cs"}, "18": {"label": "*3", "atom_type": "Cs"}, "22": {"label": "*2", "atom_type": "H0"}}

>  <type>  (12) 
unop_8

>  <geom_source>  (12) 
Heuristics

$$$$

     RDKit          3D

 25 24  0  0  0  0  0  0  0  0999 V2000
   -0.3242    1.7173   -1.8093 C   0  0  0  0  0  0  0  0  0  0  0  0
   -1.0453    0.7907   -0.8297 C   0  0  0  0  0  0  0  0  0  0  0  0
   -0.1943    0.4529    0.3661 C   0  0  0  0  0  0  0  0  0  0  0  0
   -0.2094    1.2565    1.5018 C   0  0  0  0  0  3  0  0  0  0  0  0
    0.6066    0.9744    2.5864 C   0  0  0  0  0  0  0  0  0  0  0  0
    1.4554   -0.1215    2.5520 C   0  0  0  0  0  0  0  0  0  0  0  0
    1.4798   -0.9312    1.4267 C   0  0  0  0  0  0  0  0  0  0  0  0
    0.6614   -0.6440    0.3452 C   0  0  0  0  0  0  0  0  0  0  0  0
    0.5930    1.2533   -2.1768 H   0  0  0  0  0  0  0  0  0  0  0  0
   -0.0495    2.6554   -1.3235 H   0  0  0  0  0  0  0  0  0  0  0  0
   -0.9570    1.9497   -2.6676 H   0  0  0  0  0  0  0  0  0  0  0  0
   -1.9711    1.2651   -0.4955 H   0  0  0  0  0  0  0  0  0  0  0  0
   -0.8729    2.1136    1.5373 H   0  0  0  0  0  0  0  0  0  0  0  0
    0.5770    1.6103    3.4625 H   0  0  0  0  0  0  0  0  0  0  0  0
    2.0915   -0.3455    3.3990 H   0  0  0  0  0  0  0  0  0  0  0  0
    2.1361   -1.7920    1.3919 H   0  0  0  0  0  0  0  0  0  0  0  0
    0.6838   -1.2837   -0.5303 H   0  0  0  0  0  0  0  0  0  0  0  0
   -1.0453   -1.6517   -3.3030 C   0  0  0  0  0  0  0  0  0  0  0  0
   -1.0453   -1.6517   -1.7802 C   0  0  0  0  0  0  0  0  0  0  0  0
   -1.9262   -1.1432   -3.6989 H   0  0  0  0  0  0  0  0  0  0  0  0
   -0.1645   -1.1432   -3.6989 H   0  0  0  0  0  0  0  0  0  0  0  0
   -1.0453   -2.6688   -3.6989 H   0  0  0  0  0  0  0  0  0  0  0  0
   -1.0453   -0.4312   -1.3052 H   0  0  0  0  0  0  0  0  0  0  0  0
   -0.1645   -2.1603   -1.3844 H   0  0  0  0  0  0  0  0  0  0  0  0
   -1.9262   -2.1603   -1.3844 H   0  0  0  0  0  0  0  0  0  0  0  0
  1  2  1  0
  1  9  1  0
  1 10  1  0
  1 11  1  0
  2  3  2  3
  2 12  1  0
  3  4  1  0
  3  8  1  0
  4  5  1  0
  4 13  1  0
  5  6  2  0
  5 14  1  0
  6  7  1  0
  6 15  1  0
  7  8  2  0
  7 16  1  0
  8 17  1  0
 18 19  1  0
 18 20  1  0
 18 21  1  0
 18 22  1  0
 19 23  1  0
 19 24  1  0
 19 25  1  0
M  RAD  1   4   2
M  END
>  <reaction>  (13) 
rxn_881

>  <mol_properties>  (13) 
{"1": {"label": "*1", "atom_type": "Cs"}, "2": {"label": "*0", "atom_type": "Cd"}, "17": {"label": "*4", "atom_type": "Cs"}, "18": {"label": "*3", "atom_type": "Cs"}, "22": {"label": "*2", "atom_type": "H0"}}

>  <type>  (13) 
unop_9

>  <geom_source>  (13) 
Heuristics

$$$$

     RDKit          3D

 25 24  0  0  0  0  0  0  0  0999 V2000
   -2.3508    0.1238   -0.3812 C   0  0  0  0  0  0  0  0  0  0  0  0
   -1.1019   -0.6113    0.1064 C   0  0  0  0  0  0  0  0  0  0  0  0
    0.0342    0.3316    0.4038 C   0  0  0  0  0  0  0  0  0  0  0  0
    0.1783    0.8986    1.6661 C   0  0  0  0  0  3  0  0  0  0  0  0
    1.1958    1.8023    1.9305 C   0  0  0  0  0  0  0  0  0  0  0  0
    2.0899    2.1554    0.9311 C   0  0  0  0  0  0  0  0  0  0  0  0
    1.9581    1.5971   -0.3313 C   0  0  0  0  0  0  0  0  0  0  0  0
    0.9386    0.6939   -0.5895 C   0  0  0  0  0  0  0  0  0  0  0  0
   -2.1385    0.6837   -1.2939 H   0  0  0  0  0  0  0  0  0  0  0  0
   -2.6994    0.8347    0.3702 H   0  0  0  0  0  0  0  0  0  0  0  0
   -3.1614   -0.5763   -0.5909 H   0  0  0  0  0  0  0  0  0  0  0  0
   -1.3449   -1.1835    1.0049 H   0  0  0  0  0  0  0  0  0  0  0  0
   -0.5152    0.6250    2.4537 H   0  0  0  0  0  0  0  0  0  0  0  0
    1.2930    2.2295    2.9209 H   0  0  0  0  0  0  0  0  0  0  0  0
    2.8870    2.8586    1.1360 H   0  0  0  0  0  0  0  0  0  0  0  0
    2.6541    1.8630   -1.1173 H   0  0  0  0  0  0  0  0  0  0  0  0
    0.8438    0.2591   -1.5785 H   0  0  0  0  0  0  0  0  0  0  0  0
   -1.1019   -3.0537   -2.3669 C   0  0  0  0  0  0  0  0  0  0  0  0
   -1.1019   -3.0537   -0.8441 C   0  0  0  0  0  0  0  0  0  0  0  0
   -1.9827   -2.5452   -2.7628 H   0  0  0  0  0  0  0  0  0  0  0  0
   -0.2210   -2.5452   -2.7628 H   0  0  0  0  0  0  0  0  0  0  0  0
   -1.1019   -4.0708   -2.7628 H   0  0  0  0  0  0  0  0  0  0  0  0
   -1.1019   -1.8332   -0.3691 H   0  0  0  0  0  0  0  0  0  0  0  0
   -0.2210   -3.5623   -0.4483 H   0  0  0  0  0  0  0  0  0  0  0  0
   -1.9827   -3.5623   -0.4483 H   0  0  0  0  0  0  0  0  0  0  0  0
  1  2  1  0
  1  9  1  0
  1 10  1  0
  1 11  1  0
  2  3  2  3
  2 12  1  0
  3  4  1  0
  3  8  1  0
  4  5  1  0
  4 13  1  0
  5  6  2  0
  5 14  1  0
  6  7  1  0
  6 15  1  0
  7  8  2  0
  7 16  1  0
  8 17  1  0
 18 19  1  0
 18 20  1  0
 18 21  1  0
 18 22  1  0
 19 23  1  0
 19 24  1  0
 19 25  1  0
M  RAD  1   4   2
M  END
>  <reaction>  (14) 
rxn_881

>  <mol_properties>  (14) 
{"1": {"label": "*1", "atom_type": "Cs"}, "2": {"label": "*0", "atom_type": "Cd"}, "17": {"label": "*4", "atom_type": "Cs"}, "18": {"label": "*3", "atom_type": "Cs"}, "22": {"label": "*2", "atom_type": "H0"}}

>  <type>  (14) 
unop_10

>  <geom_source>  (14) 
Heuristics

$$$$

     RDKit          3D

 25 24  0  0  0  0  0  0  0  0999 V2000
    2.2908    0.7388    1.3772 C   0  0  0  0  0  0  0  0  0  0  0  0
    1.5697    0.7181    0.0290 C   0  0  0  0  0  0  0  0  0  0  0  0
    0.0806    0.5520    0.1821 C   0  0  0  0  0  0  0  0  0  0  0  0
   -0.7490    1.6593    0.3279 C   0  0  0  0  0  3  0  0  0  0  0  0
   -2.1143    1.5083    0.5150 C   0  0  0  0  0  0  0  0  0  0  0  0
   -2.6744    0.2406    0.5597 C   0  0  0  0  0  0  0  0  0  0  0  0
   -1.8591   -0.8715    0.4149 C   0  0  0  0  0  0  0  0  0  0  0  0
   -0.4945   -0.7140    0.2281 C   0  0  0  0  0  0  0  0  0  0  0  0
    2.1162   -0.1900    1.9235 H   0  0  0  0  0  0  0  0  0  0  0  0
    1.9284    1.5609    1.9971 H   0  0  0  0  0  0  0  0  0  0  0  0
    3.3673    0.8598    1.2446 H   0  0  0  0  0  0  0  0  0  0  0  0
    1.7792    1.6457   -0.5091 H   0  0  0  0  0  0  0  0  0  0  0  0
   -0.3187    2.6541    0.2909 H   0  0  0  0  0  0  0  0  0  0  0  0
   -2.7433    2.3834    0.6226 H   0  0  0  0  0  0  0  0  0  0  0  0
   -3.7408    0.1203    0.7028 H   0  0  0  0  0  0  0  0  0  0  0  0
   -2.2876   -1.8657    0.4439 H   0  0  0  0  0  0  0  0  0  0  0  0
    0.1364   -1.5886    0.1125 H   0  0  0  0  0  0  0  0  0  0  0  0
    1.5697   -1.7242   -2.4444 C   0  0  0  0  0  0  0  0  0  0  0  0
    1.5697   -1.7242   -0.9216 C   0  0  0  0  0  0  0  0  0  0  0  0
    0.6888   -1.2157   -2.8402 H   0  0  0  0  0  0  0  0  0  0  0  0
    2.4505   -1.2157   -2.8402 H   0  0  0  0  0  0  0  0  0  0  0  0
    1.5697   -2.7413   -2.8402 H   0  0  0  0  0  0  0  0  0  0  0  0
    1.5697   -0.5037   -0.4466 H   0  0  0  0  0  0  0  0  0  0  0  0
    2.4505   -2.2328   -0.5257 H   0  0  0  0  0  0  0  0  0  0  0  0
    0.6888   -2.2328   -0.5257 H   0  0  0  0  0  0  0  0  0  0  0  0
  1  2  1  0
  1  9  1  0
  1 10  1  0
  1 11  1  0
  2  3  2  3
  2 12  1  0
  3  4  1  0
  3  8  1  0
  4  5  1  0
  4 13  1  0
  5  6  2  0
  5 14  1  0
  6  7  1  0
  6 15  1  0
  7  8  2  0
  7 16  1  0
  8 17  1  0
 18 19  1  0
 18 20  1  0
 18 21  1  0
 18 22  1  0
 19 23  1  0
 19 24  1  0
 19 25  1  0
M  RAD  1   4   2
M  END
>  <reaction>  (15) 
rxn_881

>  <mol_properties>  (15) 
{"1": {"label": "*1", "atom_type": "Cs"}, "2": {"label": "*0", "atom_type": "Cd"}, "17": {"label": "*4", "atom_type": "Cs"}, "18": {"label": "*3", "atom_type": "Cs"}, "22": {"label": "*2", "atom_type": "H0"}}

>  <type>  (15) 
unop_11

>  <geom_source>  (15) 
Heuristics

$$$$

     RDKit          3D

 25 24  0  0  0  0  0  0  0  0999 V2000
   -1.3229    1.1947   -1.6457 C   0  0  0  0  0  0  0  0  0  0  0  0
   -1.3229    0.1981   -0.4861 C   0  0  0  0  0  0  0  0  0  0  0  0
   -0.1368    0.3828    0.4235 C   0  0  0  0  0  0  0  0  0  0  0  0
   -0.1956    1.2586    1.5029 C   0  0  0  0  0  3  0  0  0  0  0  0
    0.9088    1.4656    2.3149 C   0  0  0  0  0  0  0  0  0  0  0  0
    2.0959    0.7965    2.0587 C   0  0  0  0  0  0  0  0  0  0  0  0
    2.1680   -0.0800    0.9866 C   0  0  0  0  0  0  0  0  0  0  0  0
    1.0602   -0.2827    0.1782 C   0  0  0  0  0  0  0  0  0  0  0  0
   -0.4215    1.0836   -2.2513 H   0  0  0  0  0  0  0  0  0  0  0  0
   -1.3480    2.2208   -1.2740 H   0  0  0  0  0  0  0  0  0  0  0  0
   -2.1893    1.0445   -2.2922 H   0  0  0  0  0  0  0  0  0  0  0  0
   -2.2445    0.3110    0.0898 H   0  0  0  0  0  0  0  0  0  0  0  0
   -1.1216    1.7832    1.7115 H   0  0  0  0  0  0  0  0  0  0  0  0
    0.8410    2.1488    3.1525 H   0  0  0  0  0  0  0  0  0  0  0  0
    2.9588    0.9542    2.6931 H   0  0  0  0  0  0  0  0  0  0  0  0
    3.0893   -0.6107    0.7809 H   0  0  0  0  0  0  0  0  0  0  0  0
    1.1233   -0.9721   -0.6566 H   0  0  0  0  0  0  0  0  0  0  0  0
   -1.3229   -2.2443   -2.9594 C   0  0  0  0  0  0  0  0  0  0  0  0
   -1.3229   -2.2443   -1.4366 C   0  0  0  0  0  0  0  0  0  0  0  0
   -2.2037   -1.7357   -3.3553 H   0  0  0  0  0  0  0  0  0  0  0  0
   -0.4420   -1.7357   -3.3553 H   0  0  0  0  0  0  0  0  0  0  0  0
   -1.3229   -3.2614   -3.3553 H   0  0  0  0  0  0  0  0  0  0  0  0
   -1.3229   -1.0238   -0.9616 H   0  0  0  0  0  0  0  0  0  0  0  0
   -0.4420   -2.7529   -1.0408 H   0  0  0  0  0  0  0  0  0  0  0  0
   -2.2037   -2.7529   -1.0408 H   0  0  0  0  0  0  0  0  0  0  0  0
  1  2  1  0
  1  9  1  0
  1 10  1  0
  1 11  1  0
  2  3  2  3
  2 12  1  0
  3  4  1  0
  3  8  1  0
  4  5  1  0
  4 13  1  0
  5  6  2  0
  5 14  1  0
  6  7  1  0
  6 15  1  0
  7  8  2  0
  7 16  1  0
  8 17  1  0
 18 19  1  0
 18 20  1  0
 18 21  1  0
 18 22  1  0
 19 23  1  0
 19 24  1  0
 19 25  1  0
M  RAD  1   4   2
M  END
>  <reaction>  (16) 
rxn_881

>  <mol_properties>  (16) 
{"1": {"label": "*1", "atom_type": "Cs"}, "2": {"label": "*0", "atom_type": "Cd"}, "17": {"label": "*4", "atom_type": "Cs"}, "18": {"label": "*3", "atom_type": "Cs"}, "22": {"label": "*2", "atom_type": "H0"}}

>  <type>  (16) 
unop_12

>  <geom_source>  (16) 
Heuristics

$$$$

     RDKit          3D

 25 24  0  0  0  0  0  0  0  0999 V2000
    0.4984    0.8263   -0.3065 C   0  0  0  0  0  0  0  0  0  0  0  0
    0.3861    2.3040    0.0481 C   0  0  0  0  0  0  0  0  0  0  0  0
    3.2618   -0.9667   -0.3445 C   0  0  0  0  0  0  0  0  0  0  0  0
   -0.8402    0.1496   -0.2066 C   0  0  0  0  0  0  0  0  0  0  0  0
   -1.2487   -0.4293    1.0056 C   0  0  0  0  0  3  0  0  0  0  0  0
   -1.7134    0.1348   -1.3071 C   0  0  0  0  0  0  0  0  0  0  0  0
   -2.5057   -1.0339    1.1081 C   0  0  0  0  0  0  0  0  0  0  0  0
   -3.3645   -1.0564    0.0056 C   0  0  0  0  0  0  0  0  0  0  0  0
   -2.9694   -0.4708   -1.2005 C   0  0  0  0  0  0  0  0  0  0  0  0
    2.4094   -0.5523    0.8405 C   0  0  0  0  0  0  0  0  0  0  0  0
    0.9037    0.7237   -1.3367 H   0  0  0  0  0  0  0  0  0  0  0  0
    1.4191    0.2087    0.5779 H   0  0  0  0  0  0  0  0  0  0  0  0
    1.3869    2.7780   -0.0267 H   0  0  0  0  0  0  0  0  0  0  0  0
   -0.3070    2.8182   -0.6517 H   0  0  0  0  0  0  0  0  0  0  0  0
    0.0143    2.4211    1.0882 H   0  0  0  0  0  0  0  0  0  0  0  0
    3.5863   -0.0642   -0.9031 H   0  0  0  0  0  0  0  0  0  0  0  0
    2.6687   -1.6177   -1.0199 H   0  0  0  0  0  0  0  0  0  0  0  0
    4.1565   -1.5216    0.0085 H   0  0  0  0  0  0  0  0  0  0  0  0
   -0.5967   -0.4107    1.8700 H   0  0  0  0  0  0  0  0  0  0  0  0
   -2.8152   -1.4821    2.0434 H   0  0  0  0  0  0  0  0  0  0  0  0
   -4.3374   -1.5237    0.0870 H   0  0  0  0  0  0  0  0  0  0  0  0
   -3.6376   -0.4835   -2.0519 H   0  0  0  0  0  0  0  0  0  0  0  0
   -1.4218    0.5923   -2.2445 H   0  0  0  0  0  0  0  0  0  0  0  0
    2.9933    0.1068    1.5169 H   0  0  0  0  0  0  0  0  0  0  0  0
    2.0733   -1.4508    1.3998 H   0  0  0  0  0  0  0  0  0  0  0  0
  1  2  1  0
  1  4  2  3
  1 11  1  0
  2 13  1  0
  2 14  1  0
  2 15  1  0
  3 10  1  0
  3 16  1  0
  3 17  1  0
  3 18  1  0
  4  5  1  0
  4  6  1  0
  5  7  1  0
  5 19  1  0
  6  9  2  0
  6 23  1  0
  7  8  2  0
  7 20  1  0
  8  9  1  0
  8 21  1  0
  9 22  1  0
 10 12  1  0
 10 24  1  0
 10 25  1  0
M  RAD  1   5   2
M  END
>  <reaction>  (17) 
rxn_881

>  <mol_properties>  (17) 
{"1": {"label": "*1", "atom_type": "Cs"}, "2": {"label": "*0", "atom_type": "Cd"}, "17": {"label": "*4", "atom_type": "Cs"}, "18": {"label": "*3", "atom_type": "Cs"}, "22": {"label": "*2", "atom_type": "H0"}}

>  <type>  (17) 
unop_13

>  <geom_source>  (17) 
AutoTST

$$$$
