
     RDKit          3D

 11 10  0  0  0  0  0  0  0  0999 V2000
   -1.2710    0.1907   -0.2084 C   0  0  0  0  0  0  0  0  0  0  0  0
    0.0202   -0.6130   -0.2928 C   0  0  0  0  0  0  0  0  0  0  0  0
    0.1086   -1.6953    0.7756 C   0  0  0  0  0  0  0  0  0  0  0  0
   -1.3607    0.6851    0.7620 H   0  0  0  0  0  0  0  0  0  0  0  0
   -2.1429   -0.4567   -0.3299 H   0  0  0  0  0  0  0  0  0  0  0  0
   -1.3158    0.9602   -0.9809 H   0  0  0  0  0  0  0  0  0  0  0  0
    0.8757    0.0616   -0.1992 H   0  0  0  0  0  0  0  0  0  0  0  0
    0.0997   -1.0712   -1.2825 H   0  0  0  0  0  0  0  0  0  0  0  0
   -0.7198   -2.4022    0.6850 H   0  0  0  0  0  0  0  0  0  0  0  0
    1.0395   -2.2596    0.6989 H   0  0  0  0  0  0  0  0  0  0  0  0
    0.0624   -1.2603    1.7770 H   0  0  0  0  0  0  0  0  0  0  0  0
  1  2  1  0
  1  4  1  0
  1  5  1  0
  1  6  1  0
  2  3  1  0
  2  7  1  0
  2  8  1  0
  3  9  1  0
  3 10  1  0
  3 11  1  0
M  END
>  <reaction>  (1) 
rxn_928

>  <mol_properties>  (1) 
{"1": {"label": "donator", "atom_type": "Cs"}, "6": {"label": "d_hydrogen", "atom_type": "H0"}}

>  <type>  (1) 
r1h

$$$$

     RDKit          3D

 11 11  0  0  0  0  0  0  0  0999 V2000
    0.1524   -1.5397    0.0698 C   0  0  0  0  0  3  0  0  0  0  0  0
   -1.1218   -1.0406    0.0516 C   0  0  0  0  0  0  0  0  0  0  0  0
   -1.2464    0.3470   -0.0114 C   0  0  0  0  0  0  0  0  0  0  0  0
   -0.1137    1.1487   -0.0521 C   0  0  0  0  0  0  0  0  0  0  0  0
    1.1542    0.5837   -0.0308 C   0  0  0  0  0  0  0  0  0  0  0  0
    1.3041   -0.8014    0.0319 C   0  0  0  0  0  0  0  0  0  0  0  0
   -1.9955   -1.6793    0.0840 H   0  0  0  0  0  0  0  0  0  0  0  0
   -2.2319    0.7966   -0.0284 H   0  0  0  0  0  0  0  0  0  0  0  0
   -0.2203    2.2248   -0.1009 H   0  0  0  0  0  0  0  0  0  0  0  0
    2.0325    1.2173   -0.0630 H   0  0  0  0  0  0  0  0  0  0  0  0
    2.2862   -1.2570    0.0492 H   0  0  0  0  0  0  0  0  0  0  0  0
  1  2  2  0
  1  6  1  0
  2  3  1  0
  2  7  1  0
  3  4  2  0
  3  8  1  0
  4  5  1  0
  4  9  1  0
  5  6  2  0
  5 10  1  0
  6 11  1  0
M  RAD  1   1   2
M  END
>  <reaction>  (2) 
rxn_928

>  <mol_properties>  (2) 
{"0": {"label": "acceptor", "atom_type": "Cd"}}

>  <type>  (2) 
r2

$$$$

     RDKit          3D

 12 12  0  0  0  0  0  0  0  0999 V2000
   -1.2385    0.6248   -0.0199 C   0  0  0  0  0  0  0  0  0  0  0  0
   -0.0779    1.3848   -0.0298 C   0  0  0  0  0  0  0  0  0  0  0  0
    1.1605    0.7600   -0.0100 C   0  0  0  0  0  0  0  0  0  0  0  0
    1.2385   -0.6248    0.0199 C   0  0  0  0  0  0  0  0  0  0  0  0
    0.0779   -1.3848    0.0298 C   0  0  0  0  0  0  0  0  0  0  0  0
   -1.1606   -0.7600    0.0100 C   0  0  0  0  0  0  0  0  0  0  0  0
   -2.2052    1.1125   -0.0354 H   0  0  0  0  0  0  0  0  0  0  0  0
   -0.1387    2.4657   -0.0531 H   0  0  0  0  0  0  0  0  0  0  0  0
    2.0664    1.3532   -0.0177 H   0  0  0  0  0  0  0  0  0  0  0  0
    2.2052   -1.1125    0.0354 H   0  0  0  0  0  0  0  0  0  0  0  0
    0.1387   -2.4657    0.0531 H   0  0  0  0  0  0  0  0  0  0  0  0
   -2.0664   -1.3532    0.0177 H   0  0  0  0  0  0  0  0  0  0  0  0
  1  2  2  0
  1  6  1  0
  1  7  1  0
  2  3  1  0
  2  8  1  0
  3  4  2  0
  3  9  1  0
  4  5  1  0
  4 10  1  0
  5  6  2  0
  5 11  1  0
  6 12  1  0
M  END
>  <reaction>  (3) 
rxn_928

>  <mol_properties>  (3) 
{"0": {"label": "acceptor", "atom_type": "Cd"}, "11": {"label": "a_hydrogen", "atom_type": "H0"}}

>  <type>  (3) 
r2h

$$$$

     RDKit          3D

 22 21  0  0  0  0  0  0  0  0999 V2000
    0.0819   -0.2404    0.1168 C   0  0  0  0  0  3  0  0  0  0  0  0
    0.0390   -0.5680    1.4541 C   0  0  0  0  0  0  0  0  0  0  0  0
    1.2219   -0.9395    2.0847 C   0  0  0  0  0  0  0  0  0  0  0  0
    2.4102   -0.9729    1.3679 C   0  0  0  0  0  0  0  0  0  0  0  0
    2.4262   -0.6367    0.0213 C   0  0  0  0  0  0  0  0  0  0  0  0
    1.2475   -0.2640   -0.6168 C   0  0  0  0  0  0  0  0  0  0  0  0
   -0.8927   -0.5391    2.0072 H   0  0  0  0  0  0  0  0  0  0  0  0
    1.2154   -1.2024    3.1358 H   0  0  0  0  0  0  0  0  0  0  0  0
    3.3292   -1.2623    1.8619 H   0  0  0  0  0  0  0  0  0  0  0  0
    3.3566   -0.6642   -0.5332 H   0  0  0  0  0  0  0  0  0  0  0  0
    1.2515    0.0010   -1.6678 H   0  0  0  0  0  0  0  0  0  0  0  0
   -1.6690    1.0543   -2.4961 C   0  0  0  0  0  0  0  0  0  0  0  0
   -2.1427    0.6272   -1.1268 C   0  0  0  0  0  0  0  0  0  0  0  0
   -2.6733    1.7403   -0.2547 C   0  0  0  0  0  0  0  0  0  0  0  0
   -0.8985    1.8256   -2.4175 H   0  0  0  0  0  0  0  0  0  0  0  0
   -2.4916    1.4719   -3.0856 H   0  0  0  0  0  0  0  0  0  0  0  0
   -1.2533    0.2146   -3.0556 H   0  0  0  0  0  0  0  0  0  0  0  0
   -1.1382    0.1718   -0.5413 H   0  0  0  0  0  0  0  0  0  0  0  0
   -2.8208   -0.2271   -1.1712 H   0  0  0  0  0  0  0  0  0  0  0  0
   -3.5557    2.2067   -0.7045 H   0  0  0  0  0  0  0  0  0  0  0  0
   -2.9583    1.3748    0.7332 H   0  0  0  0  0  0  0  0  0  0  0  0
   -1.9202    2.5205   -0.1204 H   0  0  0  0  0  0  0  0  0  0  0  0
  1  2  2  0
  1  6  1  0
  2  3  1  0
  2  7  1  0
  3  4  2  0
  3  8  1  0
  4  5  1  0
  4  9  1  0
  5  6  2  0
  5 10  1  0
  6 11  1  0
 12 13  1  0
 12 15  1  0
 12 16  1  0
 12 17  1  0
 13 14  1  0
 13 18  1  0
 13 19  1  0
 14 20  1  0
 14 21  1  0
 14 22  1  0
M  RAD  1   1   2
M  END
>  <reaction>  (4) 
rxn_928

>  <mol_properties>  (4) 
{"0": {"label": "*3", "atom_type": "Cd"}, "1": {"label": "*4", "atom_type": "Cd"}, "11": {"label": "*0", "atom_type": "Cs"}, "12": {"label": "*1", "atom_type": "Cs"}, "17": {"label": "*2", "atom_type": "H0"}}

>  <type>  (4) 
ts

$$$$

     RDKit          3D

 22 21  0  0  0  0  0  0  0  0999 V2000
    0.4372   -0.2388   -0.3059 C   0  0  0  0  0  0  0  0  0  0  0  0
    1.3736    0.4030    0.4914 C   0  0  0  0  0  0  0  0  0  0  0  0
    1.8672   -0.2262    1.6250 C   0  0  0  0  0  0  0  0  0  0  0  0
    1.4244   -1.4972    1.9612 C   0  0  0  0  0  0  0  0  0  0  0  0
    0.4880   -2.1390    1.1639 C   0  0  0  0  0  0  0  0  0  0  0  0
   -0.0056   -1.5098    0.0303 C   0  0  0  0  0  0  0  0  0  0  0  0
    1.7192    1.3951    0.2290 H   0  0  0  0  0  0  0  0  0  0  0  0
    2.5981    0.2748    2.2474 H   0  0  0  0  0  0  0  0  0  0  0  0
    1.8097   -1.9883    2.8461 H   0  0  0  0  0  0  0  0  0  0  0  0
    0.1424   -3.1311    1.4263 H   0  0  0  0  0  0  0  0  0  0  0  0
   -0.7366   -2.0108   -0.5921 H   0  0  0  0  0  0  0  0  0  0  0  0
   -1.6515    1.0660   -2.6986 C   0  0  0  0  0  0  0  0  0  0  0  0
   -1.6515    1.0660   -1.1753 C   0  0  0  0  0  3  0  0  0  0  0  0
   -1.6515    2.4718   -0.5886 C   0  0  0  0  0  0  0  0  0  0  0  0
   -0.7700    1.5803   -3.0892 H   0  0  0  0  0  0  0  0  0  0  0  0
   -2.5329    1.5803   -3.0892 H   0  0  0  0  0  0  0  0  0  0  0  0
   -1.6515    0.0511   -3.0998 H   0  0  0  0  0  0  0  0  0  0  0  0
   -0.6020    0.4104   -0.7385 H   0  0  0  0  0  0  0  0  0  0  0  0
   -2.5260    0.5197   -0.8113 H   0  0  0  0  0  0  0  0  0  0  0  0
   -2.5329    3.0304   -0.9127 H   0  0  0  0  0  0  0  0  0  0  0  0
   -1.6515    2.4512    0.5025 H   0  0  0  0  0  0  0  0  0  0  0  0
   -0.7700    3.0304   -0.9127 H   0  0  0  0  0  0  0  0  0  0  0  0
  1  2  2  0
  1  6  1  0
  1 18  1  0
  2  3  1  0
  2  7  1  0
  3  4  2  0
  3  8  1  0
  4  5  1  0
  4  9  1  0
  5  6  2  0
  5 10  1  0
  6 11  1  0
 12 13  1  0
 12 15  1  0
 12 16  1  0
 12 17  1  0
 13 14  1  0
 13 19  1  0
 14 20  1  0
 14 21  1  0
 14 22  1  0
M  RAD  1  13   2
M  END
>  <reaction>  (5) 
rxn_928

>  <mol_properties>  (5) 
{"0": {"label": "*3", "atom_type": "Cd"}, "1": {"label": "*4", "atom_type": "Cd"}, "11": {"label": "*0", "atom_type": "Cs"}, "12": {"label": "*1", "atom_type": "Cs"}, "17": {"label": "*2", "atom_type": "H0"}}

>  <type>  (5) 
unop_1

>  <geom_source>  (5) 
Heuristics

$$$$

     RDKit          3D

 22 21  0  0  0  0  0  0  0  0999 V2000
   -0.0233   -0.4150    0.0448 C   0  0  0  0  0  0  0  0  0  0  0  0
    1.1435   -0.4356   -0.7055 C   0  0  0  0  0  0  0  0  0  0  0  0
    2.3444   -0.7941   -0.1106 C   0  0  0  0  0  0  0  0  0  0  0  0
    2.3786   -1.1320    1.2344 C   0  0  0  0  0  0  0  0  0  0  0  0
    1.2118   -1.1114    1.9847 C   0  0  0  0  0  0  0  0  0  0  0  0
    0.0109   -0.7529    1.3899 C   0  0  0  0  0  0  0  0  0  0  0  0
    1.1168   -0.1718   -1.7554 H   0  0  0  0  0  0  0  0  0  0  0  0
    3.2551   -0.8102   -0.6962 H   0  0  0  0  0  0  0  0  0  0  0  0
    3.3160   -1.4119    1.6988 H   0  0  0  0  0  0  0  0  0  0  0  0
    1.2385   -1.3752    3.0346 H   0  0  0  0  0  0  0  0  0  0  0  0
   -0.8998   -0.7369    1.9755 H   0  0  0  0  0  0  0  0  0  0  0  0
   -2.1119    0.8898   -2.3479 C   0  0  0  0  0  0  0  0  0  0  0  0
   -2.1119    0.8898   -0.8246 C   0  0  0  0  0  3  0  0  0  0  0  0
   -2.1119    2.2956   -0.2379 C   0  0  0  0  0  0  0  0  0  0  0  0
   -1.2305    1.4041   -2.7385 H   0  0  0  0  0  0  0  0  0  0  0  0
   -2.9934    1.4041   -2.7385 H   0  0  0  0  0  0  0  0  0  0  0  0
   -2.1119   -0.1251   -2.7491 H   0  0  0  0  0  0  0  0  0  0  0  0
   -1.0625    0.2342   -0.3878 H   0  0  0  0  0  0  0  0  0  0  0  0
   -2.9864    0.3435   -0.4606 H   0  0  0  0  0  0  0  0  0  0  0  0
   -2.9934    2.8542   -0.5620 H   0  0  0  0  0  0  0  0  0  0  0  0
   -2.1119    2.2750    0.8533 H   0  0  0  0  0  0  0  0  0  0  0  0
   -1.2304    2.8542   -0.5620 H   0  0  0  0  0  0  0  0  0  0  0  0
  1  2  2  0
  1  6  1  0
  1 18  1  0
  2  3  1  0
  2  7  1  0
  3  4  2  0
  3  8  1  0
  4  5  1  0
  4  9  1  0
  5  6  2  0
  5 10  1  0
  6 11  1  0
 12 13  1  0
 12 15  1  0
 12 16  1  0
 12 17  1  0
 13 14  1  0
 13 19  1  0
 14 20  1  0
 14 21  1  0
 14 22  1  0
M  RAD  1  13   2
M  END
>  <reaction>  (6) 
rxn_928

>  <mol_properties>  (6) 
{"0": {"label": "*3", "atom_type": "Cd"}, "1": {"label": "*4", "atom_type": "Cd"}, "11": {"label": "*0", "atom_type": "Cs"}, "12": {"label": "*1", "atom_type": "Cs"}, "17": {"label": "*2", "atom_type": "H0"}}

>  <type>  (6) 
unop_2

>  <geom_source>  (6) 
Heuristics

$$$$

     RDKit          3D

 22 21  0  0  0  0  0  0  0  0999 V2000
    0.4120   -0.0080   -0.1023 C   0  0  0  0  0  0  0  0  0  0  0  0
    0.9913    0.3384    1.1098 C   0  0  0  0  0  0  0  0  0  0  0  0
    1.5235   -0.6453    1.9305 C   0  0  0  0  0  0  0  0  0  0  0  0
    1.4765   -1.9755    1.5392 C   0  0  0  0  0  0  0  0  0  0  0  0
    0.8972   -2.3219    0.3272 C   0  0  0  0  0  0  0  0  0  0  0  0
    0.3650   -1.3382   -0.4936 C   0  0  0  0  0  0  0  0  0  0  0  0
    1.0280    1.3766    1.4152 H   0  0  0  0  0  0  0  0  0  0  0  0
    1.9757   -0.3750    2.8765 H   0  0  0  0  0  0  0  0  0  0  0  0
    1.8919   -2.7433    2.1798 H   0  0  0  0  0  0  0  0  0  0  0  0
    0.8605   -3.3601    0.0217 H   0  0  0  0  0  0  0  0  0  0  0  0
   -0.0872   -1.6085   -1.4397 H   0  0  0  0  0  0  0  0  0  0  0  0
   -1.6766    1.2968   -2.4950 C   0  0  0  0  0  0  0  0  0  0  0  0
   -1.6766    1.2968   -0.9716 C   0  0  0  0  0  3  0  0  0  0  0  0
   -1.6766    2.7026   -0.3849 C   0  0  0  0  0  0  0  0  0  0  0  0
   -0.7951    1.8111   -2.8856 H   0  0  0  0  0  0  0  0  0  0  0  0
   -2.5581    1.8111   -2.8856 H   0  0  0  0  0  0  0  0  0  0  0  0
   -1.6766    0.2819   -2.8961 H   0  0  0  0  0  0  0  0  0  0  0  0
   -0.6272    0.6412   -0.5348 H   0  0  0  0  0  0  0  0  0  0  0  0
   -2.5511    0.7505   -0.6076 H   0  0  0  0  0  0  0  0  0  0  0  0
   -2.5581    3.2612   -0.7090 H   0  0  0  0  0  0  0  0  0  0  0  0
   -1.6766    2.6819    0.7062 H   0  0  0  0  0  0  0  0  0  0  0  0
   -0.7951    3.2612   -0.7090 H   0  0  0  0  0  0  0  0  0  0  0  0
  1  2  2  0
  1  6  1  0
  1 18  1  0
  2  3  1  0
  2  7  1  0
  3  4  2  0
  3  8  1  0
  4  5  1  0
  4  9  1  0
  5  6  2  0
  5 10  1  0
  6 11  1  0
 12 13  1  0
 12 15  1  0
 12 16  1  0
 12 17  1  0
 13 14  1  0
 13 19  1  0
 14 20  1  0
 14 21  1  0
 14 22  1  0
M  RAD  1  13   2
M  END
>  <reaction>  (7) 
rxn_928

>  <mol_properties>  (7) 
{"0": {"label": "*3", "atom_type": "Cd"}, "1": {"label": "*4", "atom_type": "Cd"}, "11": {"label": "*0", "atom_type": "Cs"}, "12": {"label": "*1", "atom_type": "Cs"}, "17": {"label": "*2", "atom_type": "H0"}}

>  <type>  (7) 
unop_3

>  <geom_source>  (7) 
Heuristics

$$$$

     RDKit          3D

 22 21  0  0  0  0  0  0  0  0999 V2000
    0.3510   -0.0867   -0.1459 C   0  0  0  0  0  0  0  0  0  0  0  0
    0.5240   -1.4216   -0.4815 C   0  0  0  0  0  0  0  0  0  0  0  0
    1.1500   -2.2845    0.4063 C   0  0  0  0  0  0  0  0  0  0  0  0
    1.6030   -1.8124    1.6296 C   0  0  0  0  0  0  0  0  0  0  0  0
    1.4300   -0.4775    1.9652 C   0  0  0  0  0  0  0  0  0  0  0  0
    0.8040    0.3854    1.0774 C   0  0  0  0  0  0  0  0  0  0  0  0
    0.1704   -1.7901   -1.4364 H   0  0  0  0  0  0  0  0  0  0  0  0
    1.2851   -3.3265    0.1444 H   0  0  0  0  0  0  0  0  0  0  0  0
    2.0917   -2.4859    2.3226 H   0  0  0  0  0  0  0  0  0  0  0  0
    1.7836   -0.1090    2.9200 H   0  0  0  0  0  0  0  0  0  0  0  0
    0.6689    1.4274    1.3393 H   0  0  0  0  0  0  0  0  0  0  0  0
   -1.7377    1.2181   -2.5386 C   0  0  0  0  0  0  0  0  0  0  0  0
   -1.7377    1.2181   -1.0153 C   0  0  0  0  0  3  0  0  0  0  0  0
   -1.7377    2.6239   -0.4285 C   0  0  0  0  0  0  0  0  0  0  0  0
   -0.8562    1.7324   -2.9292 H   0  0  0  0  0  0  0  0  0  0  0  0
   -2.6191    1.7324   -2.9292 H   0  0  0  0  0  0  0  0  0  0  0  0
   -1.7377    0.2032   -2.9397 H   0  0  0  0  0  0  0  0  0  0  0  0
   -0.6882    0.5625   -0.5784 H   0  0  0  0  0  0  0  0  0  0  0  0
   -2.6122    0.6718   -0.6513 H   0  0  0  0  0  0  0  0  0  0  0  0
   -2.6191    3.1825   -0.7527 H   0  0  0  0  0  0  0  0  0  0  0  0
   -1.7377    2.6033    0.6626 H   0  0  0  0  0  0  0  0  0  0  0  0
   -0.8562    3.1825   -0.7527 H   0  0  0  0  0  0  0  0  0  0  0  0
  1  2  2  0
  1  6  1  0
  1 18  1  0
  2  3  1  0
  2  7  1  0
  3  4  2  0
  3  8  1  0
  4  5  1  0
  4  9  1  0
  5  6  2  0
  5 10  1  0
  6 11  1  0
 12 13  1  0
 12 15  1  0
 12 16  1  0
 12 17  1  0
 13 14  1  0
 13 19  1  0
 14 20  1  0
 14 21  1  0
 14 22  1  0
M  RAD  1  13   2
M  END
>  <reaction>  (8) 
rxn_928

>  <mol_properties>  (8) 
{"0": {"label": "*3", "atom_type": "Cd"}, "1": {"label": "*4", "atom_type": "Cd"}, "11": {"label": "*0", "atom_type": "Cs"}, "12": {"label": "*1", "atom_type": "Cs"}, "17": {"label": "*2", "atom_type": "H0"}}

>  <type>  (8) 
unop_4

>  <geom_source>  (8) 
Heuristics

$$$$

     RDKit          3D

 22 21  0  0  0  0  0  0  0  0999 V2000
    0.0363   -0.1972    0.1314 C   0  0  0  0  0  0  0  0  0  0  0  0
    0.2518   -0.3319    1.4952 C   0  0  0  0  0  0  0  0  0  0  0  0
    1.3613   -1.0250    1.9570 C   0  0  0  0  0  0  0  0  0  0  0  0
    2.2552   -1.5834    1.0550 C   0  0  0  0  0  0  0  0  0  0  0  0
    2.0396   -1.4488   -0.3088 C   0  0  0  0  0  0  0  0  0  0  0  0
    0.9302   -0.7556   -0.7707 C   0  0  0  0  0  0  0  0  0  0  0  0
   -0.4459    0.1040    2.1993 H   0  0  0  0  0  0  0  0  0  0  0  0
    1.5295   -1.1301    3.0215 H   0  0  0  0  0  0  0  0  0  0  0  0
    3.1212   -2.1245    1.4154 H   0  0  0  0  0  0  0  0  0  0  0  0
    2.7374   -1.8847   -1.0129 H   0  0  0  0  0  0  0  0  0  0  0  0
    0.7619   -0.6505   -1.8352 H   0  0  0  0  0  0  0  0  0  0  0  0
   -2.0524    1.1076   -2.2613 C   0  0  0  0  0  0  0  0  0  0  0  0
   -2.0524    1.1076   -0.7380 C   0  0  0  0  0  3  0  0  0  0  0  0
   -2.0524    2.5134   -0.1512 C   0  0  0  0  0  0  0  0  0  0  0  0
   -1.1709    1.6219   -2.6519 H   0  0  0  0  0  0  0  0  0  0  0  0
   -2.9338    1.6219   -2.6519 H   0  0  0  0  0  0  0  0  0  0  0  0
   -2.0524    0.0927   -2.6625 H   0  0  0  0  0  0  0  0  0  0  0  0
   -1.0029    0.4520   -0.3012 H   0  0  0  0  0  0  0  0  0  0  0  0
   -2.9269    0.5613   -0.3740 H   0  0  0  0  0  0  0  0  0  0  0  0
   -2.9338    3.0720   -0.4754 H   0  0  0  0  0  0  0  0  0  0  0  0
   -2.0524    2.4928    0.9399 H   0  0  0  0  0  0  0  0  0  0  0  0
   -1.1709    3.0720   -0.4754 H   0  0  0  0  0  0  0  0  0  0  0  0
  1  2  2  0
  1  6  1  0
  1 18  1  0
  2  3  1  0
  2  7  1  0
  3  4  2  0
  3  8  1  0
  4  5  1  0
  4  9  1  0
  5  6  2  0
  5 10  1  0
  6 11  1  0
 12 13  1  0
 12 15  1  0
 12 16  1  0
 12 17  1  0
 13 14  1  0
 13 19  1  0
 14 20  1  0
 14 21  1  0
 14 22  1  0
M  RAD  1  13   2
M  END
>  <reaction>  (9) 
rxn_928

>  <mol_properties>  (9) 
{"0": {"label": "*3", "atom_type": "Cd"}, "1": {"label": "*4", "atom_type": "Cd"}, "11": {"label": "*0", "atom_type": "Cs"}, "12": {"label": "*1", "atom_type": "Cs"}, "17": {"label": "*2", "atom_type": "H0"}}

>  <type>  (9) 
unop_5

>  <geom_source>  (9) 
Heuristics

$$$$

     RDKit          3D

 22 21  0  0  0  0  0  0  0  0999 V2000
    0.3720   -0.2905   -0.3016 C   0  0  0  0  0  0  0  0  0  0  0  0
    0.2902   -1.6560   -0.0707 C   0  0  0  0  0  0  0  0  0  0  0  0
    0.8839   -2.2057    1.0562 C   0  0  0  0  0  0  0  0  0  0  0  0
    1.5594   -1.3900    1.9522 C   0  0  0  0  0  0  0  0  0  0  0  0
    1.6412   -0.0245    1.7213 C   0  0  0  0  0  0  0  0  0  0  0  0
    1.0475    0.5252    0.5944 C   0  0  0  0  0  0  0  0  0  0  0  0
   -0.2371   -2.2928   -0.7700 H   0  0  0  0  0  0  0  0  0  0  0  0
    0.8200   -3.2716    1.2364 H   0  0  0  0  0  0  0  0  0  0  0  0
    2.0228   -1.8191    2.8318 H   0  0  0  0  0  0  0  0  0  0  0  0
    2.1685    0.6122    2.4206 H   0  0  0  0  0  0  0  0  0  0  0  0
    1.1114    1.5911    0.4142 H   0  0  0  0  0  0  0  0  0  0  0  0
   -1.7166    1.0143   -2.6942 C   0  0  0  0  0  0  0  0  0  0  0  0
   -1.7166    1.0143   -1.1709 C   0  0  0  0  0  3  0  0  0  0  0  0
   -1.7166    2.4201   -0.5842 C   0  0  0  0  0  0  0  0  0  0  0  0
   -0.8352    1.5286   -3.0849 H   0  0  0  0  0  0  0  0  0  0  0  0
   -2.5981    1.5286   -3.0849 H   0  0  0  0  0  0  0  0  0  0  0  0
   -1.7166   -0.0006   -3.0954 H   0  0  0  0  0  0  0  0  0  0  0  0
   -0.6672    0.3587   -0.7341 H   0  0  0  0  0  0  0  0  0  0  0  0
   -2.5912    0.4680   -0.8069 H   0  0  0  0  0  0  0  0  0  0  0  0
   -2.5981    2.9787   -0.9083 H   0  0  0  0  0  0  0  0  0  0  0  0
   -1.7166    2.3994    0.5069 H   0  0  0  0  0  0  0  0  0  0  0  0
   -0.8352    2.9787   -0.9083 H   0  0  0  0  0  0  0  0  0  0  0  0
  1  2  2  0
  1  6  1  0
  1 18  1  0
  2  3  1  0
  2  7  1  0
  3  4  2  0
  3  8  1  0
  4  5  1  0
  4  9  1  0
  5  6  2  0
  5 10  1  0
  6 11  1  0
 12 13  1  0
 12 15  1  0
 12 16  1  0
 12 17  1  0
 13 14  1  0
 13 19  1  0
 14 20  1  0
 14 21  1  0
 14 22  1  0
M  RAD  1  13   2
M  END
>  <reaction>  (10) 
rxn_928

>  <mol_properties>  (10) 
{"0": {"label": "*3", "atom_type": "Cd"}, "1": {"label": "*4", "atom_type": "Cd"}, "11": {"label": "*0", "atom_type": "Cs"}, "12": {"label": "*1", "atom_type": "Cs"}, "17": {"label": "*2", "atom_type": "H0"}}

>  <type>  (10) 
unop_6

>  <geom_source>  (10) 
Heuristics

$$$$

     RDKit          3D

 22 21  0  0  0  0  0  0  0  0999 V2000
    0.2495   -0.5392   -0.3059 C   0  0  0  0  0  0  0  0  0  0  0  0
    0.0833   -1.6623    0.4914 C   0  0  0  0  0  0  0  0  0  0  0  0
    0.8653   -1.8299    1.6250 C   0  0  0  0  0  0  0  0  0  0  0  0
    1.8134   -0.8746    1.9612 C   0  0  0  0  0  0  0  0  0  0  0  0
    1.9795    0.2484    1.1639 C   0  0  0  0  0  0  0  0  0  0  0  0
    1.1976    0.4161    0.0303 C   0  0  0  0  0  0  0  0  0  0  0  0
   -0.6567   -2.4080    0.2290 H   0  0  0  0  0  0  0  0  0  0  0  0
    0.7356   -2.7065    2.2474 H   0  0  0  0  0  0  0  0  0  0  0  0
    2.4237   -1.0055    2.8461 H   0  0  0  0  0  0  0  0  0  0  0  0
    2.7195    0.9941    1.4263 H   0  0  0  0  0  0  0  0  0  0  0  0
    1.3272    1.2927   -0.5921 H   0  0  0  0  0  0  0  0  0  0  0  0
   -1.8392    0.7656   -2.6986 C   0  0  0  0  0  0  0  0  0  0  0  0
   -1.8392    0.7656   -1.1753 C   0  0  0  0  0  3  0  0  0  0  0  0
   -1.8392    2.1714   -0.5886 C   0  0  0  0  0  0  0  0  0  0  0  0
   -0.9577    1.2799   -3.0892 H   0  0  0  0  0  0  0  0  0  0  0  0
   -2.7206    1.2799   -3.0892 H   0  0  0  0  0  0  0  0  0  0  0  0
   -1.8392   -0.2493   -3.0998 H   0  0  0  0  0  0  0  0  0  0  0  0
   -0.7897    0.1100   -0.7385 H   0  0  0  0  0  0  0  0  0  0  0  0
   -2.7137    0.2193   -0.8113 H   0  0  0  0  0  0  0  0  0  0  0  0
   -2.7206    2.7300   -0.9127 H   0  0  0  0  0  0  0  0  0  0  0  0
   -1.8392    2.1507    0.5026 H   0  0  0  0  0  0  0  0  0  0  0  0
   -0.9577    2.7300   -0.9127 H   0  0  0  0  0  0  0  0  0  0  0  0
  1  2  2  0
  1  6  1  0
  1 18  1  0
  2  3  1  0
  2  7  1  0
  3  4  2  0
  3  8  1  0
  4  5  1  0
  4  9  1  0
  5  6  2  0
  5 10  1  0
  6 11  1  0
 12 13  1  0
 12 15  1  0
 12 16  1  0
 12 17  1  0
 13 14  1  0
 13 19  1  0
 14 20  1  0
 14 21  1  0
 14 22  1  0
M  RAD  1  13   2
M  END
>  <reaction>  (11) 
rxn_928

>  <mol_properties>  (11) 
{"0": {"label": "*3", "atom_type": "Cd"}, "1": {"label": "*4", "atom_type": "Cd"}, "11": {"label": "*0", "atom_type": "Cs"}, "12": {"label": "*1", "atom_type": "Cs"}, "17": {"label": "*2", "atom_type": "H0"}}

>  <type>  (11) 
unop_7

>  <geom_source>  (11) 
Heuristics

$$$$

     RDKit          3D

 22 21  0  0  0  0  0  0  0  0999 V2000
    0.2674   -0.4580   -0.3016 C   0  0  0  0  0  0  0  0  0  0  0  0
    1.4587    0.2144   -0.0707 C   0  0  0  0  0  0  0  0  0  0  0  0
    2.2131   -0.0781    1.0562 C   0  0  0  0  0  0  0  0  0  0  0  0
    1.7762   -1.0430    1.9522 C   0  0  0  0  0  0  0  0  0  0  0  0
    0.5850   -1.7153    1.7213 C   0  0  0  0  0  0  0  0  0  0  0  0
   -0.1695   -1.4229    0.5944 C   0  0  0  0  0  0  0  0  0  0  0  0
    1.7997    0.9675   -0.7700 H   0  0  0  0  0  0  0  0  0  0  0  0
    3.1429    0.4467    1.2364 H   0  0  0  0  0  0  0  0  0  0  0  0
    2.3651   -1.2713    2.8318 H   0  0  0  0  0  0  0  0  0  0  0  0
    0.2440   -2.4685    2.4206 H   0  0  0  0  0  0  0  0  0  0  0  0
   -1.0994   -1.9477    0.4142 H   0  0  0  0  0  0  0  0  0  0  0  0
   -1.8213    0.8468   -2.6942 C   0  0  0  0  0  0  0  0  0  0  0  0
   -1.8213    0.8468   -1.1709 C   0  0  0  0  0  3  0  0  0  0  0  0
   -1.8213    2.2526   -0.5842 C   0  0  0  0  0  0  0  0  0  0  0  0
   -0.9398    1.3611   -3.0849 H   0  0  0  0  0  0  0  0  0  0  0  0
   -2.7027    1.3611   -3.0849 H   0  0  0  0  0  0  0  0  0  0  0  0
   -1.8213   -0.1681   -3.0954 H   0  0  0  0  0  0  0  0  0  0  0  0
   -0.7718    0.1912   -0.7341 H   0  0  0  0  0  0  0  0  0  0  0  0
   -2.6958    0.3005   -0.8069 H   0  0  0  0  0  0  0  0  0  0  0  0
   -2.7027    2.8112   -0.9083 H   0  0  0  0  0  0  0  0  0  0  0  0
   -1.8213    2.2320    0.5069 H   0  0  0  0  0  0  0  0  0  0  0  0
   -0.9398    2.8112   -0.9083 H   0  0  0  0  0  0  0  0  0  0  0  0
  1  2  2  0
  1  6  1  0
  1 18  1  0
  2  3  1  0
  2  7  1  0
  3  4  2  0
  3  8  1  0
  4  5  1  0
  4  9  1  0
  5  6  2  0
  5 10  1  0
  6 11  1  0
 12 13  1  0
 12 15  1  0
 12 16  1  0
 12 17  1  0
 13 14  1  0
 13 19  1  0
 14 20  1  0
 14 21  1  0
 14 22  1  0
M  RAD  1  13   2
M  END
>  <reaction>  (12) 
rxn_928

>  <mol_properties>  (12) 
{"0": {"label": "*3", "atom_type": "Cd"}, "1": {"label": "*4", "atom_type": "Cd"}, "11": {"label": "*0", "atom_type": "Cs"}, "12": {"label": "*1", "atom_type": "Cs"}, "17": {"label": "*2", "atom_type": "H0"}}

>  <type>  (12) 
unop_8

>  <geom_source>  (12) 
Heuristics

$$$$

     RDKit          3D

 22 21  0  0  0  0  0  0  0  0999 V2000
    0.2059   -0.0482    0.0448 C   0  0  0  0  0  0  0  0  0  0  0  0
    0.7361   -1.0877   -0.7055 C   0  0  0  0  0  0  0  0  0  0  0  0
    1.5849   -2.0097   -0.1106 C   0  0  0  0  0  0  0  0  0  0  0  0
    1.9036   -1.8923    1.2344 C   0  0  0  0  0  0  0  0  0  0  0  0
    1.3734   -0.8527    1.9847 C   0  0  0  0  0  0  0  0  0  0  0  0
    0.5246    0.0693    1.3898 C   0  0  0  0  0  0  0  0  0  0  0  0
    0.4873   -1.1794   -1.7554 H   0  0  0  0  0  0  0  0  0  0  0  0
    1.9988   -2.8212   -0.6962 H   0  0  0  0  0  0  0  0  0  0  0  0
    2.5662   -2.6120    1.6988 H   0  0  0  0  0  0  0  0  0  0  0  0
    1.6222   -0.7610    3.0346 H   0  0  0  0  0  0  0  0  0  0  0  0
    0.1107    0.8807    1.9755 H   0  0  0  0  0  0  0  0  0  0  0  0
   -1.8827    1.2567   -2.3479 C   0  0  0  0  0  0  0  0  0  0  0  0
   -1.8827    1.2567   -0.8246 C   0  0  0  0  0  3  0  0  0  0  0  0
   -1.8827    2.6625   -0.2379 C   0  0  0  0  0  0  0  0  0  0  0  0
   -1.0013    1.7709   -2.7385 H   0  0  0  0  0  0  0  0  0  0  0  0
   -2.7642    1.7709   -2.7385 H   0  0  0  0  0  0  0  0  0  0  0  0
   -1.8827    0.2418   -2.7491 H   0  0  0  0  0  0  0  0  0  0  0  0
   -0.8333    0.6010   -0.3878 H   0  0  0  0  0  0  0  0  0  0  0  0
   -2.7573    0.7103   -0.4606 H   0  0  0  0  0  0  0  0  0  0  0  0
   -2.7642    3.2210   -0.5620 H   0  0  0  0  0  0  0  0  0  0  0  0
   -1.8827    2.6418    0.8533 H   0  0  0  0  0  0  0  0  0  0  0  0
   -1.0013    3.2210   -0.5620 H   0  0  0  0  0  0  0  0  0  0  0  0
  1  2  2  0
  1  6  1  0
  1 18  1  0
  2  3  1  0
  2  7  1  0
  3  4  2  0
  3  8  1  0
  4  5  1  0
  4  9  1  0
  5  6  2  0
  5 10  1  0
  6 11  1  0
 12 13  1  0
 12 15  1  0
 12 16  1  0
 12 17  1  0
 13 14  1  0
 13 19  1  0
 14 20  1  0
 14 21  1  0
 14 22  1  0
M  RAD  1  13   2
M  END
>  <reaction>  (13) 
rxn_928

>  <mol_properties>  (13) 
{"0": {"label": "*3", "atom_type": "Cd"}, "1": {"label": "*4", "atom_type": "Cd"}, "11": {"label": "*0", "atom_type": "Cs"}, "12": {"label": "*1", "atom_type": "Cs"}, "17": {"label": "*2", "atom_type": "H0"}}

>  <type>  (13) 
unop_9

>  <geom_source>  (13) 
Heuristics

$$$$

     RDKit          3D

 22 21  0  0  0  0  0  0  0  0999 V2000
    0.0750   -0.5285   -0.1459 C   0  0  0  0  0  0  0  0  0  0  0  0
    1.3506   -0.0985   -0.4815 C   0  0  0  0  0  0  0  0  0  0  0  0
    2.4006   -0.2828    0.4063 C   0  0  0  0  0  0  0  0  0  0  0  0
    2.1750   -0.8969    1.6296 C   0  0  0  0  0  0  0  0  0  0  0  0
    0.8994   -1.3268    1.9652 C   0  0  0  0  0  0  0  0  0  0  0  0
   -0.1506   -1.1426    1.0774 C   0  0  0  0  0  0  0  0  0  0  0  0
    1.5266    0.3808   -1.4364 H   0  0  0  0  0  0  0  0  0  0  0  0
    3.3962    0.0528    0.1444 H   0  0  0  0  0  0  0  0  0  0  0  0
    2.9946   -1.0407    2.3226 H   0  0  0  0  0  0  0  0  0  0  0  0
    0.7233   -1.8062    2.9200 H   0  0  0  0  0  0  0  0  0  0  0  0
   -1.1463   -1.4782    1.3393 H   0  0  0  0  0  0  0  0  0  0  0  0
   -2.0137    0.7764   -2.5386 C   0  0  0  0  0  0  0  0  0  0  0  0
   -2.0137    0.7764   -1.0153 C   0  0  0  0  0  3  0  0  0  0  0  0
   -2.0137    2.1822   -0.4285 C   0  0  0  0  0  0  0  0  0  0  0  0
   -1.1322    1.2906   -2.9292 H   0  0  0  0  0  0  0  0  0  0  0  0
   -2.8951    1.2906   -2.9292 H   0  0  0  0  0  0  0  0  0  0  0  0
   -2.0137   -0.2385   -2.9397 H   0  0  0  0  0  0  0  0  0  0  0  0
   -0.9642    0.1207   -0.5784 H   0  0  0  0  0  0  0  0  0  0  0  0
   -2.8882    0.2300   -0.6513 H   0  0  0  0  0  0  0  0  0  0  0  0
   -2.8951    2.7407   -0.7527 H   0  0  0  0  0  0  0  0  0  0  0  0
   -2.0137    2.1615    0.6626 H   0  0  0  0  0  0  0  0  0  0  0  0
   -1.1322    2.7407   -0.7527 H   0  0  0  0  0  0  0  0  0  0  0  0
  1  2  2  0
  1  6  1  0
  1 18  1  0
  2  3  1  0
  2  7  1  0
  3  4  2  0
  3  8  1  0
  4  5  1  0
  4  9  1  0
  5  6  2  0
  5 10  1  0
  6 11  1  0
 12 13  1  0
 12 15  1  0
 12 16  1  0
 12 17  1  0
 13 14  1  0
 13 19  1  0
 14 20  1  0
 14 21  1  0
 14 22  1  0
M  RAD  1  13   2
M  END
>  <reaction>  (14) 
rxn_928

>  <mol_properties>  (14) 
{"0": {"label": "*3", "atom_type": "Cd"}, "1": {"label": "*4", "atom_type": "Cd"}, "11": {"label": "*0", "atom_type": "Cs"}, "12": {"label": "*1", "atom_type": "Cs"}, "17": {"label": "*2", "atom_type": "H0"}}

>  <type>  (14) 
unop_10

>  <geom_source>  (14) 
Heuristics

$$$$

     RDKit          3D

 22 21  0  0  0  0  0  0  0  0999 V2000
    0.0310   -0.6179   -0.1023 C   0  0  0  0  0  0  0  0  0  0  0  0
   -0.0263   -1.2904    1.1098 C   0  0  0  0  0  0  0  0  0  0  0  0
    1.0912   -1.3373    1.9305 C   0  0  0  0  0  0  0  0  0  0  0  0
    2.2660   -0.7117    1.5392 C   0  0  0  0  0  0  0  0  0  0  0  0
    2.3233   -0.0392    0.3272 C   0  0  0  0  0  0  0  0  0  0  0  0
    1.2058    0.0077   -0.4936 C   0  0  0  0  0  0  0  0  0  0  0  0
   -0.9432   -1.7787    1.4152 H   0  0  0  0  0  0  0  0  0  0  0  0
    1.0465   -1.8622    2.8765 H   0  0  0  0  0  0  0  0  0  0  0  0
    3.1383   -0.7483    2.1798 H   0  0  0  0  0  0  0  0  0  0  0  0
    3.2402    0.4492    0.0217 H   0  0  0  0  0  0  0  0  0  0  0  0
    1.2505    0.5327   -1.4397 H   0  0  0  0  0  0  0  0  0  0  0  0
   -2.0576    0.6870   -2.4950 C   0  0  0  0  0  0  0  0  0  0  0  0
   -2.0576    0.6870   -0.9716 C   0  0  0  0  0  3  0  0  0  0  0  0
   -2.0576    2.0928   -0.3849 C   0  0  0  0  0  0  0  0  0  0  0  0
   -1.1761    1.2012   -2.8856 H   0  0  0  0  0  0  0  0  0  0  0  0
   -2.9390    1.2012   -2.8856 H   0  0  0  0  0  0  0  0  0  0  0  0
   -2.0576   -0.3279   -2.8961 H   0  0  0  0  0  0  0  0  0  0  0  0
   -1.0081    0.0313   -0.5348 H   0  0  0  0  0  0  0  0  0  0  0  0
   -2.9321    0.1406   -0.6076 H   0  0  0  0  0  0  0  0  0  0  0  0
   -2.9390    2.6514   -0.7090 H   0  0  0  0  0  0  0  0  0  0  0  0
   -2.0576    2.0721    0.7062 H   0  0  0  0  0  0  0  0  0  0  0  0
   -1.1761    2.6514   -0.7090 H   0  0  0  0  0  0  0  0  0  0  0  0
  1  2  2  0
  1  6  1  0
  1 18  1  0
  2  3  1  0
  2  7  1  0
  3  4  2  0
  3  8  1  0
  4  5  1  0
  4  9  1  0
  5  6  2  0
  5 10  1  0
  6 11  1  0
 12 13  1  0
 12 15  1  0
 12 16  1  0
 12 17  1  0
 13 14  1  0
 13 19  1  0
 14 20  1  0
 14 21  1  0
 14 22  1  0
M  RAD  1  13   2
M  END
>  <reaction>  (15) 
rxn_928

>  <mol_properties>  (15) 
{"0": {"label": "*3", "atom_type": "Cd"}, "1": {"label": "*4", "atom_type": "Cd"}, "11": {"label": "*0", "atom_type": "Cs"}, "12": {"label": "*1", "atom_type": "Cs"}, "17": {"label": "*2", "atom_type": "H0"}}

>  <type>  (15) 
unop_11

>  <geom_source>  (15) 
Heuristics

$$$$

     RDKit          3D

 22 21  0  0  0  0  0  0  0  0999 V2000
    0.0363   -0.1972    0.1314 C   0  0  0  0  0  0  0  0  0  0  0  0
    0.9302   -0.7556   -0.7707 C   0  0  0  0  0  0  0  0  0  0  0  0
    2.0396   -1.4488   -0.3088 C   0  0  0  0  0  0  0  0  0  0  0  0
    2.2552   -1.5834    1.0550 C   0  0  0  0  0  0  0  0  0  0  0  0
    1.3613   -1.0250    1.9570 C   0  0  0  0  0  0  0  0  0  0  0  0
    0.2518   -0.3319    1.4952 C   0  0  0  0  0  0  0  0  0  0  0  0
    0.7619   -0.6505   -1.8352 H   0  0  0  0  0  0  0  0  0  0  0  0
    2.7374   -1.8847   -1.0129 H   0  0  0  0  0  0  0  0  0  0  0  0
    3.1212   -2.1245    1.4154 H   0  0  0  0  0  0  0  0  0  0  0  0
    1.5295   -1.1301    3.0215 H   0  0  0  0  0  0  0  0  0  0  0  0
   -0.4459    0.1040    2.1993 H   0  0  0  0  0  0  0  0  0  0  0  0
   -2.0524    1.1076   -2.2613 C   0  0  0  0  0  0  0  0  0  0  0  0
   -2.0524    1.1076   -0.7380 C   0  0  0  0  0  3  0  0  0  0  0  0
   -2.0524    2.5134   -0.1512 C   0  0  0  0  0  0  0  0  0  0  0  0
   -1.1709    1.6219   -2.6519 H   0  0  0  0  0  0  0  0  0  0  0  0
   -2.9338    1.6219   -2.6519 H   0  0  0  0  0  0  0  0  0  0  0  0
   -2.0524    0.0927   -2.6625 H   0  0  0  0  0  0  0  0  0  0  0  0
   -1.0029    0.4520   -0.3012 H   0  0  0  0  0  0  0  0  0  0  0  0
   -2.9269    0.5613   -0.3740 H   0  0  0  0  0  0  0  0  0  0  0  0
   -2.9338    3.0720   -0.4754 H   0  0  0  0  0  0  0  0  0  0  0  0
   -2.0524    2.4928    0.9399 H   0  0  0  0  0  0  0  0  0  0  0  0
   -1.1709    3.0720   -0.4754 H   0  0  0  0  0  0  0  0  0  0  0  0
  1  2  2  0
  1  6  1  0
  1 18  1  0
  2  3  1  0
  2  7  1  0
  3  4  2  0
  3  8  1  0
  4  5  1  0
  4  9  1  0
  5  6  2  0
  5 10  1  0
  6 11  1  0
 12 13  1  0
 12 15  1  0
 12 16  1  0
 12 17  1  0
 13 14  1  0
 13 19  1  0
 14 20  1  0
 14 21  1  0
 14 22  1  0
M  RAD  1  13   2
M  END
>  <reaction>  (16) 
rxn_928

>  <mol_properties>  (16) 
{"0": {"label": "*3", "atom_type": "Cd"}, "1": {"label": "*4", "atom_type": "Cd"}, "11": {"label": "*0", "atom_type": "Cs"}, "12": {"label": "*1", "atom_type": "Cs"}, "17": {"label": "*2", "atom_type": "H0"}}

>  <type>  (16) 
unop_12

>  <geom_source>  (16) 
Heuristics

$$$$

     RDKit          3D

 22 21  0  0  0  0  0  0  0  0999 V2000
    2.3260    0.8662    1.1533 C   0  0  0  0  0  0  0  0  0  0  0  0
    2.2804   -0.2056   -1.1283 C   0  0  0  0  0  0  0  0  0  0  0  0
    1.9290   -0.3635    0.3459 C   0  0  0  0  0  3  0  0  0  0  0  0
   -3.2888    0.1507   -0.3440 C   0  0  0  0  0  0  0  0  0  0  0  0
   -2.4943   -0.4619   -1.3192 C   0  0  0  0  0  0  0  0  0  0  0  0
   -2.7496    0.4469    0.9127 C   0  0  0  0  0  0  0  0  0  0  0  0
   -1.1609   -0.7783   -1.0375 C   0  0  0  0  0  0  0  0  0  0  0  0
   -1.4162    0.1304    1.1938 C   0  0  0  0  0  0  0  0  0  0  0  0
   -0.6222   -0.4821    0.2187 C   0  0  0  0  0  0  0  0  0  0  0  0
    1.7995    1.7640    0.7664 H   0  0  0  0  0  0  0  0  0  0  0  0
    3.4237    1.0275    1.0978 H   0  0  0  0  0  0  0  0  0  0  0  0
    2.0382    0.7165    2.2147 H   0  0  0  0  0  0  0  0  0  0  0  0
    1.7531    0.6735   -1.5551 H   0  0  0  0  0  0  0  0  0  0  0  0
    1.9604   -1.1134   -1.6808 H   0  0  0  0  0  0  0  0  0  0  0  0
    3.3767   -0.0768   -1.2529 H   0  0  0  0  0  0  0  0  0  0  0  0
    2.4307   -1.2648    0.7592 H   0  0  0  0  0  0  0  0  0  0  0  0
   -2.9112   -0.6911   -2.2914 H   0  0  0  0  0  0  0  0  0  0  0  0
   -4.3203    0.3955   -0.5617 H   0  0  0  0  0  0  0  0  0  0  0  0
   -3.3640    0.9209    1.6672 H   0  0  0  0  0  0  0  0  0  0  0  0
   -0.5454   -1.2521   -1.7908 H   0  0  0  0  0  0  0  0  0  0  0  0
   -0.9979    0.3588    2.1653 H   0  0  0  0  0  0  0  0  0  0  0  0
    0.5533   -0.7611    0.4668 H   0  0  0  0  0  0  0  0  0  0  0  0
  1  3  1  0
  1 10  1  0
  1 11  1  0
  1 12  1  0
  2  3  1  0
  2 13  1  0
  2 14  1  0
  2 15  1  0
  3 16  1  0
  4  5  2  0
  4  6  1  0
  4 18  1  0
  5  7  1  0
  5 17  1  0
  6  8  2  0
  6 19  1  0
  7  9  2  0
  7 20  1  0
  8  9  1  0
  8 21  1  0
  9 22  1  0
M  RAD  1   3   2
M  END
>  <reaction>  (17) 
rxn_928

>  <mol_properties>  (17) 
{"0": {"label": "*3", "atom_type": "Cd"}, "1": {"label": "*4", "atom_type": "Cd"}, "11": {"label": "*0", "atom_type": "Cs"}, "12": {"label": "*1", "atom_type": "Cs"}, "17": {"label": "*2", "atom_type": "H0"}}

>  <type>  (17) 
unop_13

>  <geom_source>  (17) 
AutoTST

$$$$
