
     RDKit          3D

 13 12  0  0  0  0  0  0  0  0999 V2000
    2.2975   -0.6134    0.7685 C   0  0  0  0  0  0  0  0  0  0  0  0
    1.1676   -0.5248    0.3802 C   0  0  0  0  0  0  0  0  0  0  0  0
   -0.2109   -0.3926   -0.0948 C   0  0  0  0  0  0  0  0  0  0  0  0
   -0.2501    0.2584   -1.4808 C   0  0  0  0  0  0  0  0  0  0  0  0
   -1.0633    0.3831    0.9141 C   0  0  0  0  0  0  0  0  0  0  0  0
    3.2999   -0.6974    1.1133 H   0  0  0  0  0  0  0  0  0  0  0  0
   -0.6209   -1.4038   -0.1814 H   0  0  0  0  0  0  0  0  0  0  0  0
    0.3402   -0.3102   -2.1992 H   0  0  0  0  0  0  0  0  0  0  0  0
    0.1511    1.2724   -1.4369 H   0  0  0  0  0  0  0  0  0  0  0  0
   -1.2791    0.3109   -1.8407 H   0  0  0  0  0  0  0  0  0  0  0  0
   -0.6861    1.4008    1.0287 H   0  0  0  0  0  0  0  0  0  0  0  0
   -1.0492   -0.0971    1.8924 H   0  0  0  0  0  0  0  0  0  0  0  0
   -2.0971    0.4363    0.5680 H   0  0  0  0  0  0  0  0  0  0  0  0
  1  2  3  0
  1  6  1  0
  2  3  1  0
  3  4  1  0
  3  5  1  0
  3  7  1  0
  4  8  1  0
  4  9  1  0
  4 10  1  0
  5 11  1  0
  5 12  1  0
  5 13  1  0
M  END
>  <reaction>  (1) 
rxn_1332

>  <mol_properties>  (1) 
{"2": {"label": "donator", "atom_type": "Cs"}, "6": {"label": "d_hydrogen", "atom_type": "H0"}}

>  <type>  (1) 
r1h

$$$$

     RDKit          3D

 12 11  0  0  0  0  0  0  0  0999 V2000
   -0.9951    0.1196   -0.8321 C   0  0  0  0  0  0  0  0  0  0  0  0
   -0.3760    0.2571    0.5231 C   0  0  0  0  0  3  0  0  0  0  0  0
    0.9330   -0.1537    0.7810 C   0  0  0  0  0  0  0  0  0  0  0  0
    1.5987   -0.1880    1.9734 C   0  0  0  0  0  0  0  0  0  0  0  0
   -1.4483    0.9449    1.7152 S   0  0  0  0  0  0  0  0  0  0  0  0
   -1.9164   -0.4696   -0.7936 H   0  0  0  0  0  0  0  0  0  0  0  0
   -1.2565    1.0958   -1.2506 H   0  0  0  0  0  0  0  0  0  0  0  0
   -0.3088   -0.3780   -1.5170 H   0  0  0  0  0  0  0  0  0  0  0  0
    1.4783   -0.4898   -0.0971 H   0  0  0  0  0  0  0  0  0  0  0  0
    2.6278   -0.5153    2.0142 H   0  0  0  0  0  0  0  0  0  0  0  0
    1.1316    0.0690    2.9151 H   0  0  0  0  0  0  0  0  0  0  0  0
   -0.5306    1.3052    2.6211 H   0  0  0  0  0  0  0  0  0  0  0  0
  1  2  1  0
  1  6  1  0
  1  7  1  0
  1  8  1  0
  2  3  1  0
  2  5  1  0
  3  4  2  3
  3  9  1  0
  4 10  1  0
  4 11  1  0
  5 12  1  0
M  RAD  1   2   2
M  END
>  <reaction>  (2) 
rxn_1332

>  <mol_properties>  (2) 
{"1": {"label": "acceptor", "atom_type": "Cs"}}

>  <type>  (2) 
r2

$$$$

     RDKit          3D

 13 12  0  0  0  0  0  0  0  0999 V2000
   -1.1828    0.8269   -0.1645 C   0  0  0  0  0  0  0  0  0  0  0  0
   -0.4827   -0.4584   -0.5736 C   0  0  1  0  0  0  0  0  0  0  0  0
   -0.9759   -1.7030    0.1030 C   0  0  0  0  0  0  0  0  0  0  0  0
   -2.0084   -1.7831    0.9287 C   0  0  0  0  0  0  0  0  0  0  0  0
   -0.4908   -0.7025   -2.3913 S   0  0  0  0  0  0  0  0  0  0  0  0
   -1.0941    0.9860    0.9125 H   0  0  0  0  0  0  0  0  0  0  0  0
   -0.7405    1.6784   -0.6793 H   0  0  0  0  0  0  0  0  0  0  0  0
   -2.2437    0.7943   -0.4195 H   0  0  0  0  0  0  0  0  0  0  0  0
    0.5870   -0.3637   -0.3637 H   0  0  0  0  0  0  0  0  0  0  0  0
   -0.4209   -2.6026   -0.1443 H   0  0  0  0  0  0  0  0  0  0  0  0
   -2.2982   -2.7315    1.3623 H   0  0  0  0  0  0  0  0  0  0  0  0
   -2.5999   -0.9190    1.2055 H   0  0  0  0  0  0  0  0  0  0  0  0
   -1.8040   -0.9489   -2.4971 H   0  0  0  0  0  0  0  0  0  0  0  0
  1  2  1  0
  1  6  1  0
  1  7  1  0
  1  8  1  0
  2  3  1  0
  2  5  1  0
  2  9  1  1
  3  4  2  3
  3 10  1  0
  4 11  1  0
  4 12  1  0
  5 13  1  0
M  END
>  <reaction>  (3) 
rxn_1332

>  <mol_properties>  (3) 
{"0": {"label": "a_hydrogen", "atom_type": "H0"}, "2": {"label": "acceptor", "atom_type": "Cs"}}

>  <type>  (3) 
r2h

$$$$

     RDKit          3D

 25 23  0  0  0  0  0  0  0  0999 V2000
   -1.1753    1.1448   -2.7612 C   0  0  0  0  0  0  0  0  0  0  0  0
   -0.6757    1.3504   -1.6858 C   0  0  0  0  0  0  0  0  0  0  0  0
   -0.0867    1.5398   -0.3994 C   0  0  0  0  0  3  0  0  0  0  0  0
   -0.9723    2.2215    0.6216 C   0  0  0  0  0  0  0  0  0  0  0  0
    1.3598    1.9879   -0.4089 C   0  0  0  0  0  0  0  0  0  0  0  0
   -1.6184    0.9782   -3.7132 H   0  0  0  0  0  0  0  0  0  0  0  0
   -0.0308    0.2834    0.0943 H   0  0  0  0  0  0  0  0  0  0  0  0
   -1.9697    1.7817    0.6281 H   0  0  0  0  0  0  0  0  0  0  0  0
   -1.0721    3.2874    0.3971 H   0  0  0  0  0  0  0  0  0  0  0  0
   -0.5394    2.1221    1.6191 H   0  0  0  0  0  0  0  0  0  0  0  0
    1.4377    3.0282   -0.7384 H   0  0  0  0  0  0  0  0  0  0  0  0
    1.9587    1.3759   -1.0833 H   0  0  0  0  0  0  0  0  0  0  0  0
    1.7844    1.9197    0.5943 H   0  0  0  0  0  0  0  0  0  0  0  0
    0.5907   -1.7194   -0.6250 C   0  0  0  0  0  0  0  0  0  0  0  0
    0.0052   -0.9837    0.5543 C   0  0  1  0  0  0  0  0  0  0  0  0
   -1.3895   -1.2455    0.9131 C   0  0  0  0  0  0  0  0  0  0  0  0
   -2.2604   -1.9463    0.1853 C   0  0  0  0  0  0  0  0  0  0  0  0
    1.1055   -0.7878    1.9671 S   0  0  0  0  0  0  0  0  0  0  0  0
    0.6199   -2.7971   -0.4388 H   0  0  0  0  0  0  0  0  0  0  0  0
   -0.0046   -1.5394   -1.5227 H   0  0  0  0  0  0  0  0  0  0  0  0
    1.6082   -1.3821   -0.8182 H   0  0  0  0  0  0  0  0  0  0  0  0
   -1.7240   -0.7901    1.8400 H   0  0  0  0  0  0  0  0  0  0  0  0
   -3.2856   -2.0620    0.5114 H   0  0  0  0  0  0  0  0  0  0  0  0
   -1.9846   -2.4240   -0.7462 H   0  0  0  0  0  0  0  0  0  0  0  0
    0.8039   -1.9363    2.5934 H   0  0  0  0  0  0  0  0  0  0  0  0
  1  2  3  0
  1  6  1  0
  2  3  1  0
  3  4  1  0
  3  5  1  0
  4  8  1  0
  4  9  1  0
  4 10  1  0
  5 11  1  0
  5 12  1  0
  5 13  1  0
 15  7  1  6
 14 15  1  0
 14 19  1  0
 14 20  1  0
 14 21  1  0
 15 16  1  0
 15 18  1  0
 16 17  2  3
 16 22  1  0
 17 23  1  0
 17 24  1  0
 18 25  1  0
M  RAD  1   3   2
M  END
>  <reaction>  (4) 
rxn_1332

>  <mol_properties>  (4) 
{"1": {"label": "*4", "atom_type": "Ct"}, "2": {"label": "*3", "atom_type": "Cs"}, "6": {"label": "*2", "atom_type": "H0"}, "14": {"label": "*1", "atom_type": "Cs"}, "17": {"label": "*0", "atom_type": "S2s"}}

>  <type>  (4) 
ts

$$$$

     RDKit          3D

 25 23  0  0  0  0  0  0  0  0999 V2000
    0.2265    1.4001   -3.0918 C   0  0  0  0  0  0  0  0  0  0  0  0
    0.2265    1.4001   -1.8937 C   0  0  0  0  0  0  0  0  0  0  0  0
    0.2265    1.4240   -0.4299 C   0  0  0  0  0  3  0  0  0  0  0  0
   -1.0396    2.1005    0.1045 C   0  0  0  0  0  0  0  0  0  0  0  0
    1.4926    2.1005    0.1045 C   0  0  0  0  0  0  0  0  0  0  0  0
    0.2265    1.4001   -4.1551 H   0  0  0  0  0  0  0  0  0  0  0  0
    0.2265    0.1754   -0.0220 H   0  0  0  0  0  0  0  0  0  0  0  0
   -1.9367    1.6012   -0.2615 H   0  0  0  0  0  0  0  0  0  0  0  0
   -1.0770    3.1440   -0.2130 H   0  0  0  0  0  0  0  0  0  0  0  0
   -1.0470    2.0725    1.1955 H   0  0  0  0  0  0  0  0  0  0  0  0
    1.5300    3.1440   -0.2130 H   0  0  0  0  0  0  0  0  0  0  0  0
    2.3897    1.6011   -0.2615 H   0  0  0  0  0  0  0  0  0  0  0  0
    1.4999    2.0725    1.1955 H   0  0  0  0  0  0  0  0  0  0  0  0
    1.4708   -1.3201    1.2223 C   0  0  0  0  0  0  0  0  0  0  0  0
    0.2264   -1.0728    0.3858 C   0  0  0  0  0  0  0  0  0  0  0  0
   -0.4313   -2.3019   -0.1680 C   0  0  0  0  0  0  0  0  0  0  0  0
   -0.0830   -3.5538    0.0886 C   0  0  0  0  0  0  0  0  0  0  0  0
   -1.0159   -0.0592    1.2762 S   0  0  0  0  0  0  0  0  0  0  0  0
    1.2365   -1.9125    2.1087 H   0  0  0  0  0  0  0  0  0  0  0  0
    2.2235   -1.8570    0.6407 H   0  0  0  0  0  0  0  0  0  0  0  0
    1.8970   -0.3747    1.5541 H   0  0  0  0  0  0  0  0  0  0  0  0
   -1.2761   -2.1076   -0.8215 H   0  0  0  0  0  0  0  0  0  0  0  0
   -0.6262   -4.3806   -0.3505 H   0  0  0  0  0  0  0  0  0  0  0  0
    0.7476   -3.8050    0.7367 H   0  0  0  0  0  0  0  0  0  0  0  0
   -1.3540   -0.9991    2.1700 H   0  0  0  0  0  0  0  0  0  0  0  0
  1  2  3  0
  1  6  1  0
  2  3  1  0
  3  4  1  0
  3  5  1  0
  4  8  1  0
  4  9  1  0
  4 10  1  0
  5 11  1  0
  5 12  1  0
  5 13  1  0
  7 15  1  0
 14 15  1  0
 14 19  1  0
 14 20  1  0
 14 21  1  0
 15 16  1  0
 15 18  1  0
 16 17  2  3
 16 22  1  0
 17 23  1  0
 17 24  1  0
 18 25  1  0
M  RAD  1   3   2
M  END
>  <reaction>  (5) 
rxn_1332

>  <mol_properties>  (5) 
{"1": {"label": "*4", "atom_type": "Ct"}, "2": {"label": "*3", "atom_type": "Cs"}, "6": {"label": "*2", "atom_type": "H0"}, "14": {"label": "*1", "atom_type": "Cs"}, "17": {"label": "*0", "atom_type": "S2s"}}

>  <type>  (5) 
unop_1

>  <geom_source>  (5) 
Heuristics

$$$$

     RDKit          3D

 25 23  0  0  0  0  0  0  0  0999 V2000
   -0.0520    1.4476   -3.1594 C   0  0  0  0  0  0  0  0  0  0  0  0
   -0.0520    1.4476   -1.9613 C   0  0  0  0  0  0  0  0  0  0  0  0
   -0.0520    1.4715   -0.4975 C   0  0  0  0  0  3  0  0  0  0  0  0
   -1.3181    2.1480    0.0368 C   0  0  0  0  0  0  0  0  0  0  0  0
    1.2141    2.1479    0.0368 C   0  0  0  0  0  0  0  0  0  0  0  0
   -0.0520    1.4476   -4.2227 H   0  0  0  0  0  0  0  0  0  0  0  0
   -0.0520    0.2229   -0.0896 H   0  0  0  0  0  0  0  0  0  0  0  0
   -2.2152    1.6487   -0.3291 H   0  0  0  0  0  0  0  0  0  0  0  0
   -1.3555    3.1915   -0.2807 H   0  0  0  0  0  0  0  0  0  0  0  0
   -1.3255    2.1200    1.1279 H   0  0  0  0  0  0  0  0  0  0  0  0
    1.2515    3.1915   -0.2807 H   0  0  0  0  0  0  0  0  0  0  0  0
    2.1111    1.6486   -0.3291 H   0  0  0  0  0  0  0  0  0  0  0  0
    1.2214    2.1199    1.1279 H   0  0  0  0  0  0  0  0  0  0  0  0
    0.6663   -1.8821   -0.7111 C   0  0  0  0  0  0  0  0  0  0  0  0
   -0.0521   -1.0253    0.3181 C   0  0  0  0  0  0  0  0  0  0  0  0
   -1.2838   -1.6367    0.9172 C   0  0  0  0  0  0  0  0  0  0  0  0
   -1.7261   -2.8665    0.7018 C   0  0  0  0  0  0  0  0  0  0  0  0
    1.0697   -0.4654    1.6568 S   0  0  0  0  0  0  0  0  0  0  0  0
    1.0266   -2.8113   -0.2657 H   0  0  0  0  0  0  0  0  0  0  0  0
   -0.0045   -2.1348   -1.5353 H   0  0  0  0  0  0  0  0  0  0  0  0
    1.5258   -1.3482   -1.1135 H   0  0  0  0  0  0  0  0  0  0  0  0
   -1.8266   -0.9872    1.5969 H   0  0  0  0  0  0  0  0  0  0  0  0
   -2.6231   -3.2256    1.1896 H   0  0  0  0  0  0  0  0  0  0  0  0
   -1.2213   -3.5579    0.0383 H   0  0  0  0  0  0  0  0  0  0  0  0
    1.2269   -1.6691    2.2250 H   0  0  0  0  0  0  0  0  0  0  0  0
  1  2  3  0
  1  6  1  0
  2  3  1  0
  3  4  1  0
  3  5  1  0
  4  8  1  0
  4  9  1  0
  4 10  1  0
  5 11  1  0
  5 12  1  0
  5 13  1  0
  7 15  1  0
 14 15  1  0
 14 19  1  0
 14 20  1  0
 14 21  1  0
 15 16  1  0
 15 18  1  0
 16 17  2  3
 16 22  1  0
 17 23  1  0
 17 24  1  0
 18 25  1  0
M  RAD  1   3   2
M  END
>  <reaction>  (6) 
rxn_1332

>  <mol_properties>  (6) 
{"1": {"label": "*4", "atom_type": "Ct"}, "2": {"label": "*3", "atom_type": "Cs"}, "6": {"label": "*2", "atom_type": "H0"}, "14": {"label": "*1", "atom_type": "Cs"}, "17": {"label": "*0", "atom_type": "S2s"}}

>  <type>  (6) 
unop_2

>  <geom_source>  (6) 
Heuristics

$$$$

     RDKit          3D

 25 23  0  0  0  0  0  0  0  0999 V2000
    0.2336    1.4911   -2.9426 C   0  0  0  0  0  0  0  0  0  0  0  0
    0.2336    1.4911   -1.7445 C   0  0  0  0  0  0  0  0  0  0  0  0
    0.2336    1.5151   -0.2807 C   0  0  0  0  0  3  0  0  0  0  0  0
   -1.0325    2.1916    0.2537 C   0  0  0  0  0  0  0  0  0  0  0  0
    1.4997    2.1915    0.2537 C   0  0  0  0  0  0  0  0  0  0  0  0
    0.2336    1.4911   -4.0059 H   0  0  0  0  0  0  0  0  0  0  0  0
    0.2336    0.2664    0.1272 H   0  0  0  0  0  0  0  0  0  0  0  0
   -1.9295    1.6923   -0.1123 H   0  0  0  0  0  0  0  0  0  0  0  0
   -1.0698    3.2351   -0.0639 H   0  0  0  0  0  0  0  0  0  0  0  0
   -1.0398    2.1636    1.3447 H   0  0  0  0  0  0  0  0  0  0  0  0
    1.5371    3.2350   -0.0639 H   0  0  0  0  0  0  0  0  0  0  0  0
    2.3968    1.6922   -0.1123 H   0  0  0  0  0  0  0  0  0  0  0  0
    1.5071    2.1635    1.3447 H   0  0  0  0  0  0  0  0  0  0  0  0
    0.9520   -1.0658    1.8714 C   0  0  0  0  0  0  0  0  0  0  0  0
    0.2336   -0.9818    0.5349 C   0  0  0  0  0  0  0  0  0  0  0  0
    0.3441   -2.2004   -0.3326 C   0  0  0  0  0  0  0  0  0  0  0  0
    0.9161   -3.3465    0.0044 C   0  0  0  0  0  0  0  0  0  0  0  0
   -1.5315   -0.5212    0.7258 S   0  0  0  0  0  0  0  0  0  0  0  0
    0.5385   -1.8646    2.4898 H   0  0  0  0  0  0  0  0  0  0  0  0
    2.0161   -1.2633    1.7232 H   0  0  0  0  0  0  0  0  0  0  0  0
    0.8449   -0.1298    2.4174 H   0  0  0  0  0  0  0  0  0  0  0  0
   -0.1125   -2.1011   -1.3124 H   0  0  0  0  0  0  0  0  0  0  0  0
    0.9382   -4.1787   -0.6874 H   0  0  0  0  0  0  0  0  0  0  0  0
    1.3818   -3.5021    0.9698 H   0  0  0  0  0  0  0  0  0  0  0  0
   -1.9219   -1.6767    1.2816 H   0  0  0  0  0  0  0  0  0  0  0  0
  1  2  3  0
  1  6  1  0
  2  3  1  0
  3  4  1  0
  3  5  1  0
  4  8  1  0
  4  9  1  0
  4 10  1  0
  5 11  1  0
  5 12  1  0
  5 13  1  0
  7 15  1  0
 14 15  1  0
 14 19  1  0
 14 20  1  0
 14 21  1  0
 15 16  1  0
 15 18  1  0
 16 17  2  3
 16 22  1  0
 17 23  1  0
 17 24  1  0
 18 25  1  0
M  RAD  1   3   2
M  END
>  <reaction>  (7) 
rxn_1332

>  <mol_properties>  (7) 
{"1": {"label": "*4", "atom_type": "Ct"}, "2": {"label": "*3", "atom_type": "Cs"}, "6": {"label": "*2", "atom_type": "H0"}, "14": {"label": "*1", "atom_type": "Cs"}, "17": {"label": "*0", "atom_type": "S2s"}}

>  <type>  (7) 
unop_3

>  <geom_source>  (7) 
Heuristics

$$$$

     RDKit          3D

 25 23  0  0  0  0  0  0  0  0999 V2000
   -0.0566    1.4509   -3.1561 C   0  0  0  0  0  0  0  0  0  0  0  0
   -0.0566    1.4509   -1.9580 C   0  0  0  0  0  0  0  0  0  0  0  0
   -0.0566    1.4748   -0.4942 C   0  0  0  0  0  3  0  0  0  0  0  0
   -1.3227    2.1513    0.0402 C   0  0  0  0  0  0  0  0  0  0  0  0
    1.2095    2.1512    0.0402 C   0  0  0  0  0  0  0  0  0  0  0  0
   -0.0566    1.4509   -4.2194 H   0  0  0  0  0  0  0  0  0  0  0  0
   -0.0566    0.2261   -0.0863 H   0  0  0  0  0  0  0  0  0  0  0  0
   -2.2198    1.6520   -0.3258 H   0  0  0  0  0  0  0  0  0  0  0  0
   -1.3601    3.1948   -0.2774 H   0  0  0  0  0  0  0  0  0  0  0  0
   -1.3301    2.1233    1.1312 H   0  0  0  0  0  0  0  0  0  0  0  0
    1.2469    3.1947   -0.2774 H   0  0  0  0  0  0  0  0  0  0  0  0
    2.1066    1.6519   -0.3258 H   0  0  0  0  0  0  0  0  0  0  0  0
    1.2168    2.1232    1.1312 H   0  0  0  0  0  0  0  0  0  0  0  0
   -1.3010   -1.7155   -0.2078 C   0  0  0  0  0  0  0  0  0  0  0  0
   -0.0567   -1.0221    0.3214 C   0  0  0  0  0  0  0  0  0  0  0  0
   -0.2084   -0.3610    1.6593 C   0  0  0  0  0  0  0  0  0  0  0  0
   -1.2781   -0.4169    2.4383 C   0  0  0  0  0  0  0  0  0  0  0  0
    1.3987   -2.1379    0.3487 S   0  0  0  0  0  0  0  0  0  0  0  0
   -1.6075   -2.5293    0.4520 H   0  0  0  0  0  0  0  0  0  0  0  0
   -2.1297   -1.0083   -0.2873 H   0  0  0  0  0  0  0  0  0  0  0  0
   -1.1083   -2.1374   -1.1930 H   0  0  0  0  0  0  0  0  0  0  0  0
    0.6650    0.1906    1.9930 H   0  0  0  0  0  0  0  0  0  0  0  0
   -1.2917    0.0854    3.3969 H   0  0  0  0  0  0  0  0  0  0  0  0
   -2.1741   -0.9568    2.1576 H   0  0  0  0  0  0  0  0  0  0  0  0
    0.9611   -2.9200    1.3453 H   0  0  0  0  0  0  0  0  0  0  0  0
  1  2  3  0
  1  6  1  0
  2  3  1  0
  3  4  1  0
  3  5  1  0
  4  8  1  0
  4  9  1  0
  4 10  1  0
  5 11  1  0
  5 12  1  0
  5 13  1  0
  7 15  1  0
 14 15  1  0
 14 19  1  0
 14 20  1  0
 14 21  1  0
 15 16  1  0
 15 18  1  0
 16 17  2  3
 16 22  1  0
 17 23  1  0
 17 24  1  0
 18 25  1  0
M  RAD  1   3   2
M  END
>  <reaction>  (8) 
rxn_1332

>  <mol_properties>  (8) 
{"1": {"label": "*4", "atom_type": "Ct"}, "2": {"label": "*3", "atom_type": "Cs"}, "6": {"label": "*2", "atom_type": "H0"}, "14": {"label": "*1", "atom_type": "Cs"}, "17": {"label": "*0", "atom_type": "S2s"}}

>  <type>  (8) 
unop_4

>  <geom_source>  (8) 
Heuristics

$$$$

     RDKit          3D

 25 23  0  0  0  0  0  0  0  0999 V2000
    0.0421    1.5836   -2.8335 C   0  0  0  0  0  0  0  0  0  0  0  0
    0.0421    1.5836   -1.6354 C   0  0  0  0  0  0  0  0  0  0  0  0
    0.0421    1.6075   -0.1716 C   0  0  0  0  0  3  0  0  0  0  0  0
   -1.2241    2.2840    0.3628 C   0  0  0  0  0  0  0  0  0  0  0  0
    1.3082    2.2840    0.3628 C   0  0  0  0  0  0  0  0  0  0  0  0
    0.0421    1.5836   -3.8968 H   0  0  0  0  0  0  0  0  0  0  0  0
    0.0420    0.3589    0.2363 H   0  0  0  0  0  0  0  0  0  0  0  0
   -2.1211    1.7847   -0.0032 H   0  0  0  0  0  0  0  0  0  0  0  0
   -1.2614    3.3275    0.0452 H   0  0  0  0  0  0  0  0  0  0  0  0
   -1.2314    2.2560    1.4538 H   0  0  0  0  0  0  0  0  0  0  0  0
    1.3456    3.3275    0.0452 H   0  0  0  0  0  0  0  0  0  0  0  0
    2.2052    1.7846   -0.0032 H   0  0  0  0  0  0  0  0  0  0  0  0
    1.3155    2.2560    1.4538 H   0  0  0  0  0  0  0  0  0  0  0  0
    0.0420   -0.9135    2.1635 C   0  0  0  0  0  0  0  0  0  0  0  0
    0.0420   -0.8893    0.6440 C   0  0  0  0  0  0  0  0  0  0  0  0
    1.1973   -1.5871   -0.0105 C   0  0  0  0  0  0  0  0  0  0  0  0
    2.1356   -2.2875    0.6085 C   0  0  0  0  0  0  0  0  0  0  0  0
   -1.5323   -1.5159   -0.0581 S   0  0  0  0  0  0  0  0  0  0  0  0
   -0.0237   -1.9361    2.5398 H   0  0  0  0  0  0  0  0  0  0  0  0
    0.9571   -0.4629    2.5543 H   0  0  0  0  0  0  0  0  0  0  0  0
   -0.8114   -0.3587    2.5502 H   0  0  0  0  0  0  0  0  0  0  0  0
    1.2235   -1.5014   -1.0924 H   0  0  0  0  0  0  0  0  0  0  0  0
    2.9282   -2.7672    0.0489 H   0  0  0  0  0  0  0  0  0  0  0  0
    2.1550   -2.4098    1.6845 H   0  0  0  0  0  0  0  0  0  0  0  0
   -1.3447   -2.7966    0.2897 H   0  0  0  0  0  0  0  0  0  0  0  0
  1  2  3  0
  1  6  1  0
  2  3  1  0
  3  4  1  0
  3  5  1  0
  4  8  1  0
  4  9  1  0
  4 10  1  0
  5 11  1  0
  5 12  1  0
  5 13  1  0
  7 15  1  0
 14 15  1  0
 14 19  1  0
 14 20  1  0
 14 21  1  0
 15 16  1  0
 15 18  1  0
 16 17  2  3
 16 22  1  0
 17 23  1  0
 17 24  1  0
 18 25  1  0
M  RAD  1   3   2
M  END
>  <reaction>  (9) 
rxn_1332

>  <mol_properties>  (9) 
{"1": {"label": "*4", "atom_type": "Ct"}, "2": {"label": "*3", "atom_type": "Cs"}, "6": {"label": "*2", "atom_type": "H0"}, "14": {"label": "*1", "atom_type": "Cs"}, "17": {"label": "*0", "atom_type": "S2s"}}

>  <type>  (9) 
unop_5

>  <geom_source>  (9) 
Heuristics

$$$$

     RDKit          3D

 25 23  0  0  0  0  0  0  0  0999 V2000
   -0.1392    1.4384   -3.1341 C   0  0  0  0  0  0  0  0  0  0  0  0
   -0.1392    1.4384   -1.9360 C   0  0  0  0  0  0  0  0  0  0  0  0
   -0.1392    1.4623   -0.4722 C   0  0  0  0  0  3  0  0  0  0  0  0
   -1.4053    2.1388    0.0622 C   0  0  0  0  0  0  0  0  0  0  0  0
    1.1269    2.1387    0.0622 C   0  0  0  0  0  0  0  0  0  0  0  0
   -0.1392    1.4384   -4.1974 H   0  0  0  0  0  0  0  0  0  0  0  0
   -0.1392    0.2136   -0.0643 H   0  0  0  0  0  0  0  0  0  0  0  0
   -2.3024    1.6395   -0.3037 H   0  0  0  0  0  0  0  0  0  0  0  0
   -1.4427    3.1823   -0.2553 H   0  0  0  0  0  0  0  0  0  0  0  0
   -1.4127    2.1108    1.1532 H   0  0  0  0  0  0  0  0  0  0  0  0
    1.1643    3.1822   -0.2553 H   0  0  0  0  0  0  0  0  0  0  0  0
    2.0240    1.6394   -0.3037 H   0  0  0  0  0  0  0  0  0  0  0  0
    1.1343    2.1107    1.1532 H   0  0  0  0  0  0  0  0  0  0  0  0
   -1.5761   -1.5049    0.4971 C   0  0  0  0  0  0  0  0  0  0  0  0
   -0.1392   -1.0346    0.3435 C   0  0  0  0  0  0  0  0  0  0  0  0
    0.4127   -0.2624    1.5050 C   0  0  0  0  0  0  0  0  0  0  0  0
   -0.1997   -0.0503    2.6601 C   0  0  0  0  0  0  0  0  0  0  0  0
    0.9983   -2.4108   -0.0760 S   0  0  0  0  0  0  0  0  0  0  0  0
   -1.6760   -2.1928    1.3387 H   0  0  0  0  0  0  0  0  0  0  0  0
   -2.2415   -0.6556    0.6680 H   0  0  0  0  0  0  0  0  0  0  0  0
   -1.9013   -2.0260   -0.4020 H   0  0  0  0  0  0  0  0  0  0  0  0
    1.4140    0.1284    1.3536 H   0  0  0  0  0  0  0  0  0  0  0  0
    0.2841    0.5122    3.4481 H   0  0  0  0  0  0  0  0  0  0  0  0
   -1.1961   -0.4214    2.8667 H   0  0  0  0  0  0  0  0  0  0  0  0
    0.9353   -3.0177    1.1174 H   0  0  0  0  0  0  0  0  0  0  0  0
  1  2  3  0
  1  6  1  0
  2  3  1  0
  3  4  1  0
  3  5  1  0
  4  8  1  0
  4  9  1  0
  4 10  1  0
  5 11  1  0
  5 12  1  0
  5 13  1  0
  7 15  1  0
 14 15  1  0
 14 19  1  0
 14 20  1  0
 14 21  1  0
 15 16  1  0
 15 18  1  0
 16 17  2  3
 16 22  1  0
 17 23  1  0
 17 24  1  0
 18 25  1  0
M  RAD  1   3   2
M  END
>  <reaction>  (10) 
rxn_1332

>  <mol_properties>  (10) 
{"1": {"label": "*4", "atom_type": "Ct"}, "2": {"label": "*3", "atom_type": "Cs"}, "6": {"label": "*2", "atom_type": "H0"}, "14": {"label": "*1", "atom_type": "Cs"}, "17": {"label": "*0", "atom_type": "S2s"}}

>  <type>  (10) 
unop_6

>  <geom_source>  (10) 
Heuristics

$$$$

     RDKit          3D

 25 23  0  0  0  0  0  0  0  0999 V2000
   -0.2085    1.4677   -3.0451 C   0  0  0  0  0  0  0  0  0  0  0  0
   -0.2085    1.4677   -1.8470 C   0  0  0  0  0  0  0  0  0  0  0  0
   -0.2085    1.4916   -0.3832 C   0  0  0  0  0  3  0  0  0  0  0  0
   -1.4746    2.1681    0.1511 C   0  0  0  0  0  0  0  0  0  0  0  0
    1.0576    2.1681    0.1511 C   0  0  0  0  0  0  0  0  0  0  0  0
   -0.2085    1.4677   -4.1084 H   0  0  0  0  0  0  0  0  0  0  0  0
   -0.2085    0.2430    0.0247 H   0  0  0  0  0  0  0  0  0  0  0  0
   -2.3717    1.6688   -0.2148 H   0  0  0  0  0  0  0  0  0  0  0  0
   -1.5120    3.2116   -0.1664 H   0  0  0  0  0  0  0  0  0  0  0  0
   -1.4819    2.1401    1.2422 H   0  0  0  0  0  0  0  0  0  0  0  0
    1.0950    3.2116   -0.1664 H   0  0  0  0  0  0  0  0  0  0  0  0
    1.9547    1.6687   -0.2148 H   0  0  0  0  0  0  0  0  0  0  0  0
    1.0650    2.1401    1.2422 H   0  0  0  0  0  0  0  0  0  0  0  0
   -1.4529   -1.2525    1.2690 C   0  0  0  0  0  0  0  0  0  0  0  0
   -0.2085   -1.0052    0.4324 C   0  0  0  0  0  0  0  0  0  0  0  0
    0.9421   -0.3767    1.1610 C   0  0  0  0  0  0  0  0  0  0  0  0
    0.9943   -0.1196    2.4593 C   0  0  0  0  0  0  0  0  0  0  0  0
    0.3621   -2.5231   -0.4247 S   0  0  0  0  0  0  0  0  0  0  0  0
   -1.2467   -1.9505    2.0824 H   0  0  0  0  0  0  0  0  0  0  0  0
   -1.8152   -0.3179    1.7031 H   0  0  0  0  0  0  0  0  0  0  0  0
   -2.2433   -1.6793    0.6535 H   0  0  0  0  0  0  0  0  0  0  0  0
    1.7981   -0.1403    0.5367 H   0  0  0  0  0  0  0  0  0  0  0  0
    1.8757    0.3280    2.9001 H   0  0  0  0  0  0  0  0  0  0  0  0
    0.1720   -0.3396    3.1290 H   0  0  0  0  0  0  0  0  0  0  0  0
    0.7801   -3.1614    0.6773 H   0  0  0  0  0  0  0  0  0  0  0  0
  1  2  3  0
  1  6  1  0
  2  3  1  0
  3  4  1  0
  3  5  1  0
  4  8  1  0
  4  9  1  0
  4 10  1  0
  5 11  1  0
  5 12  1  0
  5 13  1  0
  7 15  1  0
 14 15  1  0
 14 19  1  0
 14 20  1  0
 14 21  1  0
 15 16  1  0
 15 18  1  0
 16 17  2  3
 16 22  1  0
 17 23  1  0
 17 24  1  0
 18 25  1  0
M  RAD  1   3   2
M  END
>  <reaction>  (11) 
rxn_1332

>  <mol_properties>  (11) 
{"1": {"label": "*4", "atom_type": "Ct"}, "2": {"label": "*3", "atom_type": "Cs"}, "6": {"label": "*2", "atom_type": "H0"}, "14": {"label": "*1", "atom_type": "Cs"}, "17": {"label": "*0", "atom_type": "S2s"}}

>  <type>  (11) 
unop_7

>  <geom_source>  (11) 
Heuristics

$$$$

     RDKit          3D

 25 23  0  0  0  0  0  0  0  0999 V2000
    0.1221    1.3706   -3.1808 C   0  0  0  0  0  0  0  0  0  0  0  0
    0.1221    1.3706   -1.9827 C   0  0  0  0  0  0  0  0  0  0  0  0
    0.1221    1.3946   -0.5189 C   0  0  0  0  0  3  0  0  0  0  0  0
   -1.1440    2.0710    0.0154 C   0  0  0  0  0  0  0  0  0  0  0  0
    1.3882    2.0710    0.0154 C   0  0  0  0  0  0  0  0  0  0  0  0
    0.1221    1.3706   -4.2441 H   0  0  0  0  0  0  0  0  0  0  0  0
    0.1221    0.1459   -0.1110 H   0  0  0  0  0  0  0  0  0  0  0  0
   -2.0411    1.5717   -0.3505 H   0  0  0  0  0  0  0  0  0  0  0  0
   -1.1814    3.1145   -0.3021 H   0  0  0  0  0  0  0  0  0  0  0  0
   -1.1514    2.0430    1.1065 H   0  0  0  0  0  0  0  0  0  0  0  0
    1.4256    3.1145   -0.3021 H   0  0  0  0  0  0  0  0  0  0  0  0
    2.2852    1.5717   -0.3505 H   0  0  0  0  0  0  0  0  0  0  0  0
    1.3955    2.0430    1.1065 H   0  0  0  0  0  0  0  0  0  0  0  0
    1.5589   -1.5727    0.4504 C   0  0  0  0  0  0  0  0  0  0  0  0
    0.1220   -1.1023    0.2967 C   0  0  0  0  0  0  0  0  0  0  0  0
   -0.9018   -2.1915    0.1733 C   0  0  0  0  0  0  0  0  0  0  0  0
   -0.6728   -3.4913    0.2847 C   0  0  0  0  0  0  0  0  0  0  0  0
   -0.3724    0.0580    1.6283 S   0  0  0  0  0  0  0  0  0  0  0  0
    1.6857   -2.1547    1.3651 H   0  0  0  0  0  0  0  0  0  0  0  0
    1.8505   -2.1978   -0.3966 H   0  0  0  0  0  0  0  0  0  0  0  0
    2.2327   -0.7188    0.5004 H   0  0  0  0  0  0  0  0  0  0  0  0
   -1.9139   -1.8428   -0.0072 H   0  0  0  0  0  0  0  0  0  0  0  0
   -1.4804   -4.2058    0.1911 H   0  0  0  0  0  0  0  0  0  0  0  0
    0.3156   -3.8937    0.4697 H   0  0  0  0  0  0  0  0  0  0  0  0
   -0.3860   -0.8511    2.6130 H   0  0  0  0  0  0  0  0  0  0  0  0
  1  2  3  0
  1  6  1  0
  2  3  1  0
  3  4  1  0
  3  5  1  0
  4  8  1  0
  4  9  1  0
  4 10  1  0
  5 11  1  0
  5 12  1  0
  5 13  1  0
  7 15  1  0
 14 15  1  0
 14 19  1  0
 14 20  1  0
 14 21  1  0
 15 16  1  0
 15 18  1  0
 16 17  2  3
 16 22  1  0
 17 23  1  0
 17 24  1  0
 18 25  1  0
M  RAD  1   3   2
M  END
>  <reaction>  (12) 
rxn_1332

>  <mol_properties>  (12) 
{"1": {"label": "*4", "atom_type": "Ct"}, "2": {"label": "*3", "atom_type": "Cs"}, "6": {"label": "*2", "atom_type": "H0"}, "14": {"label": "*1", "atom_type": "Cs"}, "17": {"label": "*0", "atom_type": "S2s"}}

>  <type>  (12) 
unop_8

>  <geom_source>  (12) 
Heuristics

$$$$

     RDKit          3D

 25 23  0  0  0  0  0  0  0  0999 V2000
   -0.0214    1.4812   -3.1362 C   0  0  0  0  0  0  0  0  0  0  0  0
   -0.0214    1.4812   -1.9381 C   0  0  0  0  0  0  0  0  0  0  0  0
   -0.0214    1.5052   -0.4743 C   0  0  0  0  0  3  0  0  0  0  0  0
   -1.2875    2.1817    0.0601 C   0  0  0  0  0  0  0  0  0  0  0  0
    1.2448    2.1816    0.0601 C   0  0  0  0  0  0  0  0  0  0  0  0
   -0.0214    1.4812   -4.1995 H   0  0  0  0  0  0  0  0  0  0  0  0
   -0.0214    0.2565   -0.0664 H   0  0  0  0  0  0  0  0  0  0  0  0
   -2.1845    1.6823   -0.3059 H   0  0  0  0  0  0  0  0  0  0  0  0
   -1.3248    3.2252   -0.2575 H   0  0  0  0  0  0  0  0  0  0  0  0
   -1.2948    2.1536    1.1511 H   0  0  0  0  0  0  0  0  0  0  0  0
    1.2821    3.2251   -0.2575 H   0  0  0  0  0  0  0  0  0  0  0  0
    2.1418    1.6823   -0.3059 H   0  0  0  0  0  0  0  0  0  0  0  0
    1.2521    2.1536    1.1511 H   0  0  0  0  0  0  0  0  0  0  0  0
   -0.7398   -1.8484   -0.6878 C   0  0  0  0  0  0  0  0  0  0  0  0
   -0.0214   -0.9917    0.3413 C   0  0  0  0  0  0  0  0  0  0  0  0
   -0.8082   -0.6778    1.5792 C   0  0  0  0  0  0  0  0  0  0  0  0
   -2.0055   -1.1559    1.8827 C   0  0  0  0  0  0  0  0  0  0  0  0
    1.6075   -1.6926    0.8096 S   0  0  0  0  0  0  0  0  0  0  0  0
   -0.9852   -2.8302   -0.2788 H   0  0  0  0  0  0  0  0  0  0  0  0
   -1.6679   -1.3682   -1.0061 H   0  0  0  0  0  0  0  0  0  0  0  0
   -0.1082   -1.9980   -1.5621 H   0  0  0  0  0  0  0  0  0  0  0  0
   -0.3111   -0.0073    2.2733 H   0  0  0  0  0  0  0  0  0  0  0  0
   -2.4934   -0.8803    2.8087 H   0  0  0  0  0  0  0  0  0  0  0  0
   -2.5441   -1.8318    1.2298 H   0  0  0  0  0  0  0  0  0  0  0  0
    1.1225   -2.7461    1.4815 H   0  0  0  0  0  0  0  0  0  0  0  0
  1  2  3  0
  1  6  1  0
  2  3  1  0
  3  4  1  0
  3  5  1  0
  4  8  1  0
  4  9  1  0
  4 10  1  0
  5 11  1  0
  5 12  1  0
  5 13  1  0
  7 15  1  0
 14 15  1  0
 14 19  1  0
 14 20  1  0
 14 21  1  0
 15 16  1  0
 15 18  1  0
 16 17  2  3
 16 22  1  0
 17 23  1  0
 17 24  1  0
 18 25  1  0
M  RAD  1   3   2
M  END
>  <reaction>  (13) 
rxn_1332

>  <mol_properties>  (13) 
{"1": {"label": "*4", "atom_type": "Ct"}, "2": {"label": "*3", "atom_type": "Cs"}, "6": {"label": "*2", "atom_type": "H0"}, "14": {"label": "*1", "atom_type": "Cs"}, "17": {"label": "*0", "atom_type": "S2s"}}

>  <type>  (13) 
unop_9

>  <geom_source>  (13) 
Heuristics

$$$$

     RDKit          3D

 25 23  0  0  0  0  0  0  0  0999 V2000
    0.0084    1.3942   -3.1952 C   0  0  0  0  0  0  0  0  0  0  0  0
    0.0084    1.3942   -1.9971 C   0  0  0  0  0  0  0  0  0  0  0  0
    0.0084    1.4181   -0.5333 C   0  0  0  0  0  3  0  0  0  0  0  0
   -1.2577    2.0946    0.0010 C   0  0  0  0  0  0  0  0  0  0  0  0
    1.2746    2.0946    0.0010 C   0  0  0  0  0  0  0  0  0  0  0  0
    0.0084    1.3942   -4.2585 H   0  0  0  0  0  0  0  0  0  0  0  0
    0.0084    0.1695   -0.1254 H   0  0  0  0  0  0  0  0  0  0  0  0
   -2.1547    1.5953   -0.3649 H   0  0  0  0  0  0  0  0  0  0  0  0
   -1.2950    3.1381   -0.3165 H   0  0  0  0  0  0  0  0  0  0  0  0
   -1.2650    2.0666    1.0921 H   0  0  0  0  0  0  0  0  0  0  0  0
    1.3119    3.1381   -0.3165 H   0  0  0  0  0  0  0  0  0  0  0  0
    2.1716    1.5952   -0.3649 H   0  0  0  0  0  0  0  0  0  0  0  0
    1.2819    2.0666    1.0921 H   0  0  0  0  0  0  0  0  0  0  0  0
    1.2527   -1.7722   -0.2470 C   0  0  0  0  0  0  0  0  0  0  0  0
    0.0084   -1.0787    0.2823 C   0  0  0  0  0  0  0  0  0  0  0  0
   -1.1652   -1.9752    0.5449 C   0  0  0  0  0  0  0  0  0  0  0  0
   -1.1720   -3.2963    0.4506 C   0  0  0  0  0  0  0  0  0  0  0  0
    0.3591   -0.0721    1.7748 S   0  0  0  0  0  0  0  0  0  0  0  0
    1.6346   -2.4974    0.4740 H   0  0  0  0  0  0  0  0  0  0  0  0
    1.0316   -2.2988   -1.1781 H   0  0  0  0  0  0  0  0  0  0  0  0
    2.0390   -1.0435   -0.4379 H   0  0  0  0  0  0  0  0  0  0  0  0
   -2.0686   -1.4588    0.8543 H   0  0  0  0  0  0  0  0  0  0  0  0
   -2.0677   -3.8625    0.6715 H   0  0  0  0  0  0  0  0  0  0  0  0
   -0.2983   -3.8623    0.1518 H   0  0  0  0  0  0  0  0  0  0  0  0
    0.5815   -1.1071    2.5969 H   0  0  0  0  0  0  0  0  0  0  0  0
  1  2  3  0
  1  6  1  0
  2  3  1  0
  3  4  1  0
  3  5  1  0
  4  8  1  0
  4  9  1  0
  4 10  1  0
  5 11  1  0
  5 12  1  0
  5 13  1  0
  7 15  1  0
 14 15  1  0
 14 19  1  0
 14 20  1  0
 14 21  1  0
 15 16  1  0
 15 18  1  0
 16 17  2  3
 16 22  1  0
 17 23  1  0
 17 24  1  0
 18 25  1  0
M  RAD  1   3   2
M  END
>  <reaction>  (14) 
rxn_1332

>  <mol_properties>  (14) 
{"1": {"label": "*4", "atom_type": "Ct"}, "2": {"label": "*3", "atom_type": "Cs"}, "6": {"label": "*2", "atom_type": "H0"}, "14": {"label": "*1", "atom_type": "Cs"}, "17": {"label": "*0", "atom_type": "S2s"}}

>  <type>  (14) 
unop_10

>  <geom_source>  (14) 
Heuristics

$$$$

     RDKit          3D

 25 23  0  0  0  0  0  0  0  0999 V2000
   -0.1753    1.5410   -2.9081 C   0  0  0  0  0  0  0  0  0  0  0  0
   -0.1753    1.5410   -1.7100 C   0  0  0  0  0  0  0  0  0  0  0  0
   -0.1753    1.5650   -0.2462 C   0  0  0  0  0  3  0  0  0  0  0  0
   -1.4414    2.2415    0.2881 C   0  0  0  0  0  0  0  0  0  0  0  0
    1.0908    2.2414    0.2881 C   0  0  0  0  0  0  0  0  0  0  0  0
   -0.1753    1.5410   -3.9714 H   0  0  0  0  0  0  0  0  0  0  0  0
   -0.1753    0.3163    0.1616 H   0  0  0  0  0  0  0  0  0  0  0  0
   -2.3385    1.7421   -0.0778 H   0  0  0  0  0  0  0  0  0  0  0  0
   -1.4788    3.2850   -0.0294 H   0  0  0  0  0  0  0  0  0  0  0  0
   -1.4488    2.2134    1.3792 H   0  0  0  0  0  0  0  0  0  0  0  0
    1.1282    3.2849   -0.0294 H   0  0  0  0  0  0  0  0  0  0  0  0
    1.9878    1.7421   -0.0778 H   0  0  0  0  0  0  0  0  0  0  0  0
    1.0981    2.2134    1.3792 H   0  0  0  0  0  0  0  0  0  0  0  0
   -0.8938   -1.0159    1.9059 C   0  0  0  0  0  0  0  0  0  0  0  0
   -0.1754   -0.9319    0.5694 C   0  0  0  0  0  0  0  0  0  0  0  0
    1.3147   -0.7793    0.6484 C   0  0  0  0  0  0  0  0  0  0  0  0
    2.0429   -0.8116    1.7543 C   0  0  0  0  0  0  0  0  0  0  0  0
   -0.5916   -2.3399   -0.5297 S   0  0  0  0  0  0  0  0  0  0  0  0
   -0.5714   -1.8927    2.4704 H   0  0  0  0  0  0  0  0  0  0  0  0
   -0.6899   -0.1271    2.5074 H   0  0  0  0  0  0  0  0  0  0  0  0
   -1.9691   -1.0928    1.7526 H   0  0  0  0  0  0  0  0  0  0  0  0
    1.8076   -0.6490   -0.3099 H   0  0  0  0  0  0  0  0  0  0  0  0
    3.1190   -0.7030    1.7120 H   0  0  0  0  0  0  0  0  0  0  0  0
    1.6041   -0.9441    2.7356 H   0  0  0  0  0  0  0  0  0  0  0  0
    0.0587   -3.2728    0.1798 H   0  0  0  0  0  0  0  0  0  0  0  0
  1  2  3  0
  1  6  1  0
  2  3  1  0
  3  4  1  0
  3  5  1  0
  4  8  1  0
  4  9  1  0
  4 10  1  0
  5 11  1  0
  5 12  1  0
  5 13  1  0
  7 15  1  0
 14 15  1  0
 14 19  1  0
 14 20  1  0
 14 21  1  0
 15 16  1  0
 15 18  1  0
 16 17  2  3
 16 22  1  0
 17 23  1  0
 17 24  1  0
 18 25  1  0
M  RAD  1   3   2
M  END
>  <reaction>  (15) 
rxn_1332

>  <mol_properties>  (15) 
{"1": {"label": "*4", "atom_type": "Ct"}, "2": {"label": "*3", "atom_type": "Cs"}, "6": {"label": "*2", "atom_type": "H0"}, "14": {"label": "*1", "atom_type": "Cs"}, "17": {"label": "*0", "atom_type": "S2s"}}

>  <type>  (15) 
unop_11

>  <geom_source>  (15) 
Heuristics

$$$$

     RDKit          3D

 25 23  0  0  0  0  0  0  0  0999 V2000
   -0.0420    1.4876   -3.1274 C   0  0  0  0  0  0  0  0  0  0  0  0
   -0.0420    1.4876   -1.9294 C   0  0  0  0  0  0  0  0  0  0  0  0
   -0.0420    1.5115   -0.4656 C   0  0  0  0  0  3  0  0  0  0  0  0
   -1.3081    2.1880    0.0688 C   0  0  0  0  0  0  0  0  0  0  0  0
    1.2241    2.1879    0.0688 C   0  0  0  0  0  0  0  0  0  0  0  0
   -0.0420    1.4876   -4.1908 H   0  0  0  0  0  0  0  0  0  0  0  0
   -0.0420    0.2629   -0.0577 H   0  0  0  0  0  0  0  0  0  0  0  0
   -2.2052    1.6887   -0.2971 H   0  0  0  0  0  0  0  0  0  0  0  0
   -1.3455    3.2315   -0.2487 H   0  0  0  0  0  0  0  0  0  0  0  0
   -1.3155    2.1600    1.1599 H   0  0  0  0  0  0  0  0  0  0  0  0
    1.2615    3.2315   -0.2487 H   0  0  0  0  0  0  0  0  0  0  0  0
    2.1212    1.6886   -0.2971 H   0  0  0  0  0  0  0  0  0  0  0  0
    1.2315    2.1599    1.1599 H   0  0  0  0  0  0  0  0  0  0  0  0
   -0.0421   -1.9019   -0.8621 C   0  0  0  0  0  0  0  0  0  0  0  0
   -0.0420   -0.9853    0.3501 C   0  0  0  0  0  0  0  0  0  0  0  0
   -1.1973   -1.1621    1.2903 C   0  0  0  0  0  0  0  0  0  0  0  0
   -2.1357   -2.0928    1.2041 C   0  0  0  0  0  0  0  0  0  0  0  0
    1.5322   -1.0766    1.2867 S   0  0  0  0  0  0  0  0  0  0  0  0
    0.0237   -2.9494   -0.5622 H   0  0  0  0  0  0  0  0  0  0  0  0
   -0.9572   -1.7688   -1.4436 H   0  0  0  0  0  0  0  0  0  0  0  0
    0.8113   -1.6823   -1.5018 H   0  0  0  0  0  0  0  0  0  0  0  0
   -1.2235   -0.4543    2.1130 H   0  0  0  0  0  0  0  0  0  0  0  0
   -2.9283   -2.1497    1.9390 H   0  0  0  0  0  0  0  0  0  0  0  0
   -2.1551   -2.8268    0.4078 H   0  0  0  0  0  0  0  0  0  0  0  0
    1.3447   -2.3157    1.7620 H   0  0  0  0  0  0  0  0  0  0  0  0
  1  2  3  0
  1  6  1  0
  2  3  1  0
  3  4  1  0
  3  5  1  0
  4  8  1  0
  4  9  1  0
  4 10  1  0
  5 11  1  0
  5 12  1  0
  5 13  1  0
  7 15  1  0
 14 15  1  0
 14 19  1  0
 14 20  1  0
 14 21  1  0
 15 16  1  0
 15 18  1  0
 16 17  2  3
 16 22  1  0
 17 23  1  0
 17 24  1  0
 18 25  1  0
M  RAD  1   3   2
M  END
>  <reaction>  (16) 
rxn_1332

>  <mol_properties>  (16) 
{"1": {"label": "*4", "atom_type": "Ct"}, "2": {"label": "*3", "atom_type": "Cs"}, "6": {"label": "*2", "atom_type": "H0"}, "14": {"label": "*1", "atom_type": "Cs"}, "17": {"label": "*0", "atom_type": "S2s"}}

>  <type>  (16) 
unop_12

>  <geom_source>  (16) 
Heuristics

$$$$

     RDKit          3D

 25 23  0  0  0  0  0  0  0  0999 V2000
   -1.5228   -1.6078   -1.0788 S   0  0  0  0  0  0  0  0  0  0  0  0
   -1.1954    0.0370   -0.3608 C   0  0  0  0  0  0  0  0  0  0  0  0
   -2.0450    1.0979   -1.0585 C   0  0  0  0  0  0  0  0  0  0  0  0
    2.0274   -0.7070   -1.4436 C   0  0  0  0  0  0  0  0  0  0  0  0
    1.0663   -0.8060    0.8910 C   0  0  0  0  0  0  0  0  0  0  0  0
    1.3839    0.0867   -0.3076 C   0  0  0  0  0  3  0  0  0  0  0  0
   -1.4295    0.0291    1.1291 C   0  0  0  0  0  0  0  0  0  0  0  0
   -2.6130   -0.2750    1.6742 C   0  0  0  0  0  0  0  0  0  0  0  0
    2.2492    1.2052    0.0960 C   0  0  0  0  0  0  0  0  0  0  0  0
    2.9579    2.1229    0.4266 C   0  0  0  0  0  0  0  0  0  0  0  0
    0.0834    0.3300   -0.5788 H   0  0  0  0  0  0  0  0  0  0  0  0
   -3.1274    0.8695   -0.9593 H   0  0  0  0  0  0  0  0  0  0  0  0
   -1.7861    1.1327   -2.1377 H   0  0  0  0  0  0  0  0  0  0  0  0
   -1.8420    2.0973   -0.6184 H   0  0  0  0  0  0  0  0  0  0  0  0
    2.2111   -0.0417   -2.3139 H   0  0  0  0  0  0  0  0  0  0  0  0
    2.9920   -1.1524   -1.1165 H   0  0  0  0  0  0  0  0  0  0  0  0
    1.3452   -1.5205   -1.7692 H   0  0  0  0  0  0  0  0  0  0  0  0
    0.5653   -0.2111    1.6842 H   0  0  0  0  0  0  0  0  0  0  0  0
    0.3769   -1.6201    0.5831 H   0  0  0  0  0  0  0  0  0  0  0  0
    1.9951   -1.2550    1.3055 H   0  0  0  0  0  0  0  0  0  0  0  0
   -0.5991    0.2761    1.7833 H   0  0  0  0  0  0  0  0  0  0  0  0
   -2.7305   -0.2686    2.7529 H   0  0  0  0  0  0  0  0  0  0  0  0
   -3.4663   -0.5352    1.0559 H   0  0  0  0  0  0  0  0  0  0  0  0
   -0.4769   -2.2122   -0.3553 H   0  0  0  0  0  0  0  0  0  0  0  0
    3.5801    2.9282    0.7168 H   0  0  0  0  0  0  0  0  0  0  0  0
  1  2  1  0
  1 24  1  0
  2  3  1  0
  2  7  1  0
  2 11  1  0
  3 12  1  0
  3 13  1  0
  3 14  1  0
  4  6  1  0
  4 15  1  0
  4 16  1  0
  4 17  1  0
  5  6  1  0
  5 18  1  0
  5 19  1  0
  5 20  1  0
  6  9  1  0
  7  8  2  3
  7 21  1  0
  8 22  1  0
  8 23  1  0
  9 10  3  0
 10 25  1  0
M  RAD  1   6   2
M  END
>  <reaction>  (17) 
rxn_1332

>  <mol_properties>  (17) 
{"1": {"label": "*4", "atom_type": "Ct"}, "2": {"label": "*3", "atom_type": "Cs"}, "6": {"label": "*2", "atom_type": "H0"}, "14": {"label": "*1", "atom_type": "Cs"}, "17": {"label": "*0", "atom_type": "S2s"}}

>  <type>  (17) 
unop_13

>  <geom_source>  (17) 
AutoTST

$$$$
