
     RDKit          3D

  9  8  0  0  0  0  0  0  0  0999 V2000
    1.1303   -0.2933   -0.7510 C   0  0  0  0  0  0  0  0  0  0  0  0
    0.2866    0.4560   -0.0588 C   0  0  0  0  0  0  0  0  0  0  0  0
   -0.9719   -0.0331    0.5823 C   0  0  0  0  0  0  0  0  0  0  0  0
    2.0274    0.1230   -1.1916 H   0  0  0  0  0  0  0  0  0  0  0  0
    0.9532   -1.3530   -0.9023 H   0  0  0  0  0  0  0  0  0  0  0  0
    0.5065    1.5132    0.0659 H   0  0  0  0  0  0  0  0  0  0  0  0
   -0.9526    0.1426    1.6610 H   0  0  0  0  0  0  0  0  0  0  0  0
   -1.1182   -1.1002    0.4106 H   0  0  0  0  0  0  0  0  0  0  0  0
   -1.8412    0.5010    0.1901 H   0  0  0  0  0  0  0  0  0  0  0  0
  1  2  2  3
  1  4  1  0
  1  5  1  0
  2  3  1  0
  2  6  1  0
  3  7  1  0
  3  8  1  0
  3  9  1  0
M  END
>  <reaction>  (1) 
rxn_345

>  <mol_properties>  (1) 
{"1": {"label": "donator", "atom_type": "Cd"}, "5": {"label": "d_hydrogen", "atom_type": "H0"}}

>  <type>  (1) 
r1h

$$$$

     RDKit          3D

  1  0  0  0  0  0  0  0  0  0999 V2000
    0.0000    0.0000    0.0000 O   0  0  0  0  0 15  0  0  0  0  0  0
M  END
>  <reaction>  (2) 
rxn_345

>  <mol_properties>  (2) 
{"0": {"label": "acceptor", "atom_type": "O2s"}}

>  <type>  (2) 
r2

$$$$

     RDKit          3D

  2  1  0  0  0  0  0  0  0  0999 V2000
    0.0000    0.0000    0.4855 O   0  0  0  0  0  1  0  0  0  0  0  0
    0.0000    0.0000   -0.4855 H   0  0  0  0  0  0  0  0  0  0  0  0
  1  2  1  0
M  RAD  1   1   2
M  END
>  <reaction>  (3) 
rxn_345

>  <mol_properties>  (3) 
{"0": {"label": "a_hydrogen", "atom_type": "H0"}, "1": {"label": "acceptor", "atom_type": "O2s"}}

>  <type>  (3) 
r2h

$$$$

     RDKit          3D

 10  8  0  0  0  0  0  0  0  0999 V2000
    0.0000    0.2605   -1.5879 C   0  0  0  0  0  0  0  0  0  0  0  0
    0.0000    0.3562   -0.2804 C   0  0  0  0  0  3  0  0  0  0  0  0
    0.0000    1.4985    0.6603 C   0  0  0  0  0  0  0  0  0  0  0  0
    0.0000   -0.6959   -2.0955 H   0  0  0  0  0  0  0  0  0  0  0  0
    0.0000    1.1538   -2.2083 H   0  0  0  0  0  0  0  0  0  0  0  0
   -0.0000   -0.7794    0.3526 H   0  0  0  0  0  0  0  0  0  0  0  0
   -0.8814    1.4725    1.3036 H   0  0  0  0  0  0  0  0  0  0  0  0
    0.0000    2.4409    0.1061 H   0  0  0  0  0  0  0  0  0  0  0  0
    0.8814    1.4725    1.3036 H   0  0  0  0  0  0  0  0  0  0  0  0
   -0.0000   -1.8161    0.9609 O   0  0  0  0  0  1  0  0  0  0  0  0
  1  2  2  3
  1  4  1  0
  1  5  1  0
  2  3  1  0
  3  7  1  0
  3  8  1  0
  3  9  1  0
  6 10  1  0
M  RAD  2   2   2  10   2
M  END
>  <reaction>  (4) 
rxn_345

>  <mol_properties>  (4) 
{"0": {"label": "*4", "atom_type": "Cd"}, "1": {"label": "*3", "atom_type": "Cd"}, "5": {"label": "*2", "atom_type": "H0"}, "9": {"label": "*1", "atom_type": "O2s"}}

>  <type>  (4) 
ts

$$$$

     RDKit          3D

 10  8  0  0  0  0  0  0  0  0999 V2000
    0.0000    0.2835   -1.5580 C   0  0  0  0  0  0  0  0  0  0  0  0
    0.0000    0.2835   -0.2343 C   0  0  0  0  0  3  0  0  0  0  0  0
    0.0000    1.5056    0.6262 C   0  0  0  0  0  0  0  0  0  0  0  0
   -0.0000   -0.6393   -2.1245 H   0  0  0  0  0  0  0  0  0  0  0  0
    0.0000    1.2091   -2.1240 H   0  0  0  0  0  0  0  0  0  0  0  0
   -0.0000   -0.8597    0.3939 H   0  0  0  0  0  0  0  0  0  0  0  0
   -0.8777    1.5228    1.2775 H   0  0  0  0  0  0  0  0  0  0  0  0
    0.0000    2.4161    0.0256 H   0  0  0  0  0  0  0  0  0  0  0  0
    0.8777    1.5228    1.2775 H   0  0  0  0  0  0  0  0  0  0  0  0
   -0.0000   -1.8808    0.9551 O   0  0  0  0  0  1  0  0  0  0  0  0
  1  2  2  3
  1  4  1  0
  1  5  1  0
  2  3  1  0
  3  7  1  0
  3  8  1  0
  3  9  1  0
  6 10  1  0
M  RAD  2   2   2  10   2
M  END
>  <reaction>  (5) 
rxn_345

>  <mol_properties>  (5) 
{"0": {"label": "*4", "atom_type": "Cd"}, "1": {"label": "*3", "atom_type": "Cd"}, "5": {"label": "*2", "atom_type": "H0"}, "9": {"label": "*1", "atom_type": "O2s"}}

>  <type>  (5) 
unop_1

>  <geom_source>  (5) 
Heuristics

$$$$

     RDKit          3D

 10  8  0  0  0  0  0  0  0  0999 V2000
    0.2873    2.6245    0.0230 O   0  0  0  0  0 15  0  0  0  0  0  0
   -0.5295   -1.0165    0.7652 C   0  0  0  0  0  0  0  0  0  0  0  0
    0.5898    0.2344   -1.0485 C   0  0  0  0  0  0  0  0  0  0  0  0
   -0.0230    0.2416    0.1357 C   0  0  0  0  0  0  0  0  0  0  0  0
   -1.2867   -1.4928    0.1072 H   0  0  0  0  0  0  0  0  0  0  0  0
   -0.9998   -0.7725    1.7398 H   0  0  0  0  0  0  0  0  0  0  0  0
    0.3113   -1.7216    0.9356 H   0  0  0  0  0  0  0  0  0  0  0  0
    0.9442    1.1662   -1.4748 H   0  0  0  0  0  0  0  0  0  0  0  0
    0.7403   -0.6921   -1.5947 H   0  0  0  0  0  0  0  0  0  0  0  0
   -0.0340    1.4289    0.4115 H   0  0  0  0  0  0  0  0  0  0  0  0
  2  4  1  0
  2  5  1  0
  2  6  1  0
  2  7  1  0
  3  4  2  3
  3  8  1  0
  3  9  1  0
  4 10  1  0
M  END
>  <reaction>  (6) 
rxn_345

>  <mol_properties>  (6) 
{"0": {"label": "*4", "atom_type": "Cd"}, "1": {"label": "*3", "atom_type": "Cd"}, "5": {"label": "*2", "atom_type": "H0"}, "9": {"label": "*1", "atom_type": "O2s"}}

>  <type>  (6) 
unop_2

>  <geom_source>  (6) 
AutoTST

$$$$
