
     RDKit          3D

 12 11  0  0  0  0  0  0  0  0999 V2000
    2.1696    0.6854    1.1310 C   0  0  0  0  0  0  0  0  0  0  0  0
    1.2518    0.4145    0.4134 C   0  0  0  0  0  0  0  0  0  0  0  0
    0.1391    0.0443   -0.4683 C   0  0  0  0  0  0  0  0  0  0  0  0
   -0.2054   -1.4492   -0.3339 C   0  0  0  0  0  0  0  0  0  0  0  0
   -1.0375    0.8853   -0.2222 C   0  0  0  0  0  0  0  0  0  0  0  0
   -2.0160    1.5463   -0.0311 C   0  0  0  0  0  0  0  0  0  0  0  0
    2.9819    0.9356    1.7702 H   0  0  0  0  0  0  0  0  0  0  0  0
    0.4629    0.2285   -1.4981 H   0  0  0  0  0  0  0  0  0  0  0  0
   -0.5327   -1.6703    0.6812 H   0  0  0  0  0  0  0  0  0  0  0  0
    0.6727   -2.0535   -0.5593 H   0  0  0  0  0  0  0  0  0  0  0  0
   -1.0064   -1.7081   -1.0256 H   0  0  0  0  0  0  0  0  0  0  0  0
   -2.8802    2.1413    0.1426 H   0  0  0  0  0  0  0  0  0  0  0  0
  1  2  3  0
  1  7  1  0
  2  3  1  0
  3  4  1  0
  3  5  1  0
  3  8  1  0
  4  9  1  0
  4 10  1  0
  4 11  1  0
  5  6  3  0
  6 12  1  0
M  END
>  <reaction>  (1) 
rxn_1420

>  <mol_properties>  (1) 
{"2": {"label": "donator", "atom_type": "Cs"}, "7": {"label": "d_hydrogen", "atom_type": "H0"}}

>  <type>  (1) 
r1h

$$$$

     RDKit          3D

 12 11  0  0  0  0  0  0  0  0999 V2000
   -0.9951    0.1196   -0.8321 C   0  0  0  0  0  0  0  0  0  0  0  0
   -0.3760    0.2571    0.5231 C   0  0  0  0  0  3  0  0  0  0  0  0
    0.9330   -0.1537    0.7810 C   0  0  0  0  0  0  0  0  0  0  0  0
    1.5987   -0.1880    1.9734 C   0  0  0  0  0  0  0  0  0  0  0  0
   -1.4483    0.9449    1.7152 S   0  0  0  0  0  0  0  0  0  0  0  0
   -1.9164   -0.4696   -0.7936 H   0  0  0  0  0  0  0  0  0  0  0  0
   -1.2565    1.0958   -1.2506 H   0  0  0  0  0  0  0  0  0  0  0  0
   -0.3088   -0.3780   -1.5170 H   0  0  0  0  0  0  0  0  0  0  0  0
    1.4783   -0.4898   -0.0971 H   0  0  0  0  0  0  0  0  0  0  0  0
    2.6278   -0.5153    2.0142 H   0  0  0  0  0  0  0  0  0  0  0  0
    1.1316    0.0690    2.9151 H   0  0  0  0  0  0  0  0  0  0  0  0
   -0.5306    1.3052    2.6211 H   0  0  0  0  0  0  0  0  0  0  0  0
  1  2  1  0
  1  6  1  0
  1  7  1  0
  1  8  1  0
  2  3  1  0
  2  5  1  0
  3  4  2  3
  3  9  1  0
  4 10  1  0
  4 11  1  0
  5 12  1  0
M  RAD  1   2   2
M  END
>  <reaction>  (2) 
rxn_1420

>  <mol_properties>  (2) 
{"1": {"label": "acceptor", "atom_type": "Cs"}}

>  <type>  (2) 
r2

$$$$

     RDKit          3D

 13 12  0  0  0  0  0  0  0  0999 V2000
   -1.1828    0.8269   -0.1645 C   0  0  0  0  0  0  0  0  0  0  0  0
   -0.4827   -0.4584   -0.5736 C   0  0  1  0  0  0  0  0  0  0  0  0
   -0.9759   -1.7030    0.1030 C   0  0  0  0  0  0  0  0  0  0  0  0
   -2.0084   -1.7831    0.9287 C   0  0  0  0  0  0  0  0  0  0  0  0
   -0.4908   -0.7025   -2.3913 S   0  0  0  0  0  0  0  0  0  0  0  0
   -1.0941    0.9860    0.9125 H   0  0  0  0  0  0  0  0  0  0  0  0
   -0.7405    1.6784   -0.6793 H   0  0  0  0  0  0  0  0  0  0  0  0
   -2.2437    0.7943   -0.4195 H   0  0  0  0  0  0  0  0  0  0  0  0
    0.5870   -0.3637   -0.3637 H   0  0  0  0  0  0  0  0  0  0  0  0
   -0.4209   -2.6026   -0.1443 H   0  0  0  0  0  0  0  0  0  0  0  0
   -2.2982   -2.7315    1.3623 H   0  0  0  0  0  0  0  0  0  0  0  0
   -2.5999   -0.9190    1.2055 H   0  0  0  0  0  0  0  0  0  0  0  0
   -1.8040   -0.9489   -2.4971 H   0  0  0  0  0  0  0  0  0  0  0  0
  1  2  1  0
  1  6  1  0
  1  7  1  0
  1  8  1  0
  2  3  1  0
  2  5  1  0
  2  9  1  1
  3  4  2  3
  3 10  1  0
  4 11  1  0
  4 12  1  0
  5 13  1  0
M  END
>  <reaction>  (3) 
rxn_1420

>  <mol_properties>  (3) 
{"0": {"label": "a_hydrogen", "atom_type": "H0"}, "2": {"label": "acceptor", "atom_type": "Cs"}}

>  <type>  (3) 
r2h

$$$$

     RDKit          3D

 24 22  0  0  0  0  0  0  0  0999 V2000
   -0.8479   -1.3610   -2.4874 C   0  0  0  0  0  0  0  0  0  0  0  0
   -1.1340   -0.6900   -1.5326 C   0  0  0  0  0  0  0  0  0  0  0  0
   -1.4063    0.1416   -0.3965 C   0  0  0  0  0  3  0  0  0  0  0  0
   -1.8747    1.5551   -0.7026 C   0  0  0  0  0  0  0  0  0  0  0  0
   -2.0539   -0.5091    0.7043 C   0  0  0  0  0  0  0  0  0  0  0  0
   -2.5609   -1.0205    1.6653 C   0  0  0  0  0  0  0  0  0  0  0  0
   -0.6254   -1.9638   -3.3348 H   0  0  0  0  0  0  0  0  0  0  0  0
   -0.1652    0.3957    0.0881 H   0  0  0  0  0  0  0  0  0  0  0  0
   -2.8750    1.5481   -1.1392 H   0  0  0  0  0  0  0  0  0  0  0  0
   -1.1881    2.0279   -1.4052 H   0  0  0  0  0  0  0  0  0  0  0  0
   -1.9011    2.1400    0.2170 H   0  0  0  0  0  0  0  0  0  0  0  0
   -3.0248   -1.4802    2.5044 H   0  0  0  0  0  0  0  0  0  0  0  0
    1.4241   -0.8210    0.9916 C   0  0  0  0  0  0  0  0  0  0  0  0
    1.0761    0.5818    0.5617 C   0  0  1  0  0  0  0  0  0  0  0  0
    0.8913    1.6089    1.5875 C   0  0  0  0  0  0  0  0  0  0  0  0
    0.7679    1.3844    2.8966 C   0  0  0  0  0  0  0  0  0  0  0  0
    1.9630    1.2169   -0.8546 S   0  0  0  0  0  0  0  0  0  0  0  0
    2.4166   -0.8534    1.4473 H   0  0  0  0  0  0  0  0  0  0  0  0
    0.6925   -1.1901    1.7126 H   0  0  0  0  0  0  0  0  0  0  0  0
    1.4145   -1.4964    0.1358 H   0  0  0  0  0  0  0  0  0  0  0  0
    0.8038    2.6278    1.2214 H   0  0  0  0  0  0  0  0  0  0  0  0
    0.5846    2.2015    3.5815 H   0  0  0  0  0  0  0  0  0  0  0  0
    0.8451    0.3929    3.3241 H   0  0  0  0  0  0  0  0  0  0  0  0
    1.6492    0.2140   -1.6880 H   0  0  0  0  0  0  0  0  0  0  0  0
  1  2  3  0
  1  7  1  0
  2  3  1  0
  3  4  1  0
  3  5  1  0
  4  9  1  0
  4 10  1  0
  4 11  1  0
  5  6  3  0
  6 12  1  0
 14  8  1  6
 13 14  1  0
 13 18  1  0
 13 19  1  0
 13 20  1  0
 14 15  1  0
 14 17  1  0
 15 16  2  3
 15 21  1  0
 16 22  1  0
 16 23  1  0
 17 24  1  0
M  RAD  1   3   2
M  END
>  <reaction>  (4) 
rxn_1420

>  <mol_properties>  (4) 
{"1": {"label": "*4", "atom_type": "Ct"}, "2": {"label": "*3", "atom_type": "Cs"}, "7": {"label": "*2", "atom_type": "H0"}, "13": {"label": "*1", "atom_type": "Cs"}, "16": {"label": "*0", "atom_type": "S2s"}}

>  <type>  (4) 
ts

$$$$

     RDKit          3D

 24 22  0  0  0  0  0  0  0  0999 V2000
   -1.2573    0.3412   -3.1288 C   0  0  0  0  0  0  0  0  0  0  0  0
   -1.2573    0.3412   -1.9326 C   0  0  0  0  0  0  0  0  0  0  0  0
   -1.2573    0.3812   -0.4661 C   0  0  0  0  0  3  0  0  0  0  0  0
   -1.8953    1.6804    0.0559 C   0  0  0  0  0  0  0  0  0  0  0  0
   -1.9191   -0.8000    0.0987 C   0  0  0  0  0  0  0  0  0  0  0  0
   -2.4674   -1.7453    0.5852 C   0  0  0  0  0  0  0  0  0  0  0  0
   -1.2573    0.3412   -4.1923 H   0  0  0  0  0  0  0  0  0  0  0  0
   -0.0037    0.3540   -0.0729 H   0  0  0  0  0  0  0  0  0  0  0  0
   -2.9386    1.7377   -0.2518 H   0  0  0  0  0  0  0  0  0  0  0  0
   -1.3627    2.5419   -0.3457 H   0  0  0  0  0  0  0  0  0  0  0  0
   -1.8481    1.7049    1.1441 H   0  0  0  0  0  0  0  0  0  0  0  0
   -2.9548   -2.5857    1.0177 H   0  0  0  0  0  0  0  0  0  0  0  0
    1.5444    1.5850    1.1192 C   0  0  0  0  0  0  0  0  0  0  0  0
    1.2490    0.3268    0.3199 C   0  0  0  0  0  0  0  0  0  0  0  0
    2.4506   -0.3829   -0.2302 C   0  0  0  0  0  0  0  0  0  0  0  0
    3.7155   -0.0664    0.0021 C   0  0  0  0  0  0  0  0  0  0  0  0
    0.2095   -0.8596    1.2559 S   0  0  0  0  0  0  0  0  0  0  0  0
    2.1405    1.3567    2.0047 H   0  0  0  0  0  0  0  0  0  0  0  0
    2.0964    2.3051    0.5109 H   0  0  0  0  0  0  0  0  0  0  0  0
    0.6165    2.0488    1.4504 H   0  0  0  0  0  0  0  0  0  0  0  0
    2.2225   -1.2387   -0.8579 H   0  0  0  0  0  0  0  0  0  0  0  0
    4.5199   -0.6462   -0.4317 H   0  0  0  0  0  0  0  0  0  0  0  0
    3.9999    0.7733    0.6243 H   0  0  0  0  0  0  0  0  0  0  0  0
    1.1500   -1.2020    2.1473 H   0  0  0  0  0  0  0  0  0  0  0  0
  1  2  3  0
  1  7  1  0
  2  3  1  0
  3  4  1  0
  3  5  1  0
  4  9  1  0
  4 10  1  0
  4 11  1  0
  5  6  3  0
  6 12  1  0
  8 14  1  0
 13 14  1  0
 13 18  1  0
 13 19  1  0
 13 20  1  0
 14 15  1  0
 14 17  1  0
 15 16  2  3
 15 21  1  0
 16 22  1  0
 16 23  1  0
 17 24  1  0
M  RAD  1   3   2
M  END
>  <reaction>  (5) 
rxn_1420

>  <mol_properties>  (5) 
{"1": {"label": "*4", "atom_type": "Ct"}, "2": {"label": "*3", "atom_type": "Cs"}, "7": {"label": "*2", "atom_type": "H0"}, "13": {"label": "*1", "atom_type": "Cs"}, "16": {"label": "*0", "atom_type": "S2s"}}

>  <type>  (5) 
unop_1

>  <geom_source>  (5) 
Heuristics

$$$$

     RDKit          3D

 24 22  0  0  0  0  0  0  0  0999 V2000
   -1.3106    0.0794   -3.1847 C   0  0  0  0  0  0  0  0  0  0  0  0
   -1.3106    0.0794   -1.9885 C   0  0  0  0  0  0  0  0  0  0  0  0
   -1.3106    0.1194   -0.5219 C   0  0  0  0  0  3  0  0  0  0  0  0
   -1.9486    1.4186    0.0001 C   0  0  0  0  0  0  0  0  0  0  0  0
   -1.9724   -1.0618    0.0428 C   0  0  0  0  0  0  0  0  0  0  0  0
   -2.5207   -2.0071    0.5293 C   0  0  0  0  0  0  0  0  0  0  0  0
   -1.3106    0.0794   -4.2481 H   0  0  0  0  0  0  0  0  0  0  0  0
   -0.0570    0.0922   -0.1288 H   0  0  0  0  0  0  0  0  0  0  0  0
   -2.9919    1.4759   -0.3077 H   0  0  0  0  0  0  0  0  0  0  0  0
   -1.4160    2.2801   -0.4016 H   0  0  0  0  0  0  0  0  0  0  0  0
   -1.9014    1.4431    1.0883 H   0  0  0  0  0  0  0  0  0  0  0  0
   -3.0081   -2.8475    0.9618 H   0  0  0  0  0  0  0  0  0  0  0  0
    2.0608    0.7288   -0.7944 C   0  0  0  0  0  0  0  0  0  0  0  0
    1.1957    0.0650    0.2640 C   0  0  0  0  0  0  0  0  0  0  0  0
    1.7770   -1.1683    0.8893 C   0  0  0  0  0  0  0  0  0  0  0  0
    2.9900   -1.6537    0.6716 C   0  0  0  0  0  0  0  0  0  0  0  0
    0.6869    1.2389    1.5781 S   0  0  0  0  0  0  0  0  0  0  0  0
    3.0060    1.0723   -0.3700 H   0  0  0  0  0  0  0  0  0  0  0  0
    2.2826    0.0287   -1.6029 H   0  0  0  0  0  0  0  0  0  0  0  0
    1.5481    1.5931   -1.2138 H   0  0  0  0  0  0  0  0  0  0  0  0
    1.1200   -1.6725    1.5911 H   0  0  0  0  0  0  0  0  0  0  0  0
    3.3280   -2.5477    1.1794 H   0  0  0  0  0  0  0  0  0  0  0  0
    3.6880   -1.1884   -0.0136 H   0  0  0  0  0  0  0  0  0  0  0  0
    1.9018    1.3745    2.1276 H   0  0  0  0  0  0  0  0  0  0  0  0
  1  2  3  0
  1  7  1  0
  2  3  1  0
  3  4  1  0
  3  5  1  0
  4  9  1  0
  4 10  1  0
  4 11  1  0
  5  6  3  0
  6 12  1  0
  8 14  1  0
 13 14  1  0
 13 18  1  0
 13 19  1  0
 13 20  1  0
 14 15  1  0
 14 17  1  0
 15 16  2  3
 15 21  1  0
 16 22  1  0
 16 23  1  0
 17 24  1  0
M  RAD  1   3   2
M  END
>  <reaction>  (6) 
rxn_1420

>  <mol_properties>  (6) 
{"1": {"label": "*4", "atom_type": "Ct"}, "2": {"label": "*3", "atom_type": "Cs"}, "7": {"label": "*2", "atom_type": "H0"}, "13": {"label": "*1", "atom_type": "Cs"}, "16": {"label": "*0", "atom_type": "S2s"}}

>  <type>  (6) 
unop_2

>  <geom_source>  (6) 
Heuristics

$$$$

     RDKit          3D

 24 22  0  0  0  0  0  0  0  0999 V2000
   -1.3408    0.3542   -2.9879 C   0  0  0  0  0  0  0  0  0  0  0  0
   -1.3408    0.3542   -1.7917 C   0  0  0  0  0  0  0  0  0  0  0  0
   -1.3408    0.3943   -0.3252 C   0  0  0  0  0  3  0  0  0  0  0  0
   -1.9788    1.6935    0.1968 C   0  0  0  0  0  0  0  0  0  0  0  0
   -2.0026   -0.7869    0.2396 C   0  0  0  0  0  0  0  0  0  0  0  0
   -2.5509   -1.7322    0.7261 C   0  0  0  0  0  0  0  0  0  0  0  0
   -1.3408    0.3542   -4.0513 H   0  0  0  0  0  0  0  0  0  0  0  0
   -0.0872    0.3671    0.0680 H   0  0  0  0  0  0  0  0  0  0  0  0
   -3.0221    1.7508   -0.1109 H   0  0  0  0  0  0  0  0  0  0  0  0
   -1.4462    2.5550   -0.2048 H   0  0  0  0  0  0  0  0  0  0  0  0
   -1.9316    1.7180    1.2851 H   0  0  0  0  0  0  0  0  0  0  0  0
   -3.0383   -2.5726    1.1586 H   0  0  0  0  0  0  0  0  0  0  0  0
    1.2880    1.0911    1.7761 C   0  0  0  0  0  0  0  0  0  0  0  0
    1.1655    0.3398    0.4608 C   0  0  0  0  0  0  0  0  0  0  0  0
    2.3759    0.3897   -0.4237 C   0  0  0  0  0  0  0  0  0  0  0  0
    3.5429    0.9352   -0.1160 C   0  0  0  0  0  0  0  0  0  0  0  0
    0.6542   -1.4045    0.7052 S   0  0  0  0  0  0  0  0  0  0  0  0
    2.0817    0.6701    2.3961 H   0  0  0  0  0  0  0  0  0  0  0  0
    1.5157    2.1442    1.5965 H   0  0  0  0  0  0  0  0  0  0  0  0
    0.3562    1.0274    2.3358 H   0  0  0  0  0  0  0  0  0  0  0  0
    2.2505   -0.0899   -1.3895 H   0  0  0  0  0  0  0  0  0  0  0  0
    4.3666    0.9132   -0.8179 H   0  0  0  0  0  0  0  0  0  0  0  0
    3.7246    1.4217    0.8345 H   0  0  0  0  0  0  0  0  0  0  0  0
    1.8042   -1.8150    1.2579 H   0  0  0  0  0  0  0  0  0  0  0  0
  1  2  3  0
  1  7  1  0
  2  3  1  0
  3  4  1  0
  3  5  1  0
  4  9  1  0
  4 10  1  0
  4 11  1  0
  5  6  3  0
  6 12  1  0
  8 14  1  0
 13 14  1  0
 13 18  1  0
 13 19  1  0
 13 20  1  0
 14 15  1  0
 14 17  1  0
 15 16  2  3
 15 21  1  0
 16 22  1  0
 16 23  1  0
 17 24  1  0
M  RAD  1   3   2
M  END
>  <reaction>  (7) 
rxn_1420

>  <mol_properties>  (7) 
{"1": {"label": "*4", "atom_type": "Ct"}, "2": {"label": "*3", "atom_type": "Cs"}, "7": {"label": "*2", "atom_type": "H0"}, "13": {"label": "*1", "atom_type": "Cs"}, "16": {"label": "*0", "atom_type": "S2s"}}

>  <type>  (7) 
unop_3

>  <geom_source>  (7) 
Heuristics

$$$$

     RDKit          3D

 24 22  0  0  0  0  0  0  0  0999 V2000
   -1.3137    0.0752   -3.1814 C   0  0  0  0  0  0  0  0  0  0  0  0
   -1.3137    0.0752   -1.9852 C   0  0  0  0  0  0  0  0  0  0  0  0
   -1.3137    0.1153   -0.5187 C   0  0  0  0  0  3  0  0  0  0  0  0
   -1.9518    1.4145    0.0033 C   0  0  0  0  0  0  0  0  0  0  0  0
   -1.9756   -1.0659    0.0461 C   0  0  0  0  0  0  0  0  0  0  0  0
   -2.5238   -2.0112    0.5326 C   0  0  0  0  0  0  0  0  0  0  0  0
   -1.3137    0.0752   -4.2448 H   0  0  0  0  0  0  0  0  0  0  0  0
   -0.0601    0.0881   -0.1255 H   0  0  0  0  0  0  0  0  0  0  0  0
   -2.9950    1.4718   -0.3044 H   0  0  0  0  0  0  0  0  0  0  0  0
   -1.4192    2.2759   -0.3983 H   0  0  0  0  0  0  0  0  0  0  0  0
   -1.9046    1.4390    1.0916 H   0  0  0  0  0  0  0  0  0  0  0  0
   -3.0112   -2.8516    0.9651 H   0  0  0  0  0  0  0  0  0  0  0  0
    1.8413   -1.2180   -0.2359 C   0  0  0  0  0  0  0  0  0  0  0  0
    1.1925    0.0608    0.2673 C   0  0  0  0  0  0  0  0  0  0  0  0
    0.5441   -0.0345    1.6165 C   0  0  0  0  0  0  0  0  0  0  0  0
    0.5775   -1.0841    2.4238 C   0  0  0  0  0  0  0  0  0  0  0  0
    2.3522    1.4816    0.2417 S   0  0  0  0  0  0  0  0  0  0  0  0
    2.6536   -1.5313    0.4224 H   0  0  0  0  0  0  0  0  0  0  0  0
    1.1084   -2.0265   -0.2844 H   0  0  0  0  0  0  0  0  0  0  0  0
    2.2563   -1.0648   -1.2309 H   0  0  0  0  0  0  0  0  0  0  0  0
    0.0234    0.8640    1.9328 H   0  0  0  0  0  0  0  0  0  0  0  0
    0.0870   -1.0565    3.3882 H   0  0  0  0  0  0  0  0  0  0  0  0
    1.0864   -2.0034    2.1612 H   0  0  0  0  0  0  0  0  0  0  0  0
    3.1332    1.0472    1.2406 H   0  0  0  0  0  0  0  0  0  0  0  0
  1  2  3  0
  1  7  1  0
  2  3  1  0
  3  4  1  0
  3  5  1  0
  4  9  1  0
  4 10  1  0
  4 11  1  0
  5  6  3  0
  6 12  1  0
  8 14  1  0
 13 14  1  0
 13 18  1  0
 13 19  1  0
 13 20  1  0
 14 15  1  0
 14 17  1  0
 15 16  2  3
 15 21  1  0
 16 22  1  0
 16 23  1  0
 17 24  1  0
M  RAD  1   3   2
M  END
>  <reaction>  (8) 
rxn_1420

>  <mol_properties>  (8) 
{"1": {"label": "*4", "atom_type": "Ct"}, "2": {"label": "*3", "atom_type": "Cs"}, "7": {"label": "*2", "atom_type": "H0"}, "13": {"label": "*1", "atom_type": "Cs"}, "16": {"label": "*0", "atom_type": "S2s"}}

>  <type>  (8) 
unop_4

>  <geom_source>  (8) 
Heuristics

$$$$

     RDKit          3D

 24 22  0  0  0  0  0  0  0  0999 V2000
   -1.4318    0.1798   -2.8795 C   0  0  0  0  0  0  0  0  0  0  0  0
   -1.4318    0.1798   -1.6833 C   0  0  0  0  0  0  0  0  0  0  0  0
   -1.4318    0.2199   -0.2168 C   0  0  0  0  0  3  0  0  0  0  0  0
   -2.0698    1.5191    0.3052 C   0  0  0  0  0  0  0  0  0  0  0  0
   -2.0936   -0.9613    0.3480 C   0  0  0  0  0  0  0  0  0  0  0  0
   -2.6418   -1.9066    0.8345 C   0  0  0  0  0  0  0  0  0  0  0  0
   -1.4318    0.1798   -3.9429 H   0  0  0  0  0  0  0  0  0  0  0  0
   -0.1782    0.1927    0.1764 H   0  0  0  0  0  0  0  0  0  0  0  0
   -3.1131    1.5764   -0.0025 H   0  0  0  0  0  0  0  0  0  0  0  0
   -1.5372    2.3806   -0.0964 H   0  0  0  0  0  0  0  0  0  0  0  0
   -2.0226    1.5436    1.3935 H   0  0  0  0  0  0  0  0  0  0  0  0
   -3.1293   -2.7470    1.2670 H   0  0  0  0  0  0  0  0  0  0  0  0
    1.1179    0.2056    2.0878 C   0  0  0  0  0  0  0  0  0  0  0  0
    1.0745    0.1654    0.5692 C   0  0  0  0  0  0  0  0  0  0  0  0
    1.7986    1.2808   -0.1248 C   0  0  0  0  0  0  0  0  0  0  0  0
    2.5348    2.2136    0.4601 C   0  0  0  0  0  0  0  0  0  0  0  0
    1.6442   -1.4456   -0.0970 S   0  0  0  0  0  0  0  0  0  0  0  0
    2.1426    0.1188    2.4536 H   0  0  0  0  0  0  0  0  0  0  0  0
    0.7001    1.1443    2.4587 H   0  0  0  0  0  0  0  0  0  0  0  0
    0.5424   -0.6197    2.5041 H   0  0  0  0  0  0  0  0  0  0  0  0
    1.7001    1.2804   -1.2059 H   0  0  0  0  0  0  0  0  0  0  0  0
    3.0312    2.9758   -0.1266 H   0  0  0  0  0  0  0  0  0  0  0  0
    2.6713    2.2582    1.5336 H   0  0  0  0  0  0  0  0  0  0  0  0
    2.9344   -1.2881    0.2304 H   0  0  0  0  0  0  0  0  0  0  0  0
  1  2  3  0
  1  7  1  0
  2  3  1  0
  3  4  1  0
  3  5  1  0
  4  9  1  0
  4 10  1  0
  4 11  1  0
  5  6  3  0
  6 12  1  0
  8 14  1  0
 13 14  1  0
 13 18  1  0
 13 19  1  0
 13 20  1  0
 14 15  1  0
 14 17  1  0
 15 16  2  3
 15 21  1  0
 16 22  1  0
 16 23  1  0
 17 24  1  0
M  RAD  1   3   2
M  END
>  <reaction>  (9) 
rxn_1420

>  <mol_properties>  (9) 
{"1": {"label": "*4", "atom_type": "Ct"}, "2": {"label": "*3", "atom_type": "Cs"}, "7": {"label": "*2", "atom_type": "H0"}, "13": {"label": "*1", "atom_type": "Cs"}, "16": {"label": "*0", "atom_type": "S2s"}}

>  <type>  (9) 
unop_5

>  <geom_source>  (9) 
Heuristics

$$$$

     RDKit          3D

 24 22  0  0  0  0  0  0  0  0999 V2000
   -1.3041   -0.0021   -3.1587 C   0  0  0  0  0  0  0  0  0  0  0  0
   -1.3041   -0.0021   -1.9625 C   0  0  0  0  0  0  0  0  0  0  0  0
   -1.3041    0.0380   -0.4960 C   0  0  0  0  0  3  0  0  0  0  0  0
   -1.9421    1.3372    0.0260 C   0  0  0  0  0  0  0  0  0  0  0  0
   -1.9659   -1.1433    0.0688 C   0  0  0  0  0  0  0  0  0  0  0  0
   -2.5142   -2.0886    0.5553 C   0  0  0  0  0  0  0  0  0  0  0  0
   -1.3041   -0.0021   -4.2222 H   0  0  0  0  0  0  0  0  0  0  0  0
   -0.0505    0.0107   -0.1029 H   0  0  0  0  0  0  0  0  0  0  0  0
   -2.9854    1.3944   -0.2818 H   0  0  0  0  0  0  0  0  0  0  0  0
   -1.4095    2.1986   -0.3757 H   0  0  0  0  0  0  0  0  0  0  0  0
   -1.8949    1.3616    1.1142 H   0  0  0  0  0  0  0  0  0  0  0  0
   -3.0016   -2.9290    0.9878 H   0  0  0  0  0  0  0  0  0  0  0  0
    1.6307   -1.4624    0.4773 C   0  0  0  0  0  0  0  0  0  0  0  0
    1.2022   -0.0165    0.2900 C   0  0  0  0  0  0  0  0  0  0  0  0
    0.4618    0.5899    1.4451 C   0  0  0  0  0  0  0  0  0  0  0  0
    0.2458    0.0156    2.6189 C   0  0  0  0  0  0  0  0  0  0  0  0
    2.6068    1.0667   -0.1765 S   0  0  0  0  0  0  0  0  0  0  0  0
    2.3259   -1.5607    1.3131 H   0  0  0  0  0  0  0  0  0  0  0  0
    0.7639   -2.0967    0.6762 H   0  0  0  0  0  0  0  0  0  0  0  0
    2.1303   -1.8275   -0.4187 H   0  0  0  0  0  0  0  0  0  0  0  0
    0.0996    1.5983    1.2710 H   0  0  0  0  0  0  0  0  0  0  0  0
   -0.2918    0.5375    3.3999 H   0  0  0  0  0  0  0  0  0  0  0  0
    0.5892   -0.9857    2.8482 H   0  0  0  0  0  0  0  0  0  0  0  0
    3.2266    1.0173    1.0108 H   0  0  0  0  0  0  0  0  0  0  0  0
  1  2  3  0
  1  7  1  0
  2  3  1  0
  3  4  1  0
  3  5  1  0
  4  9  1  0
  4 10  1  0
  4 11  1  0
  5  6  3  0
  6 12  1  0
  8 14  1  0
 13 14  1  0
 13 18  1  0
 13 19  1  0
 13 20  1  0
 14 15  1  0
 14 17  1  0
 15 16  2  3
 15 21  1  0
 16 22  1  0
 16 23  1  0
 17 24  1  0
M  RAD  1   3   2
M  END
>  <reaction>  (10) 
rxn_1420

>  <mol_properties>  (10) 
{"1": {"label": "*4", "atom_type": "Ct"}, "2": {"label": "*3", "atom_type": "Cs"}, "7": {"label": "*2", "atom_type": "H0"}, "13": {"label": "*1", "atom_type": "Cs"}, "16": {"label": "*0", "atom_type": "S2s"}}

>  <type>  (10) 
unop_6

>  <geom_source>  (10) 
Heuristics

$$$$

     RDKit          3D

 24 22  0  0  0  0  0  0  0  0999 V2000
   -1.3326   -0.0641   -3.0731 C   0  0  0  0  0  0  0  0  0  0  0  0
   -1.3326   -0.0641   -1.8769 C   0  0  0  0  0  0  0  0  0  0  0  0
   -1.3326   -0.0240   -0.4104 C   0  0  0  0  0  3  0  0  0  0  0  0
   -1.9706    1.2752    0.1116 C   0  0  0  0  0  0  0  0  0  0  0  0
   -1.9944   -1.2052    0.1544 C   0  0  0  0  0  0  0  0  0  0  0  0
   -2.5426   -2.1505    0.6409 C   0  0  0  0  0  0  0  0  0  0  0  0
   -1.3326   -0.0641   -4.1365 H   0  0  0  0  0  0  0  0  0  0  0  0
   -0.0790   -0.0512   -0.0172 H   0  0  0  0  0  0  0  0  0  0  0  0
   -3.0138    1.3325   -0.1961 H   0  0  0  0  0  0  0  0  0  0  0  0
   -1.4380    2.1367   -0.2900 H   0  0  0  0  0  0  0  0  0  0  0  0
   -1.9234    1.2997    1.1999 H   0  0  0  0  0  0  0  0  0  0  0  0
   -3.0301   -2.9909    1.0734 H   0  0  0  0  0  0  0  0  0  0  0  0
    1.3937   -1.3068    1.2429 C   0  0  0  0  0  0  0  0  0  0  0  0
    1.1737   -0.0785    0.3756 C   0  0  0  0  0  0  0  0  0  0  0  0
    0.5895    1.1101    1.0799 C   0  0  0  0  0  0  0  0  0  0  0  0
    0.3506    1.2051    2.3792 C   0  0  0  0  0  0  0  0  0  0  0  0
    2.6972    0.4221   -0.5145 S   0  0  0  0  0  0  0  0  0  0  0  0
    2.1079   -1.1002    2.0421 H   0  0  0  0  0  0  0  0  0  0  0  0
    0.4541   -1.6285    1.6977 H   0  0  0  0  0  0  0  0  0  0  0  0
    1.7886   -2.1262    0.6442 H   0  0  0  0  0  0  0  0  0  0  0  0
    0.3713    1.9558    0.4353 H   0  0  0  0  0  0  0  0  0  0  0  0
   -0.0646    2.1113    2.8010 H   0  0  0  0  0  0  0  0  0  0  0  0
    0.5540    0.3947    3.0685 H   0  0  0  0  0  0  0  0  0  0  0  0
    3.3618    0.8500    0.5680 H   0  0  0  0  0  0  0  0  0  0  0  0
  1  2  3  0
  1  7  1  0
  2  3  1  0
  3  4  1  0
  3  5  1  0
  4  9  1  0
  4 10  1  0
  4 11  1  0
  5  6  3  0
  6 12  1  0
  8 14  1  0
 13 14  1  0
 13 18  1  0
 13 19  1  0
 13 20  1  0
 14 15  1  0
 14 17  1  0
 15 16  2  3
 15 21  1  0
 16 22  1  0
 16 23  1  0
 17 24  1  0
M  RAD  1   3   2
M  END
>  <reaction>  (11) 
rxn_1420

>  <mol_properties>  (11) 
{"1": {"label": "*4", "atom_type": "Ct"}, "2": {"label": "*3", "atom_type": "Cs"}, "7": {"label": "*2", "atom_type": "H0"}, "13": {"label": "*1", "atom_type": "Cs"}, "16": {"label": "*0", "atom_type": "S2s"}}

>  <type>  (11) 
unop_7

>  <geom_source>  (11) 
Heuristics

$$$$

     RDKit          3D

 24 22  0  0  0  0  0  0  0  0999 V2000
   -1.2336    0.2400   -3.2101 C   0  0  0  0  0  0  0  0  0  0  0  0
   -1.2336    0.2400   -2.0139 C   0  0  0  0  0  0  0  0  0  0  0  0
   -1.2336    0.2801   -0.5474 C   0  0  0  0  0  3  0  0  0  0  0  0
   -1.8717    1.5793   -0.0254 C   0  0  0  0  0  0  0  0  0  0  0  0
   -1.8955   -0.9011    0.0174 C   0  0  0  0  0  0  0  0  0  0  0  0
   -2.4437   -1.8464    0.5039 C   0  0  0  0  0  0  0  0  0  0  0  0
   -1.2336    0.2400   -4.2735 H   0  0  0  0  0  0  0  0  0  0  0  0
    0.0200    0.2529   -0.1542 H   0  0  0  0  0  0  0  0  0  0  0  0
   -2.9149    1.6366   -0.3331 H   0  0  0  0  0  0  0  0  0  0  0  0
   -1.3390    2.4408   -0.4270 H   0  0  0  0  0  0  0  0  0  0  0  0
   -1.8245    1.6038    1.0629 H   0  0  0  0  0  0  0  0  0  0  0  0
   -2.9311   -2.6868    0.9364 H   0  0  0  0  0  0  0  0  0  0  0  0
    1.7882    1.6510    0.3474 C   0  0  0  0  0  0  0  0  0  0  0  0
    1.2726    0.2256    0.2386 C   0  0  0  0  0  0  0  0  0  0  0  0
    2.3288   -0.8340    0.1304 C   0  0  0  0  0  0  0  0  0  0  0  0
    3.6362   -0.6420    0.2202 C   0  0  0  0  0  0  0  0  0  0  0  0
    0.1148   -0.1970    1.5968 S   0  0  0  0  0  0  0  0  0  0  0  0
    2.3853    1.7845    1.2514 H   0  0  0  0  0  0  0  0  0  0  0  0
    2.4112    1.9004   -0.5145 H   0  0  0  0  0  0  0  0  0  0  0  0
    0.9558    2.3517    0.3892 H   0  0  0  0  0  0  0  0  0  0  0  0
    1.9473   -1.8394   -0.0183 H   0  0  0  0  0  0  0  0  0  0  0  0
    4.3246   -1.4733    0.1403 H   0  0  0  0  0  0  0  0  0  0  0  0
    4.0706    0.3383    0.3733 H   0  0  0  0  0  0  0  0  0  0  0  0
    1.0355   -0.2119    2.5708 H   0  0  0  0  0  0  0  0  0  0  0  0
  1  2  3  0
  1  7  1  0
  2  3  1  0
  3  4  1  0
  3  5  1  0
  4  9  1  0
  4 10  1  0
  4 11  1  0
  5  6  3  0
  6 12  1  0
  8 14  1  0
 13 14  1  0
 13 18  1  0
 13 19  1  0
 13 20  1  0
 14 15  1  0
 14 17  1  0
 15 16  2  3
 15 21  1  0
 16 22  1  0
 16 23  1  0
 17 24  1  0
M  RAD  1   3   2
M  END
>  <reaction>  (12) 
rxn_1420

>  <mol_properties>  (12) 
{"1": {"label": "*4", "atom_type": "Ct"}, "2": {"label": "*3", "atom_type": "Cs"}, "7": {"label": "*2", "atom_type": "H0"}, "13": {"label": "*1", "atom_type": "Cs"}, "16": {"label": "*0", "atom_type": "S2s"}}

>  <type>  (12) 
unop_8

>  <geom_source>  (12) 
Heuristics

$$$$

     RDKit          3D

 24 22  0  0  0  0  0  0  0  0999 V2000
   -1.3410    0.1097   -3.1632 C   0  0  0  0  0  0  0  0  0  0  0  0
   -1.3410    0.1097   -1.9671 C   0  0  0  0  0  0  0  0  0  0  0  0
   -1.3410    0.1498   -0.5005 C   0  0  0  0  0  3  0  0  0  0  0  0
   -1.9791    1.4490    0.0215 C   0  0  0  0  0  0  0  0  0  0  0  0
   -2.0029   -1.0315    0.0642 C   0  0  0  0  0  0  0  0  0  0  0  0
   -2.5511   -1.9768    0.5507 C   0  0  0  0  0  0  0  0  0  0  0  0
   -1.3410    0.1097   -4.2267 H   0  0  0  0  0  0  0  0  0  0  0  0
   -0.0874    0.1225   -0.1074 H   0  0  0  0  0  0  0  0  0  0  0  0
   -3.0223    1.5062   -0.2863 H   0  0  0  0  0  0  0  0  0  0  0  0
   -1.4464    2.3104   -0.3802 H   0  0  0  0  0  0  0  0  0  0  0  0
   -1.9319    1.4734    1.1097 H   0  0  0  0  0  0  0  0  0  0  0  0
   -3.0385   -2.8172    0.9832 H   0  0  0  0  0  0  0  0  0  0  0  0
    1.9868   -0.6765   -0.7338 C   0  0  0  0  0  0  0  0  0  0  0  0
    1.1652    0.0953    0.2855 C   0  0  0  0  0  0  0  0  0  0  0  0
    0.8433   -0.6479    1.5480 C   0  0  0  0  0  0  0  0  0  0  0  0
    1.2888   -1.8507    1.8783 C   0  0  0  0  0  0  0  0  0  0  0  0
    1.9210    1.7140    0.7008 S   0  0  0  0  0  0  0  0  0  0  0  0
    2.9658   -0.9407   -0.3298 H   0  0  0  0  0  0  0  0  0  0  0  0
    1.4747   -1.5976   -1.0209 H   0  0  0  0  0  0  0  0  0  0  0  0
    2.1444   -0.0735   -1.6266 H   0  0  0  0  0  0  0  0  0  0  0  0
    0.1970   -0.1120    2.2361 H   0  0  0  0  0  0  0  0  0  0  0  0
    1.0102   -2.3047    2.8205 H   0  0  0  0  0  0  0  0  0  0  0  0
    1.9398   -2.4271    1.2325 H   0  0  0  0  0  0  0  0  0  0  0  0
    2.9677    1.2153    1.3732 H   0  0  0  0  0  0  0  0  0  0  0  0
  1  2  3  0
  1  7  1  0
  2  3  1  0
  3  4  1  0
  3  5  1  0
  4  9  1  0
  4 10  1  0
  4 11  1  0
  5  6  3  0
  6 12  1  0
  8 14  1  0
 13 14  1  0
 13 18  1  0
 13 19  1  0
 13 20  1  0
 14 15  1  0
 14 17  1  0
 15 16  2  3
 15 21  1  0
 16 22  1  0
 16 23  1  0
 17 24  1  0
M  RAD  1   3   2
M  END
>  <reaction>  (13) 
rxn_1420

>  <mol_properties>  (13) 
{"1": {"label": "*4", "atom_type": "Ct"}, "2": {"label": "*3", "atom_type": "Cs"}, "7": {"label": "*2", "atom_type": "H0"}, "13": {"label": "*1", "atom_type": "Cs"}, "16": {"label": "*0", "atom_type": "S2s"}}

>  <type>  (13) 
unop_9

>  <geom_source>  (13) 
Heuristics

$$$$

     RDKit          3D

 24 22  0  0  0  0  0  0  0  0999 V2000
   -1.2591    0.1337   -3.2204 C   0  0  0  0  0  0  0  0  0  0  0  0
   -1.2591    0.1337   -2.0243 C   0  0  0  0  0  0  0  0  0  0  0  0
   -1.2591    0.1737   -0.5577 C   0  0  0  0  0  3  0  0  0  0  0  0
   -1.8972    1.4730   -0.0357 C   0  0  0  0  0  0  0  0  0  0  0  0
   -1.9210   -1.0075    0.0071 C   0  0  0  0  0  0  0  0  0  0  0  0
   -2.4692   -1.9528    0.4936 C   0  0  0  0  0  0  0  0  0  0  0  0
   -1.2591    0.1337   -4.2839 H   0  0  0  0  0  0  0  0  0  0  0  0
   -0.0055    0.1465   -0.1646 H   0  0  0  0  0  0  0  0  0  0  0  0
   -2.9404    1.5302   -0.3435 H   0  0  0  0  0  0  0  0  0  0  0  0
   -1.3646    2.3344   -0.4374 H   0  0  0  0  0  0  0  0  0  0  0  0
   -1.8500    1.4974    1.0525 H   0  0  0  0  0  0  0  0  0  0  0  0
   -2.9566   -2.7932    0.9261 H   0  0  0  0  0  0  0  0  0  0  0  0
    1.9712    1.3271   -0.3429 C   0  0  0  0  0  0  0  0  0  0  0  0
    1.2471    0.1193    0.2283 C   0  0  0  0  0  0  0  0  0  0  0  0
    2.1109   -1.0737    0.5123 C   0  0  0  0  0  0  0  0  0  0  0  0
    3.4299   -1.1235    0.4026 C   0  0  0  0  0  0  0  0  0  0  0  0
    0.2704    0.5406    1.7224 S   0  0  0  0  0  0  0  0  0  0  0  0
    2.7166    1.7059    0.3588 H   0  0  0  0  0  0  0  0  0  0  0  0
    2.4791    1.0650   -1.2738 H   0  0  0  0  0  0  0  0  0  0  0  0
    1.2643    2.1299   -0.5466 H   0  0  0  0  0  0  0  0  0  0  0  0
    1.5714   -1.9522    0.8523 H   0  0  0  0  0  0  0  0  0  0  0  0
    3.9714   -2.0297    0.6412 H   0  0  0  0  0  0  0  0  0  0  0  0
    4.0183   -0.2758    0.0735 H   0  0  0  0  0  0  0  0  0  0  0  0
    1.3220    0.7534    2.5259 H   0  0  0  0  0  0  0  0  0  0  0  0
  1  2  3  0
  1  7  1  0
  2  3  1  0
  3  4  1  0
  3  5  1  0
  4  9  1  0
  4 10  1  0
  4 11  1  0
  5  6  3  0
  6 12  1  0
  8 14  1  0
 13 14  1  0
 13 18  1  0
 13 19  1  0
 13 20  1  0
 14 15  1  0
 14 17  1  0
 15 16  2  3
 15 21  1  0
 16 22  1  0
 16 23  1  0
 17 24  1  0
M  RAD  1   3   2
M  END
>  <reaction>  (14) 
rxn_1420

>  <mol_properties>  (14) 
{"1": {"label": "*4", "atom_type": "Ct"}, "2": {"label": "*3", "atom_type": "Cs"}, "7": {"label": "*2", "atom_type": "H0"}, "13": {"label": "*1", "atom_type": "Cs"}, "16": {"label": "*0", "atom_type": "S2s"}}

>  <type>  (14) 
unop_10

>  <geom_source>  (14) 
Heuristics

$$$$

     RDKit          3D

 24 22  0  0  0  0  0  0  0  0999 V2000
   -1.3989   -0.0273   -2.9445 C   0  0  0  0  0  0  0  0  0  0  0  0
   -1.3989   -0.0273   -1.7483 C   0  0  0  0  0  0  0  0  0  0  0  0
   -1.3989    0.0127   -0.2818 C   0  0  0  0  0  3  0  0  0  0  0  0
   -2.0369    1.3119    0.2402 C   0  0  0  0  0  0  0  0  0  0  0  0
   -2.0607   -1.1685    0.2830 C   0  0  0  0  0  0  0  0  0  0  0  0
   -2.6090   -2.1138    0.7695 C   0  0  0  0  0  0  0  0  0  0  0  0
   -1.3989   -0.0273   -4.0079 H   0  0  0  0  0  0  0  0  0  0  0  0
   -0.1453   -0.0145    0.1114 H   0  0  0  0  0  0  0  0  0  0  0  0
   -3.0802    1.3692   -0.0675 H   0  0  0  0  0  0  0  0  0  0  0  0
   -1.5043    2.1734   -0.1614 H   0  0  0  0  0  0  0  0  0  0  0  0
   -1.9897    1.3364    1.3285 H   0  0  0  0  0  0  0  0  0  0  0  0
   -3.0964   -2.9542    1.2020 H   0  0  0  0  0  0  0  0  0  0  0  0
    1.1864   -0.7262    1.8587 C   0  0  0  0  0  0  0  0  0  0  0  0
    1.1074   -0.0417    0.5042 C   0  0  0  0  0  0  0  0  0  0  0  0
    1.0010    1.4539    0.5443 C   0  0  0  0  0  0  0  0  0  0  0  0
    1.0693    2.2103    1.6295 C   0  0  0  0  0  0  0  0  0  0  0  0
    2.4883   -0.5303   -0.5996 S   0  0  0  0  0  0  0  0  0  0  0  0
    2.0797   -0.4156    2.4039 H   0  0  0  0  0  0  0  0  0  0  0  0
    0.3120   -0.4791    2.4649 H   0  0  0  0  0  0  0  0  0  0  0  0
    1.2289   -1.8070    1.7340 H   0  0  0  0  0  0  0  0  0  0  0  0
    0.8736    1.9246   -0.4255 H   0  0  0  0  0  0  0  0  0  0  0  0
    0.9928    3.2876    1.5591 H   0  0  0  0  0  0  0  0  0  0  0  0
    1.2008    1.7942    2.6208 H   0  0  0  0  0  0  0  0  0  0  0  0
    3.4493    0.1100    0.0808 H   0  0  0  0  0  0  0  0  0  0  0  0
  1  2  3  0
  1  7  1  0
  2  3  1  0
  3  4  1  0
  3  5  1  0
  4  9  1  0
  4 10  1  0
  4 11  1  0
  5  6  3  0
  6 12  1  0
  8 14  1  0
 13 14  1  0
 13 18  1  0
 13 19  1  0
 13 20  1  0
 14 15  1  0
 14 17  1  0
 15 16  2  3
 15 21  1  0
 16 22  1  0
 16 23  1  0
 17 24  1  0
M  RAD  1   3   2
M  END
>  <reaction>  (15) 
rxn_1420

>  <mol_properties>  (15) 
{"1": {"label": "*4", "atom_type": "Ct"}, "2": {"label": "*3", "atom_type": "Cs"}, "7": {"label": "*2", "atom_type": "H0"}, "13": {"label": "*1", "atom_type": "Cs"}, "16": {"label": "*0", "atom_type": "S2s"}}

>  <type>  (15) 
unop_11

>  <geom_source>  (15) 
Heuristics

$$$$

     RDKit          3D

 24 22  0  0  0  0  0  0  0  0999 V2000
   -1.3475    0.0907   -3.1545 C   0  0  0  0  0  0  0  0  0  0  0  0
   -1.3475    0.0907   -1.9583 C   0  0  0  0  0  0  0  0  0  0  0  0
   -1.3475    0.1308   -0.4917 C   0  0  0  0  0  3  0  0  0  0  0  0
   -1.9855    1.4300    0.0303 C   0  0  0  0  0  0  0  0  0  0  0  0
   -2.0093   -1.0505    0.0730 C   0  0  0  0  0  0  0  0  0  0  0  0
   -2.5575   -1.9957    0.5595 C   0  0  0  0  0  0  0  0  0  0  0  0
   -1.3475    0.0907   -4.2179 H   0  0  0  0  0  0  0  0  0  0  0  0
   -0.0939    0.1035   -0.0986 H   0  0  0  0  0  0  0  0  0  0  0  0
   -3.0288    1.4873   -0.2775 H   0  0  0  0  0  0  0  0  0  0  0  0
   -1.4529    2.2914   -0.3714 H   0  0  0  0  0  0  0  0  0  0  0  0
   -1.9383    1.4544    1.1185 H   0  0  0  0  0  0  0  0  0  0  0  0
   -3.0450   -2.8362    0.9920 H   0  0  0  0  0  0  0  0  0  0  0  0
    2.0596    0.0156   -0.9282 C   0  0  0  0  0  0  0  0  0  0  0  0
    1.1588    0.0763    0.2942 C   0  0  0  0  0  0  0  0  0  0  0  0
    1.3124   -1.0581    1.2635 C   0  0  0  0  0  0  0  0  0  0  0  0
    2.2131   -2.0265    1.1920 C   0  0  0  0  0  0  0  0  0  0  0  0
    1.3095    1.6717    1.1864 S   0  0  0  0  0  0  0  0  0  0  0  0
    3.1123    0.0573   -0.6425 H   0  0  0  0  0  0  0  0  0  0  0  0
    1.8915   -0.9103   -1.4829 H   0  0  0  0  0  0  0  0  0  0  0  0
    1.8579    0.8578   -1.5883 H   0  0  0  0  0  0  0  0  0  0  0  0
    0.6145   -1.0404    2.0949 H   0  0  0  0  0  0  0  0  0  0  0  0
    2.2552   -2.8004    1.9475 H   0  0  0  0  0  0  0  0  0  0  0  0
    2.9361   -2.0898    0.3880 H   0  0  0  0  0  0  0  0  0  0  0  0
    2.5482    1.4592    1.6520 H   0  0  0  0  0  0  0  0  0  0  0  0
  1  2  3  0
  1  7  1  0
  2  3  1  0
  3  4  1  0
  3  5  1  0
  4  9  1  0
  4 10  1  0
  4 11  1  0
  5  6  3  0
  6 12  1  0
  8 14  1  0
 13 14  1  0
 13 18  1  0
 13 19  1  0
 13 20  1  0
 14 15  1  0
 14 17  1  0
 15 16  2  3
 15 21  1  0
 16 22  1  0
 16 23  1  0
 17 24  1  0
M  RAD  1   3   2
M  END
>  <reaction>  (16) 
rxn_1420

>  <mol_properties>  (16) 
{"1": {"label": "*4", "atom_type": "Ct"}, "2": {"label": "*3", "atom_type": "Cs"}, "7": {"label": "*2", "atom_type": "H0"}, "13": {"label": "*1", "atom_type": "Cs"}, "16": {"label": "*0", "atom_type": "S2s"}}

>  <type>  (16) 
unop_12

>  <geom_source>  (16) 
Heuristics

$$$$

     RDKit          3D

 24 22  0  0  0  0  0  0  0  0999 V2000
    1.0756   -1.6569    1.3534 S   0  0  0  0  0  0  0  0  0  0  0  0
    1.1525   -0.1092    0.3888 C   0  0  0  0  0  0  0  0  0  0  0  0
    1.6277    1.0379    1.2805 C   0  0  0  0  0  0  0  0  0  0  0  0
   -1.6625   -1.3449   -1.1016 C   0  0  0  0  0  0  0  0  0  0  0  0
    2.0566   -0.2834   -0.8041 C   0  0  0  0  0  0  0  0  0  0  0  0
   -1.3728   -0.2156   -0.1171 C   0  0  0  0  0  3  0  0  0  0  0  0
    2.0628    0.5995   -1.8066 C   0  0  0  0  0  0  0  0  0  0  0  0
   -1.9874    1.0383   -0.5696 C   0  0  0  0  0  0  0  0  0  0  0  0
   -1.8692   -0.5541    1.2223 C   0  0  0  0  0  0  0  0  0  0  0  0
   -2.4909    2.0687   -0.9423 C   0  0  0  0  0  0  0  0  0  0  0  0
   -2.2754   -0.8330    2.3229 C   0  0  0  0  0  0  0  0  0  0  0  0
   -0.0783    0.1604   -0.0370 H   0  0  0  0  0  0  0  0  0  0  0  0
    1.5985    1.9967    0.7213 H   0  0  0  0  0  0  0  0  0  0  0  0
    0.9583    1.1317    2.1613 H   0  0  0  0  0  0  0  0  0  0  0  0
    2.6658    0.8570    1.6332 H   0  0  0  0  0  0  0  0  0  0  0  0
   -1.2570   -1.0864   -2.1030 H   0  0  0  0  0  0  0  0  0  0  0  0
   -2.7566   -1.5245   -1.1890 H   0  0  0  0  0  0  0  0  0  0  0  0
   -1.1684   -2.2795   -0.7604 H   0  0  0  0  0  0  0  0  0  0  0  0
    2.6984   -1.1572   -0.8751 H   0  0  0  0  0  0  0  0  0  0  0  0
    1.4219    1.4757   -1.7847 H   0  0  0  0  0  0  0  0  0  0  0  0
    2.7125    0.4453   -2.6619 H   0  0  0  0  0  0  0  0  0  0  0  0
    2.4530   -1.6619    1.6494 H   0  0  0  0  0  0  0  0  0  0  0  0
   -2.9329    2.9729   -1.2694 H   0  0  0  0  0  0  0  0  0  0  0  0
   -2.6320   -1.0778    3.2887 H   0  0  0  0  0  0  0  0  0  0  0  0
  1  2  1  0
  1 22  1  0
  2  3  1  0
  2  5  1  0
  2 12  1  0
  3 13  1  0
  3 14  1  0
  3 15  1  0
  4  6  1  0
  4 16  1  0
  4 17  1  0
  4 18  1  0
  5  7  2  3
  5 19  1  0
  6  8  1  0
  6  9  1  0
  7 20  1  0
  7 21  1  0
  8 10  3  0
  9 11  3  0
 10 23  1  0
 11 24  1  0
M  RAD  1   6   2
M  END
>  <reaction>  (17) 
rxn_1420

>  <mol_properties>  (17) 
{"1": {"label": "*4", "atom_type": "Ct"}, "2": {"label": "*3", "atom_type": "Cs"}, "7": {"label": "*2", "atom_type": "H0"}, "13": {"label": "*1", "atom_type": "Cs"}, "16": {"label": "*0", "atom_type": "S2s"}}

>  <type>  (17) 
unop_13

>  <geom_source>  (17) 
AutoTST

$$$$
