
     RDKit          3D

 13 12  0  0  0  0  0  0  0  0999 V2000
    2.2975   -0.6134    0.7685 C   0  0  0  0  0  0  0  0  0  0  0  0
    1.1676   -0.5248    0.3802 C   0  0  0  0  0  0  0  0  0  0  0  0
   -0.2109   -0.3926   -0.0948 C   0  0  0  0  0  0  0  0  0  0  0  0
   -0.2501    0.2584   -1.4808 C   0  0  0  0  0  0  0  0  0  0  0  0
   -1.0633    0.3831    0.9141 C   0  0  0  0  0  0  0  0  0  0  0  0
    3.2999   -0.6974    1.1133 H   0  0  0  0  0  0  0  0  0  0  0  0
   -0.6209   -1.4038   -0.1814 H   0  0  0  0  0  0  0  0  0  0  0  0
    0.3402   -0.3102   -2.1992 H   0  0  0  0  0  0  0  0  0  0  0  0
    0.1511    1.2724   -1.4369 H   0  0  0  0  0  0  0  0  0  0  0  0
   -1.2791    0.3109   -1.8407 H   0  0  0  0  0  0  0  0  0  0  0  0
   -0.6861    1.4008    1.0287 H   0  0  0  0  0  0  0  0  0  0  0  0
   -1.0492   -0.0971    1.8924 H   0  0  0  0  0  0  0  0  0  0  0  0
   -2.0971    0.4363    0.5680 H   0  0  0  0  0  0  0  0  0  0  0  0
  1  2  3  0
  1  6  1  0
  2  3  1  0
  3  4  1  0
  3  5  1  0
  3  7  1  0
  4  8  1  0
  4  9  1  0
  4 10  1  0
  5 11  1  0
  5 12  1  0
  5 13  1  0
M  END
>  <reaction>  (1) 
rxn_1303

>  <mol_properties>  (1) 
{"2": {"label": "donator", "atom_type": "Cs"}, "6": {"label": "d_hydrogen", "atom_type": "H0"}}

>  <type>  (1) 
r1h

$$$$

     RDKit          3D

  7  6  0  0  0  0  0  0  0  0999 V2000
   -0.6201    0.0189   -0.0017 C   0  0  0  0  0  0  0  0  0  0  0  0
    0.8589   -0.0553    0.0500 C   0  0  0  0  0  3  0  0  0  0  0  0
   -1.0738   -0.9730   -0.0559 H   0  0  0  0  0  0  0  0  0  0  0  0
   -0.9680    0.5706   -0.8872 H   0  0  0  0  0  0  0  0  0  0  0  0
   -1.0303    0.5369    0.8678 H   0  0  0  0  0  0  0  0  0  0  0  0
    1.3939   -0.8386   -0.4695 H   0  0  0  0  0  0  0  0  0  0  0  0
    1.4394    0.7404    0.4965 H   0  0  0  0  0  0  0  0  0  0  0  0
  1  2  1  0
  1  3  1  0
  1  4  1  0
  1  5  1  0
  2  6  1  0
  2  7  1  0
M  RAD  1   2   2
M  END
>  <reaction>  (2) 
rxn_1303

>  <mol_properties>  (2) 
{"1": {"label": "acceptor", "atom_type": "Cs"}}

>  <type>  (2) 
r2

$$$$

     RDKit          3D

  8  7  0  0  0  0  0  0  0  0999 V2000
    0.7610    0.0250    0.0051 C   0  0  0  0  0  0  0  0  0  0  0  0
   -0.7610   -0.0250   -0.0051 C   0  0  0  0  0  0  0  0  0  0  0  0
    1.1904   -0.9237   -0.3217 H   0  0  0  0  0  0  0  0  0  0  0  0
    1.1359    0.8041   -0.6609 H   0  0  0  0  0  0  0  0  0  0  0  0
    1.1435    0.2336    1.0058 H   0  0  0  0  0  0  0  0  0  0  0  0
   -1.1435   -0.2336   -1.0058 H   0  0  0  0  0  0  0  0  0  0  0  0
   -1.1904    0.9237    0.3216 H   0  0  0  0  0  0  0  0  0  0  0  0
   -1.1359   -0.8041    0.6609 H   0  0  0  0  0  0  0  0  0  0  0  0
  1  2  1  0
  1  3  1  0
  1  4  1  0
  1  5  1  0
  2  6  1  0
  2  7  1  0
  2  8  1  0
M  END
>  <reaction>  (3) 
rxn_1303

>  <mol_properties>  (3) 
{"0": {"label": "a_hydrogen", "atom_type": "H0"}, "2": {"label": "acceptor", "atom_type": "Cs"}}

>  <type>  (3) 
r2h

$$$$

     RDKit          3D

 20 18  0  0  0  0  0  0  0  0999 V2000
    1.2518    0.2808   -2.1120 C   0  0  0  0  0  0  0  0  0  0  0  0
    0.6782    0.5235   -1.0840 C   0  0  0  0  0  0  0  0  0  0  0  0
    0.0071    0.7660    0.1643 C   0  0  0  0  0  0  0  0  0  0  0  0
   -1.5067    0.8131    0.0517 C   0  0  0  0  0  0  0  0  0  0  0  0
    0.6051    1.8987    0.9799 C   0  0  0  0  0  0  0  0  0  0  0  0
    1.7557    0.0789   -3.0261 H   0  0  0  0  0  0  0  0  0  0  0  0
    0.2364   -0.2768    0.8613 H   0  0  0  0  0  0  0  0  0  0  0  0
   -1.8875   -0.0552   -0.4865 H   0  0  0  0  0  0  0  0  0  0  0  0
   -1.8313    1.7107   -0.4818 H   0  0  0  0  0  0  0  0  0  0  0  0
   -1.9557    0.8291    1.0470 H   0  0  0  0  0  0  0  0  0  0  0  0
    0.4223    2.8642    0.5003 H   0  0  0  0  0  0  0  0  0  0  0  0
    1.6825    1.7754    1.0921 H   0  0  0  0  0  0  0  0  0  0  0  0
    0.1536    1.9227    1.9739 H   0  0  0  0  0  0  0  0  0  0  0  0
   -0.0240   -2.5616    0.6703 C   0  0  0  0  0  0  0  0  0  0  0  0
    0.4299   -1.4796    1.6044 C   0  0  0  0  0  3  0  0  0  0  0  0
    0.1591   -3.5577    1.0878 H   0  0  0  0  0  0  0  0  0  0  0  0
    0.5057   -2.5026   -0.2827 H   0  0  0  0  0  0  0  0  0  0  0  0
   -1.0935   -2.4865    0.4651 H   0  0  0  0  0  0  0  0  0  0  0  0
    1.4982   -1.4371    1.8030 H   0  0  0  0  0  0  0  0  0  0  0  0
   -0.1733   -1.3245    2.4959 H   0  0  0  0  0  0  0  0  0  0  0  0
  1  2  3  0
  1  6  1  0
  2  3  1  0
  3  4  1  0
  3  5  1  0
  3  7  1  0
  4  8  1  0
  4  9  1  0
  4 10  1  0
  5 11  1  0
  5 12  1  0
  5 13  1  0
 14 15  1  0
 14 16  1  0
 14 17  1  0
 14 18  1  0
 15 19  1  0
 15 20  1  0
M  RAD  1  15   2
M  END
>  <reaction>  (4) 
rxn_1303

>  <mol_properties>  (4) 
{"1": {"label": "*0", "atom_type": "Ct"}, "2": {"label": "*1", "atom_type": "Cs"}, "6": {"label": "*2", "atom_type": "H0"}, "13": {"label": "*4", "atom_type": "Cs"}, "14": {"label": "*3", "atom_type": "Cs"}}

>  <type>  (4) 
ts

$$$$

     RDKit          3D

 20 18  0  0  0  0  0  0  0  0999 V2000
   -0.1875    0.5747   -2.6747 C   0  0  0  0  0  0  0  0  0  0  0  0
   -0.1875    0.5747   -1.4766 C   0  0  0  0  0  0  0  0  0  0  0  0
   -0.1875    0.5986   -0.0128 C   0  0  0  0  0  3  0  0  0  0  0  0
   -1.4536    1.2751    0.5215 C   0  0  0  0  0  0  0  0  0  0  0  0
    1.0786    1.2750    0.5215 C   0  0  0  0  0  0  0  0  0  0  0  0
   -0.1875    0.5747   -3.7380 H   0  0  0  0  0  0  0  0  0  0  0  0
   -0.1875   -0.6500    0.3951 H   0  0  0  0  0  0  0  0  0  0  0  0
   -2.3507    0.7758    0.1556 H   0  0  0  0  0  0  0  0  0  0  0  0
   -1.4910    2.3186    0.2040 H   0  0  0  0  0  0  0  0  0  0  0  0
   -1.4610    1.2471    1.6126 H   0  0  0  0  0  0  0  0  0  0  0  0
    1.1160    2.3186    0.2040 H   0  0  0  0  0  0  0  0  0  0  0  0
    1.9756    0.7757    0.1556 H   0  0  0  0  0  0  0  0  0  0  0  0
    1.0859    1.2470    1.6126 H   0  0  0  0  0  0  0  0  0  0  0  0
    1.0414   -2.1997    1.6477 C   0  0  0  0  0  0  0  0  0  0  0  0
   -0.1876   -1.8950    0.8018 C   0  0  0  0  0  0  0  0  0  0  0  0
    0.7899   -2.8400    2.4951 H   0  0  0  0  0  0  0  0  0  0  0  0
    1.4852   -1.2851    2.0450 H   0  0  0  0  0  0  0  0  0  0  0  0
    1.8076   -2.7116    1.0628 H   0  0  0  0  0  0  0  0  0  0  0  0
   -0.9537   -1.3831    1.3867 H   0  0  0  0  0  0  0  0  0  0  0  0
   -0.6313   -2.8096    0.4045 H   0  0  0  0  0  0  0  0  0  0  0  0
  1  2  3  0
  1  6  1  0
  2  3  1  0
  3  4  1  0
  3  5  1  0
  4  8  1  0
  4  9  1  0
  4 10  1  0
  5 11  1  0
  5 12  1  0
  5 13  1  0
  7 15  1  0
 14 15  1  0
 14 16  1  0
 14 17  1  0
 14 18  1  0
 15 19  1  0
 15 20  1  0
M  RAD  1   3   2
M  END
>  <reaction>  (5) 
rxn_1303

>  <mol_properties>  (5) 
{"1": {"label": "*0", "atom_type": "Ct"}, "2": {"label": "*1", "atom_type": "Cs"}, "6": {"label": "*2", "atom_type": "H0"}, "13": {"label": "*4", "atom_type": "Cs"}, "14": {"label": "*3", "atom_type": "Cs"}}

>  <type>  (5) 
unop_1

>  <geom_source>  (5) 
Heuristics

$$$$

     RDKit          3D

 20 18  0  0  0  0  0  0  0  0999 V2000
   -0.1127    0.6710   -2.3856 C   0  0  0  0  0  0  0  0  0  0  0  0
   -0.1127    0.6710   -1.1875 C   0  0  0  0  0  0  0  0  0  0  0  0
   -0.1127    0.6950    0.2763 C   0  0  0  0  0  3  0  0  0  0  0  0
   -1.3788    1.3714    0.8107 C   0  0  0  0  0  0  0  0  0  0  0  0
    1.1534    1.3714    0.8107 C   0  0  0  0  0  0  0  0  0  0  0  0
   -0.1127    0.6710   -3.4489 H   0  0  0  0  0  0  0  0  0  0  0  0
   -0.1127   -0.5537    0.6842 H   0  0  0  0  0  0  0  0  0  0  0  0
   -2.2759    0.8721    0.4447 H   0  0  0  0  0  0  0  0  0  0  0  0
   -1.4161    2.4149    0.4931 H   0  0  0  0  0  0  0  0  0  0  0  0
   -1.3861    1.3434    1.9017 H   0  0  0  0  0  0  0  0  0  0  0  0
    1.1908    2.4149    0.4931 H   0  0  0  0  0  0  0  0  0  0  0  0
    2.0505    0.8721    0.4447 H   0  0  0  0  0  0  0  0  0  0  0  0
    1.1608    1.3434    1.9017 H   0  0  0  0  0  0  0  0  0  0  0  0
    0.5968   -2.7053    0.0942 C   0  0  0  0  0  0  0  0  0  0  0  0
   -0.1127   -1.7987    1.0909 C   0  0  0  0  0  0  0  0  0  0  0  0
    0.8787   -3.6544    0.5534 H   0  0  0  0  0  0  0  0  0  0  0  0
    1.5073   -2.2391   -0.2865 H   0  0  0  0  0  0  0  0  0  0  0  0
   -0.0423   -2.9294   -0.7617 H   0  0  0  0  0  0  0  0  0  0  0  0
    0.5264   -1.5746    1.9468 H   0  0  0  0  0  0  0  0  0  0  0  0
   -1.0232   -2.2648    1.4715 H   0  0  0  0  0  0  0  0  0  0  0  0
  1  2  3  0
  1  6  1  0
  2  3  1  0
  3  4  1  0
  3  5  1  0
  4  8  1  0
  4  9  1  0
  4 10  1  0
  5 11  1  0
  5 12  1  0
  5 13  1  0
  7 15  1  0
 14 15  1  0
 14 16  1  0
 14 17  1  0
 14 18  1  0
 15 19  1  0
 15 20  1  0
M  RAD  1   3   2
M  END
>  <reaction>  (6) 
rxn_1303

>  <mol_properties>  (6) 
{"1": {"label": "*0", "atom_type": "Ct"}, "2": {"label": "*1", "atom_type": "Cs"}, "6": {"label": "*2", "atom_type": "H0"}, "13": {"label": "*4", "atom_type": "Cs"}, "14": {"label": "*3", "atom_type": "Cs"}}

>  <type>  (6) 
unop_2

>  <geom_source>  (6) 
Heuristics

$$$$

     RDKit          3D

 20 18  0  0  0  0  0  0  0  0999 V2000
   -0.1056    0.5518   -2.7482 C   0  0  0  0  0  0  0  0  0  0  0  0
   -0.1056    0.5518   -1.5502 C   0  0  0  0  0  0  0  0  0  0  0  0
   -0.1056    0.5757   -0.0864 C   0  0  0  0  0  3  0  0  0  0  0  0
   -1.3717    1.2522    0.4480 C   0  0  0  0  0  0  0  0  0  0  0  0
    1.1605    1.2521    0.4480 C   0  0  0  0  0  0  0  0  0  0  0  0
   -0.1056    0.5518   -3.8116 H   0  0  0  0  0  0  0  0  0  0  0  0
   -0.1056   -0.6730    0.3215 H   0  0  0  0  0  0  0  0  0  0  0  0
   -2.2688    0.7529    0.0821 H   0  0  0  0  0  0  0  0  0  0  0  0
   -1.4090    2.2957    0.1305 H   0  0  0  0  0  0  0  0  0  0  0  0
   -1.3790    1.2242    1.5391 H   0  0  0  0  0  0  0  0  0  0  0  0
    1.1979    2.2956    0.1305 H   0  0  0  0  0  0  0  0  0  0  0  0
    2.0576    0.7528    0.0821 H   0  0  0  0  0  0  0  0  0  0  0  0
    1.1679    1.2241    1.5391 H   0  0  0  0  0  0  0  0  0  0  0  0
    0.6039   -2.0613    2.0679 C   0  0  0  0  0  0  0  0  0  0  0  0
   -0.1056   -1.9179    0.7282 C   0  0  0  0  0  0  0  0  0  0  0  0
    0.2014   -2.8981    2.6415 H   0  0  0  0  0  0  0  0  0  0  0  0
    0.4911   -1.1607    2.6740 H   0  0  0  0  0  0  0  0  0  0  0  0
    1.6726   -2.2370    1.9331 H   0  0  0  0  0  0  0  0  0  0  0  0
   -1.1744   -1.7423    0.8631 H   0  0  0  0  0  0  0  0  0  0  0  0
    0.0072   -2.8185    0.1221 H   0  0  0  0  0  0  0  0  0  0  0  0
  1  2  3  0
  1  6  1  0
  2  3  1  0
  3  4  1  0
  3  5  1  0
  4  8  1  0
  4  9  1  0
  4 10  1  0
  5 11  1  0
  5 12  1  0
  5 13  1  0
  7 15  1  0
 14 15  1  0
 14 16  1  0
 14 17  1  0
 14 18  1  0
 15 19  1  0
 15 20  1  0
M  RAD  1   3   2
M  END
>  <reaction>  (7) 
rxn_1303

>  <mol_properties>  (7) 
{"1": {"label": "*0", "atom_type": "Ct"}, "2": {"label": "*1", "atom_type": "Cs"}, "6": {"label": "*2", "atom_type": "H0"}, "13": {"label": "*4", "atom_type": "Cs"}, "14": {"label": "*3", "atom_type": "Cs"}}

>  <type>  (7) 
unop_3

>  <geom_source>  (7) 
Heuristics

$$$$

     RDKit          3D

 20 18  0  0  0  0  0  0  0  0999 V2000
    0.1934    0.6442   -2.4645 C   0  0  0  0  0  0  0  0  0  0  0  0
    0.1934    0.6442   -1.2665 C   0  0  0  0  0  0  0  0  0  0  0  0
    0.1934    0.6681    0.1973 C   0  0  0  0  0  3  0  0  0  0  0  0
   -1.0727    1.3446    0.7317 C   0  0  0  0  0  0  0  0  0  0  0  0
    1.4596    1.3445    0.7317 C   0  0  0  0  0  0  0  0  0  0  0  0
    0.1934    0.6442   -3.5279 H   0  0  0  0  0  0  0  0  0  0  0  0
    0.1934   -0.5805    0.6052 H   0  0  0  0  0  0  0  0  0  0  0  0
   -1.9697    0.8453    0.3658 H   0  0  0  0  0  0  0  0  0  0  0  0
   -1.1100    2.3881    0.4142 H   0  0  0  0  0  0  0  0  0  0  0  0
   -1.0800    1.3166    1.8228 H   0  0  0  0  0  0  0  0  0  0  0  0
    1.4969    2.3881    0.4142 H   0  0  0  0  0  0  0  0  0  0  0  0
    2.3566    0.8452    0.3658 H   0  0  0  0  0  0  0  0  0  0  0  0
    1.4669    1.3165    1.8228 H   0  0  0  0  0  0  0  0  0  0  0  0
   -1.0356   -2.5708    0.5089 C   0  0  0  0  0  0  0  0  0  0  0  0
    0.1934   -1.8255    1.0119 C   0  0  0  0  0  0  0  0  0  0  0  0
   -1.3506   -3.3386    1.2178 H   0  0  0  0  0  0  0  0  0  0  0  0
   -0.8372   -3.0631   -0.4448 H   0  0  0  0  0  0  0  0  0  0  0  0
   -1.8774   -1.8920    0.3615 H   0  0  0  0  0  0  0  0  0  0  0  0
    1.0352   -2.5044    1.1593 H   0  0  0  0  0  0  0  0  0  0  0  0
   -0.0050   -1.3333    1.9656 H   0  0  0  0  0  0  0  0  0  0  0  0
  1  2  3  0
  1  6  1  0
  2  3  1  0
  3  4  1  0
  3  5  1  0
  4  8  1  0
  4  9  1  0
  4 10  1  0
  5 11  1  0
  5 12  1  0
  5 13  1  0
  7 15  1  0
 14 15  1  0
 14 16  1  0
 14 17  1  0
 14 18  1  0
 15 19  1  0
 15 20  1  0
M  RAD  1   3   2
M  END
>  <reaction>  (8) 
rxn_1303

>  <mol_properties>  (8) 
{"1": {"label": "*0", "atom_type": "Ct"}, "2": {"label": "*1", "atom_type": "Cs"}, "6": {"label": "*2", "atom_type": "H0"}, "13": {"label": "*4", "atom_type": "Cs"}, "14": {"label": "*3", "atom_type": "Cs"}}

>  <type>  (8) 
unop_4

>  <geom_source>  (8) 
Heuristics

$$$$

     RDKit          3D

 20 18  0  0  0  0  0  0  0  0999 V2000
    0.0000    0.5447   -2.7738 C   0  0  0  0  0  0  0  0  0  0  0  0
    0.0000    0.5447   -1.5757 C   0  0  0  0  0  0  0  0  0  0  0  0
    0.0000    0.5687   -0.1119 C   0  0  0  0  0  3  0  0  0  0  0  0
   -1.2661    1.2451    0.4225 C   0  0  0  0  0  0  0  0  0  0  0  0
    1.2661    1.2451    0.4225 C   0  0  0  0  0  0  0  0  0  0  0  0
    0.0000    0.5447   -3.8371 H   0  0  0  0  0  0  0  0  0  0  0  0
   -0.0000   -0.6800    0.2960 H   0  0  0  0  0  0  0  0  0  0  0  0
   -2.1632    0.7458    0.0565 H   0  0  0  0  0  0  0  0  0  0  0  0
   -1.3034    2.2886    0.1049 H   0  0  0  0  0  0  0  0  0  0  0  0
   -1.2734    1.2171    1.5135 H   0  0  0  0  0  0  0  0  0  0  0  0
    1.3035    2.2886    0.1049 H   0  0  0  0  0  0  0  0  0  0  0  0
    2.1632    0.7458    0.0565 H   0  0  0  0  0  0  0  0  0  0  0  0
    1.2735    1.2171    1.5135 H   0  0  0  0  0  0  0  0  0  0  0  0
   -0.0000   -2.0093    2.2231 C   0  0  0  0  0  0  0  0  0  0  0  0
   -0.0000   -1.9250    0.7027 C   0  0  0  0  0  0  0  0  0  0  0  0
   -0.0000   -3.0468    2.5620 H   0  0  0  0  0  0  0  0  0  0  0  0
   -0.8809   -1.5235    2.6465 H   0  0  0  0  0  0  0  0  0  0  0  0
    0.8808   -1.5235    2.6465 H   0  0  0  0  0  0  0  0  0  0  0  0
   -0.8809   -2.4108    0.2793 H   0  0  0  0  0  0  0  0  0  0  0  0
    0.8808   -2.4108    0.2793 H   0  0  0  0  0  0  0  0  0  0  0  0
  1  2  3  0
  1  6  1  0
  2  3  1  0
  3  4  1  0
  3  5  1  0
  4  8  1  0
  4  9  1  0
  4 10  1  0
  5 11  1  0
  5 12  1  0
  5 13  1  0
  7 15  1  0
 14 15  1  0
 14 16  1  0
 14 17  1  0
 14 18  1  0
 15 19  1  0
 15 20  1  0
M  RAD  1   3   2
M  END
>  <reaction>  (9) 
rxn_1303

>  <mol_properties>  (9) 
{"1": {"label": "*0", "atom_type": "Ct"}, "2": {"label": "*1", "atom_type": "Cs"}, "6": {"label": "*2", "atom_type": "H0"}, "13": {"label": "*4", "atom_type": "Cs"}, "14": {"label": "*3", "atom_type": "Cs"}}

>  <type>  (9) 
unop_5

>  <geom_source>  (9) 
Heuristics

$$$$

     RDKit          3D

 20 18  0  0  0  0  0  0  0  0999 V2000
    0.2204    0.6087   -2.5707 C   0  0  0  0  0  0  0  0  0  0  0  0
    0.2204    0.6087   -1.3726 C   0  0  0  0  0  0  0  0  0  0  0  0
    0.2204    0.6326    0.0912 C   0  0  0  0  0  3  0  0  0  0  0  0
   -1.0457    1.3091    0.6255 C   0  0  0  0  0  0  0  0  0  0  0  0
    1.4866    1.3091    0.6255 C   0  0  0  0  0  0  0  0  0  0  0  0
    0.2204    0.6087   -3.6340 H   0  0  0  0  0  0  0  0  0  0  0  0
    0.2204   -0.6160    0.4990 H   0  0  0  0  0  0  0  0  0  0  0  0
   -1.9427    0.8098    0.2596 H   0  0  0  0  0  0  0  0  0  0  0  0
   -1.0830    2.3526    0.3080 H   0  0  0  0  0  0  0  0  0  0  0  0
   -1.0530    1.2811    1.7166 H   0  0  0  0  0  0  0  0  0  0  0  0
    1.5239    2.3526    0.3080 H   0  0  0  0  0  0  0  0  0  0  0  0
    2.3836    0.8097    0.2596 H   0  0  0  0  0  0  0  0  0  0  0  0
    1.4939    1.2811    1.7166 H   0  0  0  0  0  0  0  0  0  0  0  0
   -1.1987   -2.3860    1.0772 C   0  0  0  0  0  0  0  0  0  0  0  0
    0.2204   -1.8610    0.9057 C   0  0  0  0  0  0  0  0  0  0  0  0
   -1.2823   -3.0192    1.9622 H   0  0  0  0  0  0  0  0  0  0  0  0
   -1.5078   -2.9801    0.2155 H   0  0  0  0  0  0  0  0  0  0  0  0
   -1.9127   -1.5679    1.1877 H   0  0  0  0  0  0  0  0  0  0  0  0
    0.9344   -2.6790    0.7952 H   0  0  0  0  0  0  0  0  0  0  0  0
    0.5295   -1.2668    1.7675 H   0  0  0  0  0  0  0  0  0  0  0  0
  1  2  3  0
  1  6  1  0
  2  3  1  0
  3  4  1  0
  3  5  1  0
  4  8  1  0
  4  9  1  0
  4 10  1  0
  5 11  1  0
  5 12  1  0
  5 13  1  0
  7 15  1  0
 14 15  1  0
 14 16  1  0
 14 17  1  0
 14 18  1  0
 15 19  1  0
 15 20  1  0
M  RAD  1   3   2
M  END
>  <reaction>  (10) 
rxn_1303

>  <mol_properties>  (10) 
{"1": {"label": "*0", "atom_type": "Ct"}, "2": {"label": "*1", "atom_type": "Cs"}, "6": {"label": "*2", "atom_type": "H0"}, "13": {"label": "*4", "atom_type": "Cs"}, "14": {"label": "*3", "atom_type": "Cs"}}

>  <type>  (10) 
unop_6

>  <geom_source>  (10) 
Heuristics

$$$$

     RDKit          3D

 20 18  0  0  0  0  0  0  0  0999 V2000
    0.1875    0.5747   -2.6747 C   0  0  0  0  0  0  0  0  0  0  0  0
    0.1875    0.5747   -1.4766 C   0  0  0  0  0  0  0  0  0  0  0  0
    0.1875    0.5986   -0.0128 C   0  0  0  0  0  3  0  0  0  0  0  0
   -1.0786    1.2751    0.5215 C   0  0  0  0  0  0  0  0  0  0  0  0
    1.4537    1.2750    0.5215 C   0  0  0  0  0  0  0  0  0  0  0  0
    0.1875    0.5747   -3.7380 H   0  0  0  0  0  0  0  0  0  0  0  0
    0.1875   -0.6500    0.3951 H   0  0  0  0  0  0  0  0  0  0  0  0
   -1.9756    0.7758    0.1556 H   0  0  0  0  0  0  0  0  0  0  0  0
   -1.1159    2.3186    0.2040 H   0  0  0  0  0  0  0  0  0  0  0  0
   -1.0859    1.2471    1.6126 H   0  0  0  0  0  0  0  0  0  0  0  0
    1.4910    2.3186    0.2040 H   0  0  0  0  0  0  0  0  0  0  0  0
    2.3507    0.7757    0.1556 H   0  0  0  0  0  0  0  0  0  0  0  0
    1.4610    1.2470    1.6126 H   0  0  0  0  0  0  0  0  0  0  0  0
   -1.0415   -2.1997    1.6477 C   0  0  0  0  0  0  0  0  0  0  0  0
    0.1875   -1.8950    0.8018 C   0  0  0  0  0  0  0  0  0  0  0  0
   -0.7900   -2.8399    2.4951 H   0  0  0  0  0  0  0  0  0  0  0  0
   -1.8077   -2.7116    1.0628 H   0  0  0  0  0  0  0  0  0  0  0  0
   -1.4852   -1.2851    2.0450 H   0  0  0  0  0  0  0  0  0  0  0  0
    0.6313   -2.8096    0.4045 H   0  0  0  0  0  0  0  0  0  0  0  0
    0.9537   -1.3831    1.3867 H   0  0  0  0  0  0  0  0  0  0  0  0
  1  2  3  0
  1  6  1  0
  2  3  1  0
  3  4  1  0
  3  5  1  0
  4  8  1  0
  4  9  1  0
  4 10  1  0
  5 11  1  0
  5 12  1  0
  5 13  1  0
  7 15  1  0
 14 15  1  0
 14 16  1  0
 14 17  1  0
 14 18  1  0
 15 19  1  0
 15 20  1  0
M  RAD  1   3   2
M  END
>  <reaction>  (11) 
rxn_1303

>  <mol_properties>  (11) 
{"1": {"label": "*0", "atom_type": "Ct"}, "2": {"label": "*1", "atom_type": "Cs"}, "6": {"label": "*2", "atom_type": "H0"}, "13": {"label": "*4", "atom_type": "Cs"}, "14": {"label": "*3", "atom_type": "Cs"}}

>  <type>  (11) 
unop_7

>  <geom_source>  (11) 
Heuristics

$$$$

     RDKit          3D

 20 18  0  0  0  0  0  0  0  0999 V2000
   -0.2204    0.6087   -2.5707 C   0  0  0  0  0  0  0  0  0  0  0  0
   -0.2204    0.6087   -1.3726 C   0  0  0  0  0  0  0  0  0  0  0  0
   -0.2204    0.6326    0.0912 C   0  0  0  0  0  3  0  0  0  0  0  0
   -1.4865    1.3091    0.6255 C   0  0  0  0  0  0  0  0  0  0  0  0
    1.0457    1.3091    0.6255 C   0  0  0  0  0  0  0  0  0  0  0  0
   -0.2204    0.6087   -3.6340 H   0  0  0  0  0  0  0  0  0  0  0  0
   -0.2204   -0.6160    0.4990 H   0  0  0  0  0  0  0  0  0  0  0  0
   -2.3836    0.8098    0.2596 H   0  0  0  0  0  0  0  0  0  0  0  0
   -1.5239    2.3526    0.3080 H   0  0  0  0  0  0  0  0  0  0  0  0
   -1.4939    1.2811    1.7166 H   0  0  0  0  0  0  0  0  0  0  0  0
    1.0831    2.3526    0.3080 H   0  0  0  0  0  0  0  0  0  0  0  0
    1.9428    0.8097    0.2596 H   0  0  0  0  0  0  0  0  0  0  0  0
    1.0530    1.2811    1.7166 H   0  0  0  0  0  0  0  0  0  0  0  0
    1.1986   -2.3860    1.0772 C   0  0  0  0  0  0  0  0  0  0  0  0
   -0.2205   -1.8610    0.9057 C   0  0  0  0  0  0  0  0  0  0  0  0
    1.2822   -3.0193    1.9622 H   0  0  0  0  0  0  0  0  0  0  0  0
    1.9127   -1.5680    1.1877 H   0  0  0  0  0  0  0  0  0  0  0  0
    1.5077   -2.9802    0.2155 H   0  0  0  0  0  0  0  0  0  0  0  0
   -0.5295   -1.2668    1.7675 H   0  0  0  0  0  0  0  0  0  0  0  0
   -0.9345   -2.6790    0.7952 H   0  0  0  0  0  0  0  0  0  0  0  0
  1  2  3  0
  1  6  1  0
  2  3  1  0
  3  4  1  0
  3  5  1  0
  4  8  1  0
  4  9  1  0
  4 10  1  0
  5 11  1  0
  5 12  1  0
  5 13  1  0
  7 15  1  0
 14 15  1  0
 14 16  1  0
 14 17  1  0
 14 18  1  0
 15 19  1  0
 15 20  1  0
M  RAD  1   3   2
M  END
>  <reaction>  (12) 
rxn_1303

>  <mol_properties>  (12) 
{"1": {"label": "*0", "atom_type": "Ct"}, "2": {"label": "*1", "atom_type": "Cs"}, "6": {"label": "*2", "atom_type": "H0"}, "13": {"label": "*4", "atom_type": "Cs"}, "14": {"label": "*3", "atom_type": "Cs"}}

>  <type>  (12) 
unop_8

>  <geom_source>  (12) 
Heuristics

$$$$

     RDKit          3D

 20 18  0  0  0  0  0  0  0  0999 V2000
    0.1127    0.6710   -2.3856 C   0  0  0  0  0  0  0  0  0  0  0  0
    0.1127    0.6710   -1.1875 C   0  0  0  0  0  0  0  0  0  0  0  0
    0.1127    0.6950    0.2763 C   0  0  0  0  0  3  0  0  0  0  0  0
   -1.1534    1.3714    0.8107 C   0  0  0  0  0  0  0  0  0  0  0  0
    1.3788    1.3714    0.8107 C   0  0  0  0  0  0  0  0  0  0  0  0
    0.1127    0.6710   -3.4489 H   0  0  0  0  0  0  0  0  0  0  0  0
    0.1127   -0.5537    0.6842 H   0  0  0  0  0  0  0  0  0  0  0  0
   -2.0504    0.8721    0.4447 H   0  0  0  0  0  0  0  0  0  0  0  0
   -1.1907    2.4149    0.4931 H   0  0  0  0  0  0  0  0  0  0  0  0
   -1.1607    1.3434    1.9017 H   0  0  0  0  0  0  0  0  0  0  0  0
    1.4162    2.4149    0.4931 H   0  0  0  0  0  0  0  0  0  0  0  0
    2.2759    0.8721    0.4447 H   0  0  0  0  0  0  0  0  0  0  0  0
    1.3862    1.3434    1.9017 H   0  0  0  0  0  0  0  0  0  0  0  0
   -0.5969   -2.7053    0.0942 C   0  0  0  0  0  0  0  0  0  0  0  0
    0.1127   -1.7987    1.0909 C   0  0  0  0  0  0  0  0  0  0  0  0
   -0.8788   -3.6544    0.5534 H   0  0  0  0  0  0  0  0  0  0  0  0
    0.0422   -2.9294   -0.7617 H   0  0  0  0  0  0  0  0  0  0  0  0
   -1.5074   -2.2391   -0.2865 H   0  0  0  0  0  0  0  0  0  0  0  0
    1.0232   -2.2649    1.4715 H   0  0  0  0  0  0  0  0  0  0  0  0
   -0.5264   -1.5746    1.9468 H   0  0  0  0  0  0  0  0  0  0  0  0
  1  2  3  0
  1  6  1  0
  2  3  1  0
  3  4  1  0
  3  5  1  0
  4  8  1  0
  4  9  1  0
  4 10  1  0
  5 11  1  0
  5 12  1  0
  5 13  1  0
  7 15  1  0
 14 15  1  0
 14 16  1  0
 14 17  1  0
 14 18  1  0
 15 19  1  0
 15 20  1  0
M  RAD  1   3   2
M  END
>  <reaction>  (13) 
rxn_1303

>  <mol_properties>  (13) 
{"1": {"label": "*0", "atom_type": "Ct"}, "2": {"label": "*1", "atom_type": "Cs"}, "6": {"label": "*2", "atom_type": "H0"}, "13": {"label": "*4", "atom_type": "Cs"}, "14": {"label": "*3", "atom_type": "Cs"}}

>  <type>  (13) 
unop_9

>  <geom_source>  (13) 
Heuristics

$$$$

     RDKit          3D

 20 18  0  0  0  0  0  0  0  0999 V2000
   -0.1934    0.6442   -2.4645 C   0  0  0  0  0  0  0  0  0  0  0  0
   -0.1934    0.6442   -1.2665 C   0  0  0  0  0  0  0  0  0  0  0  0
   -0.1934    0.6681    0.1973 C   0  0  0  0  0  3  0  0  0  0  0  0
   -1.4595    1.3446    0.7317 C   0  0  0  0  0  0  0  0  0  0  0  0
    1.0727    1.3445    0.7317 C   0  0  0  0  0  0  0  0  0  0  0  0
   -0.1934    0.6442   -3.5279 H   0  0  0  0  0  0  0  0  0  0  0  0
   -0.1934   -0.5805    0.6052 H   0  0  0  0  0  0  0  0  0  0  0  0
   -2.3566    0.8453    0.3658 H   0  0  0  0  0  0  0  0  0  0  0  0
   -1.4969    2.3881    0.4142 H   0  0  0  0  0  0  0  0  0  0  0  0
   -1.4668    1.3166    1.8228 H   0  0  0  0  0  0  0  0  0  0  0  0
    1.1101    2.3881    0.4142 H   0  0  0  0  0  0  0  0  0  0  0  0
    1.9698    0.8452    0.3658 H   0  0  0  0  0  0  0  0  0  0  0  0
    1.0801    1.3165    1.8228 H   0  0  0  0  0  0  0  0  0  0  0  0
    1.0355   -2.5708    0.5089 C   0  0  0  0  0  0  0  0  0  0  0  0
   -0.1934   -1.8255    1.0119 C   0  0  0  0  0  0  0  0  0  0  0  0
    1.3505   -3.3387    1.2178 H   0  0  0  0  0  0  0  0  0  0  0  0
    1.8774   -1.8920    0.3615 H   0  0  0  0  0  0  0  0  0  0  0  0
    0.8372   -3.0631   -0.4448 H   0  0  0  0  0  0  0  0  0  0  0  0
    0.0049   -1.3333    1.9656 H   0  0  0  0  0  0  0  0  0  0  0  0
   -1.0353   -2.5043    1.1593 H   0  0  0  0  0  0  0  0  0  0  0  0
  1  2  3  0
  1  6  1  0
  2  3  1  0
  3  4  1  0
  3  5  1  0
  4  8  1  0
  4  9  1  0
  4 10  1  0
  5 11  1  0
  5 12  1  0
  5 13  1  0
  7 15  1  0
 14 15  1  0
 14 16  1  0
 14 17  1  0
 14 18  1  0
 15 19  1  0
 15 20  1  0
M  RAD  1   3   2
M  END
>  <reaction>  (14) 
rxn_1303

>  <mol_properties>  (14) 
{"1": {"label": "*0", "atom_type": "Ct"}, "2": {"label": "*1", "atom_type": "Cs"}, "6": {"label": "*2", "atom_type": "H0"}, "13": {"label": "*4", "atom_type": "Cs"}, "14": {"label": "*3", "atom_type": "Cs"}}

>  <type>  (14) 
unop_10

>  <geom_source>  (14) 
Heuristics

$$$$

     RDKit          3D

 20 18  0  0  0  0  0  0  0  0999 V2000
    0.1056    0.5518   -2.7482 C   0  0  0  0  0  0  0  0  0  0  0  0
    0.1056    0.5518   -1.5502 C   0  0  0  0  0  0  0  0  0  0  0  0
    0.1056    0.5757   -0.0864 C   0  0  0  0  0  3  0  0  0  0  0  0
   -1.1605    1.2522    0.4480 C   0  0  0  0  0  0  0  0  0  0  0  0
    1.3717    1.2521    0.4480 C   0  0  0  0  0  0  0  0  0  0  0  0
    0.1056    0.5518   -3.8116 H   0  0  0  0  0  0  0  0  0  0  0  0
    0.1056   -0.6730    0.3215 H   0  0  0  0  0  0  0  0  0  0  0  0
   -2.0576    0.7529    0.0821 H   0  0  0  0  0  0  0  0  0  0  0  0
   -1.1978    2.2957    0.1305 H   0  0  0  0  0  0  0  0  0  0  0  0
   -1.1678    1.2242    1.5391 H   0  0  0  0  0  0  0  0  0  0  0  0
    1.4091    2.2956    0.1305 H   0  0  0  0  0  0  0  0  0  0  0  0
    2.2688    0.7528    0.0821 H   0  0  0  0  0  0  0  0  0  0  0  0
    1.3791    1.2241    1.5391 H   0  0  0  0  0  0  0  0  0  0  0  0
   -0.6040   -2.0613    2.0679 C   0  0  0  0  0  0  0  0  0  0  0  0
    0.1056   -1.9179    0.7282 C   0  0  0  0  0  0  0  0  0  0  0  0
   -0.2015   -2.8981    2.6415 H   0  0  0  0  0  0  0  0  0  0  0  0
   -1.6727   -2.2369    1.9331 H   0  0  0  0  0  0  0  0  0  0  0  0
   -0.4911   -1.1607    2.6740 H   0  0  0  0  0  0  0  0  0  0  0  0
   -0.0073   -2.8185    0.1221 H   0  0  0  0  0  0  0  0  0  0  0  0
    1.1743   -1.7423    0.8631 H   0  0  0  0  0  0  0  0  0  0  0  0
  1  2  3  0
  1  6  1  0
  2  3  1  0
  3  4  1  0
  3  5  1  0
  4  8  1  0
  4  9  1  0
  4 10  1  0
  5 11  1  0
  5 12  1  0
  5 13  1  0
  7 15  1  0
 14 15  1  0
 14 16  1  0
 14 17  1  0
 14 18  1  0
 15 19  1  0
 15 20  1  0
M  RAD  1   3   2
M  END
>  <reaction>  (15) 
rxn_1303

>  <mol_properties>  (15) 
{"1": {"label": "*0", "atom_type": "Ct"}, "2": {"label": "*1", "atom_type": "Cs"}, "6": {"label": "*2", "atom_type": "H0"}, "13": {"label": "*4", "atom_type": "Cs"}, "14": {"label": "*3", "atom_type": "Cs"}}

>  <type>  (15) 
unop_11

>  <geom_source>  (15) 
Heuristics

$$$$

     RDKit          3D

 20 18  0  0  0  0  0  0  0  0999 V2000
    0.0000    0.6811   -2.3564 C   0  0  0  0  0  0  0  0  0  0  0  0
    0.0000    0.6811   -1.1583 C   0  0  0  0  0  0  0  0  0  0  0  0
    0.0000    0.7050    0.3055 C   0  0  0  0  0  3  0  0  0  0  0  0
   -1.2661    1.3815    0.8399 C   0  0  0  0  0  0  0  0  0  0  0  0
    1.2661    1.3814    0.8399 C   0  0  0  0  0  0  0  0  0  0  0  0
    0.0000    0.6811   -3.4197 H   0  0  0  0  0  0  0  0  0  0  0  0
   -0.0000   -0.5437    0.7134 H   0  0  0  0  0  0  0  0  0  0  0  0
   -2.1632    0.8822    0.4740 H   0  0  0  0  0  0  0  0  0  0  0  0
   -1.3034    2.4250    0.5224 H   0  0  0  0  0  0  0  0  0  0  0  0
   -1.2734    1.3535    1.9309 H   0  0  0  0  0  0  0  0  0  0  0  0
    1.3035    2.4249    0.5224 H   0  0  0  0  0  0  0  0  0  0  0  0
    2.1632    0.8821    0.4740 H   0  0  0  0  0  0  0  0  0  0  0  0
    1.2735    1.3534    1.9309 H   0  0  0  0  0  0  0  0  0  0  0  0
   -0.0000   -2.7543   -0.0574 C   0  0  0  0  0  0  0  0  0  0  0  0
   -0.0000   -1.7886    1.1201 C   0  0  0  0  0  0  0  0  0  0  0  0
   -0.0001   -3.7917    0.2815 H   0  0  0  0  0  0  0  0  0  0  0  0
    0.8808   -2.6121   -0.6859 H   0  0  0  0  0  0  0  0  0  0  0  0
   -0.8809   -2.6120   -0.6859 H   0  0  0  0  0  0  0  0  0  0  0  0
    0.8808   -1.9308    1.7487 H   0  0  0  0  0  0  0  0  0  0  0  0
   -0.8809   -1.9308    1.7487 H   0  0  0  0  0  0  0  0  0  0  0  0
  1  2  3  0
  1  6  1  0
  2  3  1  0
  3  4  1  0
  3  5  1  0
  4  8  1  0
  4  9  1  0
  4 10  1  0
  5 11  1  0
  5 12  1  0
  5 13  1  0
  7 15  1  0
 14 15  1  0
 14 16  1  0
 14 17  1  0
 14 18  1  0
 15 19  1  0
 15 20  1  0
M  RAD  1   3   2
M  END
>  <reaction>  (16) 
rxn_1303

>  <mol_properties>  (16) 
{"1": {"label": "*0", "atom_type": "Ct"}, "2": {"label": "*1", "atom_type": "Cs"}, "6": {"label": "*2", "atom_type": "H0"}, "13": {"label": "*4", "atom_type": "Cs"}, "14": {"label": "*3", "atom_type": "Cs"}}

>  <type>  (16) 
unop_12

>  <geom_source>  (16) 
Heuristics

$$$$

     RDKit          3D

 20 18  0  0  0  0  0  0  0  0999 V2000
    1.5946    0.3586   -0.4938 C   0  0  0  0  0  0  0  0  0  0  0  0
    2.7217    0.3462    0.5235 C   0  0  0  0  0  0  0  0  0  0  0  0
   -1.4106   -0.8290    1.3429 C   0  0  0  0  0  0  0  0  0  0  0  0
   -1.1849   -1.1584   -1.1519 C   0  0  0  0  0  0  0  0  0  0  0  0
   -0.8539   -0.2601    0.0388 C   0  0  0  0  0  3  0  0  0  0  0  0
   -1.3572    1.1032   -0.1867 C   0  0  0  0  0  0  0  0  0  0  0  0
   -1.7690    2.2212   -0.3716 C   0  0  0  0  0  0  0  0  0  0  0  0
    1.7482   -0.4523   -1.2366 H   0  0  0  0  0  0  0  0  0  0  0  0
    1.5729    1.3360   -1.0205 H   0  0  0  0  0  0  0  0  0  0  0  0
    0.4802    0.1777    0.0994 H   0  0  0  0  0  0  0  0  0  0  0  0
    2.5650    1.1564    1.2660 H   0  0  0  0  0  0  0  0  0  0  0  0
    2.7402   -0.6309    1.0500 H   0  0  0  0  0  0  0  0  0  0  0  0
    3.6942    0.5035    0.0111 H   0  0  0  0  0  0  0  0  0  0  0  0
   -1.1221   -0.1767    2.1945 H   0  0  0  0  0  0  0  0  0  0  0  0
   -0.9884   -1.8399    1.5243 H   0  0  0  0  0  0  0  0  0  0  0  0
   -2.5191   -0.9017    1.3001 H   0  0  0  0  0  0  0  0  0  0  0  0
   -0.7355   -0.7408   -2.0780 H   0  0  0  0  0  0  0  0  0  0  0  0
   -2.2849   -1.2434   -1.2881 H   0  0  0  0  0  0  0  0  0  0  0  0
   -0.7610   -2.1718   -0.9895 H   0  0  0  0  0  0  0  0  0  0  0  0
   -2.1307    3.2024   -0.5339 H   0  0  0  0  0  0  0  0  0  0  0  0
  1  2  1  0
  1  8  1  0
  1  9  1  0
  1 10  1  0
  2 11  1  0
  2 12  1  0
  2 13  1  0
  3  5  1  0
  3 14  1  0
  3 15  1  0
  3 16  1  0
  4  5  1  0
  4 17  1  0
  4 18  1  0
  4 19  1  0
  5  6  1  0
  6  7  3  0
  7 20  1  0
M  RAD  1   5   2
M  END
>  <reaction>  (17) 
rxn_1303

>  <mol_properties>  (17) 
{"1": {"label": "*0", "atom_type": "Ct"}, "2": {"label": "*1", "atom_type": "Cs"}, "6": {"label": "*2", "atom_type": "H0"}, "13": {"label": "*4", "atom_type": "Cs"}, "14": {"label": "*3", "atom_type": "Cs"}}

>  <type>  (17) 
unop_13

>  <geom_source>  (17) 
AutoTST

$$$$
