
     RDKit          3D

  7  6  0  0  0  0  0  0  0  0999 V2000
    1.6964   -0.0938    0.0583 C   0  0  0  0  0  0  0  0  0  0  0  0
    0.5019   -0.0278    0.0173 C   0  0  0  0  0  0  0  0  0  0  0  0
   -0.9505    0.0525   -0.0327 C   0  0  0  0  0  0  0  0  0  0  0  0
    2.7574   -0.1524    0.0947 H   0  0  0  0  0  0  0  0  0  0  0  0
   -1.2692    0.9972   -0.4754 H   0  0  0  0  0  0  0  0  0  0  0  0
   -1.3749   -0.0147    0.9700 H   0  0  0  0  0  0  0  0  0  0  0  0
   -1.3610   -0.7611   -0.6323 H   0  0  0  0  0  0  0  0  0  0  0  0
  1  2  3  0
  1  4  1  0
  2  3  1  0
  3  5  1  0
  3  6  1  0
  3  7  1  0
M  END
>  <reaction>  (1) 
rxn_1254

>  <mol_properties>  (1) 
{"2": {"label": "donator", "atom_type": "Cs"}, "4": {"label": "d_hydrogen", "atom_type": "H0"}}

>  <type>  (1) 
r1h

$$$$

     RDKit          3D

  4  3  0  0  0  0  0  0  0  0999 V2000
   -0.7528   -0.8706   -0.3839 S   0  0  0  0  0  0  0  0  0  0  0  0
    0.7502   -0.2564   -0.0649 C   0  0  0  0  0  3  0  0  0  0  0  0
    1.5655    0.9691    0.4633 S   0  0  0  0  0  0  0  0  0  0  0  0
   -1.5629    0.1579   -0.0146 H   0  0  0  0  0  0  0  0  0  0  0  0
  1  2  1  0
  1  4  1  0
  2  3  2  0
M  RAD  1   2   2
M  END
>  <reaction>  (2) 
rxn_1254

>  <mol_properties>  (2) 
{"1": {"label": "acceptor", "atom_type": "CS"}}

>  <type>  (2) 
r2

$$$$

     RDKit          3D

  5  4  0  0  0  0  0  0  0  0999 V2000
    1.2280   -0.4626    0.1225 S   0  0  0  0  0  0  0  0  0  0  0  0
   -0.4732   -0.2566   -0.0746 C   0  0  0  0  0  0  0  0  0  0  0  0
   -1.3314    1.1074   -0.0947 S   0  0  0  0  0  0  0  0  0  0  0  0
    1.5289    0.8405    0.2416 H   0  0  0  0  0  0  0  0  0  0  0  0
   -0.9523   -1.2286   -0.1949 H   0  0  0  0  0  0  0  0  0  0  0  0
  1  2  1  0
  1  4  1  0
  2  3  2  0
  2  5  1  0
M  END
>  <reaction>  (3) 
rxn_1254

>  <mol_properties>  (3) 
{"1": {"label": "acceptor", "atom_type": "CS"}, "4": {"label": "a_hydrogen", "atom_type": "H0"}}

>  <type>  (3) 
r2h

$$$$

     RDKit          3D

 11  9  0  0  0  0  0  0  0  0999 V2000
   -0.5074    0.5707    2.0787 S   0  0  0  0  0  0  0  0  0  0  0  0
   -0.0740    0.4844    0.4327 C   0  0  0  0  0  0  0  0  0  0  0  0
    0.5015    1.5329   -0.6127 S   0  0  0  0  0  0  0  0  0  0  0  0
   -0.2180    1.8664    2.3061 H   0  0  0  0  0  0  0  0  0  0  0  0
    0.2869   -1.6819   -2.9904 C   0  0  0  0  0  0  0  0  0  0  0  0
   -0.0816   -1.8845   -1.8616 C   0  0  0  0  0  0  0  0  0  0  0  0
   -0.4924   -2.0226   -0.5170 C   0  0  0  0  0  3  0  0  0  0  0  0
    0.6084   -1.5212   -3.9910 H   0  0  0  0  0  0  0  0  0  0  0  0
   -0.2992   -0.7740    0.0107 H   0  0  0  0  0  0  0  0  0  0  0  0
    0.1382   -2.6548    0.1035 H   0  0  0  0  0  0  0  0  0  0  0  0
   -1.5557   -2.1939   -0.3668 H   0  0  0  0  0  0  0  0  0  0  0  0
  1  2  1  0
  1  4  1  0
  2  3  2  0
  2  9  1  0
  5  6  3  0
  5  8  1  0
  6  7  1  0
  7 10  1  0
  7 11  1  0
M  RAD  1   7   2
M  END
>  <reaction>  (4) 
rxn_1254

>  <mol_properties>  (4) 
{"0": {"label": "*0", "atom_type": "S2s"}, "1": {"label": "*1", "atom_type": "CS"}, "5": {"label": "*4", "atom_type": "Ct"}, "6": {"label": "*3", "atom_type": "Cs"}, "8": {"label": "*2", "atom_type": "H0"}}

>  <type>  (4) 
ts

$$$$

     RDKit          3D

 11  9  0  0  0  0  0  0  0  0999 V2000
   -1.3402    1.0022    1.3776 S   0  0  0  0  0  0  0  0  0  0  0  0
    0.0352    0.6140    0.4117 C   0  0  0  0  0  0  0  0  0  0  0  0
    1.5826    0.9923    0.6568 S   0  0  0  0  0  0  0  0  0  0  0  0
   -0.6762    1.6811    2.3267 H   0  0  0  0  0  0  0  0  0  0  0  0
   -0.1876   -1.8245   -3.1653 C   0  0  0  0  0  0  0  0  0  0  0  0
   -0.1876   -1.8245   -1.9683 C   0  0  0  0  0  0  0  0  0  0  0  0
   -0.1876   -1.8245   -0.5129 C   0  0  0  0  0  3  0  0  0  0  0  0
   -0.1876   -1.8245   -4.2286 H   0  0  0  0  0  0  0  0  0  0  0  0
   -0.0762   -0.6049   -0.0504 H   0  0  0  0  0  0  0  0  0  0  0  0
    0.6461   -2.4130   -0.1275 H   0  0  0  0  0  0  0  0  0  0  0  0
   -1.1142   -2.2522   -0.1275 H   0  0  0  0  0  0  0  0  0  0  0  0
  1  2  1  0
  1  4  1  0
  2  3  2  0
  2  9  1  0
  5  6  3  0
  5  8  1  0
  6  7  1  0
  7 10  1  0
  7 11  1  0
M  RAD  1   7   2
M  END
>  <reaction>  (5) 
rxn_1254

>  <mol_properties>  (5) 
{"0": {"label": "*0", "atom_type": "S2s"}, "1": {"label": "*1", "atom_type": "CS"}, "5": {"label": "*4", "atom_type": "Ct"}, "6": {"label": "*3", "atom_type": "Cs"}, "8": {"label": "*2", "atom_type": "H0"}}

>  <type>  (5) 
unop_1

>  <geom_source>  (5) 
Heuristics

$$$$

     RDKit          3D

 11  9  0  0  0  0  0  0  0  0999 V2000
   -0.5331    1.5658   -0.4690 S   0  0  0  0  0  0  0  0  0  0  0  0
    0.1797    0.4520    0.6386 C   0  0  0  0  0  0  0  0  0  0  0  0
    0.5400    0.6639    2.1951 S   0  0  0  0  0  0  0  0  0  0  0  0
   -0.6584    2.5852    0.3958 H   0  0  0  0  0  0  0  0  0  0  0  0
   -0.0432   -1.9865   -2.9385 C   0  0  0  0  0  0  0  0  0  0  0  0
   -0.0432   -1.9865   -1.7415 C   0  0  0  0  0  0  0  0  0  0  0  0
   -0.0432   -1.9865   -0.2861 C   0  0  0  0  0  3  0  0  0  0  0  0
   -0.0432   -1.9865   -4.0018 H   0  0  0  0  0  0  0  0  0  0  0  0
    0.0683   -0.7669    0.1764 H   0  0  0  0  0  0  0  0  0  0  0  0
    0.7905   -2.5751    0.0993 H   0  0  0  0  0  0  0  0  0  0  0  0
   -0.9698   -2.4142    0.0993 H   0  0  0  0  0  0  0  0  0  0  0  0
  1  2  1  0
  1  4  1  0
  2  3  2  0
  2  9  1  0
  5  6  3  0
  5  8  1  0
  6  7  1  0
  7 10  1  0
  7 11  1  0
M  RAD  1   7   2
M  END
>  <reaction>  (6) 
rxn_1254

>  <mol_properties>  (6) 
{"0": {"label": "*0", "atom_type": "S2s"}, "1": {"label": "*1", "atom_type": "CS"}, "5": {"label": "*4", "atom_type": "Ct"}, "6": {"label": "*3", "atom_type": "Cs"}, "8": {"label": "*2", "atom_type": "H0"}}

>  <type>  (6) 
unop_2

>  <geom_source>  (6) 
Heuristics

$$$$

     RDKit          3D

 11  9  0  0  0  0  0  0  0  0999 V2000
   -0.8508    0.6836    1.9984 S   0  0  0  0  0  0  0  0  0  0  0  0
   -0.0477    0.5584    0.4770 C   0  0  0  0  0  0  0  0  0  0  0  0
    1.2097    1.4018   -0.0756 S   0  0  0  0  0  0  0  0  0  0  0  0
   -0.0870    1.6694    2.4959 H   0  0  0  0  0  0  0  0  0  0  0  0
   -0.2706   -1.8801   -3.1001 C   0  0  0  0  0  0  0  0  0  0  0  0
   -0.2706   -1.8801   -1.9030 C   0  0  0  0  0  0  0  0  0  0  0  0
   -0.2706   -1.8801   -0.4476 C   0  0  0  0  0  3  0  0  0  0  0  0
   -0.2706   -1.8801   -4.1634 H   0  0  0  0  0  0  0  0  0  0  0  0
   -0.1591   -0.6605    0.0148 H   0  0  0  0  0  0  0  0  0  0  0  0
    0.5632   -2.4687   -0.0622 H   0  0  0  0  0  0  0  0  0  0  0  0
   -1.1971   -2.3078   -0.0623 H   0  0  0  0  0  0  0  0  0  0  0  0
  1  2  1  0
  1  4  1  0
  2  3  2  0
  2  9  1  0
  5  6  3  0
  5  8  1  0
  6  7  1  0
  7 10  1  0
  7 11  1  0
M  RAD  1   7   2
M  END
>  <reaction>  (7) 
rxn_1254

>  <mol_properties>  (7) 
{"0": {"label": "*0", "atom_type": "S2s"}, "1": {"label": "*1", "atom_type": "CS"}, "5": {"label": "*4", "atom_type": "Ct"}, "6": {"label": "*3", "atom_type": "Cs"}, "8": {"label": "*2", "atom_type": "H0"}}

>  <type>  (7) 
unop_3

>  <geom_source>  (7) 
Heuristics

$$$$

     RDKit          3D

 11  9  0  0  0  0  0  0  0  0999 V2000
    1.3488    1.2609   -0.0243 S   0  0  0  0  0  0  0  0  0  0  0  0
   -0.1263    0.5577    0.5277 C   0  0  0  0  0  0  0  0  0  0  0  0
   -0.9141    0.8142    1.9101 S   0  0  0  0  0  0  0  0  0  0  0  0
    1.5634    2.0349    1.0516 H   0  0  0  0  0  0  0  0  0  0  0  0
   -0.3492   -1.8808   -3.0494 C   0  0  0  0  0  0  0  0  0  0  0  0
   -0.3492   -1.8808   -1.8523 C   0  0  0  0  0  0  0  0  0  0  0  0
   -0.3492   -1.8808   -0.3969 C   0  0  0  0  0  3  0  0  0  0  0  0
   -0.3492   -1.8808   -4.1127 H   0  0  0  0  0  0  0  0  0  0  0  0
   -0.2377   -0.6612    0.0655 H   0  0  0  0  0  0  0  0  0  0  0  0
    0.4845   -2.4694   -0.0115 H   0  0  0  0  0  0  0  0  0  0  0  0
   -1.2758   -2.3085   -0.0115 H   0  0  0  0  0  0  0  0  0  0  0  0
  1  2  1  0
  1  4  1  0
  2  3  2  0
  2  9  1  0
  5  6  3  0
  5  8  1  0
  6  7  1  0
  7 10  1  0
  7 11  1  0
M  RAD  1   7   2
M  END
>  <reaction>  (8) 
rxn_1254

>  <mol_properties>  (8) 
{"0": {"label": "*0", "atom_type": "S2s"}, "1": {"label": "*1", "atom_type": "CS"}, "5": {"label": "*4", "atom_type": "Ct"}, "6": {"label": "*3", "atom_type": "Cs"}, "8": {"label": "*2", "atom_type": "H0"}}

>  <type>  (8) 
unop_4

>  <geom_source>  (8) 
Heuristics

$$$$

     RDKit          3D

 11  9  0  0  0  0  0  0  0  0999 V2000
    0.0418    0.4578    2.2676 S   0  0  0  0  0  0  0  0  0  0  0  0
    0.0441    0.4829    0.5429 C   0  0  0  0  0  0  0  0  0  0  0  0
    0.1597    1.7469   -0.4503 S   0  0  0  0  0  0  0  0  0  0  0  0
    0.1630    1.7836    2.4418 H   0  0  0  0  0  0  0  0  0  0  0  0
   -0.1787   -1.9556   -3.0342 C   0  0  0  0  0  0  0  0  0  0  0  0
   -0.1787   -1.9556   -1.8372 C   0  0  0  0  0  0  0  0  0  0  0  0
   -0.1787   -1.9556   -0.3817 C   0  0  0  0  0  3  0  0  0  0  0  0
   -0.1787   -1.9556   -4.0975 H   0  0  0  0  0  0  0  0  0  0  0  0
   -0.0673   -0.7361    0.0807 H   0  0  0  0  0  0  0  0  0  0  0  0
    0.6550   -2.5442    0.0036 H   0  0  0  0  0  0  0  0  0  0  0  0
   -1.1053   -2.3833    0.0036 H   0  0  0  0  0  0  0  0  0  0  0  0
  1  2  1  0
  1  4  1  0
  2  3  2  0
  2  9  1  0
  5  6  3  0
  5  8  1  0
  6  7  1  0
  7 10  1  0
  7 11  1  0
M  RAD  1   7   2
M  END
>  <reaction>  (9) 
rxn_1254

>  <mol_properties>  (9) 
{"0": {"label": "*0", "atom_type": "S2s"}, "1": {"label": "*1", "atom_type": "CS"}, "5": {"label": "*4", "atom_type": "Ct"}, "6": {"label": "*3", "atom_type": "Cs"}, "8": {"label": "*2", "atom_type": "H0"}}

>  <type>  (9) 
unop_5

>  <geom_source>  (9) 
Heuristics

$$$$

     RDKit          3D

 11  9  0  0  0  0  0  0  0  0999 V2000
    1.6159    1.0111    0.6403 S   0  0  0  0  0  0  0  0  0  0  0  0
   -0.0496    0.6131    0.4334 C   0  0  0  0  0  0  0  0  0  0  0  0
   -1.3031    0.9847    1.3758 S   0  0  0  0  0  0  0  0  0  0  0  0
    1.4712    1.6899    1.7896 H   0  0  0  0  0  0  0  0  0  0  0  0
   -0.2725   -1.8254   -3.1437 C   0  0  0  0  0  0  0  0  0  0  0  0
   -0.2725   -1.8254   -1.9467 C   0  0  0  0  0  0  0  0  0  0  0  0
   -0.2725   -1.8254   -0.4912 C   0  0  0  0  0  3  0  0  0  0  0  0
   -0.2725   -1.8254   -4.2070 H   0  0  0  0  0  0  0  0  0  0  0  0
   -0.1610   -0.6058   -0.0288 H   0  0  0  0  0  0  0  0  0  0  0  0
    0.5612   -2.4140   -0.1059 H   0  0  0  0  0  0  0  0  0  0  0  0
   -1.1991   -2.2531   -0.1059 H   0  0  0  0  0  0  0  0  0  0  0  0
  1  2  1  0
  1  4  1  0
  2  3  2  0
  2  9  1  0
  5  6  3  0
  5  8  1  0
  6  7  1  0
  7 10  1  0
  7 11  1  0
M  RAD  1   7   2
M  END
>  <reaction>  (10) 
rxn_1254

>  <mol_properties>  (10) 
{"0": {"label": "*0", "atom_type": "S2s"}, "1": {"label": "*1", "atom_type": "CS"}, "5": {"label": "*4", "atom_type": "Ct"}, "6": {"label": "*3", "atom_type": "Cs"}, "8": {"label": "*2", "atom_type": "H0"}}

>  <type>  (10) 
unop_6

>  <geom_source>  (10) 
Heuristics

$$$$

     RDKit          3D

 11  9  0  0  0  0  0  0  0  0999 V2000
    1.4997    0.7427    1.3776 S   0  0  0  0  0  0  0  0  0  0  0  0
    0.0767    0.6102    0.4117 C   0  0  0  0  0  0  0  0  0  0  0  0
   -1.3765    1.2627    0.6568 S   0  0  0  0  0  0  0  0  0  0  0  0
    0.9697    1.5307    2.3267 H   0  0  0  0  0  0  0  0  0  0  0  0
   -0.1462   -1.8283   -3.1653 C   0  0  0  0  0  0  0  0  0  0  0  0
   -0.1462   -1.8283   -1.9683 C   0  0  0  0  0  0  0  0  0  0  0  0
   -0.1462   -1.8283   -0.5129 C   0  0  0  0  0  3  0  0  0  0  0  0
   -0.1462   -1.8283   -4.2286 H   0  0  0  0  0  0  0  0  0  0  0  0
   -0.0347   -0.6087   -0.0504 H   0  0  0  0  0  0  0  0  0  0  0  0
    0.6875   -2.4168   -0.1275 H   0  0  0  0  0  0  0  0  0  0  0  0
   -1.0728   -2.2560   -0.1275 H   0  0  0  0  0  0  0  0  0  0  0  0
  1  2  1  0
  1  4  1  0
  2  3  2  0
  2  9  1  0
  5  6  3  0
  5  8  1  0
  6  7  1  0
  7 10  1  0
  7 11  1  0
M  RAD  1   7   2
M  END
>  <reaction>  (11) 
rxn_1254

>  <mol_properties>  (11) 
{"0": {"label": "*0", "atom_type": "S2s"}, "1": {"label": "*1", "atom_type": "CS"}, "5": {"label": "*4", "atom_type": "Ct"}, "6": {"label": "*3", "atom_type": "Cs"}, "8": {"label": "*2", "atom_type": "H0"}}

>  <type>  (11) 
unop_7

>  <geom_source>  (11) 
Heuristics

$$$$

     RDKit          3D

 11  9  0  0  0  0  0  0  0  0999 V2000
   -1.4059    1.2873    0.6403 S   0  0  0  0  0  0  0  0  0  0  0  0
    0.1599    0.5939    0.4334 C   0  0  0  0  0  0  0  0  0  0  0  0
    1.4600    0.7322    1.3758 S   0  0  0  0  0  0  0  0  0  0  0  0
   -1.1405    1.9286    1.7896 H   0  0  0  0  0  0  0  0  0  0  0  0
   -0.0629   -1.8446   -3.1437 C   0  0  0  0  0  0  0  0  0  0  0  0
   -0.0629   -1.8446   -1.9467 C   0  0  0  0  0  0  0  0  0  0  0  0
   -0.0629   -1.8446   -0.4912 C   0  0  0  0  0  3  0  0  0  0  0  0
   -0.0629   -1.8446   -4.2070 H   0  0  0  0  0  0  0  0  0  0  0  0
    0.0485   -0.6250   -0.0288 H   0  0  0  0  0  0  0  0  0  0  0  0
    0.7708   -2.4331   -0.1059 H   0  0  0  0  0  0  0  0  0  0  0  0
   -0.9895   -2.2723   -0.1059 H   0  0  0  0  0  0  0  0  0  0  0  0
  1  2  1  0
  1  4  1  0
  2  3  2  0
  2  9  1  0
  5  6  3  0
  5  8  1  0
  6  7  1  0
  7 10  1  0
  7 11  1  0
M  RAD  1   7   2
M  END
>  <reaction>  (12) 
rxn_1254

>  <mol_properties>  (12) 
{"0": {"label": "*0", "atom_type": "S2s"}, "1": {"label": "*1", "atom_type": "CS"}, "5": {"label": "*4", "atom_type": "Ct"}, "6": {"label": "*3", "atom_type": "Cs"}, "8": {"label": "*2", "atom_type": "H0"}}

>  <type>  (12) 
unop_8

>  <geom_source>  (12) 
Heuristics

$$$$

     RDKit          3D

 11  9  0  0  0  0  0  0  0  0999 V2000
    0.8081    1.4432   -0.4690 S   0  0  0  0  0  0  0  0  0  0  0  0
   -0.0947    0.4771    0.6386 C   0  0  0  0  0  0  0  0  0  0  0  0
   -0.4107    0.7507    2.1951 S   0  0  0  0  0  0  0  0  0  0  0  0
    1.1161    2.4230    0.3958 H   0  0  0  0  0  0  0  0  0  0  0  0
   -0.3176   -1.9614   -2.9385 C   0  0  0  0  0  0  0  0  0  0  0  0
   -0.3176   -1.9614   -1.7415 C   0  0  0  0  0  0  0  0  0  0  0  0
   -0.3176   -1.9614   -0.2861 C   0  0  0  0  0  3  0  0  0  0  0  0
   -0.3176   -1.9614   -4.0018 H   0  0  0  0  0  0  0  0  0  0  0  0
   -0.2061   -0.7418    0.1764 H   0  0  0  0  0  0  0  0  0  0  0  0
    0.5161   -2.5500    0.0993 H   0  0  0  0  0  0  0  0  0  0  0  0
   -1.2442   -2.3891    0.0993 H   0  0  0  0  0  0  0  0  0  0  0  0
  1  2  1  0
  1  4  1  0
  2  3  2  0
  2  9  1  0
  5  6  3  0
  5  8  1  0
  6  7  1  0
  7 10  1  0
  7 11  1  0
M  RAD  1   7   2
M  END
>  <reaction>  (13) 
rxn_1254

>  <mol_properties>  (13) 
{"0": {"label": "*0", "atom_type": "S2s"}, "1": {"label": "*1", "atom_type": "CS"}, "5": {"label": "*4", "atom_type": "Ct"}, "6": {"label": "*3", "atom_type": "Cs"}, "8": {"label": "*2", "atom_type": "H0"}}

>  <type>  (13) 
unop_9

>  <geom_source>  (13) 
Heuristics

$$$$

     RDKit          3D

 11  9  0  0  0  0  0  0  0  0999 V2000
   -1.0979    1.4845   -0.0243 S   0  0  0  0  0  0  0  0  0  0  0  0
    0.2253    0.5256    0.5277 C   0  0  0  0  0  0  0  0  0  0  0  0
    1.0465    0.6350    1.9101 S   0  0  0  0  0  0  0  0  0  0  0  0
   -1.1686    2.2846    1.0516 H   0  0  0  0  0  0  0  0  0  0  0  0
    0.0025   -1.9129   -3.0494 C   0  0  0  0  0  0  0  0  0  0  0  0
    0.0025   -1.9129   -1.8523 C   0  0  0  0  0  0  0  0  0  0  0  0
    0.0025   -1.9129   -0.3969 C   0  0  0  0  0  3  0  0  0  0  0  0
    0.0025   -1.9129   -4.1127 H   0  0  0  0  0  0  0  0  0  0  0  0
    0.1139   -0.6934    0.0655 H   0  0  0  0  0  0  0  0  0  0  0  0
    0.8362   -2.5015   -0.0115 H   0  0  0  0  0  0  0  0  0  0  0  0
   -0.9241   -2.3406   -0.0115 H   0  0  0  0  0  0  0  0  0  0  0  0
  1  2  1  0
  1  4  1  0
  2  3  2  0
  2  9  1  0
  5  6  3  0
  5  8  1  0
  6  7  1  0
  7 10  1  0
  7 11  1  0
M  RAD  1   7   2
M  END
>  <reaction>  (14) 
rxn_1254

>  <mol_properties>  (14) 
{"0": {"label": "*0", "atom_type": "S2s"}, "1": {"label": "*1", "atom_type": "CS"}, "5": {"label": "*4", "atom_type": "Ct"}, "6": {"label": "*3", "atom_type": "Cs"}, "8": {"label": "*2", "atom_type": "H0"}}

>  <type>  (14) 
unop_10

>  <geom_source>  (14) 
Heuristics

$$$$

     RDKit          3D

 11  9  0  0  0  0  0  0  0  0999 V2000
    0.9607    0.5181    1.9984 S   0  0  0  0  0  0  0  0  0  0  0  0
    0.1481    0.5405    0.4770 C   0  0  0  0  0  0  0  0  0  0  0  0
   -0.9355    1.5978   -0.0756 S   0  0  0  0  0  0  0  0  0  0  0  0
    0.3882    1.6260    2.4959 H   0  0  0  0  0  0  0  0  0  0  0  0
   -0.0747   -1.8980   -3.1001 C   0  0  0  0  0  0  0  0  0  0  0  0
   -0.0747   -1.8980   -1.9030 C   0  0  0  0  0  0  0  0  0  0  0  0
   -0.0747   -1.8980   -0.4476 C   0  0  0  0  0  3  0  0  0  0  0  0
   -0.0747   -1.8980   -4.1634 H   0  0  0  0  0  0  0  0  0  0  0  0
    0.0367   -0.6784    0.0148 H   0  0  0  0  0  0  0  0  0  0  0  0
    0.7590   -2.4866   -0.0622 H   0  0  0  0  0  0  0  0  0  0  0  0
   -1.0013   -2.3257   -0.0623 H   0  0  0  0  0  0  0  0  0  0  0  0
  1  2  1  0
  1  4  1  0
  2  3  2  0
  2  9  1  0
  5  6  3  0
  5  8  1  0
  6  7  1  0
  7 10  1  0
  7 11  1  0
M  RAD  1   7   2
M  END
>  <reaction>  (15) 
rxn_1254

>  <mol_properties>  (15) 
{"0": {"label": "*0", "atom_type": "S2s"}, "1": {"label": "*1", "atom_type": "CS"}, "5": {"label": "*4", "atom_type": "Ct"}, "6": {"label": "*3", "atom_type": "Cs"}, "8": {"label": "*2", "atom_type": "H0"}}

>  <type>  (15) 
unop_11

>  <geom_source>  (15) 
Heuristics

$$$$

     RDKit          3D

 11  9  0  0  0  0  0  0  0  0999 V2000
    0.1411    1.5442   -0.6216 S   0  0  0  0  0  0  0  0  0  0  0  0
    0.0391    0.4278    0.6893 C   0  0  0  0  0  0  0  0  0  0  0  0
    0.0660    0.7227    2.2736 S   0  0  0  0  0  0  0  0  0  0  0  0
    0.2425    2.6538    0.1276 H   0  0  0  0  0  0  0  0  0  0  0  0
   -0.1838   -2.0107   -2.8878 C   0  0  0  0  0  0  0  0  0  0  0  0
   -0.1838   -2.0107   -1.6907 C   0  0  0  0  0  0  0  0  0  0  0  0
   -0.1838   -2.0107   -0.2353 C   0  0  0  0  0  3  0  0  0  0  0  0
   -0.1838   -2.0107   -3.9510 H   0  0  0  0  0  0  0  0  0  0  0  0
   -0.0723   -0.7911    0.2271 H   0  0  0  0  0  0  0  0  0  0  0  0
    0.6499   -2.5993    0.1501 H   0  0  0  0  0  0  0  0  0  0  0  0
   -1.1104   -2.4384    0.1501 H   0  0  0  0  0  0  0  0  0  0  0  0
  1  2  1  0
  1  4  1  0
  2  3  2  0
  2  9  1  0
  5  6  3  0
  5  8  1  0
  6  7  1  0
  7 10  1  0
  7 11  1  0
M  RAD  1   7   2
M  END
>  <reaction>  (16) 
rxn_1254

>  <mol_properties>  (16) 
{"0": {"label": "*0", "atom_type": "S2s"}, "1": {"label": "*1", "atom_type": "CS"}, "5": {"label": "*4", "atom_type": "Ct"}, "6": {"label": "*3", "atom_type": "Cs"}, "8": {"label": "*2", "atom_type": "H0"}}

>  <type>  (16) 
unop_12

>  <geom_source>  (16) 
Heuristics

$$$$

     RDKit          3D

 11  9  0  0  0  0  0  0  0  0999 V2000
    2.6314   -0.0701    0.8111 S   0  0  0  0  0  0  0  0  0  0  0  0
    1.8485    0.6945   -1.7630 S   0  0  0  0  0  0  0  0  0  0  0  0
   -0.8102   -1.1129   -0.1331 C   0  0  0  0  0  3  0  0  0  0  0  0
    1.5480   -0.1056   -0.6125 C   0  0  0  0  0  0  0  0  0  0  0  0
   -1.3740    0.2206    0.0783 C   0  0  0  0  0  0  0  0  0  0  0  0
   -1.8384    1.3192    0.2524 C   0  0  0  0  0  0  0  0  0  0  0  0
    0.4675   -0.8841   -0.6069 H   0  0  0  0  0  0  0  0  0  0  0  0
   -1.5384   -1.7390   -0.6887 H   0  0  0  0  0  0  0  0  0  0  0  0
   -0.5917   -1.5823    0.8481 H   0  0  0  0  0  0  0  0  0  0  0  0
    1.9035    0.9759    1.4090 H   0  0  0  0  0  0  0  0  0  0  0  0
   -2.2462    2.2838    0.4053 H   0  0  0  0  0  0  0  0  0  0  0  0
  1  4  1  0
  1 10  1  0
  2  4  2  0
  3  5  1  0
  3  8  1  0
  3  9  1  0
  4  7  1  0
  5  6  3  0
  6 11  1  0
M  RAD  1   3   2
M  END
>  <reaction>  (17) 
rxn_1254

>  <mol_properties>  (17) 
{"0": {"label": "*0", "atom_type": "S2s"}, "1": {"label": "*1", "atom_type": "CS"}, "5": {"label": "*4", "atom_type": "Ct"}, "6": {"label": "*3", "atom_type": "Cs"}, "8": {"label": "*2", "atom_type": "H0"}}

>  <type>  (17) 
unop_13

>  <geom_source>  (17) 
AutoTST

$$$$
