
     RDKit          3D

 15 14  0  0  0  0  0  0  0  0999 V2000
    2.1256    0.4849   -0.6284 C   0  0  0  0  0  0  0  0  0  0  0  0
    1.1128    0.2141    0.1794 C   0  0  0  0  0  0  0  0  0  0  0  0
   -0.3017   -0.0425   -0.2513 C   0  0  0  0  0  0  0  0  0  0  0  0
   -1.2427    1.0075    0.3423 C   0  0  0  0  0  0  0  0  0  0  0  0
   -0.7381   -1.4526    0.1504 C   0  0  0  0  0  0  0  0  0  0  0  0
    3.1243    0.6602   -0.2486 H   0  0  0  0  0  0  0  0  0  0  0  0
    1.9908    0.5411   -1.7036 H   0  0  0  0  0  0  0  0  0  0  0  0
    1.2888    0.1665    1.2533 H   0  0  0  0  0  0  0  0  0  0  0  0
   -0.3426    0.0343   -1.3424 H   0  0  0  0  0  0  0  0  0  0  0  0
   -0.9570    2.0133    0.0315 H   0  0  0  0  0  0  0  0  0  0  0  0
   -1.2189    0.9728    1.4350 H   0  0  0  0  0  0  0  0  0  0  0  0
   -2.2723    0.8287    0.0254 H   0  0  0  0  0  0  0  0  0  0  0  0
   -0.6964   -1.5744    1.2363 H   0  0  0  0  0  0  0  0  0  0  0  0
   -0.0911   -2.2079   -0.2978 H   0  0  0  0  0  0  0  0  0  0  0  0
   -1.7646   -1.6461   -0.1677 H   0  0  0  0  0  0  0  0  0  0  0  0
  1  2  2  3
  1  6  1  0
  1  7  1  0
  2  3  1  0
  2  8  1  0
  3  4  1  0
  3  5  1  0
  3  9  1  0
  4 10  1  0
  4 11  1  0
  4 12  1  0
  5 13  1  0
  5 14  1  0
  5 15  1  0
M  END
>  <reaction>  (1) 
rxn_1114

>  <mol_properties>  (1) 
{"2": {"label": "donator", "atom_type": "Cs"}, "8": {"label": "d_hydrogen", "atom_type": "H0"}}

>  <type>  (1) 
r1h

$$$$

     RDKit          3D

  7  6  0  0  0  0  0  0  0  0999 V2000
    1.8092   -0.3013   -0.2242 S   0  0  0  0  0  0  0  0  0  0  0  0
    0.1552   -0.6967   -0.1137 C   0  0  0  0  0  0  0  0  0  0  0  0
   -0.8921    0.1788    0.1148 C   0  0  0  0  0  0  0  0  0  0  0  0
   -0.7548    1.8245    0.3328 S   0  0  0  0  0  1  0  0  0  0  0  0
    1.6168    1.0210   -0.0187 H   0  0  0  0  0  0  0  0  0  0  0  0
   -0.0550   -1.7522   -0.2412 H   0  0  0  0  0  0  0  0  0  0  0  0
   -1.8791   -0.2740    0.1502 H   0  0  0  0  0  0  0  0  0  0  0  0
  1  2  1  0
  1  5  1  0
  2  3  2  3
  2  6  1  0
  3  4  1  0
  3  7  1  0
M  RAD  1   4   2
M  END
>  <reaction>  (2) 
rxn_1114

>  <mol_properties>  (2) 
{"1": {"label": "acceptor", "atom_type": "Cs"}}

>  <type>  (2) 
r2

$$$$

     RDKit          3D

  8  7  0  0  0  0  0  0  0  0999 V2000
    1.7301   -0.0562    0.5281 S   0  0  0  0  0  0  0  0  0  0  0  0
    0.1858    0.6127   -0.1669 C   0  0  0  0  0  0  0  0  0  0  0  0
   -0.9621   -0.2567    0.2171 C   0  0  0  0  0  0  0  0  0  0  0  0
   -1.8663   -1.1002   -0.8086 S   0  0  0  0  0  0  0  0  0  0  0  0
    1.7025   -1.2092   -0.1540 H   0  0  0  0  0  0  0  0  0  0  0  0
    0.2619    0.7246   -1.2458 H   0  0  0  0  0  0  0  0  0  0  0  0
    0.0809    1.5982    0.2929 H   0  0  0  0  0  0  0  0  0  0  0  0
   -1.1456   -0.3126    1.2907 H   0  0  0  0  0  0  0  0  0  0  0  0
  1  2  1  0
  1  5  1  0
  2  3  1  0
  2  6  1  0
  2  7  1  0
  3  4  2  0
  3  8  1  0
M  END
>  <reaction>  (3) 
rxn_1114

>  <mol_properties>  (3) 
{"1": {"label": "acceptor", "atom_type": "Cs"}, "7": {"label": "a_hydrogen", "atom_type": "H0"}}

>  <type>  (3) 
r2h

$$$$

     RDKit          3D

 22 20  0  0  0  0  0  0  0  0999 V2000
   -2.0766    0.8191   -1.0208 S   0  0  0  0  0  0  0  0  0  0  0  0
   -0.7111    1.1767    0.0495 C   0  0  0  0  0  0  0  0  0  0  0  0
    0.6061    1.4271   -0.4765 C   0  0  0  0  0  0  0  0  0  0  0  0
    1.1787    1.0256   -1.9508 S   0  0  0  0  0  0  0  0  0  0  0  0
   -1.3020    0.4234   -2.0486 H   0  0  0  0  0  0  0  0  0  0  0  0
   -1.0081    1.8414    0.8584 H   0  0  0  0  0  0  0  0  0  0  0  0
    1.2870    1.8696    0.2503 H   0  0  0  0  0  0  0  0  0  0  0  0
    0.4536   -2.5896   -0.3993 C   0  0  0  0  0  0  0  0  0  0  0  0
   -0.5251   -2.0723    0.3576 C   0  0  0  0  0  0  0  0  0  0  0  0
   -0.3563   -1.1235    1.4384 C   0  0  0  0  0  3  0  0  0  0  0  0
    1.0236   -0.8939    1.9944 C   0  0  0  0  0  0  0  0  0  0  0  0
   -1.4918   -1.0170    2.4231 C   0  0  0  0  0  0  0  0  0  0  0  0
    0.2248   -3.2614   -1.2157 H   0  0  0  0  0  0  0  0  0  0  0  0
    1.4986   -2.3617   -0.2328 H   0  0  0  0  0  0  0  0  0  0  0  0
   -1.5512   -2.3388    0.1231 H   0  0  0  0  0  0  0  0  0  0  0  0
   -0.5143    0.0749    0.7131 H   0  0  0  0  0  0  0  0  0  0  0  0
    1.7474   -0.6765    1.2071 H   0  0  0  0  0  0  0  0  0  0  0  0
    1.3750   -1.7791    2.5332 H   0  0  0  0  0  0  0  0  0  0  0  0
    1.0231   -0.0557    2.6933 H   0  0  0  0  0  0  0  0  0  0  0  0
   -1.4681   -1.8530    3.1300 H   0  0  0  0  0  0  0  0  0  0  0  0
   -2.4572   -1.0362    1.9147 H   0  0  0  0  0  0  0  0  0  0  0  0
   -1.4257   -0.0954    3.0051 H   0  0  0  0  0  0  0  0  0  0  0  0
  1  2  1  0
  1  5  1  0
  2  3  1  0
  2  6  1  0
  2 16  1  0
  3  4  2  0
  3  7  1  0
  8  9  2  3
  8 13  1  0
  8 14  1  0
  9 10  1  0
  9 15  1  0
 10 11  1  0
 10 12  1  0
 11 17  1  0
 11 18  1  0
 11 19  1  0
 12 20  1  0
 12 21  1  0
 12 22  1  0
M  RAD  1  10   2
M  END
>  <reaction>  (4) 
rxn_1114

>  <mol_properties>  (4) 
{"1": {"label": "*1", "atom_type": "Cs"}, "2": {"label": "*0", "atom_type": "CS"}, "8": {"label": "*4", "atom_type": "Cd"}, "9": {"label": "*3", "atom_type": "Cs"}, "15": {"label": "*2", "atom_type": "H0"}}

>  <type>  (4) 
ts

$$$$

     RDKit          3D

 22 20  0  0  0  0  0  0  0  0999 V2000
   -1.3739    2.0091    0.2781 S   0  0  0  0  0  0  0  0  0  0  0  0
    0.0990    0.9808   -0.0195 C   0  0  0  0  0  0  0  0  0  0  0  0
    0.7303    1.3610   -1.3147 C   0  0  0  0  0  0  0  0  0  0  0  0
    0.8518    0.4043   -2.5998 S   0  0  0  0  0  0  0  0  0  0  0  0
   -2.0657    1.5729   -0.7834 H   0  0  0  0  0  0  0  0  0  0  0  0
    0.7711    1.2158    0.8093 H   0  0  0  0  0  0  0  0  0  0  0  0
    1.0993    2.3866   -1.3524 H   0  0  0  0  0  0  0  0  0  0  0  0
    0.0990   -2.3465   -0.6592 C   0  0  0  0  0  0  0  0  0  0  0  0
    0.0990   -2.3465    0.6643 C   0  0  0  0  0  0  0  0  0  0  0  0
    0.0990   -1.1251    1.5363 C   0  0  0  0  0  3  0  0  0  0  0  0
    1.3583   -1.0847    2.4039 C   0  0  0  0  0  0  0  0  0  0  0  0
   -1.1603   -1.0847    2.4039 C   0  0  0  0  0  0  0  0  0  0  0  0
    0.0990   -3.2682   -1.2275 H   0  0  0  0  0  0  0  0  0  0  0  0
    0.0990   -1.4199   -1.2238 H   0  0  0  0  0  0  0  0  0  0  0  0
    0.0990   -3.2978    1.1948 H   0  0  0  0  0  0  0  0  0  0  0  0
    0.0990   -0.0687    0.7558 H   0  0  0  0  0  0  0  0  0  0  0  0
    2.2599   -1.0788    1.7898 H   0  0  0  0  0  0  0  0  0  0  0  0
    1.4029   -1.9585    3.0597 H   0  0  0  0  0  0  0  0  0  0  0  0
    1.3658   -0.1935    3.0349 H   0  0  0  0  0  0  0  0  0  0  0  0
   -1.2049   -1.9585    3.0597 H   0  0  0  0  0  0  0  0  0  0  0  0
   -2.0619   -1.0788    1.7898 H   0  0  0  0  0  0  0  0  0  0  0  0
   -1.1678   -0.1935    3.0349 H   0  0  0  0  0  0  0  0  0  0  0  0
  1  2  1  0
  1  5  1  0
  2  3  1  0
  2  6  1  0
  2 16  1  0
  3  4  2  0
  3  7  1  0
  8  9  2  3
  8 13  1  0
  8 14  1  0
  9 10  1  0
  9 15  1  0
 10 11  1  0
 10 12  1  0
 11 17  1  0
 11 18  1  0
 11 19  1  0
 12 20  1  0
 12 21  1  0
 12 22  1  0
M  RAD  1  10   2
M  END
>  <reaction>  (5) 
rxn_1114

>  <mol_properties>  (5) 
{"1": {"label": "*1", "atom_type": "Cs"}, "2": {"label": "*0", "atom_type": "CS"}, "8": {"label": "*4", "atom_type": "Cd"}, "9": {"label": "*3", "atom_type": "Cs"}, "15": {"label": "*2", "atom_type": "H0"}}

>  <type>  (5) 
unop_1

>  <geom_source>  (5) 
Heuristics

$$$$

     RDKit          3D

 22 20  0  0  0  0  0  0  0  0999 V2000
   -1.3098    0.6655   -1.8046 S   0  0  0  0  0  0  0  0  0  0  0  0
   -0.4594    1.0177   -0.2336 C   0  0  0  0  0  0  0  0  0  0  0  0
    0.7199    1.8947   -0.4801 C   0  0  0  0  0  0  0  0  0  0  0  0
    2.2510    1.4762   -0.2316 S   0  0  0  0  0  0  0  0  0  0  0  0
   -0.2877    0.0118   -2.3733 H   0  0  0  0  0  0  0  0  0  0  0  0
   -1.2017    1.5468    0.3689 H   0  0  0  0  0  0  0  0  0  0  0  0
    0.4742    2.8769   -0.8856 H   0  0  0  0  0  0  0  0  0  0  0  0
   -0.4594   -2.3096   -0.8733 C   0  0  0  0  0  0  0  0  0  0  0  0
   -0.4594   -2.3096    0.4502 C   0  0  0  0  0  0  0  0  0  0  0  0
   -0.4594   -1.0882    1.3222 C   0  0  0  0  0  3  0  0  0  0  0  0
    0.7999   -1.0478    2.1899 C   0  0  0  0  0  0  0  0  0  0  0  0
   -1.7187   -1.0478    2.1899 C   0  0  0  0  0  0  0  0  0  0  0  0
   -0.4594   -3.2313   -1.4416 H   0  0  0  0  0  0  0  0  0  0  0  0
   -0.4594   -1.3831   -1.4379 H   0  0  0  0  0  0  0  0  0  0  0  0
   -0.4594   -3.2609    0.9807 H   0  0  0  0  0  0  0  0  0  0  0  0
   -0.4594   -0.0318    0.5418 H   0  0  0  0  0  0  0  0  0  0  0  0
    1.7014   -1.0419    1.5757 H   0  0  0  0  0  0  0  0  0  0  0  0
    0.8445   -1.9216    2.8457 H   0  0  0  0  0  0  0  0  0  0  0  0
    0.8074   -0.1566    2.8209 H   0  0  0  0  0  0  0  0  0  0  0  0
   -1.7633   -1.9216    2.8457 H   0  0  0  0  0  0  0  0  0  0  0  0
   -2.6203   -1.0419    1.5757 H   0  0  0  0  0  0  0  0  0  0  0  0
   -1.7263   -0.1566    2.8209 H   0  0  0  0  0  0  0  0  0  0  0  0
  1  2  1  0
  1  5  1  0
  2  3  1  0
  2  6  1  0
  2 16  1  0
  3  4  2  0
  3  7  1  0
  8  9  2  3
  8 13  1  0
  8 14  1  0
  9 10  1  0
  9 15  1  0
 10 11  1  0
 10 12  1  0
 11 17  1  0
 11 18  1  0
 11 19  1  0
 12 20  1  0
 12 21  1  0
 12 22  1  0
M  RAD  1  10   2
M  END
>  <reaction>  (6) 
rxn_1114

>  <mol_properties>  (6) 
{"1": {"label": "*1", "atom_type": "Cs"}, "2": {"label": "*0", "atom_type": "CS"}, "8": {"label": "*4", "atom_type": "Cd"}, "9": {"label": "*3", "atom_type": "Cs"}, "15": {"label": "*2", "atom_type": "H0"}}

>  <type>  (6) 
unop_2

>  <geom_source>  (6) 
Heuristics

$$$$

     RDKit          3D

 22 20  0  0  0  0  0  0  0  0999 V2000
   -0.4982    2.3879    0.6672 S   0  0  0  0  0  0  0  0  0  0  0  0
    0.3522    0.9897   -0.1311 C   0  0  0  0  0  0  0  0  0  0  0  0
    0.2576    1.1170   -1.6128 C   0  0  0  0  0  0  0  0  0  0  0  0
   -0.5158    0.0943   -2.5809 S   0  0  0  0  0  0  0  0  0  0  0  0
   -1.7189    2.0949    0.1988 H   0  0  0  0  0  0  0  0  0  0  0  0
    1.3930    1.0817    0.1882 H   0  0  0  0  0  0  0  0  0  0  0  0
    0.7442    2.0036   -2.0209 H   0  0  0  0  0  0  0  0  0  0  0  0
    0.3522   -2.3377   -0.7708 C   0  0  0  0  0  0  0  0  0  0  0  0
    0.3522   -2.3377    0.5527 C   0  0  0  0  0  0  0  0  0  0  0  0
    0.3522   -1.1163    1.4247 C   0  0  0  0  0  3  0  0  0  0  0  0
    1.6115   -1.0758    2.2924 C   0  0  0  0  0  0  0  0  0  0  0  0
   -0.9071   -1.0758    2.2924 C   0  0  0  0  0  0  0  0  0  0  0  0
    0.3522   -3.2594   -1.3391 H   0  0  0  0  0  0  0  0  0  0  0  0
    0.3522   -1.4111   -1.3354 H   0  0  0  0  0  0  0  0  0  0  0  0
    0.3522   -3.2890    1.0832 H   0  0  0  0  0  0  0  0  0  0  0  0
    0.3522   -0.0599    0.6443 H   0  0  0  0  0  0  0  0  0  0  0  0
    2.5130   -1.0699    1.6782 H   0  0  0  0  0  0  0  0  0  0  0  0
    1.6561   -1.9497    2.9482 H   0  0  0  0  0  0  0  0  0  0  0  0
    1.6190   -0.1846    2.9234 H   0  0  0  0  0  0  0  0  0  0  0  0
   -0.9517   -1.9497    2.9482 H   0  0  0  0  0  0  0  0  0  0  0  0
   -1.8087   -1.0699    1.6782 H   0  0  0  0  0  0  0  0  0  0  0  0
   -0.9147   -0.1846    2.9234 H   0  0  0  0  0  0  0  0  0  0  0  0
  1  2  1  0
  1  5  1  0
  2  3  1  0
  2  6  1  0
  2 16  1  0
  3  4  2  0
  3  7  1  0
  8  9  2  3
  8 13  1  0
  8 14  1  0
  9 10  1  0
  9 15  1  0
 10 11  1  0
 10 12  1  0
 11 17  1  0
 11 18  1  0
 11 19  1  0
 12 20  1  0
 12 21  1  0
 12 22  1  0
M  RAD  1  10   2
M  END
>  <reaction>  (7) 
rxn_1114

>  <mol_properties>  (7) 
{"1": {"label": "*1", "atom_type": "Cs"}, "2": {"label": "*0", "atom_type": "CS"}, "8": {"label": "*4", "atom_type": "Cd"}, "9": {"label": "*3", "atom_type": "Cs"}, "15": {"label": "*2", "atom_type": "H0"}}

>  <type>  (7) 
unop_3

>  <geom_source>  (7) 
Heuristics

$$$$

     RDKit          3D

 22 20  0  0  0  0  0  0  0  0999 V2000
    1.0873    1.0334   -2.0718 S   0  0  0  0  0  0  0  0  0  0  0  0
   -0.3856    1.0157   -1.0014 C   0  0  0  0  0  0  0  0  0  0  0  0
   -0.1132    1.7780    0.2497 C   0  0  0  0  0  0  0  0  0  0  0  0
   -0.0808    1.1481    1.7274 S   0  0  0  0  0  0  0  0  0  0  0  0
    1.8843    0.3695   -1.2236 H   0  0  0  0  0  0  0  0  0  0  0  0
   -1.1582    1.5193   -1.5875 H   0  0  0  0  0  0  0  0  0  0  0  0
    0.1012    2.8361    0.0951 H   0  0  0  0  0  0  0  0  0  0  0  0
   -0.3856   -2.3116   -1.6411 C   0  0  0  0  0  0  0  0  0  0  0  0
   -0.3856   -2.3116   -0.3176 C   0  0  0  0  0  0  0  0  0  0  0  0
   -0.3856   -1.0902    0.5544 C   0  0  0  0  0  3  0  0  0  0  0  0
    0.8737   -1.0498    1.4221 C   0  0  0  0  0  0  0  0  0  0  0  0
   -1.6449   -1.0498    1.4220 C   0  0  0  0  0  0  0  0  0  0  0  0
   -0.3856   -3.2333   -2.2094 H   0  0  0  0  0  0  0  0  0  0  0  0
   -0.3856   -1.3851   -2.2057 H   0  0  0  0  0  0  0  0  0  0  0  0
   -0.3856   -3.2629    0.2129 H   0  0  0  0  0  0  0  0  0  0  0  0
   -0.3856   -0.0338   -0.2261 H   0  0  0  0  0  0  0  0  0  0  0  0
    1.7752   -1.0439    0.8079 H   0  0  0  0  0  0  0  0  0  0  0  0
    0.9182   -1.9236    2.0778 H   0  0  0  0  0  0  0  0  0  0  0  0
    0.8812   -0.1586    2.0530 H   0  0  0  0  0  0  0  0  0  0  0  0
   -1.6895   -1.9236    2.0778 H   0  0  0  0  0  0  0  0  0  0  0  0
   -2.5465   -1.0439    0.8079 H   0  0  0  0  0  0  0  0  0  0  0  0
   -1.6525   -0.1586    2.0530 H   0  0  0  0  0  0  0  0  0  0  0  0
  1  2  1  0
  1  5  1  0
  2  3  1  0
  2  6  1  0
  2 16  1  0
  3  4  2  0
  3  7  1  0
  8  9  2  3
  8 13  1  0
  8 14  1  0
  9 10  1  0
  9 15  1  0
 10 11  1  0
 10 12  1  0
 11 17  1  0
 11 18  1  0
 11 19  1  0
 12 20  1  0
 12 21  1  0
 12 22  1  0
M  RAD  1  10   2
M  END
>  <reaction>  (8) 
rxn_1114

>  <mol_properties>  (8) 
{"1": {"label": "*1", "atom_type": "Cs"}, "2": {"label": "*0", "atom_type": "CS"}, "8": {"label": "*4", "atom_type": "Cd"}, "9": {"label": "*3", "atom_type": "Cs"}, "15": {"label": "*2", "atom_type": "H0"}}

>  <type>  (8) 
unop_4

>  <geom_source>  (8) 
Heuristics

$$$$

     RDKit          3D

 22 20  0  0  0  0  0  0  0  0999 V2000
    0.5685    2.5366    0.4583 S   0  0  0  0  0  0  0  0  0  0  0  0
    0.5685    1.0029   -0.5233 C   0  0  0  0  0  0  0  0  0  0  0  0
   -0.5927    0.9979   -1.4572 C   0  0  0  0  0  0  0  0  0  0  0  0
   -1.8158   -0.0426   -1.4056 S   0  0  0  0  0  0  0  0  0  0  0  0
   -0.5956    2.3045    1.0801 H   0  0  0  0  0  0  0  0  0  0  0  0
    1.5039    1.0367   -1.0870 H   0  0  0  0  0  0  0  0  0  0  0  0
   -0.5787    1.7982   -2.1980 H   0  0  0  0  0  0  0  0  0  0  0  0
    0.5685   -2.3244   -1.1630 C   0  0  0  0  0  0  0  0  0  0  0  0
    0.5685   -2.3244    0.1605 C   0  0  0  0  0  0  0  0  0  0  0  0
    0.5685   -1.1030    1.0325 C   0  0  0  0  0  3  0  0  0  0  0  0
    1.8278   -1.0626    1.9002 C   0  0  0  0  0  0  0  0  0  0  0  0
   -0.6908   -1.0626    1.9002 C   0  0  0  0  0  0  0  0  0  0  0  0
    0.5685   -3.2461   -1.7313 H   0  0  0  0  0  0  0  0  0  0  0  0
    0.5685   -1.3978   -1.7276 H   0  0  0  0  0  0  0  0  0  0  0  0
    0.5685   -3.2757    0.6910 H   0  0  0  0  0  0  0  0  0  0  0  0
    0.5685   -0.0466    0.2521 H   0  0  0  0  0  0  0  0  0  0  0  0
    2.7294   -1.0567    1.2860 H   0  0  0  0  0  0  0  0  0  0  0  0
    1.8724   -1.9364    2.5560 H   0  0  0  0  0  0  0  0  0  0  0  0
    1.8353   -0.1713    2.5312 H   0  0  0  0  0  0  0  0  0  0  0  0
   -0.7354   -1.9364    2.5560 H   0  0  0  0  0  0  0  0  0  0  0  0
   -1.5924   -1.0567    1.2860 H   0  0  0  0  0  0  0  0  0  0  0  0
   -0.6983   -0.1713    2.5312 H   0  0  0  0  0  0  0  0  0  0  0  0
  1  2  1  0
  1  5  1  0
  2  3  1  0
  2  6  1  0
  2 16  1  0
  3  4  2  0
  3  7  1  0
  8  9  2  3
  8 13  1  0
  8 14  1  0
  9 10  1  0
  9 15  1  0
 10 11  1  0
 10 12  1  0
 11 17  1  0
 11 18  1  0
 11 19  1  0
 12 20  1  0
 12 21  1  0
 12 22  1  0
M  RAD  1  10   2
M  END
>  <reaction>  (9) 
rxn_1114

>  <mol_properties>  (9) 
{"1": {"label": "*1", "atom_type": "Cs"}, "2": {"label": "*0", "atom_type": "CS"}, "8": {"label": "*4", "atom_type": "Cd"}, "9": {"label": "*3", "atom_type": "Cs"}, "15": {"label": "*2", "atom_type": "H0"}}

>  <type>  (9) 
unop_5

>  <geom_source>  (9) 
Heuristics

$$$$

     RDKit          3D

 22 20  0  0  0  0  0  0  0  0999 V2000
    1.5416    1.5272   -1.5122 S   0  0  0  0  0  0  0  0  0  0  0  0
   -0.1592    1.0042   -1.1258 C   0  0  0  0  0  0  0  0  0  0  0  0
   -0.5868    1.5892    0.1764 C   0  0  0  0  0  0  0  0  0  0  0  0
   -0.9355    0.7457    1.4986 S   0  0  0  0  0  0  0  0  0  0  0  0
    2.1149    0.9260   -0.4608 H   0  0  0  0  0  0  0  0  0  0  0  0
   -0.7645    1.4132   -1.9382 H   0  0  0  0  0  0  0  0  0  0  0  0
   -0.6248    2.6790    0.1900 H   0  0  0  0  0  0  0  0  0  0  0  0
   -0.1592   -2.3232   -1.7655 C   0  0  0  0  0  0  0  0  0  0  0  0
   -0.1592   -2.3232   -0.4420 C   0  0  0  0  0  0  0  0  0  0  0  0
   -0.1592   -1.1018    0.4300 C   0  0  0  0  0  3  0  0  0  0  0  0
    1.1001   -1.0613    1.2977 C   0  0  0  0  0  0  0  0  0  0  0  0
   -1.4185   -1.0613    1.2977 C   0  0  0  0  0  0  0  0  0  0  0  0
   -0.1592   -3.2449   -2.3338 H   0  0  0  0  0  0  0  0  0  0  0  0
   -0.1592   -1.3966   -2.3301 H   0  0  0  0  0  0  0  0  0  0  0  0
   -0.1592   -3.2745    0.0885 H   0  0  0  0  0  0  0  0  0  0  0  0
   -0.1592   -0.0454   -0.3504 H   0  0  0  0  0  0  0  0  0  0  0  0
    2.0017   -1.0555    0.6835 H   0  0  0  0  0  0  0  0  0  0  0  0
    1.1447   -1.9352    1.9535 H   0  0  0  0  0  0  0  0  0  0  0  0
    1.1076   -0.1701    1.9287 H   0  0  0  0  0  0  0  0  0  0  0  0
   -1.4631   -1.9352    1.9535 H   0  0  0  0  0  0  0  0  0  0  0  0
   -2.3201   -1.0555    0.6835 H   0  0  0  0  0  0  0  0  0  0  0  0
   -1.4260   -0.1701    1.9287 H   0  0  0  0  0  0  0  0  0  0  0  0
  1  2  1  0
  1  5  1  0
  2  3  1  0
  2  6  1  0
  2 16  1  0
  3  4  2  0
  3  7  1  0
  8  9  2  3
  8 13  1  0
  8 14  1  0
  9 10  1  0
  9 15  1  0
 10 11  1  0
 10 12  1  0
 11 17  1  0
 11 18  1  0
 11 19  1  0
 12 20  1  0
 12 21  1  0
 12 22  1  0
M  RAD  1  10   2
M  END
>  <reaction>  (10) 
rxn_1114

>  <mol_properties>  (10) 
{"1": {"label": "*1", "atom_type": "Cs"}, "2": {"label": "*0", "atom_type": "CS"}, "8": {"label": "*4", "atom_type": "Cd"}, "9": {"label": "*3", "atom_type": "Cs"}, "15": {"label": "*2", "atom_type": "H0"}}

>  <type>  (10) 
unop_6

>  <geom_source>  (10) 
Heuristics

$$$$

     RDKit          3D

 22 19  0  0  0  0  0  0  0  0999 V2000
    1.5858    2.0288   -0.8388 S   0  0  0  0  0  0  0  0  0  0  0  0
    0.1129    1.0005   -1.1364 C   0  0  0  0  0  0  0  0  0  0  0  0
   -0.9513    1.3405   -0.1502 C   0  0  0  0  0  2  0  0  0  0  0  0
   -1.5287    0.3414    0.9677 S   0  0  0  0  0  1  0  0  0  0  0  0
    1.8437    1.5523    0.3867 H   0  0  0  0  0  0  0  0  0  0  0  0
   -0.2105    1.2678   -2.1453 H   0  0  0  0  0  0  0  0  0  0  0  0
   -1.3150    2.3666   -0.2154 H   0  0  0  0  0  0  0  0  0  0  0  0
    0.1129   -2.3268   -1.7761 C   0  0  0  0  0  3  0  0  0  0  0  0
    0.1129   -2.3268   -0.4526 C   0  0  0  0  0  0  0  0  0  0  0  0
    0.1129   -1.1054    0.4194 C   0  0  0  0  0  3  0  0  0  0  0  0
    1.3722   -1.0650    1.2870 C   0  0  0  0  0  0  0  0  0  0  0  0
   -1.1464   -1.0650    1.2870 C   0  0  0  0  0  0  0  0  0  0  0  0
    0.1129   -3.2485   -2.3444 H   0  0  0  0  0  0  0  0  0  0  0  0
    0.1129   -1.4003   -2.3407 H   0  0  0  0  0  0  0  0  0  0  0  0
    0.1129   -3.2781    0.0779 H   0  0  0  0  0  0  0  0  0  0  0  0
    0.1129   -0.0490   -0.3611 H   0  0  0  0  0  0  0  0  0  0  0  0
    2.2738   -1.0591    0.6729 H   0  0  0  0  0  0  0  0  0  0  0  0
    1.4168   -1.9388    1.9428 H   0  0  0  0  0  0  0  0  0  0  0  0
    1.3798   -0.1738    1.9180 H   0  0  0  0  0  0  0  0  0  0  0  0
   -1.1910   -1.9388    1.9428 H   0  0  0  0  0  0  0  0  0  0  0  0
   -2.0479   -1.0591    0.6729 H   0  0  0  0  0  0  0  0  0  0  0  0
   -1.1539   -0.1738    1.9180 H   0  0  0  0  0  0  0  0  0  0  0  0
  1  2  1  0
  1  5  1  0
  2  3  1  0
  2  6  1  0
  2 16  1  0
  3  7  1  0
  4 12  1  0
  8  9  1  0
  8 13  1  0
  8 14  1  0
  9 10  2  3
  9 15  1  0
 10 11  1  0
 11 17  1  0
 11 18  1  0
 11 19  1  0
 12 20  1  0
 12 21  1  0
 12 22  1  0
M  CHG  2   8   1  10  -1
M  RAD  2   3   3   4   2
M  END
>  <reaction>  (11) 
rxn_1114

>  <mol_properties>  (11) 
{"1": {"label": "*1", "atom_type": "Cs"}, "2": {"label": "*0", "atom_type": "CS"}, "8": {"label": "*4", "atom_type": "Cd"}, "9": {"label": "*3", "atom_type": "Cs"}, "15": {"label": "*2", "atom_type": "H0"}}

>  <type>  (11) 
unop_7

>  <geom_source>  (11) 
Heuristics

$$$$

     RDKit          3D

 22 20  0  0  0  0  0  0  0  0999 V2000
   -1.7991    1.5077   -0.4049 S   0  0  0  0  0  0  0  0  0  0  0  0
   -0.0984    0.9846   -0.0185 C   0  0  0  0  0  0  0  0  0  0  0  0
    0.8553    1.6095   -0.9781 C   0  0  0  0  0  0  0  0  0  0  0  0
    1.7582    0.8080   -2.0381 S   0  0  0  0  0  0  0  0  0  0  0  0
   -1.8451    0.9464   -1.6208 H   0  0  0  0  0  0  0  0  0  0  0  0
    0.0832    1.3616    0.9908 H   0  0  0  0  0  0  0  0  0  0  0  0
    0.8870    2.6989   -0.9371 H   0  0  0  0  0  0  0  0  0  0  0  0
   -0.0984   -2.3427   -0.6582 C   0  0  0  0  0  0  0  0  0  0  0  0
   -0.0984   -2.3427    0.6653 C   0  0  0  0  0  0  0  0  0  0  0  0
   -0.0984   -1.1213    1.5373 C   0  0  0  0  0  3  0  0  0  0  0  0
    1.1610   -1.0809    2.4050 C   0  0  0  0  0  0  0  0  0  0  0  0
   -1.3577   -1.0809    2.4049 C   0  0  0  0  0  0  0  0  0  0  0  0
   -0.0984   -3.2644   -1.2265 H   0  0  0  0  0  0  0  0  0  0  0  0
   -0.0984   -1.4161   -1.2228 H   0  0  0  0  0  0  0  0  0  0  0  0
   -0.0984   -3.2940    1.1958 H   0  0  0  0  0  0  0  0  0  0  0  0
   -0.0984   -0.0649    0.7568 H   0  0  0  0  0  0  0  0  0  0  0  0
    2.0625   -1.0750    1.7908 H   0  0  0  0  0  0  0  0  0  0  0  0
    1.2055   -1.9547    3.0607 H   0  0  0  0  0  0  0  0  0  0  0  0
    1.1685   -0.1897    3.0359 H   0  0  0  0  0  0  0  0  0  0  0  0
   -1.4022   -1.9547    3.0607 H   0  0  0  0  0  0  0  0  0  0  0  0
   -2.2592   -1.0750    1.7908 H   0  0  0  0  0  0  0  0  0  0  0  0
   -1.3652   -0.1896    3.0359 H   0  0  0  0  0  0  0  0  0  0  0  0
  1  2  1  0
  1  5  1  0
  2  3  1  0
  2  6  1  0
  2 16  1  0
  3  4  2  0
  3  7  1  0
  8  9  2  3
  8 13  1  0
  8 14  1  0
  9 10  1  0
  9 15  1  0
 10 11  1  0
 10 12  1  0
 11 17  1  0
 11 18  1  0
 11 19  1  0
 12 20  1  0
 12 21  1  0
 12 22  1  0
M  RAD  1  10   2
M  END
>  <reaction>  (12) 
rxn_1114

>  <mol_properties>  (12) 
{"1": {"label": "*1", "atom_type": "Cs"}, "2": {"label": "*0", "atom_type": "CS"}, "8": {"label": "*4", "atom_type": "Cd"}, "9": {"label": "*3", "atom_type": "Cs"}, "15": {"label": "*2", "atom_type": "H0"}}

>  <type>  (12) 
unop_8

>  <geom_source>  (12) 
Heuristics

$$$$

     RDKit          3D

 22 20  0  0  0  0  0  0  0  0999 V2000
    0.3108    0.6751   -2.3475 S   0  0  0  0  0  0  0  0  0  0  0  0
   -0.5396    1.0273   -0.7764 C   0  0  0  0  0  0  0  0  0  0  0  0
    0.3217    1.8848    0.0859 C   0  0  0  0  0  0  0  0  0  0  0  0
    0.9398    1.4457    1.5024 S   0  0  0  0  0  0  0  0  0  0  0  0
    1.3342    0.0018   -1.8046 H   0  0  0  0  0  0  0  0  0  0  0  0
   -1.4409    1.5721   -1.0672 H   0  0  0  0  0  0  0  0  0  0  0  0
    0.5428    2.8672   -0.3330 H   0  0  0  0  0  0  0  0  0  0  0  0
   -0.5396   -2.3001   -1.4161 C   0  0  0  0  0  0  0  0  0  0  0  0
   -0.5396   -2.3001   -0.0927 C   0  0  0  0  0  0  0  0  0  0  0  0
   -0.5396   -1.0787    0.7794 C   0  0  0  0  0  3  0  0  0  0  0  0
    0.7197   -1.0382    1.6470 C   0  0  0  0  0  0  0  0  0  0  0  0
   -1.7989   -1.0382    1.6470 C   0  0  0  0  0  0  0  0  0  0  0  0
   -0.5396   -3.2218   -1.9844 H   0  0  0  0  0  0  0  0  0  0  0  0
   -0.5396   -1.3735   -1.9807 H   0  0  0  0  0  0  0  0  0  0  0  0
   -0.5396   -3.2514    0.4379 H   0  0  0  0  0  0  0  0  0  0  0  0
   -0.5396   -0.0223   -0.0011 H   0  0  0  0  0  0  0  0  0  0  0  0
    1.6213   -1.0324    1.0329 H   0  0  0  0  0  0  0  0  0  0  0  0
    0.7643   -1.9121    2.3028 H   0  0  0  0  0  0  0  0  0  0  0  0
    0.7273   -0.1470    2.2780 H   0  0  0  0  0  0  0  0  0  0  0  0
   -1.8434   -1.9121    2.3028 H   0  0  0  0  0  0  0  0  0  0  0  0
   -2.7004   -1.0324    1.0329 H   0  0  0  0  0  0  0  0  0  0  0  0
   -1.8064   -0.1470    2.2780 H   0  0  0  0  0  0  0  0  0  0  0  0
  1  2  1  0
  1  5  1  0
  2  3  1  0
  2  6  1  0
  2 16  1  0
  3  4  2  0
  3  7  1  0
  8  9  2  3
  8 13  1  0
  8 14  1  0
  9 10  1  0
  9 15  1  0
 10 11  1  0
 10 12  1  0
 11 17  1  0
 11 18  1  0
 11 19  1  0
 12 20  1  0
 12 21  1  0
 12 22  1  0
M  RAD  1  10   2
M  END
>  <reaction>  (13) 
rxn_1114

>  <mol_properties>  (13) 
{"1": {"label": "*1", "atom_type": "Cs"}, "2": {"label": "*0", "atom_type": "CS"}, "8": {"label": "*4", "atom_type": "Cd"}, "9": {"label": "*3", "atom_type": "Cs"}, "15": {"label": "*2", "atom_type": "H0"}}

>  <type>  (13) 
unop_9

>  <geom_source>  (13) 
Heuristics

$$$$

     RDKit          3D

 22 20  0  0  0  0  0  0  0  0999 V2000
   -1.7557    1.0172   -1.1522 S   0  0  0  0  0  0  0  0  0  0  0  0
   -0.2828    0.9995   -0.0818 C   0  0  0  0  0  0  0  0  0  0  0  0
    0.8102    1.7949   -0.7091 C   0  0  0  0  0  0  0  0  0  0  0  0
    2.2160    1.1998   -1.2099 S   0  0  0  0  0  0  0  0  0  0  0  0
   -1.1841    0.3865   -2.1870 H   0  0  0  0  0  0  0  0  0  0  0  0
   -0.6101    1.4764    0.8451 H   0  0  0  0  0  0  0  0  0  0  0  0
    0.5792    2.8526   -0.8410 H   0  0  0  0  0  0  0  0  0  0  0  0
   -0.2828   -2.3278   -0.7215 C   0  0  0  0  0  0  0  0  0  0  0  0
   -0.2828   -2.3278    0.6019 C   0  0  0  0  0  0  0  0  0  0  0  0
   -0.2828   -1.1064    1.4740 C   0  0  0  0  0  3  0  0  0  0  0  0
    0.9765   -1.0660    2.3416 C   0  0  0  0  0  0  0  0  0  0  0  0
   -1.5421   -1.0660    2.3416 C   0  0  0  0  0  0  0  0  0  0  0  0
   -0.2828   -3.2495   -1.2898 H   0  0  0  0  0  0  0  0  0  0  0  0
   -0.2828   -1.4013   -1.2861 H   0  0  0  0  0  0  0  0  0  0  0  0
   -0.2828   -3.2791    1.1325 H   0  0  0  0  0  0  0  0  0  0  0  0
   -0.2828   -0.0500    0.6935 H   0  0  0  0  0  0  0  0  0  0  0  0
    1.8780   -1.0601    1.7275 H   0  0  0  0  0  0  0  0  0  0  0  0
    1.0211   -1.9398    2.9974 H   0  0  0  0  0  0  0  0  0  0  0  0
    0.9840   -0.1748    2.9726 H   0  0  0  0  0  0  0  0  0  0  0  0
   -1.5867   -1.9398    2.9974 H   0  0  0  0  0  0  0  0  0  0  0  0
   -2.4437   -1.0601    1.7275 H   0  0  0  0  0  0  0  0  0  0  0  0
   -1.5497   -0.1748    2.9726 H   0  0  0  0  0  0  0  0  0  0  0  0
  1  2  1  0
  1  5  1  0
  2  3  1  0
  2  6  1  0
  2 16  1  0
  3  4  2  0
  3  7  1  0
  8  9  2  3
  8 13  1  0
  8 14  1  0
  9 10  1  0
  9 15  1  0
 10 11  1  0
 10 12  1  0
 11 17  1  0
 11 18  1  0
 11 19  1  0
 12 20  1  0
 12 21  1  0
 12 22  1  0
M  RAD  1  10   2
M  END
>  <reaction>  (14) 
rxn_1114

>  <mol_properties>  (14) 
{"1": {"label": "*1", "atom_type": "Cs"}, "2": {"label": "*0", "atom_type": "CS"}, "8": {"label": "*4", "atom_type": "Cd"}, "9": {"label": "*3", "atom_type": "Cs"}, "15": {"label": "*2", "atom_type": "H0"}}

>  <type>  (14) 
unop_10

>  <geom_source>  (14) 
Heuristics

$$$$

     RDKit          3D

 22 20  0  0  0  0  0  0  0  0999 V2000
    1.2633    2.4027   -0.1737 S   0  0  0  0  0  0  0  0  0  0  0  0
    0.4129    1.0045   -0.9720 C   0  0  0  0  0  0  0  0  0  0  0  0
   -1.0553    1.1016   -0.7360 C   0  0  0  0  0  0  0  0  0  0  0  0
   -1.9280    0.0469    0.1052 S   0  0  0  0  0  0  0  0  0  0  0  0
    0.9174    2.0793    1.0798 H   0  0  0  0  0  0  0  0  0  0  0  0
    0.6308    1.1208   -2.0364 H   0  0  0  0  0  0  0  0  0  0  0  0
   -1.5230    1.9885   -1.1649 H   0  0  0  0  0  0  0  0  0  0  0  0
    0.4129   -2.3228   -1.6118 C   0  0  0  0  0  0  0  0  0  0  0  0
    0.4129   -2.3228   -0.2883 C   0  0  0  0  0  0  0  0  0  0  0  0
    0.4129   -1.1015    0.5838 C   0  0  0  0  0  3  0  0  0  0  0  0
    1.6722   -1.0610    1.4514 C   0  0  0  0  0  0  0  0  0  0  0  0
   -0.8464   -1.0610    1.4514 C   0  0  0  0  0  0  0  0  0  0  0  0
    0.4129   -3.2446   -2.1800 H   0  0  0  0  0  0  0  0  0  0  0  0
    0.4129   -1.3963   -2.1763 H   0  0  0  0  0  0  0  0  0  0  0  0
    0.4129   -3.2742    0.2423 H   0  0  0  0  0  0  0  0  0  0  0  0
    0.4129   -0.0451   -0.1967 H   0  0  0  0  0  0  0  0  0  0  0  0
    2.5737   -1.0551    0.8373 H   0  0  0  0  0  0  0  0  0  0  0  0
    1.7168   -1.9349    2.1072 H   0  0  0  0  0  0  0  0  0  0  0  0
    1.6797   -0.1698    2.0824 H   0  0  0  0  0  0  0  0  0  0  0  0
   -0.8910   -1.9349    2.1072 H   0  0  0  0  0  0  0  0  0  0  0  0
   -1.7480   -1.0551    0.8373 H   0  0  0  0  0  0  0  0  0  0  0  0
   -0.8539   -0.1698    2.0824 H   0  0  0  0  0  0  0  0  0  0  0  0
  1  2  1  0
  1  5  1  0
  2  3  1  0
  2  6  1  0
  2 16  1  0
  3  4  2  0
  3  7  1  0
  8  9  2  3
  8 13  1  0
  8 14  1  0
  9 10  1  0
  9 15  1  0
 10 11  1  0
 10 12  1  0
 11 17  1  0
 11 18  1  0
 11 19  1  0
 12 20  1  0
 12 21  1  0
 12 22  1  0
M  RAD  1  10   2
M  END
>  <reaction>  (15) 
rxn_1114

>  <mol_properties>  (15) 
{"1": {"label": "*1", "atom_type": "Cs"}, "2": {"label": "*0", "atom_type": "CS"}, "8": {"label": "*4", "atom_type": "Cd"}, "9": {"label": "*3", "atom_type": "Cs"}, "15": {"label": "*2", "atom_type": "H0"}}

>  <type>  (15) 
unop_11

>  <geom_source>  (15) 
Heuristics

$$$$

     RDKit          3D

 22 20  0  0  0  0  0  0  0  0999 V2000
   -0.5685    0.5415   -2.2423 S   0  0  0  0  0  0  0  0  0  0  0  0
   -0.5685    1.0290   -0.4880 C   0  0  0  0  0  0  0  0  0  0  0  0
    0.5927    1.9203   -0.2087 C   0  0  0  0  0  0  0  0  0  0  0  0
    1.8158    1.5652    0.7707 S   0  0  0  0  0  0  0  0  0  0  0  0
    0.5956   -0.1210   -2.2032 H   0  0  0  0  0  0  0  0  0  0  0  0
   -1.5038    1.5778   -0.3545 H   0  0  0  0  0  0  0  0  0  0  0  0
    0.5787    2.8635   -0.7559 H   0  0  0  0  0  0  0  0  0  0  0  0
   -0.5685   -2.2983   -1.1277 C   0  0  0  0  0  0  0  0  0  0  0  0
   -0.5685   -2.2983    0.1958 C   0  0  0  0  0  0  0  0  0  0  0  0
   -0.5685   -1.0769    1.0678 C   0  0  0  0  0  3  0  0  0  0  0  0
    0.6908   -1.0365    1.9355 C   0  0  0  0  0  0  0  0  0  0  0  0
   -1.8278   -1.0365    1.9355 C   0  0  0  0  0  0  0  0  0  0  0  0
   -0.5685   -3.2200   -1.6960 H   0  0  0  0  0  0  0  0  0  0  0  0
   -0.5685   -1.3717   -1.6923 H   0  0  0  0  0  0  0  0  0  0  0  0
   -0.5685   -3.2496    0.7263 H   0  0  0  0  0  0  0  0  0  0  0  0
   -0.5685   -0.0205    0.2874 H   0  0  0  0  0  0  0  0  0  0  0  0
    1.5924   -1.0306    1.3213 H   0  0  0  0  0  0  0  0  0  0  0  0
    0.7354   -1.9103    2.5913 H   0  0  0  0  0  0  0  0  0  0  0  0
    0.6983   -0.1453    2.5665 H   0  0  0  0  0  0  0  0  0  0  0  0
   -1.8724   -1.9103    2.5913 H   0  0  0  0  0  0  0  0  0  0  0  0
   -2.7294   -1.0306    1.3213 H   0  0  0  0  0  0  0  0  0  0  0  0
   -1.8353   -0.1453    2.5665 H   0  0  0  0  0  0  0  0  0  0  0  0
  1  2  1  0
  1  5  1  0
  2  3  1  0
  2  6  1  0
  2 16  1  0
  3  4  2  0
  3  7  1  0
  8  9  2  3
  8 13  1  0
  8 14  1  0
  9 10  1  0
  9 15  1  0
 10 11  1  0
 10 12  1  0
 11 17  1  0
 11 18  1  0
 11 19  1  0
 12 20  1  0
 12 21  1  0
 12 22  1  0
M  RAD  1  10   2
M  END
>  <reaction>  (16) 
rxn_1114

>  <mol_properties>  (16) 
{"1": {"label": "*1", "atom_type": "Cs"}, "2": {"label": "*0", "atom_type": "CS"}, "8": {"label": "*4", "atom_type": "Cd"}, "9": {"label": "*3", "atom_type": "Cs"}, "15": {"label": "*2", "atom_type": "H0"}}

>  <type>  (16) 
unop_12

>  <geom_source>  (16) 
Heuristics

$$$$

     RDKit          3D

 22 20  0  0  0  0  0  0  0  0999 V2000
    2.2792    2.3406    0.0609 S   0  0  0  0  0  0  0  0  0  0  0  0
    3.8590   -0.6697    0.1264 S   0  0  0  0  0  1  0  0  0  0  0  0
    1.6937    0.6590    0.4431 C   0  0  0  0  0  0  0  0  0  0  0  0
   -1.6458    0.8666   -0.7896 C   0  0  0  0  0  0  0  0  0  0  0  0
   -1.0912    0.4023    1.6303 C   0  0  0  0  0  0  0  0  0  0  0  0
   -0.8243    0.0102    0.1764 C   0  0  0  0  0  0  0  0  0  0  0  0
   -1.0777   -1.4571   -0.0486 C   0  0  0  0  0  0  0  0  0  0  0  0
    2.5126   -0.3707   -0.2785 C   0  0  0  0  0  0  0  0  0  0  0  0
   -0.5253   -2.0970   -1.0815 C   0  0  0  0  0  0  0  0  0  0  0  0
    1.7341    0.4912    1.5411 H   0  0  0  0  0  0  0  0  0  0  0  0
    0.3983    0.5529    0.0452 H   0  0  0  0  0  0  0  0  0  0  0  0
   -1.3884    0.6118   -1.8392 H   0  0  0  0  0  0  0  0  0  0  0  0
   -1.4168    1.9415   -0.6313 H   0  0  0  0  0  0  0  0  0  0  0  0
   -2.7333    0.6999   -0.6320 H   0  0  0  0  0  0  0  0  0  0  0  0
   -0.8336    1.4710    1.7871 H   0  0  0  0  0  0  0  0  0  0  0  0
   -0.4582   -0.2089    2.3080 H   0  0  0  0  0  0  0  0  0  0  0  0
   -2.1602    0.2446    1.8904 H   0  0  0  0  0  0  0  0  0  0  0  0
   -1.6951   -2.0166    0.6492 H   0  0  0  0  0  0  0  0  0  0  0  0
    2.0447   -0.9746   -1.0484 H   0  0  0  0  0  0  0  0  0  0  0  0
   -0.7069   -3.1574   -1.2237 H   0  0  0  0  0  0  0  0  0  0  0  0
    0.1107   -1.5721   -1.7880 H   0  0  0  0  0  0  0  0  0  0  0  0
    1.9243    2.2327   -1.2975 H   0  0  0  0  0  0  0  0  0  0  0  0
  1  3  1  0
  1 22  1  0
  2  8  1  0
  3  8  2  3
  3 10  1  0
  4  6  1  0
  4 12  1  0
  4 13  1  0
  4 14  1  0
  5  6  1  0
  5 15  1  0
  5 16  1  0
  5 17  1  0
  6  7  1  0
  6 11  1  0
  7  9  2  3
  7 18  1  0
  8 19  1  0
  9 20  1  0
  9 21  1  0
M  RAD  1   2   2
M  END
>  <reaction>  (17) 
rxn_1114

>  <mol_properties>  (17) 
{"1": {"label": "*1", "atom_type": "Cs"}, "2": {"label": "*0", "atom_type": "CS"}, "8": {"label": "*4", "atom_type": "Cd"}, "9": {"label": "*3", "atom_type": "Cs"}, "15": {"label": "*2", "atom_type": "H0"}}

>  <type>  (17) 
unop_13

>  <geom_source>  (17) 
AutoTST

$$$$

     RDKit          3D

 22 20  0  0  0  0  0  0  0  0999 V2000
   -1.3098    0.6655   -1.8046 S   0  0  0  0  0  0  0  0  0  0  0  0
   -0.4594    1.0177   -0.2336 C   0  0  0  0  0  0  0  0  0  0  0  0
    0.7199    1.8947   -0.4801 C   0  0  0  0  0  0  0  0  0  0  0  0
    2.2510    1.4762   -0.2316 S   0  0  0  0  0  0  0  0  0  0  0  0
   -0.2877    0.0118   -2.3733 H   0  0  0  0  0  0  0  0  0  0  0  0
   -1.2017    1.5468    0.3689 H   0  0  0  0  0  0  0  0  0  0  0  0
    0.4742    2.8769   -0.8856 H   0  0  0  0  0  0  0  0  0  0  0  0
   -0.4594   -2.3096   -0.8733 C   0  0  0  0  0  0  0  0  0  0  0  0
   -0.4594   -2.3096    0.4502 C   0  0  0  0  0  0  0  0  0  0  0  0
   -0.4594   -1.0882    1.3222 C   0  0  0  0  0  3  0  0  0  0  0  0
    0.7999   -1.0478    2.1899 C   0  0  0  0  0  0  0  0  0  0  0  0
   -1.7187   -1.0478    2.1899 C   0  0  0  0  0  0  0  0  0  0  0  0
   -0.4594   -3.2313   -1.4416 H   0  0  0  0  0  0  0  0  0  0  0  0
   -0.4594   -1.3831   -1.4379 H   0  0  0  0  0  0  0  0  0  0  0  0
   -0.4594   -3.2609    0.9807 H   0  0  0  0  0  0  0  0  0  0  0  0
   -0.4594   -0.0319    0.5418 H   0  0  0  0  0  0  0  0  0  0  0  0
    1.7014   -1.0419    1.5757 H   0  0  0  0  0  0  0  0  0  0  0  0
    0.8445   -1.9216    2.8457 H   0  0  0  0  0  0  0  0  0  0  0  0
    0.8074   -0.1566    2.8209 H   0  0  0  0  0  0  0  0  0  0  0  0
   -1.7633   -1.9216    2.8457 H   0  0  0  0  0  0  0  0  0  0  0  0
   -2.6203   -1.0419    1.5757 H   0  0  0  0  0  0  0  0  0  0  0  0
   -1.7263   -0.1566    2.8209 H   0  0  0  0  0  0  0  0  0  0  0  0
  1  2  1  0
  1  5  1  0
  2  3  1  0
  2  6  1  0
  2 16  1  0
  3  4  2  0
  3  7  1  0
  8  9  2  3
  8 13  1  0
  8 14  1  0
  9 10  1  0
  9 15  1  0
 10 11  1  0
 10 12  1  0
 11 17  1  0
 11 18  1  0
 11 19  1  0
 12 20  1  0
 12 21  1  0
 12 22  1  0
M  RAD  1  10   2
M  END
>  <reaction>  (18) 
rxn_1114

>  <mol_properties>  (18) 
{"1": {"label": "*1", "atom_type": "Cs"}, "2": {"label": "*0", "atom_type": "CS"}, "8": {"label": "*4", "atom_type": "Cd"}, "9": {"label": "*3", "atom_type": "Cs"}, "15": {"label": "*2", "atom_type": "H0"}}

>  <type>  (18) 
unop_14

>  <geom_source>  (18) 
gaussian_log

$$$$
