
     RDKit          3D

  7  6  0  0  0  0  0  0  0  0999 V2000
   -0.6782    0.0507    0.0301 C   0  0  0  0  0  0  0  0  0  0  0  0
    0.8092    0.0996    0.0213 C   0  0  0  0  0  0  0  0  0  0  0  0
    1.7473    0.7521    1.1507 S   0  0  0  0  0  0  0  0  0  0  0  0
   -1.0667    0.5456   -0.8653 H   0  0  0  0  0  0  0  0  0  0  0  0
   -1.0112   -0.9904   -0.0239 H   0  0  0  0  0  0  0  0  0  0  0  0
   -1.0920    0.5225    0.9188 H   0  0  0  0  0  0  0  0  0  0  0  0
    1.2740   -0.3620   -0.8520 H   0  0  0  0  0  0  0  0  0  0  0  0
  1  2  1  0
  1  4  1  0
  1  5  1  0
  1  6  1  0
  2  3  2  0
  2  7  1  0
M  END
>  <reaction>  (1) 
rxn_1979

>  <mol_properties>  (1) 
{"0": {"label": "donator", "atom_type": "Cs"}, "3": {"label": "d_hydrogen", "atom_type": "H0"}}

>  <type>  (1) 
r1h

$$$$

     RDKit          3D

  6  5  0  0  0  0  0  0  0  0999 V2000
    1.7035    0.4954    0.0162 S   0  0  0  0  0  0  0  0  0  0  0  0
    0.1927   -0.1841   -0.3584 C   0  0  0  0  0  3  0  0  0  0  0  0
   -1.0558    0.0577   -0.0460 C   0  0  0  0  0  0  0  0  0  0  0  0
    2.3611   -0.6557    0.2254 H   0  0  0  0  0  0  0  0  0  0  0  0
   -1.8677   -0.4245   -0.5802 H   0  0  0  0  0  0  0  0  0  0  0  0
   -1.3294    0.7333    0.7635 H   0  0  0  0  0  0  0  0  0  0  0  0
  1  2  1  0
  1  4  1  0
  2  3  2  3
  3  5  1  0
  3  6  1  0
M  RAD  1   2   2
M  END
>  <reaction>  (2) 
rxn_1979

>  <mol_properties>  (2) 
{"1": {"label": "acceptor", "atom_type": "Cd"}}

>  <type>  (2) 
r2

$$$$

     RDKit          3D

  7  6  0  0  0  0  0  0  0  0999 V2000
    1.2020   -0.5069    1.0970 S   0  0  0  0  0  0  0  0  0  0  0  0
    0.2449    0.0208   -0.2711 C   0  0  0  0  0  0  0  0  0  0  0  0
    0.6491    0.2538   -1.5108 C   0  0  0  0  0  0  0  0  0  0  0  0
    2.3807   -0.5751    0.4630 H   0  0  0  0  0  0  0  0  0  0  0  0
   -0.7959    0.1526    0.0036 H   0  0  0  0  0  0  0  0  0  0  0  0
    1.6808    0.1320   -1.8181 H   0  0  0  0  0  0  0  0  0  0  0  0
   -0.0586    0.5786   -2.2618 H   0  0  0  0  0  0  0  0  0  0  0  0
  1  2  1  0
  1  4  1  0
  2  3  2  3
  2  5  1  0
  3  6  1  0
  3  7  1  0
M  END
>  <reaction>  (3) 
rxn_1979

>  <mol_properties>  (3) 
{"1": {"label": "acceptor", "atom_type": "Cd"}, "6": {"label": "a_hydrogen", "atom_type": "H0"}}

>  <type>  (3) 
r2h

$$$$

     RDKit          3D

 13 11  0  0  0  0  0  0  0  0999 V2000
   -2.4113    0.1941    0.7078 S   0  0  0  0  0  0  0  0  0  0  0  0
   -1.0458    0.9912    1.3732 C   0  0  0  0  0  3  0  0  0  0  0  0
   -0.8333    1.6281    2.5025 C   0  0  0  0  0  0  0  0  0  0  0  0
   -1.7216   -0.7911    0.1021 H   0  0  0  0  0  0  0  0  0  0  0  0
    0.0807    2.1894    2.6592 H   0  0  0  0  0  0  0  0  0  0  0  0
   -1.5533    1.6097    3.3161 H   0  0  0  0  0  0  0  0  0  0  0  0
    0.9129    0.8681   -0.4910 C   0  0  0  0  0  0  0  0  0  0  0  0
    1.5100   -0.4373   -0.2954 C   0  0  0  0  0  0  0  0  0  0  0  0
    0.8482   -1.8539   -0.7426 S   0  0  0  0  0  0  0  0  0  0  0  0
    0.0821    0.9853    0.4290 H   0  0  0  0  0  0  0  0  0  0  0  0
    1.5877    1.7138   -0.3774 H   0  0  0  0  0  0  0  0  0  0  0  0
    0.2597    0.9440   -1.3576 H   0  0  0  0  0  0  0  0  0  0  0  0
    2.4505   -0.4535    0.2556 H   0  0  0  0  0  0  0  0  0  0  0  0
  1  2  1  0
  1  4  1  0
  2  3  2  3
  3  5  1  0
  3  6  1  0
  7  8  1  0
  7 10  1  0
  7 11  1  0
  7 12  1  0
  8  9  2  0
  8 13  1  0
M  RAD  1   2   2
M  END
>  <reaction>  (4) 
rxn_1979

>  <mol_properties>  (4) 
{"0": {"label": "*4", "atom_type": "S2s"}, "1": {"label": "*3", "atom_type": "Cd"}, "6": {"label": "*1", "atom_type": "Cs"}, "7": {"label": "*0", "atom_type": "CS"}, "9": {"label": "*2", "atom_type": "H0"}}

>  <type>  (4) 
ts

$$$$

     RDKit          3D

 13 11  0  0  0  0  0  0  0  0999 V2000
   -0.5829    0.3149    2.8290 S   0  0  0  0  0  0  0  0  0  0  0  0
   -1.0509    0.3378    1.1417 C   0  0  0  0  0  0  0  0  0  0  0  0
   -2.0495    1.0016    0.5789 C   0  0  0  0  0  0  0  0  0  0  0  0
   -1.5328    1.1458    3.2796 H   0  0  0  0  0  0  0  0  0  0  0  0
   -2.2239    0.9219   -0.4858 H   0  0  0  0  0  0  0  0  0  0  0  0
   -2.7179    1.6371    1.1471 H   0  0  0  0  0  0  0  0  0  0  0  0
    1.0423    0.4021   -0.4237 C   0  0  0  0  0  0  0  0  0  0  0  0
    1.0423   -0.7964   -1.3059 C   0  0  0  0  0  0  0  0  0  0  0  0
    1.0423   -0.7964   -2.9126 S   0  0  0  0  0  1  0  0  0  0  0  0
   -0.0090    0.3698    0.3626 H   0  0  0  0  0  0  0  0  0  0  0  0
    1.9185    0.3752    0.2315 H   0  0  0  0  0  0  0  0  0  0  0  0
    1.0423    1.3258   -0.9984 H   0  0  0  0  0  0  0  0  0  0  0  0
    1.0423   -1.7508   -0.7760 H   0  0  0  0  0  0  0  0  0  0  0  0
  1  2  1  0
  1  4  1  0
  2  3  2  3
  2 10  1  0
  3  5  1  0
  3  6  1  0
  7  8  2  3
  7 11  1  0
  7 12  1  0
  8  9  1  0
  8 13  1  0
M  RAD  1   9   2
M  END
>  <reaction>  (5) 
rxn_1979

>  <mol_properties>  (5) 
{"0": {"label": "*4", "atom_type": "S2s"}, "1": {"label": "*3", "atom_type": "Cd"}, "6": {"label": "*1", "atom_type": "Cs"}, "7": {"label": "*0", "atom_type": "CS"}, "9": {"label": "*2", "atom_type": "H0"}}

>  <type>  (5) 
unop_1

>  <geom_source>  (5) 
Heuristics

$$$$

     RDKit          3D

 13 11  0  0  0  0  0  0  0  0999 V2000
   -1.3551   -0.9093    1.7055 S   0  0  0  0  0  0  0  0  0  0  0  0
   -0.8736    0.7373    1.3545 C   0  0  0  0  0  0  0  0  0  0  0  0
   -1.1992    1.8418    2.0092 C   0  0  0  0  0  0  0  0  0  0  0  0
   -2.1040   -0.6406    2.7839 H   0  0  0  0  0  0  0  0  0  0  0  0
   -0.8256    2.8012    1.6770 H   0  0  0  0  0  0  0  0  0  0  0  0
   -1.8380    1.8317    2.8840 H   0  0  0  0  0  0  0  0  0  0  0  0
    1.2196    0.8016   -0.2109 C   0  0  0  0  0  0  0  0  0  0  0  0
    1.2196   -0.3969   -1.0931 C   0  0  0  0  0  0  0  0  0  0  0  0
    1.2196   -0.3969   -2.6998 S   0  0  0  0  0  1  0  0  0  0  0  0
    0.1682    0.7693    0.5754 H   0  0  0  0  0  0  0  0  0  0  0  0
    2.0958    0.7747    0.4443 H   0  0  0  0  0  0  0  0  0  0  0  0
    1.2196    1.7254   -0.7856 H   0  0  0  0  0  0  0  0  0  0  0  0
    1.2196   -1.3513   -0.5632 H   0  0  0  0  0  0  0  0  0  0  0  0
  1  2  1  0
  1  4  1  0
  2  3  2  3
  2 10  1  0
  3  5  1  0
  3  6  1  0
  7  8  2  3
  7 11  1  0
  7 12  1  0
  8  9  1  0
  8 13  1  0
M  RAD  1   9   2
M  END
>  <reaction>  (6) 
rxn_1979

>  <mol_properties>  (6) 
{"0": {"label": "*4", "atom_type": "S2s"}, "1": {"label": "*3", "atom_type": "Cd"}, "6": {"label": "*1", "atom_type": "Cs"}, "7": {"label": "*0", "atom_type": "CS"}, "9": {"label": "*2", "atom_type": "H0"}}

>  <type>  (6) 
unop_2

>  <geom_source>  (6) 
Heuristics

$$$$

     RDKit          3D

 13 11  0  0  0  0  0  0  0  0999 V2000
   -0.6651    1.0061    2.7236 S   0  0  0  0  0  0  0  0  0  0  0  0
   -0.9883    0.2126    1.1965 C   0  0  0  0  0  0  0  0  0  0  0  0
   -2.1463    0.0971    0.5637 C   0  0  0  0  0  0  0  0  0  0  0  0
   -1.9186    1.4084    2.9742 H   0  0  0  0  0  0  0  0  0  0  0  0
   -2.1995   -0.4251   -0.3822 H   0  0  0  0  0  0  0  0  0  0  0  0
   -3.0670    0.5106    0.9571 H   0  0  0  0  0  0  0  0  0  0  0  0
    1.1049    0.2768   -0.3690 C   0  0  0  0  0  0  0  0  0  0  0  0
    1.1049   -0.9217   -1.2512 C   0  0  0  0  0  0  0  0  0  0  0  0
    1.1049   -0.9217   -2.8578 S   0  0  0  0  0  1  0  0  0  0  0  0
    0.0535    0.2445    0.4173 H   0  0  0  0  0  0  0  0  0  0  0  0
    1.9810    0.2499    0.2863 H   0  0  0  0  0  0  0  0  0  0  0  0
    1.1049    1.2006   -0.9436 H   0  0  0  0  0  0  0  0  0  0  0  0
    1.1049   -1.8761   -0.7212 H   0  0  0  0  0  0  0  0  0  0  0  0
  1  2  1  0
  1  4  1  0
  2  3  2  3
  2 10  1  0
  3  5  1  0
  3  6  1  0
  7  8  2  3
  7 11  1  0
  7 12  1  0
  8  9  1  0
  8 13  1  0
M  RAD  1   9   2
M  END
>  <reaction>  (7) 
rxn_1979

>  <mol_properties>  (7) 
{"0": {"label": "*4", "atom_type": "S2s"}, "1": {"label": "*3", "atom_type": "Cd"}, "6": {"label": "*1", "atom_type": "Cs"}, "7": {"label": "*0", "atom_type": "CS"}, "9": {"label": "*2", "atom_type": "H0"}}

>  <type>  (7) 
unop_3

>  <geom_source>  (7) 
Heuristics

$$$$

     RDKit          3D

 13 11  0  0  0  0  0  0  0  0999 V2000
   -2.1495    0.3432    0.7170 S   0  0  0  0  0  0  0  0  0  0  0  0
   -0.6630    0.3516    1.6425 C   0  0  0  0  0  0  0  0  0  0  0  0
   -0.4456    0.8834    2.8361 C   0  0  0  0  0  0  0  0  0  0  0  0
   -2.9018    1.0160    1.5987 H   0  0  0  0  0  0  0  0  0  0  0  0
    0.5324    0.8127    3.2931 H   0  0  0  0  0  0  0  0  0  0  0  0
   -1.2192    1.3993    3.3918 H   0  0  0  0  0  0  0  0  0  0  0  0
    1.4302    0.4158    0.0771 C   0  0  0  0  0  0  0  0  0  0  0  0
    1.4302   -0.7826   -0.8051 C   0  0  0  0  0  0  0  0  0  0  0  0
    1.4302   -0.7826   -2.4118 S   0  0  0  0  0  1  0  0  0  0  0  0
    0.3789    0.3835    0.8634 H   0  0  0  0  0  0  0  0  0  0  0  0
    2.3064    0.3889    0.7323 H   0  0  0  0  0  0  0  0  0  0  0  0
    1.4302    1.3396   -0.4976 H   0  0  0  0  0  0  0  0  0  0  0  0
    1.4302   -1.7371   -0.2752 H   0  0  0  0  0  0  0  0  0  0  0  0
  1  2  1  0
  1  4  1  0
  2  3  2  3
  2 10  1  0
  3  5  1  0
  3  6  1  0
  7  8  2  3
  7 11  1  0
  7 12  1  0
  8  9  1  0
  8 13  1  0
M  RAD  1   9   2
M  END
>  <reaction>  (8) 
rxn_1979

>  <mol_properties>  (8) 
{"0": {"label": "*4", "atom_type": "S2s"}, "1": {"label": "*3", "atom_type": "Cd"}, "6": {"label": "*1", "atom_type": "Cs"}, "7": {"label": "*0", "atom_type": "CS"}, "9": {"label": "*2", "atom_type": "H0"}}

>  <type>  (8) 
unop_4

>  <geom_source>  (8) 
Heuristics

$$$$

     RDKit          3D

 13 11  0  0  0  0  0  0  0  0999 V2000
   -0.9688    1.5563    2.3124 S   0  0  0  0  0  0  0  0  0  0  0  0
   -0.9241    0.1631    1.2525 C   0  0  0  0  0  0  0  0  0  0  0  0
   -1.7882   -0.8383    1.1811 C   0  0  0  0  0  0  0  0  0  0  0  0
   -2.1022    1.2436    2.9555 H   0  0  0  0  0  0  0  0  0  0  0  0
   -1.6339   -1.6404    0.4718 H   0  0  0  0  0  0  0  0  0  0  0  0
   -2.6651   -0.8953    1.8148 H   0  0  0  0  0  0  0  0  0  0  0  0
    1.1691    0.2274   -0.3129 C   0  0  0  0  0  0  0  0  0  0  0  0
    1.1691   -0.9711   -1.1951 C   0  0  0  0  0  0  0  0  0  0  0  0
    1.1691   -0.9711   -2.8018 S   0  0  0  0  0  1  0  0  0  0  0  0
    0.1177    0.1951    0.4733 H   0  0  0  0  0  0  0  0  0  0  0  0
    2.0452    0.2005    0.3423 H   0  0  0  0  0  0  0  0  0  0  0  0
    1.1691    1.1512   -0.8876 H   0  0  0  0  0  0  0  0  0  0  0  0
    1.1691   -1.9255   -0.6652 H   0  0  0  0  0  0  0  0  0  0  0  0
  1  2  1  0
  1  4  1  0
  2  3  2  3
  2 10  1  0
  3  5  1  0
  3  6  1  0
  7  8  2  3
  7 11  1  0
  7 12  1  0
  8  9  1  0
  8 13  1  0
M  RAD  1   9   2
M  END
>  <reaction>  (9) 
rxn_1979

>  <mol_properties>  (9) 
{"0": {"label": "*4", "atom_type": "S2s"}, "1": {"label": "*3", "atom_type": "Cd"}, "6": {"label": "*1", "atom_type": "Cs"}, "7": {"label": "*0", "atom_type": "CS"}, "9": {"label": "*2", "atom_type": "H0"}}

>  <type>  (9) 
unop_5

>  <geom_source>  (9) 
Heuristics

$$$$

     RDKit          3D

 13 11  0  0  0  0  0  0  0  0999 V2000
   -2.0880    0.9953    0.8432 S   0  0  0  0  0  0  0  0  0  0  0  0
   -0.7185    0.1892    1.5787 C   0  0  0  0  0  0  0  0  0  0  0  0
   -0.3357    0.2196    2.8465 C   0  0  0  0  0  0  0  0  0  0  0  0
   -2.5481    1.5926    1.9511 H   0  0  0  0  0  0  0  0  0  0  0  0
    0.5391   -0.3320    3.1639 H   0  0  0  0  0  0  0  0  0  0  0  0
   -0.8694    0.7846    3.6011 H   0  0  0  0  0  0  0  0  0  0  0  0
    1.3747    0.2534    0.0133 C   0  0  0  0  0  0  0  0  0  0  0  0
    1.3747   -0.9450   -0.8689 C   0  0  0  0  0  0  0  0  0  0  0  0
    1.3747   -0.9450   -2.4756 S   0  0  0  0  0  1  0  0  0  0  0  0
    0.3233    0.2212    0.7996 H   0  0  0  0  0  0  0  0  0  0  0  0
    2.2508    0.2266    0.6685 H   0  0  0  0  0  0  0  0  0  0  0  0
    1.3747    1.1772   -0.5614 H   0  0  0  0  0  0  0  0  0  0  0  0
    1.3747   -1.8995   -0.3390 H   0  0  0  0  0  0  0  0  0  0  0  0
  1  2  1  0
  1  4  1  0
  2  3  2  3
  2 10  1  0
  3  5  1  0
  3  6  1  0
  7  8  2  3
  7 11  1  0
  7 12  1  0
  8  9  1  0
  8 13  1  0
M  RAD  1   9   2
M  END
>  <reaction>  (10) 
rxn_1979

>  <mol_properties>  (10) 
{"0": {"label": "*4", "atom_type": "S2s"}, "1": {"label": "*3", "atom_type": "Cd"}, "6": {"label": "*1", "atom_type": "Cs"}, "7": {"label": "*0", "atom_type": "CS"}, "9": {"label": "*2", "atom_type": "H0"}}

>  <type>  (10) 
unop_6

>  <geom_source>  (10) 
Heuristics

$$$$

     RDKit          3D

 13 11  0  0  0  0  0  0  0  0999 V2000
   -1.8296    1.5059    1.2109 S   0  0  0  0  0  0  0  0  0  0  0  0
   -0.8077    0.1054    1.4574 C   0  0  0  0  0  0  0  0  0  0  0  0
   -0.4924   -0.4861    2.5999 C   0  0  0  0  0  0  0  0  0  0  0  0
   -2.1351    1.7213    2.4978 H   0  0  0  0  0  0  0  0  0  0  0  0
    0.1561   -1.3520    2.6033 H   0  0  0  0  0  0  0  0  0  0  0  0
   -0.8616   -0.1364    3.5564 H   0  0  0  0  0  0  0  0  0  0  0  0
    1.2855    0.1697   -0.1081 C   0  0  0  0  0  0  0  0  0  0  0  0
    1.2855   -1.0288   -0.9903 C   0  0  0  0  0  0  0  0  0  0  0  0
    1.2855   -1.0288   -2.5969 S   0  0  0  0  0  1  0  0  0  0  0  0
    0.2342    0.1374    0.6782 H   0  0  0  0  0  0  0  0  0  0  0  0
    2.1617    0.1428    0.5471 H   0  0  0  0  0  0  0  0  0  0  0  0
    1.2855    1.0935   -0.6828 H   0  0  0  0  0  0  0  0  0  0  0  0
    1.2855   -1.9832   -0.4603 H   0  0  0  0  0  0  0  0  0  0  0  0
  1  2  1  0
  1  4  1  0
  2  3  2  3
  2 10  1  0
  3  5  1  0
  3  6  1  0
  7  8  2  3
  7 11  1  0
  7 12  1  0
  8  9  1  0
  8 13  1  0
M  RAD  1   9   2
M  END
>  <reaction>  (11) 
rxn_1979

>  <mol_properties>  (11) 
{"0": {"label": "*4", "atom_type": "S2s"}, "1": {"label": "*3", "atom_type": "Cd"}, "6": {"label": "*1", "atom_type": "Cs"}, "7": {"label": "*0", "atom_type": "CS"}, "9": {"label": "*2", "atom_type": "H0"}}

>  <type>  (11) 
unop_7

>  <geom_source>  (11) 
Heuristics

$$$$

     RDKit          3D

 13 11  0  0  0  0  0  0  0  0999 V2000
   -0.7035   -0.3274    2.6401 S   0  0  0  0  0  0  0  0  0  0  0  0
   -1.0544    0.5101    1.1428 C   0  0  0  0  0  0  0  0  0  0  0  0
   -1.7830    1.6024    0.9680 C   0  0  0  0  0  0  0  0  0  0  0  0
   -1.3900    0.4862    3.4542 H   0  0  0  0  0  0  0  0  0  0  0  0
   -1.9167    2.0142   -0.0234 H   0  0  0  0  0  0  0  0  0  0  0  0
   -2.2644    2.1174    1.7905 H   0  0  0  0  0  0  0  0  0  0  0  0
    1.0388    0.5743   -0.4226 C   0  0  0  0  0  0  0  0  0  0  0  0
    1.0388   -0.6241   -1.3048 C   0  0  0  0  0  0  0  0  0  0  0  0
    1.0388   -0.6241   -2.9115 S   0  0  0  0  0  1  0  0  0  0  0  0
   -0.0126    0.5420    0.3637 H   0  0  0  0  0  0  0  0  0  0  0  0
    1.9150    0.5474    0.2326 H   0  0  0  0  0  0  0  0  0  0  0  0
    1.0388    1.4981   -0.9973 H   0  0  0  0  0  0  0  0  0  0  0  0
    1.0388   -1.5786   -0.7749 H   0  0  0  0  0  0  0  0  0  0  0  0
  1  2  1  0
  1  4  1  0
  2  3  2  3
  2 10  1  0
  3  5  1  0
  3  6  1  0
  7  8  2  3
  7 11  1  0
  7 12  1  0
  8  9  1  0
  8 13  1  0
M  RAD  1   9   2
M  END
>  <reaction>  (12) 
rxn_1979

>  <mol_properties>  (12) 
{"0": {"label": "*4", "atom_type": "S2s"}, "1": {"label": "*3", "atom_type": "Cd"}, "6": {"label": "*1", "atom_type": "Cs"}, "7": {"label": "*0", "atom_type": "CS"}, "9": {"label": "*2", "atom_type": "H0"}}

>  <type>  (12) 
unop_8

>  <geom_source>  (12) 
Heuristics

$$$$

     RDKit          3D

 13 11  0  0  0  0  0  0  0  0999 V2000
   -2.0120   -0.2817    0.8529 S   0  0  0  0  0  0  0  0  0  0  0  0
   -0.6703    0.5431    1.6184 C   0  0  0  0  0  0  0  0  0  0  0  0
   -0.7006    1.3655    2.6563 C   0  0  0  0  0  0  0  0  0  0  0  0
   -2.9800    0.1963    1.6470 H   0  0  0  0  0  0  0  0  0  0  0  0
    0.2146    1.8074    3.0270 H   0  0  0  0  0  0  0  0  0  0  0  0
   -1.6209    1.6243    3.1658 H   0  0  0  0  0  0  0  0  0  0  0  0
    1.4229    0.6074    0.0529 C   0  0  0  0  0  0  0  0  0  0  0  0
    1.4229   -0.5911   -0.8293 C   0  0  0  0  0  0  0  0  0  0  0  0
    1.4229   -0.5911   -2.4360 S   0  0  0  0  0  1  0  0  0  0  0  0
    0.3715    0.5751    0.8392 H   0  0  0  0  0  0  0  0  0  0  0  0
    2.2990    0.5805    0.7081 H   0  0  0  0  0  0  0  0  0  0  0  0
    1.4228    1.5312   -0.5218 H   0  0  0  0  0  0  0  0  0  0  0  0
    1.4229   -1.5455   -0.2994 H   0  0  0  0  0  0  0  0  0  0  0  0
  1  2  1  0
  1  4  1  0
  2  3  2  3
  2 10  1  0
  3  5  1  0
  3  6  1  0
  7  8  2  3
  7 11  1  0
  7 12  1  0
  8  9  1  0
  8 13  1  0
M  RAD  1   9   2
M  END
>  <reaction>  (13) 
rxn_1979

>  <mol_properties>  (13) 
{"0": {"label": "*4", "atom_type": "S2s"}, "1": {"label": "*3", "atom_type": "Cd"}, "6": {"label": "*1", "atom_type": "Cs"}, "7": {"label": "*0", "atom_type": "CS"}, "9": {"label": "*2", "atom_type": "H0"}}

>  <type>  (13) 
unop_9

>  <geom_source>  (13) 
Heuristics

$$$$

     RDKit          3D

 13 11  0  0  0  0  0  0  0  0999 V2000
   -0.9861   -0.7682    2.2269 S   0  0  0  0  0  0  0  0  0  0  0  0
   -0.9895    0.6635    1.2187 C   0  0  0  0  0  0  0  0  0  0  0  0
   -1.4717    1.8638    1.5042 C   0  0  0  0  0  0  0  0  0  0  0  0
   -1.5990   -0.2286    3.2895 H   0  0  0  0  0  0  0  0  0  0  0  0
   -1.4048    2.6635    0.7788 H   0  0  0  0  0  0  0  0  0  0  0  0
   -1.9423    2.0901    2.4534 H   0  0  0  0  0  0  0  0  0  0  0  0
    1.1037    0.7278   -0.3467 C   0  0  0  0  0  0  0  0  0  0  0  0
    1.1037   -0.4707   -1.2289 C   0  0  0  0  0  0  0  0  0  0  0  0
    1.1037   -0.4707   -2.8356 S   0  0  0  0  0  1  0  0  0  0  0  0
    0.0523    0.6955    0.4396 H   0  0  0  0  0  0  0  0  0  0  0  0
    1.9798    0.7009    0.3085 H   0  0  0  0  0  0  0  0  0  0  0  0
    1.1037    1.6516   -0.9214 H   0  0  0  0  0  0  0  0  0  0  0  0
    1.1037   -1.4251   -0.6990 H   0  0  0  0  0  0  0  0  0  0  0  0
  1  2  1  0
  1  4  1  0
  2  3  2  3
  2 10  1  0
  3  5  1  0
  3  6  1  0
  7  8  2  3
  7 11  1  0
  7 12  1  0
  8  9  1  0
  8 13  1  0
M  RAD  1   9   2
M  END
>  <reaction>  (14) 
rxn_1979

>  <mol_properties>  (14) 
{"0": {"label": "*4", "atom_type": "S2s"}, "1": {"label": "*3", "atom_type": "Cd"}, "6": {"label": "*1", "atom_type": "Cs"}, "7": {"label": "*0", "atom_type": "CS"}, "9": {"label": "*2", "atom_type": "H0"}}

>  <type>  (14) 
unop_10

>  <geom_source>  (14) 
Heuristics

$$$$

     RDKit          3D

 13 11  0  0  0  0  0  0  0  0999 V2000
   -1.4229    1.7301    1.7401 S   0  0  0  0  0  0  0  0  0  0  0  0
   -0.8859    0.1148    1.3293 C   0  0  0  0  0  0  0  0  0  0  0  0
   -1.0049   -0.9934    2.0452 C   0  0  0  0  0  0  0  0  0  0  0  0
   -1.9466    1.4351    2.9379 H   0  0  0  0  0  0  0  0  0  0  0  0
   -0.6232   -1.9310    1.6636 H   0  0  0  0  0  0  0  0  0  0  0  0
   -1.4779   -1.0076    3.0197 H   0  0  0  0  0  0  0  0  0  0  0  0
    1.2073    0.1790   -0.2361 C   0  0  0  0  0  0  0  0  0  0  0  0
    1.2073   -1.0194   -1.1183 C   0  0  0  0  0  0  0  0  0  0  0  0
    1.2073   -1.0194   -2.7250 S   0  0  0  0  0  1  0  0  0  0  0  0
    0.1559    0.1467    0.5502 H   0  0  0  0  0  0  0  0  0  0  0  0
    2.0834    0.1521    0.4191 H   0  0  0  0  0  0  0  0  0  0  0  0
    1.2072    1.1028   -0.8108 H   0  0  0  0  0  0  0  0  0  0  0  0
    1.2073   -1.9739   -0.5884 H   0  0  0  0  0  0  0  0  0  0  0  0
  1  2  1  0
  1  4  1  0
  2  3  2  3
  2 10  1  0
  3  5  1  0
  3  6  1  0
  7  8  2  3
  7 11  1  0
  7 12  1  0
  8  9  1  0
  8 13  1  0
M  RAD  1   9   2
M  END
>  <reaction>  (15) 
rxn_1979

>  <mol_properties>  (15) 
{"0": {"label": "*4", "atom_type": "S2s"}, "1": {"label": "*3", "atom_type": "Cd"}, "6": {"label": "*1", "atom_type": "Cs"}, "7": {"label": "*0", "atom_type": "CS"}, "9": {"label": "*2", "atom_type": "H0"}}

>  <type>  (15) 
unop_11

>  <geom_source>  (15) 
Heuristics

$$$$

     RDKit          3D

 13 11  0  0  0  0  0  0  0  0999 V2000
   -1.7232   -0.7315    1.2097 S   0  0  0  0  0  0  0  0  0  0  0  0
   -0.7494    0.6929    1.5079 C   0  0  0  0  0  0  0  0  0  0  0  0
   -0.9639    1.6612    2.3859 C   0  0  0  0  0  0  0  0  0  0  0  0
   -2.6715   -0.4827    2.1234 H   0  0  0  0  0  0  0  0  0  0  0  0
   -0.2720    2.4893    2.4624 H   0  0  0  0  0  0  0  0  0  0  0  0
   -1.8207    1.6650    3.0489 H   0  0  0  0  0  0  0  0  0  0  0  0
    1.3438    0.7572   -0.0576 C   0  0  0  0  0  0  0  0  0  0  0  0
    1.3438   -0.4413   -0.9398 C   0  0  0  0  0  0  0  0  0  0  0  0
    1.3438   -0.4413   -2.5464 S   0  0  0  0  0  1  0  0  0  0  0  0
    0.2924    0.7249    0.7287 H   0  0  0  0  0  0  0  0  0  0  0  0
    2.2200    0.7303    0.5976 H   0  0  0  0  0  0  0  0  0  0  0  0
    1.3438    1.6810   -0.6322 H   0  0  0  0  0  0  0  0  0  0  0  0
    1.3438   -1.3957   -0.4098 H   0  0  0  0  0  0  0  0  0  0  0  0
  1  2  1  0
  1  4  1  0
  2  3  2  3
  2 10  1  0
  3  5  1  0
  3  6  1  0
  7  8  2  3
  7 11  1  0
  7 12  1  0
  8  9  1  0
  8 13  1  0
M  RAD  1   9   2
M  END
>  <reaction>  (16) 
rxn_1979

>  <mol_properties>  (16) 
{"0": {"label": "*4", "atom_type": "S2s"}, "1": {"label": "*3", "atom_type": "Cd"}, "6": {"label": "*1", "atom_type": "Cs"}, "7": {"label": "*0", "atom_type": "CS"}, "9": {"label": "*2", "atom_type": "H0"}}

>  <type>  (16) 
unop_12

>  <geom_source>  (16) 
Heuristics

$$$$

     RDKit          3D

 13 11  0  0  0  0  0  0  0  0999 V2000
   -2.2495    1.1891   -1.1296 S   0  0  0  0  0  0  0  0  0  0  0  0
    2.6059    1.9122    0.4371 S   0  0  0  0  0  1  0  0  0  0  0  0
   -1.2951    0.1799    0.0021 C   0  0  0  0  0  0  0  0  0  0  0  0
   -1.8916   -0.7367    0.7620 C   0  0  0  0  0  0  0  0  0  0  0  0
    1.2551   -0.1076   -0.2956 C   0  0  0  0  0  0  0  0  0  0  0  0
    2.3797    0.4965    0.4789 C   0  0  0  0  0  0  0  0  0  0  0  0
   -0.0415    0.3441    0.0777 H   0  0  0  0  0  0  0  0  0  0  0  0
   -2.9649   -0.8894    0.7090 H   0  0  0  0  0  0  0  0  0  0  0  0
   -1.3025   -1.3410    1.4435 H   0  0  0  0  0  0  0  0  0  0  0  0
    2.9895   -0.1250    1.1267 H   0  0  0  0  0  0  0  0  0  0  0  0
    1.1621   -1.1858   -0.0485 H   0  0  0  0  0  0  0  0  0  0  0  0
    1.4387    0.0001   -1.3860 H   0  0  0  0  0  0  0  0  0  0  0  0
   -2.0860    0.2636   -2.1773 H   0  0  0  0  0  0  0  0  0  0  0  0
  1  3  1  0
  1 13  1  0
  2  6  1  0
  3  4  2  3
  3  7  1  0
  4  8  1  0
  4  9  1  0
  5  6  2  3
  5 11  1  0
  5 12  1  0
  6 10  1  0
M  RAD  1   2   2
M  END
>  <reaction>  (17) 
rxn_1979

>  <mol_properties>  (17) 
{"0": {"label": "*4", "atom_type": "S2s"}, "1": {"label": "*3", "atom_type": "Cd"}, "6": {"label": "*1", "atom_type": "Cs"}, "7": {"label": "*0", "atom_type": "CS"}, "9": {"label": "*2", "atom_type": "H0"}}

>  <type>  (17) 
unop_13

>  <geom_source>  (17) 
AutoTST

$$$$
