
     RDKit          3D

  7  6  0  0  0  0  0  0  0  0999 V2000
    1.6964   -0.0938    0.0583 C   0  0  0  0  0  0  0  0  0  0  0  0
    0.5019   -0.0278    0.0173 C   0  0  0  0  0  0  0  0  0  0  0  0
   -0.9505    0.0525   -0.0327 C   0  0  0  0  0  0  0  0  0  0  0  0
    2.7574   -0.1524    0.0947 H   0  0  0  0  0  0  0  0  0  0  0  0
   -1.2692    0.9972   -0.4754 H   0  0  0  0  0  0  0  0  0  0  0  0
   -1.3749   -0.0147    0.9700 H   0  0  0  0  0  0  0  0  0  0  0  0
   -1.3610   -0.7611   -0.6323 H   0  0  0  0  0  0  0  0  0  0  0  0
  1  2  3  0
  1  4  1  0
  2  3  1  0
  3  5  1  0
  3  6  1  0
  3  7  1  0
M  END
>  <reaction>  (1) 
rxn_1246

>  <mol_properties>  (1) 
{"2": {"label": "donator", "atom_type": "Cs"}, "4": {"label": "d_hydrogen", "atom_type": "H0"}}

>  <type>  (1) 
r1h

$$$$

     RDKit          3D

  7  6  0  0  0  0  0  0  0  0999 V2000
    1.8092   -0.3013   -0.2242 S   0  0  0  0  0  0  0  0  0  0  0  0
    0.1552   -0.6967   -0.1137 C   0  0  0  0  0  0  0  0  0  0  0  0
   -0.8921    0.1788    0.1148 C   0  0  0  0  0  0  0  0  0  0  0  0
   -0.7548    1.8245    0.3328 S   0  0  0  0  0  1  0  0  0  0  0  0
    1.6168    1.0210   -0.0187 H   0  0  0  0  0  0  0  0  0  0  0  0
   -0.0550   -1.7522   -0.2412 H   0  0  0  0  0  0  0  0  0  0  0  0
   -1.8791   -0.2740    0.1502 H   0  0  0  0  0  0  0  0  0  0  0  0
  1  2  1  0
  1  5  1  0
  2  3  2  3
  2  6  1  0
  3  4  1  0
  3  7  1  0
M  RAD  1   4   2
M  END
>  <reaction>  (2) 
rxn_1246

>  <mol_properties>  (2) 
{"1": {"label": "acceptor", "atom_type": "Cs"}}

>  <type>  (2) 
r2

$$$$

     RDKit          3D

  8  7  0  0  0  0  0  0  0  0999 V2000
    1.7301   -0.0562    0.5281 S   0  0  0  0  0  0  0  0  0  0  0  0
    0.1858    0.6127   -0.1669 C   0  0  0  0  0  0  0  0  0  0  0  0
   -0.9621   -0.2567    0.2171 C   0  0  0  0  0  0  0  0  0  0  0  0
   -1.8663   -1.1002   -0.8086 S   0  0  0  0  0  0  0  0  0  0  0  0
    1.7025   -1.2092   -0.1540 H   0  0  0  0  0  0  0  0  0  0  0  0
    0.2619    0.7246   -1.2458 H   0  0  0  0  0  0  0  0  0  0  0  0
    0.0809    1.5982    0.2929 H   0  0  0  0  0  0  0  0  0  0  0  0
   -1.1456   -0.3126    1.2907 H   0  0  0  0  0  0  0  0  0  0  0  0
  1  2  1  0
  1  5  1  0
  2  3  1  0
  2  6  1  0
  2  7  1  0
  3  4  2  0
  3  8  1  0
M  END
>  <reaction>  (3) 
rxn_1246

>  <mol_properties>  (3) 
{"0": {"label": "a_hydrogen", "atom_type": "H0"}, "2": {"label": "acceptor", "atom_type": "Cs"}}

>  <type>  (3) 
r2h

$$$$

     RDKit          3D

 14 12  0  0  0  0  0  0  0  0999 V2000
   -0.3559   -1.5144   -2.5178 C   0  0  0  0  0  0  0  0  0  0  0  0
   -0.4143   -1.9116   -1.3809 C   0  0  0  0  0  0  0  0  0  0  0  0
   -0.4749   -2.2695   -0.0222 C   0  0  0  0  0  3  0  0  0  0  0  0
   -0.3005   -1.2096   -3.5354 H   0  0  0  0  0  0  0  0  0  0  0  0
   -0.4675   -0.9917    0.6324 H   0  0  0  0  0  0  0  0  0  0  0  0
    0.4204   -2.7063    0.4096 H   0  0  0  0  0  0  0  0  0  0  0  0
   -1.4141   -2.6794    0.3356 H   0  0  0  0  0  0  0  0  0  0  0  0
   -1.9701    0.9392    0.4625 S   0  0  0  0  0  0  0  0  0  0  0  0
   -0.4982    0.1804    1.1262 C   0  0  0  0  0  0  0  0  0  0  0  0
    0.8021    0.7367    0.7818 C   0  0  0  0  0  0  0  0  0  0  0  0
    2.1594    0.4751    1.6270 S   0  0  0  0  0  0  0  0  0  0  0  0
   -1.6428    0.7866   -0.8300 H   0  0  0  0  0  0  0  0  0  0  0  0
   -0.6237   -0.0311    2.1859 H   0  0  0  0  0  0  0  0  0  0  0  0
    0.8394    1.3069   -0.1465 H   0  0  0  0  0  0  0  0  0  0  0  0
  1  2  3  0
  1  4  1  0
  2  3  1  0
  3  6  1  0
  3  7  1  0
  5  9  1  0
  8  9  1  0
  8 12  1  0
  9 10  1  0
  9 13  1  0
 10 11  2  0
 10 14  1  0
M  RAD  1   3   2
M  END
>  <reaction>  (4) 
rxn_1246

>  <mol_properties>  (4) 
{"1": {"label": "*4", "atom_type": "Ct"}, "2": {"label": "*3", "atom_type": "Cs"}, "4": {"label": "*2", "atom_type": "H0"}, "8": {"label": "*1", "atom_type": "Cs"}, "9": {"label": "*0", "atom_type": "CS"}}

>  <type>  (4) 
ts

$$$$

     RDKit          3D

 14 12  0  0  0  0  0  0  0  0999 V2000
   -0.0939   -2.3648   -2.6626 C   0  0  0  0  0  0  0  0  0  0  0  0
   -0.0939   -2.3648   -1.4656 C   0  0  0  0  0  0  0  0  0  0  0  0
   -0.0939   -2.3648   -0.0102 C   0  0  0  0  0  3  0  0  0  0  0  0
   -0.0939   -2.3648   -3.7259 H   0  0  0  0  0  0  0  0  0  0  0  0
    0.0175   -1.1453    0.4522 H   0  0  0  0  0  0  0  0  0  0  0  0
    0.7398   -2.9534    0.3752 H   0  0  0  0  0  0  0  0  0  0  0  0
   -1.0205   -2.7925    0.3752 H   0  0  0  0  0  0  0  0  0  0  0  0
   -1.3101    0.5111    1.9385 S   0  0  0  0  0  0  0  0  0  0  0  0
    0.1286    0.0704    0.9132 C   0  0  0  0  0  0  0  0  0  0  0  0
    0.8752    1.3019    0.5298 C   0  0  0  0  0  0  0  0  0  0  0  0
    1.0471    1.8488   -0.9710 S   0  0  0  0  0  0  0  0  0  0  0  0
   -1.9394    1.2263    0.9961 H   0  0  0  0  0  0  0  0  0  0  0  0
    0.7462   -0.5571    1.5603 H   0  0  0  0  0  0  0  0  0  0  0  0
    1.2961    1.8539    1.3709 H   0  0  0  0  0  0  0  0  0  0  0  0
  1  2  3  0
  1  4  1  0
  2  3  1  0
  3  6  1  0
  3  7  1  0
  5  9  1  0
  8  9  1  0
  8 12  1  0
  9 10  1  0
  9 13  1  0
 10 11  2  0
 10 14  1  0
M  RAD  1   3   2
M  END
>  <reaction>  (5) 
rxn_1246

>  <mol_properties>  (5) 
{"1": {"label": "*4", "atom_type": "Ct"}, "2": {"label": "*3", "atom_type": "Cs"}, "4": {"label": "*2", "atom_type": "H0"}, "8": {"label": "*1", "atom_type": "Cs"}, "9": {"label": "*0", "atom_type": "CS"}}

>  <type>  (5) 
unop_1

>  <geom_source>  (5) 
Heuristics

$$$$

     RDKit          3D

 14 12  0  0  0  0  0  0  0  0999 V2000
   -0.7552   -2.0578   -2.7673 C   0  0  0  0  0  0  0  0  0  0  0  0
   -0.7552   -2.0578   -1.5703 C   0  0  0  0  0  0  0  0  0  0  0  0
   -0.7552   -2.0578   -0.1149 C   0  0  0  0  0  3  0  0  0  0  0  0
   -0.7552   -2.0578   -3.8306 H   0  0  0  0  0  0  0  0  0  0  0  0
   -0.6438   -0.8382    0.3475 H   0  0  0  0  0  0  0  0  0  0  0  0
    0.0785   -2.6463    0.2705 H   0  0  0  0  0  0  0  0  0  0  0  0
   -1.6818   -2.4855    0.2705 H   0  0  0  0  0  0  0  0  0  0  0  0
   -1.2768    1.5789   -0.3397 S   0  0  0  0  0  0  0  0  0  0  0  0
   -0.5326    0.3775    0.8085 C   0  0  0  0  0  0  0  0  0  0  0  0
    0.7039    0.9503    1.4115 C   0  0  0  0  0  0  0  0  0  0  0  0
    2.1890    0.3769    1.1948 S   0  0  0  0  0  0  0  0  0  0  0  0
   -0.2477    1.6083   -1.1974 H   0  0  0  0  0  0  0  0  0  0  0  0
   -1.2918    0.2269    1.5798 H   0  0  0  0  0  0  0  0  0  0  0  0
    0.5387    1.8425    2.0165 H   0  0  0  0  0  0  0  0  0  0  0  0
  1  2  3  0
  1  4  1  0
  2  3  1  0
  3  6  1  0
  3  7  1  0
  5  9  1  0
  8  9  1  0
  8 12  1  0
  9 10  1  0
  9 13  1  0
 10 11  2  0
 10 14  1  0
M  RAD  1   3   2
M  END
>  <reaction>  (6) 
rxn_1246

>  <mol_properties>  (6) 
{"1": {"label": "*4", "atom_type": "Ct"}, "2": {"label": "*3", "atom_type": "Cs"}, "4": {"label": "*2", "atom_type": "H0"}, "8": {"label": "*1", "atom_type": "Cs"}, "9": {"label": "*0", "atom_type": "CS"}}

>  <type>  (6) 
unop_2

>  <geom_source>  (6) 
Heuristics

$$$$

     RDKit          3D

 14 12  0  0  0  0  0  0  0  0999 V2000
    0.2271   -2.2726   -2.7279 C   0  0  0  0  0  0  0  0  0  0  0  0
    0.2271   -2.2726   -1.5309 C   0  0  0  0  0  0  0  0  0  0  0  0
    0.2271   -2.2726   -0.0755 C   0  0  0  0  0  3  0  0  0  0  0  0
    0.2271   -2.2726   -3.7912 H   0  0  0  0  0  0  0  0  0  0  0  0
    0.3385   -1.0530    0.3870 H   0  0  0  0  0  0  0  0  0  0  0  0
    1.0608   -2.8611    0.3099 H   0  0  0  0  0  0  0  0  0  0  0  0
   -0.6995   -2.7003    0.3099 H   0  0  0  0  0  0  0  0  0  0  0  0
   -0.3892    0.3278    2.4556 S   0  0  0  0  0  0  0  0  0  0  0  0
    0.4496    0.1627    0.8479 C   0  0  0  0  0  0  0  0  0  0  0  0
    0.4750    1.4796    0.1509 C   0  0  0  0  0  0  0  0  0  0  0  0
   -0.2717    1.8073   -1.2334 S   0  0  0  0  0  0  0  0  0  0  0  0
   -1.5835    0.6724    1.9553 H   0  0  0  0  0  0  0  0  0  0  0  0
    1.4663   -0.1494    1.0984 H   0  0  0  0  0  0  0  0  0  0  0  0
    1.0346    2.2558    0.6743 H   0  0  0  0  0  0  0  0  0  0  0  0
  1  2  3  0
  1  4  1  0
  2  3  1  0
  3  6  1  0
  3  7  1  0
  5  9  1  0
  8  9  1  0
  8 12  1  0
  9 10  1  0
  9 13  1  0
 10 11  2  0
 10 14  1  0
M  RAD  1   3   2
M  END
>  <reaction>  (7) 
rxn_1246

>  <mol_properties>  (7) 
{"1": {"label": "*4", "atom_type": "Ct"}, "2": {"label": "*3", "atom_type": "Cs"}, "4": {"label": "*2", "atom_type": "H0"}, "8": {"label": "*1", "atom_type": "Cs"}, "9": {"label": "*0", "atom_type": "CS"}}

>  <type>  (7) 
unop_3

>  <geom_source>  (7) 
Heuristics

$$$$

     RDKit          3D

 14 12  0  0  0  0  0  0  0  0999 V2000
   -0.5928   -1.2777   -3.2815 C   0  0  0  0  0  0  0  0  0  0  0  0
   -0.5928   -1.2777   -2.0845 C   0  0  0  0  0  0  0  0  0  0  0  0
   -0.5928   -1.2777   -0.6291 C   0  0  0  0  0  3  0  0  0  0  0  0
   -0.5928   -1.2777   -4.3448 H   0  0  0  0  0  0  0  0  0  0  0  0
   -0.4814   -0.0581   -0.1667 H   0  0  0  0  0  0  0  0  0  0  0  0
    0.2409   -1.8662   -0.2437 H   0  0  0  0  0  0  0  0  0  0  0  0
   -1.5194   -1.7054   -0.2437 H   0  0  0  0  0  0  0  0  0  0  0  0
    1.1792    1.9285   -0.2715 S   0  0  0  0  0  0  0  0  0  0  0  0
   -0.3703    1.1576    0.2943 C   0  0  0  0  0  0  0  0  0  0  0  0
   -0.1570    0.4980    1.6135 C   0  0  0  0  0  0  0  0  0  0  0  0
   -0.2688   -1.0814    1.8860 S   0  0  0  0  0  0  0  0  0  0  0  0
    1.8754    0.7878   -0.3691 H   0  0  0  0  0  0  0  0  0  0  0  0
   -1.0699    1.9902    0.3993 H   0  0  0  0  0  0  0  0  0  0  0  0
    0.1206    1.1795    2.4184 H   0  0  0  0  0  0  0  0  0  0  0  0
  1  2  3  0
  1  4  1  0
  2  3  1  0
  3  6  1  0
  3  7  1  0
  5  9  1  0
  8  9  1  0
  8 12  1  0
  9 10  1  0
  9 13  1  0
 10 11  2  0
 10 14  1  0
M  RAD  1   3   2
M  END
>  <reaction>  (8) 
rxn_1246

>  <mol_properties>  (8) 
{"1": {"label": "*4", "atom_type": "Ct"}, "2": {"label": "*3", "atom_type": "Cs"}, "4": {"label": "*2", "atom_type": "H0"}, "8": {"label": "*1", "atom_type": "Cs"}, "9": {"label": "*0", "atom_type": "CS"}}

>  <type>  (8) 
unop_4

>  <geom_source>  (8) 
Heuristics

$$$$

     RDKit          3D

 14 12  0  0  0  0  0  0  0  0999 V2000
    0.5296   -1.8846   -2.9758 C   0  0  0  0  0  0  0  0  0  0  0  0
    0.5296   -1.8846   -1.7788 C   0  0  0  0  0  0  0  0  0  0  0  0
    0.5296   -1.8846   -0.3233 C   0  0  0  0  0  3  0  0  0  0  0  0
    0.5296   -1.8846   -4.0391 H   0  0  0  0  0  0  0  0  0  0  0  0
    0.6410   -0.6651    0.1391 H   0  0  0  0  0  0  0  0  0  0  0  0
    1.3633   -2.4732    0.0620 H   0  0  0  0  0  0  0  0  0  0  0  0
   -0.3970   -2.3123    0.0620 H   0  0  0  0  0  0  0  0  0  0  0  0
    0.7528    0.5581    2.4209 S   0  0  0  0  0  0  0  0  0  0  0  0
    0.7521    0.5506    0.6000 C   0  0  0  0  0  0  0  0  0  0  0  0
   -0.3331    1.4349    0.0891 C   0  0  0  0  0  0  0  0  0  0  0  0
   -1.6065    0.9409   -0.7569 S   0  0  0  0  0  0  0  0  0  0  0  0
   -0.4654    0.0186    2.5633 H   0  0  0  0  0  0  0  0  0  0  0  0
    1.7284    0.9553    0.3225 H   0  0  0  0  0  0  0  0  0  0  0  0
   -0.2230    2.4857    0.3594 H   0  0  0  0  0  0  0  0  0  0  0  0
  1  2  3  0
  1  4  1  0
  2  3  1  0
  3  6  1  0
  3  7  1  0
  5  9  1  0
  8  9  1  0
  8 12  1  0
  9 10  1  0
  9 13  1  0
 10 11  2  0
 10 14  1  0
M  RAD  1   3   2
M  END
>  <reaction>  (9) 
rxn_1246

>  <mol_properties>  (9) 
{"1": {"label": "*4", "atom_type": "Ct"}, "2": {"label": "*3", "atom_type": "Cs"}, "4": {"label": "*2", "atom_type": "H0"}, "8": {"label": "*1", "atom_type": "Cs"}, "9": {"label": "*0", "atom_type": "CS"}}

>  <type>  (9) 
unop_5

>  <geom_source>  (9) 
Heuristics

$$$$

     RDKit          3D

 14 12  0  0  0  0  0  0  0  0999 V2000
   -0.3046   -1.1828   -3.3764 C   0  0  0  0  0  0  0  0  0  0  0  0
   -0.3046   -1.1828   -2.1794 C   0  0  0  0  0  0  0  0  0  0  0  0
   -0.3046   -1.1828   -0.7240 C   0  0  0  0  0  3  0  0  0  0  0  0
   -0.3046   -1.1828   -4.4397 H   0  0  0  0  0  0  0  0  0  0  0  0
   -0.1932    0.0368   -0.2615 H   0  0  0  0  0  0  0  0  0  0  0  0
    0.5291   -1.7714   -0.3386 H   0  0  0  0  0  0  0  0  0  0  0  0
   -1.2312   -1.6105   -0.3386 H   0  0  0  0  0  0  0  0  0  0  0  0
    1.6670    1.7035    0.4291 S   0  0  0  0  0  0  0  0  0  0  0  0
   -0.0821    1.2525    0.1994 C   0  0  0  0  0  0  0  0  0  0  0  0
   -0.5785    0.5182    1.3973 C   0  0  0  0  0  0  0  0  0  0  0  0
   -1.0685   -1.0119    1.4061 S   0  0  0  0  0  0  0  0  0  0  0  0
    2.1279    0.4470    0.4945 H   0  0  0  0  0  0  0  0  0  0  0  0
   -0.6025    2.2082    0.1022 H   0  0  0  0  0  0  0  0  0  0  0  0
   -0.5636    1.0991    2.3202 H   0  0  0  0  0  0  0  0  0  0  0  0
  1  2  3  0
  1  4  1  0
  2  3  1  0
  3  6  1  0
  3  7  1  0
  5  9  1  0
  8  9  1  0
  8 12  1  0
  9 10  1  0
  9 13  1  0
 10 11  2  0
 10 14  1  0
M  RAD  1   3   2
M  END
>  <reaction>  (10) 
rxn_1246

>  <mol_properties>  (10) 
{"1": {"label": "*4", "atom_type": "Ct"}, "2": {"label": "*3", "atom_type": "Cs"}, "4": {"label": "*2", "atom_type": "H0"}, "8": {"label": "*1", "atom_type": "Cs"}, "9": {"label": "*0", "atom_type": "CS"}}

>  <type>  (10) 
unop_6

>  <geom_source>  (10) 
Heuristics

$$$$

     RDKit          3D

 14 12  0  0  0  0  0  0  0  0999 V2000
    0.0293   -1.2047   -3.3873 C   0  0  0  0  0  0  0  0  0  0  0  0
    0.0293   -1.2047   -2.1903 C   0  0  0  0  0  0  0  0  0  0  0  0
    0.0293   -1.2047   -0.7348 C   0  0  0  0  0  3  0  0  0  0  0  0
    0.0293   -1.2047   -4.4506 H   0  0  0  0  0  0  0  0  0  0  0  0
    0.1408    0.0149   -0.2724 H   0  0  0  0  0  0  0  0  0  0  0  0
    0.8630   -1.7933   -0.3495 H   0  0  0  0  0  0  0  0  0  0  0  0
   -0.8973   -1.6324   -0.3495 H   0  0  0  0  0  0  0  0  0  0  0  0
    1.7467    1.4031    1.2138 S   0  0  0  0  0  0  0  0  0  0  0  0
    0.2519    1.2305    0.1885 C   0  0  0  0  0  0  0  0  0  0  0  0
   -0.8665    0.6861    1.0092 C   0  0  0  0  0  0  0  0  0  0  0  0
   -1.5764   -0.7363    0.7765 S   0  0  0  0  0  0  0  0  0  0  0  0
    1.8862    0.0970    1.4784 H   0  0  0  0  0  0  0  0  0  0  0  0
    0.0202    2.2483   -0.1342 H   0  0  0  0  0  0  0  0  0  0  0  0
   -1.1731    1.3282    1.8358 H   0  0  0  0  0  0  0  0  0  0  0  0
  1  2  3  0
  1  4  1  0
  2  3  1  0
  3  6  1  0
  3  7  1  0
  5  9  1  0
  8  9  1  0
  8 12  1  0
  9 10  1  0
  9 13  1  0
 10 11  2  0
 10 14  1  0
M  RAD  1   3   2
M  END
>  <reaction>  (11) 
rxn_1246

>  <mol_properties>  (11) 
{"1": {"label": "*4", "atom_type": "Ct"}, "2": {"label": "*3", "atom_type": "Cs"}, "4": {"label": "*2", "atom_type": "H0"}, "8": {"label": "*1", "atom_type": "Cs"}, "9": {"label": "*0", "atom_type": "CS"}}

>  <type>  (11) 
unop_7

>  <geom_source>  (11) 
Heuristics

$$$$

     RDKit          3D

 14 12  0  0  0  0  0  0  0  0999 V2000
   -0.3354   -2.3413   -2.6580 C   0  0  0  0  0  0  0  0  0  0  0  0
   -0.3354   -2.3413   -1.4610 C   0  0  0  0  0  0  0  0  0  0  0  0
   -0.3354   -2.3413   -0.0056 C   0  0  0  0  0  3  0  0  0  0  0  0
   -0.3354   -2.3413   -3.7213 H   0  0  0  0  0  0  0  0  0  0  0  0
   -0.2239   -1.1217    0.4569 H   0  0  0  0  0  0  0  0  0  0  0  0
    0.4983   -2.9298    0.3798 H   0  0  0  0  0  0  0  0  0  0  0  0
   -1.2620   -2.7690    0.3798 H   0  0  0  0  0  0  0  0  0  0  0  0
   -1.7512    0.8546    1.1475 S   0  0  0  0  0  0  0  0  0  0  0  0
   -0.1128    0.0940    0.9178 C   0  0  0  0  0  0  0  0  0  0  0  0
    0.9411    1.1475    0.9221 C   0  0  0  0  0  0  0  0  0  0  0  0
    1.8817    1.5191   -0.3264 S   0  0  0  0  0  0  0  0  0  0  0  0
   -1.7317    1.5727    0.0164 H   0  0  0  0  0  0  0  0  0  0  0  0
    0.0094   -0.5632    1.7821 H   0  0  0  0  0  0  0  0  0  0  0  0
    1.0233    1.6990    1.8594 H   0  0  0  0  0  0  0  0  0  0  0  0
  1  2  3  0
  1  4  1  0
  2  3  1  0
  3  6  1  0
  3  7  1  0
  5  9  1  0
  8  9  1  0
  8 12  1  0
  9 10  1  0
  9 13  1  0
 10 11  2  0
 10 14  1  0
M  RAD  1   3   2
M  END
>  <reaction>  (12) 
rxn_1246

>  <mol_properties>  (12) 
{"1": {"label": "*4", "atom_type": "Ct"}, "2": {"label": "*3", "atom_type": "Cs"}, "4": {"label": "*2", "atom_type": "H0"}, "8": {"label": "*1", "atom_type": "Cs"}, "9": {"label": "*0", "atom_type": "CS"}}

>  <type>  (12) 
unop_8

>  <geom_source>  (12) 
Heuristics

$$$$

     RDKit          3D

 14 12  0  0  0  0  0  0  0  0999 V2000
   -0.8017   -1.4842   -3.1195 C   0  0  0  0  0  0  0  0  0  0  0  0
   -0.8017   -1.4842   -1.9225 C   0  0  0  0  0  0  0  0  0  0  0  0
   -0.8017   -1.4842   -0.4671 C   0  0  0  0  0  3  0  0  0  0  0  0
   -0.8017   -1.4842   -4.1828 H   0  0  0  0  0  0  0  0  0  0  0  0
   -0.6903   -0.2646   -0.0047 H   0  0  0  0  0  0  0  0  0  0  0  0
    0.0320   -2.0727   -0.0817 H   0  0  0  0  0  0  0  0  0  0  0  0
   -1.7283   -1.9119   -0.0817 H   0  0  0  0  0  0  0  0  0  0  0  0
    0.3704    1.9977   -0.6919 S   0  0  0  0  0  0  0  0  0  0  0  0
   -0.5792    0.9511    0.4563 C   0  0  0  0  0  0  0  0  0  0  0  0
    0.2549    0.6147    1.6445 C   0  0  0  0  0  0  0  0  0  0  0  0
    0.7405   -0.8638    2.0442 S   0  0  0  0  0  0  0  0  0  0  0  0
    1.3148    1.0866   -0.9630 H   0  0  0  0  0  0  0  0  0  0  0  0
   -1.4277    1.5707    0.7562 H   0  0  0  0  0  0  0  0  0  0  0  0
    0.5556    1.4757    2.2424 H   0  0  0  0  0  0  0  0  0  0  0  0
  1  2  3  0
  1  4  1  0
  2  3  1  0
  3  6  1  0
  3  7  1  0
  5  9  1  0
  8  9  1  0
  8 12  1  0
  9 10  1  0
  9 13  1  0
 10 11  2  0
 10 14  1  0
M  RAD  1   3   2
M  END
>  <reaction>  (13) 
rxn_1246

>  <mol_properties>  (13) 
{"1": {"label": "*4", "atom_type": "Ct"}, "2": {"label": "*3", "atom_type": "Cs"}, "4": {"label": "*2", "atom_type": "H0"}, "8": {"label": "*1", "atom_type": "Cs"}, "9": {"label": "*0", "atom_type": "CS"}}

>  <type>  (13) 
unop_9

>  <geom_source>  (13) 
Heuristics

$$$$

     RDKit          3D

 14 12  0  0  0  0  0  0  0  0999 V2000
   -0.5544   -2.2456   -2.6849 C   0  0  0  0  0  0  0  0  0  0  0  0
   -0.5544   -2.2456   -1.4879 C   0  0  0  0  0  0  0  0  0  0  0  0
   -0.5544   -2.2456   -0.0324 C   0  0  0  0  0  3  0  0  0  0  0  0
   -0.5544   -2.2456   -3.7482 H   0  0  0  0  0  0  0  0  0  0  0  0
   -0.4429   -1.0261    0.4300 H   0  0  0  0  0  0  0  0  0  0  0  0
    0.2793   -2.8342    0.3529 H   0  0  0  0  0  0  0  0  0  0  0  0
   -1.4810   -2.6733    0.3529 H   0  0  0  0  0  0  0  0  0  0  0  0
   -1.7159    1.2286    0.3251 S   0  0  0  0  0  0  0  0  0  0  0  0
   -0.3318    0.1896    0.8909 C   0  0  0  0  0  0  0  0  0  0  0  0
    0.8439    1.0446    1.2188 C   0  0  0  0  0  0  0  0  0  0  0  0
    2.2528    1.0141    0.4472 S   0  0  0  0  0  0  0  0  0  0  0  0
   -1.0986    1.7015   -0.7662 H   0  0  0  0  0  0  0  0  0  0  0  0
   -0.7051   -0.2983    1.7945 H   0  0  0  0  0  0  0  0  0  0  0  0
    0.6762    1.7474    2.0357 H   0  0  0  0  0  0  0  0  0  0  0  0
  1  2  3  0
  1  4  1  0
  2  3  1  0
  3  6  1  0
  3  7  1  0
  5  9  1  0
  8  9  1  0
  8 12  1  0
  9 10  1  0
  9 13  1  0
 10 11  2  0
 10 14  1  0
M  RAD  1   3   2
M  END
>  <reaction>  (14) 
rxn_1246

>  <mol_properties>  (14) 
{"1": {"label": "*4", "atom_type": "Ct"}, "2": {"label": "*3", "atom_type": "Cs"}, "4": {"label": "*2", "atom_type": "H0"}, "8": {"label": "*1", "atom_type": "Cs"}, "9": {"label": "*0", "atom_type": "CS"}}

>  <type>  (14) 
unop_10

>  <geom_source>  (14) 
Heuristics

$$$$

     RDKit          3D

 14 12  0  0  0  0  0  0  0  0999 V2000
    0.3813   -1.4047   -3.2735 C   0  0  0  0  0  0  0  0  0  0  0  0
    0.3813   -1.4047   -2.0765 C   0  0  0  0  0  0  0  0  0  0  0  0
    0.3813   -1.4047   -0.6211 C   0  0  0  0  0  3  0  0  0  0  0  0
    0.3813   -1.4047   -4.3368 H   0  0  0  0  0  0  0  0  0  0  0  0
    0.4928   -0.1851   -0.1587 H   0  0  0  0  0  0  0  0  0  0  0  0
    1.2150   -1.9933   -0.2357 H   0  0  0  0  0  0  0  0  0  0  0  0
   -0.5453   -1.8324   -0.2357 H   0  0  0  0  0  0  0  0  0  0  0  0
    1.4588    1.0408    1.9099 S   0  0  0  0  0  0  0  0  0  0  0  0
    0.6039    1.0306    0.3023 C   0  0  0  0  0  0  0  0  0  0  0  0
   -0.8715    1.0192    0.5119 C   0  0  0  0  0  0  0  0  0  0  0  0
   -1.8569   -0.1749    0.0824 S   0  0  0  0  0  0  0  0  0  0  0  0
    1.0026   -0.1510    2.3184 H   0  0  0  0  0  0  0  0  0  0  0  0
    0.9080    1.9640   -0.1774 H   0  0  0  0  0  0  0  0  0  0  0  0
   -1.2606    1.8998    1.0243 H   0  0  0  0  0  0  0  0  0  0  0  0
  1  2  3  0
  1  4  1  0
  2  3  1  0
  3  6  1  0
  3  7  1  0
  5  9  1  0
  8  9  1  0
  8 12  1  0
  9 10  1  0
  9 13  1  0
 10 11  2  0
 10 14  1  0
M  RAD  1   3   2
M  END
>  <reaction>  (15) 
rxn_1246

>  <mol_properties>  (15) 
{"1": {"label": "*4", "atom_type": "Ct"}, "2": {"label": "*3", "atom_type": "Cs"}, "4": {"label": "*2", "atom_type": "H0"}, "8": {"label": "*1", "atom_type": "Cs"}, "9": {"label": "*0", "atom_type": "CS"}}

>  <type>  (15) 
unop_11

>  <geom_source>  (15) 
Heuristics

$$$$

     RDKit          3D

 14 12  0  0  0  0  0  0  0  0999 V2000
   -0.8642   -1.7764   -2.9253 C   0  0  0  0  0  0  0  0  0  0  0  0
   -0.8642   -1.7764   -1.7283 C   0  0  0  0  0  0  0  0  0  0  0  0
   -0.8642   -1.7764   -0.2728 C   0  0  0  0  0  3  0  0  0  0  0  0
   -0.8642   -1.7764   -3.9886 H   0  0  0  0  0  0  0  0  0  0  0  0
   -0.7527   -0.5568    0.1896 H   0  0  0  0  0  0  0  0  0  0  0  0
   -0.0304   -2.3650    0.1125 H   0  0  0  0  0  0  0  0  0  0  0  0
   -1.7907   -2.2041    0.1125 H   0  0  0  0  0  0  0  0  0  0  0  0
   -0.5315    1.8630   -0.7109 S   0  0  0  0  0  0  0  0  0  0  0  0
   -0.6416    0.6589    0.6505 C   0  0  0  0  0  0  0  0  0  0  0  0
    0.5375    0.8011    1.5507 C   0  0  0  0  0  0  0  0  0  0  0  0
    1.6631   -0.3213    1.7838 S   0  0  0  0  0  0  0  0  0  0  0  0
    0.5920    1.3664   -1.2462 H   0  0  0  0  0  0  0  0  0  0  0  0
   -1.5562    0.9289    1.1839 H   0  0  0  0  0  0  0  0  0  0  0  0
    0.6119    1.7698    2.0462 H   0  0  0  0  0  0  0  0  0  0  0  0
  1  2  3  0
  1  4  1  0
  2  3  1  0
  3  6  1  0
  3  7  1  0
  5  9  1  0
  8  9  1  0
  8 12  1  0
  9 10  1  0
  9 13  1  0
 10 11  2  0
 10 14  1  0
M  RAD  1   3   2
M  END
>  <reaction>  (16) 
rxn_1246

>  <mol_properties>  (16) 
{"1": {"label": "*4", "atom_type": "Ct"}, "2": {"label": "*3", "atom_type": "Cs"}, "4": {"label": "*2", "atom_type": "H0"}, "8": {"label": "*1", "atom_type": "Cs"}, "9": {"label": "*0", "atom_type": "CS"}}

>  <type>  (16) 
unop_12

>  <geom_source>  (16) 
Heuristics

$$$$

     RDKit          3D

 14 12  0  0  0  0  0  0  0  0999 V2000
   -2.2354   -1.4621   -0.1233 S   0  0  0  0  0  0  0  0  0  0  0  0
   -0.9083    2.4091    0.1929 S   0  0  0  0  0  1  0  0  0  0  0  0
   -1.1985   -0.0188   -0.5114 C   0  0  0  0  0  0  0  0  0  0  0  0
   -1.6245    1.1697    0.2967 C   0  0  0  0  0  0  0  0  0  0  0  0
    1.1474   -1.1708   -0.2455 C   0  0  0  0  0  0  0  0  0  0  0  0
    1.8796    0.0533    0.0804 C   0  0  0  0  0  0  0  0  0  0  0  0
    2.4827    1.0618    0.3490 C   0  0  0  0  0  0  0  0  0  0  0  0
   -1.2970    0.2067   -1.5948 H   0  0  0  0  0  0  0  0  0  0  0  0
    0.1240   -0.3283   -0.2321 H   0  0  0  0  0  0  0  0  0  0  0  0
   -2.4632    1.1016    0.9826 H   0  0  0  0  0  0  0  0  0  0  0  0
    1.5470   -2.0127    0.3564 H   0  0  0  0  0  0  0  0  0  0  0  0
    1.2678   -1.3980   -1.3248 H   0  0  0  0  0  0  0  0  0  0  0  0
   -1.7338   -1.5589    1.1890 H   0  0  0  0  0  0  0  0  0  0  0  0
    3.0122    1.9473    0.5849 H   0  0  0  0  0  0  0  0  0  0  0  0
  1  3  1  0
  1 13  1  0
  2  4  1  0
  3  4  2  3
  3  8  1  0
  4 10  1  0
  5  6  1  0
  5  9  1  0
  5 11  1  0
  5 12  1  0
  6  7  3  0
  7 14  1  0
M  RAD  1   2   2
M  END
>  <reaction>  (17) 
rxn_1246

>  <mol_properties>  (17) 
{"1": {"label": "*4", "atom_type": "Ct"}, "2": {"label": "*3", "atom_type": "Cs"}, "4": {"label": "*2", "atom_type": "H0"}, "8": {"label": "*1", "atom_type": "Cs"}, "9": {"label": "*0", "atom_type": "CS"}}

>  <type>  (17) 
unop_13

>  <geom_source>  (17) 
AutoTST

$$$$
