
     RDKit          3D

  2  1  0  0  0  0  0  0  0  0999 V2000
    0.0000    0.0000    0.3721 H   0  0  0  0  0  0  0  0  0  0  0  0
    0.0000    0.0000   -0.3721 H   0  0  0  0  0  0  0  0  0  0  0  0
  1  2  1  0
M  END
>  <reaction>  (1) 
rxn_790

>  <mol_properties>  (1) 
{"0": {"label": "donator", "atom_type": "H0"}, "1": {"label": "d_hydrogen", "atom_type": "H0"}}

>  <type>  (1) 
r1h

$$$$

     RDKit          3D

 11 10  0  0  0  0  0  0  0  0999 V2000
    2.0591    0.2533   -0.1061 C   0  0  0  0  0  0  0  0  0  0  0  0
    0.8045   -0.3111   -0.1535 C   0  0  0  0  0  0  0  0  0  0  0  0
   -0.3816    0.3942   -0.1885 C   0  0  0  0  0  3  0  0  0  0  0  0
   -1.7316   -0.2294   -0.2396 C   0  0  0  0  0  0  0  0  0  0  0  0
    2.9505   -0.3576   -0.0805 H   0  0  0  0  0  0  0  0  0  0  0  0
    2.1872    1.3290   -0.0933 H   0  0  0  0  0  0  0  0  0  0  0  0
    0.7385   -1.3970   -0.1643 H   0  0  0  0  0  0  0  0  0  0  0  0
   -0.3340    1.4795   -0.1783 H   0  0  0  0  0  0  0  0  0  0  0  0
   -1.6704   -1.3186   -0.2461 H   0  0  0  0  0  0  0  0  0  0  0  0
   -2.3404    0.0713    0.6191 H   0  0  0  0  0  0  0  0  0  0  0  0
   -2.2805    0.0851   -1.1331 H   0  0  0  0  0  0  0  0  0  0  0  0
  1  2  2  3
  1  5  1  0
  1  6  1  0
  2  3  1  0
  2  7  1  0
  3  4  1  0
  3  8  1  0
  4  9  1  0
  4 10  1  0
  4 11  1  0
M  RAD  1   3   2
M  END
>  <reaction>  (2) 
rxn_790

>  <mol_properties>  (2) 
{"2": {"label": "acceptor", "atom_type": "Cs"}}

>  <type>  (2) 
r2

$$$$

     RDKit          3D

 12 11  0  0  0  0  0  0  0  0999 V2000
    1.9877    0.1011    0.4814 C   0  0  0  0  0  0  0  0  0  0  0  0
    0.8179    0.5502    0.0525 C   0  0  0  0  0  0  0  0  0  0  0  0
   -0.2939   -0.2692   -0.5320 C   0  0  0  0  0  0  0  0  0  0  0  0
   -0.0292   -1.7631   -0.6328 C   0  0  0  0  0  0  0  0  0  0  0  0
    2.2522   -0.9490    0.4436 H   0  0  0  0  0  0  0  0  0  0  0  0
    2.7295    0.7757    0.8896 H   0  0  0  0  0  0  0  0  0  0  0  0
    0.6162    1.6164    0.1190 H   0  0  0  0  0  0  0  0  0  0  0  0
   -0.5268    0.1319   -1.5245 H   0  0  0  0  0  0  0  0  0  0  0  0
   -1.1959   -0.0938    0.0644 H   0  0  0  0  0  0  0  0  0  0  0  0
    0.1590   -2.1992    0.3502 H   0  0  0  0  0  0  0  0  0  0  0  0
    0.8382   -1.9701   -1.2626 H   0  0  0  0  0  0  0  0  0  0  0  0
   -0.8879   -2.2759   -1.0672 H   0  0  0  0  0  0  0  0  0  0  0  0
  1  2  2  3
  1  5  1  0
  1  6  1  0
  2  3  1  0
  2  7  1  0
  3  4  1  0
  3  8  1  0
  3  9  1  0
  4 10  1  0
  4 11  1  0
  4 12  1  0
M  END
>  <reaction>  (3) 
rxn_790

>  <mol_properties>  (3) 
{"0": {"label": "a_hydrogen", "atom_type": "H0"}, "3": {"label": "acceptor", "atom_type": "Cs"}}

>  <type>  (3) 
r2h

$$$$

     RDKit          3D

 13 11  0  0  0  0  0  0  0  0999 V2000
   -0.3398   -0.5910   -2.7557 H   0  0  0  0  0 15  0  0  0  0  0  0
   -0.4678   -0.5391   -1.6657 H   0  0  0  0  0  0  0  0  0  0  0  0
    0.3952    1.4316    0.7031 C   0  0  0  0  0  0  0  0  0  0  0  0
   -0.5610    0.8242    0.0097 C   0  0  0  0  0  0  0  0  0  0  0  0
   -0.5413   -0.5811   -0.4511 C   0  0  0  0  0  0  0  0  0  0  0  0
    0.5949   -1.4638    0.0094 C   0  0  0  0  0  0  0  0  0  0  0  0
    0.3021    2.4712    0.9895 H   0  0  0  0  0  0  0  0  0  0  0  0
    1.2956    0.9171    1.0168 H   0  0  0  0  0  0  0  0  0  0  0  0
   -1.4420    1.3940   -0.2719 H   0  0  0  0  0  0  0  0  0  0  0  0
   -1.5163   -1.0544   -0.3179 H   0  0  0  0  0  0  0  0  0  0  0  0
    0.5882   -1.5726    1.0967 H   0  0  0  0  0  0  0  0  0  0  0  0
    0.5106   -2.4577   -0.4305 H   0  0  0  0  0  0  0  0  0  0  0  0
    1.5620   -1.0499   -0.2808 H   0  0  0  0  0  0  0  0  0  0  0  0
  2  5  1  0
  3  4  2  3
  3  7  1  0
  3  8  1  0
  4  5  1  0
  4  9  1  0
  5  6  1  0
  5 10  1  0
  6 11  1  0
  6 12  1  0
  6 13  1  0
M  END
>  <reaction>  (4) 
rxn_790

>  <mol_properties>  (4) 
{"0": {"label": "*1", "atom_type": "H0"}, "1": {"label": "*2", "atom_type": "H0"}, "3": {"label": "*4", "atom_type": "Cd"}, "4": {"label": "*3", "atom_type": "Cs"}}

>  <type>  (4) 
ts

$$$$

     RDKit          3D

 13 11  0  0  0  0  0  0  0  0999 V2000
   -0.5167   -0.5874   -2.7152 H   0  0  0  0  0 15  0  0  0  0  0  0
   -0.5167   -0.5874   -1.8222 H   0  0  0  0  0  0  0  0  0  0  0  0
    0.3713    1.4060    0.7601 C   0  0  0  0  0  0  0  0  0  0  0  0
   -0.5167    0.8380   -0.0415 C   0  0  0  0  0  0  0  0  0  0  0  0
   -0.5167   -0.5874   -0.5076 C   0  0  0  0  0  0  0  0  0  0  0  0
    0.6272   -1.4484    0.0043 C   0  0  0  0  0  0  0  0  0  0  0  0
    0.2847    2.4480    1.0408 H   0  0  0  0  0  0  0  0  0  0  0  0
    1.2146    0.8603    1.1665 H   0  0  0  0  0  0  0  0  0  0  0  0
   -1.3396    1.4428   -0.4145 H   0  0  0  0  0  0  0  0  0  0  0  0
   -1.4737   -1.0386   -0.2233 H   0  0  0  0  0  0  0  0  0  0  0  0
    0.6229   -1.5056    1.0945 H   0  0  0  0  0  0  0  0  0  0  0  0
    0.5459   -2.4641   -0.3842 H   0  0  0  0  0  0  0  0  0  0  0  0
    1.5942   -1.0477   -0.3061 H   0  0  0  0  0  0  0  0  0  0  0  0
  2  5  1  0
  3  4  2  3
  3  7  1  0
  3  8  1  0
  4  5  1  0
  4  9  1  0
  5  6  1  0
  5 10  1  0
  6 11  1  0
  6 12  1  0
  6 13  1  0
M  END
>  <reaction>  (5) 
rxn_790

>  <mol_properties>  (5) 
{"0": {"label": "*1", "atom_type": "H0"}, "1": {"label": "*2", "atom_type": "H0"}, "3": {"label": "*4", "atom_type": "Cd"}, "4": {"label": "*3", "atom_type": "Cs"}}

>  <type>  (5) 
unop_1

>  <geom_source>  (5) 
Heuristics

$$$$

     RDKit          3D

 13 11  0  0  0  0  0  0  0  0999 V2000
   -0.3640    0.2428    0.5785 C   0  0  0  0  0  0  0  0  0  0  0  0
   -1.2730   -0.6590   -0.2526 C   0  0  0  0  0  0  0  0  0  0  0  0
    0.9417    0.5004   -0.1221 C   0  0  0  0  0  0  0  0  0  0  0  0
    1.8661   -0.4546   -0.2605 C   0  0  0  0  0  0  0  0  0  0  0  0
   -0.1756   -0.2225    1.5703 H   0  0  0  0  0  0  0  0  0  0  0  0
   -0.8617    1.1782    0.7409 H   0  0  0  0  0  0  0  0  0  0  0  0
   -0.8071   -1.6571   -0.3950 H   0  0  0  0  0  0  0  0  0  0  0  0
   -2.2421   -0.7946    0.2724 H   0  0  0  0  0  0  0  0  0  0  0  0
   -1.4676   -0.2000   -1.2456 H   0  0  0  0  0  0  0  0  0  0  0  0
    1.1513    1.4978   -0.4977 H   0  0  0  0  0  0  0  0  0  0  0  0
    1.6970   -1.4564    0.1224 H   0  0  0  0  0  0  0  0  0  0  0  0
    2.8047   -0.2335   -0.7583 H   0  0  0  0  0  0  0  0  0  0  0  0
   -1.2698    2.2586    0.2473 H   0  0  0  0  0 15  0  0  0  0  0  0
  1  2  1  0
  1  3  1  0
  1  5  1  0
  1  6  1  0
  2  7  1  0
  2  8  1  0
  2  9  1  0
  3  4  2  3
  3 10  1  0
  4 11  1  0
  4 12  1  0
M  END
>  <reaction>  (6) 
rxn_790

>  <mol_properties>  (6) 
{"0": {"label": "*1", "atom_type": "H0"}, "1": {"label": "*2", "atom_type": "H0"}, "3": {"label": "*4", "atom_type": "Cd"}, "4": {"label": "*3", "atom_type": "Cs"}}

>  <type>  (6) 
unop_2

>  <geom_source>  (6) 
AutoTST

$$$$
