
     RDKit          3D

  9  8  0  0  0  0  0  0  0  0999 V2000
    1.1303   -0.2933   -0.7510 C   0  0  0  0  0  0  0  0  0  0  0  0
    0.2866    0.4560   -0.0588 C   0  0  0  0  0  0  0  0  0  0  0  0
   -0.9719   -0.0331    0.5823 C   0  0  0  0  0  0  0  0  0  0  0  0
    2.0274    0.1230   -1.1916 H   0  0  0  0  0  0  0  0  0  0  0  0
    0.9532   -1.3530   -0.9023 H   0  0  0  0  0  0  0  0  0  0  0  0
    0.5065    1.5132    0.0659 H   0  0  0  0  0  0  0  0  0  0  0  0
   -0.9526    0.1426    1.6610 H   0  0  0  0  0  0  0  0  0  0  0  0
   -1.1182   -1.1002    0.4106 H   0  0  0  0  0  0  0  0  0  0  0  0
   -1.8412    0.5010    0.1901 H   0  0  0  0  0  0  0  0  0  0  0  0
  1  2  2  3
  1  4  1  0
  1  5  1  0
  2  3  1  0
  2  6  1  0
  3  7  1  0
  3  8  1  0
  3  9  1  0
M  END
>  <reaction>  (1) 
rxn_1030

>  <mol_properties>  (1) 
{"2": {"label": "donator", "atom_type": "Cs"}, "6": {"label": "d_hydrogen", "atom_type": "H0"}}

>  <type>  (1) 
r1h

$$$$

     RDKit          3D

  7  6  0  0  0  0  0  0  0  0999 V2000
   -2.0652    0.3855   -0.2963 S   0  0  0  0  0  0  0  0  0  0  0  0
   -0.7169   -0.5853    0.1792 C   0  0  0  0  0  3  0  0  0  0  0  0
    0.5987   -0.2168    0.0254 C   0  0  0  0  0  0  0  0  0  0  0  0
    1.7547    0.1211   -0.1163 C   0  0  0  0  0  0  0  0  0  0  0  0
   -1.3643    1.4227   -0.7731 H   0  0  0  0  0  0  0  0  0  0  0  0
   -0.9781   -1.5363    0.6220 H   0  0  0  0  0  0  0  0  0  0  0  0
    2.7711    0.4089   -0.2366 H   0  0  0  0  0  0  0  0  0  0  0  0
  1  2  1  0
  1  5  1  0
  2  3  1  0
  2  6  1  0
  3  4  3  0
  4  7  1  0
M  RAD  1   2   2
M  END
>  <reaction>  (2) 
rxn_1030

>  <mol_properties>  (2) 
{"1": {"label": "acceptor", "atom_type": "Cs"}}

>  <type>  (2) 
r2

$$$$

     RDKit          3D

  8  7  0  0  0  0  0  0  0  0999 V2000
   -0.7014    1.0753    1.5530 S   0  0  0  0  0  0  0  0  0  0  0  0
   -0.3105   -0.4583    0.6462 C   0  0  0  0  0  0  0  0  0  0  0  0
    0.0935   -0.2424   -0.7319 C   0  0  0  0  0  0  0  0  0  0  0  0
    0.4431   -0.0604   -1.8621 C   0  0  0  0  0  0  0  0  0  0  0  0
    0.4994    1.6466    1.3970 H   0  0  0  0  0  0  0  0  0  0  0  0
   -1.2277   -1.0477    0.6819 H   0  0  0  0  0  0  0  0  0  0  0  0
    0.4563   -1.0151    1.1841 H   0  0  0  0  0  0  0  0  0  0  0  0
    0.7474    0.1020   -2.8681 H   0  0  0  0  0  0  0  0  0  0  0  0
  1  2  1  0
  1  5  1  0
  2  3  1  0
  2  6  1  0
  2  7  1  0
  3  4  3  0
  4  8  1  0
M  END
>  <reaction>  (3) 
rxn_1030

>  <mol_properties>  (3) 
{"1": {"label": "acceptor", "atom_type": "Cs"}, "7": {"label": "a_hydrogen", "atom_type": "H0"}}

>  <type>  (3) 
r2h

$$$$

     RDKit          3D

 16 14  0  0  0  0  0  0  0  0999 V2000
    0.0755   -0.3982    1.7712 S   0  0  0  0  0  0  0  0  0  0  0  0
   -0.4026    0.8885    0.6369 C   0  0  0  0  0  3  0  0  0  0  0  0
   -1.6187    0.7212   -0.0826 C   0  0  0  0  0  0  0  0  0  0  0  0
   -2.5974    0.5570   -0.7608 C   0  0  0  0  0  0  0  0  0  0  0  0
   -0.0807   -1.4114    0.9074 H   0  0  0  0  0  0  0  0  0  0  0  0
   -0.2896    1.8575    1.1174 H   0  0  0  0  0  0  0  0  0  0  0  0
   -3.4803    0.4186   -1.3369 H   0  0  0  0  0  0  0  0  0  0  0  0
    1.0250   -1.5614   -2.0296 C   0  0  0  0  0  0  0  0  0  0  0  0
    1.7430   -0.6405   -1.3705 C   0  0  0  0  0  0  0  0  0  0  0  0
    1.4261    0.7704   -1.3357 C   0  0  0  0  0  0  0  0  0  0  0  0
    1.2828   -2.6117   -1.9918 H   0  0  0  0  0  0  0  0  0  0  0  0
    0.1680   -1.2801   -2.6314 H   0  0  0  0  0  0  0  0  0  0  0  0
    2.5861   -0.9697   -0.7706 H   0  0  0  0  0  0  0  0  0  0  0  0
    0.5609    0.9044   -0.3149 H   0  0  0  0  0  0  0  0  0  0  0  0
    0.8036    1.1419   -2.1467 H   0  0  0  0  0  0  0  0  0  0  0  0
    2.2300    1.4448   -1.0551 H   0  0  0  0  0  0  0  0  0  0  0  0
  1  2  1  0
  1  5  1  0
  2  3  1  0
  2  6  1  0
  3  4  3  0
  4  7  1  0
  8  9  2  3
  8 11  1  0
  8 12  1  0
  9 10  1  0
  9 13  1  0
 10 14  1  0
 10 15  1  0
 10 16  1  0
M  RAD  1   2   2
M  END
>  <reaction>  (4) 
rxn_1030

>  <mol_properties>  (4) 
{"0": {"label": "*4", "atom_type": "S2s"}, "1": {"label": "*3", "atom_type": "Cs"}, "8": {"label": "*0", "atom_type": "Cd"}, "9": {"label": "*1", "atom_type": "Cs"}, "13": {"label": "*2", "atom_type": "H0"}}

>  <type>  (4) 
ts

$$$$

     RDKit          3D

 16 14  0  0  0  0  0  0  0  0999 V2000
    0.1433    0.4612    2.1770 S   0  0  0  0  0  0  0  0  0  0  0  0
   -0.5293    0.4431    0.4817 C   0  0  0  0  0  0  0  0  0  0  0  0
   -1.8946   -0.0437    0.3935 C   0  0  0  0  0  0  0  0  0  0  0  0
   -3.0200   -0.4450    0.3208 C   0  0  0  0  0  0  0  0  0  0  0  0
   -0.7897    1.2699    2.6949 H   0  0  0  0  0  0  0  0  0  0  0  0
   -0.4594    1.4413    0.0505 H   0  0  0  0  0  0  0  0  0  0  0  0
   -4.0198   -0.8015    0.2562 H   0  0  0  0  0  0  0  0  0  0  0  0
    1.5752   -0.8201   -3.2640 C   0  0  0  0  0  0  0  0  0  0  0  0
    1.5752   -0.8201   -1.9402 C   0  0  0  0  0  0  0  0  0  0  0  0
    1.5752    0.4021   -1.0797 C   0  0  0  0  0  3  0  0  0  0  0  0
    1.5752   -1.7428   -3.8305 H   0  0  0  0  0  0  0  0  0  0  0  0
    1.5752    0.1055   -3.8300 H   0  0  0  0  0  0  0  0  0  0  0  0
    1.5752   -1.7727   -1.4167 H   0  0  0  0  0  0  0  0  0  0  0  0
    0.5219    0.4226   -0.2983 H   0  0  0  0  0  0  0  0  0  0  0  0
    1.5752    1.3125   -1.6803 H   0  0  0  0  0  0  0  0  0  0  0  0
    2.4529    0.4192   -0.4285 H   0  0  0  0  0  0  0  0  0  0  0  0
  1  2  1  0
  1  5  1  0
  2  3  1  0
  2  6  1  0
  2 14  1  0
  3  4  3  0
  4  7  1  0
  8  9  2  3
  8 11  1  0
  8 12  1  0
  9 10  1  0
  9 13  1  0
 10 15  1  0
 10 16  1  0
M  RAD  1  10   2
M  END
>  <reaction>  (5) 
rxn_1030

>  <mol_properties>  (5) 
{"0": {"label": "*4", "atom_type": "S2s"}, "1": {"label": "*3", "atom_type": "Cs"}, "8": {"label": "*0", "atom_type": "Cd"}, "9": {"label": "*1", "atom_type": "Cs"}, "13": {"label": "*2", "atom_type": "H0"}}

>  <type>  (5) 
unop_1

>  <geom_source>  (5) 
Heuristics

$$$$

     RDKit          3D

 16 14  0  0  0  0  0  0  0  0999 V2000
   -0.6820   -1.2106    1.2188 S   0  0  0  0  0  0  0  0  0  0  0  0
   -0.2886    0.5441    0.9136 C   0  0  0  0  0  0  0  0  0  0  0  0
   -1.4549    1.3809    0.6935 C   0  0  0  0  0  0  0  0  0  0  0  0
   -2.4163    2.0705    0.5121 C   0  0  0  0  0  0  0  0  0  0  0  0
   -1.4509   -1.0021    2.2948 H   0  0  0  0  0  0  0  0  0  0  0  0
    0.3017    0.9354    1.7417 H   0  0  0  0  0  0  0  0  0  0  0  0
   -3.2704    2.6833    0.3510 H   0  0  0  0  0  0  0  0  0  0  0  0
    1.8159   -0.7191   -2.8321 C   0  0  0  0  0  0  0  0  0  0  0  0
    1.8159   -0.7191   -1.5083 C   0  0  0  0  0  0  0  0  0  0  0  0
    1.8159    0.5031   -0.6478 C   0  0  0  0  0  3  0  0  0  0  0  0
    1.8159   -1.6418   -3.3986 H   0  0  0  0  0  0  0  0  0  0  0  0
    1.8159    0.2065   -3.3981 H   0  0  0  0  0  0  0  0  0  0  0  0
    1.8159   -1.6717   -0.9848 H   0  0  0  0  0  0  0  0  0  0  0  0
    0.7626    0.5236    0.1337 H   0  0  0  0  0  0  0  0  0  0  0  0
    1.8159    1.4135   -1.2484 H   0  0  0  0  0  0  0  0  0  0  0  0
    2.6936    0.5202    0.0034 H   0  0  0  0  0  0  0  0  0  0  0  0
  1  2  1  0
  1  5  1  0
  2  3  1  0
  2  6  1  0
  2 14  1  0
  3  4  3  0
  4  7  1  0
  8  9  2  3
  8 11  1  0
  8 12  1  0
  9 10  1  0
  9 13  1  0
 10 15  1  0
 10 16  1  0
M  RAD  1  10   2
M  END
>  <reaction>  (6) 
rxn_1030

>  <mol_properties>  (6) 
{"0": {"label": "*4", "atom_type": "S2s"}, "1": {"label": "*3", "atom_type": "Cs"}, "8": {"label": "*0", "atom_type": "Cd"}, "9": {"label": "*1", "atom_type": "Cs"}, "13": {"label": "*2", "atom_type": "H0"}}

>  <type>  (6) 
unop_2

>  <geom_source>  (6) 
Heuristics

$$$$

     RDKit          3D

 16 14  0  0  0  0  0  0  0  0999 V2000
   -0.0730    1.2729    1.9252 S   0  0  0  0  0  0  0  0  0  0  0  0
   -0.6128    0.3752    0.4319 C   0  0  0  0  0  0  0  0  0  0  0  0
   -1.5782   -0.6778    0.6930 C   0  0  0  0  0  0  0  0  0  0  0  0
   -2.3740   -1.5456    0.9081 C   0  0  0  0  0  0  0  0  0  0  0  0
   -1.2913    1.6887    2.2932 H   0  0  0  0  0  0  0  0  0  0  0  0
   -1.0164    1.0817   -0.2929 H   0  0  0  0  0  0  0  0  0  0  0  0
   -3.0810   -2.3168    1.0992 H   0  0  0  0  0  0  0  0  0  0  0  0
    1.4917   -0.8880   -3.3137 C   0  0  0  0  0  0  0  0  0  0  0  0
    1.4917   -0.8880   -1.9900 C   0  0  0  0  0  0  0  0  0  0  0  0
    1.4917    0.3342   -1.1294 C   0  0  0  0  0  3  0  0  0  0  0  0
    1.4917   -1.8107   -3.8802 H   0  0  0  0  0  0  0  0  0  0  0  0
    1.4917    0.0376   -3.8797 H   0  0  0  0  0  0  0  0  0  0  0  0
    1.4917   -1.8406   -1.4664 H   0  0  0  0  0  0  0  0  0  0  0  0
    0.4384    0.3547   -0.3480 H   0  0  0  0  0  0  0  0  0  0  0  0
    1.4917    1.2446   -1.7300 H   0  0  0  0  0  0  0  0  0  0  0  0
    2.3694    0.3513   -0.4782 H   0  0  0  0  0  0  0  0  0  0  0  0
  1  2  1  0
  1  5  1  0
  2  3  1  0
  2  6  1  0
  2 14  1  0
  3  4  3  0
  4  7  1  0
  8  9  2  3
  8 11  1  0
  8 12  1  0
  9 10  1  0
  9 13  1  0
 10 15  1  0
 10 16  1  0
M  RAD  1  10   2
M  END
>  <reaction>  (7) 
rxn_1030

>  <mol_properties>  (7) 
{"0": {"label": "*4", "atom_type": "S2s"}, "1": {"label": "*3", "atom_type": "Cs"}, "8": {"label": "*0", "atom_type": "Cd"}, "9": {"label": "*1", "atom_type": "Cs"}, "13": {"label": "*2", "atom_type": "H0"}}

>  <type>  (7) 
unop_3

>  <geom_source>  (7) 
Heuristics

$$$$

     RDKit          3D

 16 14  0  0  0  0  0  0  0  0999 V2000
   -1.9415   -0.1248    0.0243 S   0  0  0  0  0  0  0  0  0  0  0  0
   -0.5137   -0.1214    1.1594 C   0  0  0  0  0  0  0  0  0  0  0  0
   -0.0223    1.2056    1.4859 C   0  0  0  0  0  0  0  0  0  0  0  0
    0.3827    2.2993    1.7550 C   0  0  0  0  0  0  0  0  0  0  0  0
   -2.7464    0.6110    0.8011 H   0  0  0  0  0  0  0  0  0  0  0  0
   -0.7707   -0.6600    2.0710 H   0  0  0  0  0  0  0  0  0  0  0  0
    0.7425    3.2711    1.9941 H   0  0  0  0  0  0  0  0  0  0  0  0
    1.5908   -1.3846   -2.5863 C   0  0  0  0  0  0  0  0  0  0  0  0
    1.5908   -1.3846   -1.2625 C   0  0  0  0  0  0  0  0  0  0  0  0
    1.5908   -0.1625   -0.4020 C   0  0  0  0  0  3  0  0  0  0  0  0
    1.5908   -2.3074   -3.1528 H   0  0  0  0  0  0  0  0  0  0  0  0
    1.5908   -0.4590   -3.1523 H   0  0  0  0  0  0  0  0  0  0  0  0
    1.5908   -2.3373   -0.7390 H   0  0  0  0  0  0  0  0  0  0  0  0
    0.5375   -0.1419    0.3794 H   0  0  0  0  0  0  0  0  0  0  0  0
    1.5908    0.7480   -1.0026 H   0  0  0  0  0  0  0  0  0  0  0  0
    2.4685   -0.1453    0.2492 H   0  0  0  0  0  0  0  0  0  0  0  0
  1  2  1  0
  1  5  1  0
  2  3  1  0
  2  6  1  0
  2 14  1  0
  3  4  3  0
  4  7  1  0
  8  9  2  3
  8 11  1  0
  8 12  1  0
  9 10  1  0
  9 13  1  0
 10 15  1  0
 10 16  1  0
M  RAD  1  10   2
M  END
>  <reaction>  (8) 
rxn_1030

>  <mol_properties>  (8) 
{"0": {"label": "*4", "atom_type": "S2s"}, "1": {"label": "*3", "atom_type": "Cs"}, "8": {"label": "*0", "atom_type": "Cd"}, "9": {"label": "*1", "atom_type": "Cs"}, "13": {"label": "*2", "atom_type": "H0"}}

>  <type>  (8) 
unop_4

>  <geom_source>  (8) 
Heuristics

$$$$

     RDKit          3D

 16 14  0  0  0  0  0  0  0  0999 V2000
   -0.6343    1.7866    1.3705 S   0  0  0  0  0  0  0  0  0  0  0  0
   -0.7955    0.2478    0.4044 C   0  0  0  0  0  0  0  0  0  0  0  0
   -0.8417   -0.9561    1.2153 C   0  0  0  0  0  0  0  0  0  0  0  0
   -0.8797   -1.9484    1.8835 C   0  0  0  0  0  0  0  0  0  0  0  0
   -1.7499    1.6224    2.0924 H   0  0  0  0  0  0  0  0  0  0  0  0
   -1.6795    0.3058   -0.2299 H   0  0  0  0  0  0  0  0  0  0  0  0
   -0.9135   -2.8300    2.4773 H   0  0  0  0  0  0  0  0  0  0  0  0
    1.3090   -1.0154   -3.3412 C   0  0  0  0  0  0  0  0  0  0  0  0
    1.3090   -1.0154   -2.0175 C   0  0  0  0  0  0  0  0  0  0  0  0
    1.3090    0.2068   -1.1570 C   0  0  0  0  0  3  0  0  0  0  0  0
    1.3090   -1.9381   -3.9077 H   0  0  0  0  0  0  0  0  0  0  0  0
    1.3090   -0.0898   -3.9072 H   0  0  0  0  0  0  0  0  0  0  0  0
    1.3090   -1.9680   -1.4940 H   0  0  0  0  0  0  0  0  0  0  0  0
    0.2557    0.2273   -0.3755 H   0  0  0  0  0  0  0  0  0  0  0  0
    1.3090    1.1173   -1.7576 H   0  0  0  0  0  0  0  0  0  0  0  0
    2.1867    0.2239   -0.5058 H   0  0  0  0  0  0  0  0  0  0  0  0
  1  2  1  0
  1  5  1  0
  2  3  1  0
  2  6  1  0
  2 14  1  0
  3  4  3  0
  4  7  1  0
  8  9  2  3
  8 11  1  0
  8 12  1  0
  9 10  1  0
  9 13  1  0
 10 15  1  0
 10 16  1  0
M  RAD  1  10   2
M  END
>  <reaction>  (9) 
rxn_1030

>  <mol_properties>  (9) 
{"0": {"label": "*4", "atom_type": "S2s"}, "1": {"label": "*3", "atom_type": "Cs"}, "8": {"label": "*0", "atom_type": "Cd"}, "9": {"label": "*1", "atom_type": "Cs"}, "13": {"label": "*2", "atom_type": "H0"}}

>  <type>  (9) 
unop_5

>  <geom_source>  (9) 
Heuristics

$$$$

     RDKit          3D

 16 14  0  0  0  0  0  0  0  0999 V2000
   -1.9785    0.6467    0.0328 S   0  0  0  0  0  0  0  0  0  0  0  0
   -0.6993   -0.2324    0.9908 C   0  0  0  0  0  0  0  0  0  0  0  0
    0.2310    0.6457    1.6783 C   0  0  0  0  0  0  0  0  0  0  0  0
    0.9976    1.3694    2.2449 C   0  0  0  0  0  0  0  0  0  0  0  0
   -2.4891    1.3299    1.0649 H   0  0  0  0  0  0  0  0  0  0  0  0
   -1.1749   -0.9054    1.7036 H   0  0  0  0  0  0  0  0  0  0  0  0
    1.6789    2.0125    2.7484 H   0  0  0  0  0  0  0  0  0  0  0  0
    1.4052   -1.4956   -2.7549 C   0  0  0  0  0  0  0  0  0  0  0  0
    1.4052   -1.4956   -1.4311 C   0  0  0  0  0  0  0  0  0  0  0  0
    1.4052   -0.2734   -0.5706 C   0  0  0  0  0  3  0  0  0  0  0  0
    1.4052   -2.4183   -3.3214 H   0  0  0  0  0  0  0  0  0  0  0  0
    1.4052   -0.5700   -3.3209 H   0  0  0  0  0  0  0  0  0  0  0  0
    1.4052   -2.4482   -0.9076 H   0  0  0  0  0  0  0  0  0  0  0  0
    0.3519   -0.2529    0.2108 H   0  0  0  0  0  0  0  0  0  0  0  0
    1.4052    0.6370   -1.1712 H   0  0  0  0  0  0  0  0  0  0  0  0
    2.2829   -0.2563    0.0806 H   0  0  0  0  0  0  0  0  0  0  0  0
  1  2  1  0
  1  5  1  0
  2  3  1  0
  2  6  1  0
  2 14  1  0
  3  4  3  0
  4  7  1  0
  8  9  2  3
  8 11  1  0
  8 12  1  0
  9 10  1  0
  9 13  1  0
 10 15  1  0
 10 16  1  0
M  RAD  1  10   2
M  END
>  <reaction>  (10) 
rxn_1030

>  <mol_properties>  (10) 
{"0": {"label": "*4", "atom_type": "S2s"}, "1": {"label": "*3", "atom_type": "Cs"}, "8": {"label": "*0", "atom_type": "Cd"}, "9": {"label": "*1", "atom_type": "Cs"}, "13": {"label": "*2", "atom_type": "H0"}}

>  <type>  (10) 
unop_6

>  <geom_source>  (10) 
Heuristics

$$$$

     RDKit          3D

 16 14  0  0  0  0  0  0  0  0999 V2000
   -1.7502    1.3278    0.3104 S   0  0  0  0  0  0  0  0  0  0  0  0
   -0.8611   -0.2002    0.7595 C   0  0  0  0  0  0  0  0  0  0  0  0
    0.2207    0.0031    1.7067 C   0  0  0  0  0  0  0  0  0  0  0  0
    1.1124    0.1706    2.4874 C   0  0  0  0  0  0  0  0  0  0  0  0
   -2.1281    1.6470    1.5545 H   0  0  0  0  0  0  0  0  0  0  0  0
   -1.5675   -0.9324    1.1498 H   0  0  0  0  0  0  0  0  0  0  0  0
    1.9047    0.3195    3.1811 H   0  0  0  0  0  0  0  0  0  0  0  0
    1.2433   -1.4635   -2.9861 C   0  0  0  0  0  0  0  0  0  0  0  0
    1.2433   -1.4635   -1.6624 C   0  0  0  0  0  0  0  0  0  0  0  0
    1.2433   -0.2413   -0.8019 C   0  0  0  0  0  3  0  0  0  0  0  0
    1.2433   -2.3862   -3.5526 H   0  0  0  0  0  0  0  0  0  0  0  0
    1.2433   -0.5379   -3.5521 H   0  0  0  0  0  0  0  0  0  0  0  0
    1.2433   -2.4161   -1.1389 H   0  0  0  0  0  0  0  0  0  0  0  0
    0.1900   -0.2207   -0.0204 H   0  0  0  0  0  0  0  0  0  0  0  0
    1.2433    0.6692   -1.4025 H   0  0  0  0  0  0  0  0  0  0  0  0
    2.1210   -0.2242   -0.1507 H   0  0  0  0  0  0  0  0  0  0  0  0
  1  2  1  0
  1  5  1  0
  2  3  1  0
  2  6  1  0
  2 14  1  0
  3  4  3  0
  4  7  1  0
  8  9  2  3
  8 11  1  0
  8 12  1  0
  9 10  1  0
  9 13  1  0
 10 15  1  0
 10 16  1  0
M  RAD  1  10   2
M  END
>  <reaction>  (11) 
rxn_1030

>  <mol_properties>  (11) 
{"0": {"label": "*4", "atom_type": "S2s"}, "1": {"label": "*3", "atom_type": "Cs"}, "8": {"label": "*0", "atom_type": "Cd"}, "9": {"label": "*1", "atom_type": "Cs"}, "13": {"label": "*2", "atom_type": "H0"}}

>  <type>  (11) 
unop_7

>  <geom_source>  (11) 
Heuristics

$$$$

     RDKit          3D

 16 14  0  0  0  0  0  0  0  0999 V2000
    0.0566   -0.3346    2.0770 S   0  0  0  0  0  0  0  0  0  0  0  0
   -0.4674    0.5298    0.5587 C   0  0  0  0  0  0  0  0  0  0  0  0
   -1.9068    0.5726    0.3707 C   0  0  0  0  0  0  0  0  0  0  0  0
   -3.0932    0.6079    0.2158 C   0  0  0  0  0  0  0  0  0  0  0  0
   -0.6112    0.4522    2.9300 H   0  0  0  0  0  0  0  0  0  0  0  0
   -0.0593    1.5401    0.5544 H   0  0  0  0  0  0  0  0  0  0  0  0
   -4.1472    0.6392    0.0782 H   0  0  0  0  0  0  0  0  0  0  0  0
    1.6370   -0.7334   -3.1869 C   0  0  0  0  0  0  0  0  0  0  0  0
    1.6370   -0.7334   -1.8632 C   0  0  0  0  0  0  0  0  0  0  0  0
    1.6370    0.4888   -1.0027 C   0  0  0  0  0  3  0  0  0  0  0  0
    1.6370   -1.6561   -3.7534 H   0  0  0  0  0  0  0  0  0  0  0  0
    1.6370    0.1922   -3.7529 H   0  0  0  0  0  0  0  0  0  0  0  0
    1.6370   -1.6860   -1.3396 H   0  0  0  0  0  0  0  0  0  0  0  0
    0.5838    0.5093   -0.2212 H   0  0  0  0  0  0  0  0  0  0  0  0
    1.6370    1.3992   -1.6033 H   0  0  0  0  0  0  0  0  0  0  0  0
    2.5147    0.5059   -0.3514 H   0  0  0  0  0  0  0  0  0  0  0  0
  1  2  1  0
  1  5  1  0
  2  3  1  0
  2  6  1  0
  2 14  1  0
  3  4  3  0
  4  7  1  0
  8  9  2  3
  8 11  1  0
  8 12  1  0
  9 10  1  0
  9 13  1  0
 10 15  1  0
 10 16  1  0
M  RAD  1  10   2
M  END
>  <reaction>  (12) 
rxn_1030

>  <mol_properties>  (12) 
{"0": {"label": "*4", "atom_type": "S2s"}, "1": {"label": "*3", "atom_type": "Cs"}, "8": {"label": "*0", "atom_type": "Cd"}, "9": {"label": "*1", "atom_type": "Cs"}, "13": {"label": "*2", "atom_type": "H0"}}

>  <type>  (12) 
unop_8

>  <geom_source>  (12) 
Heuristics

$$$$

     RDKit          3D

 16 14  0  0  0  0  0  0  0  0999 V2000
   -1.6456   -0.7855    0.2810 S   0  0  0  0  0  0  0  0  0  0  0  0
   -0.3505    0.0975    1.2139 C   0  0  0  0  0  0  0  0  0  0  0  0
   -0.4861    1.5431    1.1878 C   0  0  0  0  0  0  0  0  0  0  0  0
   -0.5978    2.7347    1.1664 C   0  0  0  0  0  0  0  0  0  0  0  0
   -2.6824   -0.2931    0.9701 H   0  0  0  0  0  0  0  0  0  0  0  0
   -0.3354   -0.2584    2.2436 H   0  0  0  0  0  0  0  0  0  0  0  0
   -0.6971    3.7934    1.1473 H   0  0  0  0  0  0  0  0  0  0  0  0
    1.7539   -1.1657   -2.5318 C   0  0  0  0  0  0  0  0  0  0  0  0
    1.7539   -1.1657   -1.2080 C   0  0  0  0  0  0  0  0  0  0  0  0
    1.7539    0.0564   -0.3475 C   0  0  0  0  0  3  0  0  0  0  0  0
    1.7539   -2.0885   -3.0983 H   0  0  0  0  0  0  0  0  0  0  0  0
    1.7539   -0.2401   -3.0978 H   0  0  0  0  0  0  0  0  0  0  0  0
    1.7539   -2.1184   -0.6845 H   0  0  0  0  0  0  0  0  0  0  0  0
    0.7007    0.0770    0.4339 H   0  0  0  0  0  0  0  0  0  0  0  0
    1.7539    0.9669   -0.9481 H   0  0  0  0  0  0  0  0  0  0  0  0
    2.6316    0.0736    0.3037 H   0  0  0  0  0  0  0  0  0  0  0  0
  1  2  1  0
  1  5  1  0
  2  3  1  0
  2  6  1  0
  2 14  1  0
  3  4  3  0
  4  7  1  0
  8  9  2  3
  8 11  1  0
  8 12  1  0
  9 10  1  0
  9 13  1  0
 10 15  1  0
 10 16  1  0
M  RAD  1  10   2
M  END
>  <reaction>  (13) 
rxn_1030

>  <mol_properties>  (13) 
{"0": {"label": "*4", "atom_type": "S2s"}, "1": {"label": "*3", "atom_type": "Cs"}, "8": {"label": "*0", "atom_type": "Cd"}, "9": {"label": "*1", "atom_type": "Cs"}, "13": {"label": "*2", "atom_type": "H0"}}

>  <type>  (13) 
unop_9

>  <geom_source>  (13) 
Heuristics

$$$$

     RDKit          3D

 16 14  0  0  0  0  0  0  0  0999 V2000
   -0.2466   -0.9242    1.7133 S   0  0  0  0  0  0  0  0  0  0  0  0
   -0.3804    0.5891    0.7038 C   0  0  0  0  0  0  0  0  0  0  0  0
   -1.7438    1.0490    0.5073 C   0  0  0  0  0  0  0  0  0  0  0  0
   -2.8676    1.4280    0.3454 C   0  0  0  0  0  0  0  0  0  0  0  0
   -0.8476   -0.4267    2.8013 H   0  0  0  0  0  0  0  0  0  0  0  0
    0.2206    1.3805    1.1507 H   0  0  0  0  0  0  0  0  0  0  0  0
   -3.8661    1.7647    0.2016 H   0  0  0  0  0  0  0  0  0  0  0  0
    1.7240   -0.6741   -3.0419 C   0  0  0  0  0  0  0  0  0  0  0  0
    1.7240   -0.6741   -1.7181 C   0  0  0  0  0  0  0  0  0  0  0  0
    1.7240    0.5481   -0.8576 C   0  0  0  0  0  3  0  0  0  0  0  0
    1.7240   -1.5968   -3.6083 H   0  0  0  0  0  0  0  0  0  0  0  0
    1.7240    0.2515   -3.6079 H   0  0  0  0  0  0  0  0  0  0  0  0
    1.7240   -1.6267   -1.1946 H   0  0  0  0  0  0  0  0  0  0  0  0
    0.6708    0.5686   -0.0761 H   0  0  0  0  0  0  0  0  0  0  0  0
    1.7240    1.4585   -1.4582 H   0  0  0  0  0  0  0  0  0  0  0  0
    2.6017    0.5652   -0.2064 H   0  0  0  0  0  0  0  0  0  0  0  0
  1  2  1  0
  1  5  1  0
  2  3  1  0
  2  6  1  0
  2 14  1  0
  3  4  3  0
  4  7  1  0
  8  9  2  3
  8 11  1  0
  8 12  1  0
  9 10  1  0
  9 13  1  0
 10 15  1  0
 10 16  1  0
M  RAD  1  10   2
M  END
>  <reaction>  (14) 
rxn_1030

>  <mol_properties>  (14) 
{"0": {"label": "*4", "atom_type": "S2s"}, "1": {"label": "*3", "atom_type": "Cs"}, "8": {"label": "*0", "atom_type": "Cd"}, "9": {"label": "*1", "atom_type": "Cs"}, "13": {"label": "*2", "atom_type": "H0"}}

>  <type>  (14) 
unop_10

>  <geom_source>  (14) 
Heuristics

$$$$

     RDKit          3D

 16 14  0  0  0  0  0  0  0  0999 V2000
   -1.2866    1.7581    0.7822 S   0  0  0  0  0  0  0  0  0  0  0  0
   -0.9248   -0.0114    0.5271 C   0  0  0  0  0  0  0  0  0  0  0  0
   -0.1100   -0.6040    1.5731 C   0  0  0  0  0  0  0  0  0  0  0  0
    0.5615   -1.0925    2.4351 C   0  0  0  0  0  0  0  0  0  0  0  0
   -1.8904    1.6134    1.9685 H   0  0  0  0  0  0  0  0  0  0  0  0
   -1.8582   -0.5635    0.4220 H   0  0  0  0  0  0  0  0  0  0  0  0
    1.1582   -1.5265    3.2011 H   0  0  0  0  0  0  0  0  0  0  0  0
    1.1797   -1.2746   -3.2185 C   0  0  0  0  0  0  0  0  0  0  0  0
    1.1797   -1.2746   -1.8948 C   0  0  0  0  0  0  0  0  0  0  0  0
    1.1797   -0.0524   -1.0342 C   0  0  0  0  0  3  0  0  0  0  0  0
    1.1797   -2.1973   -3.7850 H   0  0  0  0  0  0  0  0  0  0  0  0
    1.1797   -0.3490   -3.7845 H   0  0  0  0  0  0  0  0  0  0  0  0
    1.1797   -2.2272   -1.3712 H   0  0  0  0  0  0  0  0  0  0  0  0
    0.1264   -0.0319   -0.2528 H   0  0  0  0  0  0  0  0  0  0  0  0
    1.1797    0.8580   -1.6348 H   0  0  0  0  0  0  0  0  0  0  0  0
    2.0574   -0.0353   -0.3830 H   0  0  0  0  0  0  0  0  0  0  0  0
  1  2  1  0
  1  5  1  0
  2  3  1  0
  2  6  1  0
  2 14  1  0
  3  4  3  0
  4  7  1  0
  8  9  2  3
  8 11  1  0
  8 12  1  0
  9 10  1  0
  9 13  1  0
 10 15  1  0
 10 16  1  0
M  RAD  1  10   2
M  END
>  <reaction>  (15) 
rxn_1030

>  <mol_properties>  (15) 
{"0": {"label": "*4", "atom_type": "S2s"}, "1": {"label": "*3", "atom_type": "Cs"}, "8": {"label": "*0", "atom_type": "Cd"}, "9": {"label": "*1", "atom_type": "Cs"}, "13": {"label": "*2", "atom_type": "H0"}}

>  <type>  (15) 
unop_11

>  <geom_source>  (15) 
Heuristics

$$$$

     RDKit          3D

 16 14  0  0  0  0  0  0  0  0999 V2000
   -1.1795   -1.1668    0.7133 S   0  0  0  0  0  0  0  0  0  0  0  0
   -0.2631    0.3572    1.1190 C   0  0  0  0  0  0  0  0  0  0  0  0
   -1.0221    1.5768    0.9055 C   0  0  0  0  0  0  0  0  0  0  0  0
   -1.6476    2.5821    0.7296 C   0  0  0  0  0  0  0  0  0  0  0  0
   -2.1892   -0.9612    1.5682 H   0  0  0  0  0  0  0  0  0  0  0  0
    0.0863    0.3096    2.1500 H   0  0  0  0  0  0  0  0  0  0  0  0
   -2.2033    3.4752    0.5732 H   0  0  0  0  0  0  0  0  0  0  0  0
    1.8413   -0.9060   -2.6266 C   0  0  0  0  0  0  0  0  0  0  0  0
    1.8413   -0.9060   -1.3029 C   0  0  0  0  0  0  0  0  0  0  0  0
    1.8413    0.3162   -0.4423 C   0  0  0  0  0  3  0  0  0  0  0  0
    1.8413   -1.8287   -3.1931 H   0  0  0  0  0  0  0  0  0  0  0  0
    1.8413    0.0196   -3.1926 H   0  0  0  0  0  0  0  0  0  0  0  0
    1.8413   -1.8586   -0.7793 H   0  0  0  0  0  0  0  0  0  0  0  0
    0.7881    0.3367    0.3391 H   0  0  0  0  0  0  0  0  0  0  0  0
    1.8413    1.2266   -1.0429 H   0  0  0  0  0  0  0  0  0  0  0  0
    2.7190    0.3333    0.2089 H   0  0  0  0  0  0  0  0  0  0  0  0
  1  2  1  0
  1  5  1  0
  2  3  1  0
  2  6  1  0
  2 14  1  0
  3  4  3  0
  4  7  1  0
  8  9  2  3
  8 11  1  0
  8 12  1  0
  9 10  1  0
  9 13  1  0
 10 15  1  0
 10 16  1  0
M  RAD  1  10   2
M  END
>  <reaction>  (16) 
rxn_1030

>  <mol_properties>  (16) 
{"0": {"label": "*4", "atom_type": "S2s"}, "1": {"label": "*3", "atom_type": "Cs"}, "8": {"label": "*0", "atom_type": "Cd"}, "9": {"label": "*1", "atom_type": "Cs"}, "13": {"label": "*2", "atom_type": "H0"}}

>  <type>  (16) 
unop_12

>  <geom_source>  (16) 
Heuristics

$$$$

     RDKit          3D

 16 14  0  0  0  0  0  0  0  0999 V2000
   -2.9715   -1.4355    0.4370 S   0  0  0  0  0  0  0  0  0  0  0  0
   -1.7340   -0.1379    0.7257 C   0  0  0  0  0  0  0  0  0  0  0  0
    1.8278    0.0208   -0.5175 C   0  0  0  0  0  0  0  0  0  0  0  0
    0.8458   -0.5382    0.4617 C   0  0  0  0  0  0  0  0  0  0  0  0
    3.1400   -0.1746   -0.3706 C   0  0  0  0  0  3  0  0  0  0  0  0
   -2.0813    1.0588   -0.0431 C   0  0  0  0  0  0  0  0  0  0  0  0
   -2.3660    2.0445   -0.6762 C   0  0  0  0  0  0  0  0  0  0  0  0
   -1.7122    0.1139    1.8059 H   0  0  0  0  0  0  0  0  0  0  0  0
   -0.5121   -0.5824    0.3447 H   0  0  0  0  0  0  0  0  0  0  0  0
    1.4604    0.5955   -1.3615 H   0  0  0  0  0  0  0  0  0  0  0  0
    3.5286   -0.7465    0.4668 H   0  0  0  0  0  0  0  0  0  0  0  0
    3.8351    0.2403   -1.0933 H   0  0  0  0  0  0  0  0  0  0  0  0
    0.9162   -1.6462    0.4877 H   0  0  0  0  0  0  0  0  0  0  0  0
    1.0326   -0.1225    1.4744 H   0  0  0  0  0  0  0  0  0  0  0  0
   -2.5935   -1.5995   -0.9097 H   0  0  0  0  0  0  0  0  0  0  0  0
   -2.6160    2.9096   -1.2320 H   0  0  0  0  0  0  0  0  0  0  0  0
  1  2  1  0
  1 15  1  0
  2  6  1  0
  2  8  1  0
  2  9  1  0
  3  4  2  3
  3  5  1  0
  3 10  1  0
  4 13  1  0
  4 14  1  0
  5 11  1  0
  5 12  1  0
  6  7  3  0
  7 16  1  0
M  RAD  1   5   2
M  END
>  <reaction>  (17) 
rxn_1030

>  <mol_properties>  (17) 
{"0": {"label": "*4", "atom_type": "S2s"}, "1": {"label": "*3", "atom_type": "Cs"}, "8": {"label": "*0", "atom_type": "Cd"}, "9": {"label": "*1", "atom_type": "Cs"}, "13": {"label": "*2", "atom_type": "H0"}}

>  <type>  (17) 
unop_13

>  <geom_source>  (17) 
AutoTST

$$$$

     RDKit          3D

 16 14  0  0  0  0  0  0  0  0999 V2000
   -0.6820   -1.2106    1.2188 S   0  0  0  0  0  0  0  0  0  0  0  0
   -0.2886    0.5441    0.9136 C   0  0  0  0  0  0  0  0  0  0  0  0
   -1.4549    1.3809    0.6935 C   0  0  0  0  0  0  0  0  0  0  0  0
   -2.4162    2.0705    0.5121 C   0  0  0  0  0  0  0  0  0  0  0  0
   -1.4509   -1.0021    2.2948 H   0  0  0  0  0  0  0  0  0  0  0  0
    0.3017    0.9354    1.7417 H   0  0  0  0  0  0  0  0  0  0  0  0
   -3.2704    2.6833    0.3510 H   0  0  0  0  0  0  0  0  0  0  0  0
    1.8159   -0.7191   -2.8321 C   0  0  0  0  0  0  0  0  0  0  0  0
    1.8159   -0.7191   -1.5083 C   0  0  0  0  0  0  0  0  0  0  0  0
    1.8159    0.5031   -0.6478 C   0  0  0  0  0  3  0  0  0  0  0  0
    1.8159   -1.6419   -3.3986 H   0  0  0  0  0  0  0  0  0  0  0  0
    1.8159    0.2065   -3.3981 H   0  0  0  0  0  0  0  0  0  0  0  0
    1.8159   -1.6718   -0.9848 H   0  0  0  0  0  0  0  0  0  0  0  0
    0.7626    0.5236    0.1336 H   0  0  0  0  0  0  0  0  0  0  0  0
    1.8159    1.4135   -1.2484 H   0  0  0  0  0  0  0  0  0  0  0  0
    2.6936    0.5202    0.0034 H   0  0  0  0  0  0  0  0  0  0  0  0
  1  2  1  0
  1  5  1  0
  2  3  1  0
  2  6  1  0
  2 14  1  0
  3  4  3  0
  4  7  1  0
  8  9  2  3
  8 11  1  0
  8 12  1  0
  9 10  1  0
  9 13  1  0
 10 15  1  0
 10 16  1  0
M  RAD  1  10   2
M  END
>  <reaction>  (18) 
rxn_1030

>  <mol_properties>  (18) 
{"0": {"label": "*4", "atom_type": "S2s"}, "1": {"label": "*3", "atom_type": "Cs"}, "8": {"label": "*0", "atom_type": "Cd"}, "9": {"label": "*1", "atom_type": "Cs"}, "13": {"label": "*2", "atom_type": "H0"}}

>  <type>  (18) 
unop_14

>  <geom_source>  (18) 
gaussian_log

$$$$
