
     RDKit          3D

  7  6  0  0  0  0  0  0  0  0999 V2000
    1.6899   -0.1839   -0.0115 C   0  0  0  0  0  0  0  0  0  0  0  0
    0.5000   -0.0544   -0.0034 C   0  0  0  0  0  0  0  0  0  0  0  0
   -0.9469    0.1030    0.0064 C   0  0  0  0  0  0  0  0  0  0  0  0
    2.7470   -0.2989   -0.0186 H   0  0  0  0  0  0  0  0  0  0  0  0
   -1.4140   -0.5835   -0.7010 H   0  0  0  0  0  0  0  0  0  0  0  0
   -1.2257    1.1206   -0.2707 H   0  0  0  0  0  0  0  0  0  0  0  0
   -1.3502   -0.1030    0.9988 H   0  0  0  0  0  0  0  0  0  0  0  0
  1  2  3  0
  1  4  1  0
  2  3  1  0
  3  5  1  0
  3  6  1  0
  3  7  1  0
M  END
>  <reaction>  (1) 
rxn_3132

>  <mol_properties>  (1) 
{"2": {"label": "donator", "atom_type": "Cs"}, "4": {"label": "d_hydrogen", "atom_type": "H0"}}

>  <type>  (1) 
r1h

$$$$

     RDKit          3D

  6  6  0  0  0  0  0  0  0  0999 V2000
    1.9594    0.0134   -0.3734 N   0  0  0  0  0  2  0  0  0  0  0  0
    0.7437    0.0051   -0.0788 C   0  0  0  0  0  0  0  0  0  0  0  0
   -0.0745    1.0868    0.0233 O   0  0  0  0  0  0  0  0  0  0  0  0
   -1.3223    0.5972    0.3682 N   0  0  0  0  0  0  0  0  0  0  0  0
   -1.2899   -0.6150    0.4676 N   0  0  0  0  0  0  0  0  0  0  0  0
   -0.0165   -1.0874    0.2015 O   0  0  0  0  0  0  0  0  0  0  0  0
  1  2  2  0
  2  3  1  0
  2  6  1  0
  3  4  1  0
  4  5  2  0
  5  6  1  0
M  RAD  1   1   2
M  END
>  <reaction>  (2) 
rxn_3132

>  <mol_properties>  (2) 
{"0": {"label": "acceptor", "atom_type": "N3d"}}

>  <type>  (2) 
r2

$$$$

     RDKit          3D

  7  7  0  0  0  0  0  0  0  0999 V2000
    1.6064   -0.4313    0.1905 N   0  0  0  0  0  0  0  0  0  0  0  0
    0.3982   -0.1725    0.0701 C   0  0  0  0  0  0  0  0  0  0  0  0
   -0.6051   -1.0481    0.3497 O   0  0  0  0  0  0  0  0  0  0  0  0
   -1.7906   -0.4044    0.0958 N   0  0  0  0  0  0  0  0  0  0  0  0
   -1.5819    0.7348   -0.2956 N   0  0  0  0  0  0  0  0  0  0  0  0
   -0.2229    0.9708   -0.3436 O   0  0  0  0  0  0  0  0  0  0  0  0
    2.1958    0.3506   -0.0669 H   0  0  0  0  0  0  0  0  0  0  0  0
  1  2  2  3
  1  7  1  0
  2  3  1  0
  2  6  1  0
  3  4  1  0
  4  5  2  0
  5  6  1  0
M  END
>  <reaction>  (3) 
rxn_3132

>  <mol_properties>  (3) 
{"0": {"label": "acceptor", "atom_type": "N3d"}, "6": {"label": "a_hydrogen", "atom_type": "H0"}}

>  <type>  (3) 
r2h

$$$$

     RDKit          3D

 13 12  0  0  0  0  0  0  0  0999 V2000
    1.0357   -0.1422    1.2952 N   0  0  0  0  0  2  0  0  0  0  0  0
    0.2423    0.6449    0.7401 C   0  0  0  0  0  0  0  0  0  0  0  0
    0.3014    2.0061    0.8341 O   0  0  0  0  0  0  0  0  0  0  0  0
   -0.7388    2.5056    0.0831 N   0  0  0  0  0  0  0  0  0  0  0  0
   -1.3765    1.5954   -0.4198 N   0  0  0  0  0  0  0  0  0  0  0  0
   -0.8329    0.3790   -0.0591 O   0  0  0  0  0  0  0  0  0  0  0  0
    0.7510   -2.6853   -2.0617 C   0  0  0  0  0  0  0  0  0  0  0  0
    0.5186   -2.6272   -0.8849 C   0  0  0  0  0  0  0  0  0  0  0  0
    0.2594   -2.5123    0.5131 C   0  0  0  0  0  0  0  0  0  0  0  0
    0.9533   -2.7509   -3.1038 H   0  0  0  0  0  0  0  0  0  0  0  0
    0.6745   -1.4064    0.9069 H   0  0  0  0  0  0  0  0  0  0  0  0
    0.8391   -3.1968    1.1304 H   0  0  0  0  0  0  0  0  0  0  0  0
   -0.7981   -2.5227    0.7693 H   0  0  0  0  0  0  0  0  0  0  0  0
  1  2  2  0
  2  3  1  0
  2  6  1  0
  3  4  1  0
  4  5  2  0
  5  6  1  0
  7  8  3  0
  7 10  1  0
  8  9  1  0
  9 11  1  0
  9 12  1  0
  9 13  1  0
M  RAD  1   1   2
M  END
>  <reaction>  (4) 
rxn_3132

>  <mol_properties>  (4) 
{"0": {"label": "*3", "atom_type": "N3d"}, "1": {"label": "*4", "atom_type": "Cd"}, "7": {"label": "*0", "atom_type": "Ct"}, "8": {"label": "*1", "atom_type": "Cs"}, "10": {"label": "*2", "atom_type": "H0"}}

>  <type>  (4) 
ts

$$$$

     RDKit          3D

 13 12  0  0  0  0  0  0  0  0999 V2000
    1.1282    0.3648   -0.1167 N   0  0  0  0  0  0  0  0  0  0  0  0
    0.1593    0.6917    0.5873 C   0  0  0  0  0  0  0  0  0  0  0  0
    0.2599    1.3675    1.7640 O   0  0  0  0  0  0  0  0  0  0  0  0
   -1.0143    1.5439    2.2432 N   0  0  0  0  0  0  0  0  0  0  0  0
   -1.8296    1.0485    1.4788 N   0  0  0  0  0  0  0  0  0  0  0  0
   -1.1773    0.4853    0.4007 O   0  0  0  0  0  0  0  0  0  0  0  0
    0.9185   -1.9872   -3.6607 C   0  0  0  0  0  0  0  0  0  0  0  0
    0.9185   -1.9872   -2.4637 C   0  0  0  0  0  0  0  0  0  0  0  0
    0.9185   -1.9872   -1.0083 C   0  0  0  0  0  3  0  0  0  0  0  0
    0.9185   -1.9872   -4.7240 H   0  0  0  0  0  0  0  0  0  0  0  0
    1.0273   -0.7674   -0.5458 H   0  0  0  0  0  0  0  0  0  0  0  0
    1.7535   -2.5739   -0.6229 H   0  0  0  0  0  0  0  0  0  0  0  0
   -0.0071   -2.4169   -0.6229 H   0  0  0  0  0  0  0  0  0  0  0  0
  1  2  2  3
  1 11  1  0
  2  3  1  0
  2  6  1  0
  3  4  1  0
  4  5  2  0
  5  6  1  0
  7  8  3  0
  7 10  1  0
  8  9  1  0
  9 12  1  0
  9 13  1  0
M  RAD  1   9   2
M  END
>  <reaction>  (5) 
rxn_3132

>  <mol_properties>  (5) 
{"0": {"label": "*3", "atom_type": "N3d"}, "1": {"label": "*4", "atom_type": "Cd"}, "7": {"label": "*0", "atom_type": "Ct"}, "8": {"label": "*1", "atom_type": "Cs"}, "10": {"label": "*2", "atom_type": "H0"}}

>  <type>  (5) 
unop_1

>  <geom_source>  (5) 
Heuristics

$$$$

     RDKit          3D

 13 12  0  0  0  0  0  0  0  0999 V2000
    0.6286   -0.2190    1.5209 N   0  0  0  0  0  0  0  0  0  0  0  0
    0.1274    0.6224    0.7580 C   0  0  0  0  0  0  0  0  0  0  0  0
   -0.2310    1.8803    1.1330 O   0  0  0  0  0  0  0  0  0  0  0  0
   -0.7435    2.5060    0.0239 N   0  0  0  0  0  0  0  0  0  0  0  0
   -0.7196    1.7536   -0.9393 N   0  0  0  0  0  0  0  0  0  0  0  0
   -0.1837    0.5369   -0.5686 O   0  0  0  0  0  0  0  0  0  0  0  0
    0.4189   -2.5709   -2.0231 C   0  0  0  0  0  0  0  0  0  0  0  0
    0.4189   -2.5709   -0.8261 C   0  0  0  0  0  0  0  0  0  0  0  0
    0.4189   -2.5709    0.6293 C   0  0  0  0  0  3  0  0  0  0  0  0
    0.4189   -2.5709   -3.0864 H   0  0  0  0  0  0  0  0  0  0  0  0
    0.5277   -1.3511    1.0918 H   0  0  0  0  0  0  0  0  0  0  0  0
    1.2539   -3.1576    1.0147 H   0  0  0  0  0  0  0  0  0  0  0  0
   -0.5067   -3.0007    1.0147 H   0  0  0  0  0  0  0  0  0  0  0  0
  1  2  2  3
  1 11  1  0
  2  3  1  0
  2  6  1  0
  3  4  1  0
  4  5  2  0
  5  6  1  0
  7  8  3  0
  7 10  1  0
  8  9  1  0
  9 12  1  0
  9 13  1  0
M  RAD  1   9   2
M  END
>  <reaction>  (6) 
rxn_3132

>  <mol_properties>  (6) 
{"0": {"label": "*3", "atom_type": "N3d"}, "1": {"label": "*4", "atom_type": "Cd"}, "7": {"label": "*0", "atom_type": "Ct"}, "8": {"label": "*1", "atom_type": "Cs"}, "10": {"label": "*2", "atom_type": "H0"}}

>  <type>  (6) 
unop_2

>  <geom_source>  (6) 
Heuristics

$$$$

     RDKit          3D

 13 12  0  0  0  0  0  0  0  0999 V2000
    0.6726    0.5628   -0.5423 N   0  0  0  0  0  0  0  0  0  0  0  0
    0.1090    0.7046    0.5547 C   0  0  0  0  0  0  0  0  0  0  0  0
    0.5317    1.5543    1.5298 O   0  0  0  0  0  0  0  0  0  0  0  0
   -0.3396    1.4319    2.5833 N   0  0  0  0  0  0  0  0  0  0  0  0
   -1.2093    0.6127    2.3243 N   0  0  0  0  0  0  0  0  0  0  0  0
   -1.0059    0.0994    1.0594 O   0  0  0  0  0  0  0  0  0  0  0  0
    0.4629   -1.7892   -4.0864 C   0  0  0  0  0  0  0  0  0  0  0  0
    0.4629   -1.7892   -2.8893 C   0  0  0  0  0  0  0  0  0  0  0  0
    0.4629   -1.7892   -1.4339 C   0  0  0  0  0  3  0  0  0  0  0  0
    0.4629   -1.7892   -5.1497 H   0  0  0  0  0  0  0  0  0  0  0  0
    0.5716   -0.5693   -0.9715 H   0  0  0  0  0  0  0  0  0  0  0  0
    1.2979   -2.3759   -1.0486 H   0  0  0  0  0  0  0  0  0  0  0  0
   -0.4628   -2.2189   -1.0486 H   0  0  0  0  0  0  0  0  0  0  0  0
  1  2  2  3
  1 11  1  0
  2  3  1  0
  2  6  1  0
  3  4  1  0
  4  5  2  0
  5  6  1  0
  7  8  3  0
  7 10  1  0
  8  9  1  0
  9 12  1  0
  9 13  1  0
M  RAD  1   9   2
M  END
>  <reaction>  (7) 
rxn_3132

>  <mol_properties>  (7) 
{"0": {"label": "*3", "atom_type": "N3d"}, "1": {"label": "*4", "atom_type": "Cd"}, "7": {"label": "*0", "atom_type": "Ct"}, "8": {"label": "*1", "atom_type": "Cs"}, "10": {"label": "*2", "atom_type": "H0"}}

>  <type>  (7) 
unop_3

>  <geom_source>  (7) 
Heuristics

$$$$

     RDKit          3D

 13 12  0  0  0  0  0  0  0  0999 V2000
   -1.1068    0.1078    1.0772 N   0  0  0  0  0  0  0  0  0  0  0  0
   -0.0593    0.6621    0.7073 C   0  0  0  0  0  0  0  0  0  0  0  0
    0.6371    1.5617    1.4539 O   0  0  0  0  0  0  0  0  0  0  0  0
    1.7269    1.9486    0.7143 N   0  0  0  0  0  0  0  0  0  0  0  0
    1.7342    1.3759   -0.3657 N   0  0  0  0  0  0  0  0  0  0  0  0
    0.6399    0.5401   -0.4590 O   0  0  0  0  0  0  0  0  0  0  0  0
   -1.3165   -2.2441   -2.4668 C   0  0  0  0  0  0  0  0  0  0  0  0
   -1.3165   -2.2441   -1.2698 C   0  0  0  0  0  0  0  0  0  0  0  0
   -1.3165   -2.2441    0.1856 C   0  0  0  0  0  3  0  0  0  0  0  0
   -1.3165   -2.2441   -3.5301 H   0  0  0  0  0  0  0  0  0  0  0  0
   -1.2077   -1.0243    0.6480 H   0  0  0  0  0  0  0  0  0  0  0  0
   -0.4815   -2.8308    0.5710 H   0  0  0  0  0  0  0  0  0  0  0  0
   -2.2421   -2.6738    0.5710 H   0  0  0  0  0  0  0  0  0  0  0  0
  1  2  2  3
  1 11  1  0
  2  3  1  0
  2  6  1  0
  3  4  1  0
  4  5  2  0
  5  6  1  0
  7  8  3  0
  7 10  1  0
  8  9  1  0
  9 12  1  0
  9 13  1  0
M  RAD  1   9   2
M  END
>  <reaction>  (8) 
rxn_3132

>  <mol_properties>  (8) 
{"0": {"label": "*3", "atom_type": "N3d"}, "1": {"label": "*4", "atom_type": "Cd"}, "7": {"label": "*0", "atom_type": "Ct"}, "8": {"label": "*1", "atom_type": "Cs"}, "10": {"label": "*2", "atom_type": "H0"}}

>  <type>  (8) 
unop_4

>  <geom_source>  (8) 
Heuristics

$$$$

     RDKit          3D

 13 12  0  0  0  0  0  0  0  0999 V2000
    0.0597    0.6691   -0.6928 N   0  0  0  0  0  0  0  0  0  0  0  0
    0.0629    0.7058    0.5481 C   0  0  0  0  0  0  0  0  0  0  0  0
    0.1647    1.8476    1.2811 O   0  0  0  0  0  0  0  0  0  0  0  0
    0.1325    1.4865    2.6051 N   0  0  0  0  0  0  0  0  0  0  0  0
    0.0244    0.2737    2.7136 N   0  0  0  0  0  0  0  0  0  0  0  0
   -0.0272   -0.3049    1.4616 O   0  0  0  0  0  0  0  0  0  0  0  0
   -0.1500   -1.6829   -4.2369 C   0  0  0  0  0  0  0  0  0  0  0  0
   -0.1500   -1.6829   -3.0398 C   0  0  0  0  0  0  0  0  0  0  0  0
   -0.1500   -1.6829   -1.5844 C   0  0  0  0  0  3  0  0  0  0  0  0
   -0.1500   -1.6829   -5.3002 H   0  0  0  0  0  0  0  0  0  0  0  0
   -0.0413   -0.4631   -1.1220 H   0  0  0  0  0  0  0  0  0  0  0  0
    0.6850   -2.2696   -1.1991 H   0  0  0  0  0  0  0  0  0  0  0  0
   -1.0757   -2.1126   -1.1991 H   0  0  0  0  0  0  0  0  0  0  0  0
  1  2  2  3
  1 11  1  0
  2  3  1  0
  2  6  1  0
  3  4  1  0
  4  5  2  0
  5  6  1  0
  7  8  3  0
  7 10  1  0
  8  9  1  0
  9 12  1  0
  9 13  1  0
M  RAD  1   9   2
M  END
>  <reaction>  (9) 
rxn_3132

>  <mol_properties>  (9) 
{"0": {"label": "*3", "atom_type": "N3d"}, "1": {"label": "*4", "atom_type": "Cd"}, "7": {"label": "*0", "atom_type": "Ct"}, "8": {"label": "*1", "atom_type": "Cs"}, "10": {"label": "*2", "atom_type": "H0"}}

>  <type>  (9) 
unop_5

>  <geom_source>  (9) 
Heuristics

$$$$

     RDKit          3D

 13 12  0  0  0  0  0  0  0  0999 V2000
   -1.2477    0.3512    0.4767 N   0  0  0  0  0  0  0  0  0  0  0  0
   -0.0650    0.6899    0.6437 C   0  0  0  0  0  0  0  0  0  0  0  0
    0.3879    1.3879    1.7203 O   0  0  0  0  0  0  0  0  0  0  0  0
    1.7375    1.5712    1.5490 N   0  0  0  0  0  0  0  0  0  0  0  0
    2.1076    1.0603    0.5020 N   0  0  0  0  0  0  0  0  0  0  0  0
    1.0331    0.4779   -0.1393 O   0  0  0  0  0  0  0  0  0  0  0  0
   -1.4574   -2.0007   -3.0674 C   0  0  0  0  0  0  0  0  0  0  0  0
   -1.4574   -2.0007   -1.8704 C   0  0  0  0  0  0  0  0  0  0  0  0
   -1.4574   -2.0007   -0.4150 C   0  0  0  0  0  3  0  0  0  0  0  0
   -1.4574   -2.0007   -4.1307 H   0  0  0  0  0  0  0  0  0  0  0  0
   -1.3486   -0.7809    0.0475 H   0  0  0  0  0  0  0  0  0  0  0  0
   -0.6223   -2.5875   -0.0296 H   0  0  0  0  0  0  0  0  0  0  0  0
   -2.3830   -2.4305   -0.0296 H   0  0  0  0  0  0  0  0  0  0  0  0
  1  2  2  3
  1 11  1  0
  2  3  1  0
  2  6  1  0
  3  4  1  0
  4  5  2  0
  5  6  1  0
  7  8  3  0
  7 10  1  0
  8  9  1  0
  9 12  1  0
  9 13  1  0
M  RAD  1   9   2
M  END
>  <reaction>  (10) 
rxn_3132

>  <mol_properties>  (10) 
{"0": {"label": "*3", "atom_type": "N3d"}, "1": {"label": "*4", "atom_type": "Cd"}, "7": {"label": "*0", "atom_type": "Ct"}, "8": {"label": "*1", "atom_type": "Cs"}, "10": {"label": "*2", "atom_type": "H0"}}

>  <type>  (10) 
unop_6

>  <geom_source>  (10) 
Heuristics

$$$$

     RDKit          3D

 13 12  0  0  0  0  0  0  0  0999 V2000
   -1.0459    0.5586   -0.1167 N   0  0  0  0  0  0  0  0  0  0  0  0
   -0.0344    0.7090    0.5873 C   0  0  0  0  0  0  0  0  0  0  0  0
   -0.0139    1.3919    1.7640 O   0  0  0  0  0  0  0  0  0  0  0  0
    1.2715    1.3401    2.2432 N   0  0  0  0  0  0  0  0  0  0  0  0
    1.9862    0.7082    1.4788 N   0  0  0  0  0  0  0  0  0  0  0  0
    1.2446    0.2693    0.4007 O   0  0  0  0  0  0  0  0  0  0  0  0
   -1.2556   -1.7933   -3.6607 C   0  0  0  0  0  0  0  0  0  0  0  0
   -1.2556   -1.7933   -2.4637 C   0  0  0  0  0  0  0  0  0  0  0  0
   -1.2556   -1.7933   -1.0083 C   0  0  0  0  0  3  0  0  0  0  0  0
   -1.2556   -1.7933   -4.7240 H   0  0  0  0  0  0  0  0  0  0  0  0
   -1.1468   -0.5735   -0.5458 H   0  0  0  0  0  0  0  0  0  0  0  0
   -0.4206   -2.3801   -0.6229 H   0  0  0  0  0  0  0  0  0  0  0  0
   -2.1812   -2.2231   -0.6229 H   0  0  0  0  0  0  0  0  0  0  0  0
  1  2  2  3
  1 11  1  0
  2  3  1  0
  2  6  1  0
  3  4  1  0
  4  5  2  0
  5  6  1  0
  7  8  3  0
  7 10  1  0
  8  9  1  0
  9 12  1  0
  9 13  1  0
M  RAD  1   9   2
M  END
>  <reaction>  (11) 
rxn_3132

>  <mol_properties>  (11) 
{"0": {"label": "*3", "atom_type": "N3d"}, "1": {"label": "*4", "atom_type": "Cd"}, "7": {"label": "*0", "atom_type": "Ct"}, "8": {"label": "*1", "atom_type": "Cs"}, "10": {"label": "*2", "atom_type": "H0"}}

>  <type>  (11) 
unop_7

>  <geom_source>  (11) 
Heuristics

$$$$

     RDKit          3D

 13 12  0  0  0  0  0  0  0  0999 V2000
    1.2901    0.1249    0.4767 N   0  0  0  0  0  0  0  0  0  0  0  0
    0.1860    0.6675    0.6437 C   0  0  0  0  0  0  0  0  0  0  0  0
   -0.1363    1.4346    1.7203 O   0  0  0  0  0  0  0  0  0  0  0  0
   -1.4321    1.8538    1.5490 N   0  0  0  0  0  0  0  0  0  0  0  0
   -1.8868    1.4164    0.5020 N   0  0  0  0  0  0  0  0  0  0  0  0
   -0.9323    0.6531   -0.1393 O   0  0  0  0  0  0  0  0  0  0  0  0
    1.0804   -2.2270   -3.0674 C   0  0  0  0  0  0  0  0  0  0  0  0
    1.0804   -2.2270   -1.8704 C   0  0  0  0  0  0  0  0  0  0  0  0
    1.0804   -2.2270   -0.4150 C   0  0  0  0  0  3  0  0  0  0  0  0
    1.0804   -2.2270   -4.1307 H   0  0  0  0  0  0  0  0  0  0  0  0
    1.1892   -1.0072    0.0475 H   0  0  0  0  0  0  0  0  0  0  0  0
    1.9154   -2.8138   -0.0296 H   0  0  0  0  0  0  0  0  0  0  0  0
    0.1548   -2.6568   -0.0296 H   0  0  0  0  0  0  0  0  0  0  0  0
  1  2  2  3
  1 11  1  0
  2  3  1  0
  2  6  1  0
  3  4  1  0
  4  5  2  0
  5  6  1  0
  7  8  3  0
  7 10  1  0
  8  9  1  0
  9 12  1  0
  9 13  1  0
M  RAD  1   9   2
M  END
>  <reaction>  (12) 
rxn_3132

>  <mol_properties>  (12) 
{"0": {"label": "*3", "atom_type": "N3d"}, "1": {"label": "*4", "atom_type": "Cd"}, "7": {"label": "*0", "atom_type": "Ct"}, "8": {"label": "*1", "atom_type": "Cs"}, "10": {"label": "*2", "atom_type": "H0"}}

>  <type>  (12) 
unop_8

>  <geom_source>  (12) 
Heuristics

$$$$

     RDKit          3D

 13 12  0  0  0  0  0  0  0  0999 V2000
   -0.6575   -0.1043    1.5209 N   0  0  0  0  0  0  0  0  0  0  0  0
   -0.0153    0.6351    0.7580 C   0  0  0  0  0  0  0  0  0  0  0  0
    0.5601    1.8098    1.1330 O   0  0  0  0  0  0  0  0  0  0  0  0
    1.1751    2.3350    0.0239 N   0  0  0  0  0  0  0  0  0  0  0  0
    1.0185    1.5986   -0.9393 N   0  0  0  0  0  0  0  0  0  0  0  0
    0.2758    0.4959   -0.5686 O   0  0  0  0  0  0  0  0  0  0  0  0
   -0.8672   -2.4562   -2.0231 C   0  0  0  0  0  0  0  0  0  0  0  0
   -0.8672   -2.4562   -0.8261 C   0  0  0  0  0  0  0  0  0  0  0  0
   -0.8672   -2.4562    0.6293 C   0  0  0  0  0  3  0  0  0  0  0  0
   -0.8672   -2.4562   -3.0864 H   0  0  0  0  0  0  0  0  0  0  0  0
   -0.7584   -1.2364    1.0918 H   0  0  0  0  0  0  0  0  0  0  0  0
   -0.0322   -3.0430    1.0147 H   0  0  0  0  0  0  0  0  0  0  0  0
   -1.7928   -2.8860    1.0147 H   0  0  0  0  0  0  0  0  0  0  0  0
  1  2  2  3
  1 11  1  0
  2  3  1  0
  2  6  1  0
  3  4  1  0
  4  5  2  0
  5  6  1  0
  7  8  3  0
  7 10  1  0
  8  9  1  0
  9 12  1  0
  9 13  1  0
M  RAD  1   9   2
M  END
>  <reaction>  (13) 
rxn_3132

>  <mol_properties>  (13) 
{"0": {"label": "*3", "atom_type": "N3d"}, "1": {"label": "*4", "atom_type": "Cd"}, "7": {"label": "*0", "atom_type": "Ct"}, "8": {"label": "*1", "atom_type": "Cs"}, "10": {"label": "*2", "atom_type": "H0"}}

>  <type>  (13) 
unop_9

>  <geom_source>  (13) 
Heuristics

$$$$

     RDKit          3D

 13 12  0  0  0  0  0  0  0  0999 V2000
    1.1084   -0.0897    1.0772 N   0  0  0  0  0  0  0  0  0  0  0  0
    0.1755    0.6412    0.7073 C   0  0  0  0  0  0  0  0  0  0  0  0
   -0.3507    1.6498    1.4539 O   0  0  0  0  0  0  0  0  0  0  0  0
   -1.3549    2.2234    0.7143 N   0  0  0  0  0  0  0  0  0  0  0  0
   -1.4635    1.6611   -0.3657 N   0  0  0  0  0  0  0  0  0  0  0  0
   -0.5342    0.6448   -0.4590 O   0  0  0  0  0  0  0  0  0  0  0  0
    0.8987   -2.4416   -2.4668 C   0  0  0  0  0  0  0  0  0  0  0  0
    0.8987   -2.4416   -1.2698 C   0  0  0  0  0  0  0  0  0  0  0  0
    0.8987   -2.4416    0.1856 C   0  0  0  0  0  3  0  0  0  0  0  0
    0.8987   -2.4416   -3.5301 H   0  0  0  0  0  0  0  0  0  0  0  0
    1.0074   -1.2218    0.6480 H   0  0  0  0  0  0  0  0  0  0  0  0
    1.7337   -3.0283    0.5710 H   0  0  0  0  0  0  0  0  0  0  0  0
   -0.0270   -2.8713    0.5710 H   0  0  0  0  0  0  0  0  0  0  0  0
  1  2  2  3
  1 11  1  0
  2  3  1  0
  2  6  1  0
  3  4  1  0
  4  5  2  0
  5  6  1  0
  7  8  3  0
  7 10  1  0
  8  9  1  0
  9 12  1  0
  9 13  1  0
M  RAD  1   9   2
M  END
>  <reaction>  (14) 
rxn_3132

>  <mol_properties>  (14) 
{"0": {"label": "*3", "atom_type": "N3d"}, "1": {"label": "*4", "atom_type": "Cd"}, "7": {"label": "*0", "atom_type": "Ct"}, "8": {"label": "*1", "atom_type": "Cs"}, "10": {"label": "*2", "atom_type": "H0"}}

>  <type>  (14) 
unop_10

>  <geom_source>  (14) 
Heuristics

$$$$

     RDKit          3D

 13 12  0  0  0  0  0  0  0  0999 V2000
   -0.5624    0.6729   -0.5423 N   0  0  0  0  0  0  0  0  0  0  0  0
    0.0174    0.7127    0.5547 C   0  0  0  0  0  0  0  0  0  0  0  0
   -0.2484    1.6239    1.5298 O   0  0  0  0  0  0  0  0  0  0  0  0
    0.5876    1.3492    2.5833 N   0  0  0  0  0  0  0  0  0  0  0  0
    1.2986    0.3891    2.3243 N   0  0  0  0  0  0  0  0  0  0  0  0
    1.0076   -0.0802    1.0594 O   0  0  0  0  0  0  0  0  0  0  0  0
   -0.7721   -1.6790   -4.0864 C   0  0  0  0  0  0  0  0  0  0  0  0
   -0.7721   -1.6790   -2.8893 C   0  0  0  0  0  0  0  0  0  0  0  0
   -0.7721   -1.6790   -1.4339 C   0  0  0  0  0  3  0  0  0  0  0  0
   -0.7721   -1.6790   -5.1497 H   0  0  0  0  0  0  0  0  0  0  0  0
   -0.6633   -0.4592   -0.9715 H   0  0  0  0  0  0  0  0  0  0  0  0
    0.0629   -2.2658   -1.0486 H   0  0  0  0  0  0  0  0  0  0  0  0
   -1.6977   -2.1088   -1.0486 H   0  0  0  0  0  0  0  0  0  0  0  0
  1  2  2  3
  1 11  1  0
  2  3  1  0
  2  6  1  0
  3  4  1  0
  4  5  2  0
  5  6  1  0
  7  8  3  0
  7 10  1  0
  8  9  1  0
  9 12  1  0
  9 13  1  0
M  RAD  1   9   2
M  END
>  <reaction>  (15) 
rxn_3132

>  <mol_properties>  (15) 
{"0": {"label": "*3", "atom_type": "N3d"}, "1": {"label": "*4", "atom_type": "Cd"}, "7": {"label": "*0", "atom_type": "Ct"}, "8": {"label": "*1", "atom_type": "Cs"}, "10": {"label": "*2", "atom_type": "H0"}}

>  <type>  (15) 
unop_11

>  <geom_source>  (15) 
Heuristics

$$$$

     RDKit          3D

 13 12  0  0  0  0  0  0  0  0999 V2000
   -0.0201   -0.2250    1.6844 N   0  0  0  0  0  0  0  0  0  0  0  0
    0.0552    0.6195    0.7775 C   0  0  0  0  0  0  0  0  0  0  0  0
    0.1747    1.9590    0.9851 O   0  0  0  0  0  0  0  0  0  0  0  0
    0.2282    2.5595   -0.2480 N   0  0  0  0  0  0  0  0  0  0  0  0
    0.1534    1.7209   -1.1343 N   0  0  0  0  0  0  0  0  0  0  0  0
    0.0412    0.4625   -0.5786 O   0  0  0  0  0  0  0  0  0  0  0  0
   -0.2298   -2.5769   -1.8597 C   0  0  0  0  0  0  0  0  0  0  0  0
   -0.2298   -2.5769   -0.6627 C   0  0  0  0  0  0  0  0  0  0  0  0
   -0.2298   -2.5769    0.7928 C   0  0  0  0  0  3  0  0  0  0  0  0
   -0.2298   -2.5769   -2.9230 H   0  0  0  0  0  0  0  0  0  0  0  0
   -0.1210   -1.3571    1.2552 H   0  0  0  0  0  0  0  0  0  0  0  0
    0.6052   -3.1637    1.1781 H   0  0  0  0  0  0  0  0  0  0  0  0
   -1.1554   -3.0067    1.1781 H   0  0  0  0  0  0  0  0  0  0  0  0
  1  2  2  3
  1 11  1  0
  2  3  1  0
  2  6  1  0
  3  4  1  0
  4  5  2  0
  5  6  1  0
  7  8  3  0
  7 10  1  0
  8  9  1  0
  9 12  1  0
  9 13  1  0
M  RAD  1   9   2
M  END
>  <reaction>  (16) 
rxn_3132

>  <mol_properties>  (16) 
{"0": {"label": "*3", "atom_type": "N3d"}, "1": {"label": "*4", "atom_type": "Cd"}, "7": {"label": "*0", "atom_type": "Ct"}, "8": {"label": "*1", "atom_type": "Cs"}, "10": {"label": "*2", "atom_type": "H0"}}

>  <type>  (16) 
unop_12

>  <geom_source>  (16) 
Heuristics

$$$$

     RDKit          3D

 13 12  0  0  0  0  0  0  0  0999 V2000
    0.6286   -0.2190    1.5210 N   0  0  0  0  0  0  0  0  0  0  0  0
    0.1274    0.6224    0.7580 C   0  0  0  0  0  0  0  0  0  0  0  0
   -0.2311    1.8803    1.1330 O   0  0  0  0  0  0  0  0  0  0  0  0
   -0.7435    2.5060    0.0239 N   0  0  0  0  0  0  0  0  0  0  0  0
   -0.7196    1.7536   -0.9393 N   0  0  0  0  0  0  0  0  0  0  0  0
   -0.1837    0.5369   -0.5686 O   0  0  0  0  0  0  0  0  0  0  0  0
    0.4189   -2.5709   -2.0231 C   0  0  0  0  0  0  0  0  0  0  0  0
    0.4189   -2.5709   -0.8261 C   0  0  0  0  0  0  0  0  0  0  0  0
    0.4189   -2.5709    0.6293 C   0  0  0  0  0  3  0  0  0  0  0  0
    0.4189   -2.5709   -3.0864 H   0  0  0  0  0  0  0  0  0  0  0  0
    0.5277   -1.3511    1.0918 H   0  0  0  0  0  0  0  0  0  0  0  0
    1.2539   -3.1576    1.0147 H   0  0  0  0  0  0  0  0  0  0  0  0
   -0.5067   -3.0007    1.0147 H   0  0  0  0  0  0  0  0  0  0  0  0
  1  2  2  3
  1 11  1  0
  2  3  1  0
  2  6  1  0
  3  4  1  0
  4  5  2  0
  5  6  1  0
  7  8  3  0
  7 10  1  0
  8  9  1  0
  9 12  1  0
  9 13  1  0
M  RAD  1   9   2
M  END
>  <reaction>  (17) 
rxn_3132

>  <mol_properties>  (17) 
{"0": {"label": "*3", "atom_type": "N3d"}, "1": {"label": "*4", "atom_type": "Cd"}, "7": {"label": "*0", "atom_type": "Ct"}, "8": {"label": "*1", "atom_type": "Cs"}, "10": {"label": "*2", "atom_type": "H0"}}

>  <type>  (17) 
unop_13

>  <geom_source>  (17) 
gaussian_log

$$$$
