
     RDKit          3D

  6  5  0  0  0  0  0  0  0  0999 V2000
    0.6594    0.0438   -0.0050 C   0  0  0  0  0  0  0  0  0  0  0  0
   -0.6594   -0.0438    0.0050 C   0  0  0  0  0  0  0  0  0  0  0  0
    1.1706    0.8681   -0.4881 H   0  0  0  0  0  0  0  0  0  0  0  0
    1.2824   -0.7051    0.4696 H   0  0  0  0  0  0  0  0  0  0  0  0
   -1.2824    0.7051   -0.4696 H   0  0  0  0  0  0  0  0  0  0  0  0
   -1.1706   -0.8681    0.4881 H   0  0  0  0  0  0  0  0  0  0  0  0
  1  2  2  3
  1  3  1  0
  1  4  1  0
  2  5  1  0
  2  6  1  0
M  END
>  <reaction>  (1) 
rxn_1595

>  <mol_properties>  (1) 
{"1": {"label": "donator", "atom_type": "Cd"}, "4": {"label": "d_hydrogen", "atom_type": "H0"}}

>  <type>  (1) 
r1h

$$$$

     RDKit          3D

 12 11  0  0  0  0  0  0  0  0999 V2000
   -0.9951    0.1196   -0.8321 C   0  0  0  0  0  0  0  0  0  0  0  0
   -0.3760    0.2571    0.5231 C   0  0  0  0  0  3  0  0  0  0  0  0
    0.9330   -0.1537    0.7810 C   0  0  0  0  0  0  0  0  0  0  0  0
    1.5987   -0.1880    1.9734 C   0  0  0  0  0  0  0  0  0  0  0  0
   -1.4483    0.9449    1.7152 S   0  0  0  0  0  0  0  0  0  0  0  0
   -1.9164   -0.4696   -0.7936 H   0  0  0  0  0  0  0  0  0  0  0  0
   -1.2565    1.0958   -1.2506 H   0  0  0  0  0  0  0  0  0  0  0  0
   -0.3088   -0.3780   -1.5170 H   0  0  0  0  0  0  0  0  0  0  0  0
    1.4783   -0.4898   -0.0971 H   0  0  0  0  0  0  0  0  0  0  0  0
    2.6278   -0.5153    2.0142 H   0  0  0  0  0  0  0  0  0  0  0  0
    1.1316    0.0690    2.9151 H   0  0  0  0  0  0  0  0  0  0  0  0
   -0.5306    1.3052    2.6211 H   0  0  0  0  0  0  0  0  0  0  0  0
  1  2  1  0
  1  6  1  0
  1  7  1  0
  1  8  1  0
  2  3  1  0
  2  5  1  0
  3  4  2  3
  3  9  1  0
  4 10  1  0
  4 11  1  0
  5 12  1  0
M  RAD  1   2   2
M  END
>  <reaction>  (2) 
rxn_1595

>  <mol_properties>  (2) 
{"1": {"label": "acceptor", "atom_type": "Cs"}}

>  <type>  (2) 
r2

$$$$

     RDKit          3D

 13 12  0  0  0  0  0  0  0  0999 V2000
   -1.1828    0.8269   -0.1645 C   0  0  0  0  0  0  0  0  0  0  0  0
   -0.4827   -0.4584   -0.5736 C   0  0  1  0  0  0  0  0  0  0  0  0
   -0.9759   -1.7030    0.1030 C   0  0  0  0  0  0  0  0  0  0  0  0
   -2.0084   -1.7831    0.9287 C   0  0  0  0  0  0  0  0  0  0  0  0
   -0.4908   -0.7025   -2.3913 S   0  0  0  0  0  0  0  0  0  0  0  0
   -1.0941    0.9860    0.9125 H   0  0  0  0  0  0  0  0  0  0  0  0
   -0.7405    1.6784   -0.6793 H   0  0  0  0  0  0  0  0  0  0  0  0
   -2.2437    0.7943   -0.4195 H   0  0  0  0  0  0  0  0  0  0  0  0
    0.5870   -0.3637   -0.3637 H   0  0  0  0  0  0  0  0  0  0  0  0
   -0.4209   -2.6026   -0.1443 H   0  0  0  0  0  0  0  0  0  0  0  0
   -2.2982   -2.7315    1.3623 H   0  0  0  0  0  0  0  0  0  0  0  0
   -2.5999   -0.9190    1.2055 H   0  0  0  0  0  0  0  0  0  0  0  0
   -1.8040   -0.9489   -2.4971 H   0  0  0  0  0  0  0  0  0  0  0  0
  1  2  1  0
  1  6  1  0
  1  7  1  0
  1  8  1  0
  2  3  1  0
  2  5  1  0
  2  9  1  1
  3  4  2  3
  3 10  1  0
  4 11  1  0
  4 12  1  0
  5 13  1  0
M  END
>  <reaction>  (3) 
rxn_1595

>  <mol_properties>  (3) 
{"1": {"label": "acceptor", "atom_type": "Cs"}, "12": {"label": "a_hydrogen", "atom_type": "H0"}}

>  <type>  (3) 
r2h

$$$$

     RDKit          3D

 18 16  0  0  0  0  0  0  0  0999 V2000
   -0.3973    1.5745   -0.7009 C   0  0  0  0  0  0  0  0  0  0  0  0
   -0.1449    0.3723    0.1806 C   0  0  1  0  0  0  0  0  0  0  0  0
    1.2140    0.2269    0.7493 C   0  0  0  0  0  0  0  0  0  0  0  0
    2.2457    1.0321    0.5154 C   0  0  0  0  0  0  0  0  0  0  0  0
   -1.4448    0.0620    1.4066 S   0  0  0  0  0  0  0  0  0  0  0  0
   -0.2967    2.5047   -0.1353 H   0  0  0  0  0  0  0  0  0  0  0  0
    0.3135    1.5977   -1.5298 H   0  0  0  0  0  0  0  0  0  0  0  0
   -1.4044    1.5363   -1.1135 H   0  0  0  0  0  0  0  0  0  0  0  0
    1.3463   -0.6309    1.4012 H   0  0  0  0  0  0  0  0  0  0  0  0
    3.2106    0.8402    0.9667 H   0  0  0  0  0  0  0  0  0  0  0  0
    2.1669    1.9062   -0.1191 H   0  0  0  0  0  0  0  0  0  0  0  0
   -1.1524    1.0928    2.2143 H   0  0  0  0  0  0  0  0  0  0  0  0
    0.8900   -2.0553   -1.9417 C   0  0  0  0  0  0  0  0  0  0  0  0
   -0.3088   -1.7253   -1.5344 C   0  0  0  0  0  3  0  0  0  0  0  0
    1.7733   -1.5452   -1.5661 H   0  0  0  0  0  0  0  0  0  0  0  0
    1.0546   -2.8501   -2.6667 H   0  0  0  0  0  0  0  0  0  0  0  0
   -0.2969   -0.6092   -0.5506 H   0  0  0  0  0  0  0  0  0  0  0  0
   -1.2843   -2.1170   -1.7927 H   0  0  0  0  0  0  0  0  0  0  0  0
  1  2  1  0
  1  6  1  0
  1  7  1  0
  1  8  1  0
  2  3  1  0
  2  5  1  0
  2 17  1  6
  3  4  2  3
  3  9  1  0
  4 10  1  0
  4 11  1  0
  5 12  1  0
 13 14  2  3
 13 15  1  0
 13 16  1  0
 14 18  1  0
M  RAD  1  14   2
M  END
>  <reaction>  (4) 
rxn_1595

>  <mol_properties>  (4) 
{"1": {"label": "*1", "atom_type": "Cs"}, "4": {"label": "*0", "atom_type": "S2s"}, "12": {"label": "*4", "atom_type": "Cd"}, "13": {"label": "*3", "atom_type": "Cd"}, "16": {"label": "*2", "atom_type": "H0"}}

>  <type>  (4) 
ts

$$$$

     RDKit          3D

 18 16  0  0  0  0  0  0  0  0999 V2000
   -1.5496    0.4545    1.0507 C   0  0  0  0  0  0  0  0  0  0  0  0
   -0.3053    0.4100    0.1795 C   0  0  0  0  0  3  0  0  0  0  0  0
    0.3524    1.7346   -0.0710 C   0  0  0  0  0  0  0  0  0  0  0  0
    0.0042    2.8916    0.4717 C   0  0  0  0  0  0  0  0  0  0  0  0
    0.9371   -0.7840    0.8078 S   0  0  0  0  0  0  0  0  0  0  0  0
   -1.3153    0.8227    2.0512 H   0  0  0  0  0  0  0  0  0  0  0  0
   -2.3024    1.1127    0.6110 H   0  0  0  0  0  0  0  0  0  0  0  0
   -1.9758   -0.5424    1.1518 H   0  0  0  0  0  0  0  0  0  0  0  0
    1.1972    1.6988   -0.7518 H   0  0  0  0  0  0  0  0  0  0  0  0
    0.5474    3.7983    0.2385 H   0  0  0  0  0  0  0  0  0  0  0  0
   -0.8264    2.9839    1.1607 H   0  0  0  0  0  0  0  0  0  0  0  0
    1.2752   -0.0796    1.8968 H   0  0  0  0  0  0  0  0  0  0  0  0
   -0.3053   -1.8151   -2.5131 C   0  0  0  0  0  0  0  0  0  0  0  0
   -0.3053   -1.8151   -1.1913 C   0  0  0  0  0  0  0  0  0  0  0  0
   -0.3053   -0.8925   -3.0815 H   0  0  0  0  0  0  0  0  0  0  0  0
   -0.3053   -2.7377   -3.0815 H   0  0  0  0  0  0  0  0  0  0  0  0
   -0.3053   -0.7080   -0.5093 H   0  0  0  0  0  0  0  0  0  0  0  0
   -0.3053   -2.7377   -0.6230 H   0  0  0  0  0  0  0  0  0  0  0  0
  1  2  1  0
  1  6  1  0
  1  7  1  0
  1  8  1  0
  2  3  1  0
  2  5  1  0
  3  4  2  3
  3  9  1  0
  4 10  1  0
  4 11  1  0
  5 12  1  0
 13 14  2  3
 13 15  1  0
 13 16  1  0
 14 17  1  0
 14 18  1  0
M  RAD  1   2   2
M  END
>  <reaction>  (5) 
rxn_1595

>  <mol_properties>  (5) 
{"1": {"label": "*1", "atom_type": "Cs"}, "4": {"label": "*0", "atom_type": "S2s"}, "12": {"label": "*4", "atom_type": "Cd"}, "13": {"label": "*3", "atom_type": "Cd"}, "16": {"label": "*2", "atom_type": "H0"}}

>  <type>  (5) 
unop_1

>  <geom_source>  (5) 
Heuristics

$$$$

     RDKit          3D

 18 16  0  0  0  0  0  0  0  0999 V2000
   -0.6483    1.4432   -0.7240 C   0  0  0  0  0  0  0  0  0  0  0  0
    0.0702    0.3692    0.0759 C   0  0  0  0  0  3  0  0  0  0  0  0
    1.3019    0.8232    0.8015 C   0  0  0  0  0  0  0  0  0  0  0  0
    1.7441    2.0692    0.8802 C   0  0  0  0  0  0  0  0  0  0  0  0
   -1.0516   -0.4888    1.2461 S   0  0  0  0  0  0  0  0  0  0  0  0
   -1.0085    2.2422   -0.0734 H   0  0  0  0  0  0  0  0  0  0  0  0
    0.0226    1.8819   -1.4661 H   0  0  0  0  0  0  0  0  0  0  0  0
   -1.5077    1.0183   -1.2403 H   0  0  0  0  0  0  0  0  0  0  0  0
    1.8447    0.0325    1.3101 H   0  0  0  0  0  0  0  0  0  0  0  0
    2.6411    2.3041    1.4385 H   0  0  0  0  0  0  0  0  0  0  0  0
    1.2394    2.8968    0.3970 H   0  0  0  0  0  0  0  0  0  0  0  0
   -1.2088    0.5483    2.0805 H   0  0  0  0  0  0  0  0  0  0  0  0
    0.0702   -1.8559   -2.6167 C   0  0  0  0  0  0  0  0  0  0  0  0
    0.0702   -1.8559   -1.2950 C   0  0  0  0  0  0  0  0  0  0  0  0
    0.0702   -0.9333   -3.1851 H   0  0  0  0  0  0  0  0  0  0  0  0
    0.0702   -2.7785   -3.1851 H   0  0  0  0  0  0  0  0  0  0  0  0
    0.0702   -0.7488   -0.6129 H   0  0  0  0  0  0  0  0  0  0  0  0
    0.0702   -2.7785   -0.7266 H   0  0  0  0  0  0  0  0  0  0  0  0
  1  2  1  0
  1  6  1  0
  1  7  1  0
  1  8  1  0
  2  3  1  0
  2  5  1  0
  3  4  2  3
  3  9  1  0
  4 10  1  0
  4 11  1  0
  5 12  1  0
 13 14  2  3
 13 15  1  0
 13 16  1  0
 14 17  1  0
 14 18  1  0
M  RAD  1   2   2
M  END
>  <reaction>  (6) 
rxn_1595

>  <mol_properties>  (6) 
{"1": {"label": "*1", "atom_type": "Cs"}, "4": {"label": "*0", "atom_type": "S2s"}, "12": {"label": "*4", "atom_type": "Cd"}, "13": {"label": "*3", "atom_type": "Cd"}, "16": {"label": "*2", "atom_type": "H0"}}

>  <type>  (6) 
unop_2

>  <geom_source>  (6) 
Heuristics

$$$$

     RDKit          3D

 18 16  0  0  0  0  0  0  0  0999 V2000
   -1.0333    0.0122    1.6652 C   0  0  0  0  0  0  0  0  0  0  0  0
   -0.3149    0.2436    0.3462 C   0  0  0  0  0  3  0  0  0  0  0  0
   -0.4254    1.6315   -0.2117 C   0  0  0  0  0  0  0  0  0  0  0  0
   -0.9974    2.6668    0.3843 C   0  0  0  0  0  0  0  0  0  0  0  0
    1.4502   -0.2488    0.4239 S   0  0  0  0  0  0  0  0  0  0  0  0
   -0.6198    0.6440    2.4535 H   0  0  0  0  0  0  0  0  0  0  0  0
   -2.0974    0.2389    1.5673 H   0  0  0  0  0  0  0  0  0  0  0  0
   -0.9262   -1.0256    1.9768 H   0  0  0  0  0  0  0  0  0  0  0  0
    0.0312    1.7645   -1.1876 H   0  0  0  0  0  0  0  0  0  0  0  0
   -1.0195    3.6378   -0.0933 H   0  0  0  0  0  0  0  0  0  0  0  0
   -1.4631    2.5919    1.3594 H   0  0  0  0  0  0  0  0  0  0  0  0
    1.8406    0.7443    1.2350 H   0  0  0  0  0  0  0  0  0  0  0  0
   -0.3149   -1.9815   -2.3463 C   0  0  0  0  0  0  0  0  0  0  0  0
   -0.3149   -1.9815   -1.0246 C   0  0  0  0  0  0  0  0  0  0  0  0
   -0.3149   -1.0589   -2.9147 H   0  0  0  0  0  0  0  0  0  0  0  0
   -0.3149   -2.9041   -2.9147 H   0  0  0  0  0  0  0  0  0  0  0  0
   -0.3149   -0.8744   -0.3425 H   0  0  0  0  0  0  0  0  0  0  0  0
   -0.3149   -2.9041   -0.4562 H   0  0  0  0  0  0  0  0  0  0  0  0
  1  2  1  0
  1  6  1  0
  1  7  1  0
  1  8  1  0
  2  3  1  0
  2  5  1  0
  3  4  2  3
  3  9  1  0
  4 10  1  0
  4 11  1  0
  5 12  1  0
 13 14  2  3
 13 15  1  0
 13 16  1  0
 14 17  1  0
 14 18  1  0
M  RAD  1   2   2
M  END
>  <reaction>  (7) 
rxn_1595

>  <mol_properties>  (7) 
{"1": {"label": "*1", "atom_type": "Cs"}, "4": {"label": "*0", "atom_type": "S2s"}, "12": {"label": "*4", "atom_type": "Cd"}, "13": {"label": "*3", "atom_type": "Cd"}, "16": {"label": "*2", "atom_type": "H0"}}

>  <type>  (7) 
unop_3

>  <geom_source>  (7) 
Heuristics

$$$$

     RDKit          3D

 18 16  0  0  0  0  0  0  0  0999 V2000
    1.3207    1.1619   -0.2729 C   0  0  0  0  0  0  0  0  0  0  0  0
    0.0763    0.3638    0.0792 C   0  0  0  0  0  3  0  0  0  0  0  0
    0.2281   -0.5923    1.2250 C   0  0  0  0  0  0  0  0  0  0  0  0
    1.2978   -0.7203    1.9955 C   0  0  0  0  0  0  0  0  0  0  0  0
   -1.3790    1.4422    0.3671 S   0  0  0  0  0  0  0  0  0  0  0  0
    1.6272    1.7985    0.5591 H   0  0  0  0  0  0  0  0  0  0  0  0
    2.1494    0.4930   -0.5158 H   0  0  0  0  0  0  0  0  0  0  0  0
    1.1280    1.8028   -1.1319 H   0  0  0  0  0  0  0  0  0  0  0  0
   -0.6453   -1.2067    1.4202 H   0  0  0  0  0  0  0  0  0  0  0  0
    1.3114   -1.4333    2.8097 H   0  0  0  0  0  0  0  0  0  0  0  0
    2.1938   -0.1297    1.8490 H   0  0  0  0  0  0  0  0  0  0  0  0
   -0.9414    1.9691    1.5192 H   0  0  0  0  0  0  0  0  0  0  0  0
    0.0763   -1.8613   -2.6134 C   0  0  0  0  0  0  0  0  0  0  0  0
    0.0763   -1.8613   -1.2917 C   0  0  0  0  0  0  0  0  0  0  0  0
    0.0763   -0.9387   -3.1818 H   0  0  0  0  0  0  0  0  0  0  0  0
    0.0763   -2.7839   -3.1818 H   0  0  0  0  0  0  0  0  0  0  0  0
    0.0763   -0.7542   -0.6096 H   0  0  0  0  0  0  0  0  0  0  0  0
    0.0763   -2.7839   -0.7233 H   0  0  0  0  0  0  0  0  0  0  0  0
  1  2  1  0
  1  6  1  0
  1  7  1  0
  1  8  1  0
  2  3  1  0
  2  5  1  0
  3  4  2  3
  3  9  1  0
  4 10  1  0
  4 11  1  0
  5 12  1  0
 13 14  2  3
 13 15  1  0
 13 16  1  0
 14 17  1  0
 14 18  1  0
M  RAD  1   2   2
M  END
>  <reaction>  (8) 
rxn_1595

>  <mol_properties>  (8) 
{"1": {"label": "*1", "atom_type": "Cs"}, "4": {"label": "*0", "atom_type": "S2s"}, "12": {"label": "*4", "atom_type": "Cd"}, "13": {"label": "*3", "atom_type": "Cd"}, "16": {"label": "*2", "atom_type": "H0"}}

>  <type>  (8) 
unop_4

>  <geom_source>  (8) 
Heuristics

$$$$

     RDKit          3D

 18 16  0  0  0  0  0  0  0  0999 V2000
   -0.0567   -0.2444    1.9429 C   0  0  0  0  0  0  0  0  0  0  0  0
   -0.0567    0.0880    0.4600 C   0  0  0  0  0  3  0  0  0  0  0  0
   -1.2119    0.9196   -0.0129 C   0  0  0  0  0  0  0  0  0  0  0  0
   -2.1503    1.4555    0.7530 C   0  0  0  0  0  0  0  0  0  0  0  0
    1.5176    0.8616   -0.0758 S   0  0  0  0  0  0  0  0  0  0  0  0
    0.0091    0.6616    2.5482 H   0  0  0  0  0  0  0  0  0  0  0  0
   -0.9718   -0.7740    2.2173 H   0  0  0  0  0  0  0  0  0  0  0  0
    0.7967   -0.8744    2.1889 H   0  0  0  0  0  0  0  0  0  0  0  0
   -1.2381    1.0898   -1.0847 H   0  0  0  0  0  0  0  0  0  0  0  0
   -2.9429    2.0530    0.3213 H   0  0  0  0  0  0  0  0  0  0  0  0
   -2.1697    1.3225    1.8277 H   0  0  0  0  0  0  0  0  0  0  0  0
    1.3301    2.0253    0.5623 H   0  0  0  0  0  0  0  0  0  0  0  0
   -0.0567   -2.1371   -2.2325 C   0  0  0  0  0  0  0  0  0  0  0  0
   -0.0567   -2.1371   -0.9108 C   0  0  0  0  0  0  0  0  0  0  0  0
   -0.0567   -1.2145   -2.8009 H   0  0  0  0  0  0  0  0  0  0  0  0
   -0.0567   -3.0597   -2.8009 H   0  0  0  0  0  0  0  0  0  0  0  0
   -0.0567   -1.0300   -0.2287 H   0  0  0  0  0  0  0  0  0  0  0  0
   -0.0567   -3.0597   -0.3424 H   0  0  0  0  0  0  0  0  0  0  0  0
  1  2  1  0
  1  6  1  0
  1  7  1  0
  1  8  1  0
  2  3  1  0
  2  5  1  0
  3  4  2  3
  3  9  1  0
  4 10  1  0
  4 11  1  0
  5 12  1  0
 13 14  2  3
 13 15  1  0
 13 16  1  0
 14 17  1  0
 14 18  1  0
M  RAD  1   2   2
M  END
>  <reaction>  (9) 
rxn_1595

>  <mol_properties>  (9) 
{"1": {"label": "*1", "atom_type": "Cs"}, "4": {"label": "*0", "atom_type": "S2s"}, "12": {"label": "*4", "atom_type": "Cd"}, "13": {"label": "*3", "atom_type": "Cd"}, "16": {"label": "*2", "atom_type": "H0"}}

>  <type>  (9) 
unop_5

>  <geom_source>  (9) 
Heuristics

$$$$

     RDKit          3D

 18 16  0  0  0  0  0  0  0  0999 V2000
    1.6245    0.7945    0.3716 C   0  0  0  0  0  0  0  0  0  0  0  0
    0.1877    0.3732    0.1120 C   0  0  0  0  0  3  0  0  0  0  0  0
   -0.3642   -0.6495    1.0604 C   0  0  0  0  0  0  0  0  0  0  0  0
    0.2481   -1.1263    2.1337 C   0  0  0  0  0  0  0  0  0  0  0  0
   -0.9499    1.8094    0.0266 S   0  0  0  0  0  0  0  0  0  0  0  0
    1.7245    1.2662    1.3509 H   0  0  0  0  0  0  0  0  0  0  0  0
    2.2899   -0.0711    0.3387 H   0  0  0  0  0  0  0  0  0  0  0  0
    1.9497    1.5117   -0.3805 H   0  0  0  0  0  0  0  0  0  0  0  0
   -1.3656   -0.9940    0.8217 H   0  0  0  0  0  0  0  0  0  0  0  0
   -0.2357   -1.8577    2.7680 H   0  0  0  0  0  0  0  0  0  0  0  0
    1.2445   -0.8138    2.4214 H   0  0  0  0  0  0  0  0  0  0  0  0
   -0.8869    2.1200    1.3289 H   0  0  0  0  0  0  0  0  0  0  0  0
    0.1877   -1.8518   -2.5806 C   0  0  0  0  0  0  0  0  0  0  0  0
    0.1877   -1.8518   -1.2588 C   0  0  0  0  0  0  0  0  0  0  0  0
    0.1877   -0.9293   -3.1490 H   0  0  0  0  0  0  0  0  0  0  0  0
    0.1877   -2.7744   -3.1490 H   0  0  0  0  0  0  0  0  0  0  0  0
    0.1877   -0.7447   -0.5768 H   0  0  0  0  0  0  0  0  0  0  0  0
    0.1877   -2.7744   -0.6904 H   0  0  0  0  0  0  0  0  0  0  0  0
  1  2  1  0
  1  6  1  0
  1  7  1  0
  1  8  1  0
  2  3  1  0
  2  5  1  0
  3  4  2  3
  3  9  1  0
  4 10  1  0
  4 11  1  0
  5 12  1  0
 13 14  2  3
 13 15  1  0
 13 16  1  0
 14 17  1  0
 14 18  1  0
M  RAD  1   2   2
M  END
>  <reaction>  (10) 
rxn_1595

>  <mol_properties>  (10) 
{"1": {"label": "*1", "atom_type": "Cs"}, "4": {"label": "*0", "atom_type": "S2s"}, "12": {"label": "*4", "atom_type": "Cd"}, "13": {"label": "*3", "atom_type": "Cd"}, "16": {"label": "*2", "atom_type": "H0"}}

>  <type>  (10) 
unop_6

>  <geom_source>  (10) 
Heuristics

$$$$

     RDKit          3D

 18 16  0  0  0  0  0  0  0  0999 V2000
    1.5254    0.3512    1.0905 C   0  0  0  0  0  0  0  0  0  0  0  0
    0.2811    0.3067    0.2193 C   0  0  0  0  0  3  0  0  0  0  0  0
   -0.8696   -0.4750    0.7804 C   0  0  0  0  0  0  0  0  0  0  0  0
   -0.9218   -1.0290    1.9824 C   0  0  0  0  0  0  0  0  0  0  0  0
   -0.2895    1.9831   -0.2584 S   0  0  0  0  0  0  0  0  0  0  0  0
    1.3192    0.8393    2.0448 H   0  0  0  0  0  0  0  0  0  0  0  0
    1.8877   -0.6591    1.2937 H   0  0  0  0  0  0  0  0  0  0  0  0
    2.3158    0.9103    0.5921 H   0  0  0  0  0  0  0  0  0  0  0  0
   -1.7255   -0.5586    0.1181 H   0  0  0  0  0  0  0  0  0  0  0  0
   -1.8031   -1.5675    2.3060 H   0  0  0  0  0  0  0  0  0  0  0  0
   -0.0994   -0.9720    2.6849 H   0  0  0  0  0  0  0  0  0  0  0  0
   -0.7076    2.3455    0.9624 H   0  0  0  0  0  0  0  0  0  0  0  0
    0.2811   -1.9184   -2.4733 C   0  0  0  0  0  0  0  0  0  0  0  0
    0.2811   -1.9184   -1.1515 C   0  0  0  0  0  0  0  0  0  0  0  0
    0.2811   -0.9958   -3.0417 H   0  0  0  0  0  0  0  0  0  0  0  0
    0.2811   -2.8410   -3.0417 H   0  0  0  0  0  0  0  0  0  0  0  0
    0.2811   -0.8113   -0.4695 H   0  0  0  0  0  0  0  0  0  0  0  0
    0.2811   -2.8410   -0.5831 H   0  0  0  0  0  0  0  0  0  0  0  0
  1  2  1  0
  1  6  1  0
  1  7  1  0
  1  8  1  0
  2  3  1  0
  2  5  1  0
  3  4  2  3
  3  9  1  0
  4 10  1  0
  4 11  1  0
  5 12  1  0
 13 14  2  3
 13 15  1  0
 13 16  1  0
 14 17  1  0
 14 18  1  0
M  RAD  1   2   2
M  END
>  <reaction>  (11) 
rxn_1595

>  <mol_properties>  (11) 
{"1": {"label": "*1", "atom_type": "Cs"}, "4": {"label": "*0", "atom_type": "S2s"}, "12": {"label": "*4", "atom_type": "Cd"}, "13": {"label": "*3", "atom_type": "Cd"}, "16": {"label": "*2", "atom_type": "H0"}}

>  <type>  (11) 
unop_7

>  <geom_source>  (11) 
Heuristics

$$$$

     RDKit          3D

 18 16  0  0  0  0  0  0  0  0999 V2000
   -1.6014    0.8980    0.3317 C   0  0  0  0  0  0  0  0  0  0  0  0
   -0.1645    0.4767    0.0721 C   0  0  0  0  0  3  0  0  0  0  0  0
    0.8593    1.5646    0.2073 C   0  0  0  0  0  0  0  0  0  0  0  0
    0.6303    2.8021    0.6200 C   0  0  0  0  0  0  0  0  0  0  0  0
    0.3300   -0.9632    1.0949 S   0  0  0  0  0  0  0  0  0  0  0  0
   -1.7282    1.2496    1.3573 H   0  0  0  0  0  0  0  0  0  0  0  0
   -1.8930    1.7042   -0.3453 H   0  0  0  0  0  0  0  0  0  0  0  0
   -2.2752    0.0561    0.1803 H   0  0  0  0  0  0  0  0  0  0  0  0
    1.8714    1.2679   -0.0499 H   0  0  0  0  0  0  0  0  0  0  0  0
    1.4379    3.5186    0.6964 H   0  0  0  0  0  0  0  0  0  0  0  0
   -0.3581    3.1500    0.8941 H   0  0  0  0  0  0  0  0  0  0  0  0
    0.3435   -0.3100    2.2652 H   0  0  0  0  0  0  0  0  0  0  0  0
   -0.1645   -1.7483   -2.6204 C   0  0  0  0  0  0  0  0  0  0  0  0
   -0.1645   -1.7483   -1.2987 C   0  0  0  0  0  0  0  0  0  0  0  0
   -0.1645   -0.8257   -3.1888 H   0  0  0  0  0  0  0  0  0  0  0  0
   -0.1645   -2.6709   -3.1888 H   0  0  0  0  0  0  0  0  0  0  0  0
   -0.1645   -0.6412   -0.6167 H   0  0  0  0  0  0  0  0  0  0  0  0
   -0.1645   -2.6709   -0.7303 H   0  0  0  0  0  0  0  0  0  0  0  0
  1  2  1  0
  1  6  1  0
  1  7  1  0
  1  8  1  0
  2  3  1  0
  2  5  1  0
  3  4  2  3
  3  9  1  0
  4 10  1  0
  4 11  1  0
  5 12  1  0
 13 14  2  3
 13 15  1  0
 13 16  1  0
 14 17  1  0
 14 18  1  0
M  RAD  1   2   2
M  END
>  <reaction>  (12) 
rxn_1595

>  <mol_properties>  (12) 
{"1": {"label": "*1", "atom_type": "Cs"}, "4": {"label": "*0", "atom_type": "S2s"}, "12": {"label": "*4", "atom_type": "Cd"}, "13": {"label": "*3", "atom_type": "Cd"}, "16": {"label": "*2", "atom_type": "H0"}}

>  <type>  (12) 
unop_8

>  <geom_source>  (12) 
Heuristics

$$$$

     RDKit          3D

 18 16  0  0  0  0  0  0  0  0999 V2000
    0.7473    1.3917   -0.7042 C   0  0  0  0  0  0  0  0  0  0  0  0
    0.0288    0.3177    0.0957 C   0  0  0  0  0  3  0  0  0  0  0  0
    0.8156   -0.2774    1.2256 C   0  0  0  0  0  0  0  0  0  0  0  0
    2.0129    0.1164    1.6326 C   0  0  0  0  0  0  0  0  0  0  0  0
   -1.6001    0.8894    0.7151 S   0  0  0  0  0  0  0  0  0  0  0  0
    0.9926    2.2504   -0.0765 H   0  0  0  0  0  0  0  0  0  0  0  0
    1.6753    0.9994   -1.1261 H   0  0  0  0  0  0  0  0  0  0  0  0
    0.1156    1.7419   -1.5191 H   0  0  0  0  0  0  0  0  0  0  0  0
    0.3186   -1.0918    1.7434 H   0  0  0  0  0  0  0  0  0  0  0  0
    2.5008   -0.3685    2.4683 H   0  0  0  0  0  0  0  0  0  0  0  0
    2.5515    0.9264    1.1563 H   0  0  0  0  0  0  0  0  0  0  0  0
   -1.1151    1.7562    1.6151 H   0  0  0  0  0  0  0  0  0  0  0  0
    0.0288   -1.9074   -2.5969 C   0  0  0  0  0  0  0  0  0  0  0  0
    0.0288   -1.9074   -1.2752 C   0  0  0  0  0  0  0  0  0  0  0  0
    0.0288   -0.9848   -3.1653 H   0  0  0  0  0  0  0  0  0  0  0  0
    0.0288   -2.8300   -3.1653 H   0  0  0  0  0  0  0  0  0  0  0  0
    0.0288   -0.8003   -0.5931 H   0  0  0  0  0  0  0  0  0  0  0  0
    0.0288   -2.8300   -0.7068 H   0  0  0  0  0  0  0  0  0  0  0  0
  1  2  1  0
  1  6  1  0
  1  7  1  0
  1  8  1  0
  2  3  1  0
  2  5  1  0
  3  4  2  3
  3  9  1  0
  4 10  1  0
  4 11  1  0
  5 12  1  0
 13 14  2  3
 13 15  1  0
 13 16  1  0
 14 17  1  0
 14 18  1  0
M  RAD  1   2   2
M  END
>  <reaction>  (13) 
rxn_1595

>  <mol_properties>  (13) 
{"1": {"label": "*1", "atom_type": "Cs"}, "4": {"label": "*0", "atom_type": "S2s"}, "12": {"label": "*4", "atom_type": "Cd"}, "13": {"label": "*3", "atom_type": "Cd"}, "16": {"label": "*2", "atom_type": "H0"}}

>  <type>  (13) 
unop_9

>  <geom_source>  (13) 
Heuristics

$$$$

     RDKit          3D

 18 16  0  0  0  0  0  0  0  0999 V2000
   -1.2557    1.2486   -0.3063 C   0  0  0  0  0  0  0  0  0  0  0  0
   -0.0113    0.4504    0.0458 C   0  0  0  0  0  3  0  0  0  0  0  0
    1.1623    1.2604    0.5111 C   0  0  0  0  0  0  0  0  0  0  0  0
    1.1691    2.5669    0.7289 C   0  0  0  0  0  0  0  0  0  0  0  0
   -0.3620   -0.8778    1.2610 S   0  0  0  0  0  0  0  0  0  0  0  0
   -1.6376    1.7847    0.5645 H   0  0  0  0  0  0  0  0  0  0  0  0
   -1.0346    1.9786   -1.0882 H   0  0  0  0  0  0  0  0  0  0  0  0
   -2.0420    0.5849   -0.6626 H   0  0  0  0  0  0  0  0  0  0  0  0
    2.0657    0.6860    0.6909 H   0  0  0  0  0  0  0  0  0  0  0  0
    2.0647    3.0656    1.0763 H   0  0  0  0  0  0  0  0  0  0  0  0
    0.2953    3.1871    0.5710 H   0  0  0  0  0  0  0  0  0  0  0  0
   -0.5844   -0.0642    2.3026 H   0  0  0  0  0  0  0  0  0  0  0  0
   -0.0113   -1.7747   -2.6468 C   0  0  0  0  0  0  0  0  0  0  0  0
   -0.0113   -1.7747   -1.3250 C   0  0  0  0  0  0  0  0  0  0  0  0
   -0.0113   -0.8521   -3.2151 H   0  0  0  0  0  0  0  0  0  0  0  0
   -0.0113   -2.6972   -3.2151 H   0  0  0  0  0  0  0  0  0  0  0  0
   -0.0113   -0.6675   -0.6430 H   0  0  0  0  0  0  0  0  0  0  0  0
   -0.0113   -2.6972   -0.7566 H   0  0  0  0  0  0  0  0  0  0  0  0
  1  2  1  0
  1  6  1  0
  1  7  1  0
  1  8  1  0
  2  3  1  0
  2  5  1  0
  3  4  2  3
  3  9  1  0
  4 10  1  0
  4 11  1  0
  5 12  1  0
 13 14  2  3
 13 15  1  0
 13 16  1  0
 14 17  1  0
 14 18  1  0
M  RAD  1   2   2
M  END
>  <reaction>  (14) 
rxn_1595

>  <mol_properties>  (14) 
{"1": {"label": "*1", "atom_type": "Cs"}, "4": {"label": "*0", "atom_type": "S2s"}, "12": {"label": "*4", "atom_type": "Cd"}, "13": {"label": "*3", "atom_type": "Cd"}, "16": {"label": "*2", "atom_type": "H0"}}

>  <type>  (14) 
unop_10

>  <geom_source>  (14) 
Heuristics

$$$$

     RDKit          3D

 18 16  0  0  0  0  0  0  0  0999 V2000
    0.9548   -0.0641    1.6946 C   0  0  0  0  0  0  0  0  0  0  0  0
    0.2364    0.1673    0.3756 C   0  0  0  0  0  3  0  0  0  0  0  0
   -1.2537    0.0005    0.4167 C   0  0  0  0  0  0  0  0  0  0  0  0
   -1.9819   -0.2272    1.4994 C   0  0  0  0  0  0  0  0  0  0  0  0
    0.6526    1.7937   -0.3631 S   0  0  0  0  0  0  0  0  0  0  0  0
    0.6324    0.6562    2.4488 H   0  0  0  0  0  0  0  0  0  0  0  0
    0.7509   -1.0689    2.0713 H   0  0  0  0  0  0  0  0  0  0  0  0
    2.0301    0.0466    1.5636 H   0  0  0  0  0  0  0  0  0  0  0  0
   -1.7466    0.0982   -0.5455 H   0  0  0  0  0  0  0  0  0  0  0  0
   -3.0580   -0.3229    1.4329 H   0  0  0  0  0  0  0  0  0  0  0  0
   -1.5431   -0.3282    2.4845 H   0  0  0  0  0  0  0  0  0  0  0  0
    0.0023    2.5344    0.5452 H   0  0  0  0  0  0  0  0  0  0  0  0
    0.2364   -2.0577   -2.3169 C   0  0  0  0  0  0  0  0  0  0  0  0
    0.2364   -2.0577   -0.9952 C   0  0  0  0  0  0  0  0  0  0  0  0
    0.2364   -1.1351   -2.8853 H   0  0  0  0  0  0  0  0  0  0  0  0
    0.2364   -2.9803   -2.8853 H   0  0  0  0  0  0  0  0  0  0  0  0
    0.2364   -0.9506   -0.3131 H   0  0  0  0  0  0  0  0  0  0  0  0
    0.2364   -2.9803   -0.4268 H   0  0  0  0  0  0  0  0  0  0  0  0
  1  2  1  0
  1  6  1  0
  1  7  1  0
  1  8  1  0
  2  3  1  0
  2  5  1  0
  3  4  2  3
  3  9  1  0
  4 10  1  0
  4 11  1  0
  5 12  1  0
 13 14  2  3
 13 15  1  0
 13 16  1  0
 14 17  1  0
 14 18  1  0
M  RAD  1   2   2
M  END
>  <reaction>  (15) 
rxn_1595

>  <mol_properties>  (15) 
{"1": {"label": "*1", "atom_type": "Cs"}, "4": {"label": "*0", "atom_type": "S2s"}, "12": {"label": "*4", "atom_type": "Cd"}, "13": {"label": "*3", "atom_type": "Cd"}, "16": {"label": "*2", "atom_type": "H0"}}

>  <type>  (15) 
unop_11

>  <geom_source>  (15) 
Heuristics

$$$$

     RDKit          3D

 18 16  0  0  0  0  0  0  0  0999 V2000
    0.0567    1.4816   -0.8587 C   0  0  0  0  0  0  0  0  0  0  0  0
    0.0567    0.3067    0.1051 C   0  0  0  0  0  3  0  0  0  0  0  0
    1.2119    0.2583    1.0606 C   0  0  0  0  0  0  0  0  0  0  0  0
    2.1503    1.1833    1.1948 C   0  0  0  0  0  0  0  0  0  0  0  0
   -1.5176    0.1760    1.0370 S   0  0  0  0  0  0  0  0  0  0  0  0
   -0.0091    2.4297   -0.3217 H   0  0  0  0  0  0  0  0  0  0  0  0
    0.9718    1.4885   -1.4551 H   0  0  0  0  0  0  0  0  0  0  0  0
   -0.7967    1.4180   -1.5320 H   0  0  0  0  0  0  0  0  0  0  0  0
    1.2381   -0.6225    1.6946 H   0  0  0  0  0  0  0  0  0  0  0  0
    2.9429    1.0664    1.9226 H   0  0  0  0  0  0  0  0  0  0  0  0
    2.1697    2.0834    0.5926 H   0  0  0  0  0  0  0  0  0  0  0  0
   -1.3301    1.2693    1.7894 H   0  0  0  0  0  0  0  0  0  0  0  0
    0.0567   -1.9184   -2.5874 C   0  0  0  0  0  0  0  0  0  0  0  0
    0.0567   -1.9184   -1.2657 C   0  0  0  0  0  0  0  0  0  0  0  0
    0.0567   -0.9958   -3.1558 H   0  0  0  0  0  0  0  0  0  0  0  0
    0.0567   -2.8410   -3.1558 H   0  0  0  0  0  0  0  0  0  0  0  0
    0.0567   -0.8113   -0.5837 H   0  0  0  0  0  0  0  0  0  0  0  0
    0.0567   -2.8410   -0.6973 H   0  0  0  0  0  0  0  0  0  0  0  0
  1  2  1  0
  1  6  1  0
  1  7  1  0
  1  8  1  0
  2  3  1  0
  2  5  1  0
  3  4  2  3
  3  9  1  0
  4 10  1  0
  4 11  1  0
  5 12  1  0
 13 14  2  3
 13 15  1  0
 13 16  1  0
 14 17  1  0
 14 18  1  0
M  RAD  1   2   2
M  END
>  <reaction>  (16) 
rxn_1595

>  <mol_properties>  (16) 
{"1": {"label": "*1", "atom_type": "Cs"}, "4": {"label": "*0", "atom_type": "S2s"}, "12": {"label": "*4", "atom_type": "Cd"}, "13": {"label": "*3", "atom_type": "Cd"}, "16": {"label": "*2", "atom_type": "H0"}}

>  <type>  (16) 
unop_12

>  <geom_source>  (16) 
Heuristics

$$$$

     RDKit          3D

 18 16  0  0  0  0  0  0  0  0999 V2000
   -0.0586   -0.4234    1.9480 S   0  0  0  0  0  0  0  0  0  0  0  0
   -0.3781    0.4946    0.4027 C   0  0  0  0  0  3  0  0  0  0  0  0
   -0.7572    1.9389    0.7227 C   0  0  0  0  0  0  0  0  0  0  0  0
   -1.4582   -0.1867   -0.3959 C   0  0  0  0  0  0  0  0  0  0  0  0
   -1.2430   -1.3680   -0.9801 C   0  0  0  0  0  0  0  0  0  0  0  0
    2.4630   -1.1923   -0.3639 C   0  0  0  0  0  0  0  0  0  0  0  0
    1.9345   -0.0034   -0.6395 C   0  0  0  0  0  0  0  0  0  0  0  0
    0.8397    0.5143   -0.3801 H   0  0  0  0  0  0  0  0  0  0  0  0
   -0.9102    2.5071   -0.2192 H   0  0  0  0  0  0  0  0  0  0  0  0
    0.0627    2.4241    1.2929 H   0  0  0  0  0  0  0  0  0  0  0  0
   -1.6896    1.9783    1.3260 H   0  0  0  0  0  0  0  0  0  0  0  0
   -2.4234    0.2949   -0.5290 H   0  0  0  0  0  0  0  0  0  0  0  0
   -0.2867   -1.8732   -0.8831 H   0  0  0  0  0  0  0  0  0  0  0  0
   -2.0292   -1.8372   -1.5626 H   0  0  0  0  0  0  0  0  0  0  0  0
    2.4318   -1.5752    0.6501 H   0  0  0  0  0  0  0  0  0  0  0  0
    2.9259   -1.7821   -1.1485 H   0  0  0  0  0  0  0  0  0  0  0  0
   -1.3835   -0.2999    2.4104 H   0  0  0  0  0  0  0  0  0  0  0  0
    1.9603    0.3893   -1.6508 H   0  0  0  0  0  0  0  0  0  0  0  0
  1  2  1  0
  1 17  1  0
  2  3  1  0
  2  4  1  0
  3  9  1  0
  3 10  1  0
  3 11  1  0
  4  5  2  3
  4 12  1  0
  5 13  1  0
  5 14  1  0
  6  7  2  3
  6 15  1  0
  6 16  1  0
  7  8  1  0
  7 18  1  0
M  RAD  1   2   2
M  END
>  <reaction>  (17) 
rxn_1595

>  <mol_properties>  (17) 
{"1": {"label": "*1", "atom_type": "Cs"}, "4": {"label": "*0", "atom_type": "S2s"}, "12": {"label": "*4", "atom_type": "Cd"}, "13": {"label": "*3", "atom_type": "Cd"}, "16": {"label": "*2", "atom_type": "H0"}}

>  <type>  (17) 
unop_13

>  <geom_source>  (17) 
AutoTST

$$$$
