
     RDKit          3D

 19 20  0  0  0  0  0  0  0  0999 V2000
    1.1087   -0.4716   -0.9619 C   0  0  0  0  0  0  0  0  0  0  0  0
    0.9355    1.0407   -0.6470 C   0  0  0  0  0  0  0  0  0  0  0  0
   -0.0085    1.0377    0.5657 C   0  0  0  0  0  0  0  0  0  0  0  0
   -1.4093    0.6181    0.0927 C   0  0  0  0  0  0  0  0  0  0  0  0
   -1.2361   -0.8942   -0.2222 C   0  0  0  0  0  0  0  0  0  0  0  0
    0.2422   -1.1516    0.1099 C   0  0  0  0  0  0  0  0  0  0  0  0
    0.4537   -0.2211    1.3118 C   0  0  0  0  0  0  0  0  0  0  0  0
    2.1524   -0.7752   -0.8653 H   0  0  0  0  0  0  0  0  0  0  0  0
    0.7855   -0.7316   -1.9710 H   0  0  0  0  0  0  0  0  0  0  0  0
    1.8918    1.5001   -0.3916 H   0  0  0  0  0  0  0  0  0  0  0  0
    0.5184    1.6005   -1.4855 H   0  0  0  0  0  0  0  0  0  0  0  0
    0.0038    1.9661    1.1351 H   0  0  0  0  0  0  0  0  0  0  0  0
   -1.7351    1.1944   -0.7746 H   0  0  0  0  0  0  0  0  0  0  0  0
   -2.1465    0.7723    0.8824 H   0  0  0  0  0  0  0  0  0  0  0  0
   -1.4680   -1.1377   -1.2601 H   0  0  0  0  0  0  0  0  0  0  0  0
   -1.8859   -1.5030    0.4087 H   0  0  0  0  0  0  0  0  0  0  0  0
    0.4812   -2.2025    0.2673 H   0  0  0  0  0  0  0  0  0  0  0  0
    1.4942   -0.1701    1.6391 H   0  0  0  0  0  0  0  0  0  0  0  0
   -0.1779   -0.4714    2.1666 H   0  0  0  0  0  0  0  0  0  0  0  0
  1  2  1  0
  1  6  1  0
  1  8  1  0
  1  9  1  0
  2  3  1  0
  2 10  1  0
  2 11  1  0
  3  4  1  0
  3  7  1  0
  3 12  1  0
  4  5  1  0
  4 13  1  0
  4 14  1  0
  5  6  1  0
  5 15  1  0
  5 16  1  0
  6  7  1  0
  6 17  1  0
  7 18  1  0
  7 19  1  0
M  END
>  <reaction>  (1) 
rxn_549

>  <mol_properties>  (1) 
{"6": {"label": "donator", "atom_type": "Cs"}, "17": {"label": "d_hydrogen", "atom_type": "H0"}}

>  <type>  (1) 
r1h

$$$$

     RDKit          3D

 20 20  0  0  0  0  0  0  0  0999 V2000
   -2.4774    0.8083    0.1488 C   0  0  0  0  0  0  0  0  0  0  0  0
   -1.4172   -0.1696   -0.2476 C   0  0  0  0  0  3  0  0  0  0  0  0
   -0.2904    0.2932   -1.1156 C   0  0  0  0  0  0  0  0  0  0  0  0
   -1.4797   -1.5204    0.1947 C   0  0  0  0  0  0  0  0  0  0  0  0
   -0.4907   -2.4664   -0.1650 C   0  0  0  0  0  0  0  0  0  0  0  0
   -0.5559   -3.7750    0.2665 C   0  0  0  0  0  0  0  0  0  0  0  0
   -1.6038   -4.2041    1.0733 C   0  0  0  0  0  0  0  0  0  0  0  0
   -2.5899   -3.2959    1.4424 C   0  0  0  0  0  0  0  0  0  0  0  0
   -2.5339   -1.9852    1.0162 C   0  0  0  0  0  0  0  0  0  0  0  0
   -3.4697    0.4933   -0.1924 H   0  0  0  0  0  0  0  0  0  0  0  0
   -2.5434    0.9184    1.2368 H   0  0  0  0  0  0  0  0  0  0  0  0
   -2.2829    1.7944   -0.2706 H   0  0  0  0  0  0  0  0  0  0  0  0
   -0.2452   -0.2661   -2.0565 H   0  0  0  0  0  0  0  0  0  0  0  0
   -0.3905    1.3487   -1.3647 H   0  0  0  0  0  0  0  0  0  0  0  0
    0.6811    0.1589   -0.6274 H   0  0  0  0  0  0  0  0  0  0  0  0
    0.3373   -2.1635   -0.7918 H   0  0  0  0  0  0  0  0  0  0  0  0
    0.2187   -4.4725   -0.0281 H   0  0  0  0  0  0  0  0  0  0  0  0
   -1.6513   -5.2316    1.4097 H   0  0  0  0  0  0  0  0  0  0  0  0
   -3.4116   -3.6175    2.0706 H   0  0  0  0  0  0  0  0  0  0  0  0
   -3.3164   -1.3029    1.3205 H   0  0  0  0  0  0  0  0  0  0  0  0
  1  2  1  0
  1 10  1  0
  1 11  1  0
  1 12  1  0
  2  3  1  0
  2  4  1  0
  3 13  1  0
  3 14  1  0
  3 15  1  0
  4  5  2  0
  4  9  1  0
  5  6  1  0
  5 16  1  0
  6  7  2  0
  6 17  1  0
  7  8  1  0
  7 18  1  0
  8  9  2  0
  8 19  1  0
  9 20  1  0
M  RAD  1   2   2
M  END
>  <reaction>  (2) 
rxn_549

>  <mol_properties>  (2) 
{"1": {"label": "acceptor", "atom_type": "Cs"}}

>  <type>  (2) 
r2

$$$$

     RDKit          3D

 21 21  0  0  0  0  0  0  0  0999 V2000
   -1.3695    1.3367   -1.0719 C   0  0  0  0  0  0  0  0  0  0  0  0
   -1.4091   -0.0981   -0.5428 C   0  0  0  0  0  0  0  0  0  0  0  0
   -0.1819   -0.3999    0.3191 C   0  0  0  0  0  0  0  0  0  0  0  0
   -1.5636   -1.1028   -1.6652 C   0  0  0  0  0  0  0  0  0  0  0  0
   -0.5920   -1.2314   -2.6553 C   0  0  0  0  0  0  0  0  0  0  0  0
   -0.7353   -2.1509   -3.6809 C   0  0  0  0  0  0  0  0  0  0  0  0
   -1.8582   -2.9642   -3.7377 C   0  0  0  0  0  0  0  0  0  0  0  0
   -2.8325   -2.8475   -2.7602 C   0  0  0  0  0  0  0  0  0  0  0  0
   -2.6828   -1.9241   -1.7351 C   0  0  0  0  0  0  0  0  0  0  0  0
   -0.4920    1.4974   -1.7025 H   0  0  0  0  0  0  0  0  0  0  0  0
   -2.2553    1.5607   -1.6679 H   0  0  0  0  0  0  0  0  0  0  0  0
   -1.3211    2.0496   -0.2461 H   0  0  0  0  0  0  0  0  0  0  0  0
   -2.2930   -0.1918    0.0948 H   0  0  0  0  0  0  0  0  0  0  0  0
   -0.1215    0.2955    1.1588 H   0  0  0  0  0  0  0  0  0  0  0  0
   -0.2200   -1.4155    0.7159 H   0  0  0  0  0  0  0  0  0  0  0  0
    0.7383   -0.3016   -0.2615 H   0  0  0  0  0  0  0  0  0  0  0  0
    0.2915   -0.6040   -2.6263 H   0  0  0  0  0  0  0  0  0  0  0  0
    0.0326   -2.2338   -4.4401 H   0  0  0  0  0  0  0  0  0  0  0  0
   -1.9712   -3.6833   -4.5391 H   0  0  0  0  0  0  0  0  0  0  0  0
   -3.7135   -3.4765   -2.7932 H   0  0  0  0  0  0  0  0  0  0  0  0
   -3.4509   -1.8400   -0.9743 H   0  0  0  0  0  0  0  0  0  0  0  0
  1  2  1  0
  1 10  1  0
  1 11  1  0
  1 12  1  0
  2  3  1  0
  2  4  1  0
  2 13  1  0
  3 14  1  0
  3 15  1  0
  3 16  1  0
  4  5  2  0
  4  9  1  0
  5  6  1  0
  5 17  1  0
  6  7  2  0
  6 18  1  0
  7  8  1  0
  7 19  1  0
  8  9  2  0
  8 20  1  0
  9 21  1  0
M  END
>  <reaction>  (3) 
rxn_549

>  <mol_properties>  (3) 
{"1": {"label": "acceptor", "atom_type": "Cs"}, "20": {"label": "a_hydrogen", "atom_type": "H0"}}

>  <type>  (3) 
r2h

$$$$

     RDKit          3D

 39 40  0  0  0  0  0  0  0  0999 V2000
   -1.9776    2.0457    0.9545 C   0  0  0  0  0  0  0  0  0  0  0  0
   -1.3517    1.1419   -0.0938 C   0  0  0  0  0  0  0  0  0  0  0  0
   -1.5180    1.7058   -1.4904 C   0  0  0  0  0  0  0  0  0  0  0  0
   -1.6377   -0.3143    0.0688 C   0  0  0  0  0  0  0  0  0  0  0  0
   -1.8866   -1.1488   -1.0218 C   0  0  0  0  0  0  0  0  0  0  0  0
   -2.0641   -2.5148   -0.8595 C   0  0  0  0  0  0  0  0  0  0  0  0
   -1.9984   -3.0866    0.3999 C   0  0  0  0  0  0  0  0  0  0  0  0
   -1.7565   -2.2729    1.4978 C   0  0  0  0  0  0  0  0  0  0  0  0
   -1.5800   -0.9111    1.3329 C   0  0  0  0  0  0  0  0  0  0  0  0
   -1.7293    1.7431    1.9713 H   0  0  0  0  0  0  0  0  0  0  0  0
   -1.6267    3.0714    0.8244 H   0  0  0  0  0  0  0  0  0  0  0  0
   -3.0682    2.0492    0.8646 H   0  0  0  0  0  0  0  0  0  0  0  0
   -2.5609    1.6607   -1.8209 H   0  0  0  0  0  0  0  0  0  0  0  0
   -1.2107    2.7528   -1.5054 H   0  0  0  0  0  0  0  0  0  0  0  0
   -0.9088    1.1777   -2.2250 H   0  0  0  0  0  0  0  0  0  0  0  0
   -1.9462   -0.7328   -2.0184 H   0  0  0  0  0  0  0  0  0  0  0  0
   -2.2559   -3.1342   -1.7270 H   0  0  0  0  0  0  0  0  0  0  0  0
   -2.1344   -4.1529    0.5267 H   0  0  0  0  0  0  0  0  0  0  0  0
   -1.6986   -2.7037    2.4898 H   0  0  0  0  0  0  0  0  0  0  0  0
   -1.3697   -0.3044    2.2041 H   0  0  0  0  0  0  0  0  0  0  0  0
    1.8471   -0.0660   -1.3118 C   0  0  0  0  0  0  0  0  0  0  0  0
    1.8457   -0.7792    0.0672 C   0  0  0  0  0  0  0  0  0  0  0  0
    2.0143    0.3821    1.0633 C   0  0  0  0  0  0  0  0  0  0  0  0
    3.4735    0.8791    0.9670 C   0  0  0  0  0  0  0  0  0  0  0  0
    3.5183    1.5650   -0.4301 C   0  0  0  0  0  0  0  0  0  0  0  0
    2.0694    1.4102   -0.9442 C   0  0  0  0  0  0  0  0  0  0  0  0
    1.3003    1.5211    0.3585 C   0  0  0  0  0  3  0  0  0  0  0  0
    0.8876   -0.2025   -1.8131 H   0  0  0  0  0  0  0  0  0  0  0  0
    2.6237   -0.4382   -1.9815 H   0  0  0  0  0  0  0  0  0  0  0  0
    0.9083   -1.3086    0.2327 H   0  0  0  0  0  0  0  0  0  0  0  0
    2.6552   -1.5044    0.1634 H   0  0  0  0  0  0  0  0  0  0  0  0
    1.6911    0.1520    2.0771 H   0  0  0  0  0  0  0  0  0  0  0  0
    4.1876    0.0585    1.0578 H   0  0  0  0  0  0  0  0  0  0  0  0
    3.6916    1.5948    1.7612 H   0  0  0  0  0  0  0  0  0  0  0  0
    4.2379    1.0981   -1.1054 H   0  0  0  0  0  0  0  0  0  0  0  0
    3.7871    2.6185   -0.3418 H   0  0  0  0  0  0  0  0  0  0  0  0
    1.8028    2.1132   -1.7317 H   0  0  0  0  0  0  0  0  0  0  0  0
   -0.1170    1.2423    0.1274 H   0  0  0  0  0  0  0  0  0  0  0  0
    1.2658    2.4899    0.8559 H   0  0  0  0  0  0  0  0  0  0  0  0
  1  2  1  0
  1 10  1  0
  1 11  1  0
  1 12  1  0
  2  3  1  0
  2  4  1  0
  2 38  1  0
  3 13  1  0
  3 14  1  0
  3 15  1  0
  4  5  2  0
  4  9  1  0
  5  6  1  0
  5 16  1  0
  6  7  2  0
  6 17  1  0
  7  8  1  0
  7 18  1  0
  8  9  2  0
  8 19  1  0
  9 20  1  0
 21 22  1  0
 21 26  1  0
 21 28  1  0
 21 29  1  0
 22 23  1  0
 22 30  1  0
 22 31  1  0
 23 24  1  0
 23 27  1  0
 23 32  1  0
 24 25  1  0
 24 33  1  0
 24 34  1  0
 25 26  1  0
 25 35  1  0
 25 36  1  0
 26 27  1  0
 26 37  1  0
 27 39  1  0
M  RAD  1  27   2
M  END
>  <reaction>  (4) 
rxn_549

>  <mol_properties>  (4) 
{"1": {"label": "*1", "atom_type": "Cs"}, "3": {"label": "*0", "atom_type": "Cd"}, "22": {"label": "*4", "atom_type": "Cs"}, "26": {"label": "*3", "atom_type": "Cs"}, "37": {"label": "*2", "atom_type": "H0"}}

>  <type>  (4) 
ts

$$$$

     RDKit          3D

 39 40  0  0  0  0  0  0  0  0999 V2000
   -2.0836    1.9302   -0.0557 C   0  0  0  0  0  0  0  0  0  0  0  0
   -1.1328    0.7454   -0.2352 C   0  0  0  0  0  3  0  0  0  0  0  0
   -0.6468    0.6452   -1.6822 C   0  0  0  0  0  0  0  0  0  0  0  0
   -1.7609   -0.5503    0.2336 C   0  0  0  0  0  0  0  0  0  0  0  0
   -2.9058   -1.0577   -0.3769 C   0  0  0  0  0  0  0  0  0  0  0  0
   -3.4786   -2.2429    0.0533 C   0  0  0  0  0  0  0  0  0  0  0  0
   -2.9158   -2.9481    1.1077 C   0  0  0  0  0  0  0  0  0  0  0  0
   -1.7775   -2.4558    1.7243 C   0  0  0  0  0  0  0  0  0  0  0  0
   -1.2084   -1.2676    1.2882 C   0  0  0  0  0  0  0  0  0  0  0  0
   -2.4131    2.0166    0.9807 H   0  0  0  0  0  0  0  0  0  0  0  0
   -1.5926    2.8633   -0.3396 H   0  0  0  0  0  0  0  0  0  0  0  0
   -2.9721    1.8176   -0.6813 H   0  0  0  0  0  0  0  0  0  0  0  0
   -1.4836    0.4864   -2.3663 H   0  0  0  0  0  0  0  0  0  0  0  0
   -0.1414    1.5654   -1.9825 H   0  0  0  0  0  0  0  0  0  0  0  0
    0.0492   -0.1856   -1.8068 H   0  0  0  0  0  0  0  0  0  0  0  0
   -3.3586   -0.5197   -1.2019 H   0  0  0  0  0  0  0  0  0  0  0  0
   -4.3687   -2.6187   -0.4360 H   0  0  0  0  0  0  0  0  0  0  0  0
   -3.3629   -3.8746    1.4447 H   0  0  0  0  0  0  0  0  0  0  0  0
   -1.3286   -2.9967    2.5481 H   0  0  0  0  0  0  0  0  0  0  0  0
   -0.3172   -0.8900    1.7772 H   0  0  0  0  0  0  0  0  0  0  0  0
    2.1858   -0.3891   -1.0124 C   0  0  0  0  0  0  0  0  0  0  0  0
    2.1858   -0.3891    0.5420 C   0  0  0  0  0  0  0  0  0  0  0  0
    2.1858    1.1079    0.8899 C   0  0  0  0  0  0  0  0  0  0  0  0
    3.5651    1.6897    0.5420 C   0  0  0  0  0  0  0  0  0  0  0  0
    3.5651    1.6897   -1.0124 C   0  0  0  0  0  0  0  0  0  0  0  0
    2.1858    1.1079   -1.3604 C   0  0  0  0  0  0  0  0  0  0  0  0
    1.3163    1.6848   -0.2352 C   0  0  0  0  0  0  0  0  0  0  0  0
    1.2921   -0.8773   -1.4046 H   0  0  0  0  0  0  0  0  0  0  0  0
    3.0503   -0.9044   -1.4338 H   0  0  0  0  0  0  0  0  0  0  0  0
    1.2921   -0.8773    0.9341 H   0  0  0  0  0  0  0  0  0  0  0  0
    3.0503   -0.9044    0.9633 H   0  0  0  0  0  0  0  0  0  0  0  0
    1.8614    1.3231    1.9071 H   0  0  0  0  0  0  0  0  0  0  0  0
    4.3759    1.0935    0.9633 H   0  0  0  0  0  0  0  0  0  0  0  0
    3.6675    2.7029    0.9341 H   0  0  0  0  0  0  0  0  0  0  0  0
    4.3759    1.0935   -1.4338 H   0  0  0  0  0  0  0  0  0  0  0  0
    3.6675    2.7029   -1.4046 H   0  0  0  0  0  0  0  0  0  0  0  0
    1.8614    1.3231   -2.3776 H   0  0  0  0  0  0  0  0  0  0  0  0
    0.0929    1.2155   -0.2352 H   0  0  0  0  0  0  0  0  0  0  0  0
    1.2803    2.7762   -0.2352 H   0  0  0  0  0  0  0  0  0  0  0  0
  1  2  1  0
  1 10  1  0
  1 11  1  0
  1 12  1  0
  2  3  1  0
  2  4  1  0
  3 13  1  0
  3 14  1  0
  3 15  1  0
  4  5  2  0
  4  9  1  0
  5  6  1  0
  5 16  1  0
  6  7  2  0
  6 17  1  0
  7  8  1  0
  7 18  1  0
  8  9  2  0
  8 19  1  0
  9 20  1  0
 21 22  1  0
 21 26  1  0
 21 28  1  0
 21 29  1  0
 22 23  1  0
 22 30  1  0
 22 31  1  0
 23 24  1  0
 23 27  1  0
 23 32  1  0
 24 25  1  0
 24 33  1  0
 24 34  1  0
 25 26  1  0
 25 35  1  0
 25 36  1  0
 26 27  1  0
 26 37  1  0
 27 38  1  0
 27 39  1  0
M  RAD  1   2   2
M  END
>  <reaction>  (5) 
rxn_549

>  <mol_properties>  (5) 
{"1": {"label": "*1", "atom_type": "Cs"}, "3": {"label": "*0", "atom_type": "Cd"}, "22": {"label": "*4", "atom_type": "Cs"}, "26": {"label": "*3", "atom_type": "Cs"}, "37": {"label": "*2", "atom_type": "H0"}}

>  <type>  (5) 
unop_1

>  <geom_source>  (5) 
Heuristics

$$$$

     RDKit          3D

 39 40  0  0  0  0  0  0  0  0999 V2000
   -1.6113    0.2806    2.0353 C   0  0  0  0  0  0  0  0  0  0  0  0
   -1.2429    0.6142    0.5886 C   0  0  0  0  0  3  0  0  0  0  0  0
   -1.8196    1.9687    0.1731 C   0  0  0  0  0  0  0  0  0  0  0  0
   -1.6632   -0.4868   -0.3624 C   0  0  0  0  0  0  0  0  0  0  0  0
   -3.0047   -0.8277   -0.5214 C   0  0  0  0  0  0  0  0  0  0  0  0
   -3.3870   -1.8349   -1.3917 C   0  0  0  0  0  0  0  0  0  0  0  0
   -2.4314   -2.5248   -2.1241 C   0  0  0  0  0  0  0  0  0  0  0  0
   -1.0939   -2.1968   -1.9763 C   0  0  0  0  0  0  0  0  0  0  0  0
   -0.7175   -1.1865   -1.1026 C   0  0  0  0  0  0  0  0  0  0  0  0
   -1.1815   -0.6746    2.3404 H   0  0  0  0  0  0  0  0  0  0  0  0
   -1.2455    1.0546    2.7132 H   0  0  0  0  0  0  0  0  0  0  0  0
   -2.6948    0.2149    2.1584 H   0  0  0  0  0  0  0  0  0  0  0  0
   -2.9106    1.9637    0.2292 H   0  0  0  0  0  0  0  0  0  0  0  0
   -1.4559    2.7597    0.8322 H   0  0  0  0  0  0  0  0  0  0  0  0
   -1.5385    2.2185   -0.8511 H   0  0  0  0  0  0  0  0  0  0  0  0
   -3.7644   -0.2989    0.0429 H   0  0  0  0  0  0  0  0  0  0  0  0
   -4.4356   -2.0832   -1.4995 H   0  0  0  0  0  0  0  0  0  0  0  0
   -2.7292   -3.3123   -2.8046 H   0  0  0  0  0  0  0  0  0  0  0  0
   -0.3384   -2.7278   -2.5422 H   0  0  0  0  0  0  0  0  0  0  0  0
    0.3321   -0.9368   -0.9936 H   0  0  0  0  0  0  0  0  0  0  0  0
    2.0757   -0.5203   -0.1886 C   0  0  0  0  0  0  0  0  0  0  0  0
    2.0757   -0.5203    1.3657 C   0  0  0  0  0  0  0  0  0  0  0  0
    2.0757    0.9767    1.7137 C   0  0  0  0  0  0  0  0  0  0  0  0
    3.4549    1.5585    1.3657 C   0  0  0  0  0  0  0  0  0  0  0  0
    3.4549    1.5585   -0.1886 C   0  0  0  0  0  0  0  0  0  0  0  0
    2.0757    0.9767   -0.5366 C   0  0  0  0  0  0  0  0  0  0  0  0
    1.2061    1.5536    0.5886 C   0  0  0  0  0  0  0  0  0  0  0  0
    1.1819   -1.0085   -0.5808 H   0  0  0  0  0  0  0  0  0  0  0  0
    2.9401   -1.0356   -0.6100 H   0  0  0  0  0  0  0  0  0  0  0  0
    1.1819   -1.0085    1.7579 H   0  0  0  0  0  0  0  0  0  0  0  0
    2.9401   -1.0356    1.7871 H   0  0  0  0  0  0  0  0  0  0  0  0
    1.7512    1.1919    2.7309 H   0  0  0  0  0  0  0  0  0  0  0  0
    4.2657    0.9623    1.7871 H   0  0  0  0  0  0  0  0  0  0  0  0
    3.5573    2.5717    1.7579 H   0  0  0  0  0  0  0  0  0  0  0  0
    4.2657    0.9623   -0.6100 H   0  0  0  0  0  0  0  0  0  0  0  0
    3.5573    2.5717   -0.5808 H   0  0  0  0  0  0  0  0  0  0  0  0
    1.7512    1.1919   -1.5538 H   0  0  0  0  0  0  0  0  0  0  0  0
   -0.0173    1.0843    0.5886 H   0  0  0  0  0  0  0  0  0  0  0  0
    1.1701    2.6450    0.5886 H   0  0  0  0  0  0  0  0  0  0  0  0
  1  2  1  0
  1 10  1  0
  1 11  1  0
  1 12  1  0
  2  3  1  0
  2  4  1  0
  3 13  1  0
  3 14  1  0
  3 15  1  0
  4  5  2  0
  4  9  1  0
  5  6  1  0
  5 16  1  0
  6  7  2  0
  6 17  1  0
  7  8  1  0
  7 18  1  0
  8  9  2  0
  8 19  1  0
  9 20  1  0
 21 22  1  0
 21 26  1  0
 21 28  1  0
 21 29  1  0
 22 23  1  0
 22 30  1  0
 22 31  1  0
 23 24  1  0
 23 27  1  0
 23 32  1  0
 24 25  1  0
 24 33  1  0
 24 34  1  0
 25 26  1  0
 25 35  1  0
 25 36  1  0
 26 27  1  0
 26 37  1  0
 27 38  1  0
 27 39  1  0
M  RAD  1   2   2
M  END
>  <reaction>  (6) 
rxn_549

>  <mol_properties>  (6) 
{"1": {"label": "*1", "atom_type": "Cs"}, "3": {"label": "*0", "atom_type": "Cd"}, "22": {"label": "*4", "atom_type": "Cs"}, "26": {"label": "*3", "atom_type": "Cs"}, "37": {"label": "*2", "atom_type": "H0"}}

>  <type>  (6) 
unop_2

>  <geom_source>  (6) 
Heuristics

$$$$

     RDKit          3D

 39 40  0  0  0  0  0  0  0  0999 V2000
   -2.0137    1.5405   -1.2165 C   0  0  0  0  0  0  0  0  0  0  0  0
   -1.1001    0.4528   -0.6486 C   0  0  0  0  0  3  0  0  0  0  0  0
   -0.5876   -0.4683   -1.7571 C   0  0  0  0  0  0  0  0  0  0  0  0
   -1.7817   -0.3281    0.4554 C   0  0  0  0  0  0  0  0  0  0  0  0
   -2.9301   -1.0760    0.2050 C   0  0  0  0  0  0  0  0  0  0  0  0
   -3.5518   -1.7895    1.2161 C   0  0  0  0  0  0  0  0  0  0  0  0
   -3.0355   -1.7696    2.5040 C   0  0  0  0  0  0  0  0  0  0  0  0
   -1.8943   -1.0305    2.7678 C   0  0  0  0  0  0  0  0  0  0  0  0
   -1.2761   -0.3177    1.7502 C   0  0  0  0  0  0  0  0  0  0  0  0
   -2.3617    2.2119   -0.4302 H   0  0  0  0  0  0  0  0  0  0  0  0
   -1.4854    2.1332   -1.9662 H   0  0  0  0  0  0  0  0  0  0  0  0
   -2.8922    1.1029   -1.6963 H   0  0  0  0  0  0  0  0  0  0  0  0
   -1.4148   -0.9781   -2.2564 H   0  0  0  0  0  0  0  0  0  0  0  0
   -0.0450    0.1042   -2.5122 H   0  0  0  0  0  0  0  0  0  0  0  0
    0.0823   -1.2306   -1.3567 H   0  0  0  0  0  0  0  0  0  0  0  0
   -3.3469   -1.1027   -0.7953 H   0  0  0  0  0  0  0  0  0  0  0  0
   -4.4437   -2.3642    0.9988 H   0  0  0  0  0  0  0  0  0  0  0  0
   -3.5208   -2.3271    3.2951 H   0  0  0  0  0  0  0  0  0  0  0  0
   -1.4815   -1.0068    3.7687 H   0  0  0  0  0  0  0  0  0  0  0  0
   -0.3831    0.2581    1.9663 H   0  0  0  0  0  0  0  0  0  0  0  0
    2.2184   -0.6816   -1.4258 C   0  0  0  0  0  0  0  0  0  0  0  0
    2.2184   -0.6816    0.1286 C   0  0  0  0  0  0  0  0  0  0  0  0
    2.2184    0.8153    0.4766 C   0  0  0  0  0  0  0  0  0  0  0  0
    3.5977    1.3972    0.1286 C   0  0  0  0  0  0  0  0  0  0  0  0
    3.5977    1.3972   -1.4258 C   0  0  0  0  0  0  0  0  0  0  0  0
    2.2184    0.8153   -1.7737 C   0  0  0  0  0  0  0  0  0  0  0  0
    1.3489    1.3923   -0.6486 C   0  0  0  0  0  0  0  0  0  0  0  0
    1.3247   -1.1698   -1.8179 H   0  0  0  0  0  0  0  0  0  0  0  0
    3.0829   -1.1969   -1.8471 H   0  0  0  0  0  0  0  0  0  0  0  0
    1.3247   -1.1698    0.5207 H   0  0  0  0  0  0  0  0  0  0  0  0
    3.0829   -1.1969    0.5500 H   0  0  0  0  0  0  0  0  0  0  0  0
    1.8940    1.0306    1.4938 H   0  0  0  0  0  0  0  0  0  0  0  0
    4.4085    0.8010    0.5500 H   0  0  0  0  0  0  0  0  0  0  0  0
    3.7001    2.4104    0.5207 H   0  0  0  0  0  0  0  0  0  0  0  0
    4.4085    0.8010   -1.8471 H   0  0  0  0  0  0  0  0  0  0  0  0
    3.7001    2.4104   -1.8179 H   0  0  0  0  0  0  0  0  0  0  0  0
    1.8940    1.0306   -2.7909 H   0  0  0  0  0  0  0  0  0  0  0  0
    0.1255    0.9230   -0.6486 H   0  0  0  0  0  0  0  0  0  0  0  0
    1.3129    2.4836   -0.6486 H   0  0  0  0  0  0  0  0  0  0  0  0
  1  2  1  0
  1 10  1  0
  1 11  1  0
  1 12  1  0
  2  3  1  0
  2  4  1  0
  3 13  1  0
  3 14  1  0
  3 15  1  0
  4  5  2  0
  4  9  1  0
  5  6  1  0
  5 16  1  0
  6  7  2  0
  6 17  1  0
  7  8  1  0
  7 18  1  0
  8  9  2  0
  8 19  1  0
  9 20  1  0
 21 22  1  0
 21 26  1  0
 21 28  1  0
 21 29  1  0
 22 23  1  0
 22 30  1  0
 22 31  1  0
 23 24  1  0
 23 27  1  0
 23 32  1  0
 24 25  1  0
 24 33  1  0
 24 34  1  0
 25 26  1  0
 25 35  1  0
 25 36  1  0
 26 27  1  0
 26 37  1  0
 27 38  1  0
 27 39  1  0
M  RAD  1   2   2
M  END
>  <reaction>  (7) 
rxn_549

>  <mol_properties>  (7) 
{"1": {"label": "*1", "atom_type": "Cs"}, "3": {"label": "*0", "atom_type": "Cd"}, "22": {"label": "*4", "atom_type": "Cs"}, "26": {"label": "*3", "atom_type": "Cs"}, "37": {"label": "*2", "atom_type": "H0"}}

>  <type>  (7) 
unop_3

>  <geom_source>  (7) 
Heuristics

$$$$

     RDKit          3D

 39 40  0  0  0  0  0  0  0  0999 V2000
   -1.4482   -1.4498    1.5397 C   0  0  0  0  0  0  0  0  0  0  0  0
   -1.4965   -0.0302    0.9718 C   0  0  0  0  0  3  0  0  0  0  0  0
   -2.6665    0.7585    1.5626 C   0  0  0  0  0  0  0  0  0  0  0  0
   -1.5349   -0.0357   -0.5420 C   0  0  0  0  0  0  0  0  0  0  0  0
   -2.5970   -0.6145   -1.2333 C   0  0  0  0  0  0  0  0  0  0  0  0
   -2.6301   -0.6185   -2.6177 C   0  0  0  0  0  0  0  0  0  0  0  0
   -1.5972   -0.0411   -3.3426 C   0  0  0  0  0  0  0  0  0  0  0  0
   -0.5347    0.5381   -2.6689 C   0  0  0  0  0  0  0  0  0  0  0  0
   -0.5075    0.5387   -1.2814 C   0  0  0  0  0  0  0  0  0  0  0  0
   -0.6009   -2.0062    1.1365 H   0  0  0  0  0  0  0  0  0  0  0  0
   -1.3576   -1.4256    2.6276 H   0  0  0  0  0  0  0  0  0  0  0  0
   -2.3586   -2.0013    1.2935 H   0  0  0  0  0  0  0  0  0  0  0  0
   -3.6206    0.2864    1.3172 H   0  0  0  0  0  0  0  0  0  0  0  0
   -2.5882    0.8049    2.6507 H   0  0  0  0  0  0  0  0  0  0  0  0
   -2.6887    1.7783    1.1757 H   0  0  0  0  0  0  0  0  0  0  0  0
   -3.4123   -1.0700   -0.6829 H   0  0  0  0  0  0  0  0  0  0  0  0
   -3.4658   -1.0741   -3.1344 H   0  0  0  0  0  0  0  0  0  0  0  0
   -1.6222   -0.0437   -4.4249 H   0  0  0  0  0  0  0  0  0  0  0  0
    0.2776    0.9920   -3.2230 H   0  0  0  0  0  0  0  0  0  0  0  0
    0.3285    0.9946   -0.7628 H   0  0  0  0  0  0  0  0  0  0  0  0
    1.8221   -1.1647    0.1946 C   0  0  0  0  0  0  0  0  0  0  0  0
    1.8221   -1.1647    1.7490 C   0  0  0  0  0  0  0  0  0  0  0  0
    1.8221    0.3323    2.0969 C   0  0  0  0  0  0  0  0  0  0  0  0
    3.2013    0.9141    1.7490 C   0  0  0  0  0  0  0  0  0  0  0  0
    3.2013    0.9141    0.1946 C   0  0  0  0  0  0  0  0  0  0  0  0
    1.8221    0.3323   -0.1533 C   0  0  0  0  0  0  0  0  0  0  0  0
    0.9525    0.9092    0.9718 C   0  0  0  0  0  0  0  0  0  0  0  0
    0.9284   -1.6529   -0.1975 H   0  0  0  0  0  0  0  0  0  0  0  0
    2.6866   -1.6800   -0.2267 H   0  0  0  0  0  0  0  0  0  0  0  0
    0.9284   -1.6529    2.1411 H   0  0  0  0  0  0  0  0  0  0  0  0
    2.6866   -1.6800    2.1703 H   0  0  0  0  0  0  0  0  0  0  0  0
    1.4977    0.5475    3.1141 H   0  0  0  0  0  0  0  0  0  0  0  0
    4.0121    0.3179    2.1703 H   0  0  0  0  0  0  0  0  0  0  0  0
    3.3038    1.9273    2.1411 H   0  0  0  0  0  0  0  0  0  0  0  0
    4.0121    0.3179   -0.2267 H   0  0  0  0  0  0  0  0  0  0  0  0
    3.3038    1.9273   -0.1975 H   0  0  0  0  0  0  0  0  0  0  0  0
    1.4977    0.5475   -1.1705 H   0  0  0  0  0  0  0  0  0  0  0  0
   -0.2709    0.4399    0.9718 H   0  0  0  0  0  0  0  0  0  0  0  0
    0.9166    2.0005    0.9718 H   0  0  0  0  0  0  0  0  0  0  0  0
  1  2  1  0
  1 10  1  0
  1 11  1  0
  1 12  1  0
  2  3  1  0
  2  4  1  0
  3 13  1  0
  3 14  1  0
  3 15  1  0
  4  5  2  0
  4  9  1  0
  5  6  1  0
  5 16  1  0
  6  7  2  0
  6 17  1  0
  7  8  1  0
  7 18  1  0
  8  9  2  0
  8 19  1  0
  9 20  1  0
 21 22  1  0
 21 26  1  0
 21 28  1  0
 21 29  1  0
 22 23  1  0
 22 30  1  0
 22 31  1  0
 23 24  1  0
 23 27  1  0
 23 32  1  0
 24 25  1  0
 24 33  1  0
 24 34  1  0
 25 26  1  0
 25 35  1  0
 25 36  1  0
 26 27  1  0
 26 37  1  0
 27 38  1  0
 27 39  1  0
M  RAD  1   2   2
M  END
>  <reaction>  (8) 
rxn_549

>  <mol_properties>  (8) 
{"1": {"label": "*1", "atom_type": "Cs"}, "3": {"label": "*0", "atom_type": "Cd"}, "22": {"label": "*4", "atom_type": "Cs"}, "26": {"label": "*3", "atom_type": "Cs"}, "37": {"label": "*2", "atom_type": "H0"}}

>  <type>  (8) 
unop_4

>  <geom_source>  (8) 
Heuristics

$$$$

     RDKit          3D

 39 40  0  0  0  0  0  0  0  0999 V2000
   -1.8751    0.3824   -1.9964 C   0  0  0  0  0  0  0  0  0  0  0  0
   -1.1277   -0.2722   -0.8332 C   0  0  0  0  0  3  0  0  0  0  0  0
   -1.0425   -1.7882   -1.0185 C   0  0  0  0  0  0  0  0  0  0  0  0
   -1.7426    0.0932    0.5015 C   0  0  0  0  0  0  0  0  0  0  0  0
   -3.0513   -0.2678    0.8144 C   0  0  0  0  0  0  0  0  0  0  0  0
   -3.6117    0.0674    2.0357 C   0  0  0  0  0  0  0  0  0  0  0  0
   -2.8716    0.7737    2.9733 C   0  0  0  0  0  0  0  0  0  0  0  0
   -1.5692    1.1394    2.6761 C   0  0  0  0  0  0  0  0  0  0  0  0
   -1.0135    0.8004    1.4505 C   0  0  0  0  0  0  0  0  0  0  0  0
   -1.9169    1.4660   -1.8771 H   0  0  0  0  0  0  0  0  0  0  0  0
   -1.3814    0.1594   -2.9445 H   0  0  0  0  0  0  0  0  0  0  0  0
   -2.9012    0.0128   -2.0601 H   0  0  0  0  0  0  0  0  0  0  0  0
   -2.0386   -2.2359   -1.0471 H   0  0  0  0  0  0  0  0  0  0  0  0
   -0.5404   -2.0331   -1.9568 H   0  0  0  0  0  0  0  0  0  0  0  0
   -0.4899   -2.2540   -0.2012 H   0  0  0  0  0  0  0  0  0  0  0  0
   -3.6437   -0.8198    0.0937 H   0  0  0  0  0  0  0  0  0  0  0  0
   -4.6310   -0.2236    2.2577 H   0  0  0  0  0  0  0  0  0  0  0  0
   -3.3088    1.0361    3.9282 H   0  0  0  0  0  0  0  0  0  0  0  0
   -0.9811    1.6908    3.3993 H   0  0  0  0  0  0  0  0  0  0  0  0
    0.0069    1.0911    1.2268 H   0  0  0  0  0  0  0  0  0  0  0  0
    2.1908   -1.4067   -1.6104 C   0  0  0  0  0  0  0  0  0  0  0  0
    2.1908   -1.4067   -0.0560 C   0  0  0  0  0  0  0  0  0  0  0  0
    2.1908    0.0903    0.2919 C   0  0  0  0  0  0  0  0  0  0  0  0
    3.5701    0.6721   -0.0560 C   0  0  0  0  0  0  0  0  0  0  0  0
    3.5701    0.6721   -1.6104 C   0  0  0  0  0  0  0  0  0  0  0  0
    2.1908    0.0903   -1.9583 C   0  0  0  0  0  0  0  0  0  0  0  0
    1.3213    0.6672   -0.8332 C   0  0  0  0  0  0  0  0  0  0  0  0
    1.2971   -1.8949   -2.0025 H   0  0  0  0  0  0  0  0  0  0  0  0
    3.0553   -1.9220   -2.0317 H   0  0  0  0  0  0  0  0  0  0  0  0
    1.2971   -1.8949    0.3361 H   0  0  0  0  0  0  0  0  0  0  0  0
    3.0553   -1.9220    0.3653 H   0  0  0  0  0  0  0  0  0  0  0  0
    1.8664    0.3055    1.3091 H   0  0  0  0  0  0  0  0  0  0  0  0
    4.3809    0.0759    0.3653 H   0  0  0  0  0  0  0  0  0  0  0  0
    3.6725    1.6854    0.3361 H   0  0  0  0  0  0  0  0  0  0  0  0
    4.3809    0.0759   -2.0317 H   0  0  0  0  0  0  0  0  0  0  0  0
    3.6725    1.6854   -2.0025 H   0  0  0  0  0  0  0  0  0  0  0  0
    1.8664    0.3055   -2.9755 H   0  0  0  0  0  0  0  0  0  0  0  0
    0.0979    0.1979   -0.8332 H   0  0  0  0  0  0  0  0  0  0  0  0
    1.2853    1.7586   -0.8332 H   0  0  0  0  0  0  0  0  0  0  0  0
  1  2  1  0
  1 10  1  0
  1 11  1  0
  1 12  1  0
  2  3  1  0
  2  4  1  0
  3 13  1  0
  3 14  1  0
  3 15  1  0
  4  5  2  0
  4  9  1  0
  5  6  1  0
  5 16  1  0
  6  7  2  0
  6 17  1  0
  7  8  1  0
  7 18  1  0
  8  9  2  0
  8 19  1  0
  9 20  1  0
 21 22  1  0
 21 26  1  0
 21 28  1  0
 21 29  1  0
 22 23  1  0
 22 30  1  0
 22 31  1  0
 23 24  1  0
 23 27  1  0
 23 32  1  0
 24 25  1  0
 24 33  1  0
 24 34  1  0
 25 26  1  0
 25 35  1  0
 25 36  1  0
 26 27  1  0
 26 37  1  0
 27 38  1  0
 27 39  1  0
M  RAD  1   2   2
M  END
>  <reaction>  (9) 
rxn_549

>  <mol_properties>  (9) 
{"1": {"label": "*1", "atom_type": "Cs"}, "3": {"label": "*0", "atom_type": "Cd"}, "22": {"label": "*4", "atom_type": "Cs"}, "26": {"label": "*3", "atom_type": "Cs"}, "37": {"label": "*2", "atom_type": "H0"}}

>  <type>  (9) 
unop_5

>  <geom_source>  (9) 
Heuristics

$$$$

     RDKit          3D

 39 40  0  0  0  0  0  0  0  0999 V2000
   -1.4493   -2.0178    0.7014 C   0  0  0  0  0  0  0  0  0  0  0  0
   -1.5348   -0.5010    0.8810 C   0  0  0  0  0  3  0  0  0  0  0  0
   -2.7574   -0.1145    1.7151 C   0  0  0  0  0  0  0  0  0  0  0  0
   -1.5166    0.2204   -0.4503 C   0  0  0  0  0  0  0  0  0  0  0  0
   -2.5277    0.0254   -1.3888 C   0  0  0  0  0  0  0  0  0  0  0  0
   -2.5092    0.6862   -2.6057 C   0  0  0  0  0  0  0  0  0  0  0  0
   -1.4747    1.5595   -2.9104 C   0  0  0  0  0  0  0  0  0  0  0  0
   -0.4627    1.7633   -1.9871 C   0  0  0  0  0  0  0  0  0  0  0  0
   -0.4871    1.0980   -0.7695 C   0  0  0  0  0  0  0  0  0  0  0  0
   -0.5653   -2.2966    0.1260 H   0  0  0  0  0  0  0  0  0  0  0  0
   -1.4002   -2.5174    1.6712 H   0  0  0  0  0  0  0  0  0  0  0  0
   -2.3263   -2.3998    0.1740 H   0  0  0  0  0  0  0  0  0  0  0  0
   -3.6815   -0.4281    1.2241 H   0  0  0  0  0  0  0  0  0  0  0  0
   -2.7215   -0.5949    2.6951 H   0  0  0  0  0  0  0  0  0  0  0  0
   -2.8071    0.9652    1.8633 H   0  0  0  0  0  0  0  0  0  0  0  0
   -3.3434   -0.6533   -1.1672 H   0  0  0  0  0  0  0  0  0  0  0  0
   -3.3057    0.5194   -3.3204 H   0  0  0  0  0  0  0  0  0  0  0  0
   -1.4594    2.0766   -3.8614 H   0  0  0  0  0  0  0  0  0  0  0  0
    0.3503    2.4423   -2.2129 H   0  0  0  0  0  0  0  0  0  0  0  0
    0.3097    1.2640   -0.0530 H   0  0  0  0  0  0  0  0  0  0  0  0
    1.7838   -1.6355    0.1038 C   0  0  0  0  0  0  0  0  0  0  0  0
    1.7838   -1.6355    1.6582 C   0  0  0  0  0  0  0  0  0  0  0  0
    1.7838   -0.1386    2.0061 C   0  0  0  0  0  0  0  0  0  0  0  0
    3.1631    0.4433    1.6582 C   0  0  0  0  0  0  0  0  0  0  0  0
    3.1631    0.4433    0.1038 C   0  0  0  0  0  0  0  0  0  0  0  0
    1.7838   -0.1386   -0.2442 C   0  0  0  0  0  0  0  0  0  0  0  0
    0.9142    0.4384    0.8810 C   0  0  0  0  0  0  0  0  0  0  0  0
    0.8901   -2.1237   -0.2884 H   0  0  0  0  0  0  0  0  0  0  0  0
    2.6483   -2.1508   -0.3176 H   0  0  0  0  0  0  0  0  0  0  0  0
    0.8901   -2.1237    2.0503 H   0  0  0  0  0  0  0  0  0  0  0  0
    2.6483   -2.1508    2.0795 H   0  0  0  0  0  0  0  0  0  0  0  0
    1.4594    0.0767    3.0233 H   0  0  0  0  0  0  0  0  0  0  0  0
    3.9739   -0.1529    2.0795 H   0  0  0  0  0  0  0  0  0  0  0  0
    3.2655    1.4565    2.0503 H   0  0  0  0  0  0  0  0  0  0  0  0
    3.9739   -0.1529   -0.3176 H   0  0  0  0  0  0  0  0  0  0  0  0
    3.2655    1.4565   -0.2884 H   0  0  0  0  0  0  0  0  0  0  0  0
    1.4594    0.0767   -1.2614 H   0  0  0  0  0  0  0  0  0  0  0  0
   -0.3091   -0.0309    0.8810 H   0  0  0  0  0  0  0  0  0  0  0  0
    0.8783    1.5297    0.8810 H   0  0  0  0  0  0  0  0  0  0  0  0
  1  2  1  0
  1 10  1  0
  1 11  1  0
  1 12  1  0
  2  3  1  0
  2  4  1  0
  3 13  1  0
  3 14  1  0
  3 15  1  0
  4  5  2  0
  4  9  1  0
  5  6  1  0
  5 16  1  0
  6  7  2  0
  6 17  1  0
  7  8  1  0
  7 18  1  0
  8  9  2  0
  8 19  1  0
  9 20  1  0
 21 22  1  0
 21 26  1  0
 21 28  1  0
 21 29  1  0
 22 23  1  0
 22 30  1  0
 22 31  1  0
 23 24  1  0
 23 27  1  0
 23 32  1  0
 24 25  1  0
 24 33  1  0
 24 34  1  0
 25 26  1  0
 25 35  1  0
 25 36  1  0
 26 27  1  0
 26 37  1  0
 27 38  1  0
 27 39  1  0
M  RAD  1   2   2
M  END
>  <reaction>  (10) 
rxn_549

>  <mol_properties>  (10) 
{"1": {"label": "*1", "atom_type": "Cs"}, "3": {"label": "*0", "atom_type": "Cd"}, "22": {"label": "*4", "atom_type": "Cs"}, "26": {"label": "*3", "atom_type": "Cs"}, "37": {"label": "*2", "atom_type": "H0"}}

>  <type>  (10) 
unop_6

>  <geom_source>  (10) 
Heuristics

$$$$

     RDKit          3D

 39 40  0  0  0  0  0  0  0  0999 V2000
   -1.6654   -1.7345   -1.2369 C   0  0  0  0  0  0  0  0  0  0  0  0
   -1.4362   -1.0383    0.1057 C   0  0  0  0  0  3  0  0  0  0  0  0
   -2.3745   -1.5925    1.1793 C   0  0  0  0  0  0  0  0  0  0  0  0
   -1.5563    0.4661   -0.0180 C   0  0  0  0  0  0  0  0  0  0  0  0
   -2.7540    1.0635   -0.4046 C   0  0  0  0  0  0  0  0  0  0  0  0
   -2.8618    2.4396   -0.5171 C   0  0  0  0  0  0  0  0  0  0  0  0
   -1.7690    3.2501   -0.2441 C   0  0  0  0  0  0  0  0  0  0  0  0
   -0.5717    2.6703    0.1413 C   0  0  0  0  0  0  0  0  0  0  0  0
   -0.4704    1.2907    0.2522 C   0  0  0  0  0  0  0  0  0  0  0  0
   -0.9813   -1.3564   -1.9980 H   0  0  0  0  0  0  0  0  0  0  0  0
   -1.5133   -2.8117   -1.1422 H   0  0  0  0  0  0  0  0  0  0  0  0
   -2.6853   -1.5722   -1.5931 H   0  0  0  0  0  0  0  0  0  0  0  0
   -3.4199   -1.4251    0.9100 H   0  0  0  0  0  0  0  0  0  0  0  0
   -2.2295   -2.6682    1.2983 H   0  0  0  0  0  0  0  0  0  0  0  0
   -2.1965   -1.1129    2.1429 H   0  0  0  0  0  0  0  0  0  0  0  0
   -3.6177    0.4453   -0.6217 H   0  0  0  0  0  0  0  0  0  0  0  0
   -3.8028    2.8824   -0.8193 H   0  0  0  0  0  0  0  0  0  0  0  0
   -1.8522    4.3260   -0.3318 H   0  0  0  0  0  0  0  0  0  0  0  0
    0.2884    3.2919    0.3572 H   0  0  0  0  0  0  0  0  0  0  0  0
    0.4711    0.8459    0.5546 H   0  0  0  0  0  0  0  0  0  0  0  0
    1.8824   -2.1728   -0.6715 C   0  0  0  0  0  0  0  0  0  0  0  0
    1.8824   -2.1728    0.8829 C   0  0  0  0  0  0  0  0  0  0  0  0
    1.8824   -0.6758    1.2309 C   0  0  0  0  0  0  0  0  0  0  0  0
    3.2616   -0.0940    0.8829 C   0  0  0  0  0  0  0  0  0  0  0  0
    3.2616   -0.0940   -0.6715 C   0  0  0  0  0  0  0  0  0  0  0  0
    1.8824   -0.6758   -1.0194 C   0  0  0  0  0  0  0  0  0  0  0  0
    1.0128   -0.0989    0.1057 C   0  0  0  0  0  0  0  0  0  0  0  0
    0.9887   -2.6610   -1.0636 H   0  0  0  0  0  0  0  0  0  0  0  0
    2.7469   -2.6881   -1.0928 H   0  0  0  0  0  0  0  0  0  0  0  0
    0.9887   -2.6610    1.2750 H   0  0  0  0  0  0  0  0  0  0  0  0
    2.7469   -2.6881    1.3043 H   0  0  0  0  0  0  0  0  0  0  0  0
    1.5580   -0.4606    2.2481 H   0  0  0  0  0  0  0  0  0  0  0  0
    4.0724   -0.6902    1.3043 H   0  0  0  0  0  0  0  0  0  0  0  0
    3.3641    0.9192    1.2750 H   0  0  0  0  0  0  0  0  0  0  0  0
    4.0724   -0.6902   -1.0928 H   0  0  0  0  0  0  0  0  0  0  0  0
    3.3641    0.9192   -1.0636 H   0  0  0  0  0  0  0  0  0  0  0  0
    1.5580   -0.4606   -2.0366 H   0  0  0  0  0  0  0  0  0  0  0  0
   -0.2106   -0.5682    0.1057 H   0  0  0  0  0  0  0  0  0  0  0  0
    0.9769    0.9924    0.1057 H   0  0  0  0  0  0  0  0  0  0  0  0
  1  2  1  0
  1 10  1  0
  1 11  1  0
  1 12  1  0
  2  3  1  0
  2  4  1  0
  3 13  1  0
  3 14  1  0
  3 15  1  0
  4  5  2  0
  4  9  1  0
  5  6  1  0
  5 16  1  0
  6  7  2  0
  6 17  1  0
  7  8  1  0
  7 18  1  0
  8  9  2  0
  8 19  1  0
  9 20  1  0
 21 22  1  0
 21 26  1  0
 21 28  1  0
 21 29  1  0
 22 23  1  0
 22 30  1  0
 22 31  1  0
 23 24  1  0
 23 27  1  0
 23 32  1  0
 24 25  1  0
 24 33  1  0
 24 34  1  0
 25 26  1  0
 25 35  1  0
 25 36  1  0
 26 27  1  0
 26 37  1  0
 27 38  1  0
 27 39  1  0
M  RAD  1   2   2
M  END
>  <reaction>  (11) 
rxn_549

>  <mol_properties>  (11) 
{"1": {"label": "*1", "atom_type": "Cs"}, "3": {"label": "*0", "atom_type": "Cd"}, "22": {"label": "*4", "atom_type": "Cs"}, "26": {"label": "*3", "atom_type": "Cs"}, "37": {"label": "*2", "atom_type": "H0"}}

>  <type>  (11) 
unop_7

>  <geom_source>  (11) 
Heuristics

$$$$

     RDKit          3D

 39 40  0  0  0  0  0  0  0  0999 V2000
   -1.9921    1.6977    0.9812 C   0  0  0  0  0  0  0  0  0  0  0  0
   -1.1429    0.7777    0.1024 C   0  0  0  0  0  3  0  0  0  0  0  0
   -0.9204    1.3911   -1.2811 C   0  0  0  0  0  0  0  0  0  0  0  0
   -1.7397   -0.6109    0.0079 C   0  0  0  0  0  0  0  0  0  0  0  0
   -2.9954   -0.8179   -0.5589 C   0  0  0  0  0  0  0  0  0  0  0  0
   -3.5394   -2.0886   -0.6444 C   0  0  0  0  0  0  0  0  0  0  0  0
   -2.8356   -3.1832   -0.1627 C   0  0  0  0  0  0  0  0  0  0  0  0
   -1.5860   -2.9927    0.4035 C   0  0  0  0  0  0  0  0  0  0  0  0
   -1.0466   -1.7168    0.4861 C   0  0  0  0  0  0  0  0  0  0  0  0
   -2.1326    1.2720    1.9759 H   0  0  0  0  0  0  0  0  0  0  0  0
   -1.5151    2.6740    1.0891 H   0  0  0  0  0  0  0  0  0  0  0  0
   -2.9799    1.8563    0.5424 H   0  0  0  0  0  0  0  0  0  0  0  0
   -1.8696    1.5387   -1.8014 H   0  0  0  0  0  0  0  0  0  0  0  0
   -0.4325    2.3643   -1.1961 H   0  0  0  0  0  0  0  0  0  0  0  0
   -0.2958    0.7465   -1.9014 H   0  0  0  0  0  0  0  0  0  0  0  0
   -3.5589    0.0260   -0.9402 H   0  0  0  0  0  0  0  0  0  0  0  0
   -4.5173   -2.2262   -1.0890 H   0  0  0  0  0  0  0  0  0  0  0  0
   -3.2600   -4.1770   -0.2290 H   0  0  0  0  0  0  0  0  0  0  0  0
   -1.0267   -3.8388    0.7831 H   0  0  0  0  0  0  0  0  0  0  0  0
   -0.0676   -1.5775    0.9310 H   0  0  0  0  0  0  0  0  0  0  0  0
    2.1757   -0.3568   -0.6748 C   0  0  0  0  0  0  0  0  0  0  0  0
    2.1757   -0.3568    0.8796 C   0  0  0  0  0  0  0  0  0  0  0  0
    2.1757    1.1402    1.2276 C   0  0  0  0  0  0  0  0  0  0  0  0
    3.5549    1.7220    0.8796 C   0  0  0  0  0  0  0  0  0  0  0  0
    3.5549    1.7220   -0.6748 C   0  0  0  0  0  0  0  0  0  0  0  0
    2.1757    1.1402   -1.0227 C   0  0  0  0  0  0  0  0  0  0  0  0
    1.3061    1.7171    0.1024 C   0  0  0  0  0  0  0  0  0  0  0  0
    1.2819   -0.8450   -1.0669 H   0  0  0  0  0  0  0  0  0  0  0  0
    3.0402   -0.8721   -1.0961 H   0  0  0  0  0  0  0  0  0  0  0  0
    1.2819   -0.8450    1.2717 H   0  0  0  0  0  0  0  0  0  0  0  0
    3.0402   -0.8721    1.3009 H   0  0  0  0  0  0  0  0  0  0  0  0
    1.8512    1.3554    2.2448 H   0  0  0  0  0  0  0  0  0  0  0  0
    4.3657    1.1258    1.3009 H   0  0  0  0  0  0  0  0  0  0  0  0
    3.6574    2.7352    1.2717 H   0  0  0  0  0  0  0  0  0  0  0  0
    4.3657    1.1258   -1.0961 H   0  0  0  0  0  0  0  0  0  0  0  0
    3.6574    2.7352   -1.0669 H   0  0  0  0  0  0  0  0  0  0  0  0
    1.8512    1.3554   -2.0399 H   0  0  0  0  0  0  0  0  0  0  0  0
    0.0827    1.2478    0.1024 H   0  0  0  0  0  0  0  0  0  0  0  0
    1.2702    2.8084    0.1024 H   0  0  0  0  0  0  0  0  0  0  0  0
  1  2  1  0
  1 10  1  0
  1 11  1  0
  1 12  1  0
  2  3  1  0
  2  4  1  0
  3 13  1  0
  3 14  1  0
  3 15  1  0
  4  5  2  0
  4  9  1  0
  5  6  1  0
  5 16  1  0
  6  7  2  0
  6 17  1  0
  7  8  1  0
  7 18  1  0
  8  9  2  0
  8 19  1  0
  9 20  1  0
 21 22  1  0
 21 26  1  0
 21 28  1  0
 21 29  1  0
 22 23  1  0
 22 30  1  0
 22 31  1  0
 23 24  1  0
 23 27  1  0
 23 32  1  0
 24 25  1  0
 24 33  1  0
 24 34  1  0
 25 26  1  0
 25 35  1  0
 25 36  1  0
 26 27  1  0
 26 37  1  0
 27 38  1  0
 27 39  1  0
M  RAD  1   2   2
M  END
>  <reaction>  (12) 
rxn_549

>  <mol_properties>  (12) 
{"1": {"label": "*1", "atom_type": "Cs"}, "3": {"label": "*0", "atom_type": "Cd"}, "22": {"label": "*4", "atom_type": "Cs"}, "26": {"label": "*3", "atom_type": "Cs"}, "37": {"label": "*2", "atom_type": "H0"}}

>  <type>  (12) 
unop_8

>  <geom_source>  (12) 
Heuristics

$$$$

     RDKit          3D

 39 40  0  0  0  0  0  0  0  0999 V2000
   -1.8006    1.0844    1.6966 C   0  0  0  0  0  0  0  0  0  0  0  0
   -1.1646    0.7201    0.3540 C   0  0  0  0  0  3  0  0  0  0  0  0
   -1.3189    1.8600   -0.6544 C   0  0  0  0  0  0  0  0  0  0  0  0
   -1.7133   -0.5829   -0.1883 C   0  0  0  0  0  0  0  0  0  0  0  0
   -3.0623   -0.7180   -0.5093 C   0  0  0  0  0  0  0  0  0  0  0  0
   -3.5621   -1.9105   -1.0051 C   0  0  0  0  0  0  0  0  0  0  0  0
   -2.7194   -2.9973   -1.1910 C   0  0  0  0  0  0  0  0  0  0  0  0
   -1.3760   -2.8777   -0.8763 C   0  0  0  0  0  0  0  0  0  0  0  0
   -0.8814   -1.6799   -0.3798 C   0  0  0  0  0  0  0  0  0  0  0  0
   -1.6713    0.2815    2.4239 H   0  0  0  0  0  0  0  0  0  0  0  0
   -1.3488    1.9920    2.1023 H   0  0  0  0  0  0  0  0  0  0  0  0
   -2.8720    1.2665    1.5859 H   0  0  0  0  0  0  0  0  0  0  0  0
   -2.3730    2.0701   -0.8497 H   0  0  0  0  0  0  0  0  0  0  0  0
   -0.8622    2.7755   -0.2725 H   0  0  0  0  0  0  0  0  0  0  0  0
   -0.8458    1.6108   -1.6053 H   0  0  0  0  0  0  0  0  0  0  0  0
   -3.7346    0.1209   -0.3703 H   0  0  0  0  0  0  0  0  0  0  0  0
   -4.6143   -1.9931   -1.2480 H   0  0  0  0  0  0  0  0  0  0  0  0
   -3.1092   -3.9300   -1.5786 H   0  0  0  0  0  0  0  0  0  0  0  0
   -0.7080   -3.7185   -1.0168 H   0  0  0  0  0  0  0  0  0  0  0  0
    0.1718   -1.5957   -0.1362 H   0  0  0  0  0  0  0  0  0  0  0  0
    2.1540   -0.4143   -0.4232 C   0  0  0  0  0  0  0  0  0  0  0  0
    2.1540   -0.4143    1.1312 C   0  0  0  0  0  0  0  0  0  0  0  0
    2.1540    1.0826    1.4791 C   0  0  0  0  0  0  0  0  0  0  0  0
    3.5333    1.6645    1.1312 C   0  0  0  0  0  0  0  0  0  0  0  0
    3.5333    1.6645   -0.4232 C   0  0  0  0  0  0  0  0  0  0  0  0
    2.1540    1.0826   -0.7711 C   0  0  0  0  0  0  0  0  0  0  0  0
    1.2845    1.6596    0.3540 C   0  0  0  0  0  0  0  0  0  0  0  0
    1.2603   -0.9025   -0.8153 H   0  0  0  0  0  0  0  0  0  0  0  0
    3.0185   -0.9296   -0.8445 H   0  0  0  0  0  0  0  0  0  0  0  0
    1.2603   -0.9025    1.5233 H   0  0  0  0  0  0  0  0  0  0  0  0
    3.0185   -0.9296    1.5525 H   0  0  0  0  0  0  0  0  0  0  0  0
    1.8296    1.2979    2.4963 H   0  0  0  0  0  0  0  0  0  0  0  0
    4.3441    1.0683    1.5525 H   0  0  0  0  0  0  0  0  0  0  0  0
    3.6357    2.6777    1.5233 H   0  0  0  0  0  0  0  0  0  0  0  0
    4.3441    1.0683   -0.8445 H   0  0  0  0  0  0  0  0  0  0  0  0
    3.6357    2.6777   -0.8153 H   0  0  0  0  0  0  0  0  0  0  0  0
    1.8296    1.2979   -1.7883 H   0  0  0  0  0  0  0  0  0  0  0  0
    0.0611    1.1903    0.3540 H   0  0  0  0  0  0  0  0  0  0  0  0
    1.2485    2.7509    0.3540 H   0  0  0  0  0  0  0  0  0  0  0  0
  1  2  1  0
  1 10  1  0
  1 11  1  0
  1 12  1  0
  2  3  1  0
  2  4  1  0
  3 13  1  0
  3 14  1  0
  3 15  1  0
  4  5  2  0
  4  9  1  0
  5  6  1  0
  5 16  1  0
  6  7  2  0
  6 17  1  0
  7  8  1  0
  7 18  1  0
  8  9  2  0
  8 19  1  0
  9 20  1  0
 21 22  1  0
 21 26  1  0
 21 28  1  0
 21 29  1  0
 22 23  1  0
 22 30  1  0
 22 31  1  0
 23 24  1  0
 23 27  1  0
 23 32  1  0
 24 25  1  0
 24 33  1  0
 24 34  1  0
 25 26  1  0
 25 35  1  0
 25 36  1  0
 26 27  1  0
 26 37  1  0
 27 38  1  0
 27 39  1  0
M  RAD  1   2   2
M  END
>  <reaction>  (13) 
rxn_549

>  <mol_properties>  (13) 
{"1": {"label": "*1", "atom_type": "Cs"}, "3": {"label": "*0", "atom_type": "Cd"}, "22": {"label": "*4", "atom_type": "Cs"}, "26": {"label": "*3", "atom_type": "Cs"}, "37": {"label": "*2", "atom_type": "H0"}}

>  <type>  (13) 
unop_9

>  <geom_source>  (13) 
Heuristics

$$$$

     RDKit          3D

 39 40  0  0  0  0  0  0  0  0999 V2000
   -1.7987   -0.8978   -1.8881 C   0  0  0  0  0  0  0  0  0  0  0  0
   -1.3018   -0.8995   -0.4414 C   0  0  0  0  0  3  0  0  0  0  0  0
   -1.8453   -2.1067    0.3249 C   0  0  0  0  0  0  0  0  0  0  0  0
   -1.6278    0.4012    0.2622 C   0  0  0  0  0  0  0  0  0  0  0  0
   -2.9473    0.8046    0.4547 C   0  0  0  0  0  0  0  0  0  0  0  0
   -3.2434    1.9945    1.0985 C   0  0  0  0  0  0  0  0  0  0  0  0
   -2.2213    2.8090    1.5649 C   0  0  0  0  0  0  0  0  0  0  0  0
   -0.9046    2.4209    1.3806 C   0  0  0  0  0  0  0  0  0  0  0  0
   -0.6148    1.2273    0.7348 C   0  0  0  0  0  0  0  0  0  0  0  0
   -1.3935   -0.0499   -2.4423 H   0  0  0  0  0  0  0  0  0  0  0  0
   -1.5004   -1.8162   -2.3980 H   0  0  0  0  0  0  0  0  0  0  0  0
   -2.8886   -0.8338   -1.9278 H   0  0  0  0  0  0  0  0  0  0  0  0
   -2.9368   -2.0861    0.3648 H   0  0  0  0  0  0  0  0  0  0  0  0
   -1.5475   -3.0372   -0.1626 H   0  0  0  0  0  0  0  0  0  0  0  0
   -1.4734   -2.1216    1.3504 H   0  0  0  0  0  0  0  0  0  0  0  0
   -3.7581    0.1804    0.0967 H   0  0  0  0  0  0  0  0  0  0  0  0
   -4.2765    2.2883    1.2372 H   0  0  0  0  0  0  0  0  0  0  0  0
   -2.4517    3.7394    2.0683 H   0  0  0  0  0  0  0  0  0  0  0  0
   -0.0979    3.0478    1.7400 H   0  0  0  0  0  0  0  0  0  0  0  0
    0.4191    0.9318    0.5951 H   0  0  0  0  0  0  0  0  0  0  0  0
    2.0168   -2.0339   -1.2186 C   0  0  0  0  0  0  0  0  0  0  0  0
    2.0168   -2.0339    0.3358 C   0  0  0  0  0  0  0  0  0  0  0  0
    2.0168   -0.5370    0.6837 C   0  0  0  0  0  0  0  0  0  0  0  0
    3.3960    0.0449    0.3358 C   0  0  0  0  0  0  0  0  0  0  0  0
    3.3960    0.0449   -1.2186 C   0  0  0  0  0  0  0  0  0  0  0  0
    2.0168   -0.5370   -1.5666 C   0  0  0  0  0  0  0  0  0  0  0  0
    1.1472    0.0400   -0.4414 C   0  0  0  0  0  0  0  0  0  0  0  0
    1.1231   -2.5222   -1.6107 H   0  0  0  0  0  0  0  0  0  0  0  0
    2.8813   -2.5492   -1.6400 H   0  0  0  0  0  0  0  0  0  0  0  0
    1.1231   -2.5222    0.7279 H   0  0  0  0  0  0  0  0  0  0  0  0
    2.8813   -2.5492    0.7571 H   0  0  0  0  0  0  0  0  0  0  0  0
    1.6924   -0.3217    1.7009 H   0  0  0  0  0  0  0  0  0  0  0  0
    4.2069   -0.5513    0.7571 H   0  0  0  0  0  0  0  0  0  0  0  0
    3.4985    1.0581    0.7279 H   0  0  0  0  0  0  0  0  0  0  0  0
    4.2069   -0.5513   -1.6400 H   0  0  0  0  0  0  0  0  0  0  0  0
    3.4985    1.0581   -1.6107 H   0  0  0  0  0  0  0  0  0  0  0  0
    1.6924   -0.3217   -2.5838 H   0  0  0  0  0  0  0  0  0  0  0  0
   -0.0762   -0.4293   -0.4414 H   0  0  0  0  0  0  0  0  0  0  0  0
    1.1113    1.1313   -0.4414 H   0  0  0  0  0  0  0  0  0  0  0  0
  1  2  1  0
  1 10  1  0
  1 11  1  0
  1 12  1  0
  2  3  1  0
  2  4  1  0
  3 13  1  0
  3 14  1  0
  3 15  1  0
  4  5  2  0
  4  9  1  0
  5  6  1  0
  5 16  1  0
  6  7  2  0
  6 17  1  0
  7  8  1  0
  7 18  1  0
  8  9  2  0
  8 19  1  0
  9 20  1  0
 21 22  1  0
 21 26  1  0
 21 28  1  0
 21 29  1  0
 22 23  1  0
 22 30  1  0
 22 31  1  0
 23 24  1  0
 23 27  1  0
 23 32  1  0
 24 25  1  0
 24 33  1  0
 24 34  1  0
 25 26  1  0
 25 35  1  0
 25 36  1  0
 26 27  1  0
 26 37  1  0
 27 38  1  0
 27 39  1  0
M  RAD  1   2   2
M  END
>  <reaction>  (14) 
rxn_549

>  <mol_properties>  (14) 
{"1": {"label": "*1", "atom_type": "Cs"}, "3": {"label": "*0", "atom_type": "Cd"}, "22": {"label": "*4", "atom_type": "Cs"}, "26": {"label": "*3", "atom_type": "Cs"}, "37": {"label": "*2", "atom_type": "H0"}}

>  <type>  (14) 
unop_10

>  <geom_source>  (14) 
Heuristics

$$$$

     RDKit          3D

 39 40  0  0  0  0  0  0  0  0999 V2000
   -1.4967   -0.6043    1.9964 C   0  0  0  0  0  0  0  0  0  0  0  0
   -1.3788    0.3822    0.8332 C   0  0  0  0  0  3  0  0  0  0  0  0
   -2.3293    1.5663    1.0185 C   0  0  0  0  0  0  0  0  0  0  0  0
   -1.5915   -0.3007   -0.5015 C   0  0  0  0  0  0  0  0  0  0  0  0
   -2.8059   -0.9075   -0.8144 C   0  0  0  0  0  0  0  0  0  0  0  0
   -2.9984   -1.5315   -2.0357 C   0  0  0  0  0  0  0  0  0  0  0  0
   -1.9758   -1.5616   -2.9733 C   0  0  0  0  0  0  0  0  0  0  0  0
   -0.7629   -0.9625   -2.6761 C   0  0  0  0  0  0  0  0  0  0  0  0
   -0.5765   -0.3388   -1.4505 C   0  0  0  0  0  0  0  0  0  0  0  0
   -0.8030   -1.4378    1.8771 H   0  0  0  0  0  0  0  0  0  0  0  0
   -1.2787   -0.1083    2.9445 H   0  0  0  0  0  0  0  0  0  0  0  0
   -2.5067   -1.0157    2.0601 H   0  0  0  0  0  0  0  0  0  0  0  0
   -3.3693    1.2330    1.0471 H   0  0  0  0  0  0  0  0  0  0  0  0
   -2.1198    2.0841    1.9568 H   0  0  0  0  0  0  0  0  0  0  0  0
   -2.2300    2.2821    0.2012 H   0  0  0  0  0  0  0  0  0  0  0  0
   -3.6155   -0.8934   -0.0937 H   0  0  0  0  0  0  0  0  0  0  0  0
   -3.9508   -1.9969   -2.2577 H   0  0  0  0  0  0  0  0  0  0  0  0
   -2.1252   -2.0491   -3.9282 H   0  0  0  0  0  0  0  0  0  0  0  0
    0.0431   -0.9791   -3.3993 H   0  0  0  0  0  0  0  0  0  0  0  0
    0.3765    0.1275   -1.2268 H   0  0  0  0  0  0  0  0  0  0  0  0
    1.9398   -0.7522    0.0560 C   0  0  0  0  0  0  0  0  0  0  0  0
    1.9398   -0.7522    1.6104 C   0  0  0  0  0  0  0  0  0  0  0  0
    1.9398    0.7447    1.9583 C   0  0  0  0  0  0  0  0  0  0  0  0
    3.3190    1.3266    1.6104 C   0  0  0  0  0  0  0  0  0  0  0  0
    3.3190    1.3266    0.0560 C   0  0  0  0  0  0  0  0  0  0  0  0
    1.9398    0.7447   -0.2919 C   0  0  0  0  0  0  0  0  0  0  0  0
    1.0702    1.3217    0.8332 C   0  0  0  0  0  0  0  0  0  0  0  0
    1.0461   -1.2405   -0.3361 H   0  0  0  0  0  0  0  0  0  0  0  0
    2.8043   -1.2676   -0.3653 H   0  0  0  0  0  0  0  0  0  0  0  0
    1.0461   -1.2405    2.0025 H   0  0  0  0  0  0  0  0  0  0  0  0
    2.8043   -1.2676    2.0317 H   0  0  0  0  0  0  0  0  0  0  0  0
    1.6154    0.9600    2.9755 H   0  0  0  0  0  0  0  0  0  0  0  0
    4.1299    0.7303    2.0317 H   0  0  0  0  0  0  0  0  0  0  0  0
    3.4215    2.3398    2.0025 H   0  0  0  0  0  0  0  0  0  0  0  0
    4.1299    0.7303   -0.3653 H   0  0  0  0  0  0  0  0  0  0  0  0
    3.4215    2.3398   -0.3361 H   0  0  0  0  0  0  0  0  0  0  0  0
    1.6154    0.9600   -1.3091 H   0  0  0  0  0  0  0  0  0  0  0  0
   -0.1532    0.8524    0.8332 H   0  0  0  0  0  0  0  0  0  0  0  0
    1.0343    2.4130    0.8332 H   0  0  0  0  0  0  0  0  0  0  0  0
  1  2  1  0
  1 10  1  0
  1 11  1  0
  1 12  1  0
  2  3  1  0
  2  4  1  0
  3 13  1  0
  3 14  1  0
  3 15  1  0
  4  5  2  0
  4  9  1  0
  5  6  1  0
  5 16  1  0
  6  7  2  0
  6 17  1  0
  7  8  1  0
  7 18  1  0
  8  9  2  0
  8 19  1  0
  9 20  1  0
 21 22  1  0
 21 26  1  0
 21 28  1  0
 21 29  1  0
 22 23  1  0
 22 30  1  0
 22 31  1  0
 23 24  1  0
 23 27  1  0
 23 32  1  0
 24 25  1  0
 24 33  1  0
 24 34  1  0
 25 26  1  0
 25 35  1  0
 25 36  1  0
 26 27  1  0
 26 37  1  0
 27 38  1  0
 27 39  1  0
M  RAD  1   2   2
M  END
>  <reaction>  (15) 
rxn_549

>  <mol_properties>  (15) 
{"1": {"label": "*1", "atom_type": "Cs"}, "3": {"label": "*0", "atom_type": "Cd"}, "22": {"label": "*4", "atom_type": "Cs"}, "26": {"label": "*3", "atom_type": "Cs"}, "37": {"label": "*2", "atom_type": "H0"}}

>  <type>  (15) 
unop_11

>  <geom_source>  (15) 
Heuristics

$$$$

     RDKit          3D

 39 40  0  0  0  0  0  0  0  0999 V2000
   -2.5906   -0.5542   -0.5607 C   0  0  0  0  0  0  0  0  0  0  0  0
   -1.6720    0.7298    0.9935 C   0  0  0  0  0  0  0  0  0  0  0  0
    1.0430   -1.2264    0.0220 C   0  0  0  0  0  3  0  0  0  0  0  0
   -3.7757   -0.2485    0.3715 C   0  0  0  0  0  0  0  0  0  0  0  0
   -2.2273    0.7170   -1.3427 C   0  0  0  0  0  0  0  0  0  0  0  0
   -1.5897    1.6083   -0.2639 C   0  0  0  0  0  0  0  0  0  0  0  0
   -3.1388    0.6417    1.4489 C   0  0  0  0  0  0  0  0  0  0  0  0
    1.2081   -2.3142   -1.0442 C   0  0  0  0  0  0  0  0  0  0  0  0
    1.1572   -1.8125    1.4329 C   0  0  0  0  0  0  0  0  0  0  0  0
    2.0364   -0.1008   -0.1856 C   0  0  0  0  0  0  0  0  0  0  0  0
   -1.4345   -0.6362    0.4026 C   0  0  0  0  0  0  0  0  0  0  0  0
    3.4244   -0.3306   -0.1105 C   0  0  0  0  0  0  0  0  0  0  0  0
    1.5755    1.1993   -0.4584 C   0  0  0  0  0  0  0  0  0  0  0  0
    4.3268    0.7195   -0.3047 C   0  0  0  0  0  0  0  0  0  0  0  0
    3.8565    2.0064   -0.5751 C   0  0  0  0  0  0  0  0  0  0  0  0
    2.4826    2.2459   -0.6518 C   0  0  0  0  0  0  0  0  0  0  0  0
   -0.2168   -0.7464   -0.1012 H   0  0  0  0  0  0  0  0  0  0  0  0
   -2.7293   -1.4549   -1.1958 H   0  0  0  0  0  0  0  0  0  0  0  0
   -0.9606    1.0173    1.7966 H   0  0  0  0  0  0  0  0  0  0  0  0
   -4.6018    0.2727   -0.1599 H   0  0  0  0  0  0  0  0  0  0  0  0
   -4.1638   -1.1888    0.8214 H   0  0  0  0  0  0  0  0  0  0  0  0
   -3.1207    1.1963   -1.7996 H   0  0  0  0  0  0  0  0  0  0  0  0
   -1.4888    0.4809   -2.1405 H   0  0  0  0  0  0  0  0  0  0  0  0
   -2.1404    2.5665   -0.1411 H   0  0  0  0  0  0  0  0  0  0  0  0
   -0.5275    1.8246   -0.5141 H   0  0  0  0  0  0  0  0  0  0  0  0
   -3.2033    0.1538    2.4465 H   0  0  0  0  0  0  0  0  0  0  0  0
   -3.6222    1.6419    1.4974 H   0  0  0  0  0  0  0  0  0  0  0  0
    1.1203   -1.8674   -2.0573 H   0  0  0  0  0  0  0  0  0  0  0  0
    2.1939   -2.8181   -0.9553 H   0  0  0  0  0  0  0  0  0  0  0  0
    0.4085   -3.0765   -0.9315 H   0  0  0  0  0  0  0  0  0  0  0  0
    2.1417   -2.3033    1.5860 H   0  0  0  0  0  0  0  0  0  0  0  0
    0.3566   -2.5650    1.5941 H   0  0  0  0  0  0  0  0  0  0  0  0
    1.0329   -1.0075    2.1881 H   0  0  0  0  0  0  0  0  0  0  0  0
   -1.5531   -1.4551    1.1494 H   0  0  0  0  0  0  0  0  0  0  0  0
    3.8098   -1.3202    0.0978 H   0  0  0  0  0  0  0  0  0  0  0  0
    5.3917    0.5349   -0.2455 H   0  0  0  0  0  0  0  0  0  0  0  0
    4.5566    2.8181   -0.7251 H   0  0  0  0  0  0  0  0  0  0  0  0
    2.1195    3.2438   -0.8614 H   0  0  0  0  0  0  0  0  0  0  0  0
    0.5152    1.4080   -0.5225 H   0  0  0  0  0  0  0  0  0  0  0  0
  1  4  1  0
  1  5  1  0
  1 11  1  0
  1 18  1  0
  2  7  1  0
  2  6  1  0
  2 11  1  0
  2 19  1  0
  3  8  1  0
  3  9  1  0
  3 10  1  0
  4  7  1  0
  4 20  1  0
  4 21  1  0
  5  6  1  0
  5 22  1  0
  5 23  1  0
  6 24  1  0
  6 25  1  0
  7 26  1  0
  7 27  1  0
  8 28  1  0
  8 29  1  0
  8 30  1  0
  9 31  1  0
  9 32  1  0
  9 33  1  0
 10 12  2  0
 10 13  1  0
 11 17  1  0
 11 34  1  0
 12 14  1  0
 12 35  1  0
 13 16  2  0
 13 39  1  0
 14 15  2  0
 14 36  1  0
 15 16  1  0
 15 37  1  0
 16 38  1  0
M  RAD  1   3   2
M  END
>  <reaction>  (16) 
rxn_549

>  <mol_properties>  (16) 
{"1": {"label": "*1", "atom_type": "Cs"}, "3": {"label": "*0", "atom_type": "Cd"}, "22": {"label": "*4", "atom_type": "Cs"}, "26": {"label": "*3", "atom_type": "Cs"}, "37": {"label": "*2", "atom_type": "H0"}}

>  <type>  (16) 
unop_12

>  <geom_source>  (16) 
AutoTST

$$$$

     RDKit          3D

 39 40  0  0  0  0  0  0  0  0999 V2000
   -1.6113    0.2806    2.0353 C   0  0  0  0  0  0  0  0  0  0  0  0
   -1.2429    0.6142    0.5886 C   0  0  0  0  0  3  0  0  0  0  0  0
   -1.8196    1.9687    0.1731 C   0  0  0  0  0  0  0  0  0  0  0  0
   -1.6632   -0.4868   -0.3624 C   0  0  0  0  0  0  0  0  0  0  0  0
   -3.0047   -0.8277   -0.5214 C   0  0  0  0  0  0  0  0  0  0  0  0
   -3.3870   -1.8349   -1.3917 C   0  0  0  0  0  0  0  0  0  0  0  0
   -2.4314   -2.5248   -2.1240 C   0  0  0  0  0  0  0  0  0  0  0  0
   -1.0939   -2.1968   -1.9763 C   0  0  0  0  0  0  0  0  0  0  0  0
   -0.7175   -1.1865   -1.1026 C   0  0  0  0  0  0  0  0  0  0  0  0
   -1.1815   -0.6746    2.3404 H   0  0  0  0  0  0  0  0  0  0  0  0
   -1.2455    1.0546    2.7132 H   0  0  0  0  0  0  0  0  0  0  0  0
   -2.6948    0.2149    2.1584 H   0  0  0  0  0  0  0  0  0  0  0  0
   -2.9106    1.9637    0.2292 H   0  0  0  0  0  0  0  0  0  0  0  0
   -1.4559    2.7597    0.8322 H   0  0  0  0  0  0  0  0  0  0  0  0
   -1.5385    2.2184   -0.8511 H   0  0  0  0  0  0  0  0  0  0  0  0
   -3.7643   -0.2989    0.0429 H   0  0  0  0  0  0  0  0  0  0  0  0
   -4.4356   -2.0832   -1.4995 H   0  0  0  0  0  0  0  0  0  0  0  0
   -2.7292   -3.3123   -2.8046 H   0  0  0  0  0  0  0  0  0  0  0  0
   -0.3384   -2.7278   -2.5422 H   0  0  0  0  0  0  0  0  0  0  0  0
    0.3321   -0.9368   -0.9936 H   0  0  0  0  0  0  0  0  0  0  0  0
    2.0757   -0.5203   -0.1886 C   0  0  0  0  0  0  0  0  0  0  0  0
    2.0757   -0.5203    1.3658 C   0  0  0  0  0  0  0  0  0  0  0  0
    2.0757    0.9767    1.7137 C   0  0  0  0  0  0  0  0  0  0  0  0
    3.4549    1.5585    1.3658 C   0  0  0  0  0  0  0  0  0  0  0  0
    3.4549    1.5585   -0.1886 C   0  0  0  0  0  0  0  0  0  0  0  0
    2.0757    0.9767   -0.5366 C   0  0  0  0  0  0  0  0  0  0  0  0
    1.2061    1.5536    0.5886 C   0  0  0  0  0  0  0  0  0  0  0  0
    1.1819   -1.0085   -0.5808 H   0  0  0  0  0  0  0  0  0  0  0  0
    2.9401   -1.0356   -0.6100 H   0  0  0  0  0  0  0  0  0  0  0  0
    1.1819   -1.0085    1.7579 H   0  0  0  0  0  0  0  0  0  0  0  0
    2.9401   -1.0356    1.7871 H   0  0  0  0  0  0  0  0  0  0  0  0
    1.7512    1.1919    2.7309 H   0  0  0  0  0  0  0  0  0  0  0  0
    4.2657    0.9623    1.7871 H   0  0  0  0  0  0  0  0  0  0  0  0
    3.5574    2.5717    1.7579 H   0  0  0  0  0  0  0  0  0  0  0  0
    4.2657    0.9623   -0.6100 H   0  0  0  0  0  0  0  0  0  0  0  0
    3.5574    2.5717   -0.5808 H   0  0  0  0  0  0  0  0  0  0  0  0
    1.7512    1.1919   -1.5538 H   0  0  0  0  0  0  0  0  0  0  0  0
   -0.0173    1.0843    0.5886 H   0  0  0  0  0  0  0  0  0  0  0  0
    1.1702    2.6450    0.5886 H   0  0  0  0  0  0  0  0  0  0  0  0
  1  2  1  0
  1 10  1  0
  1 11  1  0
  1 12  1  0
  2  3  1  0
  2  4  1  0
  3 13  1  0
  3 14  1  0
  3 15  1  0
  4  5  2  0
  4  9  1  0
  5  6  1  0
  5 16  1  0
  6  7  2  0
  6 17  1  0
  7  8  1  0
  7 18  1  0
  8  9  2  0
  8 19  1  0
  9 20  1  0
 21 22  1  0
 21 26  1  0
 21 28  1  0
 21 29  1  0
 22 23  1  0
 22 30  1  0
 22 31  1  0
 23 24  1  0
 23 27  1  0
 23 32  1  0
 24 25  1  0
 24 33  1  0
 24 34  1  0
 25 26  1  0
 25 35  1  0
 25 36  1  0
 26 27  1  0
 26 37  1  0
 27 38  1  0
 27 39  1  0
M  RAD  1   2   2
M  END
>  <reaction>  (17) 
rxn_549

>  <mol_properties>  (17) 
{"1": {"label": "*1", "atom_type": "Cs"}, "3": {"label": "*0", "atom_type": "Cd"}, "22": {"label": "*4", "atom_type": "Cs"}, "26": {"label": "*3", "atom_type": "Cs"}, "37": {"label": "*2", "atom_type": "H0"}}

>  <type>  (17) 
unop_13

>  <geom_source>  (17) 
gaussian_log

$$$$
