
     RDKit          3D

  8  7  0  0  0  0  0  0  0  0999 V2000
    0.7610    0.0250    0.0051 C   0  0  0  0  0  0  0  0  0  0  0  0
   -0.7610   -0.0250   -0.0051 C   0  0  0  0  0  0  0  0  0  0  0  0
    1.1904   -0.9237   -0.3217 H   0  0  0  0  0  0  0  0  0  0  0  0
    1.1359    0.8041   -0.6609 H   0  0  0  0  0  0  0  0  0  0  0  0
    1.1435    0.2336    1.0058 H   0  0  0  0  0  0  0  0  0  0  0  0
   -1.1435   -0.2336   -1.0058 H   0  0  0  0  0  0  0  0  0  0  0  0
   -1.1904    0.9237    0.3216 H   0  0  0  0  0  0  0  0  0  0  0  0
   -1.1359   -0.8041    0.6609 H   0  0  0  0  0  0  0  0  0  0  0  0
  1  2  1  0
  1  3  1  0
  1  4  1  0
  1  5  1  0
  2  6  1  0
  2  7  1  0
  2  8  1  0
M  END
>  <reaction>  (1) 
rxn_900

>  <mol_properties>  (1) 
{"1": {"label": "donator", "atom_type": "Cs"}, "5": {"label": "d_hydrogen", "atom_type": "H0"}}

>  <type>  (1) 
r1h

$$$$

     RDKit          3D

  7  6  0  0  0  0  0  0  0  0999 V2000
   -2.0652    0.3855   -0.2963 S   0  0  0  0  0  0  0  0  0  0  0  0
   -0.7169   -0.5853    0.1792 C   0  0  0  0  0  3  0  0  0  0  0  0
    0.5987   -0.2168    0.0254 C   0  0  0  0  0  0  0  0  0  0  0  0
    1.7547    0.1211   -0.1163 C   0  0  0  0  0  0  0  0  0  0  0  0
   -1.3643    1.4227   -0.7731 H   0  0  0  0  0  0  0  0  0  0  0  0
   -0.9781   -1.5363    0.6220 H   0  0  0  0  0  0  0  0  0  0  0  0
    2.7711    0.4089   -0.2366 H   0  0  0  0  0  0  0  0  0  0  0  0
  1  2  1  0
  1  5  1  0
  2  3  1  0
  2  6  1  0
  3  4  3  0
  4  7  1  0
M  RAD  1   2   2
M  END
>  <reaction>  (2) 
rxn_900

>  <mol_properties>  (2) 
{"1": {"label": "acceptor", "atom_type": "Cs"}}

>  <type>  (2) 
r2

$$$$

     RDKit          3D

  8  7  0  0  0  0  0  0  0  0999 V2000
   -0.7014    1.0753    1.5530 S   0  0  0  0  0  0  0  0  0  0  0  0
   -0.3105   -0.4583    0.6462 C   0  0  0  0  0  0  0  0  0  0  0  0
    0.0935   -0.2424   -0.7319 C   0  0  0  0  0  0  0  0  0  0  0  0
    0.4431   -0.0604   -1.8621 C   0  0  0  0  0  0  0  0  0  0  0  0
    0.4994    1.6466    1.3970 H   0  0  0  0  0  0  0  0  0  0  0  0
   -1.2277   -1.0477    0.6819 H   0  0  0  0  0  0  0  0  0  0  0  0
    0.4563   -1.0151    1.1841 H   0  0  0  0  0  0  0  0  0  0  0  0
    0.7474    0.1020   -2.8681 H   0  0  0  0  0  0  0  0  0  0  0  0
  1  2  1  0
  1  5  1  0
  2  3  1  0
  2  6  1  0
  2  7  1  0
  3  4  3  0
  4  8  1  0
M  END
>  <reaction>  (3) 
rxn_900

>  <mol_properties>  (3) 
{"1": {"label": "acceptor", "atom_type": "Cs"}, "7": {"label": "a_hydrogen", "atom_type": "H0"}}

>  <type>  (3) 
r2h

$$$$

     RDKit          3D

 15 13  0  0  0  0  0  0  0  0999 V2000
    0.8677    1.4466   -0.0275 S   0  0  0  0  0  0  0  0  0  0  0  0
   -0.6659    0.5420    0.2086 C   0  0  0  0  0  0  0  0  0  0  0  0
   -1.0579    0.2850    1.5600 C   0  0  0  0  0  0  0  0  0  0  0  0
   -1.3635   -0.0022    2.6849 C   0  0  0  0  0  0  0  0  0  0  0  0
    1.6191    0.6737    0.7676 H   0  0  0  0  0  0  0  0  0  0  0  0
   -1.4381    1.0390   -0.3767 H   0  0  0  0  0  0  0  0  0  0  0  0
   -1.6418   -0.2357    3.6842 H   0  0  0  0  0  0  0  0  0  0  0  0
   -0.1362   -1.3761   -2.5197 C   0  0  0  0  0  0  0  0  0  0  0  0
   -0.3512   -1.7975   -1.0974 C   0  0  0  0  0  3  0  0  0  0  0  0
   -1.0230   -0.8896   -2.9302 H   0  0  0  0  0  0  0  0  0  0  0  0
    0.7009   -0.6800   -2.6009 H   0  0  0  0  0  0  0  0  0  0  0  0
    0.0882   -2.2362   -3.1599 H   0  0  0  0  0  0  0  0  0  0  0  0
   -0.5425   -0.5941   -0.3752 H   0  0  0  0  0  0  0  0  0  0  0  0
    0.5152   -2.2068   -0.5827 H   0  0  0  0  0  0  0  0  0  0  0  0
   -1.2665   -2.3441   -0.8838 H   0  0  0  0  0  0  0  0  0  0  0  0
  1  2  1  0
  1  5  1  0
  2  3  1  0
  2  6  1  0
  2 13  1  0
  3  4  3  0
  4  7  1  0
  8  9  1  0
  8 10  1  0
  8 11  1  0
  8 12  1  0
  9 14  1  0
  9 15  1  0
M  RAD  1   9   2
M  END
>  <reaction>  (4) 
rxn_900

>  <mol_properties>  (4) 
{"0": {"label": "*0", "atom_type": "S2s"}, "1": {"label": "*1", "atom_type": "Cs"}, "7": {"label": "*4", "atom_type": "Cs"}, "8": {"label": "*3", "atom_type": "Cs"}, "12": {"label": "*2", "atom_type": "H0"}}

>  <type>  (4) 
ts

$$$$

     RDKit          3D

 15 13  0  0  0  0  0  0  0  0999 V2000
   -1.2283    0.3383    1.3194 S   0  0  0  0  0  0  0  0  0  0  0  0
    0.2979    0.2196    0.3277 C   0  0  0  0  0  0  0  0  0  0  0  0
    0.8176    1.5025   -0.1117 C   0  0  0  0  0  0  0  0  0  0  0  0
    1.2459    2.5599   -0.4738 C   0  0  0  0  0  0  0  0  0  0  0  0
   -0.7148    1.1113    2.2845 H   0  0  0  0  0  0  0  0  0  0  0  0
    1.0589   -0.3190    0.8917 H   0  0  0  0  0  0  0  0  0  0  0  0
    1.6264    3.4994   -0.7956 H   0  0  0  0  0  0  0  0  0  0  0  0
    0.2979   -2.2209   -2.1449 C   0  0  0  0  0  0  0  0  0  0  0  0
    0.2979   -2.2209   -0.6221 C   0  0  0  0  0  3  0  0  0  0  0  0
   -0.5830   -1.7123   -2.5407 H   0  0  0  0  0  0  0  0  0  0  0  0
    1.1787   -1.7123   -2.5407 H   0  0  0  0  0  0  0  0  0  0  0  0
    0.2979   -3.2380   -2.5407 H   0  0  0  0  0  0  0  0  0  0  0  0
    0.2979   -1.0003   -0.1471 H   0  0  0  0  0  0  0  0  0  0  0  0
    1.1787   -2.7294   -0.2263 H   0  0  0  0  0  0  0  0  0  0  0  0
   -0.5830   -2.7294   -0.2263 H   0  0  0  0  0  0  0  0  0  0  0  0
  1  2  1  0
  1  5  1  0
  2  3  1  0
  2  6  1  0
  2 13  1  0
  3  4  3  0
  4  7  1  0
  8  9  1  0
  8 10  1  0
  8 11  1  0
  8 12  1  0
  9 14  1  0
  9 15  1  0
M  RAD  1   9   2
M  END
>  <reaction>  (5) 
rxn_900

>  <mol_properties>  (5) 
{"0": {"label": "*0", "atom_type": "S2s"}, "1": {"label": "*1", "atom_type": "Cs"}, "7": {"label": "*4", "atom_type": "Cs"}, "8": {"label": "*3", "atom_type": "Cs"}, "12": {"label": "*2", "atom_type": "H0"}}

>  <type>  (5) 
unop_1

>  <geom_source>  (5) 
Heuristics

$$$$

     RDKit          3D

 15 13  0  0  0  0  0  0  0  0999 V2000
   -1.0046    1.1462   -0.5540 S   0  0  0  0  0  0  0  0  0  0  0  0
   -0.1235    0.1544    0.6978 C   0  0  0  0  0  0  0  0  0  0  0  0
    1.0418    0.8139    1.2602 C   0  0  0  0  0  0  0  0  0  0  0  0
    2.0022    1.3574    1.7237 C   0  0  0  0  0  0  0  0  0  0  0  0
   -1.2641    2.1897    0.2437 H   0  0  0  0  0  0  0  0  0  0  0  0
   -0.8137   -0.1275    1.4924 H   0  0  0  0  0  0  0  0  0  0  0  0
    2.8555    1.8404    2.1355 H   0  0  0  0  0  0  0  0  0  0  0  0
   -0.1235   -2.2861   -1.7748 C   0  0  0  0  0  0  0  0  0  0  0  0
   -0.1235   -2.2861   -0.2520 C   0  0  0  0  0  3  0  0  0  0  0  0
   -1.0043   -1.7776   -2.1707 H   0  0  0  0  0  0  0  0  0  0  0  0
    0.7574   -1.7776   -2.1707 H   0  0  0  0  0  0  0  0  0  0  0  0
   -0.1235   -3.3032   -2.1707 H   0  0  0  0  0  0  0  0  0  0  0  0
   -0.1235   -1.0656    0.2230 H   0  0  0  0  0  0  0  0  0  0  0  0
    0.7574   -2.7947    0.1438 H   0  0  0  0  0  0  0  0  0  0  0  0
   -1.0043   -2.7947    0.1438 H   0  0  0  0  0  0  0  0  0  0  0  0
  1  2  1  0
  1  5  1  0
  2  3  1  0
  2  6  1  0
  2 13  1  0
  3  4  3  0
  4  7  1  0
  8  9  1  0
  8 10  1  0
  8 11  1  0
  8 12  1  0
  9 14  1  0
  9 15  1  0
M  RAD  1   9   2
M  END
>  <reaction>  (6) 
rxn_900

>  <mol_properties>  (6) 
{"0": {"label": "*0", "atom_type": "S2s"}, "1": {"label": "*1", "atom_type": "Cs"}, "7": {"label": "*4", "atom_type": "Cs"}, "8": {"label": "*3", "atom_type": "Cs"}, "12": {"label": "*2", "atom_type": "H0"}}

>  <type>  (6) 
unop_2

>  <geom_source>  (6) 
Heuristics

$$$$

     RDKit          3D

 15 13  0  0  0  0  0  0  0  0999 V2000
   -0.5340    0.1844    1.8270 S   0  0  0  0  0  0  0  0  0  0  0  0
    0.3472    0.2997    0.2342 C   0  0  0  0  0  0  0  0  0  0  0  0
    0.1369    1.5537   -0.4673 C   0  0  0  0  0  0  0  0  0  0  0  0
   -0.0364    2.5874   -1.0455 C   0  0  0  0  0  0  0  0  0  0  0  0
    0.0365    1.2586    2.3868 H   0  0  0  0  0  0  0  0  0  0  0  0
    1.4123    0.1340    0.3933 H   0  0  0  0  0  0  0  0  0  0  0  0
   -0.1904    3.5057   -1.5592 H   0  0  0  0  0  0  0  0  0  0  0  0
    0.3472   -2.1408   -2.2384 C   0  0  0  0  0  0  0  0  0  0  0  0
    0.3472   -2.1408   -0.7156 C   0  0  0  0  0  3  0  0  0  0  0  0
   -0.5336   -1.6323   -2.6343 H   0  0  0  0  0  0  0  0  0  0  0  0
    1.2280   -1.6323   -2.6343 H   0  0  0  0  0  0  0  0  0  0  0  0
    0.3472   -3.1579   -2.6343 H   0  0  0  0  0  0  0  0  0  0  0  0
    0.3472   -0.9203   -0.2406 H   0  0  0  0  0  0  0  0  0  0  0  0
    1.2280   -2.6494   -0.3198 H   0  0  0  0  0  0  0  0  0  0  0  0
   -0.5336   -2.6494   -0.3198 H   0  0  0  0  0  0  0  0  0  0  0  0
  1  2  1  0
  1  5  1  0
  2  3  1  0
  2  6  1  0
  2 13  1  0
  3  4  3  0
  4  7  1  0
  8  9  1  0
  8 10  1  0
  8 11  1  0
  8 12  1  0
  9 14  1  0
  9 15  1  0
M  RAD  1   9   2
M  END
>  <reaction>  (7) 
rxn_900

>  <mol_properties>  (7) 
{"0": {"label": "*0", "atom_type": "S2s"}, "1": {"label": "*1", "atom_type": "Cs"}, "7": {"label": "*4", "atom_type": "Cs"}, "8": {"label": "*3", "atom_type": "Cs"}, "12": {"label": "*2", "atom_type": "H0"}}

>  <type>  (7) 
unop_3

>  <geom_source>  (7) 
Heuristics

$$$$

     RDKit          3D

 15 13  0  0  0  0  0  0  0  0999 V2000
    0.9701    1.4662   -0.3992 S   0  0  0  0  0  0  0  0  0  0  0  0
   -0.5561    0.7084    0.2514 C   0  0  0  0  0  0  0  0  0  0  0  0
   -0.3805    0.0226    1.5194 C   0  0  0  0  0  0  0  0  0  0  0  0
   -0.2357   -0.5427    2.5645 C   0  0  0  0  0  0  0  0  0  0  0  0
    1.2001    2.2582    0.6554 H   0  0  0  0  0  0  0  0  0  0  0  0
   -1.3315    1.4686    0.3414 H   0  0  0  0  0  0  0  0  0  0  0  0
   -0.1071   -1.0449    3.4930 H   0  0  0  0  0  0  0  0  0  0  0  0
   -0.5561   -1.7321   -2.2212 C   0  0  0  0  0  0  0  0  0  0  0  0
   -0.5561   -1.7321   -0.6984 C   0  0  0  0  0  3  0  0  0  0  0  0
   -1.4369   -1.2235   -2.6171 H   0  0  0  0  0  0  0  0  0  0  0  0
    0.3247   -1.2236   -2.6171 H   0  0  0  0  0  0  0  0  0  0  0  0
   -0.5561   -2.7492   -2.6171 H   0  0  0  0  0  0  0  0  0  0  0  0
   -0.5561   -0.5116   -0.2234 H   0  0  0  0  0  0  0  0  0  0  0  0
    0.3247   -2.2407   -0.3026 H   0  0  0  0  0  0  0  0  0  0  0  0
   -1.4369   -2.2407   -0.3026 H   0  0  0  0  0  0  0  0  0  0  0  0
  1  2  1  0
  1  5  1  0
  2  3  1  0
  2  6  1  0
  2 13  1  0
  3  4  3  0
  4  7  1  0
  8  9  1  0
  8 10  1  0
  8 11  1  0
  8 12  1  0
  9 14  1  0
  9 15  1  0
M  RAD  1   9   2
M  END
>  <reaction>  (8) 
rxn_900

>  <mol_properties>  (8) 
{"0": {"label": "*0", "atom_type": "S2s"}, "1": {"label": "*1", "atom_type": "Cs"}, "7": {"label": "*4", "atom_type": "Cs"}, "8": {"label": "*3", "atom_type": "Cs"}, "12": {"label": "*2", "atom_type": "H0"}}

>  <type>  (8) 
unop_4

>  <geom_source>  (8) 
Heuristics

$$$$

     RDKit          3D

 15 13  0  0  0  0  0  0  0  0999 V2000
    0.4029    0.3044    1.9143 S   0  0  0  0  0  0  0  0  0  0  0  0
    0.4029    0.5054    0.1014 C   0  0  0  0  0  0  0  0  0  0  0  0
   -0.7386    1.2426   -0.4108 C   0  0  0  0  0  0  0  0  0  0  0  0
   -1.6795    1.8503   -0.8329 C   0  0  0  0  0  0  0  0  0  0  0  0
    0.3852    1.6112    2.2054 H   0  0  0  0  0  0  0  0  0  0  0  0
    1.3296    0.9849   -0.2128 H   0  0  0  0  0  0  0  0  0  0  0  0
   -2.5155    2.3902   -1.2079 H   0  0  0  0  0  0  0  0  0  0  0  0
    0.4029   -1.9351   -2.3712 C   0  0  0  0  0  0  0  0  0  0  0  0
    0.4029   -1.9351   -0.8484 C   0  0  0  0  0  3  0  0  0  0  0  0
   -0.4779   -1.4265   -2.7670 H   0  0  0  0  0  0  0  0  0  0  0  0
    1.2838   -1.4266   -2.7670 H   0  0  0  0  0  0  0  0  0  0  0  0
    0.4029   -2.9522   -2.7670 H   0  0  0  0  0  0  0  0  0  0  0  0
    0.4029   -0.7146   -0.3734 H   0  0  0  0  0  0  0  0  0  0  0  0
    1.2838   -2.4437   -0.4525 H   0  0  0  0  0  0  0  0  0  0  0  0
   -0.4779   -2.4437   -0.4525 H   0  0  0  0  0  0  0  0  0  0  0  0
  1  2  1  0
  1  5  1  0
  2  3  1  0
  2  6  1  0
  2 13  1  0
  3  4  3  0
  4  7  1  0
  8  9  1  0
  8 10  1  0
  8 11  1  0
  8 12  1  0
  9 14  1  0
  9 15  1  0
M  RAD  1   9   2
M  END
>  <reaction>  (9) 
rxn_900

>  <mol_properties>  (9) 
{"0": {"label": "*0", "atom_type": "S2s"}, "1": {"label": "*1", "atom_type": "Cs"}, "7": {"label": "*4", "atom_type": "Cs"}, "8": {"label": "*3", "atom_type": "Cs"}, "12": {"label": "*2", "atom_type": "H0"}}

>  <type>  (9) 
unop_5

>  <geom_source>  (9) 
Heuristics

$$$$

     RDKit          3D

 15 13  0  0  0  0  0  0  0  0999 V2000
    1.3836    1.2842    0.2128 S   0  0  0  0  0  0  0  0  0  0  0  0
   -0.3788    0.8460    0.0423 C   0  0  0  0  0  0  0  0  0  0  0  0
   -0.9033    0.0675    1.1503 C   0  0  0  0  0  0  0  0  0  0  0  0
   -1.3357   -0.5741    2.0636 C   0  0  0  0  0  0  0  0  0  0  0  0
    1.2577    1.9449    1.3705 H   0  0  0  0  0  0  0  0  0  0  0  0
   -0.9691    1.7521   -0.0910 H   0  0  0  0  0  0  0  0  0  0  0  0
   -1.7198   -1.1442    2.8750 H   0  0  0  0  0  0  0  0  0  0  0  0
   -0.3788   -1.5945   -2.4303 C   0  0  0  0  0  0  0  0  0  0  0  0
   -0.3788   -1.5945   -0.9075 C   0  0  0  0  0  3  0  0  0  0  0  0
   -1.2596   -1.0859   -2.8262 H   0  0  0  0  0  0  0  0  0  0  0  0
    0.5021   -1.0859   -2.8262 H   0  0  0  0  0  0  0  0  0  0  0  0
   -0.3788   -2.6116   -2.8262 H   0  0  0  0  0  0  0  0  0  0  0  0
   -0.3788   -0.3740   -0.4325 H   0  0  0  0  0  0  0  0  0  0  0  0
    0.5021   -2.1030   -0.5117 H   0  0  0  0  0  0  0  0  0  0  0  0
   -1.2596   -2.1030   -0.5117 H   0  0  0  0  0  0  0  0  0  0  0  0
  1  2  1  0
  1  5  1  0
  2  3  1  0
  2  6  1  0
  2 13  1  0
  3  4  3  0
  4  7  1  0
  8  9  1  0
  8 10  1  0
  8 11  1  0
  8 12  1  0
  9 14  1  0
  9 15  1  0
M  RAD  1   9   2
M  END
>  <reaction>  (10) 
rxn_900

>  <mol_properties>  (10) 
{"0": {"label": "*0", "atom_type": "S2s"}, "1": {"label": "*1", "atom_type": "Cs"}, "7": {"label": "*4", "atom_type": "Cs"}, "8": {"label": "*3", "atom_type": "Cs"}, "12": {"label": "*2", "atom_type": "H0"}}

>  <type>  (10) 
unop_6

>  <geom_source>  (10) 
Heuristics

$$$$

     RDKit          3D

 15 13  0  0  0  0  0  0  0  0999 V2000
    1.4397    1.0023    0.9147 S   0  0  0  0  0  0  0  0  0  0  0  0
   -0.0866    0.8837   -0.0770 C   0  0  0  0  0  0  0  0  0  0  0  0
   -1.2050    0.2852    0.6302 C   0  0  0  0  0  0  0  0  0  0  0  0
   -2.1268   -0.2080    1.2130 C   0  0  0  0  0  0  0  0  0  0  0  0
    0.9169    1.7462    1.8976 H   0  0  0  0  0  0  0  0  0  0  0  0
   -0.3615    1.8722   -0.4437 H   0  0  0  0  0  0  0  0  0  0  0  0
   -2.9458   -0.6462    1.7308 H   0  0  0  0  0  0  0  0  0  0  0  0
   -0.0866   -1.5568   -2.5496 C   0  0  0  0  0  0  0  0  0  0  0  0
   -0.0866   -1.5568   -1.0268 C   0  0  0  0  0  3  0  0  0  0  0  0
   -0.9674   -1.0483   -2.9454 H   0  0  0  0  0  0  0  0  0  0  0  0
    0.7943   -1.0483   -2.9454 H   0  0  0  0  0  0  0  0  0  0  0  0
   -0.0866   -2.5739   -2.9454 H   0  0  0  0  0  0  0  0  0  0  0  0
   -0.0866   -0.3363   -0.5518 H   0  0  0  0  0  0  0  0  0  0  0  0
    0.7943   -2.0654   -0.6309 H   0  0  0  0  0  0  0  0  0  0  0  0
   -0.9674   -2.0654   -0.6309 H   0  0  0  0  0  0  0  0  0  0  0  0
  1  2  1  0
  1  5  1  0
  2  3  1  0
  2  6  1  0
  2 13  1  0
  3  4  3  0
  4  7  1  0
  8  9  1  0
  8 10  1  0
  8 11  1  0
  8 12  1  0
  9 14  1  0
  9 15  1  0
M  RAD  1   9   2
M  END
>  <reaction>  (11) 
rxn_900

>  <mol_properties>  (11) 
{"0": {"label": "*0", "atom_type": "S2s"}, "1": {"label": "*1", "atom_type": "Cs"}, "7": {"label": "*4", "atom_type": "Cs"}, "8": {"label": "*3", "atom_type": "Cs"}, "12": {"label": "*2", "atom_type": "H0"}}

>  <type>  (11) 
unop_7

>  <geom_source>  (11) 
Heuristics

$$$$

     RDKit          3D

 15 13  0  0  0  0  0  0  0  0999 V2000
   -1.5124    0.6050    0.6268 S   0  0  0  0  0  0  0  0  0  0  0  0
    0.2499    0.1667    0.4562 C   0  0  0  0  0  0  0  0  0  0  0  0
    1.1395    1.3127    0.3915 C   0  0  0  0  0  0  0  0  0  0  0  0
    1.8728    2.2573    0.3381 C   0  0  0  0  0  0  0  0  0  0  0  0
   -1.3809    1.2954    1.7663 H   0  0  0  0  0  0  0  0  0  0  0  0
    0.5439   -0.4894    1.2750 H   0  0  0  0  0  0  0  0  0  0  0  0
    2.5243    3.0965    0.2907 H   0  0  0  0  0  0  0  0  0  0  0  0
    0.2499   -2.2738   -2.0164 C   0  0  0  0  0  0  0  0  0  0  0  0
    0.2499   -2.2738   -0.4936 C   0  0  0  0  0  3  0  0  0  0  0  0
   -0.6309   -1.7652   -2.4122 H   0  0  0  0  0  0  0  0  0  0  0  0
    1.1307   -1.7652   -2.4122 H   0  0  0  0  0  0  0  0  0  0  0  0
    0.2499   -3.2909   -2.4122 H   0  0  0  0  0  0  0  0  0  0  0  0
    0.2499   -1.0532   -0.0185 H   0  0  0  0  0  0  0  0  0  0  0  0
    1.1307   -2.7823   -0.0977 H   0  0  0  0  0  0  0  0  0  0  0  0
   -0.6309   -2.7823   -0.0977 H   0  0  0  0  0  0  0  0  0  0  0  0
  1  2  1  0
  1  5  1  0
  2  3  1  0
  2  6  1  0
  2 13  1  0
  3  4  3  0
  4  7  1  0
  8  9  1  0
  8 10  1  0
  8 11  1  0
  8 12  1  0
  9 14  1  0
  9 15  1  0
M  RAD  1   9   2
M  END
>  <reaction>  (12) 
rxn_900

>  <mol_properties>  (12) 
{"0": {"label": "*0", "atom_type": "S2s"}, "1": {"label": "*1", "atom_type": "Cs"}, "7": {"label": "*4", "atom_type": "Cs"}, "8": {"label": "*3", "atom_type": "Cs"}, "12": {"label": "*2", "atom_type": "H0"}}

>  <type>  (12) 
unop_8

>  <geom_source>  (12) 
Heuristics

$$$$

     RDKit          3D

 15 13  0  0  0  0  0  0  0  0999 V2000
    0.3100    1.4950   -0.7666 S   0  0  0  0  0  0  0  0  0  0  0  0
   -0.5712    0.5032    0.4852 C   0  0  0  0  0  0  0  0  0  0  0  0
    0.2316    0.1744    1.6499 C   0  0  0  0  0  0  0  0  0  0  0  0
    0.8932   -0.0966    2.6098 C   0  0  0  0  0  0  0  0  0  0  0  0
    0.5999    2.5232    0.0405 H   0  0  0  0  0  0  0  0  0  0  0  0
   -1.4784    1.0236    0.7909 H   0  0  0  0  0  0  0  0  0  0  0  0
    1.4811   -0.3374    3.4627 H   0  0  0  0  0  0  0  0  0  0  0  0
   -0.5712   -1.9373   -1.9874 C   0  0  0  0  0  0  0  0  0  0  0  0
   -0.5712   -1.9373   -0.4646 C   0  0  0  0  0  3  0  0  0  0  0  0
   -1.4520   -1.4287   -2.3832 H   0  0  0  0  0  0  0  0  0  0  0  0
    0.3097   -1.4287   -2.3832 H   0  0  0  0  0  0  0  0  0  0  0  0
   -0.5712   -2.9544   -2.3832 H   0  0  0  0  0  0  0  0  0  0  0  0
   -0.5712   -0.7167    0.0104 H   0  0  0  0  0  0  0  0  0  0  0  0
    0.3097   -2.4458   -0.0688 H   0  0  0  0  0  0  0  0  0  0  0  0
   -1.4520   -2.4458   -0.0688 H   0  0  0  0  0  0  0  0  0  0  0  0
  1  2  1  0
  1  5  1  0
  2  3  1  0
  2  6  1  0
  2 13  1  0
  3  4  3  0
  4  7  1  0
  8  9  1  0
  8 10  1  0
  8 11  1  0
  8 12  1  0
  9 14  1  0
  9 15  1  0
M  RAD  1   9   2
M  END
>  <reaction>  (13) 
rxn_900

>  <mol_properties>  (13) 
{"0": {"label": "*0", "atom_type": "S2s"}, "1": {"label": "*1", "atom_type": "Cs"}, "7": {"label": "*4", "atom_type": "Cs"}, "8": {"label": "*3", "atom_type": "Cs"}, "12": {"label": "*2", "atom_type": "H0"}}

>  <type>  (13) 
unop_9

>  <geom_source>  (13) 
Heuristics

$$$$

     RDKit          3D

 15 13  0  0  0  0  0  0  0  0999 V2000
   -1.4073    0.8882   -0.0470 S   0  0  0  0  0  0  0  0  0  0  0  0
    0.1189    0.1303    0.6037 C   0  0  0  0  0  0  0  0  0  0  0  0
    1.1819    1.0822    0.8736 C   0  0  0  0  0  0  0  0  0  0  0  0
    2.0581    1.8668    1.0961 C   0  0  0  0  0  0  0  0  0  0  0  0
   -1.6181    1.7056    0.9923 H   0  0  0  0  0  0  0  0  0  0  0  0
   -0.1111   -0.4389    1.5039 H   0  0  0  0  0  0  0  0  0  0  0  0
    2.8365    2.5639    1.2938 H   0  0  0  0  0  0  0  0  0  0  0  0
    0.1189   -2.3102   -1.8689 C   0  0  0  0  0  0  0  0  0  0  0  0
    0.1189   -2.3102   -0.3461 C   0  0  0  0  0  3  0  0  0  0  0  0
   -0.7619   -1.8016   -2.2648 H   0  0  0  0  0  0  0  0  0  0  0  0
    0.9997   -1.8016   -2.2648 H   0  0  0  0  0  0  0  0  0  0  0  0
    0.1189   -3.3273   -2.2648 H   0  0  0  0  0  0  0  0  0  0  0  0
    0.1189   -1.0896    0.1289 H   0  0  0  0  0  0  0  0  0  0  0  0
    0.9997   -2.8187    0.0497 H   0  0  0  0  0  0  0  0  0  0  0  0
   -0.7619   -2.8187    0.0497 H   0  0  0  0  0  0  0  0  0  0  0  0
  1  2  1  0
  1  5  1  0
  2  3  1  0
  2  6  1  0
  2 13  1  0
  3  4  3  0
  4  7  1  0
  8  9  1  0
  8 10  1  0
  8 11  1  0
  8 12  1  0
  9 14  1  0
  9 15  1  0
M  RAD  1   9   2
M  END
>  <reaction>  (14) 
rxn_900

>  <mol_properties>  (14) 
{"0": {"label": "*0", "atom_type": "S2s"}, "1": {"label": "*1", "atom_type": "Cs"}, "7": {"label": "*4", "atom_type": "Cs"}, "8": {"label": "*3", "atom_type": "Cs"}, "12": {"label": "*2", "atom_type": "H0"}}

>  <type>  (14) 
unop_10

>  <geom_source>  (14) 
Heuristics

$$$$

     RDKit          3D

 15 13  0  0  0  0  0  0  0  0999 V2000
    1.1182    0.6584    1.5382 S   0  0  0  0  0  0  0  0  0  0  0  0
    0.2370    0.7737   -0.0547 C   0  0  0  0  0  0  0  0  0  0  0  0
   -1.2078    0.6848    0.0622 C   0  0  0  0  0  0  0  0  0  0  0  0
   -2.3986    0.6116    0.1586 C   0  0  0  0  0  0  0  0  0  0  0  0
    0.5221    1.7118    2.1106 H   0  0  0  0  0  0  0  0  0  0  0  0
    0.5153    1.6981   -0.5599 H   0  0  0  0  0  0  0  0  0  0  0  0
   -3.4567    0.5465    0.2442 H   0  0  0  0  0  0  0  0  0  0  0  0
    0.2370   -1.6668   -2.5273 C   0  0  0  0  0  0  0  0  0  0  0  0
    0.2370   -1.6668   -1.0045 C   0  0  0  0  0  3  0  0  0  0  0  0
   -0.6438   -1.1583   -2.9231 H   0  0  0  0  0  0  0  0  0  0  0  0
    1.1178   -1.1583   -2.9231 H   0  0  0  0  0  0  0  0  0  0  0  0
    0.2370   -2.6839   -2.9231 H   0  0  0  0  0  0  0  0  0  0  0  0
    0.2370   -0.4463   -0.5295 H   0  0  0  0  0  0  0  0  0  0  0  0
    1.1178   -2.1754   -0.6087 H   0  0  0  0  0  0  0  0  0  0  0  0
   -0.6438   -2.1754   -0.6087 H   0  0  0  0  0  0  0  0  0  0  0  0
  1  2  1  0
  1  5  1  0
  2  3  1  0
  2  6  1  0
  2 13  1  0
  3  4  3  0
  4  7  1  0
  8  9  1  0
  8 10  1  0
  8 11  1  0
  8 12  1  0
  9 14  1  0
  9 15  1  0
M  RAD  1   9   2
M  END
>  <reaction>  (15) 
rxn_900

>  <mol_properties>  (15) 
{"0": {"label": "*0", "atom_type": "S2s"}, "1": {"label": "*1", "atom_type": "Cs"}, "7": {"label": "*4", "atom_type": "Cs"}, "8": {"label": "*3", "atom_type": "Cs"}, "12": {"label": "*2", "atom_type": "H0"}}

>  <type>  (15) 
unop_11

>  <geom_source>  (15) 
Heuristics

$$$$

     RDKit          3D

 15 13  0  0  0  0  0  0  0  0999 V2000
   -0.4029    1.3654   -0.8116 S   0  0  0  0  0  0  0  0  0  0  0  0
   -0.4029    0.2879    0.6602 C   0  0  0  0  0  0  0  0  0  0  0  0
    0.7386    0.4850    1.5360 C   0  0  0  0  0  0  0  0  0  0  0  0
    1.6795    0.6474    2.2578 C   0  0  0  0  0  0  0  0  0  0  0  0
   -0.3852    2.5250   -0.1428 H   0  0  0  0  0  0  0  0  0  0  0  0
   -1.3296    0.4289    1.2158 H   0  0  0  0  0  0  0  0  0  0  0  0
    2.5155    0.7918    2.8992 H   0  0  0  0  0  0  0  0  0  0  0  0
   -0.4029   -2.1526   -1.8124 C   0  0  0  0  0  0  0  0  0  0  0  0
   -0.4029   -2.1526   -0.2897 C   0  0  0  0  0  3  0  0  0  0  0  0
   -1.2838   -1.6440   -2.2083 H   0  0  0  0  0  0  0  0  0  0  0  0
    0.4779   -1.6440   -2.2083 H   0  0  0  0  0  0  0  0  0  0  0  0
   -0.4029   -3.1697   -2.2083 H   0  0  0  0  0  0  0  0  0  0  0  0
   -0.4029   -0.9320    0.1854 H   0  0  0  0  0  0  0  0  0  0  0  0
    0.4779   -2.6611    0.1062 H   0  0  0  0  0  0  0  0  0  0  0  0
   -1.2838   -2.6611    0.1062 H   0  0  0  0  0  0  0  0  0  0  0  0
  1  2  1  0
  1  5  1  0
  2  3  1  0
  2  6  1  0
  2 13  1  0
  3  4  3  0
  4  7  1  0
  8  9  1  0
  8 10  1  0
  8 11  1  0
  8 12  1  0
  9 14  1  0
  9 15  1  0
M  RAD  1   9   2
M  END
>  <reaction>  (16) 
rxn_900

>  <mol_properties>  (16) 
{"0": {"label": "*0", "atom_type": "S2s"}, "1": {"label": "*1", "atom_type": "Cs"}, "7": {"label": "*4", "atom_type": "Cs"}, "8": {"label": "*3", "atom_type": "Cs"}, "12": {"label": "*2", "atom_type": "H0"}}

>  <type>  (16) 
unop_12

>  <geom_source>  (16) 
Heuristics

$$$$

     RDKit          3D

 15 13  0  0  0  0  0  0  0  0999 V2000
    1.5594   -1.9131   -0.7589 S   0  0  0  0  0  0  0  0  0  0  0  0
    1.2395   -0.1259   -0.7167 C   0  0  0  0  0  3  0  0  0  0  0  0
   -2.0568   -0.0079    0.5444 C   0  0  0  0  0  0  0  0  0  0  0  0
   -1.3489    0.1501   -0.7884 C   0  0  0  0  0  0  0  0  0  0  0  0
    2.0676    0.5021    0.3146 C   0  0  0  0  0  0  0  0  0  0  0  0
    2.7485    1.0202    1.1639 C   0  0  0  0  0  0  0  0  0  0  0  0
    1.4875    0.3143   -1.7044 H   0  0  0  0  0  0  0  0  0  0  0  0
   -0.1249    0.1042   -0.4318 H   0  0  0  0  0  0  0  0  0  0  0  0
   -3.1133    0.3214    0.4532 H   0  0  0  0  0  0  0  0  0  0  0  0
   -1.5452    0.6084    1.3127 H   0  0  0  0  0  0  0  0  0  0  0  0
   -2.0296   -1.0727    0.8562 H   0  0  0  0  0  0  0  0  0  0  0  0
   -1.3642    1.2148   -1.1032 H   0  0  0  0  0  0  0  0  0  0  0  0
   -1.8499   -0.4707   -1.5609 H   0  0  0  0  0  0  0  0  0  0  0  0
    0.9841   -2.1200    0.5098 H   0  0  0  0  0  0  0  0  0  0  0  0
    3.3463    1.4748    1.9095 H   0  0  0  0  0  0  0  0  0  0  0  0
  1  2  1  0
  1 14  1  0
  2  5  1  0
  2  7  1  0
  3  4  1  0
  3  9  1  0
  3 10  1  0
  3 11  1  0
  4  8  1  0
  4 12  1  0
  4 13  1  0
  5  6  3  0
  6 15  1  0
M  RAD  1   2   2
M  END
>  <reaction>  (17) 
rxn_900

>  <mol_properties>  (17) 
{"0": {"label": "*0", "atom_type": "S2s"}, "1": {"label": "*1", "atom_type": "Cs"}, "7": {"label": "*4", "atom_type": "Cs"}, "8": {"label": "*3", "atom_type": "Cs"}, "12": {"label": "*2", "atom_type": "H0"}}

>  <type>  (17) 
unop_13

>  <geom_source>  (17) 
AutoTST

$$$$
