
     RDKit          3D

 15 15  0  0  0  0  0  0  0  0999 V2000
    2.2031   -0.2111   -0.1693 C   0  0  0  0  0  0  0  0  0  0  0  0
    0.7140   -0.0314   -0.0623 C   0  0  0  0  0  0  0  0  0  0  0  0
   -0.0114    0.5491   -1.0982 C   0  0  0  0  0  0  0  0  0  0  0  0
   -1.3882    0.6886   -1.0150 C   0  0  0  0  0  0  0  0  0  0  0  0
   -2.0661    0.2493    0.1118 C   0  0  0  0  0  0  0  0  0  0  0  0
   -1.3551   -0.3278    1.1528 C   0  0  0  0  0  0  0  0  0  0  0  0
    0.0216   -0.4648    1.0642 C   0  0  0  0  0  0  0  0  0  0  0  0
    2.6776   -0.1836    0.8122 H   0  0  0  0  0  0  0  0  0  0  0  0
    2.4446   -1.1749   -0.6249 H   0  0  0  0  0  0  0  0  0  0  0  0
    2.6532    0.5664   -0.7875 H   0  0  0  0  0  0  0  0  0  0  0  0
    0.5104    0.8989   -1.9819 H   0  0  0  0  0  0  0  0  0  0  0  0
   -1.9328    1.1452   -1.8322 H   0  0  0  0  0  0  0  0  0  0  0  0
   -3.1409    0.3597    0.1800 H   0  0  0  0  0  0  0  0  0  0  0  0
   -1.8736   -0.6702    2.0398 H   0  0  0  0  0  0  0  0  0  0  0  0
    0.5695   -0.9141    1.8849 H   0  0  0  0  0  0  0  0  0  0  0  0
  1  2  1  0
  1  8  1  0
  1  9  1  0
  1 10  1  0
  2  3  2  0
  2  7  1  0
  3  4  1  0
  3 11  1  0
  4  5  2  0
  4 12  1  0
  5  6  1  0
  5 13  1  0
  6  7  2  0
  6 14  1  0
  7 15  1  0
M  END
>  <reaction>  (1) 
rxn_268

>  <mol_properties>  (1) 
{"2": {"label": "donator", "atom_type": "Cd"}, "10": {"label": "d_hydrogen", "atom_type": "H0"}}

>  <type>  (1) 
r1h

$$$$

     RDKit          3D

  4  3  0  0  0  0  0  0  0  0999 V2000
    0.0000    0.0000    0.0000 C   0  0  0  0  0  3  0  0  0  0  0  0
    1.0638   -0.1747    0.0540 H   0  0  0  0  0  0  0  0  0  0  0  0
   -0.6833   -0.8351   -0.0280 H   0  0  0  0  0  0  0  0  0  0  0  0
   -0.3805    1.0098   -0.0260 H   0  0  0  0  0  0  0  0  0  0  0  0
  1  2  1  0
  1  3  1  0
  1  4  1  0
M  RAD  1   1   2
M  END
>  <reaction>  (2) 
rxn_268

>  <mol_properties>  (2) 
{"0": {"label": "acceptor", "atom_type": "Cs"}}

>  <type>  (2) 
r2

$$$$

     RDKit          3D

  5  4  0  0  0  0  0  0  0  0999 V2000
    0.0000    0.0000    0.0000 C   0  0  0  0  0  0  0  0  0  0  0  0
   -0.6486   -0.7720   -0.4113 H   0  0  0  0  0  0  0  0  0  0  0  0
   -0.3482    0.9787   -0.3267 H   0  0  0  0  0  0  0  0  0  0  0  0
   -0.0223   -0.0487    1.0876 H   0  0  0  0  0  0  0  0  0  0  0  0
    1.0191   -0.1580   -0.3496 H   0  0  0  0  0  0  0  0  0  0  0  0
  1  2  1  0
  1  3  1  0
  1  4  1  0
  1  5  1  0
M  END
>  <reaction>  (3) 
rxn_268

>  <mol_properties>  (3) 
{"0": {"label": "a_hydrogen", "atom_type": "H0"}, "1": {"label": "acceptor", "atom_type": "Cs"}}

>  <type>  (3) 
r2h

$$$$

     RDKit          3D

 19 18  0  0  0  0  0  0  0  0999 V2000
    0.0443   -0.4571   -2.2223 C   0  0  0  0  0  0  0  0  0  0  0  0
    0.0190   -0.4998   -0.7192 C   0  0  0  0  0  0  0  0  0  0  0  0
    0.0087    0.6599    0.0364 C   0  0  0  0  0  3  0  0  0  0  0  0
   -0.0100    0.6726    1.4114 C   0  0  0  0  0  0  0  0  0  0  0  0
   -0.0193   -0.5415    2.0908 C   0  0  0  0  0  0  0  0  0  0  0  0
   -0.0100   -1.7250    1.3700 C   0  0  0  0  0  0  0  0  0  0  0  0
    0.0088   -1.7037   -0.0185 C   0  0  0  0  0  0  0  0  0  0  0  0
   -0.0030   -1.4601   -2.6459 H   0  0  0  0  0  0  0  0  0  0  0  0
   -0.7982    0.1174   -2.6114 H   0  0  0  0  0  0  0  0  0  0  0  0
    0.9574    0.0207   -2.5832 H   0  0  0  0  0  0  0  0  0  0  0  0
    0.0147    1.8587   -0.6205 H   0  0  0  0  0  0  0  0  0  0  0  0
   -0.0180    1.6096    1.9563 H   0  0  0  0  0  0  0  0  0  0  0  0
   -0.0344   -0.5603    3.1735 H   0  0  0  0  0  0  0  0  0  0  0  0
   -0.0179   -2.6747    1.8901 H   0  0  0  0  0  0  0  0  0  0  0  0
    0.0152   -2.6382   -0.5691 H   0  0  0  0  0  0  0  0  0  0  0  0
    0.0192    3.0030   -1.2409 C   0  0  0  0  0  0  0  0  0  0  0  0
    0.8925    2.9842   -1.8872 H   0  0  0  0  0  0  0  0  0  0  0  0
    0.0859    3.7555   -0.4597 H   0  0  0  0  0  0  0  0  0  0  0  0
   -0.9171    3.0443   -1.7908 H   0  0  0  0  0  0  0  0  0  0  0  0
  1  2  1  0
  1  8  1  0
  1  9  1  0
  1 10  1  0
  2  7  2  0
  2  3  1  0
  3  4  2  0
  4  5  1  0
  4 12  1  0
  5  6  2  0
  5 13  1  0
  6  7  1  0
  6 14  1  0
  7 15  1  0
 11 16  1  0
 16 17  1  0
 16 18  1  0
 16 19  1  0
M  RAD  1   3   2
M  END
>  <reaction>  (4) 
rxn_268

>  <mol_properties>  (4) 
{"1": {"label": "*4", "atom_type": "Cd"}, "2": {"label": "*3", "atom_type": "Cd"}, "10": {"label": "*2", "atom_type": "H0"}, "15": {"label": "*1", "atom_type": "Cs"}, "16": {"label": "*0", "atom_type": "H0"}}

>  <type>  (4) 
ts

$$$$

     RDKit          3D

 19 18  0  0  0  0  0  0  0  0999 V2000
    0.0108   -0.4982   -2.2347 C   0  0  0  0  0  0  0  0  0  0  0  0
    0.0108   -0.4982   -0.7310 C   0  0  0  0  0  0  0  0  0  0  0  0
    0.0108    0.6961   -0.0169 C   0  0  0  0  0  0  0  0  0  0  0  0
   -0.0196    0.6995    1.3691 C   0  0  0  0  0  0  0  0  0  0  0  0
   -0.0491   -0.4975    2.0681 C   0  0  0  0  0  0  0  0  0  0  0  0
   -0.0460   -1.6949    1.3691 C   0  0  0  0  0  0  0  0  0  0  0  0
   -0.0155   -1.6922   -0.0169 C   0  0  0  0  0  0  0  0  0  0  0  0
    0.5024   -1.3871   -2.6314 H   0  0  0  0  0  0  0  0  0  0  0  0
   -1.0114   -0.4870   -2.6214 H   0  0  0  0  0  0  0  0  0  0  0  0
    0.5219    0.3797   -2.6314 H   0  0  0  0  0  0  0  0  0  0  0  0
    0.0428    1.8254   -0.6623 H   0  0  0  0  0  0  0  0  0  0  0  0
   -0.0170    1.6407    1.9048 H   0  0  0  0  0  0  0  0  0  0  0  0
   -0.0703   -0.4973    3.1505 H   0  0  0  0  0  0  0  0  0  0  0  0
   -0.0641   -2.6360    1.9048 H   0  0  0  0  0  0  0  0  0  0  0  0
   -0.0096   -2.6337   -0.5547 H   0  0  0  0  0  0  0  0  0  0  0  0
    0.0749    2.9596   -1.3105 C   0  0  0  0  0  3  0  0  0  0  0  0
   -0.8121    3.5423   -1.0664 H   0  0  0  0  0  0  0  0  0  0  0  0
    0.4931    3.3122   -2.2520 H   0  0  0  0  0  0  0  0  0  0  0  0
    0.6970    3.2030   -0.4505 H   0  0  0  0  0  0  0  0  0  0  0  0
  1  2  1  0
  1  8  1  0
  1  9  1  0
  1 10  1  0
  2  3  2  0
  2  7  1  0
  3  4  1  0
  3 11  1  0
  4  5  2  0
  4 12  1  0
  5  6  1  0
  5 13  1  0
  6  7  2  0
  6 14  1  0
  7 15  1  0
 16 17  1  0
 16 18  1  0
 16 19  1  0
M  RAD  1  16   2
M  END
>  <reaction>  (5) 
rxn_268

>  <mol_properties>  (5) 
{"1": {"label": "*4", "atom_type": "Cd"}, "2": {"label": "*3", "atom_type": "Cd"}, "10": {"label": "*2", "atom_type": "H0"}, "15": {"label": "*1", "atom_type": "Cs"}, "16": {"label": "*0", "atom_type": "H0"}}

>  <type>  (5) 
unop_1

>  <geom_source>  (5) 
Heuristics

$$$$

     RDKit          3D

 19 18  0  0  0  0  0  0  0  0999 V2000
    0.0112   -0.4938   -2.2325 C   0  0  0  0  0  0  0  0  0  0  0  0
    0.0112   -0.4938   -0.7288 C   0  0  0  0  0  0  0  0  0  0  0  0
    0.0112    0.7005   -0.0147 C   0  0  0  0  0  0  0  0  0  0  0  0
   -0.0192    0.7039    1.3713 C   0  0  0  0  0  0  0  0  0  0  0  0
   -0.0487   -0.4931    2.0703 C   0  0  0  0  0  0  0  0  0  0  0  0
   -0.0456   -1.6905    1.3713 C   0  0  0  0  0  0  0  0  0  0  0  0
   -0.0151   -1.6878   -0.0147 C   0  0  0  0  0  0  0  0  0  0  0  0
    0.5028   -1.3827   -2.6292 H   0  0  0  0  0  0  0  0  0  0  0  0
   -1.0110   -0.4825   -2.6193 H   0  0  0  0  0  0  0  0  0  0  0  0
    0.5223    0.3841   -2.6292 H   0  0  0  0  0  0  0  0  0  0  0  0
    0.0432    1.8299   -0.6601 H   0  0  0  0  0  0  0  0  0  0  0  0
   -0.0166    1.6451    1.9070 H   0  0  0  0  0  0  0  0  0  0  0  0
   -0.0699   -0.4929    3.1526 H   0  0  0  0  0  0  0  0  0  0  0  0
   -0.0637   -2.6315    1.9070 H   0  0  0  0  0  0  0  0  0  0  0  0
   -0.0092   -2.6293   -0.5526 H   0  0  0  0  0  0  0  0  0  0  0  0
    0.0753    2.9640   -1.3083 C   0  0  0  0  0  3  0  0  0  0  0  0
   -0.4167    2.8451   -2.2725 H   0  0  0  0  0  0  0  0  0  0  0  0
    0.9785    3.5594   -1.4326 H   0  0  0  0  0  0  0  0  0  0  0  0
   -0.2253    3.1961   -0.2877 H   0  0  0  0  0  0  0  0  0  0  0  0
  1  2  1  0
  1  8  1  0
  1  9  1  0
  1 10  1  0
  2  3  2  0
  2  7  1  0
  3  4  1  0
  3 11  1  0
  4  5  2  0
  4 12  1  0
  5  6  1  0
  5 13  1  0
  6  7  2  0
  6 14  1  0
  7 15  1  0
 16 17  1  0
 16 18  1  0
 16 19  1  0
M  RAD  1  16   2
M  END
>  <reaction>  (6) 
rxn_268

>  <mol_properties>  (6) 
{"1": {"label": "*4", "atom_type": "Cd"}, "2": {"label": "*3", "atom_type": "Cd"}, "10": {"label": "*2", "atom_type": "H0"}, "15": {"label": "*1", "atom_type": "Cs"}, "16": {"label": "*0", "atom_type": "H0"}}

>  <type>  (6) 
unop_2

>  <geom_source>  (6) 
Heuristics

$$$$

     RDKit          3D

 19 18  0  0  0  0  0  0  0  0999 V2000
    0.0094   -0.4990   -2.2328 C   0  0  0  0  0  0  0  0  0  0  0  0
    0.0094   -0.4990   -0.7291 C   0  0  0  0  0  0  0  0  0  0  0  0
    0.0094    0.6953   -0.0151 C   0  0  0  0  0  0  0  0  0  0  0  0
   -0.0210    0.6987    1.3709 C   0  0  0  0  0  0  0  0  0  0  0  0
   -0.0506   -0.4983    2.0700 C   0  0  0  0  0  0  0  0  0  0  0  0
   -0.0474   -1.6957    1.3709 C   0  0  0  0  0  0  0  0  0  0  0  0
   -0.0169   -1.6930   -0.0151 C   0  0  0  0  0  0  0  0  0  0  0  0
    0.5010   -1.3879   -2.6296 H   0  0  0  0  0  0  0  0  0  0  0  0
   -1.0128   -0.4877   -2.6196 H   0  0  0  0  0  0  0  0  0  0  0  0
    0.5204    0.3789   -2.6296 H   0  0  0  0  0  0  0  0  0  0  0  0
    0.0414    1.8247   -0.6604 H   0  0  0  0  0  0  0  0  0  0  0  0
   -0.0184    1.6399    1.9067 H   0  0  0  0  0  0  0  0  0  0  0  0
   -0.0717   -0.4981    3.1523 H   0  0  0  0  0  0  0  0  0  0  0  0
   -0.0655   -2.6367    1.9067 H   0  0  0  0  0  0  0  0  0  0  0  0
   -0.0111   -2.6345   -0.5529 H   0  0  0  0  0  0  0  0  0  0  0  0
    0.0734    2.9588   -1.3086 C   0  0  0  0  0  3  0  0  0  0  0  0
   -0.4431    3.7227   -0.7293 H   0  0  0  0  0  0  0  0  0  0  0  0
   -0.0540    3.1609   -2.3710 H   0  0  0  0  0  0  0  0  0  0  0  0
    1.0208    3.2541   -0.8601 H   0  0  0  0  0  0  0  0  0  0  0  0
  1  2  1  0
  1  8  1  0
  1  9  1  0
  1 10  1  0
  2  3  2  0
  2  7  1  0
  3  4  1  0
  3 11  1  0
  4  5  2  0
  4 12  1  0
  5  6  1  0
  5 13  1  0
  6  7  2  0
  6 14  1  0
  7 15  1  0
 16 17  1  0
 16 18  1  0
 16 19  1  0
M  RAD  1  16   2
M  END
>  <reaction>  (7) 
rxn_268

>  <mol_properties>  (7) 
{"1": {"label": "*4", "atom_type": "Cd"}, "2": {"label": "*3", "atom_type": "Cd"}, "10": {"label": "*2", "atom_type": "H0"}, "15": {"label": "*1", "atom_type": "Cs"}, "16": {"label": "*0", "atom_type": "H0"}}

>  <type>  (7) 
unop_3

>  <geom_source>  (7) 
Heuristics

$$$$

     RDKit          3D

 19 18  0  0  0  0  0  0  0  0999 V2000
    0.0110   -0.4951   -2.2344 C   0  0  0  0  0  0  0  0  0  0  0  0
    0.0110   -0.4951   -0.7306 C   0  0  0  0  0  0  0  0  0  0  0  0
    0.0110    0.6992   -0.0166 C   0  0  0  0  0  0  0  0  0  0  0  0
   -0.0195    0.7026    1.3694 C   0  0  0  0  0  0  0  0  0  0  0  0
   -0.0490   -0.4944    2.0684 C   0  0  0  0  0  0  0  0  0  0  0  0
   -0.0459   -1.6918    1.3694 C   0  0  0  0  0  0  0  0  0  0  0  0
   -0.0154   -1.6891   -0.0166 C   0  0  0  0  0  0  0  0  0  0  0  0
    0.5025   -1.3840   -2.6311 H   0  0  0  0  0  0  0  0  0  0  0  0
   -1.0112   -0.4839   -2.6211 H   0  0  0  0  0  0  0  0  0  0  0  0
    0.5220    0.3828   -2.6311 H   0  0  0  0  0  0  0  0  0  0  0  0
    0.0429    1.8285   -0.6620 H   0  0  0  0  0  0  0  0  0  0  0  0
   -0.0168    1.6438    1.9051 H   0  0  0  0  0  0  0  0  0  0  0  0
   -0.0702   -0.4942    3.1508 H   0  0  0  0  0  0  0  0  0  0  0  0
   -0.0640   -2.6329    1.9051 H   0  0  0  0  0  0  0  0  0  0  0  0
   -0.0095   -2.6306   -0.5544 H   0  0  0  0  0  0  0  0  0  0  0  0
    0.0750    2.9627   -1.3101 C   0  0  0  0  0  3  0  0  0  0  0  0
    0.9797    3.0101   -1.9143 H   0  0  0  0  0  0  0  0  0  0  0  0
    0.2825    3.3520   -0.3146 H   0  0  0  0  0  0  0  0  0  0  0  0
   -0.8983    3.3751   -1.5716 H   0  0  0  0  0  0  0  0  0  0  0  0
  1  2  1  0
  1  8  1  0
  1  9  1  0
  1 10  1  0
  2  3  2  0
  2  7  1  0
  3  4  1  0
  3 11  1  0
  4  5  2  0
  4 12  1  0
  5  6  1  0
  5 13  1  0
  6  7  2  0
  6 14  1  0
  7 15  1  0
 16 17  1  0
 16 18  1  0
 16 19  1  0
M  RAD  1  16   2
M  END
>  <reaction>  (8) 
rxn_268

>  <mol_properties>  (8) 
{"1": {"label": "*4", "atom_type": "Cd"}, "2": {"label": "*3", "atom_type": "Cd"}, "10": {"label": "*2", "atom_type": "H0"}, "15": {"label": "*1", "atom_type": "Cs"}, "16": {"label": "*0", "atom_type": "H0"}}

>  <type>  (8) 
unop_4

>  <geom_source>  (8) 
Heuristics

$$$$

     RDKit          3D

 19 18  0  0  0  0  0  0  0  0999 V2000
    0.0116   -0.4994   -2.2304 C   0  0  0  0  0  0  0  0  0  0  0  0
    0.0116   -0.4994   -0.7267 C   0  0  0  0  0  0  0  0  0  0  0  0
    0.0116    0.6950   -0.0126 C   0  0  0  0  0  0  0  0  0  0  0  0
   -0.0188    0.6983    1.3734 C   0  0  0  0  0  0  0  0  0  0  0  0
   -0.0484   -0.4987    2.0724 C   0  0  0  0  0  0  0  0  0  0  0  0
   -0.0452   -1.6961    1.3734 C   0  0  0  0  0  0  0  0  0  0  0  0
   -0.0147   -1.6934   -0.0126 C   0  0  0  0  0  0  0  0  0  0  0  0
    0.5032   -1.3883   -2.6271 H   0  0  0  0  0  0  0  0  0  0  0  0
   -1.0106   -0.4881   -2.6172 H   0  0  0  0  0  0  0  0  0  0  0  0
    0.5227    0.3785   -2.6272 H   0  0  0  0  0  0  0  0  0  0  0  0
    0.0436    1.8243   -0.6580 H   0  0  0  0  0  0  0  0  0  0  0  0
   -0.0162    1.6395    1.9091 H   0  0  0  0  0  0  0  0  0  0  0  0
   -0.0695   -0.4985    3.1547 H   0  0  0  0  0  0  0  0  0  0  0  0
   -0.0633   -2.6371    1.9091 H   0  0  0  0  0  0  0  0  0  0  0  0
   -0.0089   -2.6348   -0.5505 H   0  0  0  0  0  0  0  0  0  0  0  0
    0.0756    2.9585   -1.3062 C   0  0  0  0  0  3  0  0  0  0  0  0
    0.0704    3.7832   -0.5951 H   0  0  0  0  0  0  0  0  0  0  0  0
   -0.7971    3.0315   -1.9533 H   0  0  0  0  0  0  0  0  0  0  0  0
    1.0227    3.3620   -1.6611 H   0  0  0  0  0  0  0  0  0  0  0  0
  1  2  1  0
  1  8  1  0
  1  9  1  0
  1 10  1  0
  2  3  2  0
  2  7  1  0
  3  4  1  0
  3 11  1  0
  4  5  2  0
  4 12  1  0
  5  6  1  0
  5 13  1  0
  6  7  2  0
  6 14  1  0
  7 15  1  0
 16 17  1  0
 16 18  1  0
 16 19  1  0
M  RAD  1  16   2
M  END
>  <reaction>  (9) 
rxn_268

>  <mol_properties>  (9) 
{"1": {"label": "*4", "atom_type": "Cd"}, "2": {"label": "*3", "atom_type": "Cd"}, "10": {"label": "*2", "atom_type": "H0"}, "15": {"label": "*1", "atom_type": "Cs"}, "16": {"label": "*0", "atom_type": "H0"}}

>  <type>  (9) 
unop_5

>  <geom_source>  (9) 
Heuristics

$$$$

     RDKit          3D

 19 18  0  0  0  0  0  0  0  0999 V2000
    0.0119   -0.4969   -2.2345 C   0  0  0  0  0  0  0  0  0  0  0  0
    0.0119   -0.4969   -0.7308 C   0  0  0  0  0  0  0  0  0  0  0  0
    0.0119    0.6974   -0.0168 C   0  0  0  0  0  0  0  0  0  0  0  0
   -0.0186    0.7008    1.3692 C   0  0  0  0  0  0  0  0  0  0  0  0
   -0.0481   -0.4962    2.0683 C   0  0  0  0  0  0  0  0  0  0  0  0
   -0.0450   -1.6936    1.3692 C   0  0  0  0  0  0  0  0  0  0  0  0
   -0.0145   -1.6909   -0.0168 C   0  0  0  0  0  0  0  0  0  0  0  0
    0.5034   -1.3858   -2.6313 H   0  0  0  0  0  0  0  0  0  0  0  0
   -1.0103   -0.4856   -2.6213 H   0  0  0  0  0  0  0  0  0  0  0  0
    0.5229    0.3810   -2.6313 H   0  0  0  0  0  0  0  0  0  0  0  0
    0.0438    1.8267   -0.6621 H   0  0  0  0  0  0  0  0  0  0  0  0
   -0.0159    1.6420    1.9049 H   0  0  0  0  0  0  0  0  0  0  0  0
   -0.0693   -0.4960    3.1506 H   0  0  0  0  0  0  0  0  0  0  0  0
   -0.0631   -2.6346    1.9049 H   0  0  0  0  0  0  0  0  0  0  0  0
   -0.0086   -2.6324   -0.5546 H   0  0  0  0  0  0  0  0  0  0  0  0
    0.0759    2.9609   -1.3103 C   0  0  0  0  0  3  0  0  0  0  0  0
    1.1110    3.2611   -1.4655 H   0  0  0  0  0  0  0  0  0  0  0  0
   -0.2330    3.2310   -0.3016 H   0  0  0  0  0  0  0  0  0  0  0  0
   -0.6068    3.4301   -2.0171 H   0  0  0  0  0  0  0  0  0  0  0  0
  1  2  1  0
  1  8  1  0
  1  9  1  0
  1 10  1  0
  2  3  2  0
  2  7  1  0
  3  4  1  0
  3 11  1  0
  4  5  2  0
  4 12  1  0
  5  6  1  0
  5 13  1  0
  6  7  2  0
  6 14  1  0
  7 15  1  0
 16 17  1  0
 16 18  1  0
 16 19  1  0
M  RAD  1  16   2
M  END
>  <reaction>  (10) 
rxn_268

>  <mol_properties>  (10) 
{"1": {"label": "*4", "atom_type": "Cd"}, "2": {"label": "*3", "atom_type": "Cd"}, "10": {"label": "*2", "atom_type": "H0"}, "15": {"label": "*1", "atom_type": "Cs"}, "16": {"label": "*0", "atom_type": "H0"}}

>  <type>  (10) 
unop_6

>  <geom_source>  (10) 
Heuristics

$$$$

     RDKit          3D

 19 18  0  0  0  0  0  0  0  0999 V2000
    0.0134   -0.4983   -2.2341 C   0  0  0  0  0  0  0  0  0  0  0  0
    0.0134   -0.4983   -0.7304 C   0  0  0  0  0  0  0  0  0  0  0  0
    0.0134    0.6960   -0.0163 C   0  0  0  0  0  0  0  0  0  0  0  0
   -0.0171    0.6994    1.3697 C   0  0  0  0  0  0  0  0  0  0  0  0
   -0.0466   -0.4977    2.0687 C   0  0  0  0  0  0  0  0  0  0  0  0
   -0.0435   -1.6950    1.3697 C   0  0  0  0  0  0  0  0  0  0  0  0
   -0.0130   -1.6923   -0.0163 C   0  0  0  0  0  0  0  0  0  0  0  0
    0.5049   -1.3873   -2.6308 H   0  0  0  0  0  0  0  0  0  0  0  0
   -1.0089   -0.4871   -2.6209 H   0  0  0  0  0  0  0  0  0  0  0  0
    0.5244    0.3796   -2.6308 H   0  0  0  0  0  0  0  0  0  0  0  0
    0.0453    1.8253   -0.6617 H   0  0  0  0  0  0  0  0  0  0  0  0
   -0.0145    1.6406    1.9054 H   0  0  0  0  0  0  0  0  0  0  0  0
   -0.0678   -0.4974    3.1511 H   0  0  0  0  0  0  0  0  0  0  0  0
   -0.0616   -2.6361    1.9054 H   0  0  0  0  0  0  0  0  0  0  0  0
   -0.0071   -2.6338   -0.5541 H   0  0  0  0  0  0  0  0  0  0  0  0
    0.0774    2.9595   -1.3099 C   0  0  0  0  0  3  0  0  0  0  0  0
    0.9679    3.5165   -1.0229 H   0  0  0  0  0  0  0  0  0  0  0  0
   -0.6955    3.0967   -0.5551 H   0  0  0  0  0  0  0  0  0  0  0  0
   -0.1540    3.4553   -2.2514 H   0  0  0  0  0  0  0  0  0  0  0  0
  1  2  1  0
  1  8  1  0
  1  9  1  0
  1 10  1  0
  2  3  2  0
  2  7  1  0
  3  4  1  0
  3 11  1  0
  4  5  2  0
  4 12  1  0
  5  6  1  0
  5 13  1  0
  6  7  2  0
  6 14  1  0
  7 15  1  0
 16 17  1  0
 16 18  1  0
 16 19  1  0
M  RAD  1  16   2
M  END
>  <reaction>  (11) 
rxn_268

>  <mol_properties>  (11) 
{"1": {"label": "*4", "atom_type": "Cd"}, "2": {"label": "*3", "atom_type": "Cd"}, "10": {"label": "*2", "atom_type": "H0"}, "15": {"label": "*1", "atom_type": "Cs"}, "16": {"label": "*0", "atom_type": "H0"}}

>  <type>  (11) 
unop_7

>  <geom_source>  (11) 
Heuristics

$$$$

     RDKit          3D

 19 18  0  0  0  0  0  0  0  0999 V2000
    0.0124   -0.4969   -2.2343 C   0  0  0  0  0  0  0  0  0  0  0  0
    0.0124   -0.4969   -0.7306 C   0  0  0  0  0  0  0  0  0  0  0  0
    0.0124    0.6974   -0.0165 C   0  0  0  0  0  0  0  0  0  0  0  0
   -0.0180    0.7007    1.3695 C   0  0  0  0  0  0  0  0  0  0  0  0
   -0.0476   -0.4963    2.0685 C   0  0  0  0  0  0  0  0  0  0  0  0
   -0.0444   -1.6936    1.3695 C   0  0  0  0  0  0  0  0  0  0  0  0
   -0.0139   -1.6910   -0.0165 C   0  0  0  0  0  0  0  0  0  0  0  0
    0.5040   -1.3859   -2.6310 H   0  0  0  0  0  0  0  0  0  0  0  0
   -1.0098   -0.4857   -2.6211 H   0  0  0  0  0  0  0  0  0  0  0  0
    0.5234    0.3810   -2.6310 H   0  0  0  0  0  0  0  0  0  0  0  0
    0.0444    1.8267   -0.6619 H   0  0  0  0  0  0  0  0  0  0  0  0
   -0.0154    1.6419    1.9052 H   0  0  0  0  0  0  0  0  0  0  0  0
   -0.0687   -0.4960    3.1509 H   0  0  0  0  0  0  0  0  0  0  0  0
   -0.0625   -2.6347    1.9052 H   0  0  0  0  0  0  0  0  0  0  0  0
   -0.0081   -2.6324   -0.5543 H   0  0  0  0  0  0  0  0  0  0  0  0
    0.0764    2.9609   -1.3101 C   0  0  0  0  0  3  0  0  0  0  0  0
   -0.9409    3.2908   -1.5149 H   0  0  0  0  0  0  0  0  0  0  0  0
    0.7623    3.4489   -2.0009 H   0  0  0  0  0  0  0  0  0  0  0  0
    0.3931    3.1865   -0.2929 H   0  0  0  0  0  0  0  0  0  0  0  0
  1  2  1  0
  1  8  1  0
  1  9  1  0
  1 10  1  0
  2  3  2  0
  2  7  1  0
  3  4  1  0
  3 11  1  0
  4  5  2  0
  4 12  1  0
  5  6  1  0
  5 13  1  0
  6  7  2  0
  6 14  1  0
  7 15  1  0
 16 17  1  0
 16 18  1  0
 16 19  1  0
M  RAD  1  16   2
M  END
>  <reaction>  (12) 
rxn_268

>  <mol_properties>  (12) 
{"1": {"label": "*4", "atom_type": "Cd"}, "2": {"label": "*3", "atom_type": "Cd"}, "10": {"label": "*2", "atom_type": "H0"}, "15": {"label": "*1", "atom_type": "Cs"}, "16": {"label": "*0", "atom_type": "H0"}}

>  <type>  (12) 
unop_8

>  <geom_source>  (12) 
Heuristics

$$$$

     RDKit          3D

 19 18  0  0  0  0  0  0  0  0999 V2000
    0.0104   -0.4936   -2.2340 C   0  0  0  0  0  0  0  0  0  0  0  0
    0.0104   -0.4936   -0.7303 C   0  0  0  0  0  0  0  0  0  0  0  0
    0.0104    0.7008   -0.0163 C   0  0  0  0  0  0  0  0  0  0  0  0
   -0.0200    0.7041    1.3697 C   0  0  0  0  0  0  0  0  0  0  0  0
   -0.0496   -0.4929    2.0688 C   0  0  0  0  0  0  0  0  0  0  0  0
   -0.0465   -1.6903    1.3697 C   0  0  0  0  0  0  0  0  0  0  0  0
   -0.0159   -1.6876   -0.0163 C   0  0  0  0  0  0  0  0  0  0  0  0
    0.5020   -1.3825   -2.6308 H   0  0  0  0  0  0  0  0  0  0  0  0
   -1.0118   -0.4823   -2.6208 H   0  0  0  0  0  0  0  0  0  0  0  0
    0.5214    0.3843   -2.6308 H   0  0  0  0  0  0  0  0  0  0  0  0
    0.0423    1.8301   -0.6616 H   0  0  0  0  0  0  0  0  0  0  0  0
   -0.0174    1.6453    1.9054 H   0  0  0  0  0  0  0  0  0  0  0  0
   -0.0707   -0.4927    3.1511 H   0  0  0  0  0  0  0  0  0  0  0  0
   -0.0646   -2.6313    1.9054 H   0  0  0  0  0  0  0  0  0  0  0  0
   -0.0101   -2.6291   -0.5541 H   0  0  0  0  0  0  0  0  0  0  0  0
    0.0744    2.9643   -1.3098 C   0  0  0  0  0  3  0  0  0  0  0  0
    0.6087    2.8305   -2.2492 H   0  0  0  0  0  0  0  0  0  0  0  0
    0.7284    3.4481   -0.5859 H   0  0  0  0  0  0  0  0  0  0  0  0
   -0.9142    3.2999   -1.0004 H   0  0  0  0  0  0  0  0  0  0  0  0
  1  2  1  0
  1  8  1  0
  1  9  1  0
  1 10  1  0
  2  3  2  0
  2  7  1  0
  3  4  1  0
  3 11  1  0
  4  5  2  0
  4 12  1  0
  5  6  1  0
  5 13  1  0
  6  7  2  0
  6 14  1  0
  7 15  1  0
 16 17  1  0
 16 18  1  0
 16 19  1  0
M  RAD  1  16   2
M  END
>  <reaction>  (13) 
rxn_268

>  <mol_properties>  (13) 
{"1": {"label": "*4", "atom_type": "Cd"}, "2": {"label": "*3", "atom_type": "Cd"}, "10": {"label": "*2", "atom_type": "H0"}, "15": {"label": "*1", "atom_type": "Cs"}, "16": {"label": "*0", "atom_type": "H0"}}

>  <type>  (13) 
unop_9

>  <geom_source>  (13) 
Heuristics

$$$$

     RDKit          3D

 19 18  0  0  0  0  0  0  0  0999 V2000
    0.0125   -0.4953   -2.2331 C   0  0  0  0  0  0  0  0  0  0  0  0
    0.0125   -0.4953   -0.7293 C   0  0  0  0  0  0  0  0  0  0  0  0
    0.0125    0.6990   -0.0153 C   0  0  0  0  0  0  0  0  0  0  0  0
   -0.0180    0.7024    1.3707 C   0  0  0  0  0  0  0  0  0  0  0  0
   -0.0475   -0.4946    2.0697 C   0  0  0  0  0  0  0  0  0  0  0  0
   -0.0444   -1.6920    1.3707 C   0  0  0  0  0  0  0  0  0  0  0  0
   -0.0139   -1.6893   -0.0153 C   0  0  0  0  0  0  0  0  0  0  0  0
    0.5040   -1.3842   -2.6298 H   0  0  0  0  0  0  0  0  0  0  0  0
   -1.0098   -0.4840   -2.6198 H   0  0  0  0  0  0  0  0  0  0  0  0
    0.5235    0.3826   -2.6298 H   0  0  0  0  0  0  0  0  0  0  0  0
    0.0444    1.8283   -0.6607 H   0  0  0  0  0  0  0  0  0  0  0  0
   -0.0153    1.6436    1.9064 H   0  0  0  0  0  0  0  0  0  0  0  0
   -0.0687   -0.4944    3.1521 H   0  0  0  0  0  0  0  0  0  0  0  0
   -0.0625   -2.6331    1.9064 H   0  0  0  0  0  0  0  0  0  0  0  0
   -0.0080   -2.6308   -0.5531 H   0  0  0  0  0  0  0  0  0  0  0  0
    0.0765    2.9625   -1.3088 C   0  0  0  0  0  3  0  0  0  0  0  0
   -0.7963    3.0356   -1.9559 H   0  0  0  0  0  0  0  0  0  0  0  0
    0.8958    3.5371   -1.7382 H   0  0  0  0  0  0  0  0  0  0  0  0
    0.1108    3.1848   -0.2434 H   0  0  0  0  0  0  0  0  0  0  0  0
  1  2  1  0
  1  8  1  0
  1  9  1  0
  1 10  1  0
  2  3  2  0
  2  7  1  0
  3  4  1  0
  3 11  1  0
  4  5  2  0
  4 12  1  0
  5  6  1  0
  5 13  1  0
  6  7  2  0
  6 14  1  0
  7 15  1  0
 16 17  1  0
 16 18  1  0
 16 19  1  0
M  RAD  1  16   2
M  END
>  <reaction>  (14) 
rxn_268

>  <mol_properties>  (14) 
{"1": {"label": "*4", "atom_type": "Cd"}, "2": {"label": "*3", "atom_type": "Cd"}, "10": {"label": "*2", "atom_type": "H0"}, "15": {"label": "*1", "atom_type": "Cs"}, "16": {"label": "*0", "atom_type": "H0"}}

>  <type>  (14) 
unop_10

>  <geom_source>  (14) 
Heuristics

$$$$

     RDKit          3D

 19 18  0  0  0  0  0  0  0  0999 V2000
    0.0142   -0.4991   -2.2321 C   0  0  0  0  0  0  0  0  0  0  0  0
    0.0142   -0.4991   -0.7284 C   0  0  0  0  0  0  0  0  0  0  0  0
    0.0142    0.6952   -0.0144 C   0  0  0  0  0  0  0  0  0  0  0  0
   -0.0162    0.6985    1.3716 C   0  0  0  0  0  0  0  0  0  0  0  0
   -0.0458   -0.4985    2.0707 C   0  0  0  0  0  0  0  0  0  0  0  0
   -0.0426   -1.6958    1.3716 C   0  0  0  0  0  0  0  0  0  0  0  0
   -0.0121   -1.6932   -0.0144 C   0  0  0  0  0  0  0  0  0  0  0  0
    0.5058   -1.3881   -2.6289 H   0  0  0  0  0  0  0  0  0  0  0  0
   -1.0080   -0.4879   -2.6189 H   0  0  0  0  0  0  0  0  0  0  0  0
    0.5252    0.3788   -2.6289 H   0  0  0  0  0  0  0  0  0  0  0  0
    0.0461    1.8245   -0.6597 H   0  0  0  0  0  0  0  0  0  0  0  0
   -0.0136    1.6398    1.9073 H   0  0  0  0  0  0  0  0  0  0  0  0
   -0.0669   -0.4982    3.1530 H   0  0  0  0  0  0  0  0  0  0  0  0
   -0.0608   -2.6369    1.9073 H   0  0  0  0  0  0  0  0  0  0  0  0
   -0.0063   -2.6346   -0.5522 H   0  0  0  0  0  0  0  0  0  0  0  0
    0.0782    2.9587   -1.3079 C   0  0  0  0  0  3  0  0  0  0  0  0
    0.5880    3.7077   -0.7038 H   0  0  0  0  0  0  0  0  0  0  0  0
   -0.9921    3.0017   -1.1123 H   0  0  0  0  0  0  0  0  0  0  0  0
    0.4340    3.4434   -2.2158 H   0  0  0  0  0  0  0  0  0  0  0  0
  1  2  1  0
  1  8  1  0
  1  9  1  0
  1 10  1  0
  2  3  2  0
  2  7  1  0
  3  4  1  0
  3 11  1  0
  4  5  2  0
  4 12  1  0
  5  6  1  0
  5 13  1  0
  6  7  2  0
  6 14  1  0
  7 15  1  0
 16 17  1  0
 16 18  1  0
 16 19  1  0
M  RAD  1  16   2
M  END
>  <reaction>  (15) 
rxn_268

>  <mol_properties>  (15) 
{"1": {"label": "*4", "atom_type": "Cd"}, "2": {"label": "*3", "atom_type": "Cd"}, "10": {"label": "*2", "atom_type": "H0"}, "15": {"label": "*1", "atom_type": "Cs"}, "16": {"label": "*0", "atom_type": "H0"}}

>  <type>  (15) 
unop_11

>  <geom_source>  (15) 
Heuristics

$$$$

     RDKit          3D

 19 18  0  0  0  0  0  0  0  0999 V2000
    0.0103   -0.4930   -2.2332 C   0  0  0  0  0  0  0  0  0  0  0  0
    0.0103   -0.4930   -0.7295 C   0  0  0  0  0  0  0  0  0  0  0  0
    0.0103    0.7013   -0.0154 C   0  0  0  0  0  0  0  0  0  0  0  0
   -0.0202    0.7046    1.3706 C   0  0  0  0  0  0  0  0  0  0  0  0
   -0.0497   -0.4924    2.0696 C   0  0  0  0  0  0  0  0  0  0  0  0
   -0.0466   -1.6898    1.3706 C   0  0  0  0  0  0  0  0  0  0  0  0
   -0.0161   -1.6871   -0.0154 C   0  0  0  0  0  0  0  0  0  0  0  0
    0.5018   -1.3820   -2.6299 H   0  0  0  0  0  0  0  0  0  0  0  0
   -1.0119   -0.4818   -2.6200 H   0  0  0  0  0  0  0  0  0  0  0  0
    0.5213    0.3848   -2.6299 H   0  0  0  0  0  0  0  0  0  0  0  0
    0.0422    1.8306   -0.6608 H   0  0  0  0  0  0  0  0  0  0  0  0
   -0.0175    1.6458    1.9063 H   0  0  0  0  0  0  0  0  0  0  0  0
   -0.0709   -0.4922    3.1520 H   0  0  0  0  0  0  0  0  0  0  0  0
   -0.0647   -2.6308    1.9063 H   0  0  0  0  0  0  0  0  0  0  0  0
   -0.0102   -2.6285   -0.5532 H   0  0  0  0  0  0  0  0  0  0  0  0
    0.0743    2.9648   -1.3090 C   0  0  0  0  0  3  0  0  0  0  0  0
    0.0974    2.7702   -2.3801 H   0  0  0  0  0  0  0  0  0  0  0  0
    0.9649    3.5218   -1.0220 H   0  0  0  0  0  0  0  0  0  0  0  0
   -0.6266    3.2325   -0.5198 H   0  0  0  0  0  0  0  0  0  0  0  0
  1  2  1  0
  1  8  1  0
  1  9  1  0
  1 10  1  0
  2  3  2  0
  2  7  1  0
  3  4  1  0
  3 11  1  0
  4  5  2  0
  4 12  1  0
  5  6  1  0
  5 13  1  0
  6  7  2  0
  6 14  1  0
  7 15  1  0
 16 17  1  0
 16 18  1  0
 16 19  1  0
M  RAD  1  16   2
M  END
>  <reaction>  (16) 
rxn_268

>  <mol_properties>  (16) 
{"1": {"label": "*4", "atom_type": "Cd"}, "2": {"label": "*3", "atom_type": "Cd"}, "10": {"label": "*2", "atom_type": "H0"}, "15": {"label": "*1", "atom_type": "Cs"}, "16": {"label": "*0", "atom_type": "H0"}}

>  <type>  (16) 
unop_12

>  <geom_source>  (16) 
Heuristics

$$$$

     RDKit          3D

 19 18  0  0  0  0  0  0  0  0999 V2000
   -1.8630    1.1412   -0.1921 C   0  0  0  0  0  0  0  0  0  0  0  0
    1.6691    2.0573    0.6333 C   0  0  0  0  0  3  0  0  0  0  0  0
   -0.9340   -0.0329   -0.2101 C   0  0  0  0  0  0  0  0  0  0  0  0
   -1.4170   -1.3253    0.0489 C   0  0  0  0  0  0  0  0  0  0  0  0
   -0.5493   -2.4218    0.0004 C   0  0  0  0  0  0  0  0  0  0  0  0
    0.7999   -2.2341   -0.3161 C   0  0  0  0  0  0  0  0  0  0  0  0
    1.2818   -0.9500   -0.5877 C   0  0  0  0  0  0  0  0  0  0  0  0
    0.4163    0.1462   -0.5391 C   0  0  0  0  0  0  0  0  0  0  0  0
   -2.4659    1.1503   -1.1241 H   0  0  0  0  0  0  0  0  0  0  0  0
   -1.2959    2.0941   -0.1207 H   0  0  0  0  0  0  0  0  0  0  0  0
   -2.5453    1.0757    0.6820 H   0  0  0  0  0  0  0  0  0  0  0  0
    1.4453    3.1269    0.4414 H   0  0  0  0  0  0  0  0  0  0  0  0
    2.6549    1.8011    0.1936 H   0  0  0  0  0  0  0  0  0  0  0  0
    1.6936    1.8751    1.7273 H   0  0  0  0  0  0  0  0  0  0  0  0
    0.7003    1.2799    0.0635 H   0  0  0  0  0  0  0  0  0  0  0  0
    1.4701   -3.0831   -0.3545 H   0  0  0  0  0  0  0  0  0  0  0  0
   -0.9231   -3.4167    0.2049 H   0  0  0  0  0  0  0  0  0  0  0  0
   -2.4617   -1.4822    0.2876 H   0  0  0  0  0  0  0  0  0  0  0  0
    2.3237   -0.8019   -0.8385 H   0  0  0  0  0  0  0  0  0  0  0  0
  1  3  1  0
  1  9  1  0
  1 10  1  0
  1 11  1  0
  2 12  1  0
  2 13  1  0
  2 14  1  0
  3  4  2  0
  3  8  1  0
  4  5  1  0
  4 18  1  0
  5  6  2  0
  5 17  1  0
  6  7  1  0
  6 16  1  0
  7  8  2  0
  7 19  1  0
  8 15  1  0
M  RAD  1   2   2
M  END
>  <reaction>  (17) 
rxn_268

>  <mol_properties>  (17) 
{"1": {"label": "*4", "atom_type": "Cd"}, "2": {"label": "*3", "atom_type": "Cd"}, "10": {"label": "*2", "atom_type": "H0"}, "15": {"label": "*1", "atom_type": "Cs"}, "16": {"label": "*0", "atom_type": "H0"}}

>  <type>  (17) 
unop_13

>  <geom_source>  (17) 
AutoTST

$$$$
