
     RDKit          3D

  8  7  0  0  0  0  0  0  0  0999 V2000
    0.7610    0.0250    0.0051 C   0  0  0  0  0  0  0  0  0  0  0  0
   -0.7610   -0.0250   -0.0051 C   0  0  0  0  0  0  0  0  0  0  0  0
    1.1904   -0.9237   -0.3217 H   0  0  0  0  0  0  0  0  0  0  0  0
    1.1359    0.8041   -0.6609 H   0  0  0  0  0  0  0  0  0  0  0  0
    1.1435    0.2336    1.0058 H   0  0  0  0  0  0  0  0  0  0  0  0
   -1.1435   -0.2336   -1.0058 H   0  0  0  0  0  0  0  0  0  0  0  0
   -1.1904    0.9237    0.3216 H   0  0  0  0  0  0  0  0  0  0  0  0
   -1.1359   -0.8041    0.6609 H   0  0  0  0  0  0  0  0  0  0  0  0
  1  2  1  0
  1  3  1  0
  1  4  1  0
  1  5  1  0
  2  6  1  0
  2  7  1  0
  2  8  1  0
M  END
>  <reaction>  (1) 
rxn_895

>  <mol_properties>  (1) 
{"1": {"label": "donator", "atom_type": "Cs"}, "5": {"label": "d_hydrogen", "atom_type": "H0"}}

>  <type>  (1) 
r1h

$$$$

     RDKit          3D

  7  6  0  0  0  0  0  0  0  0999 V2000
   -1.3496    0.0255    0.0758 C   0  0  0  0  0  0  0  0  0  0  0  0
   -0.0636   -0.0704   -0.0033 C   0  0  0  0  0  0  0  0  0  0  0  0
    1.2597   -0.1602   -0.0839 C   0  0  0  0  0  0  0  0  0  0  0  0
    2.2616    1.2090   -0.0064 S   0  0  0  0  0  1  0  0  0  0  0  0
   -1.8547   -0.0180    1.0345 H   0  0  0  0  0  0  0  0  0  0  0  0
   -1.9552    0.1601   -0.8138 H   0  0  0  0  0  0  0  0  0  0  0  0
    1.7017   -1.1460   -0.2029 H   0  0  0  0  0  0  0  0  0  0  0  0
  1  2  2  0
  1  5  1  0
  1  6  1  0
  2  3  2  0
  3  4  1  0
  3  7  1  0
M  RAD  1   4   2
M  END
>  <reaction>  (2) 
rxn_895

>  <mol_properties>  (2) 
{"1": {"label": "acceptor", "atom_type": "Cd"}}

>  <type>  (2) 
r2

$$$$

     RDKit          3D

  8  7  0  0  0  0  0  0  0  0999 V2000
   -1.1617    0.0338    0.5053 C   0  0  0  0  0  0  0  0  0  0  0  0
   -0.1023    0.4503   -0.1863 C   0  0  0  0  0  0  0  0  0  0  0  0
    1.0978   -0.3557   -0.3104 C   0  0  0  0  0  0  0  0  0  0  0  0
    2.4251    0.0667   -1.1256 S   0  0  0  0  0  0  0  0  0  0  0  0
   -1.1653   -0.9292    1.0039 H   0  0  0  0  0  0  0  0  0  0  0  0
   -2.0546    0.6389    0.5948 H   0  0  0  0  0  0  0  0  0  0  0  0
   -0.0991    1.4132   -0.6847 H   0  0  0  0  0  0  0  0  0  0  0  0
    1.0601   -1.3180    0.2032 H   0  0  0  0  0  0  0  0  0  0  0  0
  1  2  2  3
  1  5  1  0
  1  6  1  0
  2  3  1  0
  2  7  1  0
  3  4  2  0
  3  8  1  0
M  END
>  <reaction>  (3) 
rxn_895

>  <mol_properties>  (3) 
{"1": {"label": "acceptor", "atom_type": "Cd"}, "7": {"label": "a_hydrogen", "atom_type": "H0"}}

>  <type>  (3) 
r2h

$$$$

     RDKit          3D

 15 13  0  0  0  0  0  0  0  0999 V2000
   -1.8464    1.0448    0.9572 C   0  0  0  0  0  0  0  0  0  0  0  0
   -0.6768    0.4500    0.8137 C   0  0  0  0  0  0  0  0  0  0  0  0
    0.6682    0.8865    1.0077 C   0  0  0  0  0  0  0  0  0  0  0  0
    1.8801    0.6532   -0.0511 S   0  0  0  0  0  0  0  0  0  0  0  0
   -1.9297    2.0947    1.2214 H   0  0  0  0  0  0  0  0  0  0  0  0
   -2.7713    0.5069    0.7814 H   0  0  0  0  0  0  0  0  0  0  0  0
    0.8779    1.3622    1.9677 H   0  0  0  0  0  0  0  0  0  0  0  0
   -1.0454   -1.5380   -1.8138 C   0  0  0  0  0  0  0  0  0  0  0  0
   -0.8480   -1.9080   -0.3745 C   0  0  0  0  0  3  0  0  0  0  0  0
   -1.9568   -0.9543   -1.9536 H   0  0  0  0  0  0  0  0  0  0  0  0
   -0.2029   -0.9508   -2.1806 H   0  0  0  0  0  0  0  0  0  0  0  0
   -1.1294   -2.4348   -2.4359 H   0  0  0  0  0  0  0  0  0  0  0  0
   -0.7414   -0.7472    0.3061 H   0  0  0  0  0  0  0  0  0  0  0  0
    0.1038   -2.3730   -0.1300 H   0  0  0  0  0  0  0  0  0  0  0  0
   -1.6910   -2.3856    0.1205 H   0  0  0  0  0  0  0  0  0  0  0  0
  1  2  2  3
  1  5  1  0
  1  6  1  0
  2  3  1  0
  2 13  1  0
  3  4  2  0
  3  7  1  0
  8  9  1  0
  8 10  1  0
  8 11  1  0
  8 12  1  0
  9 14  1  0
  9 15  1  0
M  RAD  1   9   2
M  END
>  <reaction>  (4) 
rxn_895

>  <mol_properties>  (4) 
{"1": {"label": "*1", "atom_type": "Cd"}, "2": {"label": "*0", "atom_type": "CS"}, "7": {"label": "*4", "atom_type": "Cs"}, "8": {"label": "*3", "atom_type": "Cs"}, "12": {"label": "*2", "atom_type": "H0"}}

>  <type>  (4) 
ts

$$$$

     RDKit          3D

 15 13  0  0  0  0  0  0  0  0999 V2000
   -1.8615    1.1363    1.3030 C   0  0  0  0  0  0  0  0  0  0  0  0
   -0.8754    0.6988    0.5218 C   0  0  0  0  0  0  0  0  0  0  0  0
    0.5196    0.9412    0.8393 C   0  0  0  0  0  0  0  0  0  0  0  0
    1.7767    0.4505   -0.0459 S   0  0  0  0  0  0  0  0  0  0  0  0
   -1.6558    1.6931    2.2105 H   0  0  0  0  0  0  0  0  0  0  0  0
   -2.9005    0.9528    1.0616 H   0  0  0  0  0  0  0  0  0  0  0  0
    0.6905    1.5040    1.7588 H   0  0  0  0  0  0  0  0  0  0  0  0
   -0.8754   -1.7342   -1.9479 C   0  0  0  0  0  0  0  0  0  0  0  0
   -0.8754   -1.7342   -0.4251 C   0  0  0  0  0  3  0  0  0  0  0  0
   -1.7562   -1.2257   -2.3437 H   0  0  0  0  0  0  0  0  0  0  0  0
    0.0055   -1.2257   -2.3437 H   0  0  0  0  0  0  0  0  0  0  0  0
   -0.8754   -2.7513   -2.3437 H   0  0  0  0  0  0  0  0  0  0  0  0
   -0.8754   -0.5137    0.0499 H   0  0  0  0  0  0  0  0  0  0  0  0
    0.0055   -2.2428   -0.0293 H   0  0  0  0  0  0  0  0  0  0  0  0
   -1.7562   -2.2428   -0.0293 H   0  0  0  0  0  0  0  0  0  0  0  0
  1  2  2  3
  1  5  1  0
  1  6  1  0
  2  3  1  0
  2 13  1  0
  3  4  2  0
  3  7  1  0
  8  9  1  0
  8 10  1  0
  8 11  1  0
  8 12  1  0
  9 14  1  0
  9 15  1  0
M  RAD  1   9   2
M  END
>  <reaction>  (5) 
rxn_895

>  <mol_properties>  (5) 
{"1": {"label": "*1", "atom_type": "Cd"}, "2": {"label": "*0", "atom_type": "CS"}, "7": {"label": "*4", "atom_type": "Cs"}, "8": {"label": "*3", "atom_type": "Cs"}, "12": {"label": "*2", "atom_type": "H0"}}

>  <type>  (5) 
unop_1

>  <geom_source>  (5) 
Heuristics

$$$$

     RDKit          3D

 15 13  0  0  0  0  0  0  0  0999 V2000
   -0.8368    1.8890   -0.9784 C   0  0  0  0  0  0  0  0  0  0  0  0
   -0.2675    0.8874   -0.3100 C   0  0  0  0  0  0  0  0  0  0  0  0
    0.0394    0.9860    1.1047 C   0  0  0  0  0  0  0  0  0  0  0  0
    0.7264   -0.1730    1.9933 S   0  0  0  0  0  0  0  0  0  0  0  0
   -1.0932    2.8204   -0.4859 H   0  0  0  0  0  0  0  0  0  0  0  0
   -1.0637    1.8104   -2.0337 H   0  0  0  0  0  0  0  0  0  0  0  0
   -0.2316    1.9361    1.5685 H   0  0  0  0  0  0  0  0  0  0  0  0
   -0.2675   -1.5456   -2.7797 C   0  0  0  0  0  0  0  0  0  0  0  0
   -0.2675   -1.5456   -1.2569 C   0  0  0  0  0  3  0  0  0  0  0  0
   -1.1483   -1.0371   -3.1756 H   0  0  0  0  0  0  0  0  0  0  0  0
    0.6134   -1.0371   -3.1756 H   0  0  0  0  0  0  0  0  0  0  0  0
   -0.2675   -2.5627   -3.1756 H   0  0  0  0  0  0  0  0  0  0  0  0
   -0.2675   -0.3251   -0.7819 H   0  0  0  0  0  0  0  0  0  0  0  0
    0.6134   -2.0542   -0.8611 H   0  0  0  0  0  0  0  0  0  0  0  0
   -1.1483   -2.0542   -0.8611 H   0  0  0  0  0  0  0  0  0  0  0  0
  1  2  2  3
  1  5  1  0
  1  6  1  0
  2  3  1  0
  2 13  1  0
  3  4  2  0
  3  7  1  0
  8  9  1  0
  8 10  1  0
  8 11  1  0
  8 12  1  0
  9 14  1  0
  9 15  1  0
M  RAD  1   9   2
M  END
>  <reaction>  (6) 
rxn_895

>  <mol_properties>  (6) 
{"1": {"label": "*1", "atom_type": "Cd"}, "2": {"label": "*0", "atom_type": "CS"}, "7": {"label": "*4", "atom_type": "Cs"}, "8": {"label": "*3", "atom_type": "Cs"}, "12": {"label": "*2", "atom_type": "H0"}}

>  <type>  (6) 
unop_2

>  <geom_source>  (6) 
Heuristics

$$$$

     RDKit          3D

 15 13  0  0  0  0  0  0  0  0999 V2000
   -1.2751    0.7611    2.1330 C   0  0  0  0  0  0  0  0  0  0  0  0
   -0.7057    0.4748    0.9634 C   0  0  0  0  0  0  0  0  0  0  0  0
    0.5194    1.1192    0.5286 C   0  0  0  0  0  0  0  0  0  0  0  0
    1.2779    0.8359   -0.8675 S   0  0  0  0  0  0  0  0  0  0  0  0
   -0.8404    1.4910    2.8069 H   0  0  0  0  0  0  0  0  0  0  0  0
   -2.1891    0.2775    2.4526 H   0  0  0  0  0  0  0  0  0  0  0  0
    0.9294    1.8478    1.2304 H   0  0  0  0  0  0  0  0  0  0  0  0
   -0.7057   -1.9582   -1.5063 C   0  0  0  0  0  0  0  0  0  0  0  0
   -0.7057   -1.9582    0.0165 C   0  0  0  0  0  3  0  0  0  0  0  0
   -1.5866   -1.4497   -1.9022 H   0  0  0  0  0  0  0  0  0  0  0  0
    0.1751   -1.4497   -1.9022 H   0  0  0  0  0  0  0  0  0  0  0  0
   -0.7057   -2.9753   -1.9022 H   0  0  0  0  0  0  0  0  0  0  0  0
   -0.7057   -0.7377    0.4915 H   0  0  0  0  0  0  0  0  0  0  0  0
    0.1751   -2.4668    0.4123 H   0  0  0  0  0  0  0  0  0  0  0  0
   -1.5866   -2.4668    0.4123 H   0  0  0  0  0  0  0  0  0  0  0  0
  1  2  2  3
  1  5  1  0
  1  6  1  0
  2  3  1  0
  2 13  1  0
  3  4  2  0
  3  7  1  0
  8  9  1  0
  8 10  1  0
  8 11  1  0
  8 12  1  0
  9 14  1  0
  9 15  1  0
M  RAD  1   9   2
M  END
>  <reaction>  (7) 
rxn_895

>  <mol_properties>  (7) 
{"1": {"label": "*1", "atom_type": "Cd"}, "2": {"label": "*0", "atom_type": "CS"}, "7": {"label": "*4", "atom_type": "Cs"}, "8": {"label": "*3", "atom_type": "Cs"}, "12": {"label": "*2", "atom_type": "H0"}}

>  <type>  (7) 
unop_3

>  <geom_source>  (7) 
Heuristics

$$$$

     RDKit          3D

 15 13  0  0  0  0  0  0  0  0999 V2000
    1.5332    1.7358   -0.4367 C   0  0  0  0  0  0  0  0  0  0  0  0
    0.5471    0.8853   -0.1568 C   0  0  0  0  0  0  0  0  0  0  0  0
   -0.1599    0.9209    1.1098 C   0  0  0  0  0  0  0  0  0  0  0  0
   -1.3635   -0.0669    1.5345 S   0  0  0  0  0  0  0  0  0  0  0  0
    1.8452    2.4904    0.2768 H   0  0  0  0  0  0  0  0  0  0  0  0
    2.0574    1.7050   -1.3831 H   0  0  0  0  0  0  0  0  0  0  0  0
    0.1793    1.6919    1.8039 H   0  0  0  0  0  0  0  0  0  0  0  0
    0.5471   -1.5477   -2.6265 C   0  0  0  0  0  0  0  0  0  0  0  0
    0.5471   -1.5477   -1.1037 C   0  0  0  0  0  3  0  0  0  0  0  0
   -0.3338   -1.0391   -3.0223 H   0  0  0  0  0  0  0  0  0  0  0  0
    1.4279   -1.0391   -3.0223 H   0  0  0  0  0  0  0  0  0  0  0  0
    0.5471   -2.5648   -3.0223 H   0  0  0  0  0  0  0  0  0  0  0  0
    0.5471   -0.3272   -0.6286 H   0  0  0  0  0  0  0  0  0  0  0  0
    1.4279   -2.0563   -0.7078 H   0  0  0  0  0  0  0  0  0  0  0  0
   -0.3338   -2.0563   -0.7078 H   0  0  0  0  0  0  0  0  0  0  0  0
  1  2  2  3
  1  5  1  0
  1  6  1  0
  2  3  1  0
  2 13  1  0
  3  4  2  0
  3  7  1  0
  8  9  1  0
  8 10  1  0
  8 11  1  0
  8 12  1  0
  9 14  1  0
  9 15  1  0
M  RAD  1   9   2
M  END
>  <reaction>  (8) 
rxn_895

>  <mol_properties>  (8) 
{"1": {"label": "*1", "atom_type": "Cd"}, "2": {"label": "*0", "atom_type": "CS"}, "7": {"label": "*4", "atom_type": "Cs"}, "8": {"label": "*3", "atom_type": "Cs"}, "12": {"label": "*2", "atom_type": "H0"}}

>  <type>  (8) 
unop_4

>  <geom_source>  (8) 
Heuristics

$$$$

     RDKit          3D

 15 13  0  0  0  0  0  0  0  0999 V2000
    0.0000    0.4861    2.5603 C   0  0  0  0  0  0  0  0  0  0  0  0
    0.0000    0.2552    1.2485 C   0  0  0  0  0  0  0  0  0  0  0  0
   -0.0000    1.3352    0.2796 C   0  0  0  0  0  0  0  0  0  0  0  0
   -0.0000    1.1503   -1.3237 S   0  0  0  0  0  0  0  0  0  0  0  0
    0.0000    1.4965    2.9539 H   0  0  0  0  0  0  0  0  0  0  0  0
    0.0000   -0.3232    3.2789 H   0  0  0  0  0  0  0  0  0  0  0  0
   -0.0000    2.3384    0.7097 H   0  0  0  0  0  0  0  0  0  0  0  0
    0.0000   -2.1779   -1.2212 C   0  0  0  0  0  0  0  0  0  0  0  0
    0.0000   -2.1779    0.3016 C   0  0  0  0  0  3  0  0  0  0  0  0
   -0.8808   -1.6693   -1.6170 H   0  0  0  0  0  0  0  0  0  0  0  0
    0.8808   -1.6693   -1.6170 H   0  0  0  0  0  0  0  0  0  0  0  0
   -0.0000   -3.1950   -1.6170 H   0  0  0  0  0  0  0  0  0  0  0  0
    0.0000   -0.9573    0.7766 H   0  0  0  0  0  0  0  0  0  0  0  0
    0.8808   -2.6864    0.6974 H   0  0  0  0  0  0  0  0  0  0  0  0
   -0.8808   -2.6864    0.6974 H   0  0  0  0  0  0  0  0  0  0  0  0
  1  2  2  3
  1  5  1  0
  1  6  1  0
  2  3  1  0
  2 13  1  0
  3  4  2  0
  3  7  1  0
  8  9  1  0
  8 10  1  0
  8 11  1  0
  8 12  1  0
  9 14  1  0
  9 15  1  0
M  RAD  1   9   2
M  END
>  <reaction>  (9) 
rxn_895

>  <mol_properties>  (9) 
{"1": {"label": "*1", "atom_type": "Cd"}, "2": {"label": "*0", "atom_type": "CS"}, "7": {"label": "*4", "atom_type": "Cs"}, "8": {"label": "*3", "atom_type": "Cs"}, "12": {"label": "*2", "atom_type": "H0"}}

>  <type>  (9) 
unop_5

>  <geom_source>  (9) 
Heuristics

$$$$

     RDKit          3D

 15 13  0  0  0  0  0  0  0  0999 V2000
    1.9205    1.4736    0.3782 C   0  0  0  0  0  0  0  0  0  0  0  0
    0.7818    0.8296    0.1276 C   0  0  0  0  0  0  0  0  0  0  0  0
   -0.3491    0.8899    1.0347 C   0  0  0  0  0  0  0  0  0  0  0  0
   -1.7634    0.1446    0.8134 S   0  0  0  0  0  0  0  0  0  0  0  0
    2.0441    2.0701    1.2753 H   0  0  0  0  0  0  0  0  0  0  0  0
    2.7611    1.4253   -0.3017 H   0  0  0  0  0  0  0  0  0  0  0  0
   -0.1906    1.4985    1.9268 H   0  0  0  0  0  0  0  0  0  0  0  0
    0.7818   -1.6034   -2.3421 C   0  0  0  0  0  0  0  0  0  0  0  0
    0.7818   -1.6034   -0.8193 C   0  0  0  0  0  3  0  0  0  0  0  0
   -0.0991   -1.0949   -2.7379 H   0  0  0  0  0  0  0  0  0  0  0  0
    1.6626   -1.0949   -2.7379 H   0  0  0  0  0  0  0  0  0  0  0  0
    0.7818   -2.6205   -2.7379 H   0  0  0  0  0  0  0  0  0  0  0  0
    0.7818   -0.3829   -0.3443 H   0  0  0  0  0  0  0  0  0  0  0  0
    1.6626   -2.1120   -0.4235 H   0  0  0  0  0  0  0  0  0  0  0  0
   -0.0991   -2.1120   -0.4235 H   0  0  0  0  0  0  0  0  0  0  0  0
  1  2  2  3
  1  5  1  0
  1  6  1  0
  2  3  1  0
  2 13  1  0
  3  4  2  0
  3  7  1  0
  8  9  1  0
  8 10  1  0
  8 11  1  0
  8 12  1  0
  9 14  1  0
  9 15  1  0
M  RAD  1   9   2
M  END
>  <reaction>  (10) 
rxn_895

>  <mol_properties>  (10) 
{"1": {"label": "*1", "atom_type": "Cd"}, "2": {"label": "*0", "atom_type": "CS"}, "7": {"label": "*4", "atom_type": "Cs"}, "8": {"label": "*3", "atom_type": "Cs"}, "12": {"label": "*2", "atom_type": "H0"}}

>  <type>  (10) 
unop_6

>  <geom_source>  (10) 
Heuristics

$$$$

     RDKit          3D

 15 13  0  0  0  0  0  0  0  0999 V2000
    1.8615    1.1363    1.3030 C   0  0  0  0  0  0  0  0  0  0  0  0
    0.8754    0.6988    0.5218 C   0  0  0  0  0  0  0  0  0  0  0  0
   -0.5196    0.9412    0.8393 C   0  0  0  0  0  0  0  0  0  0  0  0
   -1.7767    0.4505   -0.0459 S   0  0  0  0  0  0  0  0  0  0  0  0
    1.6558    1.6931    2.2105 H   0  0  0  0  0  0  0  0  0  0  0  0
    2.9005    0.9528    1.0616 H   0  0  0  0  0  0  0  0  0  0  0  0
   -0.6905    1.5040    1.7588 H   0  0  0  0  0  0  0  0  0  0  0  0
    0.8754   -1.7342   -1.9479 C   0  0  0  0  0  0  0  0  0  0  0  0
    0.8754   -1.7342   -0.4251 C   0  0  0  0  0  3  0  0  0  0  0  0
   -0.0055   -1.2256   -2.3437 H   0  0  0  0  0  0  0  0  0  0  0  0
    1.7562   -1.2257   -2.3437 H   0  0  0  0  0  0  0  0  0  0  0  0
    0.8754   -2.7513   -2.3437 H   0  0  0  0  0  0  0  0  0  0  0  0
    0.8754   -0.5137    0.0499 H   0  0  0  0  0  0  0  0  0  0  0  0
    1.7562   -2.2428   -0.0293 H   0  0  0  0  0  0  0  0  0  0  0  0
   -0.0055   -2.2428   -0.0293 H   0  0  0  0  0  0  0  0  0  0  0  0
  1  2  2  3
  1  5  1  0
  1  6  1  0
  2  3  1  0
  2 13  1  0
  3  4  2  0
  3  7  1  0
  8  9  1  0
  8 10  1  0
  8 11  1  0
  8 12  1  0
  9 14  1  0
  9 15  1  0
M  RAD  1   9   2
M  END
>  <reaction>  (11) 
rxn_895

>  <mol_properties>  (11) 
{"1": {"label": "*1", "atom_type": "Cd"}, "2": {"label": "*0", "atom_type": "CS"}, "7": {"label": "*4", "atom_type": "Cs"}, "8": {"label": "*3", "atom_type": "Cs"}, "12": {"label": "*2", "atom_type": "H0"}}

>  <type>  (11) 
unop_7

>  <geom_source>  (11) 
Heuristics

$$$$

     RDKit          3D

 15 13  0  0  0  0  0  0  0  0999 V2000
   -1.9205    1.4736    0.3782 C   0  0  0  0  0  0  0  0  0  0  0  0
   -0.7818    0.8296    0.1276 C   0  0  0  0  0  0  0  0  0  0  0  0
    0.3491    0.8899    1.0347 C   0  0  0  0  0  0  0  0  0  0  0  0
    1.7634    0.1446    0.8134 S   0  0  0  0  0  0  0  0  0  0  0  0
   -2.0441    2.0701    1.2753 H   0  0  0  0  0  0  0  0  0  0  0  0
   -2.7611    1.4253   -0.3017 H   0  0  0  0  0  0  0  0  0  0  0  0
    0.1906    1.4985    1.9268 H   0  0  0  0  0  0  0  0  0  0  0  0
   -0.7818   -1.6034   -2.3421 C   0  0  0  0  0  0  0  0  0  0  0  0
   -0.7818   -1.6034   -0.8193 C   0  0  0  0  0  3  0  0  0  0  0  0
   -1.6626   -1.0949   -2.7379 H   0  0  0  0  0  0  0  0  0  0  0  0
    0.0991   -1.0949   -2.7379 H   0  0  0  0  0  0  0  0  0  0  0  0
   -0.7818   -2.6205   -2.7379 H   0  0  0  0  0  0  0  0  0  0  0  0
   -0.7818   -0.3829   -0.3443 H   0  0  0  0  0  0  0  0  0  0  0  0
    0.0991   -2.1120   -0.4235 H   0  0  0  0  0  0  0  0  0  0  0  0
   -1.6626   -2.1120   -0.4235 H   0  0  0  0  0  0  0  0  0  0  0  0
  1  2  2  3
  1  5  1  0
  1  6  1  0
  2  3  1  0
  2 13  1  0
  3  4  2  0
  3  7  1  0
  8  9  1  0
  8 10  1  0
  8 11  1  0
  8 12  1  0
  9 14  1  0
  9 15  1  0
M  RAD  1   9   2
M  END
>  <reaction>  (12) 
rxn_895

>  <mol_properties>  (12) 
{"1": {"label": "*1", "atom_type": "Cd"}, "2": {"label": "*0", "atom_type": "CS"}, "7": {"label": "*4", "atom_type": "Cs"}, "8": {"label": "*3", "atom_type": "Cs"}, "12": {"label": "*2", "atom_type": "H0"}}

>  <type>  (12) 
unop_8

>  <geom_source>  (12) 
Heuristics

$$$$

     RDKit          3D

 15 13  0  0  0  0  0  0  0  0999 V2000
    0.8368    1.8890   -0.9784 C   0  0  0  0  0  0  0  0  0  0  0  0
    0.2675    0.8874   -0.3100 C   0  0  0  0  0  0  0  0  0  0  0  0
   -0.0394    0.9860    1.1047 C   0  0  0  0  0  0  0  0  0  0  0  0
   -0.7264   -0.1730    1.9933 S   0  0  0  0  0  0  0  0  0  0  0  0
    1.0932    2.8204   -0.4859 H   0  0  0  0  0  0  0  0  0  0  0  0
    1.0637    1.8104   -2.0338 H   0  0  0  0  0  0  0  0  0  0  0  0
    0.2316    1.9361    1.5685 H   0  0  0  0  0  0  0  0  0  0  0  0
    0.2675   -1.5456   -2.7797 C   0  0  0  0  0  0  0  0  0  0  0  0
    0.2675   -1.5456   -1.2569 C   0  0  0  0  0  3  0  0  0  0  0  0
   -0.6134   -1.0371   -3.1756 H   0  0  0  0  0  0  0  0  0  0  0  0
    1.1483   -1.0371   -3.1756 H   0  0  0  0  0  0  0  0  0  0  0  0
    0.2675   -2.5627   -3.1756 H   0  0  0  0  0  0  0  0  0  0  0  0
    0.2675   -0.3251   -0.7819 H   0  0  0  0  0  0  0  0  0  0  0  0
    1.1483   -2.0542   -0.8611 H   0  0  0  0  0  0  0  0  0  0  0  0
   -0.6134   -2.0542   -0.8611 H   0  0  0  0  0  0  0  0  0  0  0  0
  1  2  2  3
  1  5  1  0
  1  6  1  0
  2  3  1  0
  2 13  1  0
  3  4  2  0
  3  7  1  0
  8  9  1  0
  8 10  1  0
  8 11  1  0
  8 12  1  0
  9 14  1  0
  9 15  1  0
M  RAD  1   9   2
M  END
>  <reaction>  (13) 
rxn_895

>  <mol_properties>  (13) 
{"1": {"label": "*1", "atom_type": "Cd"}, "2": {"label": "*0", "atom_type": "CS"}, "7": {"label": "*4", "atom_type": "Cs"}, "8": {"label": "*3", "atom_type": "Cs"}, "12": {"label": "*2", "atom_type": "H0"}}

>  <type>  (13) 
unop_9

>  <geom_source>  (13) 
Heuristics

$$$$

     RDKit          3D

 15 13  0  0  0  0  0  0  0  0999 V2000
   -1.5332    1.7358   -0.4367 C   0  0  0  0  0  0  0  0  0  0  0  0
   -0.5471    0.8853   -0.1568 C   0  0  0  0  0  0  0  0  0  0  0  0
    0.1599    0.9209    1.1098 C   0  0  0  0  0  0  0  0  0  0  0  0
    1.3635   -0.0669    1.5345 S   0  0  0  0  0  0  0  0  0  0  0  0
   -1.8452    2.4904    0.2768 H   0  0  0  0  0  0  0  0  0  0  0  0
   -2.0574    1.7050   -1.3831 H   0  0  0  0  0  0  0  0  0  0  0  0
   -0.1793    1.6919    1.8039 H   0  0  0  0  0  0  0  0  0  0  0  0
   -0.5471   -1.5477   -2.6265 C   0  0  0  0  0  0  0  0  0  0  0  0
   -0.5471   -1.5477   -1.1037 C   0  0  0  0  0  3  0  0  0  0  0  0
   -1.4279   -1.0391   -3.0223 H   0  0  0  0  0  0  0  0  0  0  0  0
    0.3338   -1.0392   -3.0223 H   0  0  0  0  0  0  0  0  0  0  0  0
   -0.5471   -2.5648   -3.0223 H   0  0  0  0  0  0  0  0  0  0  0  0
   -0.5471   -0.3272   -0.6286 H   0  0  0  0  0  0  0  0  0  0  0  0
    0.3338   -2.0563   -0.7078 H   0  0  0  0  0  0  0  0  0  0  0  0
   -1.4279   -2.0563   -0.7078 H   0  0  0  0  0  0  0  0  0  0  0  0
  1  2  2  3
  1  5  1  0
  1  6  1  0
  2  3  1  0
  2 13  1  0
  3  4  2  0
  3  7  1  0
  8  9  1  0
  8 10  1  0
  8 11  1  0
  8 12  1  0
  9 14  1  0
  9 15  1  0
M  RAD  1   9   2
M  END
>  <reaction>  (14) 
rxn_895

>  <mol_properties>  (14) 
{"1": {"label": "*1", "atom_type": "Cd"}, "2": {"label": "*0", "atom_type": "CS"}, "7": {"label": "*4", "atom_type": "Cs"}, "8": {"label": "*3", "atom_type": "Cs"}, "12": {"label": "*2", "atom_type": "H0"}}

>  <type>  (14) 
unop_10

>  <geom_source>  (14) 
Heuristics

$$$$

     RDKit          3D

 15 13  0  0  0  0  0  0  0  0999 V2000
    1.2751    0.7611    2.1330 C   0  0  0  0  0  0  0  0  0  0  0  0
    0.7057    0.4748    0.9634 C   0  0  0  0  0  0  0  0  0  0  0  0
   -0.5194    1.1192    0.5286 C   0  0  0  0  0  0  0  0  0  0  0  0
   -1.2779    0.8359   -0.8675 S   0  0  0  0  0  0  0  0  0  0  0  0
    0.8404    1.4910    2.8069 H   0  0  0  0  0  0  0  0  0  0  0  0
    2.1891    0.2775    2.4526 H   0  0  0  0  0  0  0  0  0  0  0  0
   -0.9294    1.8478    1.2304 H   0  0  0  0  0  0  0  0  0  0  0  0
    0.7057   -1.9582   -1.5063 C   0  0  0  0  0  0  0  0  0  0  0  0
    0.7057   -1.9582    0.0165 C   0  0  0  0  0  3  0  0  0  0  0  0
   -0.1751   -1.4497   -1.9022 H   0  0  0  0  0  0  0  0  0  0  0  0
    1.5866   -1.4497   -1.9022 H   0  0  0  0  0  0  0  0  0  0  0  0
    0.7057   -2.9753   -1.9022 H   0  0  0  0  0  0  0  0  0  0  0  0
    0.7057   -0.7377    0.4915 H   0  0  0  0  0  0  0  0  0  0  0  0
    1.5866   -2.4668    0.4123 H   0  0  0  0  0  0  0  0  0  0  0  0
   -0.1751   -2.4668    0.4123 H   0  0  0  0  0  0  0  0  0  0  0  0
  1  2  2  3
  1  5  1  0
  1  6  1  0
  2  3  1  0
  2 13  1  0
  3  4  2  0
  3  7  1  0
  8  9  1  0
  8 10  1  0
  8 11  1  0
  8 12  1  0
  9 14  1  0
  9 15  1  0
M  RAD  1   9   2
M  END
>  <reaction>  (15) 
rxn_895

>  <mol_properties>  (15) 
{"1": {"label": "*1", "atom_type": "Cd"}, "2": {"label": "*0", "atom_type": "CS"}, "7": {"label": "*4", "atom_type": "Cs"}, "8": {"label": "*3", "atom_type": "Cs"}, "12": {"label": "*2", "atom_type": "H0"}}

>  <type>  (15) 
unop_11

>  <geom_source>  (15) 
Heuristics

$$$$

     RDKit          3D

 15 13  0  0  0  0  0  0  0  0999 V2000
   -0.0000    1.9359   -1.1648 C   0  0  0  0  0  0  0  0  0  0  0  0
   -0.0000    0.8790   -0.3543 C   0  0  0  0  0  0  0  0  0  0  0  0
    0.0000    1.0199    1.0898 C   0  0  0  0  0  0  0  0  0  0  0  0
    0.0000   -0.2002    2.1463 S   0  0  0  0  0  0  0  0  0  0  0  0
   -0.0000    2.9466   -0.7719 H   0  0  0  0  0  0  0  0  0  0  0  0
   -0.0000    1.8253   -2.2415 H   0  0  0  0  0  0  0  0  0  0  0  0
    0.0000    2.0499    1.4510 H   0  0  0  0  0  0  0  0  0  0  0  0
   -0.0000   -1.5541   -2.8240 C   0  0  0  0  0  0  0  0  0  0  0  0
   -0.0000   -1.5541   -1.3012 C   0  0  0  0  0  3  0  0  0  0  0  0
   -0.8808   -1.0455   -3.2198 H   0  0  0  0  0  0  0  0  0  0  0  0
    0.8808   -1.0455   -3.2198 H   0  0  0  0  0  0  0  0  0  0  0  0
   -0.0000   -2.5712   -3.2198 H   0  0  0  0  0  0  0  0  0  0  0  0
   -0.0000   -0.3336   -0.8262 H   0  0  0  0  0  0  0  0  0  0  0  0
    0.8808   -2.0626   -0.9054 H   0  0  0  0  0  0  0  0  0  0  0  0
   -0.8808   -2.0626   -0.9054 H   0  0  0  0  0  0  0  0  0  0  0  0
  1  2  2  3
  1  5  1  0
  1  6  1  0
  2  3  1  0
  2 13  1  0
  3  4  2  0
  3  7  1  0
  8  9  1  0
  8 10  1  0
  8 11  1  0
  8 12  1  0
  9 14  1  0
  9 15  1  0
M  RAD  1   9   2
M  END
>  <reaction>  (16) 
rxn_895

>  <mol_properties>  (16) 
{"1": {"label": "*1", "atom_type": "Cd"}, "2": {"label": "*0", "atom_type": "CS"}, "7": {"label": "*4", "atom_type": "Cs"}, "8": {"label": "*3", "atom_type": "Cs"}, "12": {"label": "*2", "atom_type": "H0"}}

>  <type>  (16) 
unop_12

>  <geom_source>  (16) 
Heuristics

$$$$

     RDKit          3D

 15 13  0  0  0  0  0  0  0  0999 V2000
    3.5991    0.6137    0.8030 S   0  0  0  0  0  0  0  0  0  0  0  0
   -2.1959    0.6251    0.2459 C   0  0  0  0  0  0  0  0  0  0  0  0
    1.1783   -0.0740   -0.2861 C   0  0  0  0  0  0  0  0  0  0  0  0
   -1.2828   -0.5844    0.3218 C   0  0  0  0  0  3  0  0  0  0  0  0
    1.7214   -0.6798   -1.3413 C   0  0  0  0  0  0  0  0  0  0  0  0
    1.9602    0.5695    0.7860 C   0  0  0  0  0  0  0  0  0  0  0  0
   -1.8503    1.3977    0.9638 H   0  0  0  0  0  0  0  0  0  0  0  0
   -2.1708    1.0464   -0.7806 H   0  0  0  0  0  0  0  0  0  0  0  0
   -3.2366    0.3300    0.4965 H   0  0  0  0  0  0  0  0  0  0  0  0
   -0.1069   -0.0455   -0.1914 H   0  0  0  0  0  0  0  0  0  0  0  0
   -1.6169   -1.3590   -0.4003 H   0  0  0  0  0  0  0  0  0  0  0  0
   -1.2956   -1.0067    1.3486 H   0  0  0  0  0  0  0  0  0  0  0  0
    1.0791   -1.1292   -2.0866 H   0  0  0  0  0  0  0  0  0  0  0  0
    2.7924   -0.7395   -1.4816 H   0  0  0  0  0  0  0  0  0  0  0  0
    1.4252    1.0357    1.6022 H   0  0  0  0  0  0  0  0  0  0  0  0
  1  6  2  0
  2  4  1  0
  2  7  1  0
  2  8  1  0
  2  9  1  0
  3  5  2  3
  3  6  1  0
  3 10  1  0
  4 11  1  0
  4 12  1  0
  5 13  1  0
  5 14  1  0
  6 15  1  0
M  RAD  1   4   2
M  END
>  <reaction>  (17) 
rxn_895

>  <mol_properties>  (17) 
{"1": {"label": "*1", "atom_type": "Cd"}, "2": {"label": "*0", "atom_type": "CS"}, "7": {"label": "*4", "atom_type": "Cs"}, "8": {"label": "*3", "atom_type": "Cs"}, "12": {"label": "*2", "atom_type": "H0"}}

>  <type>  (17) 
unop_13

>  <geom_source>  (17) 
AutoTST

$$$$

     RDKit          3D

 15 13  0  0  0  0  0  0  0  0999 V2000
   -0.8368    1.8890   -0.9784 C   0  0  0  0  0  0  0  0  0  0  0  0
   -0.2675    0.8874   -0.3100 C   0  0  0  0  0  0  0  0  0  0  0  0
    0.0394    0.9860    1.1047 C   0  0  0  0  0  0  0  0  0  0  0  0
    0.7264   -0.1730    1.9933 S   0  0  0  0  0  0  0  0  0  0  0  0
   -1.0932    2.8204   -0.4859 H   0  0  0  0  0  0  0  0  0  0  0  0
   -1.0637    1.8104   -2.0337 H   0  0  0  0  0  0  0  0  0  0  0  0
   -0.2316    1.9361    1.5685 H   0  0  0  0  0  0  0  0  0  0  0  0
   -0.2675   -1.5456   -2.7797 C   0  0  0  0  0  0  0  0  0  0  0  0
   -0.2675   -1.5456   -1.2570 C   0  0  0  0  0  3  0  0  0  0  0  0
   -1.1483   -1.0371   -3.1756 H   0  0  0  0  0  0  0  0  0  0  0  0
    0.6134   -1.0371   -3.1756 H   0  0  0  0  0  0  0  0  0  0  0  0
   -0.2675   -2.5627   -3.1756 H   0  0  0  0  0  0  0  0  0  0  0  0
   -0.2675   -0.3251   -0.7819 H   0  0  0  0  0  0  0  0  0  0  0  0
    0.6133   -2.0542   -0.8611 H   0  0  0  0  0  0  0  0  0  0  0  0
   -1.1483   -2.0542   -0.8611 H   0  0  0  0  0  0  0  0  0  0  0  0
  1  2  2  3
  1  5  1  0
  1  6  1  0
  2  3  1  0
  2 13  1  0
  3  4  2  0
  3  7  1  0
  8  9  1  0
  8 10  1  0
  8 11  1  0
  8 12  1  0
  9 14  1  0
  9 15  1  0
M  RAD  1   9   2
M  END
>  <reaction>  (18) 
rxn_895

>  <mol_properties>  (18) 
{"1": {"label": "*1", "atom_type": "Cd"}, "2": {"label": "*0", "atom_type": "CS"}, "7": {"label": "*4", "atom_type": "Cs"}, "8": {"label": "*3", "atom_type": "Cs"}, "12": {"label": "*2", "atom_type": "H0"}}

>  <type>  (18) 
unop_14

>  <geom_source>  (18) 
gaussian_log

$$$$
