
     RDKit          3D

 10  9  0  0  0  0  0  0  0  0999 V2000
    1.8334    0.0847   -0.1062 C   0  0  0  0  0  0  0  0  0  0  0  0
    0.5993   -0.4071   -0.0750 C   0  0  0  0  0  0  0  0  0  0  0  0
   -0.5993    0.4071    0.0750 C   0  0  0  0  0  0  0  0  0  0  0  0
   -1.8334   -0.0847    0.1062 C   0  0  0  0  0  0  0  0  0  0  0  0
    2.0179    1.1498   -0.0189 H   0  0  0  0  0  0  0  0  0  0  0  0
    2.6972   -0.5572   -0.2194 H   0  0  0  0  0  0  0  0  0  0  0  0
    0.4465   -1.4793   -0.1649 H   0  0  0  0  0  0  0  0  0  0  0  0
   -0.4465    1.4793    0.1649 H   0  0  0  0  0  0  0  0  0  0  0  0
   -2.0179   -1.1498    0.0189 H   0  0  0  0  0  0  0  0  0  0  0  0
   -2.6972    0.5572    0.2194 H   0  0  0  0  0  0  0  0  0  0  0  0
  1  2  2  3
  1  5  1  0
  1  6  1  0
  2  3  1  0
  2  7  1  0
  3  4  2  3
  3  8  1  0
  4  9  1  0
  4 10  1  0
M  END
>  <reaction>  (1) 
rxn_1660

>  <mol_properties>  (1) 
{"2": {"label": "donator", "atom_type": "Cd"}, "7": {"label": "d_hydrogen", "atom_type": "H0"}}

>  <type>  (1) 
r1h

$$$$

     RDKit          3D

 11 10  0  0  0  0  0  0  0  0999 V2000
   -0.9580    1.1013   -2.2955 C   0  0  0  0  0  0  0  0  0  0  0  0
   -0.5129    0.5941   -1.2929 C   0  0  0  0  0  0  0  0  0  0  0  0
   -0.0301   -0.0160   -0.1357 C   0  0  0  0  0  3  0  0  0  0  0  0
   -0.6593   -1.2845    0.3661 C   0  0  0  0  0  0  0  0  0  0  0  0
    1.0691    0.5292    0.5269 C   0  0  0  0  0  0  0  0  0  0  0  0
    2.0168    0.9794    1.1266 C   0  0  0  0  0  0  0  0  0  0  0  0
   -1.3415    1.5561   -3.1769 H   0  0  0  0  0  0  0  0  0  0  0  0
   -1.7166   -1.3186    0.1054 H   0  0  0  0  0  0  0  0  0  0  0  0
   -0.1742   -2.1550   -0.0865 H   0  0  0  0  0  0  0  0  0  0  0  0
   -0.5505   -1.3663    1.4470 H   0  0  0  0  0  0  0  0  0  0  0  0
    2.8514    1.3842    1.6465 H   0  0  0  0  0  0  0  0  0  0  0  0
  1  2  3  0
  1  7  1  0
  2  3  1  0
  3  4  1  0
  3  5  1  0
  4  8  1  0
  4  9  1  0
  4 10  1  0
  5  6  3  0
  6 11  1  0
M  RAD  1   3   2
M  END
>  <reaction>  (2) 
rxn_1660

>  <mol_properties>  (2) 
{"2": {"label": "acceptor", "atom_type": "Cs"}}

>  <type>  (2) 
r2

$$$$

     RDKit          3D

 12 11  0  0  0  0  0  0  0  0999 V2000
    2.1696    0.6854    1.1310 C   0  0  0  0  0  0  0  0  0  0  0  0
    1.2518    0.4145    0.4134 C   0  0  0  0  0  0  0  0  0  0  0  0
    0.1391    0.0443   -0.4683 C   0  0  0  0  0  0  0  0  0  0  0  0
   -0.2054   -1.4492   -0.3339 C   0  0  0  0  0  0  0  0  0  0  0  0
   -1.0375    0.8853   -0.2222 C   0  0  0  0  0  0  0  0  0  0  0  0
   -2.0160    1.5463   -0.0311 C   0  0  0  0  0  0  0  0  0  0  0  0
    2.9819    0.9356    1.7702 H   0  0  0  0  0  0  0  0  0  0  0  0
    0.4629    0.2285   -1.4981 H   0  0  0  0  0  0  0  0  0  0  0  0
   -0.5327   -1.6703    0.6812 H   0  0  0  0  0  0  0  0  0  0  0  0
    0.6727   -2.0535   -0.5593 H   0  0  0  0  0  0  0  0  0  0  0  0
   -1.0064   -1.7081   -1.0256 H   0  0  0  0  0  0  0  0  0  0  0  0
   -2.8802    2.1413    0.1426 H   0  0  0  0  0  0  0  0  0  0  0  0
  1  2  3  0
  1  7  1  0
  2  3  1  0
  3  4  1  0
  3  5  1  0
  3  8  1  0
  4  9  1  0
  4 10  1  0
  4 11  1  0
  5  6  3  0
  6 12  1  0
M  END
>  <reaction>  (3) 
rxn_1660

>  <mol_properties>  (3) 
{"2": {"label": "acceptor", "atom_type": "Cs"}, "11": {"label": "a_hydrogen", "atom_type": "H0"}}

>  <type>  (3) 
r2h

$$$$

     RDKit          3D

 21 19  0  0  0  0  0  0  0  0999 V2000
   -0.5278    0.6502   -2.7783 C   0  0  0  0  0  0  0  0  0  0  0  0
   -0.2683    0.8368   -1.6233 C   0  0  0  0  0  0  0  0  0  0  0  0
    0.0804    1.0057   -0.2270 C   0  0  0  0  0  0  0  0  0  0  0  0
    1.5534    1.3445    0.0022 C   0  0  0  0  0  0  0  0  0  0  0  0
   -0.8342    1.8638    0.4979 C   0  0  0  0  0  0  0  0  0  0  0  0
   -1.5766    2.5529    1.1389 C   0  0  0  0  0  0  0  0  0  0  0  0
   -0.7697    0.4999   -3.8029 H   0  0  0  0  0  0  0  0  0  0  0  0
    2.1826    0.5930   -0.4743 H   0  0  0  0  0  0  0  0  0  0  0  0
    1.7938    2.3225   -0.4158 H   0  0  0  0  0  0  0  0  0  0  0  0
    1.7647    1.3552    1.0711 H   0  0  0  0  0  0  0  0  0  0  0  0
   -2.2396    3.1733    1.6923 H   0  0  0  0  0  0  0  0  0  0  0  0
    1.0930   -2.5053   -0.7440 C   0  0  0  0  0  0  0  0  0  0  0  0
    0.6569   -2.4729    0.5117 C   0  0  0  0  0  0  0  0  0  0  0  0
   -0.0825   -1.3817    1.0950 C   0  0  0  0  0  3  0  0  0  0  0  0
   -0.7398   -1.2254    2.2222 C   0  0  0  0  0  0  0  0  0  0  0  0
    0.9028   -1.6889   -1.4311 H   0  0  0  0  0  0  0  0  0  0  0  0
    1.6428   -3.3577   -1.1207 H   0  0  0  0  0  0  0  0  0  0  0  0
    0.8615   -3.3135    1.1750 H   0  0  0  0  0  0  0  0  0  0  0  0
   -0.0542   -0.1006    0.2844 H   0  0  0  0  0  0  0  0  0  0  0  0
   -0.8397   -2.0409    2.9375 H   0  0  0  0  0  0  0  0  0  0  0  0
   -1.2148   -0.2835    2.4749 H   0  0  0  0  0  0  0  0  0  0  0  0
  1  2  3  0
  1  7  1  0
  2  3  1  0
  3  4  1  0
  3  5  1  0
  3 19  1  0
  4  8  1  0
  4  9  1  0
  4 10  1  0
  5  6  3  0
  6 11  1  0
 12 13  2  3
 12 16  1  0
 12 17  1  0
 13 14  1  0
 13 18  1  0
 14 15  2  3
 15 20  1  0
 15 21  1  0
M  RAD  1  14   2
M  END
>  <reaction>  (4) 
rxn_1660

>  <mol_properties>  (4) 
{"1": {"label": "*0", "atom_type": "Ct"}, "2": {"label": "*1", "atom_type": "Cs"}, "12": {"label": "*4", "atom_type": "Cd"}, "13": {"label": "*3", "atom_type": "Cd"}, "18": {"label": "*2", "atom_type": "H0"}}

>  <type>  (4) 
ts

$$$$

     RDKit          3D

 21 19  0  0  0  0  0  0  0  0999 V2000
   -2.2246    2.2197    0.0951 C   0  0  0  0  0  0  0  0  0  0  0  0
   -1.2291    1.6225   -0.1934 C   0  0  0  0  0  0  0  0  0  0  0  0
   -0.0165    0.8960   -0.5859 C   0  0  0  0  0  3  0  0  0  0  0  0
    0.4945    1.3655   -1.9592 C   0  0  0  0  0  0  0  0  0  0  0  0
    1.0281    1.0116    0.4377 C   0  0  0  0  0  0  0  0  0  0  0  0
    1.9024    1.1028    1.2489 C   0  0  0  0  0  0  0  0  0  0  0  0
   -3.1096    2.7507    0.3515 H   0  0  0  0  0  0  0  0  0  0  0  0
   -0.2847    1.2334   -2.7091 H   0  0  0  0  0  0  0  0  0  0  0  0
    0.7684    2.4190   -1.9190 H   0  0  0  0  0  0  0  0  0  0  0  0
    1.3708    0.7853   -2.2463 H   0  0  0  0  0  0  0  0  0  0  0  0
    2.6798    1.1838    1.9701 H   0  0  0  0  0  0  0  0  0  0  0  0
   -0.0165   -2.5880   -1.4372 C   0  0  0  0  0  0  0  0  0  0  0  0
   -0.0165   -2.5880   -0.1083 C   0  0  0  0  0  0  0  0  0  0  0  0
   -0.0165   -1.3806    0.7070 C   0  0  0  0  0  0  0  0  0  0  0  0
   -0.0165   -1.3806    2.0358 C   0  0  0  0  0  0  0  0  0  0  0  0
   -0.0165   -1.6614   -2.0007 H   0  0  0  0  0  0  0  0  0  0  0  0
   -0.0165   -3.5095   -2.0044 H   0  0  0  0  0  0  0  0  0  0  0  0
   -0.0165   -3.5329    0.4283 H   0  0  0  0  0  0  0  0  0  0  0  0
   -0.0165   -0.2467    0.0630 H   0  0  0  0  0  0  0  0  0  0  0  0
   -0.0165   -2.3072    2.5993 H   0  0  0  0  0  0  0  0  0  0  0  0
   -0.0165   -0.4591    2.6030 H   0  0  0  0  0  0  0  0  0  0  0  0
  1  2  3  0
  1  7  1  0
  2  3  1  0
  3  4  1  0
  3  5  1  0
  4  8  1  0
  4  9  1  0
  4 10  1  0
  5  6  3  0
  6 11  1  0
 12 13  2  3
 12 16  1  0
 12 17  1  0
 13 14  1  0
 13 18  1  0
 14 15  2  3
 14 19  1  0
 15 20  1  0
 15 21  1  0
M  RAD  1   3   2
M  END
>  <reaction>  (5) 
rxn_1660

>  <mol_properties>  (5) 
{"1": {"label": "*0", "atom_type": "Ct"}, "2": {"label": "*1", "atom_type": "Cs"}, "12": {"label": "*4", "atom_type": "Cd"}, "13": {"label": "*3", "atom_type": "Cd"}, "18": {"label": "*2", "atom_type": "H0"}}

>  <type>  (5) 
unop_1

>  <geom_source>  (5) 
Heuristics

$$$$

     RDKit          3D

 21 19  0  0  0  0  0  0  0  0999 V2000
   -0.9625    0.5812   -2.5858 C   0  0  0  0  0  0  0  0  0  0  0  0
   -0.4202    0.7557   -1.5340 C   0  0  0  0  0  0  0  0  0  0  0  0
    0.2799    0.9737   -0.2633 C   0  0  0  0  0  3  0  0  0  0  0  0
    1.5569    1.8078   -0.4666 C   0  0  0  0  0  0  0  0  0  0  0  0
   -0.6040    1.5895    0.7326 C   0  0  0  0  0  0  0  0  0  0  0  0
   -1.2986    2.1056    1.5584 C   0  0  0  0  0  0  0  0  0  0  0  0
   -1.4447    0.4260   -3.5209 H   0  0  0  0  0  0  0  0  0  0  0  0
    2.2139    1.3110   -1.1797 H   0  0  0  0  0  0  0  0  0  0  0  0
    1.3045    2.7954   -0.8503 H   0  0  0  0  0  0  0  0  0  0  0  0
    2.0791    1.9225    0.4827 H   0  0  0  0  0  0  0  0  0  0  0  0
   -1.9162    2.5644    2.2926 H   0  0  0  0  0  0  0  0  0  0  0  0
    0.2799   -2.5102   -1.1147 C   0  0  0  0  0  0  0  0  0  0  0  0
    0.2799   -2.5102    0.2142 C   0  0  0  0  0  0  0  0  0  0  0  0
    0.2799   -1.3029    1.0295 C   0  0  0  0  0  0  0  0  0  0  0  0
    0.2799   -1.3029    2.3584 C   0  0  0  0  0  0  0  0  0  0  0  0
    0.2799   -1.5836   -1.6781 H   0  0  0  0  0  0  0  0  0  0  0  0
    0.2799   -3.4317   -1.6818 H   0  0  0  0  0  0  0  0  0  0  0  0
    0.2799   -3.4551    0.7508 H   0  0  0  0  0  0  0  0  0  0  0  0
    0.2799   -0.1689    0.3856 H   0  0  0  0  0  0  0  0  0  0  0  0
    0.2799   -2.2295    2.9219 H   0  0  0  0  0  0  0  0  0  0  0  0
    0.2799   -0.3813    2.9256 H   0  0  0  0  0  0  0  0  0  0  0  0
  1  2  3  0
  1  7  1  0
  2  3  1  0
  3  4  1  0
  3  5  1  0
  4  8  1  0
  4  9  1  0
  4 10  1  0
  5  6  3  0
  6 11  1  0
 12 13  2  3
 12 16  1  0
 12 17  1  0
 13 14  1  0
 13 18  1  0
 14 15  2  3
 14 19  1  0
 15 20  1  0
 15 21  1  0
M  RAD  1   3   2
M  END
>  <reaction>  (6) 
rxn_1660

>  <mol_properties>  (6) 
{"1": {"label": "*0", "atom_type": "Ct"}, "2": {"label": "*1", "atom_type": "Cs"}, "12": {"label": "*4", "atom_type": "Cd"}, "13": {"label": "*3", "atom_type": "Cd"}, "18": {"label": "*2", "atom_type": "H0"}}

>  <type>  (6) 
unop_2

>  <geom_source>  (6) 
Heuristics

$$$$

     RDKit          3D

 21 19  0  0  0  0  0  0  0  0999 V2000
   -1.4636    2.6696    1.0089 C   0  0  0  0  0  0  0  0  0  0  0  0
   -0.8704    1.8674    0.3490 C   0  0  0  0  0  0  0  0  0  0  0  0
   -0.1703    0.8878   -0.4892 C   0  0  0  0  0  3  0  0  0  0  0  0
   -0.4451    1.1348   -1.9828 C   0  0  0  0  0  0  0  0  0  0  0  0
    1.2696    0.8792   -0.2081 C   0  0  0  0  0  0  0  0  0  0  0  0
    2.4491    0.8628   -0.0098 C   0  0  0  0  0  0  0  0  0  0  0  0
   -1.9909    3.3829    1.5955 H   0  0  0  0  0  0  0  0  0  0  0  0
   -1.5172    1.0975   -2.1731 H   0  0  0  0  0  0  0  0  0  0  0  0
   -0.0698    2.1138   -2.2778 H   0  0  0  0  0  0  0  0  0  0  0  0
    0.0523    0.3727   -2.5818 H   0  0  0  0  0  0  0  0  0  0  0  0
    3.4977    0.8483    0.1665 H   0  0  0  0  0  0  0  0  0  0  0  0
   -0.1703   -2.5961   -1.3405 C   0  0  0  0  0  0  0  0  0  0  0  0
   -0.1703   -2.5961   -0.0116 C   0  0  0  0  0  0  0  0  0  0  0  0
   -0.1703   -1.3888    0.8037 C   0  0  0  0  0  0  0  0  0  0  0  0
   -0.1703   -1.3888    2.1326 C   0  0  0  0  0  0  0  0  0  0  0  0
   -0.1703   -1.6695   -1.9039 H   0  0  0  0  0  0  0  0  0  0  0  0
   -0.1703   -3.5177   -1.9077 H   0  0  0  0  0  0  0  0  0  0  0  0
   -0.1703   -3.5411    0.5250 H   0  0  0  0  0  0  0  0  0  0  0  0
   -0.1703   -0.2549    0.1597 H   0  0  0  0  0  0  0  0  0  0  0  0
   -0.1703   -2.3154    2.6960 H   0  0  0  0  0  0  0  0  0  0  0  0
   -0.1703   -0.4673    2.6998 H   0  0  0  0  0  0  0  0  0  0  0  0
  1  2  3  0
  1  7  1  0
  2  3  1  0
  3  4  1  0
  3  5  1  0
  4  8  1  0
  4  9  1  0
  4 10  1  0
  5  6  3  0
  6 11  1  0
 12 13  2  3
 12 16  1  0
 12 17  1  0
 13 14  1  0
 13 18  1  0
 14 15  2  3
 14 19  1  0
 15 20  1  0
 15 21  1  0
M  RAD  1   3   2
M  END
>  <reaction>  (7) 
rxn_1660

>  <mol_properties>  (7) 
{"1": {"label": "*0", "atom_type": "Ct"}, "2": {"label": "*1", "atom_type": "Cs"}, "12": {"label": "*4", "atom_type": "Cd"}, "13": {"label": "*3", "atom_type": "Cd"}, "18": {"label": "*2", "atom_type": "H0"}}

>  <type>  (7) 
unop_3

>  <geom_source>  (7) 
Heuristics

$$$$

     RDKit          3D

 21 19  0  0  0  0  0  0  0  0999 V2000
    2.1528    0.9686   -1.6076 C   0  0  0  0  0  0  0  0  0  0  0  0
    1.1462    0.9426   -0.9620 C   0  0  0  0  0  0  0  0  0  0  0  0
   -0.0665    0.9075   -0.1370 C   0  0  0  0  0  3  0  0  0  0  0  0
    0.2115    1.4266    1.2846 C   0  0  0  0  0  0  0  0  0  0  0  0
   -1.1621    1.6506   -0.7692 C   0  0  0  0  0  0  0  0  0  0  0  0
   -2.0675    2.2630   -1.2551 C   0  0  0  0  0  0  0  0  0  0  0  0
    3.0478    0.9917   -2.1815 H   0  0  0  0  0  0  0  0  0  0  0  0
    1.0006    0.8348    1.7472 H   0  0  0  0  0  0  0  0  0  0  0  0
    0.5280    2.4683    1.2499 H   0  0  0  0  0  0  0  0  0  0  0  0
   -0.6924    1.3540    1.8886 H   0  0  0  0  0  0  0  0  0  0  0  0
   -2.8725    2.8074   -1.6870 H   0  0  0  0  0  0  0  0  0  0  0  0
   -0.0665   -2.5764   -0.9883 C   0  0  0  0  0  0  0  0  0  0  0  0
   -0.0665   -2.5764    0.3406 C   0  0  0  0  0  0  0  0  0  0  0  0
   -0.0665   -1.3691    1.1559 C   0  0  0  0  0  0  0  0  0  0  0  0
   -0.0665   -1.3691    2.4847 C   0  0  0  0  0  0  0  0  0  0  0  0
   -0.0665   -1.6498   -1.5518 H   0  0  0  0  0  0  0  0  0  0  0  0
   -0.0665   -3.4979   -1.5555 H   0  0  0  0  0  0  0  0  0  0  0  0
   -0.0665   -3.5213    0.8772 H   0  0  0  0  0  0  0  0  0  0  0  0
   -0.0665   -0.2351    0.5119 H   0  0  0  0  0  0  0  0  0  0  0  0
   -0.0665   -2.2957    3.0482 H   0  0  0  0  0  0  0  0  0  0  0  0
   -0.0665   -0.4475    3.0519 H   0  0  0  0  0  0  0  0  0  0  0  0
  1  2  3  0
  1  7  1  0
  2  3  1  0
  3  4  1  0
  3  5  1  0
  4  8  1  0
  4  9  1  0
  4 10  1  0
  5  6  3  0
  6 11  1  0
 12 13  2  3
 12 16  1  0
 12 17  1  0
 13 14  1  0
 13 18  1  0
 14 15  2  3
 14 19  1  0
 15 20  1  0
 15 21  1  0
M  RAD  1   3   2
M  END
>  <reaction>  (8) 
rxn_1660

>  <mol_properties>  (8) 
{"1": {"label": "*0", "atom_type": "Ct"}, "2": {"label": "*1", "atom_type": "Cs"}, "12": {"label": "*4", "atom_type": "Cd"}, "13": {"label": "*3", "atom_type": "Cd"}, "18": {"label": "*2", "atom_type": "H0"}}

>  <type>  (8) 
unop_4

>  <geom_source>  (8) 
Heuristics

$$$$

     RDKit          3D

 21 19  0  0  0  0  0  0  0  0999 V2000
   -0.2125    2.8200    1.5103 C   0  0  0  0  0  0  0  0  0  0  0  0
   -0.1798    1.9454    0.6949 C   0  0  0  0  0  0  0  0  0  0  0  0
   -0.1798    0.8731   -0.3064 C   0  0  0  0  0  3  0  0  0  0  0  0
   -1.4444    0.9276   -1.1813 C   0  0  0  0  0  0  0  0  0  0  0  0
    1.0359    0.9109   -1.1268 C   0  0  0  0  0  0  0  0  0  0  0  0
    2.0103    0.9285   -1.8204 C   0  0  0  0  0  0  0  0  0  0  0  0
   -0.2415    3.5975    2.2352 H   0  0  0  0  0  0  0  0  0  0  0  0
   -2.3322    0.8586   -0.5536 H   0  0  0  0  0  0  0  0  0  0  0  0
   -1.4784    1.8644   -1.7360 H   0  0  0  0  0  0  0  0  0  0  0  0
   -1.4405    0.0998   -1.8897 H   0  0  0  0  0  0  0  0  0  0  0  0
    2.8766    0.9442   -2.4370 H   0  0  0  0  0  0  0  0  0  0  0  0
   -0.1798   -2.6108   -1.1578 C   0  0  0  0  0  0  0  0  0  0  0  0
   -0.1798   -2.6108    0.1711 C   0  0  0  0  0  0  0  0  0  0  0  0
   -0.1798   -1.4035    0.9864 C   0  0  0  0  0  0  0  0  0  0  0  0
   -0.1798   -1.4035    2.3153 C   0  0  0  0  0  0  0  0  0  0  0  0
   -0.1798   -1.6842   -1.7212 H   0  0  0  0  0  0  0  0  0  0  0  0
   -0.1798   -3.5323   -1.7249 H   0  0  0  0  0  0  0  0  0  0  0  0
   -0.1798   -3.5557    0.7077 H   0  0  0  0  0  0  0  0  0  0  0  0
   -0.1798   -0.2695    0.3425 H   0  0  0  0  0  0  0  0  0  0  0  0
   -0.1798   -2.3301    2.8788 H   0  0  0  0  0  0  0  0  0  0  0  0
   -0.1798   -0.4819    2.8825 H   0  0  0  0  0  0  0  0  0  0  0  0
  1  2  3  0
  1  7  1  0
  2  3  1  0
  3  4  1  0
  3  5  1  0
  4  8  1  0
  4  9  1  0
  4 10  1  0
  5  6  3  0
  6 11  1  0
 12 13  2  3
 12 16  1  0
 12 17  1  0
 13 14  1  0
 13 18  1  0
 14 15  2  3
 14 19  1  0
 15 20  1  0
 15 21  1  0
M  RAD  1   3   2
M  END
>  <reaction>  (9) 
rxn_1660

>  <mol_properties>  (9) 
{"1": {"label": "*0", "atom_type": "Ct"}, "2": {"label": "*1", "atom_type": "Cs"}, "12": {"label": "*4", "atom_type": "Cd"}, "13": {"label": "*3", "atom_type": "Cd"}, "18": {"label": "*2", "atom_type": "H0"}}

>  <type>  (9) 
unop_5

>  <geom_source>  (9) 
Heuristics

$$$$

     RDKit          3D

 21 19  0  0  0  0  0  0  0  0999 V2000
    2.4597    1.5564   -0.5661 C   0  0  0  0  0  0  0  0  0  0  0  0
    1.3127    1.2494   -0.4218 C   0  0  0  0  0  0  0  0  0  0  0  0
   -0.0875    0.8686   -0.2055 C   0  0  0  0  0  3  0  0  0  0  0  0
   -0.5420    1.2053    1.2254 C   0  0  0  0  0  0  0  0  0  0  0  0
   -0.9678    1.4883   -1.2023 C   0  0  0  0  0  0  0  0  0  0  0  0
   -1.7097    1.9933   -1.9931 C   0  0  0  0  0  0  0  0  0  0  0  0
    3.4795    1.8294   -0.6944 H   0  0  0  0  0  0  0  0  0  0  0  0
    0.1020    0.7028    1.9463 H   0  0  0  0  0  0  0  0  0  0  0  0
   -0.4874    2.2799    1.3948 H   0  0  0  0  0  0  0  0  0  0  0  0
   -1.5706    0.8780    1.3739 H   0  0  0  0  0  0  0  0  0  0  0  0
   -2.3693    2.4422   -2.6962 H   0  0  0  0  0  0  0  0  0  0  0  0
   -0.0875   -2.6153   -1.0569 C   0  0  0  0  0  0  0  0  0  0  0  0
   -0.0875   -2.6153    0.2720 C   0  0  0  0  0  0  0  0  0  0  0  0
   -0.0875   -1.4080    1.0873 C   0  0  0  0  0  0  0  0  0  0  0  0
   -0.0875   -1.4080    2.4162 C   0  0  0  0  0  0  0  0  0  0  0  0
   -0.0875   -1.6887   -1.6203 H   0  0  0  0  0  0  0  0  0  0  0  0
   -0.0875   -3.5369   -1.6240 H   0  0  0  0  0  0  0  0  0  0  0  0
   -0.0875   -3.5602    0.8086 H   0  0  0  0  0  0  0  0  0  0  0  0
   -0.0875   -0.2741    0.4434 H   0  0  0  0  0  0  0  0  0  0  0  0
   -0.0875   -2.3346    2.9796 H   0  0  0  0  0  0  0  0  0  0  0  0
   -0.0875   -0.4864    2.9834 H   0  0  0  0  0  0  0  0  0  0  0  0
  1  2  3  0
  1  7  1  0
  2  3  1  0
  3  4  1  0
  3  5  1  0
  4  8  1  0
  4  9  1  0
  4 10  1  0
  5  6  3  0
  6 11  1  0
 12 13  2  3
 12 16  1  0
 12 17  1  0
 13 14  1  0
 13 18  1  0
 14 15  2  3
 14 19  1  0
 15 20  1  0
 15 21  1  0
M  RAD  1   3   2
M  END
>  <reaction>  (10) 
rxn_1660

>  <mol_properties>  (10) 
{"1": {"label": "*0", "atom_type": "Ct"}, "2": {"label": "*1", "atom_type": "Cs"}, "12": {"label": "*4", "atom_type": "Cd"}, "13": {"label": "*3", "atom_type": "Cd"}, "18": {"label": "*2", "atom_type": "H0"}}

>  <type>  (10) 
unop_6

>  <geom_source>  (10) 
Heuristics

$$$$

     RDKit          3D

 21 19  0  0  0  0  0  0  0  0999 V2000
    2.1251    2.1645    0.5046 C   0  0  0  0  0  0  0  0  0  0  0  0
    1.1450    1.5758    0.1532 C   0  0  0  0  0  0  0  0  0  0  0  0
   -0.0677    0.8493   -0.2394 C   0  0  0  0  0  3  0  0  0  0  0  0
   -1.1706    0.9902    0.8242 C   0  0  0  0  0  0  0  0  0  0  0  0
   -0.5432    1.2807   -1.5585 C   0  0  0  0  0  0  0  0  0  0  0  0
   -0.9614    1.6251   -2.6249 C   0  0  0  0  0  0  0  0  0  0  0  0
    2.9965    2.6879    0.8170 H   0  0  0  0  0  0  0  0  0  0  0  0
   -0.8070    0.6274    1.7850 H   0  0  0  0  0  0  0  0  0  0  0  0
   -1.4604    2.0348    0.9299 H   0  0  0  0  0  0  0  0  0  0  0  0
   -2.0452    0.4110    0.5296 H   0  0  0  0  0  0  0  0  0  0  0  0
   -1.3332    1.9312   -3.5731 H   0  0  0  0  0  0  0  0  0  0  0  0
   -0.0677   -2.6347   -1.0907 C   0  0  0  0  0  0  0  0  0  0  0  0
   -0.0677   -2.6347    0.2382 C   0  0  0  0  0  0  0  0  0  0  0  0
   -0.0677   -1.4273    1.0535 C   0  0  0  0  0  0  0  0  0  0  0  0
   -0.0677   -1.4273    2.3824 C   0  0  0  0  0  0  0  0  0  0  0  0
   -0.0677   -1.7081   -1.6541 H   0  0  0  0  0  0  0  0  0  0  0  0
   -0.0677   -3.5562   -1.6579 H   0  0  0  0  0  0  0  0  0  0  0  0
   -0.0677   -3.5796    0.7748 H   0  0  0  0  0  0  0  0  0  0  0  0
   -0.0677   -0.2934    0.4096 H   0  0  0  0  0  0  0  0  0  0  0  0
   -0.0677   -2.3539    2.9458 H   0  0  0  0  0  0  0  0  0  0  0  0
   -0.0677   -0.5058    2.9496 H   0  0  0  0  0  0  0  0  0  0  0  0
  1  2  3  0
  1  7  1  0
  2  3  1  0
  3  4  1  0
  3  5  1  0
  4  8  1  0
  4  9  1  0
  4 10  1  0
  5  6  3  0
  6 11  1  0
 12 13  2  3
 12 16  1  0
 12 17  1  0
 13 14  1  0
 13 18  1  0
 14 15  2  3
 14 19  1  0
 15 20  1  0
 15 21  1  0
M  RAD  1   3   2
M  END
>  <reaction>  (11) 
rxn_1660

>  <mol_properties>  (11) 
{"1": {"label": "*0", "atom_type": "Ct"}, "2": {"label": "*1", "atom_type": "Cs"}, "12": {"label": "*4", "atom_type": "Cd"}, "13": {"label": "*3", "atom_type": "Cd"}, "18": {"label": "*2", "atom_type": "H0"}}

>  <type>  (11) 
unop_7

>  <geom_source>  (11) 
Heuristics

$$$$

     RDKit          3D

 21 19  0  0  0  0  0  0  0  0999 V2000
   -2.3806    1.6122   -0.9799 C   0  0  0  0  0  0  0  0  0  0  0  0
   -1.2457    1.2966   -0.7720 C   0  0  0  0  0  0  0  0  0  0  0  0
    0.1545    0.9158   -0.5557 C   0  0  0  0  0  3  0  0  0  0  0  0
    1.0796    1.5846   -1.5875 C   0  0  0  0  0  0  0  0  0  0  0  0
    0.5822    1.2163    0.8151 C   0  0  0  0  0  0  0  0  0  0  0  0
    0.9615    1.4654    1.9218 C   0  0  0  0  0  0  0  0  0  0  0  0
   -3.3896    1.8928   -1.1647 H   0  0  0  0  0  0  0  0  0  0  0  0
    0.7660    1.3152   -2.5955 H   0  0  0  0  0  0  0  0  0  0  0  0
    1.0376    2.6681   -1.4843 H   0  0  0  0  0  0  0  0  0  0  0  0
    2.1067    1.2563   -1.4315 H   0  0  0  0  0  0  0  0  0  0  0  0
    1.2987    1.6869    2.9058 H   0  0  0  0  0  0  0  0  0  0  0  0
    0.1545   -2.5681   -1.4071 C   0  0  0  0  0  0  0  0  0  0  0  0
    0.1545   -2.5681   -0.0782 C   0  0  0  0  0  0  0  0  0  0  0  0
    0.1545   -1.3608    0.7371 C   0  0  0  0  0  0  0  0  0  0  0  0
    0.1545   -1.3608    2.0660 C   0  0  0  0  0  0  0  0  0  0  0  0
    0.1545   -1.6415   -1.9705 H   0  0  0  0  0  0  0  0  0  0  0  0
    0.1545   -3.4896   -1.9743 H   0  0  0  0  0  0  0  0  0  0  0  0
    0.1545   -3.5130    0.4584 H   0  0  0  0  0  0  0  0  0  0  0  0
    0.1545   -0.2268    0.0932 H   0  0  0  0  0  0  0  0  0  0  0  0
    0.1545   -2.2874    2.6294 H   0  0  0  0  0  0  0  0  0  0  0  0
    0.1545   -0.4392    2.6332 H   0  0  0  0  0  0  0  0  0  0  0  0
  1  2  3  0
  1  7  1  0
  2  3  1  0
  3  4  1  0
  3  5  1  0
  4  8  1  0
  4  9  1  0
  4 10  1  0
  5  6  3  0
  6 11  1  0
 12 13  2  3
 12 16  1  0
 12 17  1  0
 13 14  1  0
 13 18  1  0
 14 15  2  3
 14 19  1  0
 15 20  1  0
 15 21  1  0
M  RAD  1   3   2
M  END
>  <reaction>  (12) 
rxn_1660

>  <mol_properties>  (12) 
{"1": {"label": "*0", "atom_type": "Ct"}, "2": {"label": "*1", "atom_type": "Cs"}, "12": {"label": "*4", "atom_type": "Cd"}, "13": {"label": "*3", "atom_type": "Cd"}, "18": {"label": "*2", "atom_type": "H0"}}

>  <type>  (12) 
unop_8

>  <geom_source>  (12) 
Heuristics

$$$$

     RDKit          3D

 21 19  0  0  0  0  0  0  0  0999 V2000
    1.3319    0.5531   -2.3775 C   0  0  0  0  0  0  0  0  0  0  0  0
    0.7328    0.7320   -1.3577 C   0  0  0  0  0  0  0  0  0  0  0  0
    0.0327    0.9500   -0.0870 C   0  0  0  0  0  3  0  0  0  0  0  0
    0.9538    1.6168    0.9495 C   0  0  0  0  0  0  0  0  0  0  0  0
   -1.1966    1.7264   -0.2830 C   0  0  0  0  0  0  0  0  0  0  0  0
   -2.1957    2.3713   -0.4124 C   0  0  0  0  0  0  0  0  0  0  0  0
    1.8645    0.3941   -3.2841 H   0  0  0  0  0  0  0  0  0  0  0  0
    1.8399    1.0027    1.1067 H   0  0  0  0  0  0  0  0  0  0  0  0
    1.2653    2.6000    0.5991 H   0  0  0  0  0  0  0  0  0  0  0  0
    0.4248    1.7321    1.8950 H   0  0  0  0  0  0  0  0  0  0  0  0
   -3.0839    2.9447   -0.5275 H   0  0  0  0  0  0  0  0  0  0  0  0
    0.0327   -2.5340   -0.9384 C   0  0  0  0  0  0  0  0  0  0  0  0
    0.0327   -2.5340    0.3905 C   0  0  0  0  0  0  0  0  0  0  0  0
    0.0327   -1.3266    1.2058 C   0  0  0  0  0  0  0  0  0  0  0  0
    0.0327   -1.3266    2.5347 C   0  0  0  0  0  0  0  0  0  0  0  0
    0.0327   -1.6074   -1.5018 H   0  0  0  0  0  0  0  0  0  0  0  0
    0.0327   -3.4555   -1.5055 H   0  0  0  0  0  0  0  0  0  0  0  0
    0.0327   -3.4789    0.9271 H   0  0  0  0  0  0  0  0  0  0  0  0
    0.0327   -0.1927    0.5619 H   0  0  0  0  0  0  0  0  0  0  0  0
    0.0327   -2.2532    3.0981 H   0  0  0  0  0  0  0  0  0  0  0  0
    0.0327   -0.4051    3.1019 H   0  0  0  0  0  0  0  0  0  0  0  0
  1  2  3  0
  1  7  1  0
  2  3  1  0
  3  4  1  0
  3  5  1  0
  4  8  1  0
  4  9  1  0
  4 10  1  0
  5  6  3  0
  6 11  1  0
 12 13  2  3
 12 16  1  0
 12 17  1  0
 13 14  1  0
 13 18  1  0
 14 15  2  3
 14 19  1  0
 15 20  1  0
 15 21  1  0
M  RAD  1   3   2
M  END
>  <reaction>  (13) 
rxn_1660

>  <mol_properties>  (13) 
{"1": {"label": "*0", "atom_type": "Ct"}, "2": {"label": "*1", "atom_type": "Cs"}, "12": {"label": "*4", "atom_type": "Cd"}, "13": {"label": "*3", "atom_type": "Cd"}, "18": {"label": "*2", "atom_type": "H0"}}

>  <type>  (13) 
unop_9

>  <geom_source>  (13) 
Heuristics

$$$$

     RDKit          3D

 21 19  0  0  0  0  0  0  0  0999 V2000
   -1.9143    1.0156   -1.9561 C   0  0  0  0  0  0  0  0  0  0  0  0
   -0.9443    0.9824   -1.2570 C   0  0  0  0  0  0  0  0  0  0  0  0
    0.2683    0.9473   -0.4320 C   0  0  0  0  0  3  0  0  0  0  0  0
    1.4099    1.7461   -1.0849 C   0  0  0  0  0  0  0  0  0  0  0  0
   -0.0007    1.4214    0.9301 C   0  0  0  0  0  0  0  0  0  0  0  0
   -0.1890    1.8183    2.0426 C   0  0  0  0  0  0  0  0  0  0  0  0
   -2.7767    1.0451   -2.5777 H   0  0  0  0  0  0  0  0  0  0  0  0
    1.6173    1.3506   -2.0787 H   0  0  0  0  0  0  0  0  0  0  0  0
    1.1315    2.7953   -1.1754 H   0  0  0  0  0  0  0  0  0  0  0  0
    2.3094    1.6726   -0.4745 H   0  0  0  0  0  0  0  0  0  0  0  0
   -0.3565    2.1712    3.0318 H   0  0  0  0  0  0  0  0  0  0  0  0
    0.2683   -2.5366   -1.2833 C   0  0  0  0  0  0  0  0  0  0  0  0
    0.2683   -2.5366    0.0456 C   0  0  0  0  0  0  0  0  0  0  0  0
    0.2683   -1.3293    0.8609 C   0  0  0  0  0  0  0  0  0  0  0  0
    0.2683   -1.3293    2.1898 C   0  0  0  0  0  0  0  0  0  0  0  0
    0.2683   -1.6100   -1.8468 H   0  0  0  0  0  0  0  0  0  0  0  0
    0.2683   -3.4582   -1.8505 H   0  0  0  0  0  0  0  0  0  0  0  0
    0.2683   -3.4816    0.5822 H   0  0  0  0  0  0  0  0  0  0  0  0
    0.2683   -0.1954    0.2169 H   0  0  0  0  0  0  0  0  0  0  0  0
    0.2683   -2.2559    2.7532 H   0  0  0  0  0  0  0  0  0  0  0  0
    0.2683   -0.4077    2.7569 H   0  0  0  0  0  0  0  0  0  0  0  0
  1  2  3  0
  1  7  1  0
  2  3  1  0
  3  4  1  0
  3  5  1  0
  4  8  1  0
  4  9  1  0
  4 10  1  0
  5  6  3  0
  6 11  1  0
 12 13  2  3
 12 16  1  0
 12 17  1  0
 13 14  1  0
 13 18  1  0
 14 15  2  3
 14 19  1  0
 15 20  1  0
 15 21  1  0
M  RAD  1   3   2
M  END
>  <reaction>  (14) 
rxn_1660

>  <mol_properties>  (14) 
{"1": {"label": "*0", "atom_type": "Ct"}, "2": {"label": "*1", "atom_type": "Cs"}, "12": {"label": "*4", "atom_type": "Cd"}, "13": {"label": "*3", "atom_type": "Cd"}, "18": {"label": "*2", "atom_type": "H0"}}

>  <type>  (14) 
unop_10

>  <geom_source>  (14) 
Heuristics

$$$$

     RDKit          3D

 21 19  0  0  0  0  0  0  0  0999 V2000
    1.1631    2.6295    1.3067 C   0  0  0  0  0  0  0  0  0  0  0  0
    0.6161    1.8334    0.6011 C   0  0  0  0  0  0  0  0  0  0  0  0
   -0.0840    0.8538   -0.2371 C   0  0  0  0  0  3  0  0  0  0  0  0
   -1.5971    0.8618    0.0420 C   0  0  0  0  0  0  0  0  0  0  0  0
    0.1950    1.0750   -1.6603 C   0  0  0  0  0  0  0  0  0  0  0  0
    0.3932    1.2428   -2.8279 C   0  0  0  0  0  0  0  0  0  0  0  0
    1.6495    3.3372    1.9341 H   0  0  0  0  0  0  0  0  0  0  0  0
   -1.7802    0.6567    1.0963 H   0  0  0  0  0  0  0  0  0  0  0  0
   -2.0205    1.8344   -0.2053 H   0  0  0  0  0  0  0  0  0  0  0  0
   -2.0891    0.1004   -0.5624 H   0  0  0  0  0  0  0  0  0  0  0  0
    0.5694    1.3920   -3.8660 H   0  0  0  0  0  0  0  0  0  0  0  0
   -0.0840   -2.6301   -1.0884 C   0  0  0  0  0  0  0  0  0  0  0  0
   -0.0840   -2.6301    0.2405 C   0  0  0  0  0  0  0  0  0  0  0  0
   -0.0840   -1.4228    1.0558 C   0  0  0  0  0  0  0  0  0  0  0  0
   -0.0840   -1.4228    2.3847 C   0  0  0  0  0  0  0  0  0  0  0  0
   -0.0840   -1.7035   -1.6519 H   0  0  0  0  0  0  0  0  0  0  0  0
   -0.0840   -3.5517   -1.6556 H   0  0  0  0  0  0  0  0  0  0  0  0
   -0.0840   -3.5751    0.7771 H   0  0  0  0  0  0  0  0  0  0  0  0
   -0.0840   -0.2889    0.4118 H   0  0  0  0  0  0  0  0  0  0  0  0
   -0.0840   -2.3494    2.9481 H   0  0  0  0  0  0  0  0  0  0  0  0
   -0.0840   -0.5013    2.9518 H   0  0  0  0  0  0  0  0  0  0  0  0
  1  2  3  0
  1  7  1  0
  2  3  1  0
  3  4  1  0
  3  5  1  0
  4  8  1  0
  4  9  1  0
  4 10  1  0
  5  6  3  0
  6 11  1  0
 12 13  2  3
 12 16  1  0
 12 17  1  0
 13 14  1  0
 13 18  1  0
 14 15  2  3
 14 19  1  0
 15 20  1  0
 15 21  1  0
M  RAD  1   3   2
M  END
>  <reaction>  (15) 
rxn_1660

>  <mol_properties>  (15) 
{"1": {"label": "*0", "atom_type": "Ct"}, "2": {"label": "*1", "atom_type": "Cs"}, "12": {"label": "*4", "atom_type": "Cd"}, "13": {"label": "*3", "atom_type": "Cd"}, "18": {"label": "*2", "atom_type": "H0"}}

>  <type>  (15) 
unop_11

>  <geom_source>  (15) 
Heuristics

$$$$

     RDKit          3D

 21 19  0  0  0  0  0  0  0  0999 V2000
    0.2125    0.4133   -2.7276 C   0  0  0  0  0  0  0  0  0  0  0  0
    0.1798    0.6656   -1.5588 C   0  0  0  0  0  0  0  0  0  0  0  0
    0.1798    0.9762   -0.1249 C   0  0  0  0  0  3  0  0  0  0  0  0
    1.4444    1.7555    0.2764 C   0  0  0  0  0  0  0  0  0  0  0  0
   -1.0359    1.7001    0.2629 C   0  0  0  0  0  0  0  0  0  0  0  0
   -2.0103    2.3048    0.6030 C   0  0  0  0  0  0  0  0  0  0  0  0
    0.2415    0.1891   -3.7667 H   0  0  0  0  0  0  0  0  0  0  0  0
    2.3322    1.1810    0.0142 H   0  0  0  0  0  0  0  0  0  0  0  0
    1.4784    2.7118   -0.2439 H   0  0  0  0  0  0  0  0  0  0  0  0
    1.4405    1.9397    1.3503 H   0  0  0  0  0  0  0  0  0  0  0  0
   -2.8766    2.8424    0.9055 H   0  0  0  0  0  0  0  0  0  0  0  0
    0.1798   -2.5077   -0.9763 C   0  0  0  0  0  0  0  0  0  0  0  0
    0.1798   -2.5077    0.3526 C   0  0  0  0  0  0  0  0  0  0  0  0
    0.1798   -1.3004    1.1679 C   0  0  0  0  0  0  0  0  0  0  0  0
    0.1798   -1.3004    2.4968 C   0  0  0  0  0  0  0  0  0  0  0  0
    0.1798   -1.5811   -1.5397 H   0  0  0  0  0  0  0  0  0  0  0  0
    0.1798   -3.4293   -1.5435 H   0  0  0  0  0  0  0  0  0  0  0  0
    0.1798   -3.4527    0.8892 H   0  0  0  0  0  0  0  0  0  0  0  0
    0.1798   -0.1665    0.5240 H   0  0  0  0  0  0  0  0  0  0  0  0
    0.1798   -2.2270    3.0602 H   0  0  0  0  0  0  0  0  0  0  0  0
    0.1798   -0.3789    3.0640 H   0  0  0  0  0  0  0  0  0  0  0  0
  1  2  3  0
  1  7  1  0
  2  3  1  0
  3  4  1  0
  3  5  1  0
  4  8  1  0
  4  9  1  0
  4 10  1  0
  5  6  3  0
  6 11  1  0
 12 13  2  3
 12 16  1  0
 12 17  1  0
 13 14  1  0
 13 18  1  0
 14 15  2  3
 14 19  1  0
 15 20  1  0
 15 21  1  0
M  RAD  1   3   2
M  END
>  <reaction>  (16) 
rxn_1660

>  <mol_properties>  (16) 
{"1": {"label": "*0", "atom_type": "Ct"}, "2": {"label": "*1", "atom_type": "Cs"}, "12": {"label": "*4", "atom_type": "Cd"}, "13": {"label": "*3", "atom_type": "Cd"}, "18": {"label": "*2", "atom_type": "H0"}}

>  <type>  (16) 
unop_12

>  <geom_source>  (16) 
Heuristics

$$$$

     RDKit          3D

 21 19  0  0  0  0  0  0  0  0999 V2000
    1.2106   -0.1095    0.2285 C   0  0  0  0  0  3  0  0  0  0  0  0
    2.0626    1.0436   -0.2963 C   0  0  0  0  0  0  0  0  0  0  0  0
   -2.1163   -0.4227    0.2010 C   0  0  0  0  0  0  0  0  0  0  0  0
   -3.3227    0.1162    0.3831 C   0  0  0  0  0  0  0  0  0  0  0  0
   -1.3097    1.0254   -1.6765 C   0  0  0  0  0  0  0  0  0  0  0  0
    1.5897   -1.3663   -0.4286 C   0  0  0  0  0  0  0  0  0  0  0  0
    1.3773   -0.2495    1.6803 C   0  0  0  0  0  0  0  0  0  0  0  0
   -1.1373    0.0287   -0.8096 C   0  0  0  0  0  0  0  0  0  0  0  0
    1.8997   -2.3984   -0.9697 C   0  0  0  0  0  0  0  0  0  0  0  0
    1.5126   -0.3634    2.8731 C   0  0  0  0  0  0  0  0  0  0  0  0
   -0.1681    0.1631   -0.0547 H   0  0  0  0  0  0  0  0  0  0  0  0
    1.7560    1.9936    0.1912 H   0  0  0  0  0  0  0  0  0  0  0  0
    1.9155    1.1552   -1.3919 H   0  0  0  0  0  0  0  0  0  0  0  0
    3.1415    0.8652   -0.0932 H   0  0  0  0  0  0  0  0  0  0  0  0
   -1.8243   -1.2505    0.8341 H   0  0  0  0  0  0  0  0  0  0  0  0
   -3.9746   -0.2814    1.1502 H   0  0  0  0  0  0  0  0  0  0  0  0
   -3.6860    0.9437   -0.2081 H   0  0  0  0  0  0  0  0  0  0  0  0
   -2.2151    1.6127   -1.7174 H   0  0  0  0  0  0  0  0  0  0  0  0
   -0.5149    1.2616   -2.3705 H   0  0  0  0  0  0  0  0  0  0  0  0
    2.1719   -3.3041   -1.4446 H   0  0  0  0  0  0  0  0  0  0  0  0
    1.6316   -0.4632    3.9199 H   0  0  0  0  0  0  0  0  0  0  0  0
  1  2  1  0
  1  6  1  0
  1  7  1  0
  2 12  1  0
  2 13  1  0
  2 14  1  0
  3  4  2  3
  3  8  1  0
  3 15  1  0
  4 16  1  0
  4 17  1  0
  5  8  2  3
  5 18  1  0
  5 19  1  0
  6  9  3  0
  7 10  3  0
  8 11  1  0
  9 20  1  0
 10 21  1  0
M  RAD  1   1   2
M  END
>  <reaction>  (17) 
rxn_1660

>  <mol_properties>  (17) 
{"1": {"label": "*0", "atom_type": "Ct"}, "2": {"label": "*1", "atom_type": "Cs"}, "12": {"label": "*4", "atom_type": "Cd"}, "13": {"label": "*3", "atom_type": "Cd"}, "18": {"label": "*2", "atom_type": "H0"}}

>  <type>  (17) 
unop_13

>  <geom_source>  (17) 
AutoTST

$$$$
