
     RDKit          3D

 11 10  0  0  0  0  0  0  0  0999 V2000
   -1.2710    0.1907   -0.2084 C   0  0  0  0  0  0  0  0  0  0  0  0
    0.0202   -0.6130   -0.2928 C   0  0  0  0  0  0  0  0  0  0  0  0
    0.1086   -1.6953    0.7756 C   0  0  0  0  0  0  0  0  0  0  0  0
   -1.3607    0.6851    0.7620 H   0  0  0  0  0  0  0  0  0  0  0  0
   -2.1429   -0.4567   -0.3299 H   0  0  0  0  0  0  0  0  0  0  0  0
   -1.3158    0.9602   -0.9809 H   0  0  0  0  0  0  0  0  0  0  0  0
    0.8757    0.0616   -0.1992 H   0  0  0  0  0  0  0  0  0  0  0  0
    0.0997   -1.0712   -1.2825 H   0  0  0  0  0  0  0  0  0  0  0  0
   -0.7198   -2.4022    0.6850 H   0  0  0  0  0  0  0  0  0  0  0  0
    1.0395   -2.2596    0.6989 H   0  0  0  0  0  0  0  0  0  0  0  0
    0.0624   -1.2603    1.7770 H   0  0  0  0  0  0  0  0  0  0  0  0
  1  2  1  0
  1  4  1  0
  1  5  1  0
  1  6  1  0
  2  3  1  0
  2  7  1  0
  2  8  1  0
  3  9  1  0
  3 10  1  0
  3 11  1  0
M  END
>  <reaction>  (1) 
rxn_934

>  <mol_properties>  (1) 
{"1": {"label": "donator", "atom_type": "Cs"}, "6": {"label": "d_hydrogen", "atom_type": "H0"}}

>  <type>  (1) 
r1h

$$$$

     RDKit          3D

  6  5  0  0  0  0  0  0  0  0999 V2000
   -0.7309   -0.0987    0.0327 C   0  0  0  0  0  0  0  0  0  0  0  0
    0.6208    0.0065   -0.0096 C   0  0  0  0  0  0  0  0  0  0  0  0
    1.6572   -1.2972    0.2837 S   0  0  0  0  0  1  0  0  0  0  0  0
   -1.3651    0.7588   -0.1608 H   0  0  0  0  0  0  0  0  0  0  0  0
   -1.2044   -1.0453    0.2616 H   0  0  0  0  0  0  0  0  0  0  0  0
    1.0609    0.9725   -0.2426 H   0  0  0  0  0  0  0  0  0  0  0  0
  1  2  2  3
  1  4  1  0
  1  5  1  0
  2  3  1  0
  2  6  1  0
M  RAD  1   3   2
M  END
>  <reaction>  (2) 
rxn_934

>  <mol_properties>  (2) 
{"0": {"label": "acceptor", "atom_type": "Cs"}}

>  <type>  (2) 
r2

$$$$

     RDKit          3D

  7  6  0  0  0  0  0  0  0  0999 V2000
   -0.6782    0.0507    0.0301 C   0  0  0  0  0  0  0  0  0  0  0  0
    0.8092    0.0996    0.0213 C   0  0  0  0  0  0  0  0  0  0  0  0
    1.7473    0.7521    1.1507 S   0  0  0  0  0  0  0  0  0  0  0  0
   -1.0667    0.5456   -0.8653 H   0  0  0  0  0  0  0  0  0  0  0  0
   -1.0112   -0.9904   -0.0239 H   0  0  0  0  0  0  0  0  0  0  0  0
   -1.0920    0.5225    0.9188 H   0  0  0  0  0  0  0  0  0  0  0  0
    1.2740   -0.3620   -0.8520 H   0  0  0  0  0  0  0  0  0  0  0  0
  1  2  1  0
  1  4  1  0
  1  5  1  0
  1  6  1  0
  2  3  2  0
  2  7  1  0
M  END
>  <reaction>  (3) 
rxn_934

>  <mol_properties>  (3) 
{"0": {"label": "acceptor", "atom_type": "Cs"}, "6": {"label": "a_hydrogen", "atom_type": "H0"}}

>  <type>  (3) 
r2h

$$$$

     RDKit          3D

 17 15  0  0  0  0  0  0  0  0999 V2000
    0.2464   -0.3536    0.9629 C   0  0  0  0  0  0  0  0  0  0  0  0
    1.4037    0.2845    0.3881 C   0  0  0  0  0  0  0  0  0  0  0  0
    1.9068    0.1337   -1.1566 S   0  0  0  0  0  0  0  0  0  0  0  0
    0.2558   -0.4482    2.0473 H   0  0  0  0  0  0  0  0  0  0  0  0
   -0.0848   -1.2517    0.4468 H   0  0  0  0  0  0  0  0  0  0  0  0
    1.9412    0.9675    1.0471 H   0  0  0  0  0  0  0  0  0  0  0  0
   -2.1772    0.7271   -0.9998 C   0  0  0  0  0  0  0  0  0  0  0  0
   -1.8012    1.3041    0.3296 C   0  0  0  0  0  3  0  0  0  0  0  0
   -1.1097    2.6308    0.3426 C   0  0  0  0  0  0  0  0  0  0  0  0
   -1.3092    0.6782   -1.6616 H   0  0  0  0  0  0  0  0  0  0  0  0
   -2.9326    1.3513   -1.4916 H   0  0  0  0  0  0  0  0  0  0  0  0
   -2.5906   -0.2772   -0.9019 H   0  0  0  0  0  0  0  0  0  0  0  0
   -0.7192    0.4258    0.7582 H   0  0  0  0  0  0  0  0  0  0  0  0
   -2.5204    1.1441    1.1306 H   0  0  0  0  0  0  0  0  0  0  0  0
   -1.7686    3.4144   -0.0486 H   0  0  0  0  0  0  0  0  0  0  0  0
   -0.8097    2.9226    1.3499 H   0  0  0  0  0  0  0  0  0  0  0  0
   -0.2199    2.6121   -0.2926 H   0  0  0  0  0  0  0  0  0  0  0  0
  1  2  1  0
  1  4  1  0
  1  5  1  0
  1 13  1  0
  2  3  2  0
  2  6  1  0
  7  8  1  0
  7 10  1  0
  7 11  1  0
  7 12  1  0
  8  9  1  0
  8 14  1  0
  9 15  1  0
  9 16  1  0
  9 17  1  0
M  RAD  1   8   2
M  END
>  <reaction>  (4) 
rxn_934

>  <mol_properties>  (4) 
{"0": {"label": "*1", "atom_type": "Cs"}, "1": {"label": "*0", "atom_type": "CS"}, "6": {"label": "*4", "atom_type": "Cs"}, "7": {"label": "*3", "atom_type": "Cs"}, "12": {"label": "*2", "atom_type": "H0"}}

>  <type>  (4) 
ts

$$$$

     RDKit          3D

 17 15  0  0  0  0  0  0  0  0999 V2000
    0.0554   -1.0889    0.0272 C   0  0  0  0  0  0  0  0  0  0  0  0
    0.8997   -0.1846    0.8543 C   0  0  0  0  0  0  0  0  0  0  0  0
    2.4474   -0.4026    1.2265 S   0  0  0  0  0  1  0  0  0  0  0  0
   -0.8111   -1.4165    0.6099 H   0  0  0  0  0  0  0  0  0  0  0  0
    0.6133   -1.9562   -0.3197 H   0  0  0  0  0  0  0  0  0  0  0  0
    0.3849    0.7027    1.2274 H   0  0  0  0  0  0  0  0  0  0  0  0
   -2.0443    0.2228   -2.3701 C   0  0  0  0  0  0  0  0  0  0  0  0
   -2.0443    0.2228   -0.8468 C   0  0  0  0  0  0  0  0  0  0  0  0
   -2.0443    1.6287   -0.2600 C   0  0  0  0  0  0  0  0  0  0  0  0
   -1.1628    0.7371   -2.7607 H   0  0  0  0  0  0  0  0  0  0  0  0
   -2.9257    0.7371   -2.7607 H   0  0  0  0  0  0  0  0  0  0  0  0
   -2.0443   -0.7920   -2.7712 H   0  0  0  0  0  0  0  0  0  0  0  0
   -0.9948   -0.4328   -0.4099 H   0  0  0  0  0  0  0  0  0  0  0  0
   -2.9188   -0.3235   -0.4827 H   0  0  0  0  0  0  0  0  0  0  0  0
   -2.9257    2.1872   -0.5842 H   0  0  0  0  0  0  0  0  0  0  0  0
   -2.0443    1.6080    0.8311 H   0  0  0  0  0  0  0  0  0  0  0  0
   -1.1628    2.1872   -0.5842 H   0  0  0  0  0  0  0  0  0  0  0  0
  1  2  2  3
  1  4  1  0
  1  5  1  0
  2  3  1  0
  2  6  1  0
  7  8  1  0
  7 10  1  0
  7 11  1  0
  7 12  1  0
  8  9  1  0
  8 13  1  0
  8 14  1  0
  9 15  1  0
  9 16  1  0
  9 17  1  0
M  RAD  1   3   2
M  END
>  <reaction>  (5) 
rxn_934

>  <mol_properties>  (5) 
{"0": {"label": "*1", "atom_type": "Cs"}, "1": {"label": "*0", "atom_type": "CS"}, "6": {"label": "*4", "atom_type": "Cs"}, "7": {"label": "*3", "atom_type": "Cs"}, "12": {"label": "*2", "atom_type": "H0"}}

>  <type>  (5) 
unop_1

>  <geom_source>  (5) 
Heuristics

$$$$

     RDKit          3D

 17 15  0  0  0  0  0  0  0  0999 V2000
    0.0905   -0.4701    1.0650 C   0  0  0  0  0  0  0  0  0  0  0  0
    1.2036   -0.3389    0.0860 C   0  0  0  0  0  0  0  0  0  0  0  0
    2.2286   -1.4961   -0.3515 S   0  0  0  0  0  1  0  0  0  0  0  0
    0.2264    0.2541    1.8742 H   0  0  0  0  0  0  0  0  0  0  0  0
    0.0329   -1.4750    1.4779 H   0  0  0  0  0  0  0  0  0  0  0  0
    1.3037    0.6534   -0.3580 H   0  0  0  0  0  0  0  0  0  0  0  0
   -2.0092    0.8417   -1.3323 C   0  0  0  0  0  0  0  0  0  0  0  0
   -2.0092    0.8417    0.1911 C   0  0  0  0  0  0  0  0  0  0  0  0
   -2.0092    2.2475    0.7778 C   0  0  0  0  0  0  0  0  0  0  0  0
   -1.1278    1.3559   -1.7229 H   0  0  0  0  0  0  0  0  0  0  0  0
   -2.8907    1.3559   -1.7229 H   0  0  0  0  0  0  0  0  0  0  0  0
   -2.0092   -0.1732   -1.7334 H   0  0  0  0  0  0  0  0  0  0  0  0
   -0.9598    0.1861    0.6279 H   0  0  0  0  0  0  0  0  0  0  0  0
   -2.8838    0.2953    0.5551 H   0  0  0  0  0  0  0  0  0  0  0  0
   -2.8907    2.8061    0.4536 H   0  0  0  0  0  0  0  0  0  0  0  0
   -2.0092    2.2268    1.8689 H   0  0  0  0  0  0  0  0  0  0  0  0
   -1.1278    2.8061    0.4536 H   0  0  0  0  0  0  0  0  0  0  0  0
  1  2  2  3
  1  4  1  0
  1  5  1  0
  2  3  1  0
  2  6  1  0
  7  8  1  0
  7 10  1  0
  7 11  1  0
  7 12  1  0
  8  9  1  0
  8 13  1  0
  8 14  1  0
  9 15  1  0
  9 16  1  0
  9 17  1  0
M  RAD  1   3   2
M  END
>  <reaction>  (6) 
rxn_934

>  <mol_properties>  (6) 
{"0": {"label": "*1", "atom_type": "Cs"}, "1": {"label": "*0", "atom_type": "CS"}, "6": {"label": "*4", "atom_type": "Cs"}, "7": {"label": "*3", "atom_type": "Cs"}, "12": {"label": "*2", "atom_type": "H0"}}

>  <type>  (6) 
unop_2

>  <geom_source>  (6) 
Heuristics

$$$$

     RDKit          3D

 17 15  0  0  0  0  0  0  0  0999 V2000
    0.2512   -1.0137   -0.2431 C   0  0  0  0  0  0  0  0  0  0  0  0
    0.6787   -0.4542    1.0679 C   0  0  0  0  0  0  0  0  0  0  0  0
    2.1783   -0.4150    1.6433 S   0  0  0  0  0  1  0  0  0  0  0  0
   -0.4924   -1.8002   -0.0813 H   0  0  0  0  0  0  0  0  0  0  0  0
    1.0927   -1.4144   -0.8043 H   0  0  0  0  0  0  0  0  0  0  0  0
   -0.1312   -0.0387    1.6706 H   0  0  0  0  0  0  0  0  0  0  0  0
   -1.8485    0.2980   -2.6404 C   0  0  0  0  0  0  0  0  0  0  0  0
   -1.8485    0.2980   -1.1170 C   0  0  0  0  0  0  0  0  0  0  0  0
   -1.8485    1.7039   -0.5303 C   0  0  0  0  0  0  0  0  0  0  0  0
   -0.9671    0.8123   -3.0310 H   0  0  0  0  0  0  0  0  0  0  0  0
   -2.7300    0.8123   -3.0310 H   0  0  0  0  0  0  0  0  0  0  0  0
   -1.8485   -0.7169   -3.0415 H   0  0  0  0  0  0  0  0  0  0  0  0
   -0.7991   -0.3576   -0.6802 H   0  0  0  0  0  0  0  0  0  0  0  0
   -2.7231   -0.2483   -0.7530 H   0  0  0  0  0  0  0  0  0  0  0  0
   -2.7300    2.2624   -0.8545 H   0  0  0  0  0  0  0  0  0  0  0  0
   -1.8485    1.6832    0.5608 H   0  0  0  0  0  0  0  0  0  0  0  0
   -0.9671    2.2624   -0.8545 H   0  0  0  0  0  0  0  0  0  0  0  0
  1  2  2  3
  1  4  1  0
  1  5  1  0
  2  3  1  0
  2  6  1  0
  7  8  1  0
  7 10  1  0
  7 11  1  0
  7 12  1  0
  8  9  1  0
  8 13  1  0
  8 14  1  0
  9 15  1  0
  9 16  1  0
  9 17  1  0
M  RAD  1   3   2
M  END
>  <reaction>  (7) 
rxn_934

>  <mol_properties>  (7) 
{"0": {"label": "*1", "atom_type": "Cs"}, "1": {"label": "*0", "atom_type": "CS"}, "6": {"label": "*4", "atom_type": "Cs"}, "7": {"label": "*3", "atom_type": "Cs"}, "12": {"label": "*2", "atom_type": "H0"}}

>  <type>  (7) 
unop_3

>  <geom_source>  (7) 
Heuristics

$$$$

     RDKit          3D

 17 15  0  0  0  0  0  0  0  0999 V2000
    1.1190    0.2323    0.4948 C   0  0  0  0  0  0  0  0  0  0  0  0
    1.0724   -1.1703   -0.0003 C   0  0  0  0  0  0  0  0  0  0  0  0
    0.3867   -2.4198    0.7413 S   0  0  0  0  0  1  0  0  0  0  0  0
    2.1608    0.5556    0.5832 H   0  0  0  0  0  0  0  0  0  0  0  0
    0.6194    0.3377    1.4555 H   0  0  0  0  0  0  0  0  0  0  0  0
    1.5613   -1.3288   -0.9634 H   0  0  0  0  0  0  0  0  0  0  0  0
   -0.9807    1.5440   -1.9025 C   0  0  0  0  0  0  0  0  0  0  0  0
   -0.9807    1.5440   -0.3792 C   0  0  0  0  0  0  0  0  0  0  0  0
   -0.9807    2.9499    0.2075 C   0  0  0  0  0  0  0  0  0  0  0  0
   -0.0993    2.0583   -2.2932 H   0  0  0  0  0  0  0  0  0  0  0  0
   -1.8622    2.0583   -2.2932 H   0  0  0  0  0  0  0  0  0  0  0  0
   -0.9807    0.5291   -2.3037 H   0  0  0  0  0  0  0  0  0  0  0  0
    0.0687    0.8884    0.0576 H   0  0  0  0  0  0  0  0  0  0  0  0
   -1.8552    0.9977   -0.0152 H   0  0  0  0  0  0  0  0  0  0  0  0
   -1.8622    3.5084   -0.1166 H   0  0  0  0  0  0  0  0  0  0  0  0
   -0.9807    2.9292    1.2986 H   0  0  0  0  0  0  0  0  0  0  0  0
   -0.0993    3.5084   -0.1166 H   0  0  0  0  0  0  0  0  0  0  0  0
  1  2  2  3
  1  4  1  0
  1  5  1  0
  2  3  1  0
  2  6  1  0
  7  8  1  0
  7 10  1  0
  7 11  1  0
  7 12  1  0
  8  9  1  0
  8 13  1  0
  8 14  1  0
  9 15  1  0
  9 16  1  0
  9 17  1  0
M  RAD  1   3   2
M  END
>  <reaction>  (8) 
rxn_934

>  <mol_properties>  (8) 
{"0": {"label": "*1", "atom_type": "Cs"}, "1": {"label": "*0", "atom_type": "CS"}, "6": {"label": "*4", "atom_type": "Cs"}, "7": {"label": "*3", "atom_type": "Cs"}, "12": {"label": "*2", "atom_type": "H0"}}

>  <type>  (8) 
unop_4

>  <geom_source>  (8) 
Heuristics

$$$$

     RDKit          3D

 17 15  0  0  0  0  0  0  0  0999 V2000
    0.5347   -0.9309   -0.4318 C   0  0  0  0  0  0  0  0  0  0  0  0
    0.5378   -0.9328    1.0564 C   0  0  0  0  0  0  0  0  0  0  0  0
    1.7008   -0.3630    2.0072 S   0  0  0  0  0  1  0  0  0  0  0  0
    0.4328   -1.9565   -0.7997 H   0  0  0  0  0  0  0  0  0  0  0  0
    1.4406   -0.4844   -0.8364 H   0  0  0  0  0  0  0  0  0  0  0  0
   -0.3520   -1.3714    1.5121 H   0  0  0  0  0  0  0  0  0  0  0  0
   -1.5650    0.3809   -2.8291 C   0  0  0  0  0  0  0  0  0  0  0  0
   -1.5650    0.3809   -1.3057 C   0  0  0  0  0  0  0  0  0  0  0  0
   -1.5650    1.7867   -0.7190 C   0  0  0  0  0  0  0  0  0  0  0  0
   -0.6835    0.8951   -3.2197 H   0  0  0  0  0  0  0  0  0  0  0  0
   -2.4464    0.8951   -3.2197 H   0  0  0  0  0  0  0  0  0  0  0  0
   -1.5650   -0.6340   -3.2302 H   0  0  0  0  0  0  0  0  0  0  0  0
   -0.5155   -0.2747   -0.8689 H   0  0  0  0  0  0  0  0  0  0  0  0
   -2.4395   -0.1655   -0.9417 H   0  0  0  0  0  0  0  0  0  0  0  0
   -2.4464    2.3453   -1.0432 H   0  0  0  0  0  0  0  0  0  0  0  0
   -1.5650    1.7660    0.3721 H   0  0  0  0  0  0  0  0  0  0  0  0
   -0.6835    2.3453   -1.0432 H   0  0  0  0  0  0  0  0  0  0  0  0
  1  2  2  3
  1  4  1  0
  1  5  1  0
  2  3  1  0
  2  6  1  0
  7  8  1  0
  7 10  1  0
  7 11  1  0
  7 12  1  0
  8  9  1  0
  8 13  1  0
  8 14  1  0
  9 15  1  0
  9 16  1  0
  9 17  1  0
M  RAD  1   3   2
M  END
>  <reaction>  (9) 
rxn_934

>  <mol_properties>  (9) 
{"0": {"label": "*1", "atom_type": "Cs"}, "1": {"label": "*0", "atom_type": "CS"}, "6": {"label": "*4", "atom_type": "Cs"}, "7": {"label": "*3", "atom_type": "Cs"}, "12": {"label": "*2", "atom_type": "H0"}}

>  <type>  (9) 
unop_5

>  <geom_source>  (9) 
Heuristics

$$$$

     RDKit          3D

 17 15  0  0  0  0  0  0  0  0999 V2000
    1.2629    0.0683    0.0455 C   0  0  0  0  0  0  0  0  0  0  0  0
    0.9189   -1.3699    0.2115 C   0  0  0  0  0  0  0  0  0  0  0  0
    0.1868   -2.0341    1.4781 S   0  0  0  0  0  1  0  0  0  0  0  0
    2.3415    0.1722   -0.1078 H   0  0  0  0  0  0  0  0  0  0  0  0
    0.9564    0.6583    0.9066 H   0  0  0  0  0  0  0  0  0  0  0  0
    1.2066   -2.0059   -0.6279 H   0  0  0  0  0  0  0  0  0  0  0  0
   -0.8368    1.3801   -2.3518 C   0  0  0  0  0  0  0  0  0  0  0  0
   -0.8368    1.3801   -0.8285 C   0  0  0  0  0  0  0  0  0  0  0  0
   -0.8368    2.7859   -0.2418 C   0  0  0  0  0  0  0  0  0  0  0  0
    0.0447    1.8944   -2.7424 H   0  0  0  0  0  0  0  0  0  0  0  0
   -1.7182    1.8944   -2.7424 H   0  0  0  0  0  0  0  0  0  0  0  0
   -0.8368    0.3652   -2.7530 H   0  0  0  0  0  0  0  0  0  0  0  0
    0.2127    0.7245   -0.3917 H   0  0  0  0  0  0  0  0  0  0  0  0
   -1.7113    0.8337   -0.4645 H   0  0  0  0  0  0  0  0  0  0  0  0
   -1.7182    3.3445   -0.5659 H   0  0  0  0  0  0  0  0  0  0  0  0
   -0.8368    2.7652    0.8494 H   0  0  0  0  0  0  0  0  0  0  0  0
    0.0447    3.3445   -0.5659 H   0  0  0  0  0  0  0  0  0  0  0  0
  1  2  2  3
  1  4  1  0
  1  5  1  0
  2  3  1  0
  2  6  1  0
  7  8  1  0
  7 10  1  0
  7 11  1  0
  7 12  1  0
  8  9  1  0
  8 13  1  0
  8 14  1  0
  9 15  1  0
  9 16  1  0
  9 17  1  0
M  RAD  1   3   2
M  END
>  <reaction>  (10) 
rxn_934

>  <mol_properties>  (10) 
{"0": {"label": "*1", "atom_type": "Cs"}, "1": {"label": "*0", "atom_type": "CS"}, "6": {"label": "*4", "atom_type": "Cs"}, "7": {"label": "*3", "atom_type": "Cs"}, "12": {"label": "*2", "atom_type": "H0"}}

>  <type>  (10) 
unop_6

>  <geom_source>  (10) 
Heuristics

$$$$

     RDKit          3D

 17 15  0  0  0  0  0  0  0  0999 V2000
    1.2071   -0.2714   -0.3295 C   0  0  0  0  0  0  0  0  0  0  0  0
    0.7647   -1.4268    0.4976 C   0  0  0  0  0  0  0  0  0  0  0  0
    0.3535   -1.3847    2.0502 S   0  0  0  0  0  1  0  0  0  0  0  0
    2.2020   -0.4728   -0.7386 H   0  0  0  0  0  0  0  0  0  0  0  0
    1.2270    0.6520    0.2455 H   0  0  0  0  0  0  0  0  0  0  0  0
    0.7278   -2.3791   -0.0347 H   0  0  0  0  0  0  0  0  0  0  0  0
   -0.8926    1.0403   -2.7267 C   0  0  0  0  0  0  0  0  0  0  0  0
   -0.8926    1.0403   -1.2034 C   0  0  0  0  0  0  0  0  0  0  0  0
   -0.8926    2.4461   -0.6167 C   0  0  0  0  0  0  0  0  0  0  0  0
   -0.0111    1.5546   -3.1174 H   0  0  0  0  0  0  0  0  0  0  0  0
   -1.7740    1.5546   -3.1174 H   0  0  0  0  0  0  0  0  0  0  0  0
   -0.8926    0.0254   -3.1279 H   0  0  0  0  0  0  0  0  0  0  0  0
    0.1568    0.3847   -0.7666 H   0  0  0  0  0  0  0  0  0  0  0  0
   -1.7671    0.4940   -0.8394 H   0  0  0  0  0  0  0  0  0  0  0  0
   -1.7740    3.0047   -0.9408 H   0  0  0  0  0  0  0  0  0  0  0  0
   -0.8926    2.4255    0.4744 H   0  0  0  0  0  0  0  0  0  0  0  0
   -0.0111    3.0047   -0.9408 H   0  0  0  0  0  0  0  0  0  0  0  0
  1  2  2  3
  1  4  1  0
  1  5  1  0
  2  3  1  0
  2  6  1  0
  7  8  1  0
  7 10  1  0
  7 11  1  0
  7 12  1  0
  8  9  1  0
  8 13  1  0
  8 14  1  0
  9 15  1  0
  9 16  1  0
  9 17  1  0
M  RAD  1   3   2
M  END
>  <reaction>  (11) 
rxn_934

>  <mol_properties>  (11) 
{"0": {"label": "*1", "atom_type": "Cs"}, "1": {"label": "*0", "atom_type": "CS"}, "6": {"label": "*4", "atom_type": "Cs"}, "7": {"label": "*3", "atom_type": "Cs"}, "12": {"label": "*2", "atom_type": "H0"}}

>  <type>  (11) 
unop_7

>  <geom_source>  (11) 
Heuristics

$$$$

     RDKit          3D

 17 15  0  0  0  0  0  0  0  0999 V2000
   -0.0783   -1.0536    0.4018 C   0  0  0  0  0  0  0  0  0  0  0  0
    1.0634   -0.1137    0.5678 C   0  0  0  0  0  0  0  0  0  0  0  0
    2.6181   -0.5096    0.6552 S   0  0  0  0  0  1  0  0  0  0  0  0
   -0.7732   -0.9382    1.2394 H   0  0  0  0  0  0  0  0  0  0  0  0
    0.2557   -2.0873    0.3421 H   0  0  0  0  0  0  0  0  0  0  0  0
    0.7801    0.9386    0.6330 H   0  0  0  0  0  0  0  0  0  0  0  0
   -2.1780    0.2582   -1.9955 C   0  0  0  0  0  0  0  0  0  0  0  0
   -2.1780    0.2582   -0.4722 C   0  0  0  0  0  0  0  0  0  0  0  0
   -2.1780    1.6640    0.1145 C   0  0  0  0  0  0  0  0  0  0  0  0
   -1.2966    0.7724   -2.3861 H   0  0  0  0  0  0  0  0  0  0  0  0
   -3.0595    0.7724   -2.3861 H   0  0  0  0  0  0  0  0  0  0  0  0
   -2.1780   -0.7567   -2.3967 H   0  0  0  0  0  0  0  0  0  0  0  0
   -1.1286   -0.3975   -0.0354 H   0  0  0  0  0  0  0  0  0  0  0  0
   -3.0525   -0.2882   -0.1082 H   0  0  0  0  0  0  0  0  0  0  0  0
   -3.0595    2.2225   -0.2096 H   0  0  0  0  0  0  0  0  0  0  0  0
   -2.1780    1.6433    1.2057 H   0  0  0  0  0  0  0  0  0  0  0  0
   -1.2966    2.2225   -0.2096 H   0  0  0  0  0  0  0  0  0  0  0  0
  1  2  2  3
  1  4  1  0
  1  5  1  0
  2  3  1  0
  2  6  1  0
  7  8  1  0
  7 10  1  0
  7 11  1  0
  7 12  1  0
  8  9  1  0
  8 13  1  0
  8 14  1  0
  9 15  1  0
  9 16  1  0
  9 17  1  0
M  RAD  1   3   2
M  END
>  <reaction>  (12) 
rxn_934

>  <mol_properties>  (12) 
{"0": {"label": "*1", "atom_type": "Cs"}, "1": {"label": "*0", "atom_type": "CS"}, "6": {"label": "*4", "atom_type": "Cs"}, "7": {"label": "*3", "atom_type": "Cs"}, "12": {"label": "*2", "atom_type": "H0"}}

>  <type>  (12) 
unop_8

>  <geom_source>  (12) 
Heuristics

$$$$

     RDKit          3D

 17 15  0  0  0  0  0  0  0  0999 V2000
    0.8138    0.1805    0.8887 C   0  0  0  0  0  0  0  0  0  0  0  0
    1.1840   -0.8773   -0.0903 C   0  0  0  0  0  0  0  0  0  0  0  0
    0.8996   -2.4519    0.0557 S   0  0  0  0  0  1  0  0  0  0  0  0
    1.7133    0.7162    1.2075 H   0  0  0  0  0  0  0  0  0  0  0  0
    0.3063   -0.2336    1.7573 H   0  0  0  0  0  0  0  0  0  0  0  0
    1.6971   -0.5120   -0.9820 H   0  0  0  0  0  0  0  0  0  0  0  0
   -1.2859    1.4923   -1.5086 C   0  0  0  0  0  0  0  0  0  0  0  0
   -1.2859    1.4923    0.0147 C   0  0  0  0  0  0  0  0  0  0  0  0
   -1.2859    2.8981    0.6014 C   0  0  0  0  0  0  0  0  0  0  0  0
   -0.4044    2.0066   -1.8992 H   0  0  0  0  0  0  0  0  0  0  0  0
   -2.1673    2.0066   -1.8992 H   0  0  0  0  0  0  0  0  0  0  0  0
   -1.2859    0.4774   -1.9098 H   0  0  0  0  0  0  0  0  0  0  0  0
   -0.2364    0.8367    0.4515 H   0  0  0  0  0  0  0  0  0  0  0  0
   -2.1604    0.9460    0.3787 H   0  0  0  0  0  0  0  0  0  0  0  0
   -2.1673    3.4567    0.2773 H   0  0  0  0  0  0  0  0  0  0  0  0
   -1.2859    2.8774    1.6926 H   0  0  0  0  0  0  0  0  0  0  0  0
   -0.4044    3.4567    0.2773 H   0  0  0  0  0  0  0  0  0  0  0  0
  1  2  2  3
  1  4  1  0
  1  5  1  0
  2  3  1  0
  2  6  1  0
  7  8  1  0
  7 10  1  0
  7 11  1  0
  7 12  1  0
  8  9  1  0
  8 13  1  0
  8 14  1  0
  9 15  1  0
  9 16  1  0
  9 17  1  0
M  RAD  1   3   2
M  END
>  <reaction>  (13) 
rxn_934

>  <mol_properties>  (13) 
{"0": {"label": "*1", "atom_type": "Cs"}, "1": {"label": "*0", "atom_type": "CS"}, "6": {"label": "*4", "atom_type": "Cs"}, "7": {"label": "*3", "atom_type": "Cs"}, "12": {"label": "*2", "atom_type": "H0"}}

>  <type>  (13) 
unop_9

>  <geom_source>  (13) 
Heuristics

$$$$

     RDKit          3D

 17 15  0  0  0  0  0  0  0  0999 V2000
   -0.0834   -0.8367    0.7922 C   0  0  0  0  0  0  0  0  0  0  0  0
    1.1567   -0.1797    0.2972 C   0  0  0  0  0  0  0  0  0  0  0  0
    2.5781   -0.8883    0.0543 S   0  0  0  0  0  1  0  0  0  0  0  0
   -0.4206   -0.3411    1.7078 H   0  0  0  0  0  0  0  0  0  0  0  0
    0.0707   -1.8965    0.9842 H   0  0  0  0  0  0  0  0  0  0  0  0
    1.0540    0.8870    0.0892 H   0  0  0  0  0  0  0  0  0  0  0  0
   -2.1831    0.4750   -1.6051 C   0  0  0  0  0  0  0  0  0  0  0  0
   -2.1831    0.4750   -0.0817 C   0  0  0  0  0  0  0  0  0  0  0  0
   -2.1831    1.8809    0.5050 C   0  0  0  0  0  0  0  0  0  0  0  0
   -1.3016    0.9893   -1.9957 H   0  0  0  0  0  0  0  0  0  0  0  0
   -3.0646    0.9893   -1.9957 H   0  0  0  0  0  0  0  0  0  0  0  0
   -2.1831   -0.5399   -2.0062 H   0  0  0  0  0  0  0  0  0  0  0  0
   -1.1337   -0.1806    0.3551 H   0  0  0  0  0  0  0  0  0  0  0  0
   -3.0576   -0.0713    0.2823 H   0  0  0  0  0  0  0  0  0  0  0  0
   -3.0646    2.4394    0.1808 H   0  0  0  0  0  0  0  0  0  0  0  0
   -2.1831    1.8602    1.5961 H   0  0  0  0  0  0  0  0  0  0  0  0
   -1.3016    2.4394    0.1808 H   0  0  0  0  0  0  0  0  0  0  0  0
  1  2  2  3
  1  4  1  0
  1  5  1  0
  2  3  1  0
  2  6  1  0
  7  8  1  0
  7 10  1  0
  7 11  1  0
  7 12  1  0
  8  9  1  0
  8 13  1  0
  8 14  1  0
  9 15  1  0
  9 16  1  0
  9 17  1  0
M  RAD  1   3   2
M  END
>  <reaction>  (14) 
rxn_934

>  <mol_properties>  (14) 
{"0": {"label": "*1", "atom_type": "Cs"}, "1": {"label": "*0", "atom_type": "CS"}, "6": {"label": "*4", "atom_type": "Cs"}, "7": {"label": "*3", "atom_type": "Cs"}, "12": {"label": "*2", "atom_type": "H0"}}

>  <type>  (14) 
unop_10

>  <geom_source>  (14) 
Heuristics

$$$$

     RDKit          3D

 17 15  0  0  0  0  0  0  0  0999 V2000
    0.9369   -0.6774   -0.5077 C   0  0  0  0  0  0  0  0  0  0  0  0
    0.6215   -1.3070    0.8033 C   0  0  0  0  0  0  0  0  0  0  0  0
    0.9129   -0.6822    2.2545 S   0  0  0  0  0  1  0  0  0  0  0  0
    1.5958   -1.3361   -1.0819 H   0  0  0  0  0  0  0  0  0  0  0  0
    1.4075    0.2958   -0.3850 H   0  0  0  0  0  0  0  0  0  0  0  0
    0.1468   -2.2876    0.7341 H   0  0  0  0  0  0  0  0  0  0  0  0
   -1.1628    0.6343   -2.9050 C   0  0  0  0  0  0  0  0  0  0  0  0
   -1.1628    0.6343   -1.3817 C   0  0  0  0  0  0  0  0  0  0  0  0
   -1.1628    2.0402   -0.7950 C   0  0  0  0  0  0  0  0  0  0  0  0
   -0.2814    1.1486   -3.2957 H   0  0  0  0  0  0  0  0  0  0  0  0
   -2.0443    1.1486   -3.2957 H   0  0  0  0  0  0  0  0  0  0  0  0
   -1.1628   -0.3805   -3.3062 H   0  0  0  0  0  0  0  0  0  0  0  0
   -0.1134   -0.0213   -0.9449 H   0  0  0  0  0  0  0  0  0  0  0  0
   -2.0374    0.0880   -1.0177 H   0  0  0  0  0  0  0  0  0  0  0  0
   -2.0443    2.5987   -1.1191 H   0  0  0  0  0  0  0  0  0  0  0  0
   -1.1628    2.0195    0.2961 H   0  0  0  0  0  0  0  0  0  0  0  0
   -0.2814    2.5987   -1.1191 H   0  0  0  0  0  0  0  0  0  0  0  0
  1  2  2  3
  1  4  1  0
  1  5  1  0
  2  3  1  0
  2  6  1  0
  7  8  1  0
  7 10  1  0
  7 11  1  0
  7 12  1  0
  8  9  1  0
  8 13  1  0
  8 14  1  0
  9 15  1  0
  9 16  1  0
  9 17  1  0
M  RAD  1   3   2
M  END
>  <reaction>  (15) 
rxn_934

>  <mol_properties>  (15) 
{"0": {"label": "*1", "atom_type": "Cs"}, "1": {"label": "*0", "atom_type": "CS"}, "6": {"label": "*4", "atom_type": "Cs"}, "7": {"label": "*3", "atom_type": "Cs"}, "12": {"label": "*2", "atom_type": "H0"}}

>  <type>  (15) 
unop_11

>  <geom_source>  (15) 
Heuristics

$$$$

     RDKit          3D

 17 15  0  0  0  0  0  0  0  0999 V2000
    0.4266   -0.0799    1.1052 C   0  0  0  0  0  0  0  0  0  0  0  0
    1.2213   -0.5764   -0.0509 C   0  0  0  0  0  0  0  0  0  0  0  0
    1.5968   -2.1074   -0.3613 S   0  0  0  0  0  1  0  0  0  0  0  0
    1.0219    0.6375    1.6784 H   0  0  0  0  0  0  0  0  0  0  0  0
    0.1073   -0.8928    1.7540 H   0  0  0  0  0  0  0  0  0  0  0  0
    1.5661    0.2027   -0.7335 H   0  0  0  0  0  0  0  0  0  0  0  0
   -1.6731    1.2318   -1.2921 C   0  0  0  0  0  0  0  0  0  0  0  0
   -1.6731    1.2318    0.2313 C   0  0  0  0  0  0  0  0  0  0  0  0
   -1.6731    2.6377    0.8180 C   0  0  0  0  0  0  0  0  0  0  0  0
   -0.7916    1.7461   -1.6827 H   0  0  0  0  0  0  0  0  0  0  0  0
   -2.5546    1.7461   -1.6827 H   0  0  0  0  0  0  0  0  0  0  0  0
   -1.6731    0.2169   -1.6932 H   0  0  0  0  0  0  0  0  0  0  0  0
   -0.6237    0.5762    0.6681 H   0  0  0  0  0  0  0  0  0  0  0  0
   -2.5476    0.6855    0.5953 H   0  0  0  0  0  0  0  0  0  0  0  0
   -2.5545    3.1962    0.4938 H   0  0  0  0  0  0  0  0  0  0  0  0
   -1.6731    2.6170    1.9091 H   0  0  0  0  0  0  0  0  0  0  0  0
   -0.7916    3.1962    0.4938 H   0  0  0  0  0  0  0  0  0  0  0  0
  1  2  2  3
  1  4  1  0
  1  5  1  0
  2  3  1  0
  2  6  1  0
  7  8  1  0
  7 10  1  0
  7 11  1  0
  7 12  1  0
  8  9  1  0
  8 13  1  0
  8 14  1  0
  9 15  1  0
  9 16  1  0
  9 17  1  0
M  RAD  1   3   2
M  END
>  <reaction>  (16) 
rxn_934

>  <mol_properties>  (16) 
{"0": {"label": "*1", "atom_type": "Cs"}, "1": {"label": "*0", "atom_type": "CS"}, "6": {"label": "*4", "atom_type": "Cs"}, "7": {"label": "*3", "atom_type": "Cs"}, "12": {"label": "*2", "atom_type": "H0"}}

>  <type>  (16) 
unop_12

>  <geom_source>  (16) 
Heuristics

$$$$

     RDKit          3D

 17 15  0  0  0  0  0  0  0  0999 V2000
    2.8105    0.8598    1.1910 S   0  0  0  0  0  0  0  0  0  0  0  0
   -1.8495   -0.7893    0.4309 C   0  0  0  0  0  0  0  0  0  0  0  0
   -0.9767    1.5099   -0.1243 C   0  0  0  0  0  0  0  0  0  0  0  0
    1.5509   -0.9292   -0.1094 C   0  0  0  0  0  0  0  0  0  0  0  0
   -0.8468    0.0148   -0.3874 C   0  0  0  0  0  3  0  0  0  0  0  0
    2.6478    0.0820   -0.0042 C   0  0  0  0  0  0  0  0  0  0  0  0
    1.5717   -1.3979   -1.1154 H   0  0  0  0  0  0  0  0  0  0  0  0
    1.6853   -1.7230    0.6563 H   0  0  0  0  0  0  0  0  0  0  0  0
    0.3727   -0.3414    0.0640 H   0  0  0  0  0  0  0  0  0  0  0  0
   -2.8880   -0.5022    0.1606 H   0  0  0  0  0  0  0  0  0  0  0  0
   -1.6867   -0.6135    1.5151 H   0  0  0  0  0  0  0  0  0  0  0  0
   -1.7099   -1.8704    0.2223 H   0  0  0  0  0  0  0  0  0  0  0  0
   -1.9888    1.8667   -0.4114 H   0  0  0  0  0  0  0  0  0  0  0  0
   -0.2198    2.0552   -0.7255 H   0  0  0  0  0  0  0  0  0  0  0  0
   -0.7987    1.7260    0.9503 H   0  0  0  0  0  0  0  0  0  0  0  0
   -0.9905   -0.1920   -1.4698 H   0  0  0  0  0  0  0  0  0  0  0  0
    3.3166    0.2447   -0.8431 H   0  0  0  0  0  0  0  0  0  0  0  0
  1  6  2  0
  2  5  1  0
  2 10  1  0
  2 11  1  0
  2 12  1  0
  3  5  1  0
  3 13  1  0
  3 14  1  0
  3 15  1  0
  4  6  1  0
  4  7  1  0
  4  8  1  0
  4  9  1  0
  5 16  1  0
  6 17  1  0
M  RAD  1   5   2
M  END
>  <reaction>  (17) 
rxn_934

>  <mol_properties>  (17) 
{"0": {"label": "*1", "atom_type": "Cs"}, "1": {"label": "*0", "atom_type": "CS"}, "6": {"label": "*4", "atom_type": "Cs"}, "7": {"label": "*3", "atom_type": "Cs"}, "12": {"label": "*2", "atom_type": "H0"}}

>  <type>  (17) 
unop_13

>  <geom_source>  (17) 
AutoTST

$$$$
