
     RDKit          3D

 11 10  0  0  0  0  0  0  0  0999 V2000
   -1.2710    0.1907   -0.2084 C   0  0  0  0  0  0  0  0  0  0  0  0
    0.0202   -0.6130   -0.2928 C   0  0  0  0  0  0  0  0  0  0  0  0
    0.1086   -1.6953    0.7756 C   0  0  0  0  0  0  0  0  0  0  0  0
   -1.3607    0.6851    0.7620 H   0  0  0  0  0  0  0  0  0  0  0  0
   -2.1429   -0.4567   -0.3299 H   0  0  0  0  0  0  0  0  0  0  0  0
   -1.3158    0.9602   -0.9809 H   0  0  0  0  0  0  0  0  0  0  0  0
    0.8757    0.0616   -0.1992 H   0  0  0  0  0  0  0  0  0  0  0  0
    0.0997   -1.0712   -1.2825 H   0  0  0  0  0  0  0  0  0  0  0  0
   -0.7198   -2.4022    0.6850 H   0  0  0  0  0  0  0  0  0  0  0  0
    1.0395   -2.2596    0.6989 H   0  0  0  0  0  0  0  0  0  0  0  0
    0.0624   -1.2603    1.7770 H   0  0  0  0  0  0  0  0  0  0  0  0
  1  2  1  0
  1  4  1  0
  1  5  1  0
  1  6  1  0
  2  3  1  0
  2  7  1  0
  2  8  1  0
  3  9  1  0
  3 10  1  0
  3 11  1  0
M  END
>  <reaction>  (1) 
rxn_300

>  <mol_properties>  (1) 
{"1": {"label": "donator", "atom_type": "Cs"}, "6": {"label": "d_hydrogen", "atom_type": "H0"}}

>  <type>  (1) 
r1h

$$$$

     RDKit          3D

  5  4  0  0  0  0  0  0  0  0999 V2000
   -0.0419    0.0056   -0.0340 C   0  0  0  0  0  0  0  0  0  0  0  0
    1.3118    0.0049   -0.1263 O   0  0  0  0  0  1  0  0  0  0  0  0
   -0.2615   -0.1535    1.0387 H   0  0  0  0  0  0  0  0  0  0  0  0
   -0.4946    0.9694   -0.3042 H   0  0  0  0  0  0  0  0  0  0  0  0
   -0.5138   -0.8264   -0.5743 H   0  0  0  0  0  0  0  0  0  0  0  0
  1  2  1  0
  1  3  1  0
  1  4  1  0
  1  5  1  0
M  RAD  1   2   2
M  END
>  <reaction>  (2) 
rxn_300

>  <mol_properties>  (2) 
{"1": {"label": "acceptor", "atom_type": "O2s"}}

>  <type>  (2) 
r2

$$$$

     RDKit          3D

  6  5  0  0  0  0  0  0  0  0999 V2000
   -0.3669    0.0060    0.0609 C   0  0  0  0  0  0  0  0  0  0  0  0
    0.9818   -0.0507    0.4695 O   0  0  0  0  0  0  0  0  0  0  0  0
   -0.6066    0.9462   -0.4488 H   0  0  0  0  0  0  0  0  0  0  0  0
   -0.5221   -0.8115   -0.6420 H   0  0  0  0  0  0  0  0  0  0  0  0
   -1.0602   -0.1268    0.8992 H   0  0  0  0  0  0  0  0  0  0  0  0
    1.1451    0.6595    1.0897 H   0  0  0  0  0  0  0  0  0  0  0  0
  1  2  1  0
  1  3  1  0
  1  4  1  0
  1  5  1  0
  2  6  1  0
M  END
>  <reaction>  (3) 
rxn_300

>  <mol_properties>  (3) 
{"1": {"label": "acceptor", "atom_type": "O2s"}, "5": {"label": "a_hydrogen", "atom_type": "H0"}}

>  <type>  (3) 
r2h

$$$$

     RDKit          3D

 16 14  0  0  0  0  0  0  0  0999 V2000
    1.8850   -0.2608    0.7091 C   0  0  0  0  0  0  0  0  0  0  0  0
    0.8268   -1.1416    0.8892 O   0  0  0  0  0  1  0  0  0  0  0  0
    2.7814   -0.7731    1.0774 H   0  0  0  0  0  0  0  0  0  0  0  0
    1.7723    0.6680    1.2831 H   0  0  0  0  0  0  0  0  0  0  0  0
    2.0594   -0.0152   -0.3471 H   0  0  0  0  0  0  0  0  0  0  0  0
   -0.8616   -0.0316   -1.6512 C   0  0  0  0  0  0  0  0  0  0  0  0
   -1.1102    0.0782   -0.1682 C   0  0  0  0  0  0  0  0  0  0  0  0
   -1.0623    1.4729    0.4021 C   0  0  0  0  0  0  0  0  0  0  0  0
    0.0907    0.4297   -1.9241 H   0  0  0  0  0  0  0  0  0  0  0  0
   -1.6468    0.4848   -2.2132 H   0  0  0  0  0  0  0  0  0  0  0  0
   -0.8427   -1.0717   -1.9771 H   0  0  0  0  0  0  0  0  0  0  0  0
   -0.2177   -0.5719    0.3835 H   0  0  0  0  0  0  0  0  0  0  0  0
   -1.9939   -0.4766    0.1534 H   0  0  0  0  0  0  0  0  0  0  0  0
   -1.8748    2.0833   -0.0056 H   0  0  0  0  0  0  0  0  0  0  0  0
   -1.1618    1.4651    1.4880 H   0  0  0  0  0  0  0  0  0  0  0  0
   -0.1234    1.9702    0.1469 H   0  0  0  0  0  0  0  0  0  0  0  0
  1  2  1  0
  1  3  1  0
  1  4  1  0
  1  5  1  0
  6  7  1  0
  6  9  1  0
  6 10  1  0
  6 11  1  0
  7  8  1  0
  7 12  1  0
  7 13  1  0
  8 14  1  0
  8 15  1  0
  8 16  1  0
M  RAD  1   2   2
M  END
>  <reaction>  (4) 
rxn_300

>  <mol_properties>  (4) 
{"0": {"label": "*4", "atom_type": "Cs"}, "1": {"label": "*3", "atom_type": "O2s"}, "5": {"label": "*0", "atom_type": "Cs"}, "6": {"label": "*1", "atom_type": "Cs"}, "11": {"label": "*2", "atom_type": "H0"}}

>  <type>  (4) 
ts

$$$$

     RDKit          3D

 16 14  0  0  0  0  0  0  0  0999 V2000
    1.7729   -0.3124    1.2824 C   0  0  0  0  0  0  0  0  0  0  0  0
    0.9864   -1.1850    0.5019 O   0  0  0  0  0  0  0  0  0  0  0  0
    2.0875   -0.8689    2.1643 H   0  0  0  0  0  0  0  0  0  0  0  0
    1.2104    0.5673    1.6152 H   0  0  0  0  0  0  0  0  0  0  0  0
    2.6707    0.0239    0.7513 H   0  0  0  0  0  0  0  0  0  0  0  0
   -0.9814    0.0444   -1.8405 C   0  0  0  0  0  0  0  0  0  0  0  0
   -0.9814    0.0444   -0.3171 C   0  0  0  0  0  3  0  0  0  0  0  0
   -0.9814    1.4502    0.2696 C   0  0  0  0  0  0  0  0  0  0  0  0
   -0.1000    0.5586   -2.2311 H   0  0  0  0  0  0  0  0  0  0  0  0
   -1.8629    0.5586   -2.2311 H   0  0  0  0  0  0  0  0  0  0  0  0
   -0.9814   -0.9705   -2.2416 H   0  0  0  0  0  0  0  0  0  0  0  0
    0.0680   -0.6112    0.1197 H   0  0  0  0  0  0  0  0  0  0  0  0
   -1.8560   -0.5020    0.0469 H   0  0  0  0  0  0  0  0  0  0  0  0
   -1.8629    2.0088   -0.0546 H   0  0  0  0  0  0  0  0  0  0  0  0
   -0.9814    1.4295    1.3607 H   0  0  0  0  0  0  0  0  0  0  0  0
   -0.1000    2.0088   -0.0546 H   0  0  0  0  0  0  0  0  0  0  0  0
  1  2  1  0
  1  3  1  0
  1  4  1  0
  1  5  1  0
  2 12  1  0
  6  7  1  0
  6  9  1  0
  6 10  1  0
  6 11  1  0
  7  8  1  0
  7 13  1  0
  8 14  1  0
  8 15  1  0
  8 16  1  0
M  RAD  1   7   2
M  END
>  <reaction>  (5) 
rxn_300

>  <mol_properties>  (5) 
{"0": {"label": "*4", "atom_type": "Cs"}, "1": {"label": "*3", "atom_type": "O2s"}, "5": {"label": "*0", "atom_type": "Cs"}, "6": {"label": "*1", "atom_type": "Cs"}, "11": {"label": "*2", "atom_type": "H0"}}

>  <type>  (5) 
unop_1

>  <geom_source>  (5) 
Heuristics

$$$$

     RDKit          3D

 16 14  0  0  0  0  0  0  0  0999 V2000
    1.9744   -0.8939   -0.0751 C   0  0  0  0  0  0  0  0  0  0  0  0
    0.9319   -1.0301    0.8650 O   0  0  0  0  0  0  0  0  0  0  0  0
    2.9049   -1.1164    0.4457 H   0  0  0  0  0  0  0  0  0  0  0  0
    2.0412    0.1240   -0.4758 H   0  0  0  0  0  0  0  0  0  0  0  0
    1.8735   -1.5955   -0.9109 H   0  0  0  0  0  0  0  0  0  0  0  0
   -1.0360    0.1993   -1.4774 C   0  0  0  0  0  0  0  0  0  0  0  0
   -1.0360    0.1993    0.0459 C   0  0  0  0  0  3  0  0  0  0  0  0
   -1.0360    1.6051    0.6326 C   0  0  0  0  0  0  0  0  0  0  0  0
   -0.1545    0.7136   -1.8681 H   0  0  0  0  0  0  0  0  0  0  0  0
   -1.9174    0.7136   -1.8681 H   0  0  0  0  0  0  0  0  0  0  0  0
   -1.0360   -0.8156   -1.8786 H   0  0  0  0  0  0  0  0  0  0  0  0
    0.0135   -0.4563    0.4827 H   0  0  0  0  0  0  0  0  0  0  0  0
   -1.9105   -0.3470    0.4099 H   0  0  0  0  0  0  0  0  0  0  0  0
   -1.9174    2.1637    0.3085 H   0  0  0  0  0  0  0  0  0  0  0  0
   -1.0360    1.5845    1.7237 H   0  0  0  0  0  0  0  0  0  0  0  0
   -0.1545    2.1637    0.3085 H   0  0  0  0  0  0  0  0  0  0  0  0
  1  2  1  0
  1  3  1  0
  1  4  1  0
  1  5  1  0
  2 12  1  0
  6  7  1  0
  6  9  1  0
  6 10  1  0
  6 11  1  0
  7  8  1  0
  7 13  1  0
  8 14  1  0
  8 15  1  0
  8 16  1  0
M  RAD  1   7   2
M  END
>  <reaction>  (6) 
rxn_300

>  <mol_properties>  (6) 
{"0": {"label": "*4", "atom_type": "Cs"}, "1": {"label": "*3", "atom_type": "O2s"}, "5": {"label": "*0", "atom_type": "Cs"}, "6": {"label": "*1", "atom_type": "Cs"}, "11": {"label": "*2", "atom_type": "H0"}}

>  <type>  (6) 
unop_2

>  <geom_source>  (6) 
Heuristics

$$$$

     RDKit          3D

 16 14  0  0  0  0  0  0  0  0999 V2000
    1.4595   -0.5714    1.6465 C   0  0  0  0  0  0  0  0  0  0  0  0
    1.0701   -1.1155    0.4050 O   0  0  0  0  0  0  0  0  0  0  0  0
    1.8845   -1.3852    2.2325 H   0  0  0  0  0  0  0  0  0  0  0  0
    0.6108   -0.1563    2.2020 H   0  0  0  0  0  0  0  0  0  0  0  0
    2.2232    0.2070    1.5370 H   0  0  0  0  0  0  0  0  0  0  0  0
   -0.8978    0.1139   -1.9374 C   0  0  0  0  0  0  0  0  0  0  0  0
   -0.8978    0.1139   -0.4141 C   0  0  0  0  0  3  0  0  0  0  0  0
   -0.8978    1.5197    0.1726 C   0  0  0  0  0  0  0  0  0  0  0  0
   -0.0164    0.6281   -2.3280 H   0  0  0  0  0  0  0  0  0  0  0  0
   -1.7793    0.6281   -2.3280 H   0  0  0  0  0  0  0  0  0  0  0  0
   -0.8978   -0.9010   -2.3386 H   0  0  0  0  0  0  0  0  0  0  0  0
    0.1516   -0.5418    0.0227 H   0  0  0  0  0  0  0  0  0  0  0  0
   -1.7724   -0.4325   -0.0501 H   0  0  0  0  0  0  0  0  0  0  0  0
   -1.7793    2.0782   -0.1515 H   0  0  0  0  0  0  0  0  0  0  0  0
   -0.8978    1.4990    1.2638 H   0  0  0  0  0  0  0  0  0  0  0  0
   -0.0164    2.0782   -0.1515 H   0  0  0  0  0  0  0  0  0  0  0  0
  1  2  1  0
  1  3  1  0
  1  4  1  0
  1  5  1  0
  2 12  1  0
  6  7  1  0
  6  9  1  0
  6 10  1  0
  6 11  1  0
  7  8  1  0
  7 13  1  0
  8 14  1  0
  8 15  1  0
  8 16  1  0
M  RAD  1   7   2
M  END
>  <reaction>  (7) 
rxn_300

>  <mol_properties>  (7) 
{"0": {"label": "*4", "atom_type": "Cs"}, "1": {"label": "*3", "atom_type": "O2s"}, "5": {"label": "*0", "atom_type": "Cs"}, "6": {"label": "*1", "atom_type": "Cs"}, "11": {"label": "*2", "atom_type": "H0"}}

>  <type>  (7) 
unop_3

>  <geom_source>  (7) 
Heuristics

$$$$

     RDKit          3D

 16 14  0  0  0  0  0  0  0  0999 V2000
    1.1031   -2.0467    0.2885 C   0  0  0  0  0  0  0  0  0  0  0  0
    1.1653   -0.7216    0.7676 O   0  0  0  0  0  0  0  0  0  0  0  0
    1.5219   -2.6865    1.0642 H   0  0  0  0  0  0  0  0  0  0  0  0
    1.6922   -2.1855   -0.6251 H   0  0  0  0  0  0  0  0  0  0  0  0
    0.0738   -2.3704    0.0964 H   0  0  0  0  0  0  0  0  0  0  0  0
   -0.8026    0.5078   -1.5748 C   0  0  0  0  0  0  0  0  0  0  0  0
   -0.8026    0.5078   -0.0515 C   0  0  0  0  0  3  0  0  0  0  0  0
   -0.8026    1.9136    0.5352 C   0  0  0  0  0  0  0  0  0  0  0  0
    0.0788    1.0220   -1.9655 H   0  0  0  0  0  0  0  0  0  0  0  0
   -1.6841    1.0220   -1.9655 H   0  0  0  0  0  0  0  0  0  0  0  0
   -0.8026   -0.5071   -1.9760 H   0  0  0  0  0  0  0  0  0  0  0  0
    0.2468   -0.1478    0.3853 H   0  0  0  0  0  0  0  0  0  0  0  0
   -1.6771   -0.0386    0.3125 H   0  0  0  0  0  0  0  0  0  0  0  0
   -1.6841    2.4722    0.2111 H   0  0  0  0  0  0  0  0  0  0  0  0
   -0.8026    1.8929    1.6263 H   0  0  0  0  0  0  0  0  0  0  0  0
    0.0788    2.4722    0.2111 H   0  0  0  0  0  0  0  0  0  0  0  0
  1  2  1  0
  1  3  1  0
  1  4  1  0
  1  5  1  0
  2 12  1  0
  6  7  1  0
  6  9  1  0
  6 10  1  0
  6 11  1  0
  7  8  1  0
  7 13  1  0
  8 14  1  0
  8 15  1  0
  8 16  1  0
M  RAD  1   7   2
M  END
>  <reaction>  (8) 
rxn_300

>  <mol_properties>  (8) 
{"0": {"label": "*4", "atom_type": "Cs"}, "1": {"label": "*3", "atom_type": "O2s"}, "5": {"label": "*0", "atom_type": "Cs"}, "6": {"label": "*1", "atom_type": "Cs"}, "11": {"label": "*2", "atom_type": "H0"}}

>  <type>  (8) 
unop_4

>  <geom_source>  (8) 
Heuristics

$$$$

     RDKit          3D

 16 14  0  0  0  0  0  0  0  0999 V2000
    1.1399   -0.9937    1.7799 C   0  0  0  0  0  0  0  0  0  0  0  0
    1.1549   -1.0030    0.3697 O   0  0  0  0  0  0  0  0  0  0  0  0
    2.0197   -1.5433    2.1121 H   0  0  0  0  0  0  0  0  0  0  0  0
    0.2519   -1.4893    2.1886 H   0  0  0  0  0  0  0  0  0  0  0  0
    1.1959    0.0217    2.1886 H   0  0  0  0  0  0  0  0  0  0  0  0
   -0.8130    0.2264   -1.9727 C   0  0  0  0  0  0  0  0  0  0  0  0
   -0.8130    0.2264   -0.4494 C   0  0  0  0  0  3  0  0  0  0  0  0
   -0.8130    1.6322    0.1373 C   0  0  0  0  0  0  0  0  0  0  0  0
    0.0685    0.7406   -2.3634 H   0  0  0  0  0  0  0  0  0  0  0  0
   -1.6944    0.7406   -2.3634 H   0  0  0  0  0  0  0  0  0  0  0  0
   -0.8130   -0.7885   -2.3739 H   0  0  0  0  0  0  0  0  0  0  0  0
    0.2364   -0.4292   -0.0126 H   0  0  0  0  0  0  0  0  0  0  0  0
   -1.6875   -0.3200   -0.0854 H   0  0  0  0  0  0  0  0  0  0  0  0
   -1.6944    2.1908   -0.1868 H   0  0  0  0  0  0  0  0  0  0  0  0
   -0.8130    1.6115    1.2284 H   0  0  0  0  0  0  0  0  0  0  0  0
    0.0685    2.1908   -0.1868 H   0  0  0  0  0  0  0  0  0  0  0  0
  1  2  1  0
  1  3  1  0
  1  4  1  0
  1  5  1  0
  2 12  1  0
  6  7  1  0
  6  9  1  0
  6 10  1  0
  6 11  1  0
  7  8  1  0
  7 13  1  0
  8 14  1  0
  8 15  1  0
  8 16  1  0
M  RAD  1   7   2
M  END
>  <reaction>  (9) 
rxn_300

>  <mol_properties>  (9) 
{"0": {"label": "*4", "atom_type": "Cs"}, "1": {"label": "*3", "atom_type": "O2s"}, "5": {"label": "*0", "atom_type": "Cs"}, "6": {"label": "*1", "atom_type": "Cs"}, "11": {"label": "*2", "atom_type": "H0"}}

>  <type>  (9) 
unop_5

>  <geom_source>  (9) 
Heuristics

$$$$

     RDKit          3D

 16 14  0  0  0  0  0  0  0  0999 V2000
    0.8794   -2.0738    0.7854 C   0  0  0  0  0  0  0  0  0  0  0  0
    1.2250   -0.7147    0.6347 O   0  0  0  0  0  0  0  0  0  0  0  0
    1.3133   -2.4110    1.7258 H   0  0  0  0  0  0  0  0  0  0  0  0
    1.2835   -2.6964   -0.0210 H   0  0  0  0  0  0  0  0  0  0  0  0
   -0.2052   -2.2228    0.8356 H   0  0  0  0  0  0  0  0  0  0  0  0
   -0.7429    0.5147   -1.7078 C   0  0  0  0  0  0  0  0  0  0  0  0
   -0.7429    0.5147   -0.1844 C   0  0  0  0  0  3  0  0  0  0  0  0
   -0.7429    1.9205    0.4023 C   0  0  0  0  0  0  0  0  0  0  0  0
    0.1386    1.0289   -2.0984 H   0  0  0  0  0  0  0  0  0  0  0  0
   -1.6243    1.0289   -2.0984 H   0  0  0  0  0  0  0  0  0  0  0  0
   -0.7429   -0.5002   -2.1089 H   0  0  0  0  0  0  0  0  0  0  0  0
    0.3066   -0.1410    0.2524 H   0  0  0  0  0  0  0  0  0  0  0  0
   -1.6174   -0.0317    0.1796 H   0  0  0  0  0  0  0  0  0  0  0  0
   -1.6243    2.4790    0.0781 H   0  0  0  0  0  0  0  0  0  0  0  0
   -0.7429    1.8998    1.4934 H   0  0  0  0  0  0  0  0  0  0  0  0
    0.1386    2.4790    0.0781 H   0  0  0  0  0  0  0  0  0  0  0  0
  1  2  1  0
  1  3  1  0
  1  4  1  0
  1  5  1  0
  2 12  1  0
  6  7  1  0
  6  9  1  0
  6 10  1  0
  6 11  1  0
  7  8  1  0
  7 13  1  0
  8 14  1  0
  8 15  1  0
  8 16  1  0
M  RAD  1   7   2
M  END
>  <reaction>  (10) 
rxn_300

>  <mol_properties>  (10) 
{"0": {"label": "*4", "atom_type": "Cs"}, "1": {"label": "*3", "atom_type": "O2s"}, "5": {"label": "*0", "atom_type": "Cs"}, "6": {"label": "*1", "atom_type": "Cs"}, "11": {"label": "*2", "atom_type": "H0"}}

>  <type>  (10) 
unop_6

>  <geom_source>  (10) 
Heuristics

$$$$

     RDKit          3D

 16 14  0  0  0  0  0  0  0  0999 V2000
    0.8053   -1.8613    1.2824 C   0  0  0  0  0  0  0  0  0  0  0  0
    1.2446   -0.7718    0.5019 O   0  0  0  0  0  0  0  0  0  0  0  0
    1.4434   -1.9000    2.1643 H   0  0  0  0  0  0  0  0  0  0  0  0
    0.8967   -2.8156    0.7513 H   0  0  0  0  0  0  0  0  0  0  0  0
   -0.2321   -1.7416    1.6152 H   0  0  0  0  0  0  0  0  0  0  0  0
   -0.7233    0.4576   -1.8405 C   0  0  0  0  0  0  0  0  0  0  0  0
   -0.7233    0.4576   -0.3171 C   0  0  0  0  0  3  0  0  0  0  0  0
   -0.7233    1.8634    0.2696 C   0  0  0  0  0  0  0  0  0  0  0  0
    0.1581    0.9718   -2.2311 H   0  0  0  0  0  0  0  0  0  0  0  0
   -1.6048    0.9718   -2.2311 H   0  0  0  0  0  0  0  0  0  0  0  0
   -0.7233   -0.5573   -2.2416 H   0  0  0  0  0  0  0  0  0  0  0  0
    0.3261   -0.1981    0.1197 H   0  0  0  0  0  0  0  0  0  0  0  0
   -1.5978   -0.0888    0.0469 H   0  0  0  0  0  0  0  0  0  0  0  0
   -1.6048    2.4219   -0.0546 H   0  0  0  0  0  0  0  0  0  0  0  0
   -0.7233    1.8427    1.3607 H   0  0  0  0  0  0  0  0  0  0  0  0
    0.1581    2.4219   -0.0546 H   0  0  0  0  0  0  0  0  0  0  0  0
  1  2  1  0
  1  3  1  0
  1  4  1  0
  1  5  1  0
  2 12  1  0
  6  7  1  0
  6  9  1  0
  6 10  1  0
  6 11  1  0
  7  8  1  0
  7 13  1  0
  8 14  1  0
  8 15  1  0
  8 16  1  0
M  RAD  1   7   2
M  END
>  <reaction>  (11) 
rxn_300

>  <mol_properties>  (11) 
{"0": {"label": "*4", "atom_type": "Cs"}, "1": {"label": "*3", "atom_type": "O2s"}, "5": {"label": "*0", "atom_type": "Cs"}, "6": {"label": "*1", "atom_type": "Cs"}, "11": {"label": "*2", "atom_type": "H0"}}

>  <type>  (11) 
unop_7

>  <geom_source>  (11) 
Heuristics

$$$$

     RDKit          3D

 16 14  0  0  0  0  0  0  0  0999 V2000
    1.9964   -0.2859    0.7854 C   0  0  0  0  0  0  0  0  0  0  0  0
    0.9265   -1.1925    0.6347 O   0  0  0  0  0  0  0  0  0  0  0  0
    2.4897   -0.5279    1.7258 H   0  0  0  0  0  0  0  0  0  0  0  0
    1.6547    0.7542    0.8356 H   0  0  0  0  0  0  0  0  0  0  0  0
    2.7331   -0.3760   -0.0210 H   0  0  0  0  0  0  0  0  0  0  0  0
   -1.0413    0.0369   -1.7078 C   0  0  0  0  0  0  0  0  0  0  0  0
   -1.0413    0.0369   -0.1844 C   0  0  0  0  0  3  0  0  0  0  0  0
   -1.0413    1.4427    0.4023 C   0  0  0  0  0  0  0  0  0  0  0  0
   -0.1599    0.5512   -2.0984 H   0  0  0  0  0  0  0  0  0  0  0  0
   -1.9228    0.5512   -2.0984 H   0  0  0  0  0  0  0  0  0  0  0  0
   -1.0413   -0.9780   -2.1089 H   0  0  0  0  0  0  0  0  0  0  0  0
    0.0081   -0.6187    0.2524 H   0  0  0  0  0  0  0  0  0  0  0  0
   -1.9159   -0.5094    0.1796 H   0  0  0  0  0  0  0  0  0  0  0  0
   -1.9228    2.0013    0.0781 H   0  0  0  0  0  0  0  0  0  0  0  0
   -1.0413    1.4221    1.4934 H   0  0  0  0  0  0  0  0  0  0  0  0
   -0.1599    2.0013    0.0781 H   0  0  0  0  0  0  0  0  0  0  0  0
  1  2  1  0
  1  3  1  0
  1  4  1  0
  1  5  1  0
  2 12  1  0
  6  7  1  0
  6  9  1  0
  6 10  1  0
  6 11  1  0
  7  8  1  0
  7 13  1  0
  8 14  1  0
  8 15  1  0
  8 16  1  0
M  RAD  1   7   2
M  END
>  <reaction>  (12) 
rxn_300

>  <mol_properties>  (12) 
{"0": {"label": "*4", "atom_type": "Cs"}, "1": {"label": "*3", "atom_type": "O2s"}, "5": {"label": "*0", "atom_type": "Cs"}, "6": {"label": "*1", "atom_type": "Cs"}, "11": {"label": "*2", "atom_type": "H0"}}

>  <type>  (12) 
unop_8

>  <geom_source>  (12) 
Heuristics

$$$$

     RDKit          3D

 16 14  0  0  0  0  0  0  0  0999 V2000
    1.4162   -1.7874   -0.0751 C   0  0  0  0  0  0  0  0  0  0  0  0
    1.0814   -0.7908    0.8650 O   0  0  0  0  0  0  0  0  0  0  0  0
    2.0243   -2.5260    0.4457 H   0  0  0  0  0  0  0  0  0  0  0  0
    2.0025   -1.3890   -0.9109 H   0  0  0  0  0  0  0  0  0  0  0  0
    0.5308   -2.2938   -0.4758 H   0  0  0  0  0  0  0  0  0  0  0  0
   -0.8865    0.4386   -1.4774 C   0  0  0  0  0  0  0  0  0  0  0  0
   -0.8865    0.4386    0.0459 C   0  0  0  0  0  3  0  0  0  0  0  0
   -0.8865    1.8444    0.6326 C   0  0  0  0  0  0  0  0  0  0  0  0
   -0.0050    0.9529   -1.8681 H   0  0  0  0  0  0  0  0  0  0  0  0
   -1.7679    0.9529   -1.8681 H   0  0  0  0  0  0  0  0  0  0  0  0
   -0.8865   -0.5763   -1.8786 H   0  0  0  0  0  0  0  0  0  0  0  0
    0.1630   -0.2170    0.4827 H   0  0  0  0  0  0  0  0  0  0  0  0
   -1.7610   -0.1077    0.4099 H   0  0  0  0  0  0  0  0  0  0  0  0
   -1.7679    2.4030    0.3085 H   0  0  0  0  0  0  0  0  0  0  0  0
   -0.8865    1.8238    1.7237 H   0  0  0  0  0  0  0  0  0  0  0  0
   -0.0050    2.4030    0.3085 H   0  0  0  0  0  0  0  0  0  0  0  0
  1  2  1  0
  1  3  1  0
  1  4  1  0
  1  5  1  0
  2 12  1  0
  6  7  1  0
  6  9  1  0
  6 10  1  0
  6 11  1  0
  7  8  1  0
  7 13  1  0
  8 14  1  0
  8 15  1  0
  8 16  1  0
M  RAD  1   7   2
M  END
>  <reaction>  (13) 
rxn_300

>  <mol_properties>  (13) 
{"0": {"label": "*4", "atom_type": "Cs"}, "1": {"label": "*3", "atom_type": "O2s"}, "5": {"label": "*0", "atom_type": "Cs"}, "6": {"label": "*1", "atom_type": "Cs"}, "11": {"label": "*2", "atom_type": "H0"}}

>  <type>  (13) 
unop_9

>  <geom_source>  (13) 
Heuristics

$$$$

     RDKit          3D

 16 14  0  0  0  0  0  0  0  0999 V2000
    2.0701   -0.4987    0.2885 C   0  0  0  0  0  0  0  0  0  0  0  0
    0.9065   -1.1358    0.7676 O   0  0  0  0  0  0  0  0  0  0  0  0
    2.8288   -0.5946    1.0642 H   0  0  0  0  0  0  0  0  0  0  0  0
    1.9096    0.5682    0.0963 H   0  0  0  0  0  0  0  0  0  0  0  0
    2.4533   -0.9674   -0.6251 H   0  0  0  0  0  0  0  0  0  0  0  0
   -1.0613    0.0936   -1.5748 C   0  0  0  0  0  0  0  0  0  0  0  0
   -1.0613    0.0936   -0.0515 C   0  0  0  0  0  3  0  0  0  0  0  0
   -1.0613    1.4994    0.5352 C   0  0  0  0  0  0  0  0  0  0  0  0
   -0.1799    0.6079   -1.9655 H   0  0  0  0  0  0  0  0  0  0  0  0
   -1.9428    0.6079   -1.9655 H   0  0  0  0  0  0  0  0  0  0  0  0
   -1.0613   -0.9213   -1.9760 H   0  0  0  0  0  0  0  0  0  0  0  0
   -0.0119   -0.5620    0.3853 H   0  0  0  0  0  0  0  0  0  0  0  0
   -1.9359   -0.4527    0.3125 H   0  0  0  0  0  0  0  0  0  0  0  0
   -1.9428    2.0580    0.2111 H   0  0  0  0  0  0  0  0  0  0  0  0
   -1.0613    1.4788    1.6263 H   0  0  0  0  0  0  0  0  0  0  0  0
   -0.1799    2.0580    0.2111 H   0  0  0  0  0  0  0  0  0  0  0  0
  1  2  1  0
  1  3  1  0
  1  4  1  0
  1  5  1  0
  2 12  1  0
  6  7  1  0
  6  9  1  0
  6 10  1  0
  6 11  1  0
  7  8  1  0
  7 13  1  0
  8 14  1  0
  8 15  1  0
  8 16  1  0
M  RAD  1   7   2
M  END
>  <reaction>  (14) 
rxn_300

>  <mol_properties>  (14) 
{"0": {"label": "*4", "atom_type": "Cs"}, "1": {"label": "*3", "atom_type": "O2s"}, "5": {"label": "*0", "atom_type": "Cs"}, "6": {"label": "*1", "atom_type": "Cs"}, "11": {"label": "*2", "atom_type": "H0"}}

>  <type>  (14) 
unop_10

>  <geom_source>  (14) 
Heuristics

$$$$

     RDKit          3D

 16 14  0  0  0  0  0  0  0  0999 V2000
    0.9005   -1.4661    1.6465 C   0  0  0  0  0  0  0  0  0  0  0  0
    1.2188   -0.8774    0.4050 O   0  0  0  0  0  0  0  0  0  0  0  0
    1.8184   -1.4912    2.2325 H   0  0  0  0  0  0  0  0  0  0  0  0
    0.5359   -2.4938    1.5370 H   0  0  0  0  0  0  0  0  0  0  0  0
    0.1553   -0.8853    2.2020 H   0  0  0  0  0  0  0  0  0  0  0  0
   -0.7491    0.3520   -1.9374 C   0  0  0  0  0  0  0  0  0  0  0  0
   -0.7491    0.3520   -0.4141 C   0  0  0  0  0  3  0  0  0  0  0  0
   -0.7491    1.7578    0.1726 C   0  0  0  0  0  0  0  0  0  0  0  0
    0.1324    0.8662   -2.3280 H   0  0  0  0  0  0  0  0  0  0  0  0
   -1.6305    0.8662   -2.3280 H   0  0  0  0  0  0  0  0  0  0  0  0
   -0.7491   -0.6629   -2.3386 H   0  0  0  0  0  0  0  0  0  0  0  0
    0.3004   -0.3037    0.0227 H   0  0  0  0  0  0  0  0  0  0  0  0
   -1.6236   -0.1944   -0.0501 H   0  0  0  0  0  0  0  0  0  0  0  0
   -1.6305    2.3163   -0.1515 H   0  0  0  0  0  0  0  0  0  0  0  0
   -0.7491    1.7371    1.2638 H   0  0  0  0  0  0  0  0  0  0  0  0
    0.1324    2.3163   -0.1515 H   0  0  0  0  0  0  0  0  0  0  0  0
  1  2  1  0
  1  3  1  0
  1  4  1  0
  1  5  1  0
  2 12  1  0
  6  7  1  0
  6  9  1  0
  6 10  1  0
  6 11  1  0
  7  8  1  0
  7 13  1  0
  8 14  1  0
  8 15  1  0
  8 16  1  0
M  RAD  1   7   2
M  END
>  <reaction>  (15) 
rxn_300

>  <mol_properties>  (15) 
{"0": {"label": "*4", "atom_type": "Cs"}, "1": {"label": "*3", "atom_type": "O2s"}, "5": {"label": "*0", "atom_type": "Cs"}, "6": {"label": "*1", "atom_type": "Cs"}, "11": {"label": "*2", "atom_type": "H0"}}

>  <type>  (15) 
unop_11

>  <geom_source>  (15) 
Heuristics

$$$$

     RDKit          3D

 16 14  0  0  0  0  0  0  0  0999 V2000
    1.7351   -1.3655   -0.2081 C   0  0  0  0  0  0  0  0  0  0  0  0
    0.9959   -0.9037    0.9007 O   0  0  0  0  0  0  0  0  0  0  0  0
    2.5968   -1.9038    0.1846 H   0  0  0  0  0  0  0  0  0  0  0  0
    2.1009   -0.5437   -0.8342 H   0  0  0  0  0  0  0  0  0  0  0  0
    1.1569   -2.0546   -0.8342 H   0  0  0  0  0  0  0  0  0  0  0  0
   -0.9720    0.3257   -1.4417 C   0  0  0  0  0  0  0  0  0  0  0  0
   -0.9720    0.3257    0.0816 C   0  0  0  0  0  3  0  0  0  0  0  0
   -0.9720    1.7315    0.6683 C   0  0  0  0  0  0  0  0  0  0  0  0
   -0.0905    0.8400   -1.8324 H   0  0  0  0  0  0  0  0  0  0  0  0
   -1.8534    0.8400   -1.8324 H   0  0  0  0  0  0  0  0  0  0  0  0
   -0.9720   -0.6892   -1.8429 H   0  0  0  0  0  0  0  0  0  0  0  0
    0.0775   -0.3299    0.5184 H   0  0  0  0  0  0  0  0  0  0  0  0
   -1.8465   -0.2207    0.4456 H   0  0  0  0  0  0  0  0  0  0  0  0
   -1.8534    2.2901    0.3442 H   0  0  0  0  0  0  0  0  0  0  0  0
   -0.9720    1.7108    1.7594 H   0  0  0  0  0  0  0  0  0  0  0  0
   -0.0905    2.2901    0.3442 H   0  0  0  0  0  0  0  0  0  0  0  0
  1  2  1  0
  1  3  1  0
  1  4  1  0
  1  5  1  0
  2 12  1  0
  6  7  1  0
  6  9  1  0
  6 10  1  0
  6 11  1  0
  7  8  1  0
  7 13  1  0
  8 14  1  0
  8 15  1  0
  8 16  1  0
M  RAD  1   7   2
M  END
>  <reaction>  (16) 
rxn_300

>  <mol_properties>  (16) 
{"0": {"label": "*4", "atom_type": "Cs"}, "1": {"label": "*3", "atom_type": "O2s"}, "5": {"label": "*0", "atom_type": "Cs"}, "6": {"label": "*1", "atom_type": "Cs"}, "11": {"label": "*2", "atom_type": "H0"}}

>  <type>  (16) 
unop_12

>  <geom_source>  (16) 
Heuristics

$$$$

     RDKit          3D

 16 14  0  0  0  0  0  0  0  0999 V2000
    1.5304   -0.0927   -0.9963 O   0  0  0  0  0  0  0  0  0  0  0  0
   -1.4604    1.3265   -0.2322 C   0  0  0  0  0  0  0  0  0  0  0  0
   -1.2302   -1.0063    0.6961 C   0  0  0  0  0  0  0  0  0  0  0  0
    2.5889   -0.2317   -0.0962 C   0  0  0  0  0  0  0  0  0  0  0  0
   -0.7547   -0.0177   -0.3614 C   0  0  0  0  0  3  0  0  0  0  0  0
   -1.0740    2.0196   -1.0080 H   0  0  0  0  0  0  0  0  0  0  0  0
   -1.2627    1.7676    0.7675 H   0  0  0  0  0  0  0  0  0  0  0  0
   -2.5554    1.2035   -0.3732 H   0  0  0  0  0  0  0  0  0  0  0  0
   -0.6809   -1.9633    0.5769 H   0  0  0  0  0  0  0  0  0  0  0  0
   -2.3182   -1.1999    0.5832 H   0  0  0  0  0  0  0  0  0  0  0  0
   -1.0285   -0.6060    1.7121 H   0  0  0  0  0  0  0  0  0  0  0  0
    2.4232   -1.1213    0.5476 H   0  0  0  0  0  0  0  0  0  0  0  0
    3.5345   -0.3647   -0.6608 H   0  0  0  0  0  0  0  0  0  0  0  0
    2.6694    0.6780    0.5359 H   0  0  0  0  0  0  0  0  0  0  0  0
   -0.9262   -0.4383   -1.3757 H   0  0  0  0  0  0  0  0  0  0  0  0
    0.5449    0.0467   -0.3156 H   0  0  0  0  0  0  0  0  0  0  0  0
  1  4  1  0
  1 16  1  0
  2  5  1  0
  2  6  1  0
  2  7  1  0
  2  8  1  0
  3  5  1  0
  3  9  1  0
  3 10  1  0
  3 11  1  0
  4 12  1  0
  4 13  1  0
  4 14  1  0
  5 15  1  0
M  RAD  1   5   2
M  END
>  <reaction>  (17) 
rxn_300

>  <mol_properties>  (17) 
{"0": {"label": "*4", "atom_type": "Cs"}, "1": {"label": "*3", "atom_type": "O2s"}, "5": {"label": "*0", "atom_type": "Cs"}, "6": {"label": "*1", "atom_type": "Cs"}, "11": {"label": "*2", "atom_type": "H0"}}

>  <type>  (17) 
unop_13

>  <geom_source>  (17) 
AutoTST

$$$$
