
     RDKit          3D

 18 18  0  0  0  0  0  0  0  0999 V2000
   -2.4852    0.3210   -0.3966 C   0  0  0  0  0  0  0  0  0  0  0  0
   -1.5917   -0.2708    0.6941 C   0  0  0  0  0  0  0  0  0  0  0  0
   -0.1292   -0.1692    0.3493 C   0  0  0  0  0  0  0  0  0  0  0  0
    0.6099    0.9558    0.7015 C   0  0  0  0  0  0  0  0  0  0  0  0
    1.9447    1.0728    0.3458 C   0  0  0  0  0  0  0  0  0  0  0  0
    2.5646    0.0613   -0.3720 C   0  0  0  0  0  0  0  0  0  0  0  0
    1.8399   -1.0657   -0.7287 C   0  0  0  0  0  0  0  0  0  0  0  0
    0.5055   -1.1769   -0.3700 C   0  0  0  0  0  0  0  0  0  0  0  0
   -2.3325   -0.1971   -1.3452 H   0  0  0  0  0  0  0  0  0  0  0  0
   -2.2554    1.3763   -0.5546 H   0  0  0  0  0  0  0  0  0  0  0  0
   -3.5397    0.2376   -0.1280 H   0  0  0  0  0  0  0  0  0  0  0  0
   -1.7801    0.2462    1.6380 H   0  0  0  0  0  0  0  0  0  0  0  0
   -1.8568   -1.3190    0.8516 H   0  0  0  0  0  0  0  0  0  0  0  0
    0.1327    1.7497    1.2656 H   0  0  0  0  0  0  0  0  0  0  0  0
    2.5033    1.9550    0.6330 H   0  0  0  0  0  0  0  0  0  0  0  0
    3.6077    0.1491   -0.6484 H   0  0  0  0  0  0  0  0  0  0  0  0
    2.3163   -1.8632   -1.2854 H   0  0  0  0  0  0  0  0  0  0  0  0
   -0.0540   -2.0629   -0.6500 H   0  0  0  0  0  0  0  0  0  0  0  0
  1  2  1  0
  1  9  1  0
  1 10  1  0
  1 11  1  0
  2  3  1  0
  2 12  1  0
  2 13  1  0
  3  4  2  0
  3  8  1  0
  4  5  1  0
  4 14  1  0
  5  6  2  0
  5 15  1  0
  6  7  1  0
  6 16  1  0
  7  8  2  0
  7 17  1  0
  8 18  1  0
M  END
>  <reaction>  (1) 
rxn_1510

>  <mol_properties>  (1) 
{"1": {"label": "donator", "atom_type": "Cs"}, "11": {"label": "d_hydrogen", "atom_type": "H0"}}

>  <type>  (1) 
r1h

$$$$

     RDKit          3D

 10  9  0  0  0  0  0  0  0  0999 V2000
   -1.3354   -0.2069    0.0525 C   0  0  0  0  0  0  0  0  0  0  0  0
    0.0851    0.2624    0.0266 C   0  0  0  0  0  0  0  0  0  0  0  0
    0.4841    1.3876    0.7359 C   0  0  0  0  0  0  0  0  0  0  0  0
    2.0191    2.0303    0.8057 S   0  0  0  0  0  1  0  0  0  0  0  0
    1.1566   -0.6823   -0.9297 S   0  0  0  0  0  0  0  0  0  0  0  0
   -1.7589   -0.2174   -0.9545 H   0  0  0  0  0  0  0  0  0  0  0  0
   -1.4004   -1.2253    0.4427 H   0  0  0  0  0  0  0  0  0  0  0  0
   -1.9442    0.4442    0.6783 H   0  0  0  0  0  0  0  0  0  0  0  0
   -0.3073    1.8814    1.2951 H   0  0  0  0  0  0  0  0  0  0  0  0
    2.2383    0.0827   -0.6554 H   0  0  0  0  0  0  0  0  0  0  0  0
  1  2  1  0
  1  6  1  0
  1  7  1  0
  1  8  1  0
  2  3  2  3
  2  5  1  0
  3  4  1  0
  3  9  1  0
  5 10  1  0
M  RAD  1   4   2
M  END
>  <reaction>  (2) 
rxn_1510

>  <mol_properties>  (2) 
{"1": {"label": "acceptor", "atom_type": "Cs"}}

>  <type>  (2) 
r2

$$$$

     RDKit          3D

 11 10  0  0  0  0  0  0  0  0999 V2000
   -1.0997   -0.5860   -0.1182 C   0  0  0  0  0  0  0  0  0  0  0  0
    0.0827    0.2961    0.2270 C   0  0  0  0  0  0  0  0  0  0  0  0
    0.1622    1.6171   -0.4774 C   0  0  0  0  0  0  0  0  0  0  0  0
   -0.9879    2.3087   -1.3633 S   0  0  0  0  0  0  0  0  0  0  0  0
    0.2176    0.6619    2.0187 S   0  0  0  0  0  0  0  0  0  0  0  0
   -1.1052   -0.8107   -1.1861 H   0  0  0  0  0  0  0  0  0  0  0  0
   -2.0402   -0.0893    0.1198 H   0  0  0  0  0  0  0  0  0  0  0  0
   -1.0438   -1.5182    0.4423 H   0  0  0  0  0  0  0  0  0  0  0  0
    1.0207   -0.2324    0.0280 H   0  0  0  0  0  0  0  0  0  0  0  0
    1.1091    2.1333   -0.3182 H   0  0  0  0  0  0  0  0  0  0  0  0
   -0.9205    1.3661    2.0994 H   0  0  0  0  0  0  0  0  0  0  0  0
  1  2  1  0
  1  6  1  0
  1  7  1  0
  1  8  1  0
  2  3  1  0
  2  5  1  0
  2  9  1  0
  3  4  2  0
  3 10  1  0
  5 11  1  0
M  END
>  <reaction>  (3) 
rxn_1510

>  <mol_properties>  (3) 
{"1": {"label": "acceptor", "atom_type": "Cs"}, "10": {"label": "a_hydrogen", "atom_type": "H0"}}

>  <type>  (3) 
r2h

$$$$

     RDKit          3D

 28 27  0  0  0  0  0  0  0  0999 V2000
   -0.0649   -1.4483    1.7243 C   0  0  0  0  0  0  0  0  0  0  0  0
   -0.6473   -1.3237    0.3366 C   0  0  1  0  0  0  0  0  0  0  0  0
   -0.7760   -2.5144   -0.4863 C   0  0  0  0  0  0  0  0  0  0  0  0
    0.0350   -3.9107   -0.2909 S   0  0  0  0  0  0  0  0  0  0  0  0
   -2.0932   -0.2613    0.1909 S   0  0  0  0  0  0  0  0  0  0  0  0
   -0.7608   -1.9701    2.3834 H   0  0  0  0  0  0  0  0  0  0  0  0
    0.8643   -2.0173    1.6916 H   0  0  0  0  0  0  0  0  0  0  0  0
    0.1338   -0.4603    2.1409 H   0  0  0  0  0  0  0  0  0  0  0  0
   -1.4370   -2.4014   -1.3465 H   0  0  0  0  0  0  0  0  0  0  0  0
   -1.5077    0.8456    0.6714 H   0  0  0  0  0  0  0  0  0  0  0  0
    0.8673   -0.1350   -2.3606 C   0  0  0  0  0  0  0  0  0  0  0  0
    1.2772    0.0928   -0.9366 C   0  0  0  0  0  0  0  0  0  0  0  0
    1.1641    1.3965   -0.3061 C   0  0  0  0  0  0  0  0  0  0  0  0
    0.3806    2.4257   -0.8468 C   0  0  0  0  0  3  0  0  0  0  0  0
    0.2455    3.6346   -0.1870 C   0  0  0  0  0  0  0  0  0  0  0  0
    0.8836    3.8486    1.0268 C   0  0  0  0  0  0  0  0  0  0  0  0
    1.6688    2.8416    1.5751 C   0  0  0  0  0  0  0  0  0  0  0  0
    1.8080    1.6348    0.9180 C   0  0  0  0  0  0  0  0  0  0  0  0
    1.4824    0.4529   -3.0486 H   0  0  0  0  0  0  0  0  0  0  0  0
   -0.1763    0.1429   -2.5269 H   0  0  0  0  0  0  0  0  0  0  0  0
    0.9786   -1.1867   -2.6246 H   0  0  0  0  0  0  0  0  0  0  0  0
    0.2519   -0.6772   -0.2882 H   0  0  0  0  0  0  0  0  0  0  0  0
    2.1215   -0.5016   -0.5938 H   0  0  0  0  0  0  0  0  0  0  0  0
   -0.1279    2.2755   -1.7899 H   0  0  0  0  0  0  0  0  0  0  0  0
   -0.3625    4.4170   -0.6235 H   0  0  0  0  0  0  0  0  0  0  0  0
    0.7746    4.7951    1.5404 H   0  0  0  0  0  0  0  0  0  0  0  0
    2.1762    3.0025    2.5179 H   0  0  0  0  0  0  0  0  0  0  0  0
    2.4218    0.8525    1.3496 H   0  0  0  0  0  0  0  0  0  0  0  0
  1  2  1  0
  1  6  1  0
  1  7  1  0
  1  8  1  0
  2  3  1  0
  2  5  1  0
  2 22  1  6
  3  4  2  0
  3  9  1  0
  5 10  1  0
 11 12  1  0
 11 19  1  0
 11 20  1  0
 11 21  1  0
 12 13  2  3
 12 23  1  0
 13 14  1  0
 13 18  1  0
 14 15  1  0
 14 24  1  0
 15 16  2  0
 15 25  1  0
 16 17  1  0
 16 26  1  0
 17 18  2  0
 17 27  1  0
 18 28  1  0
M  RAD  1  14   2
M  END
>  <reaction>  (4) 
rxn_1510

>  <mol_properties>  (4) 
{"1": {"label": "*1", "atom_type": "Cs"}, "2": {"label": "*0", "atom_type": "CS"}, "11": {"label": "*3", "atom_type": "Cd"}, "12": {"label": "*4", "atom_type": "Cd"}, "21": {"label": "*2", "atom_type": "H0"}}

>  <type>  (4) 
ts

$$$$

     RDKit          3D

 28 27  0  0  0  0  0  0  0  0999 V2000
   -0.2108   -2.8395    0.8540 C   0  0  0  0  0  0  0  0  0  0  0  0
   -0.6380   -1.6564    0.0093 C   0  0  0  0  0  0  0  0  0  0  0  0
   -2.0403   -1.6821   -0.5204 C   0  0  0  0  0  0  0  0  0  0  0  0
   -3.2155   -2.6919   -0.0905 S   0  0  0  0  0  1  0  0  0  0  0  0
   -0.4423   -0.0458    0.8634 S   0  0  0  0  0  0  0  0  0  0  0  0
   -0.8387   -2.9341    1.7397 H   0  0  0  0  0  0  0  0  0  0  0  0
   -0.3026   -3.7649    0.2829 H   0  0  0  0  0  0  0  0  0  0  0  0
    0.8243   -2.7161    1.1694 H   0  0  0  0  0  0  0  0  0  0  0  0
   -2.2388   -0.8973   -1.2505 H   0  0  0  0  0  0  0  0  0  0  0  0
   -1.3558   -0.2851    1.8152 H   0  0  0  0  0  0  0  0  0  0  0  0
    1.4681   -0.3550   -2.3922 C   0  0  0  0  0  0  0  0  0  0  0  0
    1.4681   -0.3550   -0.8631 C   0  0  0  0  0  0  0  0  0  0  0  0
    1.4681    1.0392   -0.2937 C   0  0  0  0  0  0  0  0  0  0  0  0
    0.2736    1.7082   -0.0460 C   0  0  0  0  0  0  0  0  0  0  0  0
    0.2703    3.0084    0.4350 C   0  0  0  0  0  0  0  0  0  0  0  0
    1.4681    3.6637    0.6768 C   0  0  0  0  0  0  0  0  0  0  0  0
    2.6659    3.0084    0.4350 C   0  0  0  0  0  0  0  0  0  0  0  0
    2.6626    1.7082   -0.0460 C   0  0  0  0  0  0  0  0  0  0  0  0
    2.3494    0.1600   -2.7790 H   0  0  0  0  0  0  0  0  0  0  0  0
    0.5868    0.1600   -2.7790 H   0  0  0  0  0  0  0  0  0  0  0  0
    1.4681   -1.3735   -2.7845 H   0  0  0  0  0  0  0  0  0  0  0  0
    0.4162   -1.0051   -0.4273 H   0  0  0  0  0  0  0  0  0  0  0  0
    2.3448   -0.8967   -0.5000 H   0  0  0  0  0  0  0  0  0  0  0  0
   -0.6673    1.2010   -0.2297 H   0  0  0  0  0  0  0  0  0  0  0  0
   -0.6705    3.5101    0.6249 H   0  0  0  0  0  0  0  0  0  0  0  0
    1.4681    4.6781    1.0551 H   0  0  0  0  0  0  0  0  0  0  0  0
    3.6067    3.5101    0.6249 H   0  0  0  0  0  0  0  0  0  0  0  0
    3.6035    1.2010   -0.2297 H   0  0  0  0  0  0  0  0  0  0  0  0
  1  2  1  0
  1  6  1  0
  1  7  1  0
  1  8  1  0
  2  3  2  3
  2  5  1  0
  3  4  1  0
  3  9  1  0
  5 10  1  0
 11 12  1  0
 11 19  1  0
 11 20  1  0
 11 21  1  0
 12 13  1  0
 12 22  1  0
 12 23  1  0
 13 14  2  0
 13 18  1  0
 14 15  1  0
 14 24  1  0
 15 16  2  0
 15 25  1  0
 16 17  1  0
 16 26  1  0
 17 18  2  0
 17 27  1  0
 18 28  1  0
M  RAD  1   4   2
M  END
>  <reaction>  (5) 
rxn_1510

>  <mol_properties>  (5) 
{"1": {"label": "*1", "atom_type": "Cs"}, "2": {"label": "*0", "atom_type": "CS"}, "11": {"label": "*3", "atom_type": "Cd"}, "12": {"label": "*4", "atom_type": "Cd"}, "21": {"label": "*2", "atom_type": "H0"}}

>  <type>  (5) 
unop_1

>  <geom_source>  (5) 
Heuristics

$$$$

     RDKit          3D

 28 27  0  0  0  0  0  0  0  0999 V2000
   -1.1107   -2.6581   -1.1042 C   0  0  0  0  0  0  0  0  0  0  0  0
   -0.7155   -1.5784   -0.1175 C   0  0  0  0  0  0  0  0  0  0  0  0
   -1.8345   -0.8206    0.5314 C   0  0  0  0  0  0  0  0  0  0  0  0
   -3.3994   -1.1882    0.4907 S   0  0  0  0  0  1  0  0  0  0  0  0
    0.3451   -2.1934    1.2460 S   0  0  0  0  0  0  0  0  0  0  0  0
   -1.7195   -3.4232   -0.6228 H   0  0  0  0  0  0  0  0  0  0  0  0
   -1.6993   -2.2303   -1.9175 H   0  0  0  0  0  0  0  0  0  0  0  0
   -0.2193   -3.1278   -1.5175 H   0  0  0  0  0  0  0  0  0  0  0  0
   -1.4950    0.0457    1.0994 H   0  0  0  0  0  0  0  0  0  0  0  0
   -0.5827   -2.9949    1.7886 H   0  0  0  0  0  0  0  0  0  0  0  0
    1.3907   -0.2770   -2.5190 C   0  0  0  0  0  0  0  0  0  0  0  0
    1.3907   -0.2770   -0.9899 C   0  0  0  0  0  0  0  0  0  0  0  0
    1.3907    1.1173   -0.4205 C   0  0  0  0  0  0  0  0  0  0  0  0
    0.1961    1.7862   -0.1727 C   0  0  0  0  0  0  0  0  0  0  0  0
    0.1929    3.0864    0.3082 C   0  0  0  0  0  0  0  0  0  0  0  0
    1.3907    3.7418    0.5500 C   0  0  0  0  0  0  0  0  0  0  0  0
    2.5885    3.0864    0.3082 C   0  0  0  0  0  0  0  0  0  0  0  0
    2.5852    1.7862   -0.1727 C   0  0  0  0  0  0  0  0  0  0  0  0
    2.2719    0.2380   -2.9058 H   0  0  0  0  0  0  0  0  0  0  0  0
    0.5094    0.2380   -2.9058 H   0  0  0  0  0  0  0  0  0  0  0  0
    1.3907   -1.2954   -2.9113 H   0  0  0  0  0  0  0  0  0  0  0  0
    0.3387   -0.9270   -0.5541 H   0  0  0  0  0  0  0  0  0  0  0  0
    2.2673   -0.8187   -0.6268 H   0  0  0  0  0  0  0  0  0  0  0  0
   -0.7448    1.2790   -0.3565 H   0  0  0  0  0  0  0  0  0  0  0  0
   -0.7479    3.5881    0.4981 H   0  0  0  0  0  0  0  0  0  0  0  0
    1.3907    4.7561    0.9283 H   0  0  0  0  0  0  0  0  0  0  0  0
    3.5292    3.5881    0.4981 H   0  0  0  0  0  0  0  0  0  0  0  0
    3.5261    1.2790   -0.3565 H   0  0  0  0  0  0  0  0  0  0  0  0
  1  2  1  0
  1  6  1  0
  1  7  1  0
  1  8  1  0
  2  3  2  3
  2  5  1  0
  3  4  1  0
  3  9  1  0
  5 10  1  0
 11 12  1  0
 11 19  1  0
 11 20  1  0
 11 21  1  0
 12 13  1  0
 12 22  1  0
 12 23  1  0
 13 14  2  0
 13 18  1  0
 14 15  1  0
 14 24  1  0
 15 16  2  0
 15 25  1  0
 16 17  1  0
 16 26  1  0
 17 18  2  0
 17 27  1  0
 18 28  1  0
M  RAD  1   4   2
M  END
>  <reaction>  (6) 
rxn_1510

>  <mol_properties>  (6) 
{"1": {"label": "*1", "atom_type": "Cs"}, "2": {"label": "*0", "atom_type": "CS"}, "11": {"label": "*3", "atom_type": "Cd"}, "12": {"label": "*4", "atom_type": "Cd"}, "21": {"label": "*2", "atom_type": "H0"}}

>  <type>  (6) 
unop_2

>  <geom_source>  (6) 
Heuristics

$$$$

     RDKit          3D

 28 27  0  0  0  0  0  0  0  0999 V2000
   -0.3235   -2.1943    1.4936 C   0  0  0  0  0  0  0  0  0  0  0  0
   -0.6244   -1.5448    0.1583 C   0  0  0  0  0  0  0  0  0  0  0  0
   -1.6351   -2.2325   -0.7095 C   0  0  0  0  0  0  0  0  0  0  0  0
   -2.6148   -3.4341   -0.2827 S   0  0  0  0  0  1  0  0  0  0  0  0
   -1.1766    0.1974    0.3060 S   0  0  0  0  0  0  0  0  0  0  0  0
   -1.2206   -2.2547    2.1096 H   0  0  0  0  0  0  0  0  0  0  0  0
    0.0451   -3.2108    1.3455 H   0  0  0  0  0  0  0  0  0  0  0  0
    0.4297   -1.6158    2.0268 H   0  0  0  0  0  0  0  0  0  0  0  0
   -1.6898   -1.8191   -1.7167 H   0  0  0  0  0  0  0  0  0  0  0  0
   -2.3192   -0.0768    0.9518 H   0  0  0  0  0  0  0  0  0  0  0  0
    1.4818   -0.2434   -2.2432 C   0  0  0  0  0  0  0  0  0  0  0  0
    1.4818   -0.2434   -0.7141 C   0  0  0  0  0  0  0  0  0  0  0  0
    1.4818    1.1509   -0.1447 C   0  0  0  0  0  0  0  0  0  0  0  0
    0.2872    1.8198    0.1030 C   0  0  0  0  0  0  0  0  0  0  0  0
    0.2840    3.1200    0.5840 C   0  0  0  0  0  0  0  0  0  0  0  0
    1.4818    3.7754    0.8258 C   0  0  0  0  0  0  0  0  0  0  0  0
    2.6796    3.1200    0.5840 C   0  0  0  0  0  0  0  0  0  0  0  0
    2.6763    1.8198    0.1030 C   0  0  0  0  0  0  0  0  0  0  0  0
    2.3631    0.2717   -2.6301 H   0  0  0  0  0  0  0  0  0  0  0  0
    0.6005    0.2717   -2.6301 H   0  0  0  0  0  0  0  0  0  0  0  0
    1.4818   -1.2618   -2.6355 H   0  0  0  0  0  0  0  0  0  0  0  0
    0.4298   -0.8934   -0.2784 H   0  0  0  0  0  0  0  0  0  0  0  0
    2.3584   -0.7851   -0.3510 H   0  0  0  0  0  0  0  0  0  0  0  0
   -0.6536    1.3127   -0.0807 H   0  0  0  0  0  0  0  0  0  0  0  0
   -0.6568    3.6217    0.7739 H   0  0  0  0  0  0  0  0  0  0  0  0
    1.4818    4.7897    1.2041 H   0  0  0  0  0  0  0  0  0  0  0  0
    3.6204    3.6217    0.7739 H   0  0  0  0  0  0  0  0  0  0  0  0
    3.6172    1.3127   -0.0807 H   0  0  0  0  0  0  0  0  0  0  0  0
  1  2  1  0
  1  6  1  0
  1  7  1  0
  1  8  1  0
  2  3  2  3
  2  5  1  0
  3  4  1  0
  3  9  1  0
  5 10  1  0
 11 12  1  0
 11 19  1  0
 11 20  1  0
 11 21  1  0
 12 13  1  0
 12 22  1  0
 12 23  1  0
 13 14  2  0
 13 18  1  0
 14 15  1  0
 14 24  1  0
 15 16  2  0
 15 25  1  0
 16 17  1  0
 16 26  1  0
 17 18  2  0
 17 27  1  0
 18 28  1  0
M  RAD  1   4   2
M  END
>  <reaction>  (7) 
rxn_1510

>  <mol_properties>  (7) 
{"1": {"label": "*1", "atom_type": "Cs"}, "2": {"label": "*0", "atom_type": "CS"}, "11": {"label": "*3", "atom_type": "Cd"}, "12": {"label": "*4", "atom_type": "Cd"}, "21": {"label": "*2", "atom_type": "H0"}}

>  <type>  (7) 
unop_3

>  <geom_source>  (7) 
Heuristics

$$$$

     RDKit          3D

 28 27  0  0  0  0  0  0  0  0999 V2000
   -2.2092   -0.9905   -0.7667 C   0  0  0  0  0  0  0  0  0  0  0  0
   -0.9404   -1.6535   -0.2707 C   0  0  0  0  0  0  0  0  0  0  0  0
   -0.4124   -1.1860    1.0522 C   0  0  0  0  0  0  0  0  0  0  0  0
   -1.1693   -0.2469    2.1156 S   0  0  0  0  0  1  0  0  0  0  0  0
   -1.0724   -3.4786   -0.1537 S   0  0  0  0  0  0  0  0  0  0  0  0
   -3.0315   -1.1499   -0.0695 H   0  0  0  0  0  0  0  0  0  0  0  0
   -2.0607    0.0864   -0.8627 H   0  0  0  0  0  0  0  0  0  0  0  0
   -2.4875   -1.4001   -1.7368 H   0  0  0  0  0  0  0  0  0  0  0  0
    0.5810   -1.5729    1.2801 H   0  0  0  0  0  0  0  0  0  0  0  0
   -2.0027   -3.4856    0.8119 H   0  0  0  0  0  0  0  0  0  0  0  0
    1.1658   -0.3521   -2.6723 C   0  0  0  0  0  0  0  0  0  0  0  0
    1.1658   -0.3521   -1.1432 C   0  0  0  0  0  0  0  0  0  0  0  0
    1.1658    1.0422   -0.5738 C   0  0  0  0  0  0  0  0  0  0  0  0
   -0.0287    1.7111   -0.3260 C   0  0  0  0  0  0  0  0  0  0  0  0
   -0.0320    3.0113    0.1549 C   0  0  0  0  0  0  0  0  0  0  0  0
    1.1658    3.6667    0.3967 C   0  0  0  0  0  0  0  0  0  0  0  0
    2.3636    3.0113    0.1549 C   0  0  0  0  0  0  0  0  0  0  0  0
    2.3603    1.7111   -0.3260 C   0  0  0  0  0  0  0  0  0  0  0  0
    2.0471    0.1629   -3.0591 H   0  0  0  0  0  0  0  0  0  0  0  0
    0.2845    0.1629   -3.0591 H   0  0  0  0  0  0  0  0  0  0  0  0
    1.1658   -1.3705   -3.0646 H   0  0  0  0  0  0  0  0  0  0  0  0
    0.1138   -1.0021   -0.7074 H   0  0  0  0  0  0  0  0  0  0  0  0
    2.0424   -0.8938   -0.7800 H   0  0  0  0  0  0  0  0  0  0  0  0
   -0.9696    1.2039   -0.5098 H   0  0  0  0  0  0  0  0  0  0  0  0
   -0.9728    3.5130    0.3448 H   0  0  0  0  0  0  0  0  0  0  0  0
    1.1658    4.6810    0.7751 H   0  0  0  0  0  0  0  0  0  0  0  0
    3.3044    3.5130    0.3448 H   0  0  0  0  0  0  0  0  0  0  0  0
    3.3012    1.2039   -0.5098 H   0  0  0  0  0  0  0  0  0  0  0  0
  1  2  1  0
  1  6  1  0
  1  7  1  0
  1  8  1  0
  2  3  2  3
  2  5  1  0
  3  4  1  0
  3  9  1  0
  5 10  1  0
 11 12  1  0
 11 19  1  0
 11 20  1  0
 11 21  1  0
 12 13  1  0
 12 22  1  0
 12 23  1  0
 13 14  2  0
 13 18  1  0
 14 15  1  0
 14 24  1  0
 15 16  2  0
 15 25  1  0
 16 17  1  0
 16 26  1  0
 17 18  2  0
 17 27  1  0
 18 28  1  0
M  RAD  1   4   2
M  END
>  <reaction>  (8) 
rxn_1510

>  <mol_properties>  (8) 
{"1": {"label": "*1", "atom_type": "Cs"}, "2": {"label": "*0", "atom_type": "CS"}, "11": {"label": "*3", "atom_type": "Cd"}, "12": {"label": "*4", "atom_type": "Cd"}, "21": {"label": "*2", "atom_type": "H0"}}

>  <type>  (8) 
unop_4

>  <geom_source>  (8) 
Heuristics

$$$$

     RDKit          3D

 28 27  0  0  0  0  0  0  0  0999 V2000
   -0.8124   -1.3049    1.7207 C   0  0  0  0  0  0  0  0  0  0  0  0
   -0.7934   -1.2932    0.2058 C   0  0  0  0  0  0  0  0  0  0  0  0
   -0.8007   -2.6287   -0.4753 C   0  0  0  0  0  0  0  0  0  0  0  0
   -1.0782   -4.0581    0.2070 S   0  0  0  0  0  1  0  0  0  0  0  0
   -2.1725   -0.3350   -0.5305 S   0  0  0  0  0  0  0  0  0  0  0  0
   -1.7068   -1.8014    2.0964 H   0  0  0  0  0  0  0  0  0  0  0  0
    0.0532   -1.8467    2.1058 H   0  0  0  0  0  0  0  0  0  0  0  0
   -0.7922   -0.2842    2.1003 H   0  0  0  0  0  0  0  0  0  0  0  0
   -0.6200   -2.5653   -1.5485 H   0  0  0  0  0  0  0  0  0  0  0  0
   -3.1487   -1.1411   -0.0890 H   0  0  0  0  0  0  0  0  0  0  0  0
    1.3127    0.0082   -2.1958 C   0  0  0  0  0  0  0  0  0  0  0  0
    1.3127    0.0082   -0.6666 C   0  0  0  0  0  0  0  0  0  0  0  0
    1.3127    1.4025   -0.0972 C   0  0  0  0  0  0  0  0  0  0  0  0
    0.1182    2.0714    0.1505 C   0  0  0  0  0  0  0  0  0  0  0  0
    0.1149    3.3716    0.6314 C   0  0  0  0  0  0  0  0  0  0  0  0
    1.3127    4.0270    0.8732 C   0  0  0  0  0  0  0  0  0  0  0  0
    2.5105    3.3716    0.6314 C   0  0  0  0  0  0  0  0  0  0  0  0
    2.5072    2.0714    0.1505 C   0  0  0  0  0  0  0  0  0  0  0  0
    2.1940    0.5232   -2.5826 H   0  0  0  0  0  0  0  0  0  0  0  0
    0.4314    0.5232   -2.5826 H   0  0  0  0  0  0  0  0  0  0  0  0
    1.3127   -1.0102   -2.5881 H   0  0  0  0  0  0  0  0  0  0  0  0
    0.2607   -0.6418   -0.2309 H   0  0  0  0  0  0  0  0  0  0  0  0
    2.1893   -0.5335   -0.3035 H   0  0  0  0  0  0  0  0  0  0  0  0
   -0.8227    1.5642   -0.0332 H   0  0  0  0  0  0  0  0  0  0  0  0
   -0.8259    3.8733    0.8213 H   0  0  0  0  0  0  0  0  0  0  0  0
    1.3127    5.0413    1.2516 H   0  0  0  0  0  0  0  0  0  0  0  0
    3.4513    3.8733    0.8213 H   0  0  0  0  0  0  0  0  0  0  0  0
    3.4481    1.5642   -0.0332 H   0  0  0  0  0  0  0  0  0  0  0  0
  1  2  1  0
  1  6  1  0
  1  7  1  0
  1  8  1  0
  2  3  2  3
  2  5  1  0
  3  4  1  0
  3  9  1  0
  5 10  1  0
 11 12  1  0
 11 19  1  0
 11 20  1  0
 11 21  1  0
 12 13  1  0
 12 22  1  0
 12 23  1  0
 13 14  2  0
 13 18  1  0
 14 15  1  0
 14 24  1  0
 15 16  2  0
 15 25  1  0
 16 17  1  0
 16 26  1  0
 17 18  2  0
 17 27  1  0
 18 28  1  0
M  RAD  1   4   2
M  END
>  <reaction>  (9) 
rxn_1510

>  <mol_properties>  (9) 
{"1": {"label": "*1", "atom_type": "Cs"}, "2": {"label": "*0", "atom_type": "CS"}, "11": {"label": "*3", "atom_type": "Cd"}, "12": {"label": "*4", "atom_type": "Cd"}, "21": {"label": "*2", "atom_type": "H0"}}

>  <type>  (9) 
unop_5

>  <geom_source>  (9) 
Heuristics

$$$$

     RDKit          3D

 28 27  0  0  0  0  0  0  0  0999 V2000
   -2.2424   -0.5772   -0.0946 C   0  0  0  0  0  0  0  0  0  0  0  0
   -1.0745   -1.5264   -0.2689 C   0  0  0  0  0  0  0  0  0  0  0  0
   -0.0921   -1.5956    0.8614 C   0  0  0  0  0  0  0  0  0  0  0  0
   -0.2685   -0.9708    2.3325 S   0  0  0  0  0  1  0  0  0  0  0  0
   -1.5868   -3.2538   -0.6091 S   0  0  0  0  0  0  0  0  0  0  0  0
   -2.8407   -0.8495    0.7747 H   0  0  0  0  0  0  0  0  0  0  0  0
   -1.8825    0.4417    0.0575 H   0  0  0  0  0  0  0  0  0  0  0  0
   -2.8772   -0.6030   -0.9793 H   0  0  0  0  0  0  0  0  0  0  0  0
    0.8065   -2.1622    0.6164 H   0  0  0  0  0  0  0  0  0  0  0  0
   -2.1721   -3.4583    0.5798 H   0  0  0  0  0  0  0  0  0  0  0  0
    1.0317   -0.2250   -2.6705 C   0  0  0  0  0  0  0  0  0  0  0  0
    1.0317   -0.2250   -1.1414 C   0  0  0  0  0  0  0  0  0  0  0  0
    1.0317    1.1693   -0.5720 C   0  0  0  0  0  0  0  0  0  0  0  0
   -0.1628    1.8382   -0.3242 C   0  0  0  0  0  0  0  0  0  0  0  0
   -0.1661    3.1385    0.1567 C   0  0  0  0  0  0  0  0  0  0  0  0
    1.0317    3.7938    0.3985 C   0  0  0  0  0  0  0  0  0  0  0  0
    2.2295    3.1385    0.1567 C   0  0  0  0  0  0  0  0  0  0  0  0
    2.2262    1.8382   -0.3242 C   0  0  0  0  0  0  0  0  0  0  0  0
    1.9130    0.2901   -3.0573 H   0  0  0  0  0  0  0  0  0  0  0  0
    0.1504    0.2901   -3.0573 H   0  0  0  0  0  0  0  0  0  0  0  0
    1.0317   -1.2434   -3.0628 H   0  0  0  0  0  0  0  0  0  0  0  0
   -0.0203   -0.8750   -0.7056 H   0  0  0  0  0  0  0  0  0  0  0  0
    1.9083   -0.7667   -0.7782 H   0  0  0  0  0  0  0  0  0  0  0  0
   -1.1037    1.3311   -0.5080 H   0  0  0  0  0  0  0  0  0  0  0  0
   -1.1069    3.6402    0.3466 H   0  0  0  0  0  0  0  0  0  0  0  0
    1.0317    4.8082    0.7769 H   0  0  0  0  0  0  0  0  0  0  0  0
    3.1703    3.6402    0.3466 H   0  0  0  0  0  0  0  0  0  0  0  0
    3.1671    1.3311   -0.5080 H   0  0  0  0  0  0  0  0  0  0  0  0
  1  2  1  0
  1  6  1  0
  1  7  1  0
  1  8  1  0
  2  3  2  3
  2  5  1  0
  3  4  1  0
  3  9  1  0
  5 10  1  0
 11 12  1  0
 11 19  1  0
 11 20  1  0
 11 21  1  0
 12 13  1  0
 12 22  1  0
 12 23  1  0
 13 14  2  0
 13 18  1  0
 14 15  1  0
 14 24  1  0
 15 16  2  0
 15 25  1  0
 16 17  1  0
 16 26  1  0
 17 18  2  0
 17 27  1  0
 18 28  1  0
M  RAD  1   4   2
M  END
>  <reaction>  (10) 
rxn_1510

>  <mol_properties>  (10) 
{"1": {"label": "*1", "atom_type": "Cs"}, "2": {"label": "*0", "atom_type": "CS"}, "11": {"label": "*3", "atom_type": "Cd"}, "12": {"label": "*4", "atom_type": "Cd"}, "21": {"label": "*2", "atom_type": "H0"}}

>  <type>  (10) 
unop_6

>  <geom_source>  (10) 
Heuristics

$$$$

     RDKit          3D

 28 27  0  0  0  0  0  0  0  0999 V2000
   -2.0058   -0.4452    0.6775 C   0  0  0  0  0  0  0  0  0  0  0  0
   -1.1389   -1.3565   -0.1671 C   0  0  0  0  0  0  0  0  0  0  0  0
    0.0241   -2.0043    0.5225 C   0  0  0  0  0  0  0  0  0  0  0  0
    0.3088   -2.0414    2.1046 S   0  0  0  0  0  1  0  0  0  0  0  0
   -2.0770   -2.7112   -0.9714 S   0  0  0  0  0  0  0  0  0  0  0  0
   -2.4479   -0.9895    1.5118 H   0  0  0  0  0  0  0  0  0  0  0  0
   -1.4079    0.3679    1.0927 H   0  0  0  0  0  0  0  0  0  0  0  0
   -2.8059   -0.0252    0.0694 H   0  0  0  0  0  0  0  0  0  0  0  0
    0.7029   -2.5114   -0.1634 H   0  0  0  0  0  0  0  0  0  0  0  0
   -2.4233   -3.3304    0.1664 H   0  0  0  0  0  0  0  0  0  0  0  0
    0.9673   -0.0551   -2.5686 C   0  0  0  0  0  0  0  0  0  0  0  0
    0.9673   -0.0551   -1.0395 C   0  0  0  0  0  0  0  0  0  0  0  0
    0.9673    1.3392   -0.4701 C   0  0  0  0  0  0  0  0  0  0  0  0
   -0.2273    2.0081   -0.2224 C   0  0  0  0  0  0  0  0  0  0  0  0
   -0.2305    3.3083    0.2586 C   0  0  0  0  0  0  0  0  0  0  0  0
    0.9673    3.9637    0.5004 C   0  0  0  0  0  0  0  0  0  0  0  0
    2.1651    3.3083    0.2586 C   0  0  0  0  0  0  0  0  0  0  0  0
    2.1618    2.0081   -0.2224 C   0  0  0  0  0  0  0  0  0  0  0  0
    1.8485    0.4599   -2.9555 H   0  0  0  0  0  0  0  0  0  0  0  0
    0.0860    0.4599   -2.9555 H   0  0  0  0  0  0  0  0  0  0  0  0
    0.9673   -1.0735   -2.9609 H   0  0  0  0  0  0  0  0  0  0  0  0
   -0.0847   -0.7051   -0.6038 H   0  0  0  0  0  0  0  0  0  0  0  0
    1.8439   -0.5968   -0.6764 H   0  0  0  0  0  0  0  0  0  0  0  0
   -1.1682    1.5009   -0.4061 H   0  0  0  0  0  0  0  0  0  0  0  0
   -1.1713    3.8100    0.4485 H   0  0  0  0  0  0  0  0  0  0  0  0
    0.9673    4.9780    0.8787 H   0  0  0  0  0  0  0  0  0  0  0  0
    3.1058    3.8100    0.4485 H   0  0  0  0  0  0  0  0  0  0  0  0
    3.1027    1.5009   -0.4061 H   0  0  0  0  0  0  0  0  0  0  0  0
  1  2  1  0
  1  6  1  0
  1  7  1  0
  1  8  1  0
  2  3  2  3
  2  5  1  0
  3  4  1  0
  3  9  1  0
  5 10  1  0
 11 12  1  0
 11 19  1  0
 11 20  1  0
 11 21  1  0
 12 13  1  0
 12 22  1  0
 12 23  1  0
 13 14  2  0
 13 18  1  0
 14 15  1  0
 14 24  1  0
 15 16  2  0
 15 25  1  0
 16 17  1  0
 16 26  1  0
 17 18  2  0
 17 27  1  0
 18 28  1  0
M  RAD  1   4   2
M  END
>  <reaction>  (11) 
rxn_1510

>  <mol_properties>  (11) 
{"1": {"label": "*1", "atom_type": "Cs"}, "2": {"label": "*0", "atom_type": "CS"}, "11": {"label": "*3", "atom_type": "Cd"}, "12": {"label": "*4", "atom_type": "Cd"}, "21": {"label": "*2", "atom_type": "H0"}}

>  <type>  (11) 
unop_7

>  <geom_source>  (11) 
Heuristics

$$$$

     RDKit          3D

 28 27  0  0  0  0  0  0  0  0999 V2000
   -0.3642   -3.1085    0.0810 C   0  0  0  0  0  0  0  0  0  0  0  0
   -0.6906   -1.6393   -0.0933 C   0  0  0  0  0  0  0  0  0  0  0  0
   -2.1438   -1.2804   -0.1768 C   0  0  0  0  0  0  0  0  0  0  0  0
   -3.3941   -2.2382    0.1472 S   0  0  0  0  0  1  0  0  0  0  0  0
    0.0254   -0.5757    1.2174 S   0  0  0  0  0  0  0  0  0  0  0  0
   -0.7981   -3.4985    1.0015 H   0  0  0  0  0  0  0  0  0  0  0  0
   -0.7727   -3.6879   -0.7487 H   0  0  0  0  0  0  0  0  0  0  0  0
    0.7155   -3.2475    0.1158 H   0  0  0  0  0  0  0  0  0  0  0  0
   -2.3149   -0.2433   -0.4658 H   0  0  0  0  0  0  0  0  0  0  0  0
   -0.6985   -1.0916    2.2212 H   0  0  0  0  0  0  0  0  0  0  0  0
    1.4156   -0.3379   -2.4949 C   0  0  0  0  0  0  0  0  0  0  0  0
    1.4156   -0.3379   -0.9658 C   0  0  0  0  0  0  0  0  0  0  0  0
    1.4156    1.0564   -0.3963 C   0  0  0  0  0  0  0  0  0  0  0  0
    0.2210    1.7253   -0.1486 C   0  0  0  0  0  0  0  0  0  0  0  0
    0.2178    3.0255    0.3323 C   0  0  0  0  0  0  0  0  0  0  0  0
    1.4156    3.6809    0.5741 C   0  0  0  0  0  0  0  0  0  0  0  0
    2.6134    3.0255    0.3323 C   0  0  0  0  0  0  0  0  0  0  0  0
    2.6101    1.7253   -0.1486 C   0  0  0  0  0  0  0  0  0  0  0  0
    2.2969    0.1772   -2.8817 H   0  0  0  0  0  0  0  0  0  0  0  0
    0.5343    0.1772   -2.8817 H   0  0  0  0  0  0  0  0  0  0  0  0
    1.4156   -1.3563   -2.8872 H   0  0  0  0  0  0  0  0  0  0  0  0
    0.3636   -0.9879   -0.5300 H   0  0  0  0  0  0  0  0  0  0  0  0
    2.2922   -0.8796   -0.6026 H   0  0  0  0  0  0  0  0  0  0  0  0
   -0.7198    1.2182   -0.3323 H   0  0  0  0  0  0  0  0  0  0  0  0
   -0.7230    3.5272    0.5222 H   0  0  0  0  0  0  0  0  0  0  0  0
    1.4156    4.6952    0.9525 H   0  0  0  0  0  0  0  0  0  0  0  0
    3.5542    3.5272    0.5222 H   0  0  0  0  0  0  0  0  0  0  0  0
    3.5510    1.2182   -0.3324 H   0  0  0  0  0  0  0  0  0  0  0  0
  1  2  1  0
  1  6  1  0
  1  7  1  0
  1  8  1  0
  2  3  2  3
  2  5  1  0
  3  4  1  0
  3  9  1  0
  5 10  1  0
 11 12  1  0
 11 19  1  0
 11 20  1  0
 11 21  1  0
 12 13  1  0
 12 22  1  0
 12 23  1  0
 13 14  2  0
 13 18  1  0
 14 15  1  0
 14 24  1  0
 15 16  2  0
 15 25  1  0
 16 17  1  0
 16 26  1  0
 17 18  2  0
 17 27  1  0
 18 28  1  0
M  RAD  1   4   2
M  END
>  <reaction>  (12) 
rxn_1510

>  <mol_properties>  (12) 
{"1": {"label": "*1", "atom_type": "Cs"}, "2": {"label": "*0", "atom_type": "CS"}, "11": {"label": "*3", "atom_type": "Cd"}, "12": {"label": "*4", "atom_type": "Cd"}, "21": {"label": "*2", "atom_type": "H0"}}

>  <type>  (12) 
unop_8

>  <geom_source>  (12) 
Heuristics

$$$$

     RDKit          3D

 28 27  0  0  0  0  0  0  0  0999 V2000
   -1.9447   -1.5587   -1.1906 C   0  0  0  0  0  0  0  0  0  0  0  0
   -0.8023   -1.6883   -0.2039 C   0  0  0  0  0  0  0  0  0  0  0  0
   -0.8956   -0.8606    1.0426 C   0  0  0  0  0  0  0  0  0  0  0  0
   -2.1800   -0.0473    1.5666 S   0  0  0  0  0  1  0  0  0  0  0  0
   -0.5100   -3.4126    0.3467 S   0  0  0  0  0  0  0  0  0  0  0  0
   -2.8900   -1.8524   -0.7345 H   0  0  0  0  0  0  0  0  0  0  0  0
   -2.0441   -0.5233   -1.5206 H   0  0  0  0  0  0  0  0  0  0  0  0
   -1.7611   -2.1932   -2.0567 H   0  0  0  0  0  0  0  0  0  0  0  0
    0.0213   -0.8658    1.6322 H   0  0  0  0  0  0  0  0  0  0  0  0
   -1.6832   -3.5533    0.9804 H   0  0  0  0  0  0  0  0  0  0  0  0
    1.3039   -0.3869   -2.6055 C   0  0  0  0  0  0  0  0  0  0  0  0
    1.3039   -0.3869   -1.0764 C   0  0  0  0  0  0  0  0  0  0  0  0
    1.3039    1.0074   -0.5070 C   0  0  0  0  0  0  0  0  0  0  0  0
    0.1094    1.6764   -0.2592 C   0  0  0  0  0  0  0  0  0  0  0  0
    0.1061    2.9766    0.2217 C   0  0  0  0  0  0  0  0  0  0  0  0
    1.3039    3.6319    0.4635 C   0  0  0  0  0  0  0  0  0  0  0  0
    2.5017    2.9766    0.2217 C   0  0  0  0  0  0  0  0  0  0  0  0
    2.4984    1.6764   -0.2592 C   0  0  0  0  0  0  0  0  0  0  0  0
    2.1852    0.1282   -2.9923 H   0  0  0  0  0  0  0  0  0  0  0  0
    0.4226    0.1282   -2.9923 H   0  0  0  0  0  0  0  0  0  0  0  0
    1.3039   -1.4053   -2.9978 H   0  0  0  0  0  0  0  0  0  0  0  0
    0.2519   -1.0369   -0.6406 H   0  0  0  0  0  0  0  0  0  0  0  0
    2.1805   -0.9285   -0.7132 H   0  0  0  0  0  0  0  0  0  0  0  0
   -0.8315    1.1692   -0.4430 H   0  0  0  0  0  0  0  0  0  0  0  0
   -0.8347    3.4783    0.4116 H   0  0  0  0  0  0  0  0  0  0  0  0
    1.3039    4.6463    0.8419 H   0  0  0  0  0  0  0  0  0  0  0  0
    3.4425    3.4783    0.4116 H   0  0  0  0  0  0  0  0  0  0  0  0
    3.4393    1.1692   -0.4430 H   0  0  0  0  0  0  0  0  0  0  0  0
  1  2  1  0
  1  6  1  0
  1  7  1  0
  1  8  1  0
  2  3  2  3
  2  5  1  0
  3  4  1  0
  3  9  1  0
  5 10  1  0
 11 12  1  0
 11 19  1  0
 11 20  1  0
 11 21  1  0
 12 13  1  0
 12 22  1  0
 12 23  1  0
 13 14  2  0
 13 18  1  0
 14 15  1  0
 14 24  1  0
 15 16  2  0
 15 25  1  0
 16 17  1  0
 16 26  1  0
 17 18  2  0
 17 27  1  0
 18 28  1  0
M  RAD  1   4   2
M  END
>  <reaction>  (13) 
rxn_1510

>  <mol_properties>  (13) 
{"1": {"label": "*1", "atom_type": "Cs"}, "2": {"label": "*0", "atom_type": "CS"}, "11": {"label": "*3", "atom_type": "Cd"}, "12": {"label": "*4", "atom_type": "Cd"}, "21": {"label": "*2", "atom_type": "H0"}}

>  <type>  (13) 
unop_9

>  <geom_source>  (13) 
Heuristics

$$$$

     RDKit          3D

 28 27  0  0  0  0  0  0  0  0999 V2000
   -0.6942   -3.0191   -0.6205 C   0  0  0  0  0  0  0  0  0  0  0  0
   -0.7195   -1.5877   -0.1245 C   0  0  0  0  0  0  0  0  0  0  0  0
   -2.0672   -1.0099    0.1879 C   0  0  0  0  0  0  0  0  0  0  0  0
   -3.4580   -1.8095    0.2962 S   0  0  0  0  0  1  0  0  0  0  0  0
    0.3121   -1.3174    1.3670 S   0  0  0  0  0  0  0  0  0  0  0  0
   -1.1201   -3.6965    0.1194 H   0  0  0  0  0  0  0  0  0  0  0  0
   -1.2840   -3.1135   -1.5338 H   0  0  0  0  0  0  0  0  0  0  0  0
    0.3315   -3.3231   -0.8251 H   0  0  0  0  0  0  0  0  0  0  0  0
   -2.0414    0.0630    0.3791 H   0  0  0  0  0  0  0  0  0  0  0  0
   -0.4156   -2.0983    2.1785 H   0  0  0  0  0  0  0  0  0  0  0  0
    1.3866   -0.2863   -2.5261 C   0  0  0  0  0  0  0  0  0  0  0  0
    1.3866   -0.2863   -0.9970 C   0  0  0  0  0  0  0  0  0  0  0  0
    1.3866    1.1080   -0.4276 C   0  0  0  0  0  0  0  0  0  0  0  0
    0.1921    1.7769   -0.1798 C   0  0  0  0  0  0  0  0  0  0  0  0
    0.1888    3.0771    0.3011 C   0  0  0  0  0  0  0  0  0  0  0  0
    1.3866    3.7325    0.5429 C   0  0  0  0  0  0  0  0  0  0  0  0
    2.5844    3.0771    0.3011 C   0  0  0  0  0  0  0  0  0  0  0  0
    2.5812    1.7769   -0.1798 C   0  0  0  0  0  0  0  0  0  0  0  0
    2.2679    0.2288   -2.9129 H   0  0  0  0  0  0  0  0  0  0  0  0
    0.5054    0.2288   -2.9129 H   0  0  0  0  0  0  0  0  0  0  0  0
    1.3866   -1.3047   -2.9184 H   0  0  0  0  0  0  0  0  0  0  0  0
    0.3347   -0.9363   -0.5612 H   0  0  0  0  0  0  0  0  0  0  0  0
    2.2633   -0.8280   -0.6338 H   0  0  0  0  0  0  0  0  0  0  0  0
   -0.7488    1.2698   -0.3636 H   0  0  0  0  0  0  0  0  0  0  0  0
   -0.7520    3.5788    0.4910 H   0  0  0  0  0  0  0  0  0  0  0  0
    1.3866    4.7468    0.9213 H   0  0  0  0  0  0  0  0  0  0  0  0
    3.5252    3.5788    0.4910 H   0  0  0  0  0  0  0  0  0  0  0  0
    3.5221    1.2698   -0.3636 H   0  0  0  0  0  0  0  0  0  0  0  0
  1  2  1  0
  1  6  1  0
  1  7  1  0
  1  8  1  0
  2  3  2  3
  2  5  1  0
  3  4  1  0
  3  9  1  0
  5 10  1  0
 11 12  1  0
 11 19  1  0
 11 20  1  0
 11 21  1  0
 12 13  1  0
 12 22  1  0
 12 23  1  0
 13 14  2  0
 13 18  1  0
 14 15  1  0
 14 24  1  0
 15 16  2  0
 15 25  1  0
 16 17  1  0
 16 26  1  0
 17 18  2  0
 17 27  1  0
 18 28  1  0
M  RAD  1   4   2
M  END
>  <reaction>  (14) 
rxn_1510

>  <mol_properties>  (14) 
{"1": {"label": "*1", "atom_type": "Cs"}, "2": {"label": "*0", "atom_type": "CS"}, "11": {"label": "*3", "atom_type": "Cd"}, "12": {"label": "*4", "atom_type": "Cd"}, "21": {"label": "*2", "atom_type": "H0"}}

>  <type>  (14) 
unop_10

>  <geom_source>  (14) 
Heuristics

$$$$

     RDKit          3D

 28 27  0  0  0  0  0  0  0  0999 V2000
   -1.5048   -0.6639    1.3619 C   0  0  0  0  0  0  0  0  0  0  0  0
   -1.0584   -1.2236    0.0266 C   0  0  0  0  0  0  0  0  0  0  0  0
   -0.1362   -2.4048    0.0690 C   0  0  0  0  0  0  0  0  0  0  0  0
    0.2310   -3.2963    1.3559 S   0  0  0  0  0  1  0  0  0  0  0  0
   -2.4532   -1.7012   -1.0636 S   0  0  0  0  0  0  0  0  0  0  0  0
   -2.0441   -1.4145    1.9394 H   0  0  0  0  0  0  0  0  0  0  0  0
   -0.6397   -0.3527    1.9500 H   0  0  0  0  0  0  0  0  0  0  0  0
   -2.1573    0.1940    1.2056 H   0  0  0  0  0  0  0  0  0  0  0  0
    0.2812   -2.6599   -0.9052 H   0  0  0  0  0  0  0  0  0  0  0  0
   -2.9062   -2.6896   -0.2790 H   0  0  0  0  0  0  0  0  0  0  0  0
    1.0477    0.0778   -2.3749 C   0  0  0  0  0  0  0  0  0  0  0  0
    1.0477    0.0778   -0.8458 C   0  0  0  0  0  0  0  0  0  0  0  0
    1.0477    1.4721   -0.2764 C   0  0  0  0  0  0  0  0  0  0  0  0
   -0.1468    2.1411   -0.0287 C   0  0  0  0  0  0  0  0  0  0  0  0
   -0.1501    3.4413    0.4523 C   0  0  0  0  0  0  0  0  0  0  0  0
    1.0477    4.0966    0.6941 C   0  0  0  0  0  0  0  0  0  0  0  0
    2.2455    3.4413    0.4523 C   0  0  0  0  0  0  0  0  0  0  0  0
    2.2423    2.1411   -0.0287 C   0  0  0  0  0  0  0  0  0  0  0  0
    1.9290    0.5929   -2.7618 H   0  0  0  0  0  0  0  0  0  0  0  0
    0.1665    0.5929   -2.7618 H   0  0  0  0  0  0  0  0  0  0  0  0
    1.0477   -0.9406   -2.7672 H   0  0  0  0  0  0  0  0  0  0  0  0
   -0.0042   -0.5722   -0.4101 H   0  0  0  0  0  0  0  0  0  0  0  0
    1.9244   -0.4638   -0.4827 H   0  0  0  0  0  0  0  0  0  0  0  0
   -1.0877    1.6339   -0.2124 H   0  0  0  0  0  0  0  0  0  0  0  0
   -1.0909    3.9430    0.6422 H   0  0  0  0  0  0  0  0  0  0  0  0
    1.0477    5.1110    1.0724 H   0  0  0  0  0  0  0  0  0  0  0  0
    3.1863    3.9430    0.6422 H   0  0  0  0  0  0  0  0  0  0  0  0
    3.1831    1.6339   -0.2124 H   0  0  0  0  0  0  0  0  0  0  0  0
  1  2  1  0
  1  6  1  0
  1  7  1  0
  1  8  1  0
  2  3  2  3
  2  5  1  0
  3  4  1  0
  3  9  1  0
  5 10  1  0
 11 12  1  0
 11 19  1  0
 11 20  1  0
 11 21  1  0
 12 13  1  0
 12 22  1  0
 12 23  1  0
 13 14  2  0
 13 18  1  0
 14 15  1  0
 14 24  1  0
 15 16  2  0
 15 25  1  0
 16 17  1  0
 16 26  1  0
 17 18  2  0
 17 27  1  0
 18 28  1  0
M  RAD  1   4   2
M  END
>  <reaction>  (15) 
rxn_1510

>  <mol_properties>  (15) 
{"1": {"label": "*1", "atom_type": "Cs"}, "2": {"label": "*0", "atom_type": "CS"}, "11": {"label": "*3", "atom_type": "Cd"}, "12": {"label": "*4", "atom_type": "Cd"}, "21": {"label": "*2", "atom_type": "H0"}}

>  <type>  (15) 
unop_11

>  <geom_source>  (15) 
Heuristics

$$$$

     RDKit          3D

 28 27  0  0  0  0  0  0  0  0999 V2000
   -1.5461   -2.1435   -1.3016 C   0  0  0  0  0  0  0  0  0  0  0  0
   -0.7235   -1.6351   -0.1353 C   0  0  0  0  0  0  0  0  0  0  0  0
   -1.4248   -0.7375    0.8393 C   0  0  0  0  0  0  0  0  0  0  0  0
   -3.0056   -0.4564    0.9268 S   0  0  0  0  0  1  0  0  0  0  0  0
    0.0351   -2.9768    0.8580 S   0  0  0  0  0  0  0  0  0  0  0  0
   -2.3987   -2.7264   -0.9536 H   0  0  0  0  0  0  0  0  0  0  0  0
   -1.9337   -1.3063   -1.8847 H   0  0  0  0  0  0  0  0  0  0  0  0
   -0.9308   -2.7715   -1.9444 H   0  0  0  0  0  0  0  0  0  0  0  0
   -0.7500   -0.2722    1.5582 H   0  0  0  0  0  0  0  0  0  0  0  0
   -1.1224   -3.4890    1.3004 H   0  0  0  0  0  0  0  0  0  0  0  0
    1.3827   -0.3337   -2.5368 C   0  0  0  0  0  0  0  0  0  0  0  0
    1.3827   -0.3337   -1.0077 C   0  0  0  0  0  0  0  0  0  0  0  0
    1.3827    1.0605   -0.4383 C   0  0  0  0  0  0  0  0  0  0  0  0
    0.1882    1.7295   -0.1906 C   0  0  0  0  0  0  0  0  0  0  0  0
    0.1849    3.0297    0.2903 C   0  0  0  0  0  0  0  0  0  0  0  0
    1.3827    3.6851    0.5321 C   0  0  0  0  0  0  0  0  0  0  0  0
    2.5805    3.0297    0.2903 C   0  0  0  0  0  0  0  0  0  0  0  0
    2.5772    1.7295   -0.1906 C   0  0  0  0  0  0  0  0  0  0  0  0
    2.2640    0.1813   -2.9237 H   0  0  0  0  0  0  0  0  0  0  0  0
    0.5014    0.1813   -2.9237 H   0  0  0  0  0  0  0  0  0  0  0  0
    1.3827   -1.3522   -2.9292 H   0  0  0  0  0  0  0  0  0  0  0  0
    0.3307   -0.9837   -0.5720 H   0  0  0  0  0  0  0  0  0  0  0  0
    2.2593   -0.8754   -0.6446 H   0  0  0  0  0  0  0  0  0  0  0  0
   -0.7527    1.2223   -0.3743 H   0  0  0  0  0  0  0  0  0  0  0  0
   -0.7559    3.5314    0.4803 H   0  0  0  0  0  0  0  0  0  0  0  0
    1.3827    4.6994    0.9105 H   0  0  0  0  0  0  0  0  0  0  0  0
    3.5213    3.5314    0.4802 H   0  0  0  0  0  0  0  0  0  0  0  0
    3.5181    1.2223   -0.3743 H   0  0  0  0  0  0  0  0  0  0  0  0
  1  2  1  0
  1  6  1  0
  1  7  1  0
  1  8  1  0
  2  3  2  3
  2  5  1  0
  3  4  1  0
  3  9  1  0
  5 10  1  0
 11 12  1  0
 11 19  1  0
 11 20  1  0
 11 21  1  0
 12 13  1  0
 12 22  1  0
 12 23  1  0
 13 14  2  0
 13 18  1  0
 14 15  1  0
 14 24  1  0
 15 16  2  0
 15 25  1  0
 16 17  1  0
 16 26  1  0
 17 18  2  0
 17 27  1  0
 18 28  1  0
M  RAD  1   4   2
M  END
>  <reaction>  (16) 
rxn_1510

>  <mol_properties>  (16) 
{"1": {"label": "*1", "atom_type": "Cs"}, "2": {"label": "*0", "atom_type": "CS"}, "11": {"label": "*3", "atom_type": "Cd"}, "12": {"label": "*4", "atom_type": "Cd"}, "21": {"label": "*2", "atom_type": "H0"}}

>  <type>  (16) 
unop_12

>  <geom_source>  (16) 
Heuristics

$$$$

     RDKit          3D

 28 27  0  0  0  0  0  0  0  0999 V2000
   -2.1374    0.6983   -1.7021 S   0  0  0  0  0  0  0  0  0  0  0  0
   -3.7178    1.9265    1.0050 S   0  0  0  0  0  0  0  0  0  0  0  0
   -2.2255    0.0601    0.0095 C   0  0  0  0  0  0  0  0  0  0  0  0
   -3.2391   -1.0818    0.1167 C   0  0  0  0  0  0  0  0  0  0  0  0
    0.0120   -1.1139   -1.6445 C   0  0  0  0  0  0  0  0  0  0  0  0
    1.4092   -0.2183    0.2198 C   0  0  0  0  0  0  0  0  0  0  0  0
    0.1680   -0.9799   -0.1354 C   0  0  0  0  0  0  0  0  0  0  0  0
    1.3236    1.1501    0.5126 C   0  0  0  0  0  3  0  0  0  0  0  0
    2.6615   -0.8536    0.2316 C   0  0  0  0  0  0  0  0  0  0  0  0
    2.4783    1.8746    0.8261 C   0  0  0  0  0  0  0  0  0  0  0  0
    3.7224    1.2368    0.8435 C   0  0  0  0  0  0  0  0  0  0  0  0
    3.8140   -0.1261    0.5455 C   0  0  0  0  0  0  0  0  0  0  0  0
   -2.4943    1.1674    1.0023 C   0  0  0  0  0  0  0  0  0  0  0  0
   -1.0410   -0.4405    0.2907 H   0  0  0  0  0  0  0  0  0  0  0  0
   -2.9491   -1.9046   -0.5701 H   0  0  0  0  0  0  0  0  0  0  0  0
   -3.2528   -1.4798    1.1535 H   0  0  0  0  0  0  0  0  0  0  0  0
   -4.2597   -0.7359   -0.1521 H   0  0  0  0  0  0  0  0  0  0  0  0
    0.8597   -1.6909   -2.0716 H   0  0  0  0  0  0  0  0  0  0  0  0
   -0.9349   -1.6473   -1.8691 H   0  0  0  0  0  0  0  0  0  0  0  0
   -0.0262   -0.1086   -2.1151 H   0  0  0  0  0  0  0  0  0  0  0  0
    0.1693   -1.9819    0.3457 H   0  0  0  0  0  0  0  0  0  0  0  0
    0.3649    1.6538    0.4974 H   0  0  0  0  0  0  0  0  0  0  0  0
    2.4089    2.9304    1.0539 H   0  0  0  0  0  0  0  0  0  0  0  0
    2.7433   -1.9079   -0.0024 H   0  0  0  0  0  0  0  0  0  0  0  0
    4.6151    1.7988    1.0856 H   0  0  0  0  0  0  0  0  0  0  0  0
    4.7780   -0.6182    0.5560 H   0  0  0  0  0  0  0  0  0  0  0  0
   -1.7403    1.3902    1.7498 H   0  0  0  0  0  0  0  0  0  0  0  0
   -3.5099    1.0022   -1.7829 H   0  0  0  0  0  0  0  0  0  0  0  0
  1  3  1  0
  1 28  1  0
  2 13  2  0
  3  4  1  0
  3 13  1  0
  3 14  1  0
  4 15  1  0
  4 16  1  0
  4 17  1  0
  5  7  1  0
  5 18  1  0
  5 19  1  0
  5 20  1  0
  6  7  2  3
  6  8  1  0
  6  9  1  0
  7 21  1  0
  8 10  1  0
  8 22  1  0
  9 12  2  0
  9 24  1  0
 10 11  2  0
 10 23  1  0
 11 12  1  0
 11 25  1  0
 12 26  1  0
 13 27  1  0
M  RAD  1   8   2
M  END
>  <reaction>  (17) 
rxn_1510

>  <mol_properties>  (17) 
{"1": {"label": "*1", "atom_type": "Cs"}, "2": {"label": "*0", "atom_type": "CS"}, "11": {"label": "*3", "atom_type": "Cd"}, "12": {"label": "*4", "atom_type": "Cd"}, "21": {"label": "*2", "atom_type": "H0"}}

>  <type>  (17) 
unop_13

>  <geom_source>  (17) 
AutoTST

$$$$

     RDKit          3D

 28 27  0  0  0  0  0  0  0  0999 V2000
   -1.1107   -2.6581   -1.1042 C   0  0  0  0  0  0  0  0  0  0  0  0
   -0.7155   -1.5784   -0.1175 C   0  0  0  0  0  0  0  0  0  0  0  0
   -1.8345   -0.8206    0.5314 C   0  0  0  0  0  0  0  0  0  0  0  0
   -3.3994   -1.1882    0.4907 S   0  0  0  0  0  1  0  0  0  0  0  0
    0.3452   -2.1934    1.2460 S   0  0  0  0  0  0  0  0  0  0  0  0
   -1.7195   -3.4232   -0.6228 H   0  0  0  0  0  0  0  0  0  0  0  0
   -1.6993   -2.2303   -1.9175 H   0  0  0  0  0  0  0  0  0  0  0  0
   -0.2193   -3.1278   -1.5175 H   0  0  0  0  0  0  0  0  0  0  0  0
   -1.4950    0.0457    1.0994 H   0  0  0  0  0  0  0  0  0  0  0  0
   -0.5827   -2.9949    1.7886 H   0  0  0  0  0  0  0  0  0  0  0  0
    1.3907   -0.2770   -2.5190 C   0  0  0  0  0  0  0  0  0  0  0  0
    1.3907   -0.2770   -0.9899 C   0  0  0  0  0  0  0  0  0  0  0  0
    1.3907    1.1173   -0.4205 C   0  0  0  0  0  0  0  0  0  0  0  0
    0.1961    1.7862   -0.1727 C   0  0  0  0  0  0  0  0  0  0  0  0
    0.1928    3.0864    0.3082 C   0  0  0  0  0  0  0  0  0  0  0  0
    1.3906    3.7418    0.5500 C   0  0  0  0  0  0  0  0  0  0  0  0
    2.5885    3.0864    0.3082 C   0  0  0  0  0  0  0  0  0  0  0  0
    2.5852    1.7862   -0.1727 C   0  0  0  0  0  0  0  0  0  0  0  0
    2.2719    0.2381   -2.9058 H   0  0  0  0  0  0  0  0  0  0  0  0
    0.5094    0.2381   -2.9058 H   0  0  0  0  0  0  0  0  0  0  0  0
    1.3907   -1.2954   -2.9113 H   0  0  0  0  0  0  0  0  0  0  0  0
    0.3387   -0.9270   -0.5541 H   0  0  0  0  0  0  0  0  0  0  0  0
    2.2673   -0.8187   -0.6268 H   0  0  0  0  0  0  0  0  0  0  0  0
   -0.7448    1.2791   -0.3565 H   0  0  0  0  0  0  0  0  0  0  0  0
   -0.7479    3.5881    0.4981 H   0  0  0  0  0  0  0  0  0  0  0  0
    1.3906    4.7561    0.9283 H   0  0  0  0  0  0  0  0  0  0  0  0
    3.5293    3.5881    0.4981 H   0  0  0  0  0  0  0  0  0  0  0  0
    3.5261    1.2791   -0.3565 H   0  0  0  0  0  0  0  0  0  0  0  0
  1  2  1  0
  1  6  1  0
  1  7  1  0
  1  8  1  0
  2  3  2  3
  2  5  1  0
  3  4  1  0
  3  9  1  0
  5 10  1  0
 11 12  1  0
 11 19  1  0
 11 20  1  0
 11 21  1  0
 12 13  1  0
 12 22  1  0
 12 23  1  0
 13 14  2  0
 13 18  1  0
 14 15  1  0
 14 24  1  0
 15 16  2  0
 15 25  1  0
 16 17  1  0
 16 26  1  0
 17 18  2  0
 17 27  1  0
 18 28  1  0
M  RAD  1   4   2
M  END
>  <reaction>  (18) 
rxn_1510

>  <mol_properties>  (18) 
{"1": {"label": "*1", "atom_type": "Cs"}, "2": {"label": "*0", "atom_type": "CS"}, "11": {"label": "*3", "atom_type": "Cd"}, "12": {"label": "*4", "atom_type": "Cd"}, "21": {"label": "*2", "atom_type": "H0"}}

>  <type>  (18) 
unop_14

>  <geom_source>  (18) 
gaussian_log

$$$$
