
     RDKit          3D

  7  6  0  0  0  0  0  0  0  0999 V2000
   -0.6782    0.0507    0.0301 C   0  0  0  0  0  0  0  0  0  0  0  0
    0.8092    0.0996    0.0213 C   0  0  0  0  0  0  0  0  0  0  0  0
    1.7473    0.7521    1.1507 S   0  0  0  0  0  0  0  0  0  0  0  0
   -1.0667    0.5456   -0.8653 H   0  0  0  0  0  0  0  0  0  0  0  0
   -1.0112   -0.9904   -0.0239 H   0  0  0  0  0  0  0  0  0  0  0  0
   -1.0920    0.5225    0.9188 H   0  0  0  0  0  0  0  0  0  0  0  0
    1.2740   -0.3620   -0.8520 H   0  0  0  0  0  0  0  0  0  0  0  0
  1  2  1  0
  1  4  1  0
  1  5  1  0
  1  6  1  0
  2  3  2  0
  2  7  1  0
M  END
>  <reaction>  (1) 
rxn_1958

>  <mol_properties>  (1) 
{"0": {"label": "donator", "atom_type": "Cs"}, "3": {"label": "d_hydrogen", "atom_type": "H0"}}

>  <type>  (1) 
r1h

$$$$

     RDKit          3D

 14 13  0  0  0  0  0  0  0  0999 V2000
    1.0767   -1.6838    1.2931 C   0  0  0  0  0  0  0  0  0  0  0  0
    1.0020   -0.3665    0.9163 C   0  0  0  0  0  0  0  0  0  0  0  0
    1.3965    0.7260    1.6806 C   0  0  0  0  0  3  0  0  0  0  0  0
    1.2666    2.1197    1.1619 C   0  0  0  0  0  0  0  0  0  0  0  0
    1.9670    0.5479    3.0536 C   0  0  0  0  0  0  0  0  0  0  0  0
    0.7448   -2.4705    0.6300 H   0  0  0  0  0  0  0  0  0  0  0  0
    1.4663   -1.9826    2.2578 H   0  0  0  0  0  0  0  0  0  0  0  0
    0.5980   -0.1511   -0.0695 H   0  0  0  0  0  0  0  0  0  0  0  0
    0.6296    2.7241    1.8172 H   0  0  0  0  0  0  0  0  0  0  0  0
    2.2410    2.6200    1.1341 H   0  0  0  0  0  0  0  0  0  0  0  0
    0.8426    2.1448    0.1579 H   0  0  0  0  0  0  0  0  0  0  0  0
    2.8745   -0.0634    3.0328 H   0  0  0  0  0  0  0  0  0  0  0  0
    1.2599    0.0408    3.7173 H   0  0  0  0  0  0  0  0  0  0  0  0
    2.2205    1.5071    3.5054 H   0  0  0  0  0  0  0  0  0  0  0  0
  1  2  2  3
  1  6  1  0
  1  7  1  0
  2  3  1  0
  2  8  1  0
  3  4  1  0
  3  5  1  0
  4  9  1  0
  4 10  1  0
  4 11  1  0
  5 12  1  0
  5 13  1  0
  5 14  1  0
M  RAD  1   3   2
M  END
>  <reaction>  (2) 
rxn_1958

>  <mol_properties>  (2) 
{"2": {"label": "acceptor", "atom_type": "Cs"}}

>  <type>  (2) 
r2

$$$$

     RDKit          3D

 15 14  0  0  0  0  0  0  0  0999 V2000
    2.1256    0.4849   -0.6284 C   0  0  0  0  0  0  0  0  0  0  0  0
    1.1128    0.2141    0.1794 C   0  0  0  0  0  0  0  0  0  0  0  0
   -0.3017   -0.0425   -0.2513 C   0  0  0  0  0  0  0  0  0  0  0  0
   -1.2427    1.0075    0.3423 C   0  0  0  0  0  0  0  0  0  0  0  0
   -0.7381   -1.4526    0.1504 C   0  0  0  0  0  0  0  0  0  0  0  0
    3.1243    0.6602   -0.2486 H   0  0  0  0  0  0  0  0  0  0  0  0
    1.9908    0.5411   -1.7036 H   0  0  0  0  0  0  0  0  0  0  0  0
    1.2888    0.1665    1.2533 H   0  0  0  0  0  0  0  0  0  0  0  0
   -0.3426    0.0343   -1.3424 H   0  0  0  0  0  0  0  0  0  0  0  0
   -0.9570    2.0133    0.0315 H   0  0  0  0  0  0  0  0  0  0  0  0
   -1.2189    0.9728    1.4350 H   0  0  0  0  0  0  0  0  0  0  0  0
   -2.2723    0.8287    0.0254 H   0  0  0  0  0  0  0  0  0  0  0  0
   -0.6964   -1.5744    1.2363 H   0  0  0  0  0  0  0  0  0  0  0  0
   -0.0911   -2.2079   -0.2978 H   0  0  0  0  0  0  0  0  0  0  0  0
   -1.7646   -1.6461   -0.1677 H   0  0  0  0  0  0  0  0  0  0  0  0
  1  2  2  3
  1  6  1  0
  1  7  1  0
  2  3  1  0
  2  8  1  0
  3  4  1  0
  3  5  1  0
  3  9  1  0
  4 10  1  0
  4 11  1  0
  4 12  1  0
  5 13  1  0
  5 14  1  0
  5 15  1  0
M  END
>  <reaction>  (3) 
rxn_1958

>  <mol_properties>  (3) 
{"2": {"label": "acceptor", "atom_type": "Cs"}, "14": {"label": "a_hydrogen", "atom_type": "H0"}}

>  <type>  (3) 
r2h

$$$$

     RDKit          3D

 21 19  0  0  0  0  0  0  0  0999 V2000
   -2.1070   -0.6487   -0.3012 C   0  0  0  0  0  0  0  0  0  0  0  0
   -1.5877   -0.6099    0.9291 C   0  0  0  0  0  0  0  0  0  0  0  0
   -0.8158    0.4900    1.4960 C   0  0  0  0  0  3  0  0  0  0  0  0
   -0.6357    0.4729    2.9940 C   0  0  0  0  0  0  0  0  0  0  0  0
   -0.9753    1.8598    0.8848 C   0  0  0  0  0  0  0  0  0  0  0  0
   -2.6191   -1.5322   -0.6590 H   0  0  0  0  0  0  0  0  0  0  0  0
   -2.0465    0.1902   -0.9823 H   0  0  0  0  0  0  0  0  0  0  0  0
   -1.6720   -1.4966    1.5522 H   0  0  0  0  0  0  0  0  0  0  0  0
    0.1879    1.1215    3.2978 H   0  0  0  0  0  0  0  0  0  0  0  0
   -1.5408    0.8375    3.4905 H   0  0  0  0  0  0  0  0  0  0  0  0
   -0.4357   -0.5344    3.3628 H   0  0  0  0  0  0  0  0  0  0  0  0
   -1.9919    2.2310    1.0457 H   0  0  0  0  0  0  0  0  0  0  0  0
   -0.7820    1.8520   -0.1884 H   0  0  0  0  0  0  0  0  0  0  0  0
   -0.2798    2.5656    1.3406 H   0  0  0  0  0  0  0  0  0  0  0  0
    1.6139   -0.0184    0.4755 C   0  0  0  0  0  0  0  0  0  0  0  0
    1.3421   -0.4240   -0.8612 C   0  0  0  0  0  0  0  0  0  0  0  0
    1.1987    0.5855   -2.1506 S   0  0  0  0  0  0  0  0  0  0  0  0
    0.4104    0.1561    1.0213 H   0  0  0  0  0  0  0  0  0  0  0  0
    2.0072   -0.7761    1.1499 H   0  0  0  0  0  0  0  0  0  0  0  0
    2.0320    0.9760    0.6048 H   0  0  0  0  0  0  0  0  0  0  0  0
    1.1738   -1.4894   -1.0127 H   0  0  0  0  0  0  0  0  0  0  0  0
  1  2  2  3
  1  6  1  0
  1  7  1  0
  2  3  1  0
  2  8  1  0
  3  4  1  0
  3  5  1  0
  4  9  1  0
  4 10  1  0
  4 11  1  0
  5 12  1  0
  5 13  1  0
  5 14  1  0
 15 16  1  0
 15 18  1  0
 15 19  1  0
 15 20  1  0
 16 17  2  0
 16 21  1  0
M  RAD  1   3   2
M  END
>  <reaction>  (4) 
rxn_1958

>  <mol_properties>  (4) 
{"1": {"label": "*4", "atom_type": "Cd"}, "2": {"label": "*3", "atom_type": "Cs"}, "14": {"label": "*1", "atom_type": "Cs"}, "15": {"label": "*0", "atom_type": "CS"}, "17": {"label": "*2", "atom_type": "H0"}}

>  <type>  (4) 
ts

$$$$

     RDKit          3D

 21 19  0  0  0  0  0  0  0  0999 V2000
    0.5152   -0.3156    3.0167 C   0  0  0  0  0  0  0  0  0  0  0  0
   -0.5433    0.3432    2.5726 C   0  0  0  0  0  0  0  0  0  0  0  0
   -1.0265    0.3610    1.1519 C   0  0  0  0  0  3  0  0  0  0  0  0
   -0.9904    1.7835    0.5901 C   0  0  0  0  0  0  0  0  0  0  0  0
   -2.4363   -0.2253    1.0567 C   0  0  0  0  0  0  0  0  0  0  0  0
    0.8080   -0.2843    4.0587 H   0  0  0  0  0  0  0  0  0  0  0  0
    1.1292   -0.9124    2.3503 H   0  0  0  0  0  0  0  0  0  0  0  0
   -1.1345    0.9315    3.2732 H   0  0  0  0  0  0  0  0  0  0  0  0
   -1.3344    1.7998   -0.4462 H   0  0  0  0  0  0  0  0  0  0  0  0
   -1.6426    2.4432    1.1689 H   0  0  0  0  0  0  0  0  0  0  0  0
    0.0194    2.1948    0.6237 H   0  0  0  0  0  0  0  0  0  0  0  0
   -3.1397    0.3634    1.6520 H   0  0  0  0  0  0  0  0  0  0  0  0
   -2.4617   -1.2520    1.4243 H   0  0  0  0  0  0  0  0  0  0  0  0
   -2.7890   -0.2209    0.0232 H   0  0  0  0  0  0  0  0  0  0  0  0
    1.0763    0.4255   -0.4208 C   0  0  0  0  0  0  0  0  0  0  0  0
    1.0763   -0.7729   -1.3030 C   0  0  0  0  0  0  0  0  0  0  0  0
    1.0763   -0.7729   -2.9097 S   0  0  0  0  0  0  0  0  0  0  0  0
    0.0249    0.3933    0.3655 H   0  0  0  0  0  0  0  0  0  0  0  0
    1.9525    0.3987    0.2344 H   0  0  0  0  0  0  0  0  0  0  0  0
    1.0763    1.3493   -0.9955 H   0  0  0  0  0  0  0  0  0  0  0  0
    1.0763   -1.7274   -0.7731 H   0  0  0  0  0  0  0  0  0  0  0  0
  1  2  2  3
  1  6  1  0
  1  7  1  0
  2  3  1  0
  2  8  1  0
  3  4  1  0
  3  5  1  0
  4  9  1  0
  4 10  1  0
  4 11  1  0
  5 12  1  0
  5 13  1  0
  5 14  1  0
 15 16  1  0
 15 18  1  0
 15 19  1  0
 15 20  1  0
 16 17  2  0
 16 21  1  0
M  RAD  1   3   2
M  END
>  <reaction>  (5) 
rxn_1958

>  <mol_properties>  (5) 
{"1": {"label": "*4", "atom_type": "Cd"}, "2": {"label": "*3", "atom_type": "Cs"}, "14": {"label": "*1", "atom_type": "Cs"}, "15": {"label": "*0", "atom_type": "CS"}, "17": {"label": "*2", "atom_type": "H0"}}

>  <type>  (5) 
unop_1

>  <geom_source>  (5) 
Heuristics

$$$$

     RDKit          3D

 21 19  0  0  0  0  0  0  0  0999 V2000
   -0.8283   -1.8278    0.8616 C   0  0  0  0  0  0  0  0  0  0  0  0
   -1.2325   -0.7999    1.5908 C   0  0  0  0  0  0  0  0  0  0  0  0
   -0.8851    0.6382    1.3390 C   0  0  0  0  0  3  0  0  0  0  0  0
   -0.1112    1.2192    2.5238 C   0  0  0  0  0  0  0  0  0  0  0  0
   -2.1484    1.4553    1.0618 C   0  0  0  0  0  0  0  0  0  0  0  0
   -1.1179   -2.8433    1.1011 H   0  0  0  0  0  0  0  0  0  0  0  0
   -0.1903   -1.6891   -0.0050 H   0  0  0  0  0  0  0  0  0  0  0  0
   -1.8725   -0.9805    2.4535 H   0  0  0  0  0  0  0  0  0  0  0  0
    0.1500    2.2637    2.3415 H   0  0  0  0  0  0  0  0  0  0  0  0
   -0.7144    1.1799    3.4350 H   0  0  0  0  0  0  0  0  0  0  0  0
    0.8086    0.6613    2.7052 H   0  0  0  0  0  0  0  0  0  0  0  0
   -2.8238    1.4244    1.9212 H   0  0  0  0  0  0  0  0  0  0  0  0
   -2.6871    1.0665    0.1966 H   0  0  0  0  0  0  0  0  0  0  0  0
   -1.8994    2.5012    0.8708 H   0  0  0  0  0  0  0  0  0  0  0  0
    1.2177    0.7027   -0.2337 C   0  0  0  0  0  0  0  0  0  0  0  0
    1.2177   -0.4957   -1.1159 C   0  0  0  0  0  0  0  0  0  0  0  0
    1.2177   -0.4957   -2.7225 S   0  0  0  0  0  0  0  0  0  0  0  0
    0.1664    0.6705    0.5526 H   0  0  0  0  0  0  0  0  0  0  0  0
    2.0939    0.6759    0.4215 H   0  0  0  0  0  0  0  0  0  0  0  0
    1.2177    1.6265   -0.8083 H   0  0  0  0  0  0  0  0  0  0  0  0
    1.2177   -1.4502   -0.5859 H   0  0  0  0  0  0  0  0  0  0  0  0
  1  2  2  3
  1  6  1  0
  1  7  1  0
  2  3  1  0
  2  8  1  0
  3  4  1  0
  3  5  1  0
  4  9  1  0
  4 10  1  0
  4 11  1  0
  5 12  1  0
  5 13  1  0
  5 14  1  0
 15 16  1  0
 15 18  1  0
 15 19  1  0
 15 20  1  0
 16 17  2  0
 16 21  1  0
M  RAD  1   3   2
M  END
>  <reaction>  (6) 
rxn_1958

>  <mol_properties>  (6) 
{"1": {"label": "*4", "atom_type": "Cd"}, "2": {"label": "*3", "atom_type": "Cs"}, "14": {"label": "*1", "atom_type": "Cs"}, "15": {"label": "*0", "atom_type": "CS"}, "17": {"label": "*2", "atom_type": "H0"}}

>  <type>  (6) 
unop_2

>  <geom_source>  (6) 
Heuristics

$$$$

     RDKit          3D

 21 19  0  0  0  0  0  0  0  0999 V2000
    0.5823    1.0471    2.9710 C   0  0  0  0  0  0  0  0  0  0  0  0
   -0.6362    0.9451    2.4645 C   0  0  0  0  0  0  0  0  0  0  0  0
   -0.9927    0.2487    1.1838 C   0  0  0  0  0  3  0  0  0  0  0  0
   -1.6038    1.2360    0.1877 C   0  0  0  0  0  0  0  0  0  0  0  0
   -1.9498   -0.9140    1.4532 C   0  0  0  0  0  0  0  0  0  0  0  0
    0.7687    1.5657    3.9031 H   0  0  0  0  0  0  0  0  0  0  0  0
    1.4407    0.6133    2.4687 H   0  0  0  0  0  0  0  0  0  0  0  0
   -1.4722    1.3943    2.9990 H   0  0  0  0  0  0  0  0  0  0  0  0
   -1.8580    0.7347   -0.7485 H   0  0  0  0  0  0  0  0  0  0  0  0
   -2.5207    1.6737    0.5918 H   0  0  0  0  0  0  0  0  0  0  0  0
   -0.9123    2.0499   -0.0348 H   0  0  0  0  0  0  0  0  0  0  0  0
   -2.8790   -0.5524    1.9021 H   0  0  0  0  0  0  0  0  0  0  0  0
   -1.5061   -1.6393    2.1366 H   0  0  0  0  0  0  0  0  0  0  0  0
   -2.2061   -1.4281    0.5245 H   0  0  0  0  0  0  0  0  0  0  0  0
    1.1101    0.3133   -0.3888 C   0  0  0  0  0  0  0  0  0  0  0  0
    1.1101   -0.8852   -1.2710 C   0  0  0  0  0  0  0  0  0  0  0  0
    1.1101   -0.8852   -2.8777 S   0  0  0  0  0  0  0  0  0  0  0  0
    0.0588    0.2810    0.3975 H   0  0  0  0  0  0  0  0  0  0  0  0
    1.9863    0.2864    0.2664 H   0  0  0  0  0  0  0  0  0  0  0  0
    1.1101    1.2371   -0.9635 H   0  0  0  0  0  0  0  0  0  0  0  0
    1.1101   -1.8396   -0.7411 H   0  0  0  0  0  0  0  0  0  0  0  0
  1  2  2  3
  1  6  1  0
  1  7  1  0
  2  3  1  0
  2  8  1  0
  3  4  1  0
  3  5  1  0
  4  9  1  0
  4 10  1  0
  4 11  1  0
  5 12  1  0
  5 13  1  0
  5 14  1  0
 15 16  1  0
 15 18  1  0
 15 19  1  0
 15 20  1  0
 16 17  2  0
 16 21  1  0
M  RAD  1   3   2
M  END
>  <reaction>  (7) 
rxn_1958

>  <mol_properties>  (7) 
{"1": {"label": "*4", "atom_type": "Cd"}, "2": {"label": "*3", "atom_type": "Cs"}, "14": {"label": "*1", "atom_type": "Cs"}, "15": {"label": "*0", "atom_type": "CS"}, "17": {"label": "*2", "atom_type": "H0"}}

>  <type>  (7) 
unop_3

>  <geom_source>  (7) 
Heuristics

$$$$

     RDKit          3D

 21 19  0  0  0  0  0  0  0  0999 V2000
   -2.0434   -0.1866   -0.5190 C   0  0  0  0  0  0  0  0  0  0  0  0
   -1.9526    0.3587    0.6835 C   0  0  0  0  0  0  0  0  0  0  0  0
   -0.7261    0.3637    1.5483 C   0  0  0  0  0  3  0  0  0  0  0  0
   -0.9906   -0.3783    2.8597 C   0  0  0  0  0  0  0  0  0  0  0  0
   -0.2652    1.7972    1.8184 C   0  0  0  0  0  0  0  0  0  0  0  0
   -2.9628   -0.1534   -1.0901 H   0  0  0  0  0  0  0  0  0  0  0  0
   -1.1972   -0.6880   -0.9770 H   0  0  0  0  0  0  0  0  0  0  0  0
   -2.8248    0.8532    1.1090 H   0  0  0  0  0  0  0  0  0  0  0  0
   -0.0982   -0.3834    3.4890 H   0  0  0  0  0  0  0  0  0  0  0  0
   -1.7931    0.1068    3.4221 H   0  0  0  0  0  0  0  0  0  0  0  0
   -1.2867   -1.4118    2.6748 H   0  0  0  0  0  0  0  0  0  0  0  0
   -1.0420    2.3594    2.3440 H   0  0  0  0  0  0  0  0  0  0  0  0
   -0.0421    2.3212    0.8880 H   0  0  0  0  0  0  0  0  0  0  0  0
    0.6315    1.8052    2.4415 H   0  0  0  0  0  0  0  0  0  0  0  0
    1.3768    0.4282   -0.0244 C   0  0  0  0  0  0  0  0  0  0  0  0
    1.3768   -0.7702   -0.9066 C   0  0  0  0  0  0  0  0  0  0  0  0
    1.3768   -0.7702   -2.5132 S   0  0  0  0  0  0  0  0  0  0  0  0
    0.3254    0.3960    0.7619 H   0  0  0  0  0  0  0  0  0  0  0  0
    2.2529    0.4014    0.6308 H   0  0  0  0  0  0  0  0  0  0  0  0
    1.3767    1.3520   -0.5990 H   0  0  0  0  0  0  0  0  0  0  0  0
    1.3768   -1.7247   -0.3766 H   0  0  0  0  0  0  0  0  0  0  0  0
  1  2  2  3
  1  6  1  0
  1  7  1  0
  2  3  1  0
  2  8  1  0
  3  4  1  0
  3  5  1  0
  4  9  1  0
  4 10  1  0
  4 11  1  0
  5 12  1  0
  5 13  1  0
  5 14  1  0
 15 16  1  0
 15 18  1  0
 15 19  1  0
 15 20  1  0
 16 17  2  0
 16 21  1  0
M  RAD  1   3   2
M  END
>  <reaction>  (8) 
rxn_1958

>  <mol_properties>  (8) 
{"1": {"label": "*4", "atom_type": "Cd"}, "2": {"label": "*3", "atom_type": "Cs"}, "14": {"label": "*1", "atom_type": "Cs"}, "15": {"label": "*0", "atom_type": "CS"}, "17": {"label": "*2", "atom_type": "H0"}}

>  <type>  (8) 
unop_4

>  <geom_source>  (8) 
Heuristics

$$$$

     RDKit          3D

 21 19  0  0  0  0  0  0  0  0999 V2000
    0.0281    2.3388    2.0876 C   0  0  0  0  0  0  0  0  0  0  0  0
   -0.9047    1.4003    2.1154 C   0  0  0  0  0  0  0  0  0  0  0  0
   -0.9394    0.1793    1.2434 C   0  0  0  0  0  3  0  0  0  0  0  0
   -2.1957    0.1784    0.3704 C   0  0  0  0  0  0  0  0  0  0  0  0
   -0.8678   -1.0903    2.0939 C   0  0  0  0  0  0  0  0  0  0  0  0
   -0.0090    3.1965    2.7475 H   0  0  0  0  0  0  0  0  0  0  0  0
    0.8658    2.2821    1.4004 H   0  0  0  0  0  0  0  0  0  0  0  0
   -1.7302    1.4934    2.8199 H   0  0  0  0  0  0  0  0  0  0  0  0
   -2.2213   -0.7049   -0.2711 H   0  0  0  0  0  0  0  0  0  0  0  0
   -3.0962    0.1669    0.9906 H   0  0  0  0  0  0  0  0  0  0  0  0
   -2.2354    1.0652   -0.2637 H   0  0  0  0  0  0  0  0  0  0  0  0
   -1.7213   -1.1467    2.7751 H   0  0  0  0  0  0  0  0  0  0  0  0
    0.0432   -1.1118    2.6937 H   0  0  0  0  0  0  0  0  0  0  0  0
   -0.8855   -1.9812    1.4627 H   0  0  0  0  0  0  0  0  0  0  0  0
    1.1634    0.2439   -0.3292 C   0  0  0  0  0  0  0  0  0  0  0  0
    1.1634   -0.9546   -1.2114 C   0  0  0  0  0  0  0  0  0  0  0  0
    1.1634   -0.9546   -2.8181 S   0  0  0  0  0  0  0  0  0  0  0  0
    0.1120    0.2116    0.4571 H   0  0  0  0  0  0  0  0  0  0  0  0
    2.0395    0.2170    0.3260 H   0  0  0  0  0  0  0  0  0  0  0  0
    1.1634    1.1677   -0.9039 H   0  0  0  0  0  0  0  0  0  0  0  0
    1.1634   -1.9090   -0.6815 H   0  0  0  0  0  0  0  0  0  0  0  0
  1  2  2  3
  1  6  1  0
  1  7  1  0
  2  3  1  0
  2  8  1  0
  3  4  1  0
  3  5  1  0
  4  9  1  0
  4 10  1  0
  4 11  1  0
  5 12  1  0
  5 13  1  0
  5 14  1  0
 15 16  1  0
 15 18  1  0
 15 19  1  0
 15 20  1  0
 16 17  2  0
 16 21  1  0
M  RAD  1   3   2
M  END
>  <reaction>  (9) 
rxn_1958

>  <mol_properties>  (9) 
{"1": {"label": "*4", "atom_type": "Cd"}, "2": {"label": "*3", "atom_type": "Cs"}, "14": {"label": "*1", "atom_type": "Cs"}, "15": {"label": "*0", "atom_type": "CS"}, "17": {"label": "*2", "atom_type": "H0"}}

>  <type>  (9) 
unop_5

>  <geom_source>  (9) 
Heuristics

$$$$

     RDKit          3D

 21 19  0  0  0  0  0  0  0  0999 V2000
   -2.1444    0.8777   -0.4841 C   0  0  0  0  0  0  0  0  0  0  0  0
   -1.8796    0.9459    0.8108 C   0  0  0  0  0  0  0  0  0  0  0  0
   -0.7555    0.2384    1.5095 C   0  0  0  0  0  3  0  0  0  0  0  0
   -1.3013   -0.7318    2.5589 C   0  0  0  0  0  0  0  0  0  0  0  0
    0.2003    1.2481    2.1478 C   0  0  0  0  0  0  0  0  0  0  0  0
   -2.9747    1.4162   -0.9235 H   0  0  0  0  0  0  0  0  0  0  0  0
   -1.5369    0.2779   -1.1538 H   0  0  0  0  0  0  0  0  0  0  0  0
   -2.5132    1.5592    1.4503 H   0  0  0  0  0  0  0  0  0  0  0  0
   -0.4866   -1.2542    3.0647 H   0  0  0  0  0  0  0  0  0  0  0  0
   -1.8761   -0.1948    3.3184 H   0  0  0  0  0  0  0  0  0  0  0  0
   -1.9571   -1.4757    2.1044 H   0  0  0  0  0  0  0  0  0  0  0  0
   -0.3214    1.8551    2.8927 H   0  0  0  0  0  0  0  0  0  0  0  0
    0.6195    1.9215    1.3989 H   0  0  0  0  0  0  0  0  0  0  0  0
    1.0239    0.7375    2.6511 H   0  0  0  0  0  0  0  0  0  0  0  0
    1.3473    0.3029   -0.0632 C   0  0  0  0  0  0  0  0  0  0  0  0
    1.3473   -0.8955   -0.9454 C   0  0  0  0  0  0  0  0  0  0  0  0
    1.3473   -0.8955   -2.5520 S   0  0  0  0  0  0  0  0  0  0  0  0
    0.2960    0.2707    0.7231 H   0  0  0  0  0  0  0  0  0  0  0  0
    2.2235    0.2761    0.5920 H   0  0  0  0  0  0  0  0  0  0  0  0
    1.3473    1.2267   -0.6379 H   0  0  0  0  0  0  0  0  0  0  0  0
    1.3473   -1.8500   -0.4154 H   0  0  0  0  0  0  0  0  0  0  0  0
  1  2  2  3
  1  6  1  0
  1  7  1  0
  2  3  1  0
  2  8  1  0
  3  4  1  0
  3  5  1  0
  4  9  1  0
  4 10  1  0
  4 11  1  0
  5 12  1  0
  5 13  1  0
  5 14  1  0
 15 16  1  0
 15 18  1  0
 15 19  1  0
 15 20  1  0
 16 17  2  0
 16 21  1  0
M  RAD  1   3   2
M  END
>  <reaction>  (10) 
rxn_1958

>  <mol_properties>  (10) 
{"1": {"label": "*4", "atom_type": "Cd"}, "2": {"label": "*3", "atom_type": "Cs"}, "14": {"label": "*1", "atom_type": "Cs"}, "15": {"label": "*0", "atom_type": "CS"}, "17": {"label": "*2", "atom_type": "H0"}}

>  <type>  (10) 
unop_6

>  <geom_source>  (10) 
Heuristics

$$$$

     RDKit          3D

 21 19  0  0  0  0  0  0  0  0999 V2000
   -1.8360    1.9307   -0.0349 C   0  0  0  0  0  0  0  0  0  0  0  0
   -1.6356    1.3867    1.1549 C   0  0  0  0  0  0  0  0  0  0  0  0
   -0.8155    0.1594    1.4257 C   0  0  0  0  0  3  0  0  0  0  0  0
   -1.6843   -0.9438    2.0328 C   0  0  0  0  0  0  0  0  0  0  0  0
    0.3614    0.4919    2.3447 C   0  0  0  0  0  0  0  0  0  0  0  0
   -2.4413    2.8200   -0.1586 H   0  0  0  0  0  0  0  0  0  0  0  0
   -1.3995    1.5035   -0.9317 H   0  0  0  0  0  0  0  0  0  0  0  0
   -2.0912    1.8455    2.0315 H   0  0  0  0  0  0  0  0  0  0  0  0
   -1.0928   -1.8415    2.2247 H   0  0  0  0  0  0  0  0  0  0  0  0
   -2.1134   -0.6171    2.9840 H   0  0  0  0  0  0  0  0  0  0  0  0
   -2.5062   -1.2095    1.3666 H   0  0  0  0  0  0  0  0  0  0  0  0
    0.0047    0.8695    3.3068 H   0  0  0  0  0  0  0  0  0  0  0  0
    1.0041    1.2540    1.9017 H   0  0  0  0  0  0  0  0  0  0  0  0
    0.9651   -0.3972    2.5384 H   0  0  0  0  0  0  0  0  0  0  0  0
    1.2873    0.2240   -0.1470 C   0  0  0  0  0  0  0  0  0  0  0  0
    1.2873   -0.9745   -1.0292 C   0  0  0  0  0  0  0  0  0  0  0  0
    1.2873   -0.9745   -2.6358 S   0  0  0  0  0  0  0  0  0  0  0  0
    0.2359    0.1917    0.6393 H   0  0  0  0  0  0  0  0  0  0  0  0
    2.1635    0.1971    0.5082 H   0  0  0  0  0  0  0  0  0  0  0  0
    1.2873    1.1478   -0.7216 H   0  0  0  0  0  0  0  0  0  0  0  0
    1.2873   -1.9289   -0.4992 H   0  0  0  0  0  0  0  0  0  0  0  0
  1  2  2  3
  1  6  1  0
  1  7  1  0
  2  3  1  0
  2  8  1  0
  3  4  1  0
  3  5  1  0
  4  9  1  0
  4 10  1  0
  4 11  1  0
  5 12  1  0
  5 13  1  0
  5 14  1  0
 15 16  1  0
 15 18  1  0
 15 19  1  0
 15 20  1  0
 16 17  2  0
 16 21  1  0
M  RAD  1   3   2
M  END
>  <reaction>  (11) 
rxn_1958

>  <mol_properties>  (11) 
{"1": {"label": "*4", "atom_type": "Cd"}, "2": {"label": "*3", "atom_type": "Cs"}, "14": {"label": "*1", "atom_type": "Cs"}, "15": {"label": "*0", "atom_type": "CS"}, "17": {"label": "*2", "atom_type": "H0"}}

>  <type>  (11) 
unop_7

>  <geom_source>  (11) 
Heuristics

$$$$

     RDKit          3D

 21 19  0  0  0  0  0  0  0  0999 V2000
    0.1431   -1.3077    2.4848 C   0  0  0  0  0  0  0  0  0  0  0  0
   -0.6376   -0.2408    2.4229 C   0  0  0  0  0  0  0  0  0  0  0  0
   -1.0184    0.4895    1.1683 C   0  0  0  0  0  3  0  0  0  0  0  0
   -0.5183    1.9345    1.2152 C   0  0  0  0  0  0  0  0  0  0  0  0
   -2.5333    0.4453    0.9599 C   0  0  0  0  0  0  0  0  0  0  0  0
    0.3775   -1.7864    3.4273 H   0  0  0  0  0  0  0  0  0  0  0  0
    0.5775   -1.7421    1.5904 H   0  0  0  0  0  0  0  0  0  0  0  0
   -1.0546    0.1656    3.3434 H   0  0  0  0  0  0  0  0  0  0  0  0
   -0.7870    2.4676    0.3008 H   0  0  0  0  0  0  0  0  0  0  0  0
   -0.9650    2.4700    2.0574 H   0  0  0  0  0  0  0  0  0  0  0  0
    0.5660    1.9726    1.3294 H   0  0  0  0  0  0  0  0  0  0  0  0
   -3.0514    0.9280    1.7931 H   0  0  0  0  0  0  0  0  0  0  0  0
   -2.8917   -0.5828    0.8914 H   0  0  0  0  0  0  0  0  0  0  0  0
   -2.8140    0.9694    0.0440 H   0  0  0  0  0  0  0  0  0  0  0  0
    1.0845    0.5541   -0.4044 C   0  0  0  0  0  0  0  0  0  0  0  0
    1.0845   -0.6444   -1.2866 C   0  0  0  0  0  0  0  0  0  0  0  0
    1.0845   -0.6444   -2.8932 S   0  0  0  0  0  0  0  0  0  0  0  0
    0.0331    0.5218    0.3819 H   0  0  0  0  0  0  0  0  0  0  0  0
    1.9606    0.5272    0.2509 H   0  0  0  0  0  0  0  0  0  0  0  0
    1.0844    1.4779   -0.9790 H   0  0  0  0  0  0  0  0  0  0  0  0
    1.0845   -1.5988   -0.7566 H   0  0  0  0  0  0  0  0  0  0  0  0
  1  2  2  3
  1  6  1  0
  1  7  1  0
  2  3  1  0
  2  8  1  0
  3  4  1  0
  3  5  1  0
  4  9  1  0
  4 10  1  0
  4 11  1  0
  5 12  1  0
  5 13  1  0
  5 14  1  0
 15 16  1  0
 15 18  1  0
 15 19  1  0
 15 20  1  0
 16 17  2  0
 16 21  1  0
M  RAD  1   3   2
M  END
>  <reaction>  (12) 
rxn_1958

>  <mol_properties>  (12) 
{"1": {"label": "*4", "atom_type": "Cd"}, "2": {"label": "*3", "atom_type": "Cs"}, "14": {"label": "*1", "atom_type": "Cs"}, "15": {"label": "*0", "atom_type": "CS"}, "17": {"label": "*2", "atom_type": "H0"}}

>  <type>  (12) 
unop_8

>  <geom_source>  (12) 
Heuristics

$$$$

     RDKit          3D

 21 19  0  0  0  0  0  0  0  0999 V2000
   -1.6807   -1.0134   -0.2447 C   0  0  0  0  0  0  0  0  0  0  0  0
   -1.8404   -0.2191    0.8018 C   0  0  0  0  0  0  0  0  0  0  0  0
   -0.7405    0.5001    1.5266 C   0  0  0  0  0  3  0  0  0  0  0  0
   -0.6675    0.0404    2.9839 C   0  0  0  0  0  0  0  0  0  0  0  0
   -0.9433    2.0141    1.4438 C   0  0  0  0  0  0  0  0  0  0  0  0
   -2.5215   -1.5023   -0.7207 H   0  0  0  0  0  0  0  0  0  0  0  0
   -0.6984   -1.2037   -0.6644 H   0  0  0  0  0  0  0  0  0  0  0  0
   -2.8430   -0.0533    1.1939 H   0  0  0  0  0  0  0  0  0  0  0  0
    0.1365    0.5561    3.5132 H   0  0  0  0  0  0  0  0  0  0  0  0
   -1.6039    0.2589    3.5045 H   0  0  0  0  0  0  0  0  0  0  0  0
   -0.4888   -1.0337    3.0497 H   0  0  0  0  0  0  0  0  0  0  0  0
   -1.8894    2.3025    1.9099 H   0  0  0  0  0  0  0  0  0  0  0  0
   -0.9621    2.3530    0.4071 H   0  0  0  0  0  0  0  0  0  0  0  0
   -0.1409    2.5417    1.9639 H   0  0  0  0  0  0  0  0  0  0  0  0
    1.3623    0.5646   -0.0461 C   0  0  0  0  0  0  0  0  0  0  0  0
    1.3623   -0.6338   -0.9283 C   0  0  0  0  0  0  0  0  0  0  0  0
    1.3623   -0.6338   -2.5349 S   0  0  0  0  0  0  0  0  0  0  0  0
    0.3109    0.5324    0.7402 H   0  0  0  0  0  0  0  0  0  0  0  0
    2.2384    0.5378    0.6092 H   0  0  0  0  0  0  0  0  0  0  0  0
    1.3623    1.4884   -0.6207 H   0  0  0  0  0  0  0  0  0  0  0  0
    1.3623   -1.5883   -0.3983 H   0  0  0  0  0  0  0  0  0  0  0  0
  1  2  2  3
  1  6  1  0
  1  7  1  0
  2  3  1  0
  2  8  1  0
  3  4  1  0
  3  5  1  0
  4  9  1  0
  4 10  1  0
  4 11  1  0
  5 12  1  0
  5 13  1  0
  5 14  1  0
 15 16  1  0
 15 18  1  0
 15 19  1  0
 15 20  1  0
 16 17  2  0
 16 21  1  0
M  RAD  1   3   2
M  END
>  <reaction>  (13) 
rxn_1958

>  <mol_properties>  (13) 
{"1": {"label": "*4", "atom_type": "Cd"}, "2": {"label": "*3", "atom_type": "Cs"}, "14": {"label": "*1", "atom_type": "Cs"}, "15": {"label": "*0", "atom_type": "CS"}, "17": {"label": "*2", "atom_type": "H0"}}

>  <type>  (13) 
unop_9

>  <geom_source>  (13) 
Heuristics

$$$$

     RDKit          3D

 21 19  0  0  0  0  0  0  0  0999 V2000
   -0.3522   -1.8024    1.6760 C   0  0  0  0  0  0  0  0  0  0  0  0
   -0.8900   -0.6565    2.0626 C   0  0  0  0  0  0  0  0  0  0  0  0
   -0.9668    0.5936    1.2359 C   0  0  0  0  0  3  0  0  0  0  0  0
   -0.1956    1.7307    1.9088 C   0  0  0  0  0  0  0  0  0  0  0  0
   -2.4247    0.9918    0.9984 C   0  0  0  0  0  0  0  0  0  0  0  0
   -0.3308   -2.6680    2.3260 H   0  0  0  0  0  0  0  0  0  0  0  0
    0.0877   -1.9155    0.6906 H   0  0  0  0  0  0  0  0  0  0  0  0
   -1.3217   -0.5829    3.0599 H   0  0  0  0  0  0  0  0  0  0  0  0
   -0.2428    2.6405    1.3067 H   0  0  0  0  0  0  0  0  0  0  0  0
   -0.6212    1.9573    2.8902 H   0  0  0  0  0  0  0  0  0  0  0  0
    0.8532    1.4658    2.0500 H   0  0  0  0  0  0  0  0  0  0  0  0
   -2.9291    1.1922    1.9476 H   0  0  0  0  0  0  0  0  0  0  0  0
   -2.9717    0.1979    0.4879 H   0  0  0  0  0  0  0  0  0  0  0  0
   -2.4852    1.8972    0.3909 H   0  0  0  0  0  0  0  0  0  0  0  0
    1.1361    0.6582   -0.3368 C   0  0  0  0  0  0  0  0  0  0  0  0
    1.1361   -0.5403   -1.2190 C   0  0  0  0  0  0  0  0  0  0  0  0
    1.1361   -0.5403   -2.8256 S   0  0  0  0  0  0  0  0  0  0  0  0
    0.0847    0.6259    0.4495 H   0  0  0  0  0  0  0  0  0  0  0  0
    2.0122    0.6313    0.3185 H   0  0  0  0  0  0  0  0  0  0  0  0
    1.1360    1.5820   -0.9114 H   0  0  0  0  0  0  0  0  0  0  0  0
    1.1361   -1.4947   -0.6890 H   0  0  0  0  0  0  0  0  0  0  0  0
  1  2  2  3
  1  6  1  0
  1  7  1  0
  2  3  1  0
  2  8  1  0
  3  4  1  0
  3  5  1  0
  4  9  1  0
  4 10  1  0
  4 11  1  0
  5 12  1  0
  5 13  1  0
  5 14  1  0
 15 16  1  0
 15 18  1  0
 15 19  1  0
 15 20  1  0
 16 17  2  0
 16 21  1  0
M  RAD  1   3   2
M  END
>  <reaction>  (14) 
rxn_1958

>  <mol_properties>  (14) 
{"1": {"label": "*4", "atom_type": "Cd"}, "2": {"label": "*3", "atom_type": "Cs"}, "14": {"label": "*1", "atom_type": "Cs"}, "15": {"label": "*0", "atom_type": "CS"}, "17": {"label": "*2", "atom_type": "H0"}}

>  <type>  (14) 
unop_10

>  <geom_source>  (14) 
Heuristics

$$$$

     RDKit          3D

 21 19  0  0  0  0  0  0  0  0999 V2000
   -1.0494    2.6060    0.8532 C   0  0  0  0  0  0  0  0  0  0  0  0
   -1.2792    1.5594    1.6300 C   0  0  0  0  0  0  0  0  0  0  0  0
   -0.8832    0.1441    1.3259 C   0  0  0  0  0  3  0  0  0  0  0  0
   -2.1201   -0.7512    1.2321 C   0  0  0  0  0  0  0  0  0  0  0  0
    0.0886   -0.3809    2.3843 C   0  0  0  0  0  0  0  0  0  0  0  0
   -1.3638    3.6030    1.1353 H   0  0  0  0  0  0  0  0  0  0  0  0
   -0.5363    2.5020   -0.0971 H   0  0  0  0  0  0  0  0  0  0  0  0
   -1.7975    1.7051    2.5769 H   0  0  0  0  0  0  0  0  0  0  0  0
   -1.8369   -1.7808    1.0037 H   0  0  0  0  0  0  0  0  0  0  0  0
   -2.6646   -0.7572    2.1803 H   0  0  0  0  0  0  0  0  0  0  0  0
   -2.8015   -0.4016    0.4552 H   0  0  0  0  0  0  0  0  0  0  0  0
   -0.3776   -0.3738    3.3733 H   0  0  0  0  0  0  0  0  0  0  0  0
    0.9885    0.2339    2.4323 H   0  0  0  0  0  0  0  0  0  0  0  0
    0.3850   -1.4083    2.1628 H   0  0  0  0  0  0  0  0  0  0  0  0
    1.2196    0.2087   -0.2467 C   0  0  0  0  0  0  0  0  0  0  0  0
    1.2196   -0.9898   -1.1289 C   0  0  0  0  0  0  0  0  0  0  0  0
    1.2196   -0.9898   -2.7356 S   0  0  0  0  0  0  0  0  0  0  0  0
    0.1682    0.1764    0.5395 H   0  0  0  0  0  0  0  0  0  0  0  0
    2.0957    0.1818    0.4085 H   0  0  0  0  0  0  0  0  0  0  0  0
    1.2196    1.1325   -0.8214 H   0  0  0  0  0  0  0  0  0  0  0  0
    1.2196   -1.9442   -0.5990 H   0  0  0  0  0  0  0  0  0  0  0  0
  1  2  2  3
  1  6  1  0
  1  7  1  0
  2  3  1  0
  2  8  1  0
  3  4  1  0
  3  5  1  0
  4  9  1  0
  4 10  1  0
  4 11  1  0
  5 12  1  0
  5 13  1  0
  5 14  1  0
 15 16  1  0
 15 18  1  0
 15 19  1  0
 15 20  1  0
 16 17  2  0
 16 21  1  0
M  RAD  1   3   2
M  END
>  <reaction>  (15) 
rxn_1958

>  <mol_properties>  (15) 
{"1": {"label": "*4", "atom_type": "Cd"}, "2": {"label": "*3", "atom_type": "Cs"}, "14": {"label": "*1", "atom_type": "Cs"}, "15": {"label": "*0", "atom_type": "CS"}, "17": {"label": "*2", "atom_type": "H0"}}

>  <type>  (15) 
unop_11

>  <geom_source>  (15) 
Heuristics

$$$$

     RDKit          3D

 21 19  0  0  0  0  0  0  0  0999 V2000
   -1.2510   -1.5398    0.2181 C   0  0  0  0  0  0  0  0  0  0  0  0
   -1.5775   -0.6399    1.1320 C   0  0  0  0  0  0  0  0  0  0  0  0
   -0.7994    0.6039    1.4481 C   0  0  0  0  0  3  0  0  0  0  0  0
   -0.3166    0.5811    2.8995 C   0  0  0  0  0  0  0  0  0  0  0  0
   -1.6445    1.8497    1.1760 C   0  0  0  0  0  0  0  0  0  0  0  0
   -1.8603   -2.4173    0.0416 H   0  0  0  0  0  0  0  0  0  0  0  0
   -0.3584   -1.4299   -0.3888 H   0  0  0  0  0  0  0  0  0  0  0  0
   -2.4819   -0.7861    1.7212 H   0  0  0  0  0  0  0  0  0  0  0  0
    0.2564    1.4812    3.1316 H   0  0  0  0  0  0  0  0  0  0  0  0
   -1.1654    0.5389    3.5876 H   0  0  0  0  0  0  0  0  0  0  0  0
    0.3150   -0.2875    3.0910 H   0  0  0  0  0  0  0  0  0  0  0  0
   -2.5403    1.8525    1.8031 H   0  0  0  0  0  0  0  0  0  0  0  0
   -1.9636    1.8894    0.1336 H   0  0  0  0  0  0  0  0  0  0  0  0
   -1.0795    2.7575    1.3978 H   0  0  0  0  0  0  0  0  0  0  0  0
    1.3034    0.6685   -0.1246 C   0  0  0  0  0  0  0  0  0  0  0  0
    1.3034   -0.5300   -1.0068 C   0  0  0  0  0  0  0  0  0  0  0  0
    1.3034   -0.5300   -2.6134 S   0  0  0  0  0  0  0  0  0  0  0  0
    0.2520    0.6362    0.6617 H   0  0  0  0  0  0  0  0  0  0  0  0
    2.1796    0.6416    0.5306 H   0  0  0  0  0  0  0  0  0  0  0  0
    1.3034    1.5922   -0.6993 H   0  0  0  0  0  0  0  0  0  0  0  0
    1.3034   -1.4844   -0.4768 H   0  0  0  0  0  0  0  0  0  0  0  0
  1  2  2  3
  1  6  1  0
  1  7  1  0
  2  3  1  0
  2  8  1  0
  3  4  1  0
  3  5  1  0
  4  9  1  0
  4 10  1  0
  4 11  1  0
  5 12  1  0
  5 13  1  0
  5 14  1  0
 15 16  1  0
 15 18  1  0
 15 19  1  0
 15 20  1  0
 16 17  2  0
 16 21  1  0
M  RAD  1   3   2
M  END
>  <reaction>  (16) 
rxn_1958

>  <mol_properties>  (16) 
{"1": {"label": "*4", "atom_type": "Cd"}, "2": {"label": "*3", "atom_type": "Cs"}, "14": {"label": "*1", "atom_type": "Cs"}, "15": {"label": "*0", "atom_type": "CS"}, "17": {"label": "*2", "atom_type": "H0"}}

>  <type>  (16) 
unop_12

>  <geom_source>  (16) 
Heuristics

$$$$

     RDKit          3D

 21 19  0  0  0  0  0  0  0  0999 V2000
    3.1014    0.7779   -0.7953 S   0  0  0  0  0  0  0  0  0  0  0  0
   -0.5792    0.3643   -0.2901 C   0  0  0  0  0  3  0  0  0  0  0  0
   -0.5671    1.8254   -0.7478 C   0  0  0  0  0  0  0  0  0  0  0  0
   -1.0541   -0.5487   -1.4251 C   0  0  0  0  0  0  0  0  0  0  0  0
   -1.4544    0.1985    0.9289 C   0  0  0  0  0  0  0  0  0  0  0  0
   -1.3879   -0.8987    1.6880 C   0  0  0  0  0  0  0  0  0  0  0  0
    1.6060   -0.8665    0.4140 C   0  0  0  0  0  0  0  0  0  0  0  0
    2.9069   -0.1520    0.2780 C   0  0  0  0  0  0  0  0  0  0  0  0
    0.6976    0.0217    0.0374 H   0  0  0  0  0  0  0  0  0  0  0  0
   -0.2009    2.4768    0.0742 H   0  0  0  0  0  0  0  0  0  0  0  0
   -1.5867    2.1551   -1.0436 H   0  0  0  0  0  0  0  0  0  0  0  0
    0.1166    1.9468   -1.6145 H   0  0  0  0  0  0  0  0  0  0  0  0
   -1.0042   -1.6121   -1.1096 H   0  0  0  0  0  0  0  0  0  0  0  0
   -0.3983   -0.4247   -2.3129 H   0  0  0  0  0  0  0  0  0  0  0  0
   -2.1002   -0.3062   -1.7121 H   0  0  0  0  0  0  0  0  0  0  0  0
   -2.1352    0.9939    1.2210 H   0  0  0  0  0  0  0  0  0  0  0  0
   -0.7075   -1.7085    1.4427 H   0  0  0  0  0  0  0  0  0  0  0  0
   -2.0173   -0.9897    2.5673 H   0  0  0  0  0  0  0  0  0  0  0  0
    3.7559   -0.4619    0.8783 H   0  0  0  0  0  0  0  0  0  0  0  0
    1.2993   -0.8846    1.4804 H   0  0  0  0  0  0  0  0  0  0  0  0
    1.7093   -1.9069    0.0409 H   0  0  0  0  0  0  0  0  0  0  0  0
  1  8  2  0
  2  3  1  0
  2  4  1  0
  2  5  1  0
  3 10  1  0
  3 11  1  0
  3 12  1  0
  4 13  1  0
  4 14  1  0
  4 15  1  0
  5  6  2  3
  5 16  1  0
  6 17  1  0
  6 18  1  0
  7  8  1  0
  7  9  1  0
  7 20  1  0
  7 21  1  0
  8 19  1  0
M  RAD  1   2   2
M  END
>  <reaction>  (17) 
rxn_1958

>  <mol_properties>  (17) 
{"1": {"label": "*4", "atom_type": "Cd"}, "2": {"label": "*3", "atom_type": "Cs"}, "14": {"label": "*1", "atom_type": "Cs"}, "15": {"label": "*0", "atom_type": "CS"}, "17": {"label": "*2", "atom_type": "H0"}}

>  <type>  (17) 
unop_13

>  <geom_source>  (17) 
AutoTST

$$$$
