
     RDKit          3D

  9  8  0  0  0  0  0  0  0  0999 V2000
   -2.1022   -0.6873    0.3932 C   0  0  0  0  0  0  0  0  0  0  0  0
   -1.2072   -0.1086   -0.1482 C   0  0  0  0  0  0  0  0  0  0  0  0
   -0.1242    0.6105   -0.8193 C   0  0  0  0  0  0  0  0  0  0  0  0
    1.2067    0.1106   -0.4741 C   0  0  0  0  0  0  0  0  0  0  0  0
    2.3005   -0.2875   -0.2012 C   0  0  0  0  0  0  0  0  0  0  0  0
   -2.8942   -1.2059    0.8778 H   0  0  0  0  0  0  0  0  0  0  0  0
   -0.1862    1.6723   -0.5649 H   0  0  0  0  0  0  0  0  0  0  0  0
   -0.2641    0.5418   -1.9017 H   0  0  0  0  0  0  0  0  0  0  0  0
    3.2709   -0.6459    0.0455 H   0  0  0  0  0  0  0  0  0  0  0  0
  1  2  3  0
  1  6  1  0
  2  3  1  0
  3  4  1  0
  3  7  1  0
  3  8  1  0
  4  5  3  0
  5  9  1  0
M  END
>  <reaction>  (1) 
rxn_1368

>  <mol_properties>  (1) 
{"2": {"label": "donator", "atom_type": "Cs"}, "6": {"label": "d_hydrogen", "atom_type": "H0"}}

>  <type>  (1) 
r1h

$$$$

     RDKit          3D

  8  7  0  0  0  0  0  0  0  0999 V2000
   -1.0607    0.1793   -0.1423 C   0  0  0  0  0  0  0  0  0  0  0  0
    0.2796    0.0327    0.4820 C   0  0  0  0  0  3  0  0  0  0  0  0
    0.8817   -1.4663    1.0791 S   0  0  0  0  0  0  0  0  0  0  0  0
   -1.3043    1.2328   -0.2850 H   0  0  0  0  0  0  0  0  0  0  0  0
   -1.8444   -0.2641    0.4799 H   0  0  0  0  0  0  0  0  0  0  0  0
   -1.1164   -0.3100   -1.1237 H   0  0  0  0  0  0  0  0  0  0  0  0
    1.0449    0.7826    0.3391 H   0  0  0  0  0  0  0  0  0  0  0  0
   -0.2993   -2.0726    1.2718 H   0  0  0  0  0  0  0  0  0  0  0  0
  1  2  1  0
  1  4  1  0
  1  5  1  0
  1  6  1  0
  2  3  1  0
  2  7  1  0
  3  8  1  0
M  RAD  1   2   2
M  END
>  <reaction>  (2) 
rxn_1368

>  <mol_properties>  (2) 
{"1": {"label": "acceptor", "atom_type": "Cs"}}

>  <type>  (2) 
r2

$$$$

     RDKit          3D

  9  8  0  0  0  0  0  0  0  0999 V2000
   -0.8818   -0.3578    0.1297 C   0  0  0  0  0  0  0  0  0  0  0  0
    0.6153   -0.3021   -0.1188 C   0  0  0  0  0  0  0  0  0  0  0  0
    1.5354   -1.7170    0.5545 S   0  0  0  0  0  0  0  0  0  0  0  0
   -1.1018   -0.3317    1.1984 H   0  0  0  0  0  0  0  0  0  0  0  0
   -1.3114   -1.2723   -0.2799 H   0  0  0  0  0  0  0  0  0  0  0  0
   -1.3767    0.4976   -0.3363 H   0  0  0  0  0  0  0  0  0  0  0  0
    1.0467    0.6194    0.2718 H   0  0  0  0  0  0  0  0  0  0  0  0
    0.8295   -0.3275   -1.1882 H   0  0  0  0  0  0  0  0  0  0  0  0
    1.2306   -1.5077    1.8423 H   0  0  0  0  0  0  0  0  0  0  0  0
  1  2  1  0
  1  4  1  0
  1  5  1  0
  1  6  1  0
  2  3  1  0
  2  7  1  0
  2  8  1  0
  3  9  1  0
M  END
>  <reaction>  (3) 
rxn_1368

>  <mol_properties>  (3) 
{"0": {"label": "a_hydrogen", "atom_type": "H0"}, "2": {"label": "acceptor", "atom_type": "Cs"}}

>  <type>  (3) 
r2h

$$$$

     RDKit          3D

 17 15  0  0  0  0  0  0  0  0999 V2000
   -0.0686   -1.3481   -2.6440 C   0  0  0  0  0  0  0  0  0  0  0  0
   -0.4945   -1.1858   -1.5333 C   0  0  0  0  0  0  0  0  0  0  0  0
   -0.9246   -0.9522   -0.1842 C   0  0  0  0  0  0  0  0  0  0  0  0
   -2.1310   -0.1951   -0.0060 C   0  0  0  0  0  0  0  0  0  0  0  0
   -3.1061    0.4783    0.1817 C   0  0  0  0  0  0  0  0  0  0  0  0
    0.2765   -1.5121   -3.6363 H   0  0  0  0  0  0  0  0  0  0  0  0
    0.0394   -0.2276    0.3329 H   0  0  0  0  0  0  0  0  0  0  0  0
   -0.8766   -1.8445    0.4396 H   0  0  0  0  0  0  0  0  0  0  0  0
   -3.9845    1.0576    0.3349 H   0  0  0  0  0  0  0  0  0  0  0  0
    0.8288    1.8216   -0.1790 C   0  0  0  0  0  0  0  0  0  0  0  0
    1.0848    0.6216    0.6882 C   0  0  0  0  0  3  0  0  0  0  0  0
    2.5668   -0.3000    0.4565 S   0  0  0  0  0  0  0  0  0  0  0  0
   -0.1617    2.2296    0.0293 H   0  0  0  0  0  0  0  0  0  0  0  0
    0.8647    1.5487   -1.2359 H   0  0  0  0  0  0  0  0  0  0  0  0
    1.5722    2.6039   -0.0036 H   0  0  0  0  0  0  0  0  0  0  0  0
    0.9178    0.7699    1.7534 H   0  0  0  0  0  0  0  0  0  0  0  0
    2.5137   -0.3454   -0.8831 H   0  0  0  0  0  0  0  0  0  0  0  0
  1  2  3  0
  1  6  1  0
  2  3  1  0
  3  4  1  0
  3  7  1  0
  3  8  1  0
  4  5  3  0
  5  9  1  0
 10 11  1  0
 10 13  1  0
 10 14  1  0
 10 15  1  0
 11 12  1  0
 11 16  1  0
 12 17  1  0
M  RAD  1  11   2
M  END
>  <reaction>  (4) 
rxn_1368

>  <mol_properties>  (4) 
{"1": {"label": "*0", "atom_type": "Ct"}, "2": {"label": "*1", "atom_type": "Cs"}, "6": {"label": "*2", "atom_type": "H0"}, "10": {"label": "*3", "atom_type": "Cs"}, "11": {"label": "*4", "atom_type": "S2s"}}

>  <type>  (4) 
ts

$$$$

     RDKit          3D

 17 15  0  0  0  0  0  0  0  0999 V2000
   -0.8119   -1.2097   -2.7808 C   0  0  0  0  0  0  0  0  0  0  0  0
   -0.8119   -1.2097   -1.5853 C   0  0  0  0  0  0  0  0  0  0  0  0
   -0.8119   -1.2097   -0.1223 C   0  0  0  0  0  3  0  0  0  0  0  0
   -2.1259   -0.9341    0.4588 C   0  0  0  0  0  0  0  0  0  0  0  0
   -3.1997   -0.7089    0.9337 C   0  0  0  0  0  0  0  0  0  0  0  0
   -0.8119   -1.2097   -3.8443 H   0  0  0  0  0  0  0  0  0  0  0  0
    0.0462   -0.3153    0.3087 H   0  0  0  0  0  0  0  0  0  0  0  0
   -0.4565   -2.1795    0.2368 H   0  0  0  0  0  0  0  0  0  0  0  0
   -4.1549   -0.5085    1.3562 H   0  0  0  0  0  0  0  0  0  0  0  0
    0.2161    1.6321    1.5875 C   0  0  0  0  0  0  0  0  0  0  0  0
    0.9014    0.5760    0.7382 C   0  0  0  0  0  0  0  0  0  0  0  0
    2.5571    1.0471    0.1564 S   0  0  0  0  0  0  0  0  0  0  0  0
   -0.7529    1.2686    1.9376 H   0  0  0  0  0  0  0  0  0  0  0  0
    0.0448    2.5445    1.0134 H   0  0  0  0  0  0  0  0  0  0  0  0
    0.8239    1.8898    2.4551 H   0  0  0  0  0  0  0  0  0  0  0  0
    1.0692   -0.3338    1.3164 H   0  0  0  0  0  0  0  0  0  0  0  0
    2.1761    2.1072   -0.5690 H   0  0  0  0  0  0  0  0  0  0  0  0
  1  2  3  0
  1  6  1  0
  2  3  1  0
  3  4  1  0
  3  8  1  0
  4  5  3  0
  5  9  1  0
  7 11  1  0
 10 11  1  0
 10 13  1  0
 10 14  1  0
 10 15  1  0
 11 12  1  0
 11 16  1  0
 12 17  1  0
M  RAD  1   3   2
M  END
>  <reaction>  (5) 
rxn_1368

>  <mol_properties>  (5) 
{"1": {"label": "*0", "atom_type": "Ct"}, "2": {"label": "*1", "atom_type": "Cs"}, "6": {"label": "*2", "atom_type": "H0"}, "10": {"label": "*3", "atom_type": "Cs"}, "11": {"label": "*4", "atom_type": "S2s"}}

>  <type>  (5) 
unop_1

>  <geom_source>  (5) 
Heuristics

$$$$

     RDKit          3D

 17 15  0  0  0  0  0  0  0  0999 V2000
   -0.8923   -0.9667   -2.9091 C   0  0  0  0  0  0  0  0  0  0  0  0
   -0.8923   -0.9667   -1.7136 C   0  0  0  0  0  0  0  0  0  0  0  0
   -0.8923   -0.9667   -0.2506 C   0  0  0  0  0  3  0  0  0  0  0  0
   -2.2063   -0.6911    0.3306 C   0  0  0  0  0  0  0  0  0  0  0  0
   -3.2801   -0.4659    0.8055 C   0  0  0  0  0  0  0  0  0  0  0  0
   -0.8923   -0.9667   -3.9726 H   0  0  0  0  0  0  0  0  0  0  0  0
   -0.0341   -0.0723    0.1805 H   0  0  0  0  0  0  0  0  0  0  0  0
   -0.5369   -1.9366    0.1086 H   0  0  0  0  0  0  0  0  0  0  0  0
   -4.2353   -0.2656    1.2279 H   0  0  0  0  0  0  0  0  0  0  0  0
    0.9491    1.9747   -0.3669 C   0  0  0  0  0  0  0  0  0  0  0  0
    0.8210    0.8190    0.6100 C   0  0  0  0  0  0  0  0  0  0  0  0
    2.3856    0.3285    1.3932 S   0  0  0  0  0  0  0  0  0  0  0  0
   -0.0310    2.2447   -0.7672 H   0  0  0  0  0  0  0  0  0  0  0  0
    1.5926    1.7068   -1.2068 H   0  0  0  0  0  0  0  0  0  0  0  0
    1.3784    2.8509    0.1196 H   0  0  0  0  0  0  0  0  0  0  0  0
    0.1763    1.0916    1.4468 H   0  0  0  0  0  0  0  0  0  0  0  0
    3.0214   -0.0299    0.2696 H   0  0  0  0  0  0  0  0  0  0  0  0
  1  2  3  0
  1  6  1  0
  2  3  1  0
  3  4  1  0
  3  8  1  0
  4  5  3  0
  5  9  1  0
  7 11  1  0
 10 11  1  0
 10 13  1  0
 10 14  1  0
 10 15  1  0
 11 12  1  0
 11 16  1  0
 12 17  1  0
M  RAD  1   3   2
M  END
>  <reaction>  (6) 
rxn_1368

>  <mol_properties>  (6) 
{"1": {"label": "*0", "atom_type": "Ct"}, "2": {"label": "*1", "atom_type": "Cs"}, "6": {"label": "*2", "atom_type": "H0"}, "10": {"label": "*3", "atom_type": "Cs"}, "11": {"label": "*4", "atom_type": "S2s"}}

>  <type>  (6) 
unop_2

>  <geom_source>  (6) 
Heuristics

$$$$

     RDKit          3D

 17 15  0  0  0  0  0  0  0  0999 V2000
   -0.6759   -1.3203   -2.7335 C   0  0  0  0  0  0  0  0  0  0  0  0
   -0.6759   -1.3203   -1.5380 C   0  0  0  0  0  0  0  0  0  0  0  0
   -0.6759   -1.3203   -0.0750 C   0  0  0  0  0  3  0  0  0  0  0  0
   -1.9899   -1.0447    0.5061 C   0  0  0  0  0  0  0  0  0  0  0  0
   -3.0637   -0.8195    0.9810 C   0  0  0  0  0  0  0  0  0  0  0  0
   -0.6759   -1.3203   -3.7970 H   0  0  0  0  0  0  0  0  0  0  0  0
    0.1822   -0.4259    0.3560 H   0  0  0  0  0  0  0  0  0  0  0  0
   -0.3205   -2.2902    0.2842 H   0  0  0  0  0  0  0  0  0  0  0  0
   -4.0189   -0.6192    1.4035 H   0  0  0  0  0  0  0  0  0  0  0  0
    0.6081    1.0401    2.1241 C   0  0  0  0  0  0  0  0  0  0  0  0
    1.0374    0.4654    0.7855 C   0  0  0  0  0  0  0  0  0  0  0  0
    2.0571    1.5885   -0.2148 S   0  0  0  0  0  0  0  0  0  0  0  0
    0.0365    0.3004    2.6898 H   0  0  0  0  0  0  0  0  0  0  0  0
   -0.0238    1.9195    1.9872 H   0  0  0  0  0  0  0  0  0  0  0  0
    1.4736    1.3368    2.7169 H   0  0  0  0  0  0  0  0  0  0  0  0
    1.6677   -0.4136    0.9281 H   0  0  0  0  0  0  0  0  0  0  0  0
    1.1409    2.5562   -0.3528 H   0  0  0  0  0  0  0  0  0  0  0  0
  1  2  3  0
  1  6  1  0
  2  3  1  0
  3  4  1  0
  3  8  1  0
  4  5  3  0
  5  9  1  0
  7 11  1  0
 10 11  1  0
 10 13  1  0
 10 14  1  0
 10 15  1  0
 11 12  1  0
 11 16  1  0
 12 17  1  0
M  RAD  1   3   2
M  END
>  <reaction>  (7) 
rxn_1368

>  <mol_properties>  (7) 
{"1": {"label": "*0", "atom_type": "Ct"}, "2": {"label": "*1", "atom_type": "Cs"}, "6": {"label": "*2", "atom_type": "H0"}, "10": {"label": "*3", "atom_type": "Cs"}, "11": {"label": "*4", "atom_type": "S2s"}}

>  <type>  (7) 
unop_3

>  <geom_source>  (7) 
Heuristics

$$$$

     RDKit          3D

 17 15  0  0  0  0  0  0  0  0999 V2000
   -0.5364   -0.7224   -3.1931 C   0  0  0  0  0  0  0  0  0  0  0  0
   -0.5364   -0.7224   -1.9976 C   0  0  0  0  0  0  0  0  0  0  0  0
   -0.5364   -0.7224   -0.5346 C   0  0  0  0  0  3  0  0  0  0  0  0
   -1.8504   -0.4468    0.0466 C   0  0  0  0  0  0  0  0  0  0  0  0
   -2.9242   -0.2216    0.5215 C   0  0  0  0  0  0  0  0  0  0  0  0
   -0.5364   -0.7224   -4.2566 H   0  0  0  0  0  0  0  0  0  0  0  0
    0.3217    0.1720   -0.1035 H   0  0  0  0  0  0  0  0  0  0  0  0
   -0.1810   -1.6922   -0.1754 H   0  0  0  0  0  0  0  0  0  0  0  0
   -3.8794   -0.0212    0.9439 H   0  0  0  0  0  0  0  0  0  0  0  0
    2.5823    0.7577   -0.1616 C   0  0  0  0  0  0  0  0  0  0  0  0
    1.1769    1.0633    0.3260 C   0  0  0  0  0  0  0  0  0  0  0  0
    0.7799    0.3500    1.9494 S   0  0  0  0  0  0  0  0  0  0  0  0
    2.7681    1.2499   -1.1191 H   0  0  0  0  0  0  0  0  0  0  0  0
    2.7221   -0.3155   -0.3031 H   0  0  0  0  0  0  0  0  0  0  0  0
    3.3276    1.1022    0.5558 H   0  0  0  0  0  0  0  0  0  0  0  0
    1.0424    2.1370    0.4648 H   0  0  0  0  0  0  0  0  0  0  0  0
    0.9229   -0.9351    1.5987 H   0  0  0  0  0  0  0  0  0  0  0  0
  1  2  3  0
  1  6  1  0
  2  3  1  0
  3  4  1  0
  3  8  1  0
  4  5  3  0
  5  9  1  0
  7 11  1  0
 10 11  1  0
 10 13  1  0
 10 14  1  0
 10 15  1  0
 11 12  1  0
 11 16  1  0
 12 17  1  0
M  RAD  1   3   2
M  END
>  <reaction>  (8) 
rxn_1368

>  <mol_properties>  (8) 
{"1": {"label": "*0", "atom_type": "Ct"}, "2": {"label": "*1", "atom_type": "Cs"}, "6": {"label": "*2", "atom_type": "H0"}, "10": {"label": "*3", "atom_type": "Cs"}, "11": {"label": "*4", "atom_type": "S2s"}}

>  <type>  (8) 
unop_4

>  <geom_source>  (8) 
Heuristics

$$$$

     RDKit          3D

 17 15  0  0  0  0  0  0  0  0999 V2000
   -0.3681   -1.3767   -2.8158 C   0  0  0  0  0  0  0  0  0  0  0  0
   -0.3681   -1.3767   -1.6203 C   0  0  0  0  0  0  0  0  0  0  0  0
   -0.3681   -1.3767   -0.1573 C   0  0  0  0  0  3  0  0  0  0  0  0
   -1.6821   -1.1011    0.4239 C   0  0  0  0  0  0  0  0  0  0  0  0
   -2.7559   -0.8758    0.8988 C   0  0  0  0  0  0  0  0  0  0  0  0
   -0.3681   -1.3767   -3.8793 H   0  0  0  0  0  0  0  0  0  0  0  0
    0.4900   -0.4823    0.2737 H   0  0  0  0  0  0  0  0  0  0  0  0
   -0.0127   -2.3465    0.2019 H   0  0  0  0  0  0  0  0  0  0  0  0
   -3.7111   -0.6755    1.3212 H   0  0  0  0  0  0  0  0  0  0  0  0
    1.3834    0.4488    2.2209 C   0  0  0  0  0  0  0  0  0  0  0  0
    1.3452    0.4090    0.7033 C   0  0  0  0  0  0  0  0  0  0  0  0
    0.9727    2.0083   -0.0748 S   0  0  0  0  0  0  0  0  0  0  0  0
    1.6535   -0.5316    2.6204 H   0  0  0  0  0  0  0  0  0  0  0  0
    0.4084    0.7207    2.6294 H   0  0  0  0  0  0  0  0  0  0  0  0
    2.1115    1.1796    2.5738 H   0  0  0  0  0  0  0  0  0  0  0  0
    2.3216    0.1359    0.3005 H   0  0  0  0  0  0  0  0  0  0  0  0
   -0.2477    2.1639    0.4557 H   0  0  0  0  0  0  0  0  0  0  0  0
  1  2  3  0
  1  6  1  0
  2  3  1  0
  3  4  1  0
  3  8  1  0
  4  5  3  0
  5  9  1  0
  7 11  1  0
 10 11  1  0
 10 13  1  0
 10 14  1  0
 10 15  1  0
 11 12  1  0
 11 16  1  0
 12 17  1  0
M  RAD  1   3   2
M  END
>  <reaction>  (9) 
rxn_1368

>  <mol_properties>  (9) 
{"1": {"label": "*0", "atom_type": "Ct"}, "2": {"label": "*1", "atom_type": "Cs"}, "6": {"label": "*2", "atom_type": "H0"}, "10": {"label": "*3", "atom_type": "Cs"}, "11": {"label": "*4", "atom_type": "S2s"}}

>  <type>  (9) 
unop_5

>  <geom_source>  (9) 
Heuristics

$$$$

     RDKit          3D

 17 15  0  0  0  0  0  0  0  0999 V2000
   -0.3461   -0.8104   -3.2246 C   0  0  0  0  0  0  0  0  0  0  0  0
   -0.3461   -0.8104   -2.0291 C   0  0  0  0  0  0  0  0  0  0  0  0
   -0.3461   -0.8104   -0.5661 C   0  0  0  0  0  3  0  0  0  0  0  0
   -1.6601   -0.5348    0.0151 C   0  0  0  0  0  0  0  0  0  0  0  0
   -2.7339   -0.3096    0.4900 C   0  0  0  0  0  0  0  0  0  0  0  0
   -0.3461   -0.8104   -4.2881 H   0  0  0  0  0  0  0  0  0  0  0  0
    0.5120    0.0840   -0.1351 H   0  0  0  0  0  0  0  0  0  0  0  0
    0.0093   -1.7802   -0.2069 H   0  0  0  0  0  0  0  0  0  0  0  0
   -3.6891   -0.1092    0.9124 H   0  0  0  0  0  0  0  0  0  0  0  0
    2.7485    0.3707    0.4753 C   0  0  0  0  0  0  0  0  0  0  0  0
    1.3672    0.9753    0.2945 C   0  0  0  0  0  0  0  0  0  0  0  0
    0.2593    0.7403    1.7154 S   0  0  0  0  0  0  0  0  0  0  0  0
    3.3741    0.5845   -0.3945 H   0  0  0  0  0  0  0  0  0  0  0  0
    2.6889   -0.7134    0.5876 H   0  0  0  0  0  0  0  0  0  0  0  0
    3.2379    0.7742    1.3621 H   0  0  0  0  0  0  0  0  0  0  0  0
    1.4326    2.0585    0.1818 H   0  0  0  0  0  0  0  0  0  0  0  0
    0.2318   -0.5987    1.6771 H   0  0  0  0  0  0  0  0  0  0  0  0
  1  2  3  0
  1  6  1  0
  2  3  1  0
  3  4  1  0
  3  8  1  0
  4  5  3  0
  5  9  1  0
  7 11  1  0
 10 11  1  0
 10 13  1  0
 10 14  1  0
 10 15  1  0
 11 12  1  0
 11 16  1  0
 12 17  1  0
M  RAD  1   3   2
M  END
>  <reaction>  (10) 
rxn_1368

>  <mol_properties>  (10) 
{"1": {"label": "*0", "atom_type": "Ct"}, "2": {"label": "*1", "atom_type": "Cs"}, "6": {"label": "*2", "atom_type": "H0"}, "10": {"label": "*3", "atom_type": "Cs"}, "11": {"label": "*4", "atom_type": "S2s"}}

>  <type>  (10) 
unop_6

>  <geom_source>  (10) 
Heuristics

$$$$

     RDKit          3D

 17 15  0  0  0  0  0  0  0  0999 V2000
   -0.1987   -0.9709   -3.1747 C   0  0  0  0  0  0  0  0  0  0  0  0
   -0.1987   -0.9709   -1.9792 C   0  0  0  0  0  0  0  0  0  0  0  0
   -0.1987   -0.9709   -0.5162 C   0  0  0  0  0  3  0  0  0  0  0  0
   -1.5127   -0.6953    0.0649 C   0  0  0  0  0  0  0  0  0  0  0  0
   -2.5864   -0.4701    0.5398 C   0  0  0  0  0  0  0  0  0  0  0  0
   -0.1987   -0.9709   -4.2382 H   0  0  0  0  0  0  0  0  0  0  0  0
    0.6595   -0.0765   -0.0852 H   0  0  0  0  0  0  0  0  0  0  0  0
    0.1567   -1.9407   -0.1570 H   0  0  0  0  0  0  0  0  0  0  0  0
   -3.5416   -0.2697    0.9623 H   0  0  0  0  0  0  0  0  0  0  0  0
    2.5982    0.1738    1.1936 C   0  0  0  0  0  0  0  0  0  0  0  0
    1.5146    0.8148    0.3444 C   0  0  0  0  0  0  0  0  0  0  0  0
   -0.0094    1.2070    1.2528 S   0  0  0  0  0  0  0  0  0  0  0  0
    3.4981    0.0042    0.5976 H   0  0  0  0  0  0  0  0  0  0  0  0
    2.2685   -0.7902    1.5854 H   0  0  0  0  0  0  0  0  0  0  0  0
    2.8578    0.8099    2.0402 H   0  0  0  0  0  0  0  0  0  0  0  0
    1.8496    1.7772   -0.0454 H   0  0  0  0  0  0  0  0  0  0  0  0
   -0.3180   -0.0503    1.5978 H   0  0  0  0  0  0  0  0  0  0  0  0
  1  2  3  0
  1  6  1  0
  2  3  1  0
  3  4  1  0
  3  8  1  0
  4  5  3  0
  5  9  1  0
  7 11  1  0
 10 11  1  0
 10 13  1  0
 10 14  1  0
 10 15  1  0
 11 12  1  0
 11 16  1  0
 12 17  1  0
M  RAD  1   3   2
M  END
>  <reaction>  (11) 
rxn_1368

>  <mol_properties>  (11) 
{"1": {"label": "*0", "atom_type": "Ct"}, "2": {"label": "*1", "atom_type": "Cs"}, "6": {"label": "*2", "atom_type": "H0"}, "10": {"label": "*3", "atom_type": "Cs"}, "11": {"label": "*4", "atom_type": "S2s"}}

>  <type>  (11) 
unop_7

>  <geom_source>  (11) 
Heuristics

$$$$

     RDKit          3D

 17 15  0  0  0  0  0  0  0  0999 V2000
   -0.8578   -1.1382   -2.8347 C   0  0  0  0  0  0  0  0  0  0  0  0
   -0.8578   -1.1382   -1.6392 C   0  0  0  0  0  0  0  0  0  0  0  0
   -0.8578   -1.1382   -0.1762 C   0  0  0  0  0  3  0  0  0  0  0  0
   -2.1718   -0.8626    0.4049 C   0  0  0  0  0  0  0  0  0  0  0  0
   -3.2456   -0.6374    0.8798 C   0  0  0  0  0  0  0  0  0  0  0  0
   -0.8578   -1.1382   -3.8982 H   0  0  0  0  0  0  0  0  0  0  0  0
    0.0003   -0.2438    0.2548 H   0  0  0  0  0  0  0  0  0  0  0  0
   -0.5024   -2.1081    0.1830 H   0  0  0  0  0  0  0  0  0  0  0  0
   -4.2008   -0.4370    1.3023 H   0  0  0  0  0  0  0  0  0  0  0  0
    0.1942    2.0026    0.8652 C   0  0  0  0  0  0  0  0  0  0  0  0
    0.8555    0.6475    0.6844 C   0  0  0  0  0  0  0  0  0  0  0  0
    2.6708    0.7057    0.6301 S   0  0  0  0  0  0  0  0  0  0  0  0
   -0.8905    1.8906    0.9320 H   0  0  0  0  0  0  0  0  0  0  0  0
    0.4125    2.6597    0.0214 H   0  0  0  0  0  0  0  0  0  0  0  0
    0.5488    2.4917    1.7728 H   0  0  0  0  0  0  0  0  0  0  0  0
    0.6333   -0.0053    1.5297 H   0  0  0  0  0  0  0  0  0  0  0  0
    2.7737    1.4667   -0.4677 H   0  0  0  0  0  0  0  0  0  0  0  0
  1  2  3  0
  1  6  1  0
  2  3  1  0
  3  4  1  0
  3  8  1  0
  4  5  3  0
  5  9  1  0
  7 11  1  0
 10 11  1  0
 10 13  1  0
 10 14  1  0
 10 15  1  0
 11 12  1  0
 11 16  1  0
 12 17  1  0
M  RAD  1   3   2
M  END
>  <reaction>  (12) 
rxn_1368

>  <mol_properties>  (12) 
{"1": {"label": "*0", "atom_type": "Ct"}, "2": {"label": "*1", "atom_type": "Cs"}, "6": {"label": "*2", "atom_type": "H0"}, "10": {"label": "*3", "atom_type": "Cs"}, "11": {"label": "*4", "atom_type": "S2s"}}

>  <type>  (12) 
unop_8

>  <geom_source>  (12) 
Heuristics

$$$$

     RDKit          3D

 17 15  0  0  0  0  0  0  0  0999 V2000
   -0.7233   -0.7285   -3.0997 C   0  0  0  0  0  0  0  0  0  0  0  0
   -0.7233   -0.7285   -1.9042 C   0  0  0  0  0  0  0  0  0  0  0  0
   -0.7233   -0.7285   -0.4412 C   0  0  0  0  0  3  0  0  0  0  0  0
   -2.0373   -0.4529    0.1400 C   0  0  0  0  0  0  0  0  0  0  0  0
   -3.1111   -0.2277    0.6149 C   0  0  0  0  0  0  0  0  0  0  0  0
   -0.7233   -0.7285   -4.1632 H   0  0  0  0  0  0  0  0  0  0  0  0
    0.1348    0.1659   -0.0102 H   0  0  0  0  0  0  0  0  0  0  0  0
   -0.3680   -1.6984   -0.0820 H   0  0  0  0  0  0  0  0  0  0  0  0
   -4.0663   -0.0274    1.0373 H   0  0  0  0  0  0  0  0  0  0  0  0
    2.1394    1.2330   -0.5575 C   0  0  0  0  0  0  0  0  0  0  0  0
    0.9900    1.0572    0.4194 C   0  0  0  0  0  0  0  0  0  0  0  0
    1.4252    0.1357    1.9238 S   0  0  0  0  0  0  0  0  0  0  0  0
    1.8212    1.8296   -1.4157 H   0  0  0  0  0  0  0  0  0  0  0  0
    2.4867    0.2677   -0.9300 H   0  0  0  0  0  0  0  0  0  0  0  0
    2.9831    1.7330   -0.0812 H   0  0  0  0  0  0  0  0  0  0  0  0
    0.6461    2.0248    0.7877 H   0  0  0  0  0  0  0  0  0  0  0  0
    1.7517   -1.0140    1.3183 H   0  0  0  0  0  0  0  0  0  0  0  0
  1  2  3  0
  1  6  1  0
  2  3  1  0
  3  4  1  0
  3  8  1  0
  4  5  3  0
  5  9  1  0
  7 11  1  0
 10 11  1  0
 10 13  1  0
 10 14  1  0
 10 15  1  0
 11 12  1  0
 11 16  1  0
 12 17  1  0
M  RAD  1   3   2
M  END
>  <reaction>  (13) 
rxn_1368

>  <mol_properties>  (13) 
{"1": {"label": "*0", "atom_type": "Ct"}, "2": {"label": "*1", "atom_type": "Cs"}, "6": {"label": "*2", "atom_type": "H0"}, "10": {"label": "*3", "atom_type": "Cs"}, "11": {"label": "*4", "atom_type": "S2s"}}

>  <type>  (13) 
unop_9

>  <geom_source>  (13) 
Heuristics

$$$$

     RDKit          3D

 17 15  0  0  0  0  0  0  0  0999 V2000
   -0.8814   -1.0705   -2.8697 C   0  0  0  0  0  0  0  0  0  0  0  0
   -0.8814   -1.0705   -1.6742 C   0  0  0  0  0  0  0  0  0  0  0  0
   -0.8814   -1.0705   -0.2112 C   0  0  0  0  0  3  0  0  0  0  0  0
   -2.1954   -0.7948    0.3699 C   0  0  0  0  0  0  0  0  0  0  0  0
   -3.2691   -0.5696    0.8448 C   0  0  0  0  0  0  0  0  0  0  0  0
   -0.8814   -1.0705   -3.9332 H   0  0  0  0  0  0  0  0  0  0  0  0
   -0.0232   -0.1761    0.2198 H   0  0  0  0  0  0  0  0  0  0  0  0
   -0.5260   -2.0403    0.1480 H   0  0  0  0  0  0  0  0  0  0  0  0
   -4.2243   -0.3693    1.2673 H   0  0  0  0  0  0  0  0  0  0  0  0
    0.4684    2.1068    0.1618 C   0  0  0  0  0  0  0  0  0  0  0  0
    0.8319    0.7153    0.6493 C   0  0  0  0  0  0  0  0  0  0  0  0
    2.5916    0.5020    1.0493 S   0  0  0  0  0  0  0  0  0  0  0  0
   -0.6068    2.1776   -0.0190 H   0  0  0  0  0  0  0  0  0  0  0  0
    0.9820    2.3400   -0.7726 H   0  0  0  0  0  0  0  0  0  0  0  0
    0.7471    2.8627    0.8964 H   0  0  0  0  0  0  0  0  0  0  0  0
    0.3153    0.4870    1.5827 H   0  0  0  0  0  0  0  0  0  0  0  0
    3.0656    0.7446   -0.1801 H   0  0  0  0  0  0  0  0  0  0  0  0
  1  2  3  0
  1  6  1  0
  2  3  1  0
  3  4  1  0
  3  8  1  0
  4  5  3  0
  5  9  1  0
  7 11  1  0
 10 11  1  0
 10 13  1  0
 10 14  1  0
 10 15  1  0
 11 12  1  0
 11 16  1  0
 12 17  1  0
M  RAD  1   3   2
M  END
>  <reaction>  (14) 
rxn_1368

>  <mol_properties>  (14) 
{"1": {"label": "*0", "atom_type": "Ct"}, "2": {"label": "*1", "atom_type": "Cs"}, "6": {"label": "*2", "atom_type": "H0"}, "10": {"label": "*3", "atom_type": "Cs"}, "11": {"label": "*4", "atom_type": "S2s"}}

>  <type>  (14) 
unop_10

>  <geom_source>  (14) 
Heuristics

$$$$

     RDKit          3D

 17 15  0  0  0  0  0  0  0  0999 V2000
   -0.1602   -1.1908   -3.0308 C   0  0  0  0  0  0  0  0  0  0  0  0
   -0.1602   -1.1908   -1.8353 C   0  0  0  0  0  0  0  0  0  0  0  0
   -0.1602   -1.1908   -0.3723 C   0  0  0  0  0  3  0  0  0  0  0  0
   -1.4742   -0.9152    0.2088 C   0  0  0  0  0  0  0  0  0  0  0  0
   -2.5480   -0.6899    0.6837 C   0  0  0  0  0  0  0  0  0  0  0  0
   -0.1602   -1.1908   -4.0943 H   0  0  0  0  0  0  0  0  0  0  0  0
    0.6979   -0.2964    0.0587 H   0  0  0  0  0  0  0  0  0  0  0  0
    0.1951   -2.1606   -0.0131 H   0  0  0  0  0  0  0  0  0  0  0  0
   -3.5032   -0.4896    1.1062 H   0  0  0  0  0  0  0  0  0  0  0  0
    2.1450    0.1898    1.8268 C   0  0  0  0  0  0  0  0  0  0  0  0
    1.5531    0.5949    0.4883 C   0  0  0  0  0  0  0  0  0  0  0  0
    0.1218    1.7075    0.6128 S   0  0  0  0  0  0  0  0  0  0  0  0
    3.0241   -0.4419    1.6783 H   0  0  0  0  0  0  0  0  0  0  0  0
    1.4223   -0.3746    2.4189 H   0  0  0  0  0  0  0  0  0  0  0  0
    2.4412    1.0662    2.4037 H   0  0  0  0  0  0  0  0  0  0  0  0
    2.2796    1.1576   -0.0997 H   0  0  0  0  0  0  0  0  0  0  0  0
   -0.6771    0.8659    1.2826 H   0  0  0  0  0  0  0  0  0  0  0  0
  1  2  3  0
  1  6  1  0
  2  3  1  0
  3  4  1  0
  3  8  1  0
  4  5  3  0
  5  9  1  0
  7 11  1  0
 10 11  1  0
 10 13  1  0
 10 14  1  0
 10 15  1  0
 11 12  1  0
 11 16  1  0
 12 17  1  0
M  RAD  1   3   2
M  END
>  <reaction>  (15) 
rxn_1368

>  <mol_properties>  (15) 
{"1": {"label": "*0", "atom_type": "Ct"}, "2": {"label": "*1", "atom_type": "Cs"}, "6": {"label": "*2", "atom_type": "H0"}, "10": {"label": "*3", "atom_type": "Cs"}, "11": {"label": "*4", "atom_type": "S2s"}}

>  <type>  (15) 
unop_11

>  <geom_source>  (15) 
Heuristics

$$$$

     RDKit          3D

 17 15  0  0  0  0  0  0  0  0999 V2000
   -0.8516   -0.8300   -2.9877 C   0  0  0  0  0  0  0  0  0  0  0  0
   -0.8516   -0.8300   -1.7922 C   0  0  0  0  0  0  0  0  0  0  0  0
   -0.8516   -0.8300   -0.3292 C   0  0  0  0  0  3  0  0  0  0  0  0
   -2.1656   -0.5544    0.2519 C   0  0  0  0  0  0  0  0  0  0  0  0
   -3.2393   -0.3291    0.7268 C   0  0  0  0  0  0  0  0  0  0  0  0
   -0.8516   -0.8300   -4.0512 H   0  0  0  0  0  0  0  0  0  0  0  0
    0.0066    0.0644    0.1018 H   0  0  0  0  0  0  0  0  0  0  0  0
   -0.4962   -1.7998    0.0300 H   0  0  0  0  0  0  0  0  0  0  0  0
   -4.1945   -0.1288    1.1493 H   0  0  0  0  0  0  0  0  0  0  0  0
    1.5436    1.6665   -0.6246 C   0  0  0  0  0  0  0  0  0  0  0  0
    0.8617    0.9557    0.5314 C   0  0  0  0  0  0  0  0  0  0  0  0
    2.0070    0.1618    1.6975 S   0  0  0  0  0  0  0  0  0  0  0  0
    0.8022    2.1556   -1.2608 H   0  0  0  0  0  0  0  0  0  0  0  0
    2.1026    0.9610   -1.2420 H   0  0  0  0  0  0  0  0  0  0  0  0
    2.2412    2.4216   -0.2614 H   0  0  0  0  0  0  0  0  0  0  0  0
    0.3039    1.6651    1.1444 H   0  0  0  0  0  0  0  0  0  0  0  0
    2.5502   -0.6995    0.8269 H   0  0  0  0  0  0  0  0  0  0  0  0
  1  2  3  0
  1  6  1  0
  2  3  1  0
  3  4  1  0
  3  8  1  0
  4  5  3  0
  5  9  1  0
  7 11  1  0
 10 11  1  0
 10 13  1  0
 10 14  1  0
 10 15  1  0
 11 12  1  0
 11 16  1  0
 12 17  1  0
M  RAD  1   3   2
M  END
>  <reaction>  (16) 
rxn_1368

>  <mol_properties>  (16) 
{"1": {"label": "*0", "atom_type": "Ct"}, "2": {"label": "*1", "atom_type": "Cs"}, "6": {"label": "*2", "atom_type": "H0"}, "10": {"label": "*3", "atom_type": "Cs"}, "11": {"label": "*4", "atom_type": "S2s"}}

>  <type>  (16) 
unop_12

>  <geom_source>  (16) 
Heuristics

$$$$

     RDKit          3D

 17 15  0  0  0  0  0  0  0  0999 V2000
   -1.7754   -1.9213    1.1590 S   0  0  0  0  0  0  0  0  0  0  0  0
   -1.0993   -0.8557   -0.1514 C   0  0  0  0  0  0  0  0  0  0  0  0
   -2.2173   -0.1060   -0.8599 C   0  0  0  0  0  0  0  0  0  0  0  0
    1.0729    0.3178    0.7116 C   0  0  0  0  0  3  0  0  0  0  0  0
    2.1375   -0.5866    0.2726 C   0  0  0  0  0  0  0  0  0  0  0  0
    1.3032    1.6560    0.1639 C   0  0  0  0  0  0  0  0  0  0  0  0
    3.0133   -1.3328   -0.0880 C   0  0  0  0  0  0  0  0  0  0  0  0
    1.4911    2.7587   -0.2863 C   0  0  0  0  0  0  0  0  0  0  0  0
   -0.5540   -1.4873   -0.8839 H   0  0  0  0  0  0  0  0  0  0  0  0
   -0.2384    0.0254    0.3903 H   0  0  0  0  0  0  0  0  0  0  0  0
   -2.7547    0.5473   -0.1407 H   0  0  0  0  0  0  0  0  0  0  0  0
   -1.7865    0.5274   -1.6632 H   0  0  0  0  0  0  0  0  0  0  0  0
   -2.9335   -0.8239   -1.3129 H   0  0  0  0  0  0  0  0  0  0  0  0
    1.0632    0.3679    1.8199 H   0  0  0  0  0  0  0  0  0  0  0  0
   -2.1604   -0.8255    1.9549 H   0  0  0  0  0  0  0  0  0  0  0  0
    3.7820   -1.9876   -0.4045 H   0  0  0  0  0  0  0  0  0  0  0  0
    1.6562    3.7264   -0.6815 H   0  0  0  0  0  0  0  0  0  0  0  0
  1  2  1  0
  1 15  1  0
  2  3  1  0
  2  9  1  0
  2 10  1  0
  3 11  1  0
  3 12  1  0
  3 13  1  0
  4  5  1  0
  4  6  1  0
  4 14  1  0
  5  7  3  0
  6  8  3  0
  7 16  1  0
  8 17  1  0
M  RAD  1   4   2
M  END
>  <reaction>  (17) 
rxn_1368

>  <mol_properties>  (17) 
{"1": {"label": "*0", "atom_type": "Ct"}, "2": {"label": "*1", "atom_type": "Cs"}, "6": {"label": "*2", "atom_type": "H0"}, "10": {"label": "*3", "atom_type": "Cs"}, "11": {"label": "*4", "atom_type": "S2s"}}

>  <type>  (17) 
unop_13

>  <geom_source>  (17) 
AutoTST

$$$$

     RDKit          3D

 17 15  0  0  0  0  0  0  0  0999 V2000
   -0.8923   -0.9667   -2.9091 C   0  0  0  0  0  0  0  0  0  0  0  0
   -0.8923   -0.9667   -1.7136 C   0  0  0  0  0  0  0  0  0  0  0  0
   -0.8923   -0.9667   -0.2506 C   0  0  0  0  0  3  0  0  0  0  0  0
   -2.2063   -0.6911    0.3306 C   0  0  0  0  0  0  0  0  0  0  0  0
   -3.2801   -0.4659    0.8055 C   0  0  0  0  0  0  0  0  0  0  0  0
   -0.8923   -0.9667   -3.9726 H   0  0  0  0  0  0  0  0  0  0  0  0
   -0.0341   -0.0723    0.1804 H   0  0  0  0  0  0  0  0  0  0  0  0
   -0.5369   -1.9366    0.1086 H   0  0  0  0  0  0  0  0  0  0  0  0
   -4.2352   -0.2656    1.2279 H   0  0  0  0  0  0  0  0  0  0  0  0
    0.9492    1.9747   -0.3669 C   0  0  0  0  0  0  0  0  0  0  0  0
    0.8210    0.8190    0.6100 C   0  0  0  0  0  0  0  0  0  0  0  0
    2.3856    0.3286    1.3932 S   0  0  0  0  0  0  0  0  0  0  0  0
   -0.0310    2.2447   -0.7672 H   0  0  0  0  0  0  0  0  0  0  0  0
    1.5926    1.7068   -1.2068 H   0  0  0  0  0  0  0  0  0  0  0  0
    1.3784    2.8509    0.1196 H   0  0  0  0  0  0  0  0  0  0  0  0
    0.1763    1.0916    1.4468 H   0  0  0  0  0  0  0  0  0  0  0  0
    3.0214   -0.0300    0.2696 H   0  0  0  0  0  0  0  0  0  0  0  0
  1  2  3  0
  1  6  1  0
  2  3  1  0
  3  4  1  0
  3  8  1  0
  4  5  3  0
  5  9  1  0
  7 11  1  0
 10 11  1  0
 10 13  1  0
 10 14  1  0
 10 15  1  0
 11 12  1  0
 11 16  1  0
 12 17  1  0
M  RAD  1   3   2
M  END
>  <reaction>  (18) 
rxn_1368

>  <mol_properties>  (18) 
{"1": {"label": "*0", "atom_type": "Ct"}, "2": {"label": "*1", "atom_type": "Cs"}, "6": {"label": "*2", "atom_type": "H0"}, "10": {"label": "*3", "atom_type": "Cs"}, "11": {"label": "*4", "atom_type": "S2s"}}

>  <type>  (18) 
unop_14

>  <geom_source>  (18) 
gaussian_log

$$$$
