
     RDKit          3D

  5  4  0  0  0  0  0  0  0  0999 V2000
   -0.3689   -0.0540    0.1184 C   0  0  0  0  0  0  0  0  0  0  0  0
    0.7862    0.4359    0.2394 N   0  0  0  0  0  0  0  0  0  0  0  0
   -0.6872   -0.7035   -0.7033 H   0  0  0  0  0  0  0  0  0  0  0  0
   -1.1194    0.1733    0.8758 H   0  0  0  0  0  0  0  0  0  0  0  0
    1.3892    0.1482   -0.5303 H   0  0  0  0  0  0  0  0  0  0  0  0
  1  2  2  3
  1  3  1  0
  1  4  1  0
  2  5  1  0
M  END
>  <reaction>  (1) 
rxn_670

>  <mol_properties>  (1) 
{"1": {"label": "donator", "atom_type": "N3d"}, "4": {"label": "d_hydrogen", "atom_type": "H0"}}

>  <type>  (1) 
r1h

$$$$

     RDKit          3D

  4  3  0  0  0  0  0  0  0  0999 V2000
    0.0000    0.0000    0.0000 C   0  0  0  0  0  3  0  0  0  0  0  0
    1.0638   -0.1747    0.0540 H   0  0  0  0  0  0  0  0  0  0  0  0
   -0.6833   -0.8351   -0.0280 H   0  0  0  0  0  0  0  0  0  0  0  0
   -0.3805    1.0098   -0.0260 H   0  0  0  0  0  0  0  0  0  0  0  0
  1  2  1  0
  1  3  1  0
  1  4  1  0
M  RAD  1   1   2
M  END
>  <reaction>  (2) 
rxn_670

>  <mol_properties>  (2) 
{"0": {"label": "acceptor", "atom_type": "Cs"}}

>  <type>  (2) 
r2

$$$$

     RDKit          3D

  5  4  0  0  0  0  0  0  0  0999 V2000
    0.0000    0.0000    0.0000 C   0  0  0  0  0  0  0  0  0  0  0  0
   -0.6486   -0.7720   -0.4113 H   0  0  0  0  0  0  0  0  0  0  0  0
   -0.3482    0.9787   -0.3267 H   0  0  0  0  0  0  0  0  0  0  0  0
   -0.0223   -0.0487    1.0876 H   0  0  0  0  0  0  0  0  0  0  0  0
    1.0191   -0.1580   -0.3496 H   0  0  0  0  0  0  0  0  0  0  0  0
  1  2  1  0
  1  3  1  0
  1  4  1  0
  1  5  1  0
M  END
>  <reaction>  (3) 
rxn_670

>  <mol_properties>  (3) 
{"0": {"label": "a_hydrogen", "atom_type": "H0"}, "1": {"label": "acceptor", "atom_type": "Cs"}}

>  <type>  (3) 
r2h

$$$$

     RDKit          3D

  9  7  0  0  0  0  0  0  0  0999 V2000
   -0.1394   -0.9799   -0.8411 C   0  0  0  0  0  0  0  0  0  0  0  0
    0.3793    0.1198   -1.1475 N   0  0  0  0  0  0  0  0  0  0  0  0
   -0.5864   -1.1982    0.1348 H   0  0  0  0  0  0  0  0  0  0  0  0
   -0.1564   -1.7834   -1.5810 H   0  0  0  0  0  0  0  0  0  0  0  0
    0.2988    0.8523   -0.2178 H   0  0  0  0  0  0  0  0  0  0  0  0
    0.0982    1.5552    1.0025 C   0  0  0  0  0  3  0  0  0  0  0  0
    0.5374    2.5216    0.7781 H   0  0  0  0  0  0  0  0  0  0  0  0
   -0.9794    1.5663    1.1318 H   0  0  0  0  0  0  0  0  0  0  0  0
    0.6397    0.9718    1.7403 H   0  0  0  0  0  0  0  0  0  0  0  0
  1  2  2  3
  1  3  1  0
  1  4  1  0
  2  5  1  0
  6  7  1  0
  6  8  1  0
  6  9  1  0
M  RAD  1   6   2
M  END
>  <reaction>  (4) 
rxn_670

>  <mol_properties>  (4) 
{"0": {"label": "*0", "atom_type": "Cd"}, "1": {"label": "*1", "atom_type": "N3d"}, "4": {"label": "*2", "atom_type": "H0"}, "5": {"label": "*3", "atom_type": "Cs"}, "6": {"label": "*4", "atom_type": "H0"}}

>  <type>  (4) 
ts

$$$$

     RDKit          3D

  9  7  0  0  0  0  0  0  0  0999 V2000
   -0.0026   -0.8462   -1.1793 C   0  0  0  0  0  0  0  0  0  0  0  0
   -0.0026   -0.8462    0.0812 N   0  0  0  0  0  0  0  0  0  0  0  0
   -0.0026    0.0539   -1.8023 H   0  0  0  0  0  0  0  0  0  0  0  0
   -0.0026   -1.8008   -1.7059 H   0  0  0  0  0  0  0  0  0  0  0  0
   -0.0026    0.2950    0.5214 H   0  0  0  0  0  0  0  0  0  0  0  0
   -0.0026    1.5141    0.9917 C   0  0  0  0  0  3  0  0  0  0  0  0
   -0.8918    1.6680    1.6013 H   0  0  0  0  0  0  0  0  0  0  0  0
    0.6827    1.0517    1.7004 H   0  0  0  0  0  0  0  0  0  0  0  0
    0.3166    2.5358    0.7917 H   0  0  0  0  0  0  0  0  0  0  0  0
  1  2  2  3
  1  3  1  0
  1  4  1  0
  2  5  1  0
  6  7  1  0
  6  8  1  0
  6  9  1  0
M  RAD  1   6   2
M  END
>  <reaction>  (5) 
rxn_670

>  <mol_properties>  (5) 
{"0": {"label": "*0", "atom_type": "Cd"}, "1": {"label": "*1", "atom_type": "N3d"}, "4": {"label": "*2", "atom_type": "H0"}, "5": {"label": "*3", "atom_type": "Cs"}, "6": {"label": "*4", "atom_type": "H0"}}

>  <type>  (5) 
unop_1

>  <geom_source>  (5) 
Heuristics

$$$$

     RDKit          3D

  9  7  0  0  0  0  0  0  0  0999 V2000
    0.0004   -0.8361   -1.1627 C   0  0  0  0  0  0  0  0  0  0  0  0
    0.0004   -0.8361    0.0978 N   0  0  0  0  0  0  0  0  0  0  0  0
    0.0004    0.0640   -1.7857 H   0  0  0  0  0  0  0  0  0  0  0  0
    0.0004   -1.7907   -1.6893 H   0  0  0  0  0  0  0  0  0  0  0  0
    0.0004    0.3051    0.5381 H   0  0  0  0  0  0  0  0  0  0  0  0
    0.0004    1.5242    1.0084 C   0  0  0  0  0  3  0  0  0  0  0  0
   -0.5130    2.1829    0.3095 H   0  0  0  0  0  0  0  0  0  0  0  0
   -0.5286    0.9634    1.7774 H   0  0  0  0  0  0  0  0  0  0  0  0
    1.0269    1.6982    1.3274 H   0  0  0  0  0  0  0  0  0  0  0  0
  1  2  2  3
  1  3  1  0
  1  4  1  0
  2  5  1  0
  6  7  1  0
  6  8  1  0
  6  9  1  0
M  RAD  1   6   2
M  END
>  <reaction>  (6) 
rxn_670

>  <mol_properties>  (6) 
{"0": {"label": "*0", "atom_type": "Cd"}, "1": {"label": "*1", "atom_type": "N3d"}, "4": {"label": "*2", "atom_type": "H0"}, "5": {"label": "*3", "atom_type": "Cs"}, "6": {"label": "*4", "atom_type": "H0"}}

>  <type>  (6) 
unop_2

>  <geom_source>  (6) 
Heuristics

$$$$

     RDKit          3D

  9  7  0  0  0  0  0  0  0  0999 V2000
   -0.0053   -0.8527   -1.1815 C   0  0  0  0  0  0  0  0  0  0  0  0
   -0.0053   -0.8527    0.0790 N   0  0  0  0  0  0  0  0  0  0  0  0
   -0.0053    0.0474   -1.8045 H   0  0  0  0  0  0  0  0  0  0  0  0
   -0.0053   -1.8073   -1.7081 H   0  0  0  0  0  0  0  0  0  0  0  0
   -0.0053    0.2884    0.5193 H   0  0  0  0  0  0  0  0  0  0  0  0
   -0.0053    1.5076    0.9896 C   0  0  0  0  0  3  0  0  0  0  0  0
   -0.5186    1.5262    1.9497 H   0  0  0  0  0  0  0  0  0  0  0  0
    0.9786    1.4470    1.4523 H   0  0  0  0  0  0  0  0  0  0  0  0
   -0.2433    2.5488    0.7776 H   0  0  0  0  0  0  0  0  0  0  0  0
  1  2  2  3
  1  3  1  0
  1  4  1  0
  2  5  1  0
  6  7  1  0
  6  8  1  0
  6  9  1  0
M  RAD  1   6   2
M  END
>  <reaction>  (7) 
rxn_670

>  <mol_properties>  (7) 
{"0": {"label": "*0", "atom_type": "Cd"}, "1": {"label": "*1", "atom_type": "N3d"}, "4": {"label": "*2", "atom_type": "H0"}, "5": {"label": "*3", "atom_type": "Cs"}, "6": {"label": "*4", "atom_type": "H0"}}

>  <type>  (7) 
unop_3

>  <geom_source>  (7) 
Heuristics

$$$$

     RDKit          3D

  9  7  0  0  0  0  0  0  0  0999 V2000
   -0.0012   -0.8389   -1.1670 C   0  0  0  0  0  0  0  0  0  0  0  0
   -0.0012   -0.8389    0.0935 N   0  0  0  0  0  0  0  0  0  0  0  0
   -0.0012    0.0612   -1.7900 H   0  0  0  0  0  0  0  0  0  0  0  0
   -0.0012   -1.7936   -1.6936 H   0  0  0  0  0  0  0  0  0  0  0  0
   -0.0012    0.3022    0.5337 H   0  0  0  0  0  0  0  0  0  0  0  0
   -0.0012    1.5213    1.0040 C   0  0  0  0  0  3  0  0  0  0  0  0
    0.8879    2.0447    0.6557 H   0  0  0  0  0  0  0  0  0  0  0  0
   -0.9335    2.0775    1.0891 H   0  0  0  0  0  0  0  0  0  0  0  0
    0.0927    0.8390    1.8474 H   0  0  0  0  0  0  0  0  0  0  0  0
  1  2  2  3
  1  3  1  0
  1  4  1  0
  2  5  1  0
  6  7  1  0
  6  8  1  0
  6  9  1  0
M  RAD  1   6   2
M  END
>  <reaction>  (8) 
rxn_670

>  <mol_properties>  (8) 
{"0": {"label": "*0", "atom_type": "Cd"}, "1": {"label": "*1", "atom_type": "N3d"}, "4": {"label": "*2", "atom_type": "H0"}, "5": {"label": "*3", "atom_type": "Cs"}, "6": {"label": "*4", "atom_type": "H0"}}

>  <type>  (8) 
unop_4

>  <geom_source>  (8) 
Heuristics

$$$$

     RDKit          3D

  9  7  0  0  0  0  0  0  0  0999 V2000
   -0.0000   -0.8578   -1.1806 C   0  0  0  0  0  0  0  0  0  0  0  0
   -0.0000   -0.8578    0.0799 N   0  0  0  0  0  0  0  0  0  0  0  0
    0.0000    0.0423   -1.8036 H   0  0  0  0  0  0  0  0  0  0  0  0
   -0.0000   -1.8125   -1.7072 H   0  0  0  0  0  0  0  0  0  0  0  0
   -0.0000    0.2833    0.5202 H   0  0  0  0  0  0  0  0  0  0  0  0
   -0.0000    1.5024    0.9905 C   0  0  0  0  0  3  0  0  0  0  0  0
   -0.0000    1.4716    2.0790 H   0  0  0  0  0  0  0  0  0  0  0  0
    0.8891    2.1297    1.0320 H   0  0  0  0  0  0  0  0  0  0  0  0
   -0.8891    2.1297    1.0320 H   0  0  0  0  0  0  0  0  0  0  0  0
  1  2  2  3
  1  3  1  0
  1  4  1  0
  2  5  1  0
  6  7  1  0
  6  8  1  0
  6  9  1  0
M  RAD  1   6   2
M  END
>  <reaction>  (9) 
rxn_670

>  <mol_properties>  (9) 
{"0": {"label": "*0", "atom_type": "Cd"}, "1": {"label": "*1", "atom_type": "N3d"}, "4": {"label": "*2", "atom_type": "H0"}, "5": {"label": "*3", "atom_type": "Cs"}, "6": {"label": "*4", "atom_type": "H0"}}

>  <type>  (9) 
unop_5

>  <geom_source>  (9) 
Heuristics

$$$$

     RDKit          3D

  9  7  0  0  0  0  0  0  0  0999 V2000
   -0.0005   -0.8420   -1.1735 C   0  0  0  0  0  0  0  0  0  0  0  0
   -0.0005   -0.8420    0.0870 N   0  0  0  0  0  0  0  0  0  0  0  0
   -0.0005    0.0580   -1.7965 H   0  0  0  0  0  0  0  0  0  0  0  0
   -0.0005   -1.7967   -1.7001 H   0  0  0  0  0  0  0  0  0  0  0  0
   -0.0005    0.2991    0.5272 H   0  0  0  0  0  0  0  0  0  0  0  0
   -0.0005    1.5182    0.9976 C   0  0  0  0  0  3  0  0  0  0  0  0
    1.0261    1.8569    1.1282 H   0  0  0  0  0  0  0  0  0  0  0  0
   -0.6892    2.3571    0.9095 H   0  0  0  0  0  0  0  0  0  0  0  0
   -0.3156    0.8744    1.8173 H   0  0  0  0  0  0  0  0  0  0  0  0
  1  2  2  3
  1  3  1  0
  1  4  1  0
  2  5  1  0
  6  7  1  0
  6  8  1  0
  6  9  1  0
M  RAD  1   6   2
M  END
>  <reaction>  (10) 
rxn_670

>  <mol_properties>  (10) 
{"0": {"label": "*0", "atom_type": "Cd"}, "1": {"label": "*1", "atom_type": "N3d"}, "4": {"label": "*2", "atom_type": "H0"}, "5": {"label": "*3", "atom_type": "Cs"}, "6": {"label": "*4", "atom_type": "H0"}}

>  <type>  (10) 
unop_6

>  <geom_source>  (10) 
Heuristics

$$$$

     RDKit          3D

  9  7  0  0  0  0  0  0  0  0999 V2000
    0.0026   -0.8462   -1.1793 C   0  0  0  0  0  0  0  0  0  0  0  0
    0.0026   -0.8462    0.0812 N   0  0  0  0  0  0  0  0  0  0  0  0
    0.0026    0.0539   -1.8023 H   0  0  0  0  0  0  0  0  0  0  0  0
    0.0026   -1.8008   -1.7059 H   0  0  0  0  0  0  0  0  0  0  0  0
    0.0026    0.2950    0.5214 H   0  0  0  0  0  0  0  0  0  0  0  0
    0.0026    1.5141    0.9917 C   0  0  0  0  0  3  0  0  0  0  0  0
    0.8918    1.6680    1.6013 H   0  0  0  0  0  0  0  0  0  0  0  0
   -0.3166    2.5358    0.7917 H   0  0  0  0  0  0  0  0  0  0  0  0
   -0.6827    1.0517    1.7004 H   0  0  0  0  0  0  0  0  0  0  0  0
  1  2  2  3
  1  3  1  0
  1  4  1  0
  2  5  1  0
  6  7  1  0
  6  8  1  0
  6  9  1  0
M  RAD  1   6   2
M  END
>  <reaction>  (11) 
rxn_670

>  <mol_properties>  (11) 
{"0": {"label": "*0", "atom_type": "Cd"}, "1": {"label": "*1", "atom_type": "N3d"}, "4": {"label": "*2", "atom_type": "H0"}, "5": {"label": "*3", "atom_type": "Cs"}, "6": {"label": "*4", "atom_type": "H0"}}

>  <type>  (11) 
unop_7

>  <geom_source>  (11) 
Heuristics

$$$$

     RDKit          3D

  9  7  0  0  0  0  0  0  0  0999 V2000
    0.0005   -0.8420   -1.1735 C   0  0  0  0  0  0  0  0  0  0  0  0
    0.0005   -0.8420    0.0870 N   0  0  0  0  0  0  0  0  0  0  0  0
    0.0005    0.0580   -1.7965 H   0  0  0  0  0  0  0  0  0  0  0  0
    0.0005   -1.7967   -1.7001 H   0  0  0  0  0  0  0  0  0  0  0  0
    0.0005    0.2991    0.5272 H   0  0  0  0  0  0  0  0  0  0  0  0
    0.0005    1.5182    0.9976 C   0  0  0  0  0  3  0  0  0  0  0  0
   -1.0261    1.8569    1.1282 H   0  0  0  0  0  0  0  0  0  0  0  0
    0.3156    0.8744    1.8173 H   0  0  0  0  0  0  0  0  0  0  0  0
    0.6892    2.3571    0.9095 H   0  0  0  0  0  0  0  0  0  0  0  0
  1  2  2  3
  1  3  1  0
  1  4  1  0
  2  5  1  0
  6  7  1  0
  6  8  1  0
  6  9  1  0
M  RAD  1   6   2
M  END
>  <reaction>  (12) 
rxn_670

>  <mol_properties>  (12) 
{"0": {"label": "*0", "atom_type": "Cd"}, "1": {"label": "*1", "atom_type": "N3d"}, "4": {"label": "*2", "atom_type": "H0"}, "5": {"label": "*3", "atom_type": "Cs"}, "6": {"label": "*4", "atom_type": "H0"}}

>  <type>  (12) 
unop_8

>  <geom_source>  (12) 
Heuristics

$$$$

     RDKit          3D

  9  7  0  0  0  0  0  0  0  0999 V2000
   -0.0004   -0.8361   -1.1627 C   0  0  0  0  0  0  0  0  0  0  0  0
   -0.0004   -0.8361    0.0978 N   0  0  0  0  0  0  0  0  0  0  0  0
   -0.0004    0.0640   -1.7857 H   0  0  0  0  0  0  0  0  0  0  0  0
   -0.0004   -1.7907   -1.6893 H   0  0  0  0  0  0  0  0  0  0  0  0
   -0.0004    0.3051    0.5381 H   0  0  0  0  0  0  0  0  0  0  0  0
   -0.0004    1.5242    1.0084 C   0  0  0  0  0  3  0  0  0  0  0  0
    0.5130    2.1829    0.3095 H   0  0  0  0  0  0  0  0  0  0  0  0
   -1.0269    1.6982    1.3274 H   0  0  0  0  0  0  0  0  0  0  0  0
    0.5286    0.9634    1.7774 H   0  0  0  0  0  0  0  0  0  0  0  0
  1  2  2  3
  1  3  1  0
  1  4  1  0
  2  5  1  0
  6  7  1  0
  6  8  1  0
  6  9  1  0
M  RAD  1   6   2
M  END
>  <reaction>  (13) 
rxn_670

>  <mol_properties>  (13) 
{"0": {"label": "*0", "atom_type": "Cd"}, "1": {"label": "*1", "atom_type": "N3d"}, "4": {"label": "*2", "atom_type": "H0"}, "5": {"label": "*3", "atom_type": "Cs"}, "6": {"label": "*4", "atom_type": "H0"}}

>  <type>  (13) 
unop_9

>  <geom_source>  (13) 
Heuristics

$$$$

     RDKit          3D

  9  7  0  0  0  0  0  0  0  0999 V2000
    0.0012   -0.8389   -1.1670 C   0  0  0  0  0  0  0  0  0  0  0  0
    0.0012   -0.8389    0.0935 N   0  0  0  0  0  0  0  0  0  0  0  0
    0.0012    0.0612   -1.7900 H   0  0  0  0  0  0  0  0  0  0  0  0
    0.0012   -1.7936   -1.6936 H   0  0  0  0  0  0  0  0  0  0  0  0
    0.0012    0.3022    0.5337 H   0  0  0  0  0  0  0  0  0  0  0  0
    0.0012    1.5213    1.0040 C   0  0  0  0  0  3  0  0  0  0  0  0
   -0.8879    2.0447    0.6557 H   0  0  0  0  0  0  0  0  0  0  0  0
   -0.0927    0.8390    1.8474 H   0  0  0  0  0  0  0  0  0  0  0  0
    0.9335    2.0775    1.0891 H   0  0  0  0  0  0  0  0  0  0  0  0
  1  2  2  3
  1  3  1  0
  1  4  1  0
  2  5  1  0
  6  7  1  0
  6  8  1  0
  6  9  1  0
M  RAD  1   6   2
M  END
>  <reaction>  (14) 
rxn_670

>  <mol_properties>  (14) 
{"0": {"label": "*0", "atom_type": "Cd"}, "1": {"label": "*1", "atom_type": "N3d"}, "4": {"label": "*2", "atom_type": "H0"}, "5": {"label": "*3", "atom_type": "Cs"}, "6": {"label": "*4", "atom_type": "H0"}}

>  <type>  (14) 
unop_10

>  <geom_source>  (14) 
Heuristics

$$$$

     RDKit          3D

  9  7  0  0  0  0  0  0  0  0999 V2000
    0.0053   -0.8527   -1.1815 C   0  0  0  0  0  0  0  0  0  0  0  0
    0.0053   -0.8527    0.0790 N   0  0  0  0  0  0  0  0  0  0  0  0
    0.0053    0.0474   -1.8045 H   0  0  0  0  0  0  0  0  0  0  0  0
    0.0053   -1.8073   -1.7081 H   0  0  0  0  0  0  0  0  0  0  0  0
    0.0053    0.2884    0.5193 H   0  0  0  0  0  0  0  0  0  0  0  0
    0.0053    1.5076    0.9896 C   0  0  0  0  0  3  0  0  0  0  0  0
    0.5186    1.5262    1.9497 H   0  0  0  0  0  0  0  0  0  0  0  0
    0.2433    2.5488    0.7776 H   0  0  0  0  0  0  0  0  0  0  0  0
   -0.9786    1.4470    1.4523 H   0  0  0  0  0  0  0  0  0  0  0  0
  1  2  2  3
  1  3  1  0
  1  4  1  0
  2  5  1  0
  6  7  1  0
  6  8  1  0
  6  9  1  0
M  RAD  1   6   2
M  END
>  <reaction>  (15) 
rxn_670

>  <mol_properties>  (15) 
{"0": {"label": "*0", "atom_type": "Cd"}, "1": {"label": "*1", "atom_type": "N3d"}, "4": {"label": "*2", "atom_type": "H0"}, "5": {"label": "*3", "atom_type": "Cs"}, "6": {"label": "*4", "atom_type": "H0"}}

>  <type>  (15) 
unop_11

>  <geom_source>  (15) 
Heuristics

$$$$

     RDKit          3D

  9  7  0  0  0  0  0  0  0  0999 V2000
   -0.0000   -0.8347   -1.1613 C   0  0  0  0  0  0  0  0  0  0  0  0
   -0.0000   -0.8347    0.0992 N   0  0  0  0  0  0  0  0  0  0  0  0
    0.0000    0.0654   -1.7843 H   0  0  0  0  0  0  0  0  0  0  0  0
   -0.0000   -1.7893   -1.6879 H   0  0  0  0  0  0  0  0  0  0  0  0
   -0.0000    0.3064    0.5395 H   0  0  0  0  0  0  0  0  0  0  0  0
   -0.0000    1.5256    1.0098 C   0  0  0  0  0  3  0  0  0  0  0  0
   -0.0000    2.2337    0.1826 H   0  0  0  0  0  0  0  0  0  0  0  0
   -0.8891    1.2773    1.5874 H   0  0  0  0  0  0  0  0  0  0  0  0
    0.8891    1.2773    1.5874 H   0  0  0  0  0  0  0  0  0  0  0  0
  1  2  2  3
  1  3  1  0
  1  4  1  0
  2  5  1  0
  6  7  1  0
  6  8  1  0
  6  9  1  0
M  RAD  1   6   2
M  END
>  <reaction>  (16) 
rxn_670

>  <mol_properties>  (16) 
{"0": {"label": "*0", "atom_type": "Cd"}, "1": {"label": "*1", "atom_type": "N3d"}, "4": {"label": "*2", "atom_type": "H0"}, "5": {"label": "*3", "atom_type": "Cs"}, "6": {"label": "*4", "atom_type": "H0"}}

>  <type>  (16) 
unop_12

>  <geom_source>  (16) 
Heuristics

$$$$
