
     RDKit          3D

 10  9  0  0  0  0  0  0  0  0999 V2000
   -1.1508    0.0666    0.2839 C   0  0  0  0  0  0  0  0  0  0  0  0
    0.1022   -0.3749   -0.4771 C   0  0  0  0  0  0  0  0  0  0  0  0
    1.3428    0.1620    0.1542 C   0  0  0  0  0  0  0  0  0  0  0  0
    2.5613   -0.6971    0.7526 S   0  0  0  0  0  0  0  0  0  0  0  0
   -1.2137    1.1546    0.3481 H   0  0  0  0  0  0  0  0  0  0  0  0
   -2.0472   -0.2935   -0.2212 H   0  0  0  0  0  0  0  0  0  0  0  0
   -1.1467   -0.3334    1.2987 H   0  0  0  0  0  0  0  0  0  0  0  0
    0.1602   -1.4616   -0.5369 H   0  0  0  0  0  0  0  0  0  0  0  0
    0.0536    0.0174   -1.4997 H   0  0  0  0  0  0  0  0  0  0  0  0
    1.3824    1.2528    0.2110 H   0  0  0  0  0  0  0  0  0  0  0  0
  1  2  1  0
  1  5  1  0
  1  6  1  0
  1  7  1  0
  2  3  1  0
  2  8  1  0
  2  9  1  0
  3  4  2  0
  3 10  1  0
M  END
>  <reaction>  (1) 
rxn_2022

>  <mol_properties>  (1) 
{"1": {"label": "donator", "atom_type": "Cs"}, "7": {"label": "d_hydrogen", "atom_type": "H0"}}

>  <type>  (1) 
r1h

$$$$

     RDKit          3D

 12 11  0  0  0  0  0  0  0  0999 V2000
    2.7049    0.9350   -0.4404 S   0  0  0  0  0  1  0  0  0  0  0  0
    1.0313    1.0813   -0.4080 C   0  0  0  0  0  0  0  0  0  0  0  0
    0.1364    0.1019   -0.0473 C   0  0  0  0  0  0  0  0  0  0  0  0
    0.5360   -1.2679    0.3784 C   0  0  0  0  0  0  0  0  0  0  0  0
   -1.3304    0.3842   -0.0689 C   0  0  0  0  0  0  0  0  0  0  0  0
    0.6069    2.0398   -0.6990 H   0  0  0  0  0  0  0  0  0  0  0  0
    0.1578   -1.4699    1.3849 H   0  0  0  0  0  0  0  0  0  0  0  0
    0.0783   -2.0109   -0.2814 H   0  0  0  0  0  0  0  0  0  0  0  0
    1.6154   -1.3973    0.3689 H   0  0  0  0  0  0  0  0  0  0  0  0
   -1.8406   -0.3126   -0.7406 H   0  0  0  0  0  0  0  0  0  0  0  0
   -1.5514    1.4016   -0.3887 H   0  0  0  0  0  0  0  0  0  0  0  0
   -1.7610    0.2281    0.9247 H   0  0  0  0  0  0  0  0  0  0  0  0
  1  2  1  0
  2  3  2  3
  2  6  1  0
  3  4  1  0
  3  5  1  0
  4  7  1  0
  4  8  1  0
  4  9  1  0
  5 10  1  0
  5 11  1  0
  5 12  1  0
M  RAD  1   1   2
M  END
>  <reaction>  (2) 
rxn_2022

>  <mol_properties>  (2) 
{"2": {"label": "acceptor", "atom_type": "Cs"}}

>  <type>  (2) 
r2

$$$$

     RDKit          3D

 13 12  0  0  0  0  0  0  0  0999 V2000
    2.7452   -1.1134   -0.3601 S   0  0  0  0  0  0  0  0  0  0  0  0
    1.4120   -0.4899    0.2856 C   0  0  0  0  0  0  0  0  0  0  0  0
    0.1714   -0.0257   -0.4180 C   0  0  0  0  0  0  0  0  0  0  0  0
   -0.0717    1.4493   -0.0658 C   0  0  0  0  0  0  0  0  0  0  0  0
    0.1609   -0.2576   -1.9191 C   0  0  0  0  0  0  0  0  0  0  0  0
    1.3665   -0.3550    1.3690 H   0  0  0  0  0  0  0  0  0  0  0  0
   -0.6453   -0.6023    0.0382 H   0  0  0  0  0  0  0  0  0  0  0  0
    0.7161    2.0755   -0.4895 H   0  0  0  0  0  0  0  0  0  0  0  0
   -0.0915    1.6095    1.0136 H   0  0  0  0  0  0  0  0  0  0  0  0
   -1.0268    1.7797   -0.4755 H   0  0  0  0  0  0  0  0  0  0  0  0
    0.3131   -1.3093   -2.1616 H   0  0  0  0  0  0  0  0  0  0  0  0
    0.9567    0.3095   -2.4051 H   0  0  0  0  0  0  0  0  0  0  0  0
   -0.7945    0.0619   -2.3384 H   0  0  0  0  0  0  0  0  0  0  0  0
  1  2  2  0
  2  3  1  0
  2  6  1  0
  3  4  1  0
  3  5  1  0
  3  7  1  0
  4  8  1  0
  4  9  1  0
  4 10  1  0
  5 11  1  0
  5 12  1  0
  5 13  1  0
M  END
>  <reaction>  (3) 
rxn_2022

>  <mol_properties>  (3) 
{"2": {"label": "acceptor", "atom_type": "Cs"}, "12": {"label": "a_hydrogen", "atom_type": "H0"}}

>  <type>  (3) 
r2h

$$$$

     RDKit          3D

 22 20  0  0  0  0  0  0  0  0999 V2000
    0.7507   -3.0745    0.1702 S   0  0  0  0  0  0  0  0  0  0  0  0
   -0.3396   -1.9626   -0.3075 C   0  0  0  0  0  0  0  0  0  0  0  0
   -0.6124   -0.6842    0.3155 C   0  0  0  0  0  0  0  0  0  0  0  0
   -1.8945    0.0034   -0.0900 C   0  0  0  0  0  0  0  0  0  0  0  0
   -0.1896   -0.4568    1.7432 C   0  0  0  0  0  0  0  0  0  0  0  0
   -0.9039   -2.1457   -1.2230 H   0  0  0  0  0  0  0  0  0  0  0  0
   -2.7253   -0.3602    0.5212 H   0  0  0  0  0  0  0  0  0  0  0  0
   -1.8186    1.0816    0.0641 H   0  0  0  0  0  0  0  0  0  0  0  0
   -2.1368   -0.1784   -1.1376 H   0  0  0  0  0  0  0  0  0  0  0  0
   -0.1984    0.6104    1.9734 H   0  0  0  0  0  0  0  0  0  0  0  0
    0.8018   -0.8639    1.9355 H   0  0  0  0  0  0  0  0  0  0  0  0
   -0.8911   -0.9517    2.4197 H   0  0  0  0  0  0  0  0  0  0  0  0
    0.6381    0.8118   -2.3639 C   0  0  0  0  0  0  0  0  0  0  0  0
    1.1753    0.8528   -0.9633 C   0  0  0  0  0  0  0  0  0  0  0  0
    1.1593    2.0490   -0.1788 C   0  0  0  0  0  0  0  0  0  0  0  0
    0.2766    3.3972   -0.4759 S   0  0  0  0  0  1  0  0  0  0  0  0
    1.3488    1.2759   -3.0517 H   0  0  0  0  0  0  0  0  0  0  0  0
    0.4873   -0.2204   -2.6846 H   0  0  0  0  0  0  0  0  0  0  0  0
   -0.3005    1.3592   -2.4416 H   0  0  0  0  0  0  0  0  0  0  0  0
    0.2921    0.0555   -0.3104 H   0  0  0  0  0  0  0  0  0  0  0  0
    2.0323    0.2057   -0.7736 H   0  0  0  0  0  0  0  0  0  0  0  0
    1.7764    2.0173    0.7183 H   0  0  0  0  0  0  0  0  0  0  0  0
  1  2  2  0
  2  3  1  0
  2  6  1  0
  3  4  1  0
  3  5  1  0
  3 20  1  0
  4  7  1  0
  4  8  1  0
  4  9  1  0
  5 10  1  0
  5 11  1  0
  5 12  1  0
 13 14  1  0
 13 17  1  0
 13 18  1  0
 13 19  1  0
 14 15  2  3
 14 21  1  0
 15 16  1  0
 15 22  1  0
M  RAD  1  16   2
M  END
>  <reaction>  (4) 
rxn_2022

>  <mol_properties>  (4) 
{"1": {"label": "*0", "atom_type": "CS"}, "2": {"label": "*1", "atom_type": "Cs"}, "13": {"label": "*3", "atom_type": "Cd"}, "14": {"label": "*4", "atom_type": "Cd"}, "19": {"label": "*2", "atom_type": "H0"}}

>  <type>  (4) 
ts

$$$$

     RDKit          3D

 22 20  0  0  0  0  0  0  0  0999 V2000
    0.2009   -1.9782    2.0488 S   0  0  0  0  0  1  0  0  0  0  0  0
   -0.2508   -2.0101    0.5067 C   0  0  0  0  0  0  0  0  0  0  0  0
   -0.8434   -0.8992   -0.3082 C   0  0  0  0  0  0  0  0  0  0  0  0
   -2.2027   -1.3603   -0.8546 C   0  0  0  0  0  0  0  0  0  0  0  0
   -0.9455    0.4369    0.4073 C   0  0  0  0  0  0  0  0  0  0  0  0
   -0.1448   -2.9428   -0.0526 H   0  0  0  0  0  0  0  0  0  0  0  0
   -2.9155   -1.4910   -0.0378 H   0  0  0  0  0  0  0  0  0  0  0  0
   -2.6038   -0.6131   -1.5403 H   0  0  0  0  0  0  0  0  0  0  0  0
   -2.1227   -2.3066   -1.3924 H   0  0  0  0  0  0  0  0  0  0  0  0
   -1.3381    1.1944   -0.2730 H   0  0  0  0  0  0  0  0  0  0  0  0
    0.0258    0.7683    0.7742 H   0  0  0  0  0  0  0  0  0  0  0  0
   -1.6144    0.3667    1.2668 H   0  0  0  0  0  0  0  0  0  0  0  0
    1.2205    0.4250   -2.7805 C   0  0  0  0  0  0  0  0  0  0  0  0
    1.2205    0.4250   -1.2495 C   0  0  0  0  0  0  0  0  0  0  0  0
    1.2205    1.8132   -0.7028 C   0  0  0  0  0  0  0  0  0  0  0  0
    0.1009    2.4689    0.2448 S   0  0  0  0  0  0  0  0  0  0  0  0
    2.0757    0.9752   -3.1776 H   0  0  0  0  0  0  0  0  0  0  0  0
    1.2713   -0.5959   -3.1592 H   0  0  0  0  0  0  0  0  0  0  0  0
    0.3110    0.8874   -3.1662 H   0  0  0  0  0  0  0  0  0  0  0  0
    0.1928   -0.2343   -0.7808 H   0  0  0  0  0  0  0  0  0  0  0  0
    2.1308   -0.0717   -0.8940 H   0  0  0  0  0  0  0  0  0  0  0  0
    2.0759    2.4185   -1.0131 H   0  0  0  0  0  0  0  0  0  0  0  0
  1  2  1  0
  2  3  2  3
  2  6  1  0
  3  4  1  0
  3  5  1  0
  4  7  1  0
  4  8  1  0
  4  9  1  0
  5 10  1  0
  5 11  1  0
  5 12  1  0
 13 14  1  0
 13 17  1  0
 13 18  1  0
 13 19  1  0
 14 15  1  0
 14 20  1  0
 14 21  1  0
 15 16  2  0
 15 22  1  0
M  RAD  1   1   2
M  END
>  <reaction>  (5) 
rxn_2022

>  <mol_properties>  (5) 
{"1": {"label": "*0", "atom_type": "CS"}, "2": {"label": "*1", "atom_type": "Cs"}, "13": {"label": "*3", "atom_type": "Cd"}, "14": {"label": "*4", "atom_type": "Cd"}, "19": {"label": "*2", "atom_type": "H0"}}

>  <type>  (5) 
unop_1

>  <geom_source>  (5) 
Heuristics

$$$$

     RDKit          3D

 22 20  0  0  0  0  0  0  0  0999 V2000
   -0.6336   -3.1622   -0.6029 S   0  0  0  0  0  1  0  0  0  0  0  0
   -0.9442   -1.5868   -0.6716 C   0  0  0  0  0  0  0  0  0  0  0  0
   -0.6533   -0.5393    0.3616 C   0  0  0  0  0  0  0  0  0  0  0  0
   -1.9698    0.1518    0.7463 C   0  0  0  0  0  0  0  0  0  0  0  0
    0.1026   -1.0352    1.5823 C   0  0  0  0  0  0  0  0  0  0  0  0
   -1.4431   -1.1879   -1.5581 H   0  0  0  0  0  0  0  0  0  0  0  0
   -2.6282   -0.5478    1.2650 H   0  0  0  0  0  0  0  0  0  0  0  0
   -1.7711    0.9912    1.4136 H   0  0  0  0  0  0  0  0  0  0  0  0
   -2.4981    0.5321   -0.1298 H   0  0  0  0  0  0  0  0  0  0  0  0
    0.3142   -0.2011    2.2533 H   0  0  0  0  0  0  0  0  0  0  0  0
    1.0454   -1.5058    1.3039 H   0  0  0  0  0  0  0  0  0  0  0  0
   -0.4849   -1.7753    2.1284 H   0  0  0  0  0  0  0  0  0  0  0  0
    1.4106    0.7849   -2.1107 C   0  0  0  0  0  0  0  0  0  0  0  0
    1.4106    0.7849   -0.5796 C   0  0  0  0  0  0  0  0  0  0  0  0
    1.4106    2.1731   -0.0330 C   0  0  0  0  0  0  0  0  0  0  0  0
    0.2910    2.8288    0.9146 S   0  0  0  0  0  0  0  0  0  0  0  0
    2.2658    1.3351   -2.5078 H   0  0  0  0  0  0  0  0  0  0  0  0
    1.4614   -0.2360   -2.4894 H   0  0  0  0  0  0  0  0  0  0  0  0
    0.5011    1.2473   -2.4964 H   0  0  0  0  0  0  0  0  0  0  0  0
    0.3829    0.1256   -0.1110 H   0  0  0  0  0  0  0  0  0  0  0  0
    2.3209    0.2882   -0.2242 H   0  0  0  0  0  0  0  0  0  0  0  0
    2.2660    2.7784   -0.3433 H   0  0  0  0  0  0  0  0  0  0  0  0
  1  2  1  0
  2  3  2  3
  2  6  1  0
  3  4  1  0
  3  5  1  0
  4  7  1  0
  4  8  1  0
  4  9  1  0
  5 10  1  0
  5 11  1  0
  5 12  1  0
 13 14  1  0
 13 17  1  0
 13 18  1  0
 13 19  1  0
 14 15  1  0
 14 20  1  0
 14 21  1  0
 15 16  2  0
 15 22  1  0
M  RAD  1   1   2
M  END
>  <reaction>  (6) 
rxn_2022

>  <mol_properties>  (6) 
{"1": {"label": "*0", "atom_type": "CS"}, "2": {"label": "*1", "atom_type": "Cs"}, "13": {"label": "*3", "atom_type": "Cd"}, "14": {"label": "*4", "atom_type": "Cd"}, "19": {"label": "*2", "atom_type": "H0"}}

>  <type>  (6) 
unop_2

>  <geom_source>  (6) 
Heuristics

$$$$

     RDKit          3D

 22 20  0  0  0  0  0  0  0  0999 V2000
   -0.4437   -1.0794    2.4277 S   0  0  0  0  0  1  0  0  0  0  0  0
   -0.1949   -1.6648    0.9517 C   0  0  0  0  0  0  0  0  0  0  0  0
   -0.6610   -1.1030   -0.3585 C   0  0  0  0  0  0  0  0  0  0  0  0
   -1.5068   -2.1650   -1.0766 C   0  0  0  0  0  0  0  0  0  0  0  0
   -1.3866    0.2281   -0.2635 C   0  0  0  0  0  0  0  0  0  0  0  0
    0.3666   -2.5959    0.8435 H   0  0  0  0  0  0  0  0  0  0  0  0
   -2.4334   -2.3467   -0.5284 H   0  0  0  0  0  0  0  0  0  0  0  0
   -1.7658   -1.8225   -2.0791 H   0  0  0  0  0  0  0  0  0  0  0  0
   -0.9733   -3.1127   -1.1688 H   0  0  0  0  0  0  0  0  0  0  0  0
   -1.6430    0.5844   -1.2625 H   0  0  0  0  0  0  0  0  0  0  0  0
   -0.7731    0.9829    0.2284 H   0  0  0  0  0  0  0  0  0  0  0  0
   -2.3080    0.1277    0.3129 H   0  0  0  0  0  0  0  0  0  0  0  0
    1.4028    0.2212   -2.8308 C   0  0  0  0  0  0  0  0  0  0  0  0
    1.4028    0.2212   -1.2997 C   0  0  0  0  0  0  0  0  0  0  0  0
    1.4028    1.6094   -0.7530 C   0  0  0  0  0  0  0  0  0  0  0  0
    0.2833    2.2651    0.1945 S   0  0  0  0  0  0  0  0  0  0  0  0
    2.2580    0.7714   -3.2279 H   0  0  0  0  0  0  0  0  0  0  0  0
    1.4537   -0.7997   -3.2094 H   0  0  0  0  0  0  0  0  0  0  0  0
    0.4933    0.6836   -3.2164 H   0  0  0  0  0  0  0  0  0  0  0  0
    0.3752   -0.4381   -0.8310 H   0  0  0  0  0  0  0  0  0  0  0  0
    2.3132   -0.2755   -0.9443 H   0  0  0  0  0  0  0  0  0  0  0  0
    2.2583    2.2147   -1.0633 H   0  0  0  0  0  0  0  0  0  0  0  0
  1  2  1  0
  2  3  2  3
  2  6  1  0
  3  4  1  0
  3  5  1  0
  4  7  1  0
  4  8  1  0
  4  9  1  0
  5 10  1  0
  5 11  1  0
  5 12  1  0
 13 14  1  0
 13 17  1  0
 13 18  1  0
 13 19  1  0
 14 15  1  0
 14 20  1  0
 14 21  1  0
 15 16  2  0
 15 22  1  0
M  RAD  1   1   2
M  END
>  <reaction>  (7) 
rxn_2022

>  <mol_properties>  (7) 
{"1": {"label": "*0", "atom_type": "CS"}, "2": {"label": "*1", "atom_type": "Cs"}, "13": {"label": "*3", "atom_type": "Cd"}, "14": {"label": "*4", "atom_type": "Cd"}, "19": {"label": "*2", "atom_type": "H0"}}

>  <type>  (7) 
unop_3

>  <geom_source>  (7) 
Heuristics

$$$$

     RDKit          3D

 22 20  0  0  0  0  0  0  0  0999 V2000
   -2.8103   -1.0013   -0.4945 S   0  0  0  0  0  1  0  0  0  0  0  0
   -1.3319   -0.4214   -0.2469 C   0  0  0  0  0  0  0  0  0  0  0  0
   -0.1320   -1.1426    0.2910 C   0  0  0  0  0  0  0  0  0  0  0  0
    0.3645   -0.4060    1.5439 C   0  0  0  0  0  0  0  0  0  0  0  0
   -0.3382   -2.6249    0.5513 C   0  0  0  0  0  0  0  0  0  0  0  0
   -1.1357    0.6299   -0.4707 H   0  0  0  0  0  0  0  0  0  0  0  0
   -0.3693   -0.4882    2.3483 H   0  0  0  0  0  0  0  0  0  0  0  0
    1.3005   -0.8455    1.8906 H   0  0  0  0  0  0  0  0  0  0  0  0
    0.5387    0.6534    1.3479 H   0  0  0  0  0  0  0  0  0  0  0  0
    0.5953   -3.0766    0.8907 H   0  0  0  0  0  0  0  0  0  0  0  0
   -0.6703   -3.1454   -0.3469 H   0  0  0  0  0  0  0  0  0  0  0  0
   -1.0960   -2.7822    1.3207 H   0  0  0  0  0  0  0  0  0  0  0  0
    1.9319    0.1816   -2.1813 C   0  0  0  0  0  0  0  0  0  0  0  0
    1.9319    0.1816   -0.6502 C   0  0  0  0  0  0  0  0  0  0  0  0
    1.9319    1.5697   -0.1035 C   0  0  0  0  0  0  0  0  0  0  0  0
    0.8124    2.2254    0.8440 S   0  0  0  0  0  0  0  0  0  0  0  0
    2.7871    0.7317   -2.5784 H   0  0  0  0  0  0  0  0  0  0  0  0
    1.9827   -0.8394   -2.5599 H   0  0  0  0  0  0  0  0  0  0  0  0
    1.0224    0.6439   -2.5669 H   0  0  0  0  0  0  0  0  0  0  0  0
    0.9042   -0.4778   -0.1815 H   0  0  0  0  0  0  0  0  0  0  0  0
    2.8423   -0.3151   -0.2947 H   0  0  0  0  0  0  0  0  0  0  0  0
    2.7874    2.1750   -0.4138 H   0  0  0  0  0  0  0  0  0  0  0  0
  1  2  1  0
  2  3  2  3
  2  6  1  0
  3  4  1  0
  3  5  1  0
  4  7  1  0
  4  8  1  0
  4  9  1  0
  5 10  1  0
  5 11  1  0
  5 12  1  0
 13 14  1  0
 13 17  1  0
 13 18  1  0
 13 19  1  0
 14 15  1  0
 14 20  1  0
 14 21  1  0
 15 16  2  0
 15 22  1  0
M  RAD  1   1   2
M  END
>  <reaction>  (8) 
rxn_2022

>  <mol_properties>  (8) 
{"1": {"label": "*0", "atom_type": "CS"}, "2": {"label": "*1", "atom_type": "Cs"}, "13": {"label": "*3", "atom_type": "Cd"}, "14": {"label": "*4", "atom_type": "Cd"}, "19": {"label": "*2", "atom_type": "H0"}}

>  <type>  (8) 
unop_4

>  <geom_source>  (8) 
Heuristics

$$$$

     RDKit          3D

 22 20  0  0  0  0  0  0  0  0999 V2000
   -1.3871   -0.5201    2.2591 S   0  0  0  0  0  1  0  0  0  0  0  0
   -0.3214   -1.0871    1.1980 C   0  0  0  0  0  0  0  0  0  0  0  0
   -0.4548   -1.1726   -0.2935 C   0  0  0  0  0  0  0  0  0  0  0  0
   -0.2785   -2.6374   -0.7203 C   0  0  0  0  0  0  0  0  0  0  0  0
   -1.7286   -0.5684   -0.8590 C   0  0  0  0  0  0  0  0  0  0  0  0
    0.6272   -1.4843    1.5672 H   0  0  0  0  0  0  0  0  0  0  0  0
   -1.1086   -3.2429   -0.3508 H   0  0  0  0  0  0  0  0  0  0  0  0
   -0.2611   -2.7110   -1.8082 H   0  0  0  0  0  0  0  0  0  0  0  0
    0.6508   -3.0617   -0.3362 H   0  0  0  0  0  0  0  0  0  0  0  0
   -1.7176   -0.6291   -1.9484 H   0  0  0  0  0  0  0  0  0  0  0  0
   -1.8371    0.4768   -0.5698 H   0  0  0  0  0  0  0  0  0  0  0  0
   -2.6072   -1.1028   -0.4936 H   0  0  0  0  0  0  0  0  0  0  0  0
    1.6091    0.1516   -2.7657 C   0  0  0  0  0  0  0  0  0  0  0  0
    1.6091    0.1516   -1.2347 C   0  0  0  0  0  0  0  0  0  0  0  0
    1.6091    1.5398   -0.6880 C   0  0  0  0  0  0  0  0  0  0  0  0
    0.4895    2.1955    0.2595 S   0  0  0  0  0  0  0  0  0  0  0  0
    2.4643    0.7017   -3.1629 H   0  0  0  0  0  0  0  0  0  0  0  0
    1.6599   -0.8693   -3.1444 H   0  0  0  0  0  0  0  0  0  0  0  0
    0.6996    0.6140   -3.1514 H   0  0  0  0  0  0  0  0  0  0  0  0
    0.5814   -0.5078   -0.7660 H   0  0  0  0  0  0  0  0  0  0  0  0
    2.5194   -0.3451   -0.8792 H   0  0  0  0  0  0  0  0  0  0  0  0
    2.4645    2.1450   -0.9983 H   0  0  0  0  0  0  0  0  0  0  0  0
  1  2  1  0
  2  3  2  3
  2  6  1  0
  3  4  1  0
  3  5  1  0
  4  7  1  0
  4  8  1  0
  4  9  1  0
  5 10  1  0
  5 11  1  0
  5 12  1  0
 13 14  1  0
 13 17  1  0
 13 18  1  0
 13 19  1  0
 14 15  1  0
 14 20  1  0
 14 21  1  0
 15 16  2  0
 15 22  1  0
M  RAD  1   1   2
M  END
>  <reaction>  (9) 
rxn_2022

>  <mol_properties>  (9) 
{"1": {"label": "*0", "atom_type": "CS"}, "2": {"label": "*1", "atom_type": "Cs"}, "13": {"label": "*3", "atom_type": "Cd"}, "14": {"label": "*4", "atom_type": "Cd"}, "19": {"label": "*2", "atom_type": "H0"}}

>  <type>  (9) 
unop_5

>  <geom_source>  (9) 
Heuristics

$$$$

     RDKit          3D

 22 20  0  0  0  0  0  0  0  0999 V2000
   -2.8354   -0.4629    0.3458 S   0  0  0  0  0  1  0  0  0  0  0  0
   -1.2527   -0.2197    0.2084 C   0  0  0  0  0  0  0  0  0  0  0  0
   -0.1664   -1.2445    0.0699 C   0  0  0  0  0  0  0  0  0  0  0  0
    0.8345   -1.0595    1.2200 C   0  0  0  0  0  0  0  0  0  0  0  0
   -0.6496   -2.6809   -0.0335 C   0  0  0  0  0  0  0  0  0  0  0  0
   -0.8750    0.8055    0.2292 H   0  0  0  0  0  0  0  0  0  0  0  0
    0.3656   -1.3065    2.1747 H   0  0  0  0  0  0  0  0  0  0  0  0
    1.6914   -1.7196    1.0807 H   0  0  0  0  0  0  0  0  0  0  0  0
    1.2018   -0.0333    1.2756 H   0  0  0  0  0  0  0  0  0  0  0  0
    0.1999   -3.3496   -0.1818 H   0  0  0  0  0  0  0  0  0  0  0  0
   -1.3432   -2.8098   -0.8642 H   0  0  0  0  0  0  0  0  0  0  0  0
   -1.1693   -2.9822    0.8777 H   0  0  0  0  0  0  0  0  0  0  0  0
    1.8974    0.0797   -2.4024 C   0  0  0  0  0  0  0  0  0  0  0  0
    1.8974    0.0797   -0.8713 C   0  0  0  0  0  0  0  0  0  0  0  0
    1.8974    1.4679   -0.3246 C   0  0  0  0  0  0  0  0  0  0  0  0
    0.7779    2.1236    0.6229 S   0  0  0  0  0  0  0  0  0  0  0  0
    2.7526    0.6299   -2.7995 H   0  0  0  0  0  0  0  0  0  0  0  0
    1.9483   -0.9412   -2.7810 H   0  0  0  0  0  0  0  0  0  0  0  0
    0.9879    0.5421   -2.7880 H   0  0  0  0  0  0  0  0  0  0  0  0
    0.8698   -0.5796   -0.4026 H   0  0  0  0  0  0  0  0  0  0  0  0
    2.8078   -0.4170   -0.5158 H   0  0  0  0  0  0  0  0  0  0  0  0
    2.7529    2.0732   -0.6349 H   0  0  0  0  0  0  0  0  0  0  0  0
  1  2  1  0
  2  3  2  3
  2  6  1  0
  3  4  1  0
  3  5  1  0
  4  7  1  0
  4  8  1  0
  4  9  1  0
  5 10  1  0
  5 11  1  0
  5 12  1  0
 13 14  1  0
 13 17  1  0
 13 18  1  0
 13 19  1  0
 14 15  1  0
 14 20  1  0
 14 21  1  0
 15 16  2  0
 15 22  1  0
M  RAD  1   1   2
M  END
>  <reaction>  (10) 
rxn_2022

>  <mol_properties>  (10) 
{"1": {"label": "*0", "atom_type": "CS"}, "2": {"label": "*1", "atom_type": "Cs"}, "13": {"label": "*3", "atom_type": "Cd"}, "14": {"label": "*4", "atom_type": "Cd"}, "19": {"label": "*2", "atom_type": "H0"}}

>  <type>  (10) 
unop_6

>  <geom_source>  (10) 
Heuristics

$$$$

     RDKit          3D

 22 20  0  0  0  0  0  0  0  0999 V2000
   -2.5546   -0.2990    1.1721 S   0  0  0  0  0  1  0  0  0  0  0  0
   -1.0194   -0.2329    0.7009 C   0  0  0  0  0  0  0  0  0  0  0  0
   -0.2566   -1.2345   -0.1141 C   0  0  0  0  0  0  0  0  0  0  0  0
    0.9686   -1.6933    0.6905 C   0  0  0  0  0  0  0  0  0  0  0  0
   -1.0764   -2.4109   -0.6156 C   0  0  0  0  0  0  0  0  0  0  0  0
   -0.4137    0.6249    1.0028 H   0  0  0  0  0  0  0  0  0  0  0  0
    0.6548   -2.2597    1.5697 H   0  0  0  0  0  0  0  0  0  0  0  0
    1.5994   -2.3379    0.0775 H   0  0  0  0  0  0  0  0  0  0  0  0
    1.5717   -0.8480    1.0265 H   0  0  0  0  0  0  0  0  0  0  0  0
   -0.4564   -3.0583   -1.2378 H   0  0  0  0  0  0  0  0  0  0  0  0
   -1.9323   -2.0792   -1.2032 H   0  0  0  0  0  0  0  0  0  0  0  0
   -1.4600   -3.0005    0.2188 H   0  0  0  0  0  0  0  0  0  0  0  0
    1.8073    0.0897   -2.5864 C   0  0  0  0  0  0  0  0  0  0  0  0
    1.8073    0.0897   -1.0553 C   0  0  0  0  0  0  0  0  0  0  0  0
    1.8073    1.4779   -0.5086 C   0  0  0  0  0  0  0  0  0  0  0  0
    0.6878    2.1336    0.4389 S   0  0  0  0  0  0  0  0  0  0  0  0
    2.6625    0.6398   -2.9835 H   0  0  0  0  0  0  0  0  0  0  0  0
    1.8581   -0.9312   -2.9650 H   0  0  0  0  0  0  0  0  0  0  0  0
    0.8978    0.5521   -2.9720 H   0  0  0  0  0  0  0  0  0  0  0  0
    0.7796   -0.5697   -0.5866 H   0  0  0  0  0  0  0  0  0  0  0  0
    2.7177   -0.4070   -0.6999 H   0  0  0  0  0  0  0  0  0  0  0  0
    2.6628    2.0831   -0.8189 H   0  0  0  0  0  0  0  0  0  0  0  0
  1  2  1  0
  2  3  2  3
  2  6  1  0
  3  4  1  0
  3  5  1  0
  4  7  1  0
  4  8  1  0
  4  9  1  0
  5 10  1  0
  5 11  1  0
  5 12  1  0
 13 14  1  0
 13 17  1  0
 13 18  1  0
 13 19  1  0
 14 15  1  0
 14 20  1  0
 14 21  1  0
 15 16  2  0
 15 22  1  0
M  RAD  1   1   2
M  END
>  <reaction>  (11) 
rxn_2022

>  <mol_properties>  (11) 
{"1": {"label": "*0", "atom_type": "CS"}, "2": {"label": "*1", "atom_type": "Cs"}, "13": {"label": "*3", "atom_type": "Cd"}, "14": {"label": "*4", "atom_type": "Cd"}, "19": {"label": "*2", "atom_type": "H0"}}

>  <type>  (11) 
unop_7

>  <geom_source>  (11) 
Heuristics

$$$$

     RDKit          3D

 22 20  0  0  0  0  0  0  0  0999 V2000
    0.3570   -2.7612    1.2432 S   0  0  0  0  0  1  0  0  0  0  0  0
   -0.4295   -2.0956    0.0097 C   0  0  0  0  0  0  0  0  0  0  0  0
   -0.9084   -0.6811   -0.1288 C   0  0  0  0  0  0  0  0  0  0  0  0
   -2.4264   -0.6957   -0.3616 C   0  0  0  0  0  0  0  0  0  0  0  0
   -0.5206    0.2419    1.0136 C   0  0  0  0  0  0  0  0  0  0  0  0
   -0.6811   -2.7197   -0.8512 H   0  0  0  0  0  0  0  0  0  0  0  0
   -2.9435   -1.0582    0.5291 H   0  0  0  0  0  0  0  0  0  0  0  0
   -2.7824    0.3127   -0.5753 H   0  0  0  0  0  0  0  0  0  0  0  0
   -2.7009   -1.3377   -1.2005 H   0  0  0  0  0  0  0  0  0  0  0  0
   -0.8648    1.2563    0.8058 H   0  0  0  0  0  0  0  0  0  0  0  0
    0.5592    0.2638    1.1600 H   0  0  0  0  0  0  0  0  0  0  0  0
   -0.9719   -0.0893    1.9505 H   0  0  0  0  0  0  0  0  0  0  0  0
    1.1555    0.6431   -2.6011 C   0  0  0  0  0  0  0  0  0  0  0  0
    1.1555    0.6431   -1.0700 C   0  0  0  0  0  0  0  0  0  0  0  0
    1.1555    2.0313   -0.5234 C   0  0  0  0  0  0  0  0  0  0  0  0
    0.0359    2.6870    0.4242 S   0  0  0  0  0  0  0  0  0  0  0  0
    2.0107    1.1933   -2.9982 H   0  0  0  0  0  0  0  0  0  0  0  0
    1.2063   -0.3778   -2.9798 H   0  0  0  0  0  0  0  0  0  0  0  0
    0.2460    1.1055   -2.9868 H   0  0  0  0  0  0  0  0  0  0  0  0
    0.1278   -0.0162   -0.6014 H   0  0  0  0  0  0  0  0  0  0  0  0
    2.0658    0.1464   -0.7146 H   0  0  0  0  0  0  0  0  0  0  0  0
    2.0109    2.6366   -0.8337 H   0  0  0  0  0  0  0  0  0  0  0  0
  1  2  1  0
  2  3  2  3
  2  6  1  0
  3  4  1  0
  3  5  1  0
  4  7  1  0
  4  8  1  0
  4  9  1  0
  5 10  1  0
  5 11  1  0
  5 12  1  0
 13 14  1  0
 13 17  1  0
 13 18  1  0
 13 19  1  0
 14 15  1  0
 14 20  1  0
 14 21  1  0
 15 16  2  0
 15 22  1  0
M  RAD  1   1   2
M  END
>  <reaction>  (12) 
rxn_2022

>  <mol_properties>  (12) 
{"1": {"label": "*0", "atom_type": "CS"}, "2": {"label": "*1", "atom_type": "Cs"}, "13": {"label": "*3", "atom_type": "Cd"}, "14": {"label": "*4", "atom_type": "Cd"}, "19": {"label": "*2", "atom_type": "H0"}}

>  <type>  (12) 
unop_8

>  <geom_source>  (12) 
Heuristics

$$$$

     RDKit          3D

 22 20  0  0  0  0  0  0  0  0999 V2000
   -2.3657   -1.8361   -1.0633 S   0  0  0  0  0  1  0  0  0  0  0  0
   -1.2809   -0.7578   -0.5696 C   0  0  0  0  0  0  0  0  0  0  0  0
   -0.2074   -0.9300    0.4635 C   0  0  0  0  0  0  0  0  0  0  0  0
   -0.4026    0.1300    1.5577 C   0  0  0  0  0  0  0  0  0  0  0  0
   -0.0957   -2.3288    1.0451 C   0  0  0  0  0  0  0  0  0  0  0  0
   -1.3014    0.2447   -1.0039 H   0  0  0  0  0  0  0  0  0  0  0  0
   -1.3257   -0.0594    2.1092 H   0  0  0  0  0  0  0  0  0  0  0  0
    0.4284    0.0976    2.2632 H   0  0  0  0  0  0  0  0  0  0  0  0
   -0.4548    1.1372    1.1405 H   0  0  0  0  0  0  0  0  0  0  0  0
    0.7389   -2.3747    1.7466 H   0  0  0  0  0  0  0  0  0  0  0  0
    0.0636   -3.0736    0.2655 H   0  0  0  0  0  0  0  0  0  0  0  0
   -1.0082   -2.6016    1.5780 H   0  0  0  0  0  0  0  0  0  0  0  0
    1.8564    0.3942   -2.0087 C   0  0  0  0  0  0  0  0  0  0  0  0
    1.8564    0.3942   -0.4777 C   0  0  0  0  0  0  0  0  0  0  0  0
    1.8564    1.7824    0.0690 C   0  0  0  0  0  0  0  0  0  0  0  0
    0.7369    2.4381    1.0165 S   0  0  0  0  0  0  0  0  0  0  0  0
    2.7116    0.9444   -2.4059 H   0  0  0  0  0  0  0  0  0  0  0  0
    1.9073   -0.6267   -2.3874 H   0  0  0  0  0  0  0  0  0  0  0  0
    0.9469    0.8566   -2.3944 H   0  0  0  0  0  0  0  0  0  0  0  0
    0.8288   -0.2651   -0.0090 H   0  0  0  0  0  0  0  0  0  0  0  0
    2.7668   -0.1025   -0.1222 H   0  0  0  0  0  0  0  0  0  0  0  0
    2.7119    2.3877   -0.2413 H   0  0  0  0  0  0  0  0  0  0  0  0
  1  2  1  0
  2  3  2  3
  2  6  1  0
  3  4  1  0
  3  5  1  0
  4  7  1  0
  4  8  1  0
  4  9  1  0
  5 10  1  0
  5 11  1  0
  5 12  1  0
 13 14  1  0
 13 17  1  0
 13 18  1  0
 13 19  1  0
 14 15  1  0
 14 20  1  0
 14 21  1  0
 15 16  2  0
 15 22  1  0
M  RAD  1   1   2
M  END
>  <reaction>  (13) 
rxn_2022

>  <mol_properties>  (13) 
{"1": {"label": "*0", "atom_type": "CS"}, "2": {"label": "*1", "atom_type": "Cs"}, "13": {"label": "*3", "atom_type": "Cd"}, "14": {"label": "*4", "atom_type": "Cd"}, "19": {"label": "*2", "atom_type": "H0"}}

>  <type>  (13) 
unop_9

>  <geom_source>  (13) 
Heuristics

$$$$

     RDKit          3D

 22 20  0  0  0  0  0  0  0  0999 V2000
    0.0535   -3.1870    0.2690 S   0  0  0  0  0  1  0  0  0  0  0  0
   -0.6848   -1.9345   -0.4160 C   0  0  0  0  0  0  0  0  0  0  0  0
   -0.8403   -0.5431    0.1219 C   0  0  0  0  0  0  0  0  0  0  0  0
   -2.3375   -0.2092    0.1983 C   0  0  0  0  0  0  0  0  0  0  0  0
   -0.1352   -0.2836    1.4421 C   0  0  0  0  0  0  0  0  0  0  0  0
   -1.1605   -2.0734   -1.3899 H   0  0  0  0  0  0  0  0  0  0  0  0
   -2.8277   -0.8333    0.9483 H   0  0  0  0  0  0  0  0  0  0  0  0
   -2.4744    0.8349    0.4817 H   0  0  0  0  0  0  0  0  0  0  0  0
   -2.8371   -0.3697   -0.7587 H   0  0  0  0  0  0  0  0  0  0  0  0
   -0.2588    0.7614    1.7310 H   0  0  0  0  0  0  0  0  0  0  0  0
    0.9304   -0.5026    1.3752 H   0  0  0  0  0  0  0  0  0  0  0  0
   -0.5498   -0.9105    2.2334 H   0  0  0  0  0  0  0  0  0  0  0  0
    1.2235    0.7811   -2.3504 C   0  0  0  0  0  0  0  0  0  0  0  0
    1.2235    0.7811   -0.8193 C   0  0  0  0  0  0  0  0  0  0  0  0
    1.2235    2.1693   -0.2726 C   0  0  0  0  0  0  0  0  0  0  0  0
    0.1040    2.8250    0.6749 S   0  0  0  0  0  0  0  0  0  0  0  0
    2.0787    1.3313   -2.7475 H   0  0  0  0  0  0  0  0  0  0  0  0
    1.2744   -0.2398   -2.7290 H   0  0  0  0  0  0  0  0  0  0  0  0
    0.3140    1.2435   -2.7360 H   0  0  0  0  0  0  0  0  0  0  0  0
    0.1959    0.1217   -0.3506 H   0  0  0  0  0  0  0  0  0  0  0  0
    2.1339    0.2844   -0.4639 H   0  0  0  0  0  0  0  0  0  0  0  0
    2.0790    2.7745   -0.5829 H   0  0  0  0  0  0  0  0  0  0  0  0
  1  2  1  0
  2  3  2  3
  2  6  1  0
  3  4  1  0
  3  5  1  0
  4  7  1  0
  4  8  1  0
  4  9  1  0
  5 10  1  0
  5 11  1  0
  5 12  1  0
 13 14  1  0
 13 17  1  0
 13 18  1  0
 13 19  1  0
 14 15  1  0
 14 20  1  0
 14 21  1  0
 15 16  2  0
 15 22  1  0
M  RAD  1   1   2
M  END
>  <reaction>  (14) 
rxn_2022

>  <mol_properties>  (14) 
{"1": {"label": "*0", "atom_type": "CS"}, "2": {"label": "*1", "atom_type": "Cs"}, "13": {"label": "*3", "atom_type": "Cd"}, "14": {"label": "*4", "atom_type": "Cd"}, "19": {"label": "*2", "atom_type": "H0"}}

>  <type>  (14) 
unop_10

>  <geom_source>  (14) 
Heuristics

$$$$

     RDKit          3D

 22 20  0  0  0  0  0  0  0  0999 V2000
   -2.0947   -0.3691    1.8032 S   0  0  0  0  0  1  0  0  0  0  0  0
   -0.6627   -0.5231    1.0900 C   0  0  0  0  0  0  0  0  0  0  0  0
   -0.3462   -1.1810   -0.2202 C   0  0  0  0  0  0  0  0  0  0  0  0
    0.6830   -2.2945    0.0239 C   0  0  0  0  0  0  0  0  0  0  0  0
   -1.5531   -1.6860   -0.9921 C   0  0  0  0  0  0  0  0  0  0  0  0
    0.2212   -0.1266    1.5953 H   0  0  0  0  0  0  0  0  0  0  0  0
    0.2401   -3.0974    0.6166 H   0  0  0  0  0  0  0  0  0  0  0  0
    1.0125   -2.7150   -0.9268 H   0  0  0  0  0  0  0  0  0  0  0  0
    1.5620   -1.9239    0.5542 H   0  0  0  0  0  0  0  0  0  0  0  0
   -1.2353   -2.1014   -1.9497 H   0  0  0  0  0  0  0  0  0  0  0  0
   -2.2697   -0.8866   -1.1801 H   0  0  0  0  0  0  0  0  0  0  0  0
   -2.0720   -2.4670   -0.4336 H   0  0  0  0  0  0  0  0  0  0  0  0
    1.7176    0.1432   -2.6925 C   0  0  0  0  0  0  0  0  0  0  0  0
    1.7176    0.1432   -1.1614 C   0  0  0  0  0  0  0  0  0  0  0  0
    1.7176    1.5314   -0.6147 C   0  0  0  0  0  0  0  0  0  0  0  0
    0.5981    2.1871    0.3328 S   0  0  0  0  0  0  0  0  0  0  0  0
    2.5728    0.6934   -3.0896 H   0  0  0  0  0  0  0  0  0  0  0  0
    1.7685   -0.8777   -3.0711 H   0  0  0  0  0  0  0  0  0  0  0  0
    0.8081    0.6056   -3.0781 H   0  0  0  0  0  0  0  0  0  0  0  0
    0.6900   -0.5162   -0.6927 H   0  0  0  0  0  0  0  0  0  0  0  0
    2.6280   -0.3535   -0.8060 H   0  0  0  0  0  0  0  0  0  0  0  0
    2.5731    2.1367   -0.9250 H   0  0  0  0  0  0  0  0  0  0  0  0
  1  2  1  0
  2  3  2  3
  2  6  1  0
  3  4  1  0
  3  5  1  0
  4  7  1  0
  4  8  1  0
  4  9  1  0
  5 10  1  0
  5 11  1  0
  5 12  1  0
 13 14  1  0
 13 17  1  0
 13 18  1  0
 13 19  1  0
 14 15  1  0
 14 20  1  0
 14 21  1  0
 15 16  2  0
 15 22  1  0
M  RAD  1   1   2
M  END
>  <reaction>  (15) 
rxn_2022

>  <mol_properties>  (15) 
{"1": {"label": "*0", "atom_type": "CS"}, "2": {"label": "*1", "atom_type": "Cs"}, "13": {"label": "*3", "atom_type": "Cd"}, "14": {"label": "*4", "atom_type": "Cd"}, "19": {"label": "*2", "atom_type": "H0"}}

>  <type>  (15) 
unop_11

>  <geom_source>  (15) 
Heuristics

$$$$

     RDKit          3D

 22 20  0  0  0  0  0  0  0  0999 V2000
   -1.5451   -2.6693   -1.1112 S   0  0  0  0  0  1  0  0  0  0  0  0
   -1.1465   -1.1628   -0.7179 C   0  0  0  0  0  0  0  0  0  0  0  0
   -0.4057   -0.6876    0.4966 C   0  0  0  0  0  0  0  0  0  0  0  0
   -1.2845    0.3265    1.2438 C   0  0  0  0  0  0  0  0  0  0  0  0
    0.0923   -1.7895    1.4158 C   0  0  0  0  0  0  0  0  0  0  0  0
   -1.4464   -0.3494   -1.3829 H   0  0  0  0  0  0  0  0  0  0  0  0
   -2.1672   -0.1670    1.6554 H   0  0  0  0  0  0  0  0  0  0  0  0
   -0.7260    0.7696    2.0691 H   0  0  0  0  0  0  0  0  0  0  0  0
   -1.6187    1.1326    0.5883 H   0  0  0  0  0  0  0  0  0  0  0  0
    0.6603   -1.3573    2.2413 H   0  0  0  0  0  0  0  0  0  0  0  0
    0.7321   -2.4939    0.8844 H   0  0  0  0  0  0  0  0  0  0  0  0
   -0.7431   -2.3549    1.8322 H   0  0  0  0  0  0  0  0  0  0  0  0
    1.6582    0.6366   -1.9757 C   0  0  0  0  0  0  0  0  0  0  0  0
    1.6582    0.6366   -0.4446 C   0  0  0  0  0  0  0  0  0  0  0  0
    1.6582    2.0248    0.1021 C   0  0  0  0  0  0  0  0  0  0  0  0
    0.5386    2.6805    1.0496 S   0  0  0  0  0  0  0  0  0  0  0  0
    2.5134    1.1868   -2.3728 H   0  0  0  0  0  0  0  0  0  0  0  0
    1.7090   -0.3843   -2.3544 H   0  0  0  0  0  0  0  0  0  0  0  0
    0.7487    1.0990   -2.3614 H   0  0  0  0  0  0  0  0  0  0  0  0
    0.6305   -0.0227    0.0240 H   0  0  0  0  0  0  0  0  0  0  0  0
    2.5685    0.1399   -0.0892 H   0  0  0  0  0  0  0  0  0  0  0  0
    2.5136    2.6301   -0.2083 H   0  0  0  0  0  0  0  0  0  0  0  0
  1  2  1  0
  2  3  2  3
  2  6  1  0
  3  4  1  0
  3  5  1  0
  4  7  1  0
  4  8  1  0
  4  9  1  0
  5 10  1  0
  5 11  1  0
  5 12  1  0
 13 14  1  0
 13 17  1  0
 13 18  1  0
 13 19  1  0
 14 15  1  0
 14 20  1  0
 14 21  1  0
 15 16  2  0
 15 22  1  0
M  RAD  1   1   2
M  END
>  <reaction>  (16) 
rxn_2022

>  <mol_properties>  (16) 
{"1": {"label": "*0", "atom_type": "CS"}, "2": {"label": "*1", "atom_type": "Cs"}, "13": {"label": "*3", "atom_type": "Cd"}, "14": {"label": "*4", "atom_type": "Cd"}, "19": {"label": "*2", "atom_type": "H0"}}

>  <type>  (16) 
unop_12

>  <geom_source>  (16) 
Heuristics

$$$$

     RDKit          3D

 22 20  0  0  0  0  0  0  0  0999 V2000
   -1.9971    2.2193    1.0915 S   0  0  0  0  0  0  0  0  0  0  0  0
    0.8100   -1.2814    1.1298 S   0  0  0  0  0  1  0  0  0  0  0  0
   -1.0486    0.0184    0.1767 C   0  0  0  0  0  0  0  0  0  0  0  0
   -1.3409   -0.9494    1.3296 C   0  0  0  0  0  0  0  0  0  0  0  0
   -1.0430   -0.7323   -1.1584 C   0  0  0  0  0  0  0  0  0  0  0  0
    2.3617    0.3629   -1.2424 C   0  0  0  0  0  0  0  0  0  0  0  0
    1.4074    0.8368   -0.1516 C   0  0  0  0  0  0  0  0  0  0  0  0
   -2.0613    1.1390    0.1456 C   0  0  0  0  0  0  0  0  0  0  0  0
    1.4996   -0.0237    1.0723 C   0  0  0  0  0  0  0  0  0  0  0  0
    0.1528    0.5254    0.3504 H   0  0  0  0  0  0  0  0  0  0  0  0
   -1.2807   -0.4172    2.3025 H   0  0  0  0  0  0  0  0  0  0  0  0
   -2.3549   -1.3919    1.2228 H   0  0  0  0  0  0  0  0  0  0  0  0
   -0.5896   -1.7673    1.3409 H   0  0  0  0  0  0  0  0  0  0  0  0
   -2.0322   -1.2010   -1.3520 H   0  0  0  0  0  0  0  0  0  0  0  0
   -0.2650   -1.5249   -1.1466 H   0  0  0  0  0  0  0  0  0  0  0  0
   -0.8075   -0.0307   -1.9869 H   0  0  0  0  0  0  0  0  0  0  0  0
    2.2749    1.0337   -2.1223 H   0  0  0  0  0  0  0  0  0  0  0  0
    3.4100    0.3857   -0.8750 H   0  0  0  0  0  0  0  0  0  0  0  0
    2.1029   -0.6695   -1.5592 H   0  0  0  0  0  0  0  0  0  0  0  0
    1.6497    1.8879    0.1148 H   0  0  0  0  0  0  0  0  0  0  0  0
   -2.7859    1.1983   -0.6613 H   0  0  0  0  0  0  0  0  0  0  0  0
    1.9375    0.3816    1.9787 H   0  0  0  0  0  0  0  0  0  0  0  0
  1  8  2  0
  2  9  1  0
  3  4  1  0
  3  5  1  0
  3  8  1  0
  3 10  1  0
  4 11  1  0
  4 12  1  0
  4 13  1  0
  5 14  1  0
  5 15  1  0
  5 16  1  0
  6  7  1  0
  6 17  1  0
  6 18  1  0
  6 19  1  0
  7  9  2  3
  7 20  1  0
  8 21  1  0
  9 22  1  0
M  RAD  1   2   2
M  END
>  <reaction>  (17) 
rxn_2022

>  <mol_properties>  (17) 
{"1": {"label": "*0", "atom_type": "CS"}, "2": {"label": "*1", "atom_type": "Cs"}, "13": {"label": "*3", "atom_type": "Cd"}, "14": {"label": "*4", "atom_type": "Cd"}, "19": {"label": "*2", "atom_type": "H0"}}

>  <type>  (17) 
unop_13

>  <geom_source>  (17) 
AutoTST

$$$$
