
     RDKit          3D

  9  8  0  0  0  0  0  0  0  0999 V2000
    1.1303   -0.2933   -0.7510 C   0  0  0  0  0  0  0  0  0  0  0  0
    0.2866    0.4560   -0.0588 C   0  0  0  0  0  0  0  0  0  0  0  0
   -0.9719   -0.0331    0.5823 C   0  0  0  0  0  0  0  0  0  0  0  0
    2.0274    0.1230   -1.1916 H   0  0  0  0  0  0  0  0  0  0  0  0
    0.9532   -1.3530   -0.9023 H   0  0  0  0  0  0  0  0  0  0  0  0
    0.5065    1.5132    0.0659 H   0  0  0  0  0  0  0  0  0  0  0  0
   -0.9526    0.1426    1.6610 H   0  0  0  0  0  0  0  0  0  0  0  0
   -1.1182   -1.1002    0.4106 H   0  0  0  0  0  0  0  0  0  0  0  0
   -1.8412    0.5010    0.1901 H   0  0  0  0  0  0  0  0  0  0  0  0
  1  2  2  3
  1  4  1  0
  1  5  1  0
  2  3  1  0
  2  6  1  0
  3  7  1  0
  3  8  1  0
  3  9  1  0
M  END
>  <reaction>  (1) 
rxn_1031

>  <mol_properties>  (1) 
{"2": {"label": "donator", "atom_type": "Cs"}, "6": {"label": "d_hydrogen", "atom_type": "H0"}}

>  <type>  (1) 
r1h

$$$$

     RDKit          3D

 10  9  0  0  0  0  0  0  0  0999 V2000
   -1.2648    0.1959    0.8197 C   0  0  0  0  0  0  0  0  0  0  0  0
   -0.2805    0.0995   -0.3030 C   0  0  0  0  0  3  0  0  0  0  0  0
   -0.0444    1.1347   -1.1797 C   0  0  0  0  0  0  0  0  0  0  0  0
    0.1640    2.0467   -1.9525 C   0  0  0  0  0  0  0  0  0  0  0  0
    0.5686   -1.4168   -0.4488 S   0  0  0  0  0  0  0  0  0  0  0  0
   -2.0466   -0.5638    0.7258 H   0  0  0  0  0  0  0  0  0  0  0  0
   -0.7765    0.0454    1.7871 H   0  0  0  0  0  0  0  0  0  0  0  0
   -1.7371    1.1762    0.8222 H   0  0  0  0  0  0  0  0  0  0  0  0
    0.3433    2.8484   -2.6273 H   0  0  0  0  0  0  0  0  0  0  0  0
    1.3075   -1.0953   -1.5176 H   0  0  0  0  0  0  0  0  0  0  0  0
  1  2  1  0
  1  6  1  0
  1  7  1  0
  1  8  1  0
  2  3  1  0
  2  5  1  0
  3  4  3  0
  4  9  1  0
  5 10  1  0
M  RAD  1   2   2
M  END
>  <reaction>  (2) 
rxn_1031

>  <mol_properties>  (2) 
{"1": {"label": "acceptor", "atom_type": "Cs"}}

>  <type>  (2) 
r2

$$$$

     RDKit          3D

 11 10  0  0  0  0  0  0  0  0999 V2000
   -1.2582   -0.5130    0.2160 C   0  0  0  0  0  0  0  0  0  0  0  0
   -0.1109    0.0509   -0.6210 C   0  0  0  0  0  0  0  0  0  0  0  0
    1.1862   -0.2025   -0.0072 C   0  0  0  0  0  0  0  0  0  0  0  0
    2.2351   -0.4206    0.5274 C   0  0  0  0  0  0  0  0  0  0  0  0
   -0.3298    1.8272   -1.0120 S   0  0  0  0  0  0  0  0  0  0  0  0
   -1.2875   -0.0327    1.1945 H   0  0  0  0  0  0  0  0  0  0  0  0
   -2.2088   -0.3391   -0.2866 H   0  0  0  0  0  0  0  0  0  0  0  0
   -1.1220   -1.5854    0.3655 H   0  0  0  0  0  0  0  0  0  0  0  0
   -0.1222   -0.4181   -1.6078 H   0  0  0  0  0  0  0  0  0  0  0  0
    3.1729   -0.6098    0.9920 H   0  0  0  0  0  0  0  0  0  0  0  0
   -0.1942    2.2663    0.2466 H   0  0  0  0  0  0  0  0  0  0  0  0
  1  2  1  0
  1  6  1  0
  1  7  1  0
  1  8  1  0
  2  3  1  0
  2  5  1  0
  2  9  1  0
  3  4  3  0
  4 10  1  0
  5 11  1  0
M  END
>  <reaction>  (3) 
rxn_1031

>  <mol_properties>  (3) 
{"1": {"label": "acceptor", "atom_type": "Cs"}, "10": {"label": "a_hydrogen", "atom_type": "H0"}}

>  <type>  (3) 
r2h

$$$$

     RDKit          3D

 19 17  0  0  0  0  0  0  0  0999 V2000
   -2.0318   -0.0477    0.2245 C   0  0  0  0  0  0  0  0  0  0  0  0
   -0.5551   -0.0644    0.5614 C   0  0  2  0  0  0  0  0  0  0  0  0
   -0.1210   -1.0993    1.4440 C   0  0  0  0  0  0  0  0  0  0  0  0
    0.2837   -2.0023    2.1260 C   0  0  0  0  0  0  0  0  0  0  0  0
    0.0635    1.5751    0.9421 S   0  0  0  0  0  0  0  0  0  0  0  0
   -2.6357    0.2092    1.0976 H   0  0  0  0  0  0  0  0  0  0  0  0
   -2.2316    0.6801   -0.5633 H   0  0  0  0  0  0  0  0  0  0  0  0
   -2.3398   -1.0335   -0.1242 H   0  0  0  0  0  0  0  0  0  0  0  0
    0.6293   -2.7915    2.7493 H   0  0  0  0  0  0  0  0  0  0  0  0
    1.3404    1.2108    1.1210 H   0  0  0  0  0  0  0  0  0  0  0  0
    3.0656   -0.5544   -0.9675 C   0  0  0  0  0  0  0  0  0  0  0  0
    1.9961   -0.0504   -1.6006 C   0  0  0  0  0  0  0  0  0  0  0  0
    0.7217   -0.7219   -1.7147 C   0  0  0  0  0  3  0  0  0  0  0  0
    3.9855    0.0083   -0.8773 H   0  0  0  0  0  0  0  0  0  0  0  0
    3.0450   -1.5481   -0.5340 H   0  0  0  0  0  0  0  0  0  0  0  0
    2.0592    0.9538   -2.0087 H   0  0  0  0  0  0  0  0  0  0  0  0
    0.0443   -0.3700   -0.5952 H   0  0  0  0  0  0  0  0  0  0  0  0
    0.7326   -1.8018   -1.5840 H   0  0  0  0  0  0  0  0  0  0  0  0
    0.0560   -0.3803   -2.5022 H   0  0  0  0  0  0  0  0  0  0  0  0
  1  2  1  0
  1  6  1  0
  1  7  1  0
  1  8  1  0
  2  3  1  0
  2  5  1  0
  2 17  1  6
  3  4  3  0
  4  9  1  0
  5 10  1  0
 11 12  2  3
 11 14  1  0
 11 15  1  0
 12 13  1  0
 12 16  1  0
 13 18  1  0
 13 19  1  0
M  RAD  1  13   2
M  END
>  <reaction>  (4) 
rxn_1031

>  <mol_properties>  (4) 
{"1": {"label": "*1", "atom_type": "Cs"}, "4": {"label": "*0", "atom_type": "S2s"}, "11": {"label": "*4", "atom_type": "Cd"}, "12": {"label": "*3", "atom_type": "Cs"}, "16": {"label": "*2", "atom_type": "H0"}}

>  <type>  (4) 
ts

$$$$

     RDKit          3D

 19 17  0  0  0  0  0  0  0  0999 V2000
    0.1233    0.0985    2.3405 C   0  0  0  0  0  0  0  0  0  0  0  0
   -0.3336    0.0819    0.8825 C   0  0  0  0  0  0  0  0  0  0  0  0
   -0.2847    1.4085    0.2817 C   0  0  0  0  0  0  0  0  0  0  0  0
   -0.2396    2.5127   -0.1792 C   0  0  0  0  0  0  0  0  0  0  0  0
   -1.9819   -0.6884    0.6686 S   0  0  0  0  0  0  0  0  0  0  0  0
   -0.5372    0.7264    2.9393 H   0  0  0  0  0  0  0  0  0  0  0  0
    0.1094   -0.9113    2.7487 H   0  0  0  0  0  0  0  0  0  0  0  0
    1.1352    0.5009    2.4122 H   0  0  0  0  0  0  0  0  0  0  0  0
   -0.1997    3.4934   -0.5886 H   0  0  0  0  0  0  0  0  0  0  0  0
   -2.6670    0.2622    1.3183 H   0  0  0  0  0  0  0  0  0  0  0  0
    1.7726   -1.1814   -2.8644 C   0  0  0  0  0  0  0  0  0  0  0  0
    1.7726   -1.1814   -1.5407 C   0  0  0  0  0  0  0  0  0  0  0  0
    1.7726    0.0408   -0.6802 C   0  0  0  0  0  3  0  0  0  0  0  0
    1.7726   -2.1041   -3.4309 H   0  0  0  0  0  0  0  0  0  0  0  0
    1.7726   -0.2558   -3.4304 H   0  0  0  0  0  0  0  0  0  0  0  0
    1.7726   -2.1340   -1.0172 H   0  0  0  0  0  0  0  0  0  0  0  0
    0.7193    0.0613    0.1013 H   0  0  0  0  0  0  0  0  0  0  0  0
    1.7726    0.9512   -1.2808 H   0  0  0  0  0  0  0  0  0  0  0  0
    2.6503    0.0579   -0.0289 H   0  0  0  0  0  0  0  0  0  0  0  0
  1  2  1  0
  1  6  1  0
  1  7  1  0
  1  8  1  0
  2  3  1  0
  2  5  1  0
  2 17  1  0
  3  4  3  0
  4  9  1  0
  5 10  1  0
 11 12  2  3
 11 14  1  0
 11 15  1  0
 12 13  1  0
 12 16  1  0
 13 18  1  0
 13 19  1  0
M  RAD  1  13   2
M  END
>  <reaction>  (5) 
rxn_1031

>  <mol_properties>  (5) 
{"1": {"label": "*1", "atom_type": "Cs"}, "4": {"label": "*0", "atom_type": "S2s"}, "11": {"label": "*4", "atom_type": "Cd"}, "12": {"label": "*3", "atom_type": "Cs"}, "16": {"label": "*2", "atom_type": "H0"}}

>  <type>  (5) 
unop_1

>  <geom_source>  (5) 
Heuristics

$$$$

     RDKit          3D

 19 17  0  0  0  0  0  0  0  0999 V2000
   -0.8966   -1.4267    0.9345 C   0  0  0  0  0  0  0  0  0  0  0  0
   -0.4806    0.0083    0.6149 C   0  0  0  0  0  0  0  0  0  0  0  0
    0.2474    0.6224    1.7178 C   0  0  0  0  0  0  0  0  0  0  0  0
    0.8356    1.0995    2.6452 C   0  0  0  0  0  0  0  0  0  0  0  0
   -1.8907    1.0496    0.0828 S   0  0  0  0  0  0  0  0  0  0  0  0
   -1.5719   -1.4457    1.7905 H   0  0  0  0  0  0  0  0  0  0  0  0
   -1.4057   -1.8683    0.0787 H   0  0  0  0  0  0  0  0  0  0  0  0
   -0.0183   -2.0267    1.1785 H   0  0  0  0  0  0  0  0  0  0  0  0
    1.3581    1.5233    3.4688 H   0  0  0  0  0  0  0  0  0  0  0  0
   -2.5241    1.0432    1.2635 H   0  0  0  0  0  0  0  0  0  0  0  0
    1.6256   -1.2549   -3.1321 C   0  0  0  0  0  0  0  0  0  0  0  0
    1.6256   -1.2549   -1.8083 C   0  0  0  0  0  0  0  0  0  0  0  0
    1.6256   -0.0327   -0.9478 C   0  0  0  0  0  3  0  0  0  0  0  0
    1.6256   -2.1776   -3.6986 H   0  0  0  0  0  0  0  0  0  0  0  0
    1.6256   -0.3293   -3.6981 H   0  0  0  0  0  0  0  0  0  0  0  0
    1.6256   -2.2075   -1.2848 H   0  0  0  0  0  0  0  0  0  0  0  0
    0.5723   -0.0122   -0.1664 H   0  0  0  0  0  0  0  0  0  0  0  0
    1.6256    0.8777   -1.5484 H   0  0  0  0  0  0  0  0  0  0  0  0
    2.5033   -0.0156   -0.2966 H   0  0  0  0  0  0  0  0  0  0  0  0
  1  2  1  0
  1  6  1  0
  1  7  1  0
  1  8  1  0
  2  3  1  0
  2  5  1  0
  2 17  1  0
  3  4  3  0
  4  9  1  0
  5 10  1  0
 11 12  2  3
 11 14  1  0
 11 15  1  0
 12 13  1  0
 12 16  1  0
 13 18  1  0
 13 19  1  0
M  RAD  1  13   2
M  END
>  <reaction>  (6) 
rxn_1031

>  <mol_properties>  (6) 
{"1": {"label": "*1", "atom_type": "Cs"}, "4": {"label": "*0", "atom_type": "S2s"}, "11": {"label": "*4", "atom_type": "Cd"}, "12": {"label": "*3", "atom_type": "Cs"}, "16": {"label": "*2", "atom_type": "H0"}}

>  <type>  (6) 
unop_2

>  <geom_source>  (6) 
Heuristics

$$$$

     RDKit          3D

 19 17  0  0  0  0  0  0  0  0999 V2000
    0.0607    1.0312    2.1836 C   0  0  0  0  0  0  0  0  0  0  0  0
   -0.2874    0.2943    0.8911 C   0  0  0  0  0  0  0  0  0  0  0  0
   -0.8540    1.1890   -0.1098 C   0  0  0  0  0  0  0  0  0  0  0  0
   -1.3230    1.9495   -0.9069 C   0  0  0  0  0  0  0  0  0  0  0  0
   -1.3662   -1.1585    1.1762 S   0  0  0  0  0  0  0  0  0  0  0  0
   -0.8369    1.4576    2.6324 H   0  0  0  0  0  0  0  0  0  0  0  0
    0.5140    0.3434    2.8962 H   0  0  0  0  0  0  0  0  0  0  0  0
    0.7583    1.8443    1.9758 H   0  0  0  0  0  0  0  0  0  0  0  0
   -1.7395    2.6250   -1.6149 H   0  0  0  0  0  0  0  0  0  0  0  0
   -2.4402   -0.4613    1.5709 H   0  0  0  0  0  0  0  0  0  0  0  0
    1.8188   -0.9690   -2.8558 C   0  0  0  0  0  0  0  0  0  0  0  0
    1.8188   -0.9690   -1.5321 C   0  0  0  0  0  0  0  0  0  0  0  0
    1.8188    0.2532   -0.6716 C   0  0  0  0  0  3  0  0  0  0  0  0
    1.8188   -1.8917   -3.4223 H   0  0  0  0  0  0  0  0  0  0  0  0
    1.8188   -0.0434   -3.4218 H   0  0  0  0  0  0  0  0  0  0  0  0
    1.8188   -1.9216   -1.0086 H   0  0  0  0  0  0  0  0  0  0  0  0
    0.7655    0.2738    0.1099 H   0  0  0  0  0  0  0  0  0  0  0  0
    1.8188    1.1637   -1.2722 H   0  0  0  0  0  0  0  0  0  0  0  0
    2.6965    0.2703   -0.0203 H   0  0  0  0  0  0  0  0  0  0  0  0
  1  2  1  0
  1  6  1  0
  1  7  1  0
  1  8  1  0
  2  3  1  0
  2  5  1  0
  2 17  1  0
  3  4  3  0
  4  9  1  0
  5 10  1  0
 11 12  2  3
 11 14  1  0
 11 15  1  0
 12 13  1  0
 12 16  1  0
 13 18  1  0
 13 19  1  0
M  RAD  1  13   2
M  END
>  <reaction>  (7) 
rxn_1031

>  <mol_properties>  (7) 
{"1": {"label": "*1", "atom_type": "Cs"}, "4": {"label": "*0", "atom_type": "S2s"}, "11": {"label": "*4", "atom_type": "Cd"}, "12": {"label": "*3", "atom_type": "Cs"}, "16": {"label": "*2", "atom_type": "H0"}}

>  <type>  (7) 
unop_3

>  <geom_source>  (7) 
Heuristics

$$$$

     RDKit          3D

 19 17  0  0  0  0  0  0  0  0999 V2000
   -1.9156    0.0132   -0.3318 C   0  0  0  0  0  0  0  0  0  0  0  0
   -0.6525    0.0142    0.5280 C   0  0  0  0  0  0  0  0  0  0  0  0
   -0.8777   -0.6071    1.8267 C   0  0  0  0  0  0  0  0  0  0  0  0
   -1.0982   -1.1169    2.8875 C   0  0  0  0  0  0  0  0  0  0  0  0
    0.0798    1.6841    0.7039 S   0  0  0  0  0  0  0  0  0  0  0  0
   -2.7036    0.5938    0.1487 H   0  0  0  0  0  0  0  0  0  0  0  0
   -1.7050    0.4509   -1.3068 H   0  0  0  0  0  0  0  0  0  0  0  0
   -2.2769   -1.0076   -0.4669 H   0  0  0  0  0  0  0  0  0  0  0  0
   -1.2941   -1.5696    3.8296 H   0  0  0  0  0  0  0  0  0  0  0  0
   -0.9245    2.2034    1.4228 H   0  0  0  0  0  0  0  0  0  0  0  0
    1.4537   -1.2491   -3.2189 C   0  0  0  0  0  0  0  0  0  0  0  0
    1.4537   -1.2491   -1.8952 C   0  0  0  0  0  0  0  0  0  0  0  0
    1.4537   -0.0269   -1.0347 C   0  0  0  0  0  3  0  0  0  0  0  0
    1.4537   -2.1718   -3.7854 H   0  0  0  0  0  0  0  0  0  0  0  0
    1.4537   -0.3235   -3.7849 H   0  0  0  0  0  0  0  0  0  0  0  0
    1.4537   -2.2017   -1.3717 H   0  0  0  0  0  0  0  0  0  0  0  0
    0.4005   -0.0064   -0.2532 H   0  0  0  0  0  0  0  0  0  0  0  0
    1.4537    0.8835   -1.6353 H   0  0  0  0  0  0  0  0  0  0  0  0
    2.3314   -0.0098   -0.3835 H   0  0  0  0  0  0  0  0  0  0  0  0
  1  2  1  0
  1  6  1  0
  1  7  1  0
  1  8  1  0
  2  3  1  0
  2  5  1  0
  2 17  1  0
  3  4  3  0
  4  9  1  0
  5 10  1  0
 11 12  2  3
 11 14  1  0
 11 15  1  0
 12 13  1  0
 12 16  1  0
 13 18  1  0
 13 19  1  0
M  RAD  1  13   2
M  END
>  <reaction>  (8) 
rxn_1031

>  <mol_properties>  (8) 
{"1": {"label": "*1", "atom_type": "Cs"}, "4": {"label": "*0", "atom_type": "S2s"}, "11": {"label": "*4", "atom_type": "Cd"}, "12": {"label": "*3", "atom_type": "Cs"}, "16": {"label": "*2", "atom_type": "H0"}}

>  <type>  (8) 
unop_4

>  <geom_source>  (8) 
Heuristics

$$$$

     RDKit          3D

 19 17  0  0  0  0  0  0  0  0999 V2000
   -0.3599    1.7879    1.5749 C   0  0  0  0  0  0  0  0  0  0  0  0
   -0.3980    0.5260    0.7142 C   0  0  0  0  0  0  0  0  0  0  0  0
   -1.5906    0.4730   -0.1215 C   0  0  0  0  0  0  0  0  0  0  0  0
   -2.5844    0.4568   -0.7891 C   0  0  0  0  0  0  0  0  0  0  0  0
   -0.2037   -1.0061    1.6995 S   0  0  0  0  0  0  0  0  0  0  0  0
   -1.2094    1.8083    2.2583 H   0  0  0  0  0  0  0  0  0  0  0  0
    0.5588    1.8146    2.1595 H   0  0  0  0  0  0  0  0  0  0  0  0
   -0.4088    2.6756    0.9421 H   0  0  0  0  0  0  0  0  0  0  0  0
   -3.4671    0.4423   -1.3821 H   0  0  0  0  0  0  0  0  0  0  0  0
   -1.3685   -0.9018    2.3534 H   0  0  0  0  0  0  0  0  0  0  0  0
    1.7082   -0.7373   -3.0328 C   0  0  0  0  0  0  0  0  0  0  0  0
    1.7082   -0.7373   -1.7090 C   0  0  0  0  0  0  0  0  0  0  0  0
    1.7082    0.4849   -0.8485 C   0  0  0  0  0  3  0  0  0  0  0  0
    1.7082   -1.6600   -3.5992 H   0  0  0  0  0  0  0  0  0  0  0  0
    1.7082    0.1883   -3.5988 H   0  0  0  0  0  0  0  0  0  0  0  0
    1.7082   -1.6899   -1.1855 H   0  0  0  0  0  0  0  0  0  0  0  0
    0.6549    0.5054   -0.0670 H   0  0  0  0  0  0  0  0  0  0  0  0
    1.7082    1.3954   -1.4491 H   0  0  0  0  0  0  0  0  0  0  0  0
    2.5859    0.5020   -0.1973 H   0  0  0  0  0  0  0  0  0  0  0  0
  1  2  1  0
  1  6  1  0
  1  7  1  0
  1  8  1  0
  2  3  1  0
  2  5  1  0
  2 17  1  0
  3  4  3  0
  4  9  1  0
  5 10  1  0
 11 12  2  3
 11 14  1  0
 11 15  1  0
 12 13  1  0
 12 16  1  0
 13 18  1  0
 13 19  1  0
M  RAD  1  13   2
M  END
>  <reaction>  (9) 
rxn_1031

>  <mol_properties>  (9) 
{"1": {"label": "*1", "atom_type": "Cs"}, "4": {"label": "*0", "atom_type": "S2s"}, "11": {"label": "*4", "atom_type": "Cd"}, "12": {"label": "*3", "atom_type": "Cs"}, "16": {"label": "*2", "atom_type": "H0"}}

>  <type>  (9) 
unop_5

>  <geom_source>  (9) 
Heuristics

$$$$

     RDKit          3D

 19 17  0  0  0  0  0  0  0  0999 V2000
   -1.8808    0.8493   -0.2525 C   0  0  0  0  0  0  0  0  0  0  0  0
   -0.7394    0.1276    0.4623 C   0  0  0  0  0  0  0  0  0  0  0  0
   -1.2261   -0.7388    1.5280 C   0  0  0  0  0  0  0  0  0  0  0  0
   -1.6585   -1.4353    2.4008 C   0  0  0  0  0  0  0  0  0  0  0  0
    0.5500    1.2772    1.0719 S   0  0  0  0  0  0  0  0  0  0  0  0
   -2.4166    1.4965    0.4426 H   0  0  0  0  0  0  0  0  0  0  0  0
   -1.4875    1.4594   -1.0647 H   0  0  0  0  0  0  0  0  0  0  0  0
   -2.5879    0.1238   -0.6584 H   0  0  0  0  0  0  0  0  0  0  0  0
   -2.0424   -2.0539    3.1759 H   0  0  0  0  0  0  0  0  0  0  0  0
   -0.2181    1.8751    1.9927 H   0  0  0  0  0  0  0  0  0  0  0  0
    1.3668   -1.1357   -3.2847 C   0  0  0  0  0  0  0  0  0  0  0  0
    1.3668   -1.1357   -1.9609 C   0  0  0  0  0  0  0  0  0  0  0  0
    1.3668    0.0865   -1.1004 C   0  0  0  0  0  3  0  0  0  0  0  0
    1.3668   -2.0584   -3.8512 H   0  0  0  0  0  0  0  0  0  0  0  0
    1.3668   -0.2101   -3.8507 H   0  0  0  0  0  0  0  0  0  0  0  0
    1.3668   -2.0883   -1.4374 H   0  0  0  0  0  0  0  0  0  0  0  0
    0.3135    0.1070   -0.3190 H   0  0  0  0  0  0  0  0  0  0  0  0
    1.3668    0.9970   -1.7010 H   0  0  0  0  0  0  0  0  0  0  0  0
    2.2445    0.1036   -0.4492 H   0  0  0  0  0  0  0  0  0  0  0  0
  1  2  1  0
  1  6  1  0
  1  7  1  0
  1  8  1  0
  2  3  1  0
  2  5  1  0
  2 17  1  0
  3  4  3  0
  4  9  1  0
  5 10  1  0
 11 12  2  3
 11 14  1  0
 11 15  1  0
 12 13  1  0
 12 16  1  0
 13 18  1  0
 13 19  1  0
M  RAD  1  13   2
M  END
>  <reaction>  (10) 
rxn_1031

>  <mol_properties>  (10) 
{"1": {"label": "*1", "atom_type": "Cs"}, "4": {"label": "*0", "atom_type": "S2s"}, "11": {"label": "*4", "atom_type": "Cd"}, "12": {"label": "*3", "atom_type": "Cs"}, "16": {"label": "*2", "atom_type": "H0"}}

>  <type>  (10) 
unop_6

>  <geom_source>  (10) 
Heuristics

$$$$

     RDKit          3D

 19 17  0  0  0  0  0  0  0  0999 V2000
   -1.5747    1.5664    0.1408 C   0  0  0  0  0  0  0  0  0  0  0  0
   -0.7528    0.3134    0.4390 C   0  0  0  0  0  0  0  0  0  0  0  0
   -1.5499   -0.7182    1.0901 C   0  0  0  0  0  0  0  0  0  0  0  0
   -2.2310   -1.5415    1.6305 C   0  0  0  0  0  0  0  0  0  0  0  0
    0.7713    0.6786    1.3874 S   0  0  0  0  0  0  0  0  0  0  0  0
   -1.9439    2.0088    1.0666 H   0  0  0  0  0  0  0  0  0  0  0  0
   -0.9608    2.3024   -0.3769 H   0  0  0  0  0  0  0  0  0  0  0  0
   -2.4334    1.3125   -0.4830 H   0  0  0  0  0  0  0  0  0  0  0  0
   -2.8359   -2.2727    2.1105 H   0  0  0  0  0  0  0  0  0  0  0  0
    0.1498    1.0574    2.5124 H   0  0  0  0  0  0  0  0  0  0  0  0
    1.3534   -0.9499   -3.3080 C   0  0  0  0  0  0  0  0  0  0  0  0
    1.3534   -0.9499   -1.9842 C   0  0  0  0  0  0  0  0  0  0  0  0
    1.3534    0.2723   -1.1237 C   0  0  0  0  0  3  0  0  0  0  0  0
    1.3534   -1.8726   -3.8745 H   0  0  0  0  0  0  0  0  0  0  0  0
    1.3534   -0.0243   -3.8740 H   0  0  0  0  0  0  0  0  0  0  0  0
    1.3534   -1.9025   -1.4607 H   0  0  0  0  0  0  0  0  0  0  0  0
    0.3001    0.2928   -0.3423 H   0  0  0  0  0  0  0  0  0  0  0  0
    1.3534    1.1827   -1.7243 H   0  0  0  0  0  0  0  0  0  0  0  0
    2.2311    0.2894   -0.4725 H   0  0  0  0  0  0  0  0  0  0  0  0
  1  2  1  0
  1  6  1  0
  1  7  1  0
  1  8  1  0
  2  3  1  0
  2  5  1  0
  2 17  1  0
  3  4  3  0
  4  9  1  0
  5 10  1  0
 11 12  2  3
 11 14  1  0
 11 15  1  0
 12 13  1  0
 12 16  1  0
 13 18  1  0
 13 19  1  0
M  RAD  1  13   2
M  END
>  <reaction>  (11) 
rxn_1031

>  <mol_properties>  (11) 
{"1": {"label": "*1", "atom_type": "Cs"}, "4": {"label": "*0", "atom_type": "S2s"}, "11": {"label": "*4", "atom_type": "Cd"}, "12": {"label": "*3", "atom_type": "Cs"}, "16": {"label": "*2", "atom_type": "H0"}}

>  <type>  (11) 
unop_7

>  <geom_source>  (11) 
Heuristics

$$$$

     RDKit          3D

 19 17  0  0  0  0  0  0  0  0999 V2000
   -0.0753   -0.7224    2.0946 C   0  0  0  0  0  0  0  0  0  0  0  0
   -0.4105   -0.0164    0.7816 C   0  0  0  0  0  0  0  0  0  0  0  0
    0.0731    1.3581    0.7639 C   0  0  0  0  0  0  0  0  0  0  0  0
    0.4769    2.4851    0.7846 C   0  0  0  0  0  0  0  0  0  0  0  0
   -2.1933   -0.1030    0.3693 S   0  0  0  0  0  0  0  0  0  0  0  0
   -0.5608   -0.2199    2.9318 H   0  0  0  0  0  0  0  0  0  0  0  0
   -0.4178   -1.7559    2.0619 H   0  0  0  0  0  0  0  0  0  0  0  0
    1.0025   -0.7064    2.2648 H   0  0  0  0  0  0  0  0  0  0  0  0
    0.8356    3.4861    0.8031 H   0  0  0  0  0  0  0  0  0  0  0  0
   -2.6102    0.6660    1.3843 H   0  0  0  0  0  0  0  0  0  0  0  0
    1.6956   -1.2796   -2.9653 C   0  0  0  0  0  0  0  0  0  0  0  0
    1.6956   -1.2796   -1.6416 C   0  0  0  0  0  0  0  0  0  0  0  0
    1.6956   -0.0574   -0.7811 C   0  0  0  0  0  3  0  0  0  0  0  0
    1.6956   -2.2023   -3.5318 H   0  0  0  0  0  0  0  0  0  0  0  0
    1.6956   -0.3540   -3.5313 H   0  0  0  0  0  0  0  0  0  0  0  0
    1.6956   -2.2322   -1.1181 H   0  0  0  0  0  0  0  0  0  0  0  0
    0.6424   -0.0369    0.0004 H   0  0  0  0  0  0  0  0  0  0  0  0
    1.6956    0.8530   -1.3817 H   0  0  0  0  0  0  0  0  0  0  0  0
    2.5734   -0.0403   -0.1299 H   0  0  0  0  0  0  0  0  0  0  0  0
  1  2  1  0
  1  6  1  0
  1  7  1  0
  1  8  1  0
  2  3  1  0
  2  5  1  0
  2 17  1  0
  3  4  3  0
  4  9  1  0
  5 10  1  0
 11 12  2  3
 11 14  1  0
 11 15  1  0
 12 13  1  0
 12 16  1  0
 13 18  1  0
 13 19  1  0
M  RAD  1  13   2
M  END
>  <reaction>  (12) 
rxn_1031

>  <mol_properties>  (12) 
{"1": {"label": "*1", "atom_type": "Cs"}, "4": {"label": "*0", "atom_type": "S2s"}, "11": {"label": "*4", "atom_type": "Cd"}, "12": {"label": "*3", "atom_type": "Cs"}, "16": {"label": "*2", "atom_type": "H0"}}

>  <type>  (12) 
unop_8

>  <geom_source>  (12) 
Heuristics

$$$$

     RDKit          3D

 19 17  0  0  0  0  0  0  0  0999 V2000
   -1.7049   -0.7317   -0.1098 C   0  0  0  0  0  0  0  0  0  0  0  0
   -0.5505   -0.0104    0.5845 C   0  0  0  0  0  0  0  0  0  0  0  0
   -0.4690   -0.3498    1.9993 C   0  0  0  0  0  0  0  0  0  0  0  0
   -0.4345   -0.6442    3.1594 C   0  0  0  0  0  0  0  0  0  0  0  0
   -0.5996    1.8036    0.3341 S   0  0  0  0  0  0  0  0  0  0  0  0
   -2.6581   -0.4341    0.3282 H   0  0  0  0  0  0  0  0  0  0  0  0
   -1.7162   -0.4851   -1.1707 H   0  0  0  0  0  0  0  0  0  0  0  0
   -1.5973   -1.8114    0.0068 H   0  0  0  0  0  0  0  0  0  0  0  0
   -0.4038   -0.9056    4.1898 H   0  0  0  0  0  0  0  0  0  0  0  0
   -1.7186    2.0132    1.0406 H   0  0  0  0  0  0  0  0  0  0  0  0
    1.5557   -1.2737   -3.1624 C   0  0  0  0  0  0  0  0  0  0  0  0
    1.5557   -1.2737   -1.8387 C   0  0  0  0  0  0  0  0  0  0  0  0
    1.5557   -0.0515   -0.9782 C   0  0  0  0  0  3  0  0  0  0  0  0
    1.5557   -2.1964   -3.7289 H   0  0  0  0  0  0  0  0  0  0  0  0
    1.5557   -0.3481   -3.7284 H   0  0  0  0  0  0  0  0  0  0  0  0
    1.5557   -2.2263   -1.3152 H   0  0  0  0  0  0  0  0  0  0  0  0
    0.5024   -0.0310   -0.1967 H   0  0  0  0  0  0  0  0  0  0  0  0
    1.5557    0.8589   -1.5788 H   0  0  0  0  0  0  0  0  0  0  0  0
    2.4334   -0.0344   -0.3270 H   0  0  0  0  0  0  0  0  0  0  0  0
  1  2  1  0
  1  6  1  0
  1  7  1  0
  1  8  1  0
  2  3  1  0
  2  5  1  0
  2 17  1  0
  3  4  3  0
  4  9  1  0
  5 10  1  0
 11 12  2  3
 11 14  1  0
 11 15  1  0
 12 13  1  0
 12 16  1  0
 13 18  1  0
 13 19  1  0
M  RAD  1  13   2
M  END
>  <reaction>  (13) 
rxn_1031

>  <mol_properties>  (13) 
{"1": {"label": "*1", "atom_type": "Cs"}, "4": {"label": "*0", "atom_type": "S2s"}, "11": {"label": "*4", "atom_type": "Cd"}, "12": {"label": "*3", "atom_type": "Cs"}, "16": {"label": "*2", "atom_type": "H0"}}

>  <type>  (13) 
unop_9

>  <geom_source>  (13) 
Heuristics

$$$$

     RDKit          3D

 19 17  0  0  0  0  0  0  0  0999 V2000
   -0.4489   -1.2593    1.5717 C   0  0  0  0  0  0  0  0  0  0  0  0
   -0.4646   -0.0220    0.6754 C   0  0  0  0  0  0  0  0  0  0  0  0
    0.2678    1.0893    1.2688 C   0  0  0  0  0  0  0  0  0  0  0  0
    0.8707    1.9843    1.7877 C   0  0  0  0  0  0  0  0  0  0  0  0
   -2.1595    0.4771    0.1916 S   0  0  0  0  0  0  0  0  0  0  0  0
   -0.9392   -1.0471    2.5223 H   0  0  0  0  0  0  0  0  0  0  0  0
   -0.9727   -2.0809    1.0848 H   0  0  0  0  0  0  0  0  0  0  0  0
    0.5796   -1.5609    1.7773 H   0  0  0  0  0  0  0  0  0  0  0  0
    1.4061    2.7792    2.2484 H   0  0  0  0  0  0  0  0  0  0  0  0
   -2.5567    0.8363    1.4197 H   0  0  0  0  0  0  0  0  0  0  0  0
    1.6416   -1.2852   -3.0716 C   0  0  0  0  0  0  0  0  0  0  0  0
    1.6416   -1.2852   -1.7478 C   0  0  0  0  0  0  0  0  0  0  0  0
    1.6416   -0.0630   -0.8873 C   0  0  0  0  0  3  0  0  0  0  0  0
    1.6416   -2.2079   -3.6380 H   0  0  0  0  0  0  0  0  0  0  0  0
    1.6416   -0.3596   -3.6376 H   0  0  0  0  0  0  0  0  0  0  0  0
    1.6416   -2.2378   -1.2243 H   0  0  0  0  0  0  0  0  0  0  0  0
    0.5883   -0.0425   -0.1058 H   0  0  0  0  0  0  0  0  0  0  0  0
    1.6416    0.8474   -1.4879 H   0  0  0  0  0  0  0  0  0  0  0  0
    2.5193   -0.0459   -0.2361 H   0  0  0  0  0  0  0  0  0  0  0  0
  1  2  1  0
  1  6  1  0
  1  7  1  0
  1  8  1  0
  2  3  1  0
  2  5  1  0
  2 17  1  0
  3  4  3  0
  4  9  1  0
  5 10  1  0
 11 12  2  3
 11 14  1  0
 11 15  1  0
 12 13  1  0
 12 16  1  0
 13 18  1  0
 13 19  1  0
M  RAD  1  13   2
M  END
>  <reaction>  (14) 
rxn_1031

>  <mol_properties>  (14) 
{"1": {"label": "*1", "atom_type": "Cs"}, "4": {"label": "*0", "atom_type": "S2s"}, "11": {"label": "*4", "atom_type": "Cd"}, "12": {"label": "*3", "atom_type": "Cs"}, "16": {"label": "*2", "atom_type": "H0"}}

>  <type>  (14) 
unop_10

>  <geom_source>  (14) 
Heuristics

$$$$

     RDKit          3D

 19 17  0  0  0  0  0  0  0  0999 V2000
   -1.0273    1.9547    0.7871 C   0  0  0  0  0  0  0  0  0  0  0  0
   -0.6371    0.5039    0.5086 C   0  0  0  0  0  0  0  0  0  0  0  0
   -1.7987   -0.3754    0.4760 C   0  0  0  0  0  0  0  0  0  0  0  0
   -2.7730   -1.0713    0.4631 C   0  0  0  0  0  0  0  0  0  0  0  0
    0.6396   -0.1179    1.6659 S   0  0  0  0  0  0  0  0  0  0  0  0
   -1.4995    2.0407    1.7663 H   0  0  0  0  0  0  0  0  0  0  0  0
   -0.1428    2.5902    0.7693 H   0  0  0  0  0  0  0  0  0  0  0  0
   -1.7357    2.3041    0.0341 H   0  0  0  0  0  0  0  0  0  0  0  0
   -3.6383   -1.6894    0.4517 H   0  0  0  0  0  0  0  0  0  0  0  0
   -0.1346   -0.0879    2.7591 H   0  0  0  0  0  0  0  0  0  0  0  0
    1.4691   -0.7594   -3.2384 C   0  0  0  0  0  0  0  0  0  0  0  0
    1.4691   -0.7594   -1.9146 C   0  0  0  0  0  0  0  0  0  0  0  0
    1.4691    0.4628   -1.0541 C   0  0  0  0  0  3  0  0  0  0  0  0
    1.4691   -1.6821   -3.8049 H   0  0  0  0  0  0  0  0  0  0  0  0
    1.4691    0.1662   -3.8044 H   0  0  0  0  0  0  0  0  0  0  0  0
    1.4691   -1.7120   -1.3911 H   0  0  0  0  0  0  0  0  0  0  0  0
    0.4158    0.4833   -0.2727 H   0  0  0  0  0  0  0  0  0  0  0  0
    1.4691    1.3732   -1.6547 H   0  0  0  0  0  0  0  0  0  0  0  0
    2.3468    0.4799   -0.4029 H   0  0  0  0  0  0  0  0  0  0  0  0
  1  2  1  0
  1  6  1  0
  1  7  1  0
  1  8  1  0
  2  3  1  0
  2  5  1  0
  2 17  1  0
  3  4  3  0
  4  9  1  0
  5 10  1  0
 11 12  2  3
 11 14  1  0
 11 15  1  0
 12 13  1  0
 12 16  1  0
 13 18  1  0
 13 19  1  0
M  RAD  1  13   2
M  END
>  <reaction>  (15) 
rxn_1031

>  <mol_properties>  (15) 
{"1": {"label": "*1", "atom_type": "Cs"}, "4": {"label": "*0", "atom_type": "S2s"}, "11": {"label": "*4", "atom_type": "Cd"}, "12": {"label": "*3", "atom_type": "Cs"}, "16": {"label": "*2", "atom_type": "H0"}}

>  <type>  (15) 
unop_11

>  <geom_source>  (15) 
Heuristics

$$$$

     RDKit          3D

 19 17  0  0  0  0  0  0  0  0999 V2000
   -1.3354   -1.2348    0.3396 C   0  0  0  0  0  0  0  0  0  0  0  0
   -0.4912    0.0113    0.6021 C   0  0  0  0  0  0  0  0  0  0  0  0
   -0.0356    0.0787    1.9847 C   0  0  0  0  0  0  0  0  0  0  0  0
    0.3158    0.1075    3.1289 C   0  0  0  0  0  0  0  0  0  0  0  0
   -1.3391    1.5561    0.1018 S   0  0  0  0  0  0  0  0  0  0  0  0
   -2.2359   -1.2212    0.9545 H   0  0  0  0  0  0  0  0  0  0  0  0
   -1.6294   -1.2738   -0.7086 H   0  0  0  0  0  0  0  0  0  0  0  0
   -0.7664   -2.1327    0.5865 H   0  0  0  0  0  0  0  0  0  0  0  0
    0.6279    0.1330    4.1452 H   0  0  0  0  0  0  0  0  0  0  0  0
   -2.3047    1.4934    1.0285 H   0  0  0  0  0  0  0  0  0  0  0  0
    1.6150   -1.2519   -3.1448 C   0  0  0  0  0  0  0  0  0  0  0  0
    1.6150   -1.2519   -1.8211 C   0  0  0  0  0  0  0  0  0  0  0  0
    1.6150   -0.0297   -0.9605 C   0  0  0  0  0  3  0  0  0  0  0  0
    1.6150   -2.1747   -3.7113 H   0  0  0  0  0  0  0  0  0  0  0  0
    1.6150   -0.3263   -3.7108 H   0  0  0  0  0  0  0  0  0  0  0  0
    1.6150   -2.2046   -1.2975 H   0  0  0  0  0  0  0  0  0  0  0  0
    0.5618   -0.0092   -0.1791 H   0  0  0  0  0  0  0  0  0  0  0  0
    1.6150    0.8807   -1.5611 H   0  0  0  0  0  0  0  0  0  0  0  0
    2.4927   -0.0126   -0.3093 H   0  0  0  0  0  0  0  0  0  0  0  0
  1  2  1  0
  1  6  1  0
  1  7  1  0
  1  8  1  0
  2  3  1  0
  2  5  1  0
  2 17  1  0
  3  4  3  0
  4  9  1  0
  5 10  1  0
 11 12  2  3
 11 14  1  0
 11 15  1  0
 12 13  1  0
 12 16  1  0
 13 18  1  0
 13 19  1  0
M  RAD  1  13   2
M  END
>  <reaction>  (16) 
rxn_1031

>  <mol_properties>  (16) 
{"1": {"label": "*1", "atom_type": "Cs"}, "4": {"label": "*0", "atom_type": "S2s"}, "11": {"label": "*4", "atom_type": "Cd"}, "12": {"label": "*3", "atom_type": "Cs"}, "16": {"label": "*2", "atom_type": "H0"}}

>  <type>  (16) 
unop_12

>  <geom_source>  (16) 
Heuristics

$$$$

     RDKit          3D

 19 17  0  0  0  0  0  0  0  0999 V2000
   -1.1475    1.9169    0.0577 S   0  0  0  0  0  0  0  0  0  0  0  0
   -1.1286    0.1076   -0.1373 C   0  0  0  0  0  0  0  0  0  0  0  0
   -1.4999   -0.2664   -1.5680 C   0  0  0  0  0  0  0  0  0  0  0  0
    2.5065    0.1471   -0.1580 C   0  0  0  0  0  0  0  0  0  0  0  0
    1.3320   -0.7704   -0.2755 C   0  0  0  0  0  0  0  0  0  0  0  0
    2.5285    1.1148    0.7597 C   0  0  0  0  0  3  0  0  0  0  0  0
   -2.0737   -0.4966    0.8098 C   0  0  0  0  0  0  0  0  0  0  0  0
   -2.8488   -0.9935    1.5883 C   0  0  0  0  0  0  0  0  0  0  0  0
    0.0906   -0.3418    0.1245 H   0  0  0  0  0  0  0  0  0  0  0  0
   -0.7704    0.1832   -2.2742 H   0  0  0  0  0  0  0  0  0  0  0  0
   -1.4711   -1.3700   -1.6936 H   0  0  0  0  0  0  0  0  0  0  0  0
   -2.5183    0.1017   -1.8193 H   0  0  0  0  0  0  0  0  0  0  0  0
    3.3464    0.0319   -0.8367 H   0  0  0  0  0  0  0  0  0  0  0  0
    3.3849    1.7776    0.8298 H   0  0  0  0  0  0  0  0  0  0  0  0
    1.6972    1.2534    1.4448 H   0  0  0  0  0  0  0  0  0  0  0  0
    1.4759   -1.4628   -1.1311 H   0  0  0  0  0  0  0  0  0  0  0  0
    1.2172   -1.3620    0.6572 H   0  0  0  0  0  0  0  0  0  0  0  0
   -0.5915    1.8588    1.3503 H   0  0  0  0  0  0  0  0  0  0  0  0
   -3.5292   -1.4296    2.2715 H   0  0  0  0  0  0  0  0  0  0  0  0
  1  2  1  0
  1 18  1  0
  2  3  1  0
  2  7  1  0
  2  9  1  0
  3 10  1  0
  3 11  1  0
  3 12  1  0
  4  5  2  3
  4  6  1  0
  4 13  1  0
  5 16  1  0
  5 17  1  0
  6 14  1  0
  6 15  1  0
  7  8  3  0
  8 19  1  0
M  RAD  1   6   2
M  END
>  <reaction>  (17) 
rxn_1031

>  <mol_properties>  (17) 
{"1": {"label": "*1", "atom_type": "Cs"}, "4": {"label": "*0", "atom_type": "S2s"}, "11": {"label": "*4", "atom_type": "Cd"}, "12": {"label": "*3", "atom_type": "Cs"}, "16": {"label": "*2", "atom_type": "H0"}}

>  <type>  (17) 
unop_13

>  <geom_source>  (17) 
AutoTST

$$$$
