
     RDKit          3D

 25 26  0  0  0  0  0  0  0  0999 V2000
    2.0298   -1.1515    0.0571 C   0  0  0  0  0  0  0  0  0  0  0  0
    2.2278    0.2445    0.6528 C   0  0  0  0  0  0  0  0  0  0  0  0
    1.2292    1.2625    0.0947 C   0  0  0  0  0  0  0  0  0  0  0  0
   -0.1869    0.7454    0.2762 C   0  0  0  0  0  0  0  0  0  0  0  0
   -1.3415    1.5501   -0.3122 C   0  0  0  0  0  0  0  0  0  0  0  0
   -2.5060    0.5338   -0.4178 C   0  0  0  0  0  0  0  0  0  0  0  0
   -1.8709   -0.8658   -0.2234 C   0  0  0  0  0  0  0  0  0  0  0  0
   -0.3715   -0.6265   -0.3693 C   0  0  0  0  0  0  0  0  0  0  0  0
    0.5898   -1.6500    0.2086 C   0  0  0  0  0  0  0  0  0  0  0  0
    2.2820   -1.1226   -1.0088 H   0  0  0  0  0  0  0  0  0  0  0  0
    2.7243   -1.8549    0.5221 H   0  0  0  0  0  0  0  0  0  0  0  0
    2.1030    0.1885    1.7400 H   0  0  0  0  0  0  0  0  0  0  0  0
    3.2514    0.5819    0.4743 H   0  0  0  0  0  0  0  0  0  0  0  0
    1.3611    2.2304    0.5855 H   0  0  0  0  0  0  0  0  0  0  0  0
    1.4198    1.4194   -0.9737 H   0  0  0  0  0  0  0  0  0  0  0  0
   -0.3675    0.6209    1.3539 H   0  0  0  0  0  0  0  0  0  0  0  0
   -1.5992    2.4249    0.2862 H   0  0  0  0  0  0  0  0  0  0  0  0
   -1.0595    1.9116   -1.3055 H   0  0  0  0  0  0  0  0  0  0  0  0
   -3.2666    0.7244    0.3399 H   0  0  0  0  0  0  0  0  0  0  0  0
   -3.0030    0.6112   -1.3853 H   0  0  0  0  0  0  0  0  0  0  0  0
   -2.2549   -1.6039   -0.9288 H   0  0  0  0  0  0  0  0  0  0  0  0
   -2.0796   -1.2429    0.7821 H   0  0  0  0  0  0  0  0  0  0  0  0
   -0.1432   -0.5121   -1.4391 H   0  0  0  0  0  0  0  0  0  0  0  0
    0.4720   -2.6209   -0.2799 H   0  0  0  0  0  0  0  0  0  0  0  0
    0.3601   -1.7986    1.2704 H   0  0  0  0  0  0  0  0  0  0  0  0
  1  2  1  0
  1  9  1  0
  1 10  1  0
  1 11  1  0
  2  3  1  0
  2 12  1  0
  2 13  1  0
  3  4  1  0
  3 14  1  0
  3 15  1  0
  4  5  1  0
  4  8  1  0
  4 16  1  0
  5  6  1  0
  5 17  1  0
  5 18  1  0
  6  7  1  0
  6 19  1  0
  6 20  1  0
  7  8  1  0
  7 21  1  0
  7 22  1  0
  8  9  1  0
  8 23  1  0
  9 24  1  0
  9 25  1  0
M  END
>  <reaction>  (1) 
rxn_613

>  <mol_properties>  (1) 
{"6": {"label": "donator", "atom_type": "Cs"}, "12": {"label": "d_hydrogen", "atom_type": "H0"}}

>  <type>  (1) 
r1h

$$$$

     RDKit          3D

 14 14  0  0  0  0  0  0  0  0999 V2000
    2.3111    0.1295    0.0255 C   0  0  0  0  0  0  0  0  0  0  0  0
    0.9132    0.0511    0.0101 C   0  0  0  0  0  0  0  0  0  0  0  0
    0.2446   -1.1981    0.0389 C   0  0  0  0  0  3  0  0  0  0  0  0
   -1.1306   -1.2689    0.0235 C   0  0  0  0  0  0  0  0  0  0  0  0
   -1.8967   -0.1062   -0.0209 C   0  0  0  0  0  0  0  0  0  0  0  0
   -1.2644    1.1347   -0.0499 C   0  0  0  0  0  0  0  0  0  0  0  0
    0.1101    1.2180   -0.0350 C   0  0  0  0  0  0  0  0  0  0  0  0
    2.9188   -0.7647    0.0599 H   0  0  0  0  0  0  0  0  0  0  0  0
    2.8158    1.0859    0.0034 H   0  0  0  0  0  0  0  0  0  0  0  0
    0.8353   -2.1058    0.0735 H   0  0  0  0  0  0  0  0  0  0  0  0
   -1.6191   -2.2351    0.0461 H   0  0  0  0  0  0  0  0  0  0  0  0
   -2.9772   -0.1668   -0.0328 H   0  0  0  0  0  0  0  0  0  0  0  0
   -1.8572    2.0404   -0.0845 H   0  0  0  0  0  0  0  0  0  0  0  0
    0.5964    2.1860   -0.0577 H   0  0  0  0  0  0  0  0  0  0  0  0
  1  2  2  3
  1  8  1  0
  1  9  1  0
  2  3  1  0
  2  7  1  0
  3  4  1  0
  3 10  1  0
  4  5  2  0
  4 11  1  0
  5  6  1  0
  5 12  1  0
  6  7  2  0
  6 13  1  0
  7 14  1  0
M  RAD  1   3   2
M  END
>  <reaction>  (2) 
rxn_613

>  <mol_properties>  (2) 
{"6": {"label": "acceptor", "atom_type": "Cs"}}

>  <type>  (2) 
r2

$$$$

     RDKit          3D

 15 15  0  0  0  0  0  0  0  0999 V2000
    2.2031   -0.2111   -0.1693 C   0  0  0  0  0  0  0  0  0  0  0  0
    0.7140   -0.0314   -0.0623 C   0  0  0  0  0  0  0  0  0  0  0  0
   -0.0114    0.5491   -1.0982 C   0  0  0  0  0  0  0  0  0  0  0  0
   -1.3882    0.6886   -1.0150 C   0  0  0  0  0  0  0  0  0  0  0  0
   -2.0661    0.2493    0.1118 C   0  0  0  0  0  0  0  0  0  0  0  0
   -1.3551   -0.3278    1.1528 C   0  0  0  0  0  0  0  0  0  0  0  0
    0.0216   -0.4648    1.0642 C   0  0  0  0  0  0  0  0  0  0  0  0
    2.6776   -0.1836    0.8122 H   0  0  0  0  0  0  0  0  0  0  0  0
    2.4446   -1.1749   -0.6249 H   0  0  0  0  0  0  0  0  0  0  0  0
    2.6532    0.5664   -0.7875 H   0  0  0  0  0  0  0  0  0  0  0  0
    0.5104    0.8989   -1.9819 H   0  0  0  0  0  0  0  0  0  0  0  0
   -1.9328    1.1452   -1.8322 H   0  0  0  0  0  0  0  0  0  0  0  0
   -3.1409    0.3597    0.1800 H   0  0  0  0  0  0  0  0  0  0  0  0
   -1.8736   -0.6702    2.0398 H   0  0  0  0  0  0  0  0  0  0  0  0
    0.5695   -0.9141    1.8849 H   0  0  0  0  0  0  0  0  0  0  0  0
  1  2  1  0
  1  8  1  0
  1  9  1  0
  1 10  1  0
  2  3  2  0
  2  7  1  0
  3  4  1  0
  3 11  1  0
  4  5  2  0
  4 12  1  0
  5  6  1  0
  5 13  1  0
  6  7  2  0
  6 14  1  0
  7 15  1  0
M  END
>  <reaction>  (3) 
rxn_613

>  <mol_properties>  (3) 
{"6": {"label": "acceptor", "atom_type": "Cs"}, "7": {"label": "a_hydrogen", "atom_type": "H0"}}

>  <type>  (3) 
r2h

$$$$

     RDKit          3D

 39 40  0  0  0  0  0  0  0  0999 V2000
    0.7774    0.8942    0.1014 C   0  0  0  0  0  0  0  0  0  0  0  0
    1.6672   -0.0596    0.8974 C   0  0  0  0  0  0  0  0  0  0  0  0
    0.1998    1.8016    1.1824 C   0  0  0  0  0  0  0  0  0  0  0  0
    0.8203   -0.3929    2.1303 C   0  0  0  0  0  0  0  0  0  0  0  0
    1.5233    1.5052   -1.0691 C   0  0  0  0  0  0  0  0  0  0  0  0
    2.1549   -1.2017    0.0231 C   0  0  0  0  0  0  0  0  0  0  0  0
   -0.0491    0.8437    2.3371 C   0  0  0  0  0  3  0  0  0  0  0  0
    2.0464    0.3816   -1.9689 C   0  0  0  0  0  0  0  0  0  0  0  0
    2.8889   -0.6382   -1.1976 C   0  0  0  0  0  0  0  0  0  0  0  0
   -2.4762   -0.4050    0.4378 C   0  0  0  0  0  0  0  0  0  0  0  0
   -2.7635    0.5454   -0.5470 C   0  0  0  0  0  0  0  0  0  0  0  0
   -2.0074   -1.6551    0.0213 C   0  0  0  0  0  0  0  0  0  0  0  0
   -2.5619    0.2689   -1.8877 C   0  0  0  0  0  0  0  0  0  0  0  0
   -2.0729   -0.9693   -2.2818 C   0  0  0  0  0  0  0  0  0  0  0  0
   -1.8062   -1.9332   -1.3193 C   0  0  0  0  0  0  0  0  0  0  0  0
   -2.5381   -0.0588    1.8591 C   0  0  0  0  0  0  0  0  0  0  0  0
   -0.0459    0.2993   -0.3092 H   0  0  0  0  0  0  0  0  0  0  0  0
    2.5431    0.5144    1.2316 H   0  0  0  0  0  0  0  0  0  0  0  0
   -0.0823    1.2710    3.3366 H   0  0  0  0  0  0  0  0  0  0  0  0
   -1.3375    0.4135    2.1653 H   0  0  0  0  0  0  0  0  0  0  0  0
    0.9327    2.5673    1.4665 H   0  0  0  0  0  0  0  0  0  0  0  0
   -0.7051    2.3264    0.8643 H   0  0  0  0  0  0  0  0  0  0  0  0
    1.4244   -0.6338    3.0070 H   0  0  0  0  0  0  0  0  0  0  0  0
    0.1988   -1.2728    1.9248 H   0  0  0  0  0  0  0  0  0  0  0  0
    0.8733    2.1732   -1.6405 H   0  0  0  0  0  0  0  0  0  0  0  0
    2.3605    2.1096   -0.6991 H   0  0  0  0  0  0  0  0  0  0  0  0
    2.8109   -1.8760    0.5804 H   0  0  0  0  0  0  0  0  0  0  0  0
    1.2897   -1.7902   -0.3040 H   0  0  0  0  0  0  0  0  0  0  0  0
    2.6308    0.7954   -2.7940 H   0  0  0  0  0  0  0  0  0  0  0  0
    1.1871   -0.1310   -2.4156 H   0  0  0  0  0  0  0  0  0  0  0  0
    3.8126   -0.1546   -0.8600 H   0  0  0  0  0  0  0  0  0  0  0  0
    3.1891   -1.4498   -1.8645 H   0  0  0  0  0  0  0  0  0  0  0  0
   -3.1318    1.5202   -0.2481 H   0  0  0  0  0  0  0  0  0  0  0  0
   -2.7831    1.0247   -2.6311 H   0  0  0  0  0  0  0  0  0  0  0  0
   -1.9090   -1.1837   -3.3300 H   0  0  0  0  0  0  0  0  0  0  0  0
   -1.4344   -2.9062   -1.6160 H   0  0  0  0  0  0  0  0  0  0  0  0
   -1.7844   -2.4105    0.7662 H   0  0  0  0  0  0  0  0  0  0  0  0
   -2.6429   -0.8999    2.5406 H   0  0  0  0  0  0  0  0  0  0  0  0
   -3.1996    0.7668    2.1104 H   0  0  0  0  0  0  0  0  0  0  0  0
  1  5  1  0
  1  3  1  0
  1  2  1  0
  1 17  1  0
  2  6  1  0
  2  4  1  0
  2 18  1  0
  3  7  1  0
  3 21  1  0
  3 22  1  0
  4  7  1  0
  4 23  1  0
  4 24  1  0
  5  8  1  0
  5 25  1  0
  5 26  1  0
  6  9  1  0
  6 27  1  0
  6 28  1  0
  7 19  1  0
  8  9  1  0
  8 29  1  0
  8 30  1  0
  9 31  1  0
  9 32  1  0
 10 16  1  0
 10 11  2  0
 10 12  1  0
 11 13  1  0
 11 33  1  0
 12 15  2  0
 12 37  1  0
 13 14  2  0
 13 34  1  0
 14 15  1  0
 14 35  1  0
 15 36  1  0
 16 20  1  0
 16 38  1  0
 16 39  1  0
M  RAD  1   7   2
M  END
>  <reaction>  (4) 
rxn_613

>  <mol_properties>  (4) 
{"2": {"label": "*4", "atom_type": "Cs"}, "6": {"label": "*3", "atom_type": "Cs"}, "9": {"label": "*0", "atom_type": "Cd"}, "15": {"label": "*1", "atom_type": "Cs"}, "19": {"label": "*2", "atom_type": "H0"}}

>  <type>  (4) 
ts

$$$$

     RDKit          3D

 39 40  0  0  0  0  0  0  0  0999 V2000
   -0.5766    1.8323    0.6080 C   0  0  0  0  0  0  0  0  0  0  0  0
    0.4104    2.9573    0.4621 C   0  0  0  0  0  0  0  0  0  0  0  0
    0.1898    3.9874   -0.4471 C   0  0  0  0  0  3  0  0  0  0  0  0
    1.0828    5.0415   -0.5624 C   0  0  0  0  0  0  0  0  0  0  0  0
    2.2181    5.0828    0.2323 C   0  0  0  0  0  0  0  0  0  0  0  0
    2.4519    4.0611    1.1400 C   0  0  0  0  0  0  0  0  0  0  0  0
    1.5554    3.0094    1.2511 C   0  0  0  0  0  0  0  0  0  0  0  0
   -1.0954    1.6354   -0.3308 H   0  0  0  0  0  0  0  0  0  0  0  0
   -1.3337    2.0767    1.3575 H   0  0  0  0  0  0  0  0  0  0  0  0
   -0.6935    3.9619   -1.0754 H   0  0  0  0  0  0  0  0  0  0  0  0
    0.8925    5.8316   -1.2782 H   0  0  0  0  0  0  0  0  0  0  0  0
    2.9181    5.9036    0.1421 H   0  0  0  0  0  0  0  0  0  0  0  0
    3.3378    4.0806    1.7625 H   0  0  0  0  0  0  0  0  0  0  0  0
    1.7486    2.2132    1.9612 H   0  0  0  0  0  0  0  0  0  0  0  0
   -1.7612   -4.7041   -1.0460 C   0  0  0  0  0  0  0  0  0  0  0  0
   -1.7612   -4.7041    0.4846 C   0  0  0  0  0  0  0  0  0  0  0  0
   -0.6181   -3.8677    1.0666 C   0  0  0  0  0  0  0  0  0  0  0  0
   -0.6577   -2.4667    0.4825 C   0  0  0  0  0  0  0  0  0  0  0  0
    0.4613   -1.4929    0.8379 C   0  0  0  0  0  0  0  0  0  0  0  0
    0.4114   -0.4224   -0.2807 C   0  0  0  0  0  0  0  0  0  0  0  0
   -0.4821   -1.0142   -1.3993 C   0  0  0  0  0  0  0  0  0  0  0  0
   -0.6072   -2.4924   -1.0439 C   0  0  0  0  0  0  0  0  0  0  0  0
   -1.7612   -3.2877   -1.6280 C   0  0  0  0  0  0  0  0  0  0  0  0
   -0.8688   -5.2309   -1.4019 H   0  0  0  0  0  0  0  0  0  0  0  0
   -2.6221   -5.2652   -1.4167 H   0  0  0  0  0  0  0  0  0  0  0  0
   -2.7134   -4.2949    0.8405 H   0  0  0  0  0  0  0  0  0  0  0  0
   -1.7057   -5.7302    0.8553 H   0  0  0  0  0  0  0  0  0  0  0  0
   -0.6854   -3.8418    2.1574 H   0  0  0  0  0  0  0  0  0  0  0  0
    0.3434   -4.3328    0.8185 H   0  0  0  0  0  0  0  0  0  0  0  0
   -1.6165   -2.0079    0.7650 H   0  0  0  0  0  0  0  0  0  0  0  0
    0.3525   -1.0650    1.8354 H   0  0  0  0  0  0  0  0  0  0  0  0
    1.4190   -2.0215    0.8175 H   0  0  0  0  0  0  0  0  0  0  0  0
   -0.0826    0.7049    0.1636 H   0  0  0  0  0  0  0  0  0  0  0  0
    1.4126   -0.1999   -0.6510 H   0  0  0  0  0  0  0  0  0  0  0  0
   -0.0725   -0.8493   -2.3967 H   0  0  0  0  0  0  0  0  0  0  0  0
   -1.4741   -0.5535   -1.3789 H   0  0  0  0  0  0  0  0  0  0  0  0
    0.3293   -2.9952   -1.3264 H   0  0  0  0  0  0  0  0  0  0  0  0
   -1.7006   -3.3266   -2.7188 H   0  0  0  0  0  0  0  0  0  0  0  0
   -2.7044   -2.7863   -1.3799 H   0  0  0  0  0  0  0  0  0  0  0  0
  1  2  2  3
  1  8  1  0
  1  9  1  0
  2  3  1  0
  2  7  1  0
  3  4  1  0
  3 10  1  0
  4  5  2  0
  4 11  1  0
  5  6  1  0
  5 12  1  0
  6  7  2  0
  6 13  1  0
  7 14  1  0
 15 16  1  0
 15 23  1  0
 15 24  1  0
 15 25  1  0
 16 17  1  0
 16 26  1  0
 16 27  1  0
 17 18  1  0
 17 28  1  0
 17 29  1  0
 18 19  1  0
 18 22  1  0
 18 30  1  0
 19 20  1  0
 19 31  1  0
 19 32  1  0
 20 21  1  0
 20 33  1  0
 20 34  1  0
 21 22  1  0
 21 35  1  0
 21 36  1  0
 22 23  1  0
 22 37  1  0
 23 38  1  0
 23 39  1  0
M  RAD  1   3   2
M  END
>  <reaction>  (5) 
rxn_613

>  <mol_properties>  (5) 
{"2": {"label": "*4", "atom_type": "Cs"}, "6": {"label": "*3", "atom_type": "Cs"}, "9": {"label": "*0", "atom_type": "Cd"}, "15": {"label": "*1", "atom_type": "Cs"}, "19": {"label": "*2", "atom_type": "H0"}}

>  <type>  (5) 
unop_1

>  <geom_source>  (5) 
Heuristics

$$$$

     RDKit          3D

 39 40  0  0  0  0  0  0  0  0999 V2000
   -0.0960    2.4841   -0.5081 C   0  0  0  0  0  0  0  0  0  0  0  0
    0.2051    2.6753    0.9527 C   0  0  0  0  0  0  0  0  0  0  0  0
    0.6985    3.8867    1.4275 C   0  0  0  0  0  3  0  0  0  0  0  0
    0.9486    4.0759    2.7779 C   0  0  0  0  0  0  0  0  0  0  0  0
    0.7098    3.0511    3.6808 C   0  0  0  0  0  0  0  0  0  0  0  0
    0.2215    1.8378    3.2207 C   0  0  0  0  0  0  0  0  0  0  0  0
   -0.0268    1.6542    1.8692 C   0  0  0  0  0  0  0  0  0  0  0  0
    0.5597    3.0930   -1.1314 H   0  0  0  0  0  0  0  0  0  0  0  0
   -1.1258    2.7743   -0.7319 H   0  0  0  0  0  0  0  0  0  0  0  0
    0.8917    4.6927    0.7285 H   0  0  0  0  0  0  0  0  0  0  0  0
    1.3345    5.0262    3.1254 H   0  0  0  0  0  0  0  0  0  0  0  0
    0.9069    3.1958    4.7354 H   0  0  0  0  0  0  0  0  0  0  0  0
    0.0358    1.0288    3.9163 H   0  0  0  0  0  0  0  0  0  0  0  0
   -0.4052    0.7006    1.5184 H   0  0  0  0  0  0  0  0  0  0  0  0
   -1.2806   -4.0522   -2.1621 C   0  0  0  0  0  0  0  0  0  0  0  0
   -1.2806   -4.0522   -0.6315 C   0  0  0  0  0  0  0  0  0  0  0  0
   -0.1375   -3.2158   -0.0495 C   0  0  0  0  0  0  0  0  0  0  0  0
   -0.1771   -1.8149   -0.6336 C   0  0  0  0  0  0  0  0  0  0  0  0
    0.9419   -0.8411   -0.2782 C   0  0  0  0  0  0  0  0  0  0  0  0
    0.8920    0.2295   -1.3968 C   0  0  0  0  0  0  0  0  0  0  0  0
   -0.0015   -0.3624   -2.5154 C   0  0  0  0  0  0  0  0  0  0  0  0
   -0.1266   -1.8405   -2.1600 C   0  0  0  0  0  0  0  0  0  0  0  0
   -1.2806   -2.6358   -2.7441 C   0  0  0  0  0  0  0  0  0  0  0  0
   -0.3882   -4.5790   -2.5180 H   0  0  0  0  0  0  0  0  0  0  0  0
   -2.1415   -4.6133   -2.5328 H   0  0  0  0  0  0  0  0  0  0  0  0
   -2.2328   -3.6431   -0.2756 H   0  0  0  0  0  0  0  0  0  0  0  0
   -1.2251   -5.0783   -0.2608 H   0  0  0  0  0  0  0  0  0  0  0  0
   -0.2048   -3.1899    1.0413 H   0  0  0  0  0  0  0  0  0  0  0  0
    0.8240   -3.6810   -0.2975 H   0  0  0  0  0  0  0  0  0  0  0  0
   -1.1359   -1.3560   -0.3511 H   0  0  0  0  0  0  0  0  0  0  0  0
    0.8331   -0.4131    0.7193 H   0  0  0  0  0  0  0  0  0  0  0  0
    1.8996   -1.3696   -0.2986 H   0  0  0  0  0  0  0  0  0  0  0  0
    0.3980    1.3567   -0.9525 H   0  0  0  0  0  0  0  0  0  0  0  0
    1.8932    0.4520   -1.7671 H   0  0  0  0  0  0  0  0  0  0  0  0
    0.4081   -0.1975   -3.5128 H   0  0  0  0  0  0  0  0  0  0  0  0
   -0.9935    0.0984   -2.4950 H   0  0  0  0  0  0  0  0  0  0  0  0
    0.8099   -2.3433   -2.4425 H   0  0  0  0  0  0  0  0  0  0  0  0
   -1.2200   -2.6748   -3.8349 H   0  0  0  0  0  0  0  0  0  0  0  0
   -2.2238   -2.1345   -2.4960 H   0  0  0  0  0  0  0  0  0  0  0  0
  1  2  2  3
  1  8  1  0
  1  9  1  0
  2  3  1  0
  2  7  1  0
  3  4  1  0
  3 10  1  0
  4  5  2  0
  4 11  1  0
  5  6  1  0
  5 12  1  0
  6  7  2  0
  6 13  1  0
  7 14  1  0
 15 16  1  0
 15 23  1  0
 15 24  1  0
 15 25  1  0
 16 17  1  0
 16 26  1  0
 16 27  1  0
 17 18  1  0
 17 28  1  0
 17 29  1  0
 18 19  1  0
 18 22  1  0
 18 30  1  0
 19 20  1  0
 19 31  1  0
 19 32  1  0
 20 21  1  0
 20 33  1  0
 20 34  1  0
 21 22  1  0
 21 35  1  0
 21 36  1  0
 22 23  1  0
 22 37  1  0
 23 38  1  0
 23 39  1  0
M  RAD  1   3   2
M  END
>  <reaction>  (6) 
rxn_613

>  <mol_properties>  (6) 
{"2": {"label": "*4", "atom_type": "Cs"}, "6": {"label": "*3", "atom_type": "Cs"}, "9": {"label": "*0", "atom_type": "Cd"}, "15": {"label": "*1", "atom_type": "Cs"}, "19": {"label": "*2", "atom_type": "H0"}}

>  <type>  (6) 
unop_2

>  <geom_source>  (6) 
Heuristics

$$$$

     RDKit          3D

 39 40  0  0  0  0  0  0  0  0999 V2000
   -0.2918    1.7957    1.0184 C   0  0  0  0  0  0  0  0  0  0  0  0
    0.2815    2.9732    0.2794 C   0  0  0  0  0  0  0  0  0  0  0  0
   -0.5467    3.8644   -0.3960 C   0  0  0  0  0  3  0  0  0  0  0  0
   -0.0237    4.9676   -1.0528 C   0  0  0  0  0  0  0  0  0  0  0  0
    1.3434    5.1986   -1.0467 C   0  0  0  0  0  0  0  0  0  0  0  0
    2.1803    4.3166   -0.3804 C   0  0  0  0  0  0  0  0  0  0  0  0
    1.6518    3.2150    0.2747 C   0  0  0  0  0  0  0  0  0  0  0  0
   -1.2130    1.4449    0.5520 H   0  0  0  0  0  0  0  0  0  0  0  0
   -0.5274    2.0647    2.0512 H   0  0  0  0  0  0  0  0  0  0  0  0
   -1.6168    3.6902   -0.4094 H   0  0  0  0  0  0  0  0  0  0  0  0
   -0.6864    5.6473   -1.5740 H   0  0  0  0  0  0  0  0  0  0  0  0
    1.7542    6.0580   -1.5611 H   0  0  0  0  0  0  0  0  0  0  0  0
    3.2502    4.4845   -0.3730 H   0  0  0  0  0  0  0  0  0  0  0  0
    2.3146    2.5289    0.7899 H   0  0  0  0  0  0  0  0  0  0  0  0
   -1.4764   -4.7406   -0.6356 C   0  0  0  0  0  0  0  0  0  0  0  0
   -1.4764   -4.7406    0.8950 C   0  0  0  0  0  0  0  0  0  0  0  0
   -0.3332   -3.9042    1.4770 C   0  0  0  0  0  0  0  0  0  0  0  0
   -0.3729   -2.5032    0.8929 C   0  0  0  0  0  0  0  0  0  0  0  0
    0.7462   -1.5294    1.2483 C   0  0  0  0  0  0  0  0  0  0  0  0
    0.6962   -0.4589    0.1297 C   0  0  0  0  0  0  0  0  0  0  0  0
   -0.1972   -1.0507   -0.9889 C   0  0  0  0  0  0  0  0  0  0  0  0
   -0.3223   -2.5289   -0.6335 C   0  0  0  0  0  0  0  0  0  0  0  0
   -1.4764   -3.3242   -1.2176 C   0  0  0  0  0  0  0  0  0  0  0  0
   -0.5839   -5.2674   -0.9915 H   0  0  0  0  0  0  0  0  0  0  0  0
   -2.3372   -5.3017   -1.0063 H   0  0  0  0  0  0  0  0  0  0  0  0
   -2.4285   -4.3314    1.2509 H   0  0  0  0  0  0  0  0  0  0  0  0
   -1.4208   -5.7667    1.2657 H   0  0  0  0  0  0  0  0  0  0  0  0
   -0.4005   -3.8783    2.5678 H   0  0  0  0  0  0  0  0  0  0  0  0
    0.6283   -4.3693    1.2289 H   0  0  0  0  0  0  0  0  0  0  0  0
   -1.3316   -2.0444    1.1754 H   0  0  0  0  0  0  0  0  0  0  0  0
    0.6374   -1.1015    2.2457 H   0  0  0  0  0  0  0  0  0  0  0  0
    1.7038   -2.0580    1.2279 H   0  0  0  0  0  0  0  0  0  0  0  0
    0.2023    0.6684    0.5740 H   0  0  0  0  0  0  0  0  0  0  0  0
    1.6974   -0.2364   -0.2406 H   0  0  0  0  0  0  0  0  0  0  0  0
    0.2124   -0.8859   -1.9864 H   0  0  0  0  0  0  0  0  0  0  0  0
   -1.1893   -0.5900   -0.9685 H   0  0  0  0  0  0  0  0  0  0  0  0
    0.6141   -3.0317   -0.9160 H   0  0  0  0  0  0  0  0  0  0  0  0
   -1.4157   -3.3631   -2.3085 H   0  0  0  0  0  0  0  0  0  0  0  0
   -2.4195   -2.8228   -0.9696 H   0  0  0  0  0  0  0  0  0  0  0  0
  1  2  2  3
  1  8  1  0
  1  9  1  0
  2  3  1  0
  2  7  1  0
  3  4  1  0
  3 10  1  0
  4  5  2  0
  4 11  1  0
  5  6  1  0
  5 12  1  0
  6  7  2  0
  6 13  1  0
  7 14  1  0
 15 16  1  0
 15 23  1  0
 15 24  1  0
 15 25  1  0
 16 17  1  0
 16 26  1  0
 16 27  1  0
 17 18  1  0
 17 28  1  0
 17 29  1  0
 18 19  1  0
 18 22  1  0
 18 30  1  0
 19 20  1  0
 19 31  1  0
 19 32  1  0
 20 21  1  0
 20 33  1  0
 20 34  1  0
 21 22  1  0
 21 35  1  0
 21 36  1  0
 22 23  1  0
 22 37  1  0
 23 38  1  0
 23 39  1  0
M  RAD  1   3   2
M  END
>  <reaction>  (7) 
rxn_613

>  <mol_properties>  (7) 
{"2": {"label": "*4", "atom_type": "Cs"}, "6": {"label": "*3", "atom_type": "Cs"}, "9": {"label": "*0", "atom_type": "Cd"}, "15": {"label": "*1", "atom_type": "Cs"}, "19": {"label": "*2", "atom_type": "H0"}}

>  <type>  (7) 
unop_3

>  <geom_source>  (7) 
Heuristics

$$$$

     RDKit          3D

 39 40  0  0  0  0  0  0  0  0999 V2000
    1.0850    2.7468    0.1624 C   0  0  0  0  0  0  0  0  0  0  0  0
   -0.3150    2.5643    0.6798 C   0  0  0  0  0  0  0  0  0  0  0  0
   -1.0506    3.6491    1.1472 C   0  0  0  0  0  3  0  0  0  0  0  0
   -2.3522    3.4889    1.5967 C   0  0  0  0  0  0  0  0  0  0  0  0
   -2.9428    2.2345    1.5878 C   0  0  0  0  0  0  0  0  0  0  0  0
   -2.2199    1.1444    1.1278 C   0  0  0  0  0  0  0  0  0  0  0  0
   -0.9187    1.3106    0.6795 C   0  0  0  0  0  0  0  0  0  0  0  0
    1.5864    3.5781    0.6592 H   0  0  0  0  0  0  0  0  0  0  0  0
    1.0765    2.9607   -0.9095 H   0  0  0  0  0  0  0  0  0  0  0  0
   -0.5960    4.6334    1.1614 H   0  0  0  0  0  0  0  0  0  0  0  0
   -2.9058    4.3466    1.9582 H   0  0  0  0  0  0  0  0  0  0  0  0
   -3.9582    2.1066    1.9408 H   0  0  0  0  0  0  0  0  0  0  0  0
   -2.6695    0.1592    1.1207 H   0  0  0  0  0  0  0  0  0  0  0  0
   -0.3601    0.4516    0.3250 H   0  0  0  0  0  0  0  0  0  0  0  0
   -0.0995   -3.7895   -1.4916 C   0  0  0  0  0  0  0  0  0  0  0  0
   -0.0995   -3.7895    0.0390 C   0  0  0  0  0  0  0  0  0  0  0  0
    1.0436   -2.9531    0.6210 C   0  0  0  0  0  0  0  0  0  0  0  0
    1.0040   -1.5521    0.0369 C   0  0  0  0  0  0  0  0  0  0  0  0
    2.1230   -0.5784    0.3923 C   0  0  0  0  0  0  0  0  0  0  0  0
    2.0731    0.4922   -0.7263 C   0  0  0  0  0  0  0  0  0  0  0  0
    1.1796   -0.0996   -1.8449 C   0  0  0  0  0  0  0  0  0  0  0  0
    1.0545   -1.5778   -1.4895 C   0  0  0  0  0  0  0  0  0  0  0  0
   -0.0995   -2.3731   -2.0736 C   0  0  0  0  0  0  0  0  0  0  0  0
    0.7929   -4.3163   -1.8475 H   0  0  0  0  0  0  0  0  0  0  0  0
   -0.9604   -4.3506   -1.8623 H   0  0  0  0  0  0  0  0  0  0  0  0
   -1.0517   -3.3804    0.3949 H   0  0  0  0  0  0  0  0  0  0  0  0
   -0.0440   -4.8156    0.4097 H   0  0  0  0  0  0  0  0  0  0  0  0
    0.9763   -2.9272    1.7118 H   0  0  0  0  0  0  0  0  0  0  0  0
    2.0051   -3.4183    0.3729 H   0  0  0  0  0  0  0  0  0  0  0  0
    0.0452   -1.0933    0.3194 H   0  0  0  0  0  0  0  0  0  0  0  0
    2.0142   -0.1504    1.3897 H   0  0  0  0  0  0  0  0  0  0  0  0
    3.0807   -1.1069    0.3719 H   0  0  0  0  0  0  0  0  0  0  0  0
    1.5791    1.6195   -0.2820 H   0  0  0  0  0  0  0  0  0  0  0  0
    3.0743    0.7147   -1.0966 H   0  0  0  0  0  0  0  0  0  0  0  0
    1.5892    0.0652   -2.8424 H   0  0  0  0  0  0  0  0  0  0  0  0
    0.1875    0.3611   -1.8245 H   0  0  0  0  0  0  0  0  0  0  0  0
    1.9910   -2.0806   -1.7720 H   0  0  0  0  0  0  0  0  0  0  0  0
   -0.0389   -2.4120   -3.1644 H   0  0  0  0  0  0  0  0  0  0  0  0
   -1.0427   -1.8718   -1.8256 H   0  0  0  0  0  0  0  0  0  0  0  0
  1  2  2  3
  1  8  1  0
  1  9  1  0
  2  3  1  0
  2  7  1  0
  3  4  1  0
  3 10  1  0
  4  5  2  0
  4 11  1  0
  5  6  1  0
  5 12  1  0
  6  7  2  0
  6 13  1  0
  7 14  1  0
 15 16  1  0
 15 23  1  0
 15 24  1  0
 15 25  1  0
 16 17  1  0
 16 26  1  0
 16 27  1  0
 17 18  1  0
 17 28  1  0
 17 29  1  0
 18 19  1  0
 18 22  1  0
 18 30  1  0
 19 20  1  0
 19 31  1  0
 19 32  1  0
 20 21  1  0
 20 33  1  0
 20 34  1  0
 21 22  1  0
 21 35  1  0
 21 36  1  0
 22 23  1  0
 22 37  1  0
 23 38  1  0
 23 39  1  0
M  RAD  1   3   2
M  END
>  <reaction>  (8) 
rxn_613

>  <mol_properties>  (8) 
{"2": {"label": "*4", "atom_type": "Cs"}, "6": {"label": "*3", "atom_type": "Cs"}, "9": {"label": "*0", "atom_type": "Cd"}, "15": {"label": "*1", "atom_type": "Cs"}, "19": {"label": "*2", "atom_type": "H0"}}

>  <type>  (8) 
unop_4

>  <geom_source>  (8) 
Heuristics

$$$$

     RDKit          3D

 39 40  0  0  0  0  0  0  0  0999 V2000
    0.1332    1.8902    1.2600 C   0  0  0  0  0  0  0  0  0  0  0  0
    0.0838    2.9309    0.1758 C   0  0  0  0  0  0  0  0  0  0  0  0
   -0.8811    3.9334    0.1917 C   0  0  0  0  0  3  0  0  0  0  0  0
   -0.9106    4.9118   -0.7900 C   0  0  0  0  0  0  0  0  0  0  0  0
    0.0281    4.9034   -1.8104 C   0  0  0  0  0  0  0  0  0  0  0  0
    0.9930    3.9082   -1.8401 C   0  0  0  0  0  0  0  0  0  0  0  0
    1.0177    2.9323   -0.8558 C   0  0  0  0  0  0  0  0  0  0  0  0
   -0.8598    1.6913    1.6646 H   0  0  0  0  0  0  0  0  0  0  0  0
    0.7652    2.2233    2.0873 H   0  0  0  0  0  0  0  0  0  0  0  0
   -1.6216    3.9462    0.9836 H   0  0  0  0  0  0  0  0  0  0  0  0
   -1.6718    5.6816   -0.7594 H   0  0  0  0  0  0  0  0  0  0  0  0
    0.0053    5.6649   -2.5795 H   0  0  0  0  0  0  0  0  0  0  0  0
    1.7283    3.8890   -2.6350 H   0  0  0  0  0  0  0  0  0  0  0  0
    1.7739    2.1560   -0.8895 H   0  0  0  0  0  0  0  0  0  0  0  0
   -1.0514   -4.6461   -0.3939 C   0  0  0  0  0  0  0  0  0  0  0  0
   -1.0514   -4.6461    1.1367 C   0  0  0  0  0  0  0  0  0  0  0  0
    0.0917   -3.8097    1.7187 C   0  0  0  0  0  0  0  0  0  0  0  0
    0.0521   -2.4088    1.1345 C   0  0  0  0  0  0  0  0  0  0  0  0
    1.1712   -1.4350    1.4900 C   0  0  0  0  0  0  0  0  0  0  0  0
    1.1212   -0.3644    0.3714 C   0  0  0  0  0  0  0  0  0  0  0  0
    0.2277   -0.9563   -0.7473 C   0  0  0  0  0  0  0  0  0  0  0  0
    0.1027   -2.4344   -0.3918 C   0  0  0  0  0  0  0  0  0  0  0  0
   -1.0514   -3.2297   -0.9759 C   0  0  0  0  0  0  0  0  0  0  0  0
   -0.1589   -5.1730   -0.7499 H   0  0  0  0  0  0  0  0  0  0  0  0
   -1.9123   -5.2072   -0.7647 H   0  0  0  0  0  0  0  0  0  0  0  0
   -2.0035   -4.2370    1.4926 H   0  0  0  0  0  0  0  0  0  0  0  0
   -0.9958   -5.6722    1.5074 H   0  0  0  0  0  0  0  0  0  0  0  0
    0.0245   -3.7838    2.8095 H   0  0  0  0  0  0  0  0  0  0  0  0
    1.0533   -4.2749    1.4706 H   0  0  0  0  0  0  0  0  0  0  0  0
   -0.9066   -1.9499    1.4171 H   0  0  0  0  0  0  0  0  0  0  0  0
    1.0624   -1.0070    2.4874 H   0  0  0  0  0  0  0  0  0  0  0  0
    2.1288   -1.9635    1.4696 H   0  0  0  0  0  0  0  0  0  0  0  0
    0.6272    0.7628    0.8157 H   0  0  0  0  0  0  0  0  0  0  0  0
    2.1224   -0.1420    0.0011 H   0  0  0  0  0  0  0  0  0  0  0  0
    0.6374   -0.7914   -1.7447 H   0  0  0  0  0  0  0  0  0  0  0  0
   -0.7643   -0.4955   -0.7268 H   0  0  0  0  0  0  0  0  0  0  0  0
    1.0391   -2.9372   -0.6744 H   0  0  0  0  0  0  0  0  0  0  0  0
   -0.9907   -3.2687   -2.0668 H   0  0  0  0  0  0  0  0  0  0  0  0
   -1.9945   -2.7284   -0.7279 H   0  0  0  0  0  0  0  0  0  0  0  0
  1  2  2  3
  1  8  1  0
  1  9  1  0
  2  3  1  0
  2  7  1  0
  3  4  1  0
  3 10  1  0
  4  5  2  0
  4 11  1  0
  5  6  1  0
  5 12  1  0
  6  7  2  0
  6 13  1  0
  7 14  1  0
 15 16  1  0
 15 23  1  0
 15 24  1  0
 15 25  1  0
 16 17  1  0
 16 26  1  0
 16 27  1  0
 17 18  1  0
 17 28  1  0
 17 29  1  0
 18 19  1  0
 18 22  1  0
 18 30  1  0
 19 20  1  0
 19 31  1  0
 19 32  1  0
 20 21  1  0
 20 33  1  0
 20 34  1  0
 21 22  1  0
 21 35  1  0
 21 36  1  0
 22 23  1  0
 22 37  1  0
 23 38  1  0
 23 39  1  0
M  RAD  1   3   2
M  END
>  <reaction>  (9) 
rxn_613

>  <mol_properties>  (9) 
{"2": {"label": "*4", "atom_type": "Cs"}, "6": {"label": "*3", "atom_type": "Cs"}, "9": {"label": "*0", "atom_type": "Cd"}, "15": {"label": "*1", "atom_type": "Cs"}, "19": {"label": "*2", "atom_type": "H0"}}

>  <type>  (9) 
unop_5

>  <geom_source>  (9) 
Heuristics

$$$$

     RDKit          3D

 39 40  0  0  0  0  0  0  0  0999 V2000
    1.1442    2.5870    0.6385 C   0  0  0  0  0  0  0  0  0  0  0  0
   -0.3498    2.6321    0.4740 C   0  0  0  0  0  0  0  0  0  0  0  0
   -1.0553    3.8140    0.6783 C   0  0  0  0  0  3  0  0  0  0  0  0
   -2.4289    3.8660    0.4981 C   0  0  0  0  0  0  0  0  0  0  0  0
   -3.1240    2.7309    0.1099 C   0  0  0  0  0  0  0  0  0  0  0  0
   -2.4338    1.5458   -0.0938 C   0  0  0  0  0  0  0  0  0  0  0  0
   -1.0602    1.4996    0.0880 C   0  0  0  0  0  0  0  0  0  0  0  0
    1.4833    3.3081    1.3830 H   0  0  0  0  0  0  0  0  0  0  0  0
    1.6444    2.8262   -0.3034 H   0  0  0  0  0  0  0  0  0  0  0  0
   -0.5209    4.7060    0.9855 H   0  0  0  0  0  0  0  0  0  0  0  0
   -2.9583    4.7960    0.6646 H   0  0  0  0  0  0  0  0  0  0  0  0
   -4.1970    2.7686   -0.0289 H   0  0  0  0  0  0  0  0  0  0  0  0
   -2.9671    0.6518   -0.3925 H   0  0  0  0  0  0  0  0  0  0  0  0
   -0.5297    0.5674   -0.0702 H   0  0  0  0  0  0  0  0  0  0  0  0
   -0.0404   -3.9494   -1.0154 C   0  0  0  0  0  0  0  0  0  0  0  0
   -0.0404   -3.9494    0.5152 C   0  0  0  0  0  0  0  0  0  0  0  0
    1.1027   -3.1130    1.0972 C   0  0  0  0  0  0  0  0  0  0  0  0
    1.0631   -1.7120    0.5131 C   0  0  0  0  0  0  0  0  0  0  0  0
    2.1822   -0.7382    0.8685 C   0  0  0  0  0  0  0  0  0  0  0  0
    2.1322    0.3324   -0.2501 C   0  0  0  0  0  0  0  0  0  0  0  0
    1.2387   -0.2595   -1.3688 C   0  0  0  0  0  0  0  0  0  0  0  0
    1.1137   -1.7376   -1.0133 C   0  0  0  0  0  0  0  0  0  0  0  0
   -0.0404   -2.5329   -1.5974 C   0  0  0  0  0  0  0  0  0  0  0  0
    0.8521   -4.4762   -1.3714 H   0  0  0  0  0  0  0  0  0  0  0  0
   -0.9013   -4.5104   -1.3862 H   0  0  0  0  0  0  0  0  0  0  0  0
   -0.9925   -3.5402    0.8711 H   0  0  0  0  0  0  0  0  0  0  0  0
    0.0152   -4.9754    0.8859 H   0  0  0  0  0  0  0  0  0  0  0  0
    1.0355   -3.0870    2.1880 H   0  0  0  0  0  0  0  0  0  0  0  0
    2.0643   -3.5781    0.8491 H   0  0  0  0  0  0  0  0  0  0  0  0
    0.1044   -1.2531    0.7956 H   0  0  0  0  0  0  0  0  0  0  0  0
    2.0734   -0.3103    1.8659 H   0  0  0  0  0  0  0  0  0  0  0  0
    3.1398   -1.2667    0.8481 H   0  0  0  0  0  0  0  0  0  0  0  0
    1.6382    1.4596    0.1942 H   0  0  0  0  0  0  0  0  0  0  0  0
    3.1334    0.5548   -0.6204 H   0  0  0  0  0  0  0  0  0  0  0  0
    1.6484   -0.0946   -2.3662 H   0  0  0  0  0  0  0  0  0  0  0  0
    0.2467    0.2013   -1.3483 H   0  0  0  0  0  0  0  0  0  0  0  0
    2.0501   -2.2405   -1.2958 H   0  0  0  0  0  0  0  0  0  0  0  0
    0.0203   -2.5719   -2.6883 H   0  0  0  0  0  0  0  0  0  0  0  0
   -0.9835   -2.0316   -1.3494 H   0  0  0  0  0  0  0  0  0  0  0  0
  1  2  2  3
  1  8  1  0
  1  9  1  0
  2  3  1  0
  2  7  1  0
  3  4  1  0
  3 10  1  0
  4  5  2  0
  4 11  1  0
  5  6  1  0
  5 12  1  0
  6  7  2  0
  6 13  1  0
  7 14  1  0
 15 16  1  0
 15 23  1  0
 15 24  1  0
 15 25  1  0
 16 17  1  0
 16 26  1  0
 16 27  1  0
 17 18  1  0
 17 28  1  0
 17 29  1  0
 18 19  1  0
 18 22  1  0
 18 30  1  0
 19 20  1  0
 19 31  1  0
 19 32  1  0
 20 21  1  0
 20 33  1  0
 20 34  1  0
 21 22  1  0
 21 35  1  0
 21 36  1  0
 22 23  1  0
 22 37  1  0
 23 38  1  0
 23 39  1  0
M  RAD  1   3   2
M  END
>  <reaction>  (10) 
rxn_613

>  <mol_properties>  (10) 
{"2": {"label": "*4", "atom_type": "Cs"}, "6": {"label": "*3", "atom_type": "Cs"}, "9": {"label": "*0", "atom_type": "Cd"}, "15": {"label": "*1", "atom_type": "Cs"}, "19": {"label": "*2", "atom_type": "H0"}}

>  <type>  (10) 
unop_6

>  <geom_source>  (10) 
Heuristics

$$$$

     RDKit          3D

 39 40  0  0  0  0  0  0  0  0999 V2000
    0.9632    2.3474    1.0453 C   0  0  0  0  0  0  0  0  0  0  0  0
   -0.2798    2.7344    0.2927 C   0  0  0  0  0  0  0  0  0  0  0  0
   -0.8408    3.9990    0.4426 C   0  0  0  0  0  3  0  0  0  0  0  0
   -1.9692    4.3690   -0.2726 C   0  0  0  0  0  0  0  0  0  0  0  0
   -2.5598    3.4756   -1.1533 C   0  0  0  0  0  0  0  0  0  0  0  0
   -2.0131    2.2111   -1.3096 C   0  0  0  0  0  0  0  0  0  0  0  0
   -0.8845    1.8465   -0.5918 C   0  0  0  0  0  0  0  0  0  0  0  0
    1.0253    2.8666    2.0023 H   0  0  0  0  0  0  0  0  0  0  0  0
    1.8579    2.6045    0.4726 H   0  0  0  0  0  0  0  0  0  0  0  0
   -0.3881    4.7032    1.1316 H   0  0  0  0  0  0  0  0  0  0  0  0
   -2.3904    5.3577   -0.1390 H   0  0  0  0  0  0  0  0  0  0  0  0
   -3.4426    3.7615   -1.7109 H   0  0  0  0  0  0  0  0  0  0  0  0
   -2.4688    1.5035   -1.9912 H   0  0  0  0  0  0  0  0  0  0  0  0
   -0.4663    0.8541   -0.7181 H   0  0  0  0  0  0  0  0  0  0  0  0
   -0.2214   -4.1889   -0.6086 C   0  0  0  0  0  0  0  0  0  0  0  0
   -0.2214   -4.1889    0.9220 C   0  0  0  0  0  0  0  0  0  0  0  0
    0.9217   -3.3525    1.5039 C   0  0  0  0  0  0  0  0  0  0  0  0
    0.8821   -1.9515    0.9198 C   0  0  0  0  0  0  0  0  0  0  0  0
    2.0012   -0.9777    1.2753 C   0  0  0  0  0  0  0  0  0  0  0  0
    1.9512    0.0928    0.1567 C   0  0  0  0  0  0  0  0  0  0  0  0
    1.0577   -0.4990   -0.9620 C   0  0  0  0  0  0  0  0  0  0  0  0
    0.9326   -1.9772   -0.6065 C   0  0  0  0  0  0  0  0  0  0  0  0
   -0.2214   -2.7725   -1.1906 C   0  0  0  0  0  0  0  0  0  0  0  0
    0.6710   -4.7157   -0.9646 H   0  0  0  0  0  0  0  0  0  0  0  0
   -1.0823   -4.7500   -0.9794 H   0  0  0  0  0  0  0  0  0  0  0  0
   -1.1735   -3.7798    1.2779 H   0  0  0  0  0  0  0  0  0  0  0  0
   -0.1659   -5.2150    1.2927 H   0  0  0  0  0  0  0  0  0  0  0  0
    0.8545   -3.3266    2.5948 H   0  0  0  0  0  0  0  0  0  0  0  0
    1.8832   -3.8176    1.2559 H   0  0  0  0  0  0  0  0  0  0  0  0
   -0.0767   -1.4927    1.2024 H   0  0  0  0  0  0  0  0  0  0  0  0
    1.8923   -0.5498    2.2727 H   0  0  0  0  0  0  0  0  0  0  0  0
    2.9588   -1.5063    1.2549 H   0  0  0  0  0  0  0  0  0  0  0  0
    1.4572    1.2201    0.6010 H   0  0  0  0  0  0  0  0  0  0  0  0
    2.9524    0.3153   -0.2136 H   0  0  0  0  0  0  0  0  0  0  0  0
    1.4673   -0.3342   -1.9594 H   0  0  0  0  0  0  0  0  0  0  0  0
    0.0657   -0.0383   -0.9415 H   0  0  0  0  0  0  0  0  0  0  0  0
    1.8691   -2.4800   -0.8891 H   0  0  0  0  0  0  0  0  0  0  0  0
   -0.1608   -2.8114   -2.2815 H   0  0  0  0  0  0  0  0  0  0  0  0
   -1.1646   -2.2711   -0.9426 H   0  0  0  0  0  0  0  0  0  0  0  0
  1  2  2  3
  1  8  1  0
  1  9  1  0
  2  3  1  0
  2  7  1  0
  3  4  1  0
  3 10  1  0
  4  5  2  0
  4 11  1  0
  5  6  1  0
  5 12  1  0
  6  7  2  0
  6 13  1  0
  7 14  1  0
 15 16  1  0
 15 23  1  0
 15 24  1  0
 15 25  1  0
 16 17  1  0
 16 26  1  0
 16 27  1  0
 17 18  1  0
 17 28  1  0
 17 29  1  0
 18 19  1  0
 18 22  1  0
 18 30  1  0
 19 20  1  0
 19 31  1  0
 19 32  1  0
 20 21  1  0
 20 33  1  0
 20 34  1  0
 21 22  1  0
 21 35  1  0
 21 36  1  0
 22 23  1  0
 22 37  1  0
 23 38  1  0
 23 39  1  0
M  RAD  1   3   2
M  END
>  <reaction>  (11) 
rxn_613

>  <mol_properties>  (11) 
{"2": {"label": "*4", "atom_type": "Cs"}, "6": {"label": "*3", "atom_type": "Cs"}, "9": {"label": "*0", "atom_type": "Cd"}, "15": {"label": "*1", "atom_type": "Cs"}, "19": {"label": "*2", "atom_type": "H0"}}

>  <type>  (11) 
unop_7

>  <geom_source>  (11) 
Heuristics

$$$$

     RDKit          3D

 39 40  0  0  0  0  0  0  0  0999 V2000
   -0.6415    1.9905    0.1345 C   0  0  0  0  0  0  0  0  0  0  0  0
    0.4394    2.8879    0.6705 C   0  0  0  0  0  0  0  0  0  0  0  0
    0.7743    4.0706    0.0184 C   0  0  0  0  0  3  0  0  0  0  0  0
    1.7495    4.9148    0.5265 C   0  0  0  0  0  0  0  0  0  0  0  0
    2.4107    4.5883    1.7006 C   0  0  0  0  0  0  0  0  0  0  0  0
    2.0892    3.4111    2.3587 C   0  0  0  0  0  0  0  0  0  0  0  0
    1.1132    2.5706    1.8460 C   0  0  0  0  0  0  0  0  0  0  0  0
   -0.7109    2.0581   -0.9517 H   0  0  0  0  0  0  0  0  0  0  0  0
   -1.6152    2.2702    0.5447 H   0  0  0  0  0  0  0  0  0  0  0  0
    0.2652    4.3326   -0.9024 H   0  0  0  0  0  0  0  0  0  0  0  0
    1.9958    5.8295    0.0014 H   0  0  0  0  0  0  0  0  0  0  0  0
    3.1744    5.2448    2.0978 H   0  0  0  0  0  0  0  0  0  0  0  0
    2.6026    3.1436    3.2740 H   0  0  0  0  0  0  0  0  0  0  0  0
    0.8712    1.6504    2.3658 H   0  0  0  0  0  0  0  0  0  0  0  0
   -1.8261   -4.5459   -1.5195 C   0  0  0  0  0  0  0  0  0  0  0  0
   -1.8261   -4.5459    0.0111 C   0  0  0  0  0  0  0  0  0  0  0  0
   -0.6830   -3.7095    0.5931 C   0  0  0  0  0  0  0  0  0  0  0  0
   -0.7226   -2.3085    0.0090 C   0  0  0  0  0  0  0  0  0  0  0  0
    0.3965   -1.3347    0.3644 C   0  0  0  0  0  0  0  0  0  0  0  0
    0.3465   -0.2642   -0.7542 C   0  0  0  0  0  0  0  0  0  0  0  0
   -0.5470   -0.8560   -1.8728 C   0  0  0  0  0  0  0  0  0  0  0  0
   -0.6721   -2.3341   -1.5174 C   0  0  0  0  0  0  0  0  0  0  0  0
   -1.8261   -3.1294   -2.1015 C   0  0  0  0  0  0  0  0  0  0  0  0
   -0.9337   -5.0727   -1.8754 H   0  0  0  0  0  0  0  0  0  0  0  0
   -2.6870   -5.1070   -1.8902 H   0  0  0  0  0  0  0  0  0  0  0  0
   -2.7782   -4.1367    0.3670 H   0  0  0  0  0  0  0  0  0  0  0  0
   -1.7706   -5.5720    0.3818 H   0  0  0  0  0  0  0  0  0  0  0  0
   -0.7502   -3.6835    1.6839 H   0  0  0  0  0  0  0  0  0  0  0  0
    0.2785   -4.1746    0.3450 H   0  0  0  0  0  0  0  0  0  0  0  0
   -1.6814   -1.8497    0.2915 H   0  0  0  0  0  0  0  0  0  0  0  0
    0.2876   -0.9068    1.3618 H   0  0  0  0  0  0  0  0  0  0  0  0
    1.3541   -1.8633    0.3440 H   0  0  0  0  0  0  0  0  0  0  0  0
   -0.1475    0.8631   -0.3099 H   0  0  0  0  0  0  0  0  0  0  0  0
    1.3477   -0.0417   -1.1245 H   0  0  0  0  0  0  0  0  0  0  0  0
   -0.1374   -0.6911   -2.8703 H   0  0  0  0  0  0  0  0  0  0  0  0
   -1.5390   -0.3953   -1.8524 H   0  0  0  0  0  0  0  0  0  0  0  0
    0.2644   -2.8370   -1.7999 H   0  0  0  0  0  0  0  0  0  0  0  0
   -1.7655   -3.1684   -3.1923 H   0  0  0  0  0  0  0  0  0  0  0  0
   -2.7693   -2.6281   -1.8534 H   0  0  0  0  0  0  0  0  0  0  0  0
  1  2  2  3
  1  8  1  0
  1  9  1  0
  2  3  1  0
  2  7  1  0
  3  4  1  0
  3 10  1  0
  4  5  2  0
  4 11  1  0
  5  6  1  0
  5 12  1  0
  6  7  2  0
  6 13  1  0
  7 14  1  0
 15 16  1  0
 15 23  1  0
 15 24  1  0
 15 25  1  0
 16 17  1  0
 16 26  1  0
 16 27  1  0
 17 18  1  0
 17 28  1  0
 17 29  1  0
 18 19  1  0
 18 22  1  0
 18 30  1  0
 19 20  1  0
 19 31  1  0
 19 32  1  0
 20 21  1  0
 20 33  1  0
 20 34  1  0
 21 22  1  0
 21 35  1  0
 21 36  1  0
 22 23  1  0
 22 37  1  0
 23 38  1  0
 23 39  1  0
M  RAD  1   3   2
M  END
>  <reaction>  (12) 
rxn_613

>  <mol_properties>  (12) 
{"2": {"label": "*4", "atom_type": "Cs"}, "6": {"label": "*3", "atom_type": "Cs"}, "9": {"label": "*0", "atom_type": "Cd"}, "15": {"label": "*1", "atom_type": "Cs"}, "19": {"label": "*2", "atom_type": "H0"}}

>  <type>  (12) 
unop_8

>  <geom_source>  (12) 
Heuristics

$$$$

     RDKit          3D

 39 40  0  0  0  0  0  0  0  0999 V2000
    0.8012    2.7838   -0.2551 C   0  0  0  0  0  0  0  0  0  0  0  0
   -0.1851    2.5488    0.8554 C   0  0  0  0  0  0  0  0  0  0  0  0
   -0.6614    3.6071    1.6232 C   0  0  0  0  0  3  0  0  0  0  0  0
   -1.5935    3.3977    2.6278 C   0  0  0  0  0  0  0  0  0  0  0  0
   -2.0663    2.1198    2.8840 C   0  0  0  0  0  0  0  0  0  0  0  0
   -1.5975    1.0558    2.1288 C   0  0  0  0  0  0  0  0  0  0  0  0
   -0.6654    1.2711    1.1254 C   0  0  0  0  0  0  0  0  0  0  0  0
    1.4413    3.6407   -0.0425 H   0  0  0  0  0  0  0  0  0  0  0  0
    0.2832    2.9852   -1.1963 H   0  0  0  0  0  0  0  0  0  0  0  0
   -0.2948    4.6096    1.4326 H   0  0  0  0  0  0  0  0  0  0  0  0
   -1.9492    4.2356    3.2146 H   0  0  0  0  0  0  0  0  0  0  0  0
   -2.7922    1.9536    3.6698 H   0  0  0  0  0  0  0  0  0  0  0  0
   -1.9563    0.0526    2.3233 H   0  0  0  0  0  0  0  0  0  0  0  0
   -0.3019    0.4322    0.5425 H   0  0  0  0  0  0  0  0  0  0  0  0
   -0.3833   -3.7526   -1.9091 C   0  0  0  0  0  0  0  0  0  0  0  0
   -0.3833   -3.7526   -0.3785 C   0  0  0  0  0  0  0  0  0  0  0  0
    0.7598   -2.9162    0.2035 C   0  0  0  0  0  0  0  0  0  0  0  0
    0.7202   -1.5152   -0.3806 C   0  0  0  0  0  0  0  0  0  0  0  0
    1.8392   -0.5414   -0.0251 C   0  0  0  0  0  0  0  0  0  0  0  0
    1.7892    0.5291   -1.1438 C   0  0  0  0  0  0  0  0  0  0  0  0
    0.8958   -0.0627   -2.2624 C   0  0  0  0  0  0  0  0  0  0  0  0
    0.7707   -1.5408   -1.9069 C   0  0  0  0  0  0  0  0  0  0  0  0
   -0.3833   -2.3362   -2.4911 C   0  0  0  0  0  0  0  0  0  0  0  0
    0.5091   -4.2794   -2.2650 H   0  0  0  0  0  0  0  0  0  0  0  0
   -1.2442   -4.3137   -2.2798 H   0  0  0  0  0  0  0  0  0  0  0  0
   -1.3355   -3.3434   -0.0225 H   0  0  0  0  0  0  0  0  0  0  0  0
   -0.3278   -4.7787   -0.0077 H   0  0  0  0  0  0  0  0  0  0  0  0
    0.6925   -2.8902    1.2944 H   0  0  0  0  0  0  0  0  0  0  0  0
    1.7213   -3.3813   -0.0445 H   0  0  0  0  0  0  0  0  0  0  0  0
   -0.2386   -1.0564   -0.0980 H   0  0  0  0  0  0  0  0  0  0  0  0
    1.7304   -0.1135    0.9723 H   0  0  0  0  0  0  0  0  0  0  0  0
    2.7968   -1.0700   -0.0456 H   0  0  0  0  0  0  0  0  0  0  0  0
    1.2953    1.6564   -0.6994 H   0  0  0  0  0  0  0  0  0  0  0  0
    2.7904    0.7516   -1.5140 H   0  0  0  0  0  0  0  0  0  0  0  0
    1.3054    0.1022   -3.2598 H   0  0  0  0  0  0  0  0  0  0  0  0
   -0.0963    0.3980   -2.2420 H   0  0  0  0  0  0  0  0  0  0  0  0
    1.7071   -2.0437   -2.1895 H   0  0  0  0  0  0  0  0  0  0  0  0
   -0.3227   -2.3751   -3.5819 H   0  0  0  0  0  0  0  0  0  0  0  0
   -1.3265   -1.8348   -2.2430 H   0  0  0  0  0  0  0  0  0  0  0  0
  1  2  2  3
  1  8  1  0
  1  9  1  0
  2  3  1  0
  2  7  1  0
  3  4  1  0
  3 10  1  0
  4  5  2  0
  4 11  1  0
  5  6  1  0
  5 12  1  0
  6  7  2  0
  6 13  1  0
  7 14  1  0
 15 16  1  0
 15 23  1  0
 15 24  1  0
 15 25  1  0
 16 17  1  0
 16 26  1  0
 16 27  1  0
 17 18  1  0
 17 28  1  0
 17 29  1  0
 18 19  1  0
 18 22  1  0
 18 30  1  0
 19 20  1  0
 19 31  1  0
 19 32  1  0
 20 21  1  0
 20 33  1  0
 20 34  1  0
 21 22  1  0
 21 35  1  0
 21 36  1  0
 22 23  1  0
 22 37  1  0
 23 38  1  0
 23 39  1  0
M  RAD  1   3   2
M  END
>  <reaction>  (13) 
rxn_613

>  <mol_properties>  (13) 
{"2": {"label": "*4", "atom_type": "Cs"}, "6": {"label": "*3", "atom_type": "Cs"}, "9": {"label": "*0", "atom_type": "Cd"}, "15": {"label": "*1", "atom_type": "Cs"}, "19": {"label": "*2", "atom_type": "H0"}}

>  <type>  (13) 
unop_9

>  <geom_source>  (13) 
Heuristics

$$$$

     RDKit          3D

 39 40  0  0  0  0  0  0  0  0999 V2000
   -0.4661    2.2289   -0.2747 C   0  0  0  0  0  0  0  0  0  0  0  0
    0.3639    2.7845    0.8494 C   0  0  0  0  0  0  0  0  0  0  0  0
    0.9744    4.0300    0.7383 C   0  0  0  0  0  3  0  0  0  0  0  0
    1.7151    4.5580    1.7844 C   0  0  0  0  0  0  0  0  0  0  0  0
    1.8600    3.8453    2.9648 C   0  0  0  0  0  0  0  0  0  0  0  0
    1.2598    2.6015    3.0876 C   0  0  0  0  0  0  0  0  0  0  0  0
    0.5202    2.0783    2.0382 C   0  0  0  0  0  0  0  0  0  0  0  0
   -0.1100    2.5824   -1.2430 H   0  0  0  0  0  0  0  0  0  0  0  0
   -1.5095    2.5384   -0.1747 H   0  0  0  0  0  0  0  0  0  0  0  0
    0.8697    4.5933   -0.1823 H   0  0  0  0  0  0  0  0  0  0  0  0
    2.1835    5.5284    1.6756 H   0  0  0  0  0  0  0  0  0  0  0  0
    2.4402    4.2545    3.7820 H   0  0  0  0  0  0  0  0  0  0  0  0
    1.3702    2.0338    4.0032 H   0  0  0  0  0  0  0  0  0  0  0  0
    0.0575    1.1033    2.1422 H   0  0  0  0  0  0  0  0  0  0  0  0
   -1.6506   -4.3074   -1.9287 C   0  0  0  0  0  0  0  0  0  0  0  0
   -1.6506   -4.3074   -0.3981 C   0  0  0  0  0  0  0  0  0  0  0  0
   -0.5075   -3.4710    0.1839 C   0  0  0  0  0  0  0  0  0  0  0  0
   -0.5471   -2.0701   -0.4002 C   0  0  0  0  0  0  0  0  0  0  0  0
    0.5719   -1.0963   -0.0448 C   0  0  0  0  0  0  0  0  0  0  0  0
    0.5220   -0.0257   -1.1634 C   0  0  0  0  0  0  0  0  0  0  0  0
   -0.3715   -0.6176   -2.2821 C   0  0  0  0  0  0  0  0  0  0  0  0
   -0.4966   -2.0957   -1.9266 C   0  0  0  0  0  0  0  0  0  0  0  0
   -1.6506   -2.8910   -2.5107 C   0  0  0  0  0  0  0  0  0  0  0  0
   -0.7582   -4.8342   -2.2847 H   0  0  0  0  0  0  0  0  0  0  0  0
   -2.5115   -4.8685   -2.2994 H   0  0  0  0  0  0  0  0  0  0  0  0
   -2.6028   -3.8983   -0.0422 H   0  0  0  0  0  0  0  0  0  0  0  0
   -1.5951   -5.3335   -0.0274 H   0  0  0  0  0  0  0  0  0  0  0  0
   -0.5748   -3.4451    1.2747 H   0  0  0  0  0  0  0  0  0  0  0  0
    0.4540   -3.9362   -0.0642 H   0  0  0  0  0  0  0  0  0  0  0  0
   -1.5059   -1.6112   -0.1177 H   0  0  0  0  0  0  0  0  0  0  0  0
    0.4631   -0.6683    0.9526 H   0  0  0  0  0  0  0  0  0  0  0  0
    1.5296   -1.6248   -0.0652 H   0  0  0  0  0  0  0  0  0  0  0  0
    0.0280    1.1015   -0.7191 H   0  0  0  0  0  0  0  0  0  0  0  0
    1.5232    0.1968   -1.5337 H   0  0  0  0  0  0  0  0  0  0  0  0
    0.0381   -0.4527   -3.2795 H   0  0  0  0  0  0  0  0  0  0  0  0
   -1.3635   -0.1568   -2.2616 H   0  0  0  0  0  0  0  0  0  0  0  0
    0.4399   -2.5985   -2.2091 H   0  0  0  0  0  0  0  0  0  0  0  0
   -1.5900   -2.9300   -3.6016 H   0  0  0  0  0  0  0  0  0  0  0  0
   -2.5938   -2.3897   -2.2627 H   0  0  0  0  0  0  0  0  0  0  0  0
  1  2  2  3
  1  8  1  0
  1  9  1  0
  2  3  1  0
  2  7  1  0
  3  4  1  0
  3 10  1  0
  4  5  2  0
  4 11  1  0
  5  6  1  0
  5 12  1  0
  6  7  2  0
  6 13  1  0
  7 14  1  0
 15 16  1  0
 15 23  1  0
 15 24  1  0
 15 25  1  0
 16 17  1  0
 16 26  1  0
 16 27  1  0
 17 18  1  0
 17 28  1  0
 17 29  1  0
 18 19  1  0
 18 22  1  0
 18 30  1  0
 19 20  1  0
 19 31  1  0
 19 32  1  0
 20 21  1  0
 20 33  1  0
 20 34  1  0
 21 22  1  0
 21 35  1  0
 21 36  1  0
 22 23  1  0
 22 37  1  0
 23 38  1  0
 23 39  1  0
M  RAD  1   3   2
M  END
>  <reaction>  (14) 
rxn_613

>  <mol_properties>  (14) 
{"2": {"label": "*4", "atom_type": "Cs"}, "6": {"label": "*3", "atom_type": "Cs"}, "9": {"label": "*0", "atom_type": "Cd"}, "15": {"label": "*1", "atom_type": "Cs"}, "19": {"label": "*2", "atom_type": "H0"}}

>  <type>  (14) 
unop_10

>  <geom_source>  (14) 
Heuristics

$$$$

     RDKit          3D

 39 40  0  0  0  0  0  0  0  0999 V2000
    0.5915    2.0923    1.2726 C   0  0  0  0  0  0  0  0  0  0  0  0
   -0.1227    2.8436    0.1833 C   0  0  0  0  0  0  0  0  0  0  0  0
   -0.7242    4.0720    0.4393 C   0  0  0  0  0  3  0  0  0  0  0  0
   -1.3573    4.7812   -0.5698 C   0  0  0  0  0  0  0  0  0  0  0  0
   -1.4012    4.2707   -1.8581 C   0  0  0  0  0  0  0  0  0  0  0  0
   -0.8088    3.0462   -2.1262 C   0  0  0  0  0  0  0  0  0  0  0  0
   -0.1771    2.3413   -1.1132 C   0  0  0  0  0  0  0  0  0  0  0  0
    0.1517    2.2963    2.2494 H   0  0  0  0  0  0  0  0  0  0  0  0
    1.6438    2.3843    1.3179 H   0  0  0  0  0  0  0  0  0  0  0  0
   -0.6982    4.4777    1.4445 H   0  0  0  0  0  0  0  0  0  0  0  0
   -1.8208    5.7345   -0.3478 H   0  0  0  0  0  0  0  0  0  0  0  0
   -1.8973    4.8216   -2.6470 H   0  0  0  0  0  0  0  0  0  0  0  0
   -0.8411    2.6355   -3.1278 H   0  0  0  0  0  0  0  0  0  0  0  0
    0.2802    1.3828   -1.3318 H   0  0  0  0  0  0  0  0  0  0  0  0
   -0.5930   -4.4441   -0.3814 C   0  0  0  0  0  0  0  0  0  0  0  0
   -0.5930   -4.4441    1.1492 C   0  0  0  0  0  0  0  0  0  0  0  0
    0.5501   -3.6077    1.7312 C   0  0  0  0  0  0  0  0  0  0  0  0
    0.5105   -2.2067    1.1471 C   0  0  0  0  0  0  0  0  0  0  0  0
    1.6295   -1.2329    1.5025 C   0  0  0  0  0  0  0  0  0  0  0  0
    1.5796   -0.1623    0.3839 C   0  0  0  0  0  0  0  0  0  0  0  0
    0.6861   -0.7542   -0.7347 C   0  0  0  0  0  0  0  0  0  0  0  0
    0.5610   -2.2323   -0.3793 C   0  0  0  0  0  0  0  0  0  0  0  0
   -0.5930   -3.0276   -0.9634 C   0  0  0  0  0  0  0  0  0  0  0  0
    0.2994   -4.9709   -0.7373 H   0  0  0  0  0  0  0  0  0  0  0  0
   -1.4539   -5.0051   -0.7521 H   0  0  0  0  0  0  0  0  0  0  0  0
   -1.5452   -4.0349    1.5051 H   0  0  0  0  0  0  0  0  0  0  0  0
   -0.5375   -5.4701    1.5199 H   0  0  0  0  0  0  0  0  0  0  0  0
    0.4828   -3.5817    2.8220 H   0  0  0  0  0  0  0  0  0  0  0  0
    1.5116   -4.0728    1.4831 H   0  0  0  0  0  0  0  0  0  0  0  0
   -0.4483   -1.7478    1.4296 H   0  0  0  0  0  0  0  0  0  0  0  0
    1.5207   -0.8050    2.5000 H   0  0  0  0  0  0  0  0  0  0  0  0
    2.5872   -1.7614    1.4821 H   0  0  0  0  0  0  0  0  0  0  0  0
    1.0856    0.9649    0.8282 H   0  0  0  0  0  0  0  0  0  0  0  0
    2.5808    0.0601    0.0136 H   0  0  0  0  0  0  0  0  0  0  0  0
    1.0957   -0.5893   -1.7321 H   0  0  0  0  0  0  0  0  0  0  0  0
   -0.3060   -0.2934   -0.7143 H   0  0  0  0  0  0  0  0  0  0  0  0
    1.4975   -2.7352   -0.6618 H   0  0  0  0  0  0  0  0  0  0  0  0
   -0.5324   -3.0666   -2.0542 H   0  0  0  0  0  0  0  0  0  0  0  0
   -1.5362   -2.5263   -0.7153 H   0  0  0  0  0  0  0  0  0  0  0  0
  1  2  2  3
  1  8  1  0
  1  9  1  0
  2  3  1  0
  2  7  1  0
  3  4  1  0
  3 10  1  0
  4  5  2  0
  4 11  1  0
  5  6  1  0
  5 12  1  0
  6  7  2  0
  6 13  1  0
  7 14  1  0
 15 16  1  0
 15 23  1  0
 15 24  1  0
 15 25  1  0
 16 17  1  0
 16 26  1  0
 16 27  1  0
 17 18  1  0
 17 28  1  0
 17 29  1  0
 18 19  1  0
 18 22  1  0
 18 30  1  0
 19 20  1  0
 19 31  1  0
 19 32  1  0
 20 21  1  0
 20 33  1  0
 20 34  1  0
 21 22  1  0
 21 35  1  0
 21 36  1  0
 22 23  1  0
 22 37  1  0
 23 38  1  0
 23 39  1  0
M  RAD  1   3   2
M  END
>  <reaction>  (15) 
rxn_613

>  <mol_properties>  (15) 
{"2": {"label": "*4", "atom_type": "Cs"}, "6": {"label": "*3", "atom_type": "Cs"}, "9": {"label": "*0", "atom_type": "Cd"}, "15": {"label": "*1", "atom_type": "Cs"}, "19": {"label": "*2", "atom_type": "H0"}}

>  <type>  (15) 
unop_11

>  <geom_source>  (15) 
Heuristics

$$$$

     RDKit          3D

 39 40  0  0  0  0  0  0  0  0999 V2000
    0.3686    2.6875   -0.5010 C   0  0  0  0  0  0  0  0  0  0  0  0
    0.0049    2.5893    0.9548 C   0  0  0  0  0  0  0  0  0  0  0  0
    0.0386    3.7118    1.7764 C   0  0  0  0  0  3  0  0  0  0  0  0
   -0.3250    3.6305    3.1118 C   0  0  0  0  0  0  0  0  0  0  0  0
   -0.7291    2.4189    3.6512 C   0  0  0  0  0  0  0  0  0  0  0  0
   -0.7639    1.2918    2.8444 C   0  0  0  0  0  0  0  0  0  0  0  0
   -0.3992    1.3790    1.5098 C   0  0  0  0  0  0  0  0  0  0  0  0
    1.1041    3.4738   -0.6741 H   0  0  0  0  0  0  0  0  0  0  0  0
   -0.5120    2.9217   -1.1047 H   0  0  0  0  0  0  0  0  0  0  0  0
    0.3567    4.6630    1.3645 H   0  0  0  0  0  0  0  0  0  0  0  0
   -0.2894    4.5164    3.7337 H   0  0  0  0  0  0  0  0  0  0  0  0
   -1.0110    2.3525    4.6943 H   0  0  0  0  0  0  0  0  0  0  0  0
   -1.0733    0.3391    3.2563 H   0  0  0  0  0  0  0  0  0  0  0  0
   -0.4262    0.4914    0.8877 H   0  0  0  0  0  0  0  0  0  0  0  0
   -0.8160   -3.8489   -2.1550 C   0  0  0  0  0  0  0  0  0  0  0  0
   -0.8160   -3.8489   -0.6244 C   0  0  0  0  0  0  0  0  0  0  0  0
    0.3271   -3.0125   -0.0424 C   0  0  0  0  0  0  0  0  0  0  0  0
    0.2875   -1.6115   -0.6265 C   0  0  0  0  0  0  0  0  0  0  0  0
    1.4066   -0.6377   -0.2711 C   0  0  0  0  0  0  0  0  0  0  0  0
    1.3566    0.4328   -1.3897 C   0  0  0  0  0  0  0  0  0  0  0  0
    0.4631   -0.1590   -2.5083 C   0  0  0  0  0  0  0  0  0  0  0  0
    0.3380   -1.6371   -2.1529 C   0  0  0  0  0  0  0  0  0  0  0  0
   -0.8160   -2.4324   -2.7370 C   0  0  0  0  0  0  0  0  0  0  0  0
    0.0764   -4.3757   -2.5109 H   0  0  0  0  0  0  0  0  0  0  0  0
   -1.6769   -4.4100   -2.5257 H   0  0  0  0  0  0  0  0  0  0  0  0
   -1.7681   -3.4397   -0.2685 H   0  0  0  0  0  0  0  0  0  0  0  0
   -0.7605   -4.8750   -0.2537 H   0  0  0  0  0  0  0  0  0  0  0  0
    0.2599   -2.9865    1.0484 H   0  0  0  0  0  0  0  0  0  0  0  0
    1.2886   -3.4776   -0.2905 H   0  0  0  0  0  0  0  0  0  0  0  0
   -0.6713   -1.1527   -0.3440 H   0  0  0  0  0  0  0  0  0  0  0  0
    1.2977   -0.2098    0.7264 H   0  0  0  0  0  0  0  0  0  0  0  0
    2.3642   -1.1663   -0.2915 H   0  0  0  0  0  0  0  0  0  0  0  0
    0.8626    1.5601   -0.9454 H   0  0  0  0  0  0  0  0  0  0  0  0
    2.3578    0.6553   -1.7600 H   0  0  0  0  0  0  0  0  0  0  0  0
    0.8727    0.0059   -3.5057 H   0  0  0  0  0  0  0  0  0  0  0  0
   -0.5289    0.3017   -2.4879 H   0  0  0  0  0  0  0  0  0  0  0  0
    1.2745   -2.1400   -2.4354 H   0  0  0  0  0  0  0  0  0  0  0  0
   -0.7554   -2.4714   -3.8278 H   0  0  0  0  0  0  0  0  0  0  0  0
   -1.7592   -1.9311   -2.4889 H   0  0  0  0  0  0  0  0  0  0  0  0
  1  2  2  3
  1  8  1  0
  1  9  1  0
  2  3  1  0
  2  7  1  0
  3  4  1  0
  3 10  1  0
  4  5  2  0
  4 11  1  0
  5  6  1  0
  5 12  1  0
  6  7  2  0
  6 13  1  0
  7 14  1  0
 15 16  1  0
 15 23  1  0
 15 24  1  0
 15 25  1  0
 16 17  1  0
 16 26  1  0
 16 27  1  0
 17 18  1  0
 17 28  1  0
 17 29  1  0
 18 19  1  0
 18 22  1  0
 18 30  1  0
 19 20  1  0
 19 31  1  0
 19 32  1  0
 20 21  1  0
 20 33  1  0
 20 34  1  0
 21 22  1  0
 21 35  1  0
 21 36  1  0
 22 23  1  0
 22 37  1  0
 23 38  1  0
 23 39  1  0
M  RAD  1   3   2
M  END
>  <reaction>  (16) 
rxn_613

>  <mol_properties>  (16) 
{"2": {"label": "*4", "atom_type": "Cs"}, "6": {"label": "*3", "atom_type": "Cs"}, "9": {"label": "*0", "atom_type": "Cd"}, "15": {"label": "*1", "atom_type": "Cs"}, "19": {"label": "*2", "atom_type": "H0"}}

>  <type>  (16) 
unop_12

>  <geom_source>  (16) 
Heuristics

$$$$

     RDKit          3D

 39 40  0  0  0  0  0  0  0  0999 V2000
   -2.5736   -0.9372    0.7099 C   0  0  0  0  0  0  0  0  0  0  0  0
   -2.4270   -0.8430   -0.8241 C   0  0  0  0  0  0  0  0  0  0  0  0
   -3.4745    0.1656    1.3118 C   0  0  0  0  0  0  0  0  0  0  0  0
   -3.4376    0.1102   -1.4937 C   0  0  0  0  0  0  0  0  0  0  0  0
   -3.2157    1.5282    0.6586 C   0  0  0  0  0  0  0  0  0  0  0  0
   -3.4793    1.5149   -0.8598 C   0  0  0  0  0  0  0  0  0  0  0  0
   -1.1445   -0.9032    1.2784 C   0  0  0  0  0  0  0  0  0  0  0  0
   -0.9725   -0.4611   -1.0895 C   0  0  0  0  0  0  0  0  0  0  0  0
    2.3234   -1.4350    0.5703 C   0  0  0  0  0  0  0  0  0  0  0  0
    3.3917   -0.4531    0.1957 C   0  0  0  0  0  0  0  0  0  0  0  0
   -0.1968   -1.0025    0.0941 C   0  0  0  0  0  3  0  0  0  0  0  0
    4.6651   -0.9041   -0.1877 C   0  0  0  0  0  0  0  0  0  0  0  0
    3.1470    0.9260    0.2890 C   0  0  0  0  0  0  0  0  0  0  0  0
    5.6713    0.0149   -0.5024 C   0  0  0  0  0  0  0  0  0  0  0  0
    5.4162    1.3870   -0.4243 C   0  0  0  0  0  0  0  0  0  0  0  0
    4.1558    1.8421   -0.0265 C   0  0  0  0  0  0  0  0  0  0  0  0
   -3.0285   -1.9210    0.9658 H   0  0  0  0  0  0  0  0  0  0  0  0
   -2.5879   -1.8594   -1.2515 H   0  0  0  0  0  0  0  0  0  0  0  0
   -4.5416   -0.1087    1.1594 H   0  0  0  0  0  0  0  0  0  0  0  0
   -3.3107    0.2378    2.4091 H   0  0  0  0  0  0  0  0  0  0  0  0
   -3.8650    2.2921    1.1387 H   0  0  0  0  0  0  0  0  0  0  0  0
   -2.1636    1.8327    0.8464 H   0  0  0  0  0  0  0  0  0  0  0  0
   -4.4784    1.9593   -1.0615 H   0  0  0  0  0  0  0  0  0  0  0  0
   -2.7322    2.1683   -1.3607 H   0  0  0  0  0  0  0  0  0  0  0  0
   -3.2113    0.1982   -2.5787 H   0  0  0  0  0  0  0  0  0  0  0  0
   -4.4489   -0.3455   -1.4101 H   0  0  0  0  0  0  0  0  0  0  0  0
   -0.9318    0.0469    1.8132 H   0  0  0  0  0  0  0  0  0  0  0  0
   -0.9755   -1.7442    1.9859 H   0  0  0  0  0  0  0  0  0  0  0  0
   -0.8388    0.6410   -1.1193 H   0  0  0  0  0  0  0  0  0  0  0  0
   -0.6051   -0.8964   -2.0441 H   0  0  0  0  0  0  0  0  0  0  0  0
    2.4141   -2.3608   -0.0368 H   0  0  0  0  0  0  0  0  0  0  0  0
    2.4202   -1.6942    1.6452 H   0  0  0  0  0  0  0  0  0  0  0  0
    1.1192   -0.9177    0.3556 H   0  0  0  0  0  0  0  0  0  0  0  0
    0.0533   -2.0711   -0.0897 H   0  0  0  0  0  0  0  0  0  0  0  0
    4.8777   -1.9646   -0.2434 H   0  0  0  0  0  0  0  0  0  0  0  0
    6.6498   -0.3366   -0.8033 H   0  0  0  0  0  0  0  0  0  0  0  0
    6.1962    2.0971   -0.6668 H   0  0  0  0  0  0  0  0  0  0  0  0
    3.9616    2.9047    0.0411 H   0  0  0  0  0  0  0  0  0  0  0  0
    2.1781    1.2921    0.6053 H   0  0  0  0  0  0  0  0  0  0  0  0
  1  3  1  0
  1  7  1  0
  1  2  1  0
  1 17  1  0
  2  4  1  0
  2  8  1  0
  2 18  1  0
  3  5  1  0
  3 19  1  0
  3 20  1  0
  4  6  1  0
  4 25  1  0
  4 26  1  0
  5  6  1  0
  5 21  1  0
  5 22  1  0
  6 23  1  0
  6 24  1  0
  7 11  1  0
  7 27  1  0
  7 28  1  0
  8 11  1  0
  8 29  1  0
  8 30  1  0
  9 10  1  0
  9 31  1  0
  9 32  1  0
  9 33  1  0
 10 12  2  0
 10 13  1  0
 11 34  1  0
 12 14  1  0
 12 35  1  0
 13 16  2  0
 13 39  1  0
 14 15  2  0
 14 36  1  0
 15 16  1  0
 15 37  1  0
 16 38  1  0
M  RAD  1  11   2
M  END
>  <reaction>  (17) 
rxn_613

>  <mol_properties>  (17) 
{"2": {"label": "*4", "atom_type": "Cs"}, "6": {"label": "*3", "atom_type": "Cs"}, "9": {"label": "*0", "atom_type": "Cd"}, "15": {"label": "*1", "atom_type": "Cs"}, "19": {"label": "*2", "atom_type": "H0"}}

>  <type>  (17) 
unop_13

>  <geom_source>  (17) 
AutoTST

$$$$

     RDKit          3D

 39 40  0  0  0  0  0  0  0  0999 V2000
   -0.0960    2.4841   -0.5081 C   0  0  0  0  0  0  0  0  0  0  0  0
    0.2051    2.6753    0.9527 C   0  0  0  0  0  0  0  0  0  0  0  0
    0.6985    3.8867    1.4275 C   0  0  0  0  0  3  0  0  0  0  0  0
    0.9486    4.0758    2.7779 C   0  0  0  0  0  0  0  0  0  0  0  0
    0.7098    3.0511    3.6808 C   0  0  0  0  0  0  0  0  0  0  0  0
    0.2215    1.8378    3.2207 C   0  0  0  0  0  0  0  0  0  0  0  0
   -0.0267    1.6542    1.8692 C   0  0  0  0  0  0  0  0  0  0  0  0
    0.5597    3.0930   -1.1314 H   0  0  0  0  0  0  0  0  0  0  0  0
   -1.1258    2.7743   -0.7319 H   0  0  0  0  0  0  0  0  0  0  0  0
    0.8917    4.6928    0.7285 H   0  0  0  0  0  0  0  0  0  0  0  0
    1.3345    5.0262    3.1254 H   0  0  0  0  0  0  0  0  0  0  0  0
    0.9069    3.1958    4.7354 H   0  0  0  0  0  0  0  0  0  0  0  0
    0.0358    1.0288    3.9163 H   0  0  0  0  0  0  0  0  0  0  0  0
   -0.4052    0.7006    1.5184 H   0  0  0  0  0  0  0  0  0  0  0  0
   -1.2806   -4.0522   -2.1621 C   0  0  0  0  0  0  0  0  0  0  0  0
   -1.2806   -4.0522   -0.6315 C   0  0  0  0  0  0  0  0  0  0  0  0
   -0.1375   -3.2158   -0.0495 C   0  0  0  0  0  0  0  0  0  0  0  0
   -0.1771   -1.8149   -0.6336 C   0  0  0  0  0  0  0  0  0  0  0  0
    0.9419   -0.8411   -0.2782 C   0  0  0  0  0  0  0  0  0  0  0  0
    0.8920    0.2295   -1.3968 C   0  0  0  0  0  0  0  0  0  0  0  0
   -0.0015   -0.3624   -2.5154 C   0  0  0  0  0  0  0  0  0  0  0  0
   -0.1266   -1.8405   -2.1600 C   0  0  0  0  0  0  0  0  0  0  0  0
   -1.2806   -2.6358   -2.7441 C   0  0  0  0  0  0  0  0  0  0  0  0
   -0.3882   -4.5790   -2.5180 H   0  0  0  0  0  0  0  0  0  0  0  0
   -2.1415   -4.6133   -2.5328 H   0  0  0  0  0  0  0  0  0  0  0  0
   -2.2328   -3.6431   -0.2756 H   0  0  0  0  0  0  0  0  0  0  0  0
   -1.2251   -5.0783   -0.2608 H   0  0  0  0  0  0  0  0  0  0  0  0
   -0.2048   -3.1899    1.0413 H   0  0  0  0  0  0  0  0  0  0  0  0
    0.8240   -3.6810   -0.2975 H   0  0  0  0  0  0  0  0  0  0  0  0
   -1.1359   -1.3560   -0.3511 H   0  0  0  0  0  0  0  0  0  0  0  0
    0.8331   -0.4131    0.7193 H   0  0  0  0  0  0  0  0  0  0  0  0
    1.8996   -1.3696   -0.2986 H   0  0  0  0  0  0  0  0  0  0  0  0
    0.3980    1.3567   -0.9525 H   0  0  0  0  0  0  0  0  0  0  0  0
    1.8932    0.4520   -1.7671 H   0  0  0  0  0  0  0  0  0  0  0  0
    0.4081   -0.1975   -3.5128 H   0  0  0  0  0  0  0  0  0  0  0  0
   -0.9935    0.0984   -2.4950 H   0  0  0  0  0  0  0  0  0  0  0  0
    0.8099   -2.3433   -2.4425 H   0  0  0  0  0  0  0  0  0  0  0  0
   -1.2200   -2.6748   -3.8349 H   0  0  0  0  0  0  0  0  0  0  0  0
   -2.2238   -2.1345   -2.4960 H   0  0  0  0  0  0  0  0  0  0  0  0
  1  2  2  3
  1  8  1  0
  1  9  1  0
  2  3  1  0
  2  7  1  0
  3  4  1  0
  3 10  1  0
  4  5  2  0
  4 11  1  0
  5  6  1  0
  5 12  1  0
  6  7  2  0
  6 13  1  0
  7 14  1  0
 15 16  1  0
 15 23  1  0
 15 24  1  0
 15 25  1  0
 16 17  1  0
 16 26  1  0
 16 27  1  0
 17 18  1  0
 17 28  1  0
 17 29  1  0
 18 19  1  0
 18 22  1  0
 18 30  1  0
 19 20  1  0
 19 31  1  0
 19 32  1  0
 20 21  1  0
 20 33  1  0
 20 34  1  0
 21 22  1  0
 21 35  1  0
 21 36  1  0
 22 23  1  0
 22 37  1  0
 23 38  1  0
 23 39  1  0
M  RAD  1   3   2
M  END
>  <reaction>  (18) 
rxn_613

>  <mol_properties>  (18) 
{"2": {"label": "*4", "atom_type": "Cs"}, "6": {"label": "*3", "atom_type": "Cs"}, "9": {"label": "*0", "atom_type": "Cd"}, "15": {"label": "*1", "atom_type": "Cs"}, "19": {"label": "*2", "atom_type": "H0"}}

>  <type>  (18) 
unop_14

>  <geom_source>  (18) 
gaussian_log

$$$$
