
     RDKit          3D

 10  9  0  0  0  0  0  0  0  0999 V2000
   -1.1508    0.0666    0.2839 C   0  0  0  0  0  0  0  0  0  0  0  0
    0.1022   -0.3749   -0.4771 C   0  0  0  0  0  0  0  0  0  0  0  0
    1.3428    0.1620    0.1542 C   0  0  0  0  0  0  0  0  0  0  0  0
    2.5613   -0.6971    0.7526 S   0  0  0  0  0  0  0  0  0  0  0  0
   -1.2137    1.1546    0.3481 H   0  0  0  0  0  0  0  0  0  0  0  0
   -2.0472   -0.2935   -0.2212 H   0  0  0  0  0  0  0  0  0  0  0  0
   -1.1467   -0.3334    1.2987 H   0  0  0  0  0  0  0  0  0  0  0  0
    0.1602   -1.4616   -0.5369 H   0  0  0  0  0  0  0  0  0  0  0  0
    0.0536    0.0174   -1.4997 H   0  0  0  0  0  0  0  0  0  0  0  0
    1.3824    1.2528    0.2110 H   0  0  0  0  0  0  0  0  0  0  0  0
  1  2  1  0
  1  5  1  0
  1  6  1  0
  1  7  1  0
  2  3  1  0
  2  8  1  0
  2  9  1  0
  3  4  2  0
  3 10  1  0
M  END
>  <reaction>  (1) 
rxn_2015

>  <mol_properties>  (1) 
{"1": {"label": "donator", "atom_type": "Cs"}, "7": {"label": "d_hydrogen", "atom_type": "H0"}}

>  <type>  (1) 
r1h

$$$$

     RDKit          3D

  9  8  0  0  0  0  0  0  0  0999 V2000
    1.8963   -0.1405   -0.2150 C   0  0  0  0  0  0  0  0  0  0  0  0
    0.6340    0.1486   -0.2254 C   0  0  0  0  0  3  0  0  0  0  0  0
   -0.6770    0.4501   -0.2373 C   0  0  0  0  0  0  0  0  0  0  0  0
   -1.6600   -0.2303    0.4662 C   0  0  0  0  0  0  0  0  0  0  0  0
    2.3274   -0.8354   -0.9313 H   0  0  0  0  0  0  0  0  0  0  0  0
    2.5751    0.2988    0.5117 H   0  0  0  0  0  0  0  0  0  0  0  0
   -0.9723    1.2966   -0.8520 H   0  0  0  0  0  0  0  0  0  0  0  0
   -2.6934    0.0777    0.4015 H   0  0  0  0  0  0  0  0  0  0  0  0
   -1.4140   -1.0782    1.0904 H   0  0  0  0  0  0  0  0  0  0  0  0
  1  2  2  3
  1  5  1  0
  1  6  1  0
  2  3  1  0
  3  4  2  3
  3  7  1  0
  4  8  1  0
  4  9  1  0
M  RAD  1   2   2
M  END
>  <reaction>  (2) 
rxn_2015

>  <mol_properties>  (2) 
{"1": {"label": "acceptor", "atom_type": "Cd"}}

>  <type>  (2) 
r2

$$$$

     RDKit          3D

 10  9  0  0  0  0  0  0  0  0999 V2000
    1.8334    0.0847   -0.1062 C   0  0  0  0  0  0  0  0  0  0  0  0
    0.5993   -0.4071   -0.0750 C   0  0  0  0  0  0  0  0  0  0  0  0
   -0.5993    0.4071    0.0750 C   0  0  0  0  0  0  0  0  0  0  0  0
   -1.8334   -0.0847    0.1062 C   0  0  0  0  0  0  0  0  0  0  0  0
    2.0179    1.1498   -0.0189 H   0  0  0  0  0  0  0  0  0  0  0  0
    2.6972   -0.5572   -0.2194 H   0  0  0  0  0  0  0  0  0  0  0  0
    0.4465   -1.4793   -0.1649 H   0  0  0  0  0  0  0  0  0  0  0  0
   -0.4465    1.4793    0.1649 H   0  0  0  0  0  0  0  0  0  0  0  0
   -2.0179   -1.1498    0.0189 H   0  0  0  0  0  0  0  0  0  0  0  0
   -2.6972    0.5572    0.2194 H   0  0  0  0  0  0  0  0  0  0  0  0
  1  2  2  3
  1  5  1  0
  1  6  1  0
  2  3  1  0
  2  7  1  0
  3  4  2  3
  3  8  1  0
  4  9  1  0
  4 10  1  0
M  END
>  <reaction>  (3) 
rxn_2015

>  <mol_properties>  (3) 
{"1": {"label": "acceptor", "atom_type": "Cd"}, "9": {"label": "a_hydrogen", "atom_type": "H0"}}

>  <type>  (3) 
r2h

$$$$

     RDKit          3D

 19 17  0  0  0  0  0  0  0  0999 V2000
   -0.2148   -2.3812    1.3390 C   0  0  0  0  0  0  0  0  0  0  0  0
   -0.6669   -1.4520    0.5276 C   0  0  0  0  0  3  0  0  0  0  0  0
   -1.9706   -1.1122    0.0186 C   0  0  0  0  0  0  0  0  0  0  0  0
   -2.2346   -0.0731   -0.7669 C   0  0  0  0  0  0  0  0  0  0  0  0
    0.8377   -2.4661    1.5851 H   0  0  0  0  0  0  0  0  0  0  0  0
   -0.8870   -3.1036    1.7996 H   0  0  0  0  0  0  0  0  0  0  0  0
   -2.7782   -1.7804    0.3187 H   0  0  0  0  0  0  0  0  0  0  0  0
   -3.2418    0.1208   -1.1109 H   0  0  0  0  0  0  0  0  0  0  0  0
   -1.4606    0.6157   -1.0846 H   0  0  0  0  0  0  0  0  0  0  0  0
    1.3799   -0.4428   -1.9997 C   0  0  0  0  0  0  0  0  0  0  0  0
    1.4240   -0.0274   -0.5483 C   0  0  0  0  0  0  0  0  0  0  0  0
    1.3225    1.3921   -0.2099 C   0  0  0  0  0  0  0  0  0  0  0  0
    0.8285    2.5944   -1.1776 S   0  0  0  0  0  0  0  0  0  0  0  0
    2.2472   -0.0573   -2.5394 H   0  0  0  0  0  0  0  0  0  0  0  0
    1.3759   -1.5303   -2.0785 H   0  0  0  0  0  0  0  0  0  0  0  0
    0.4897   -0.0559   -2.4944 H   0  0  0  0  0  0  0  0  0  0  0  0
    0.4616   -0.5383   -0.0114 H   0  0  0  0  0  0  0  0  0  0  0  0
    2.2359   -0.4999    0.0106 H   0  0  0  0  0  0  0  0  0  0  0  0
    1.5783    1.6254    0.8245 H   0  0  0  0  0  0  0  0  0  0  0  0
  1  2  2  3
  1  5  1  0
  1  6  1  0
  2  3  1  0
  3  4  2  3
  3  7  1  0
  4  8  1  0
  4  9  1  0
 10 11  1  0
 10 14  1  0
 10 15  1  0
 10 16  1  0
 11 12  1  0
 11 17  1  0
 11 18  1  0
 12 13  2  0
 12 19  1  0
M  RAD  1   2   2
M  END
>  <reaction>  (4) 
rxn_2015

>  <mol_properties>  (4) 
{"1": {"label": "*3", "atom_type": "Cd"}, "2": {"label": "*4", "atom_type": "Cd"}, "10": {"label": "*1", "atom_type": "Cs"}, "11": {"label": "*0", "atom_type": "CS"}, "16": {"label": "*2", "atom_type": "H0"}}

>  <type>  (4) 
ts

$$$$

     RDKit          3D

 19 17  0  0  0  0  0  0  0  0999 V2000
   -1.9324   -0.2868    0.3776 C   0  0  0  0  0  0  0  0  0  0  0  0
   -0.9784   -1.1733    0.1135 C   0  0  0  0  0  0  0  0  0  0  0  0
   -0.6798   -2.3246    0.9546 C   0  0  0  0  0  0  0  0  0  0  0  0
    0.2743   -3.2112    0.6905 C   0  0  0  0  0  0  0  0  0  0  0  0
   -2.1208    0.5553   -0.2754 H   0  0  0  0  0  0  0  0  0  0  0  0
   -2.5570   -0.3771    1.2595 H   0  0  0  0  0  0  0  0  0  0  0  0
   -1.2894   -2.4421    1.8465 H   0  0  0  0  0  0  0  0  0  0  0  0
    0.4626   -4.0532    1.3435 H   0  0  0  0  0  0  0  0  0  0  0  0
    0.8989   -3.1209   -0.1914 H   0  0  0  0  0  0  0  0  0  0  0  0
    1.0739    0.1435   -2.3535 C   0  0  0  0  0  0  0  0  0  0  0  0
    1.0739    0.1435   -0.8225 C   0  0  0  0  0  0  0  0  0  0  0  0
    1.0739    1.5317   -0.2758 C   0  0  0  0  0  0  0  0  0  0  0  0
   -0.0456    2.1874    0.6718 S   0  0  0  0  0  1  0  0  0  0  0  0
    1.9291    0.6937   -2.7506 H   0  0  0  0  0  0  0  0  0  0  0  0
    1.1248   -0.8774   -2.7322 H   0  0  0  0  0  0  0  0  0  0  0  0
    0.1644    0.6059   -2.7392 H   0  0  0  0  0  0  0  0  0  0  0  0
    0.0463   -0.5159   -0.3538 H   0  0  0  0  0  0  0  0  0  0  0  0
    1.9843   -0.3532   -0.4670 H   0  0  0  0  0  0  0  0  0  0  0  0
    1.9294    2.1369   -0.5861 H   0  0  0  0  0  0  0  0  0  0  0  0
  1  2  2  3
  1  5  1  0
  1  6  1  0
  2  3  1  0
  2 17  1  0
  3  4  2  3
  3  7  1  0
  4  8  1  0
  4  9  1  0
 10 11  1  0
 10 14  1  0
 10 15  1  0
 10 16  1  0
 11 12  2  3
 11 18  1  0
 12 13  1  0
 12 19  1  0
M  RAD  1  13   2
M  END
>  <reaction>  (5) 
rxn_2015

>  <mol_properties>  (5) 
{"1": {"label": "*3", "atom_type": "Cd"}, "2": {"label": "*4", "atom_type": "Cd"}, "10": {"label": "*1", "atom_type": "Cs"}, "11": {"label": "*0", "atom_type": "CS"}, "16": {"label": "*2", "atom_type": "H0"}}

>  <type>  (5) 
unop_1

>  <geom_source>  (5) 
Heuristics

$$$$

     RDKit          3D

 19 17  0  0  0  0  0  0  0  0999 V2000
   -1.0885   -1.0348    1.7615 C   0  0  0  0  0  0  0  0  0  0  0  0
   -0.8089   -1.1806    0.4706 C   0  0  0  0  0  0  0  0  0  0  0  0
   -1.3060   -2.2749   -0.3527 C   0  0  0  0  0  0  0  0  0  0  0  0
   -1.0264   -2.4207   -1.6436 C   0  0  0  0  0  0  0  0  0  0  0  0
   -0.6975   -0.2056    2.3364 H   0  0  0  0  0  0  0  0  0  0  0  0
   -1.7202   -1.7441    2.2849 H   0  0  0  0  0  0  0  0  0  0  0  0
   -1.9422   -3.0024    0.1441 H   0  0  0  0  0  0  0  0  0  0  0  0
   -1.4174   -3.2499   -2.2185 H   0  0  0  0  0  0  0  0  0  0  0  0
   -0.3948   -1.7114   -2.1670 H   0  0  0  0  0  0  0  0  0  0  0  0
    1.2434    0.1362   -1.9964 C   0  0  0  0  0  0  0  0  0  0  0  0
    1.2434    0.1362   -0.4653 C   0  0  0  0  0  0  0  0  0  0  0  0
    1.2434    1.5244    0.0814 C   0  0  0  0  0  0  0  0  0  0  0  0
    0.1238    2.1801    1.0289 S   0  0  0  0  0  1  0  0  0  0  0  0
    2.0986    0.6864   -2.3935 H   0  0  0  0  0  0  0  0  0  0  0  0
    1.2942   -0.8847   -2.3751 H   0  0  0  0  0  0  0  0  0  0  0  0
    0.3339    0.5986   -2.3820 H   0  0  0  0  0  0  0  0  0  0  0  0
    0.2157   -0.5232    0.0033 H   0  0  0  0  0  0  0  0  0  0  0  0
    2.1537   -0.3605   -0.1099 H   0  0  0  0  0  0  0  0  0  0  0  0
    2.0988    2.1296   -0.2290 H   0  0  0  0  0  0  0  0  0  0  0  0
  1  2  2  3
  1  5  1  0
  1  6  1  0
  2  3  1  0
  2 17  1  0
  3  4  2  3
  3  7  1  0
  4  8  1  0
  4  9  1  0
 10 11  1  0
 10 14  1  0
 10 15  1  0
 10 16  1  0
 11 12  2  3
 11 18  1  0
 12 13  1  0
 12 19  1  0
M  RAD  1  13   2
M  END
>  <reaction>  (6) 
rxn_2015

>  <mol_properties>  (6) 
{"1": {"label": "*3", "atom_type": "Cd"}, "2": {"label": "*4", "atom_type": "Cd"}, "10": {"label": "*1", "atom_type": "Cs"}, "11": {"label": "*0", "atom_type": "CS"}, "16": {"label": "*2", "atom_type": "H0"}}

>  <type>  (6) 
unop_2

>  <geom_source>  (6) 
Heuristics

$$$$

     RDKit          3D

 19 17  0  0  0  0  0  0  0  0999 V2000
   -2.1067   -0.7693   -0.3954 C   0  0  0  0  0  0  0  0  0  0  0  0
   -0.9520   -1.2789    0.0206 C   0  0  0  0  0  0  0  0  0  0  0  0
   -0.7673   -1.9357    1.3078 C   0  0  0  0  0  0  0  0  0  0  0  0
    0.3873   -2.4454    1.7237 C   0  0  0  0  0  0  0  0  0  0  0  0
   -2.1998   -0.2890   -1.3606 H   0  0  0  0  0  0  0  0  0  0  0  0
   -2.9982   -0.8173    0.2203 H   0  0  0  0  0  0  0  0  0  0  0  0
   -1.6434   -1.9993    1.9475 H   0  0  0  0  0  0  0  0  0  0  0  0
    0.4804   -2.9256    2.6890 H   0  0  0  0  0  0  0  0  0  0  0  0
    1.2788   -2.3973    1.1081 H   0  0  0  0  0  0  0  0  0  0  0  0
    1.1003    0.0379   -2.4464 C   0  0  0  0  0  0  0  0  0  0  0  0
    1.1003    0.0379   -0.9153 C   0  0  0  0  0  0  0  0  0  0  0  0
    1.1003    1.4261   -0.3686 C   0  0  0  0  0  0  0  0  0  0  0  0
   -0.0193    2.0818    0.5789 S   0  0  0  0  0  1  0  0  0  0  0  0
    1.9555    0.5881   -2.8435 H   0  0  0  0  0  0  0  0  0  0  0  0
    1.1511   -0.9830   -2.8251 H   0  0  0  0  0  0  0  0  0  0  0  0
    0.1908    0.5003   -2.8320 H   0  0  0  0  0  0  0  0  0  0  0  0
    0.0726   -0.6215   -0.4467 H   0  0  0  0  0  0  0  0  0  0  0  0
    2.0106   -0.4588   -0.5599 H   0  0  0  0  0  0  0  0  0  0  0  0
    1.9557    2.0313   -0.6790 H   0  0  0  0  0  0  0  0  0  0  0  0
  1  2  2  3
  1  5  1  0
  1  6  1  0
  2  3  1  0
  2 17  1  0
  3  4  2  3
  3  7  1  0
  4  8  1  0
  4  9  1  0
 10 11  1  0
 10 14  1  0
 10 15  1  0
 10 16  1  0
 11 12  2  3
 11 18  1  0
 12 13  1  0
 12 19  1  0
M  RAD  1  13   2
M  END
>  <reaction>  (7) 
rxn_2015

>  <mol_properties>  (7) 
{"1": {"label": "*3", "atom_type": "Cd"}, "2": {"label": "*4", "atom_type": "Cd"}, "10": {"label": "*1", "atom_type": "Cs"}, "11": {"label": "*0", "atom_type": "CS"}, "16": {"label": "*2", "atom_type": "H0"}}

>  <type>  (7) 
unop_3

>  <geom_source>  (7) 
Heuristics

$$$$

     RDKit          3D

 19 17  0  0  0  0  0  0  0  0999 V2000
   -0.3682   -2.1208    1.5313 C   0  0  0  0  0  0  0  0  0  0  0  0
   -0.6335   -1.5241    0.3739 C   0  0  0  0  0  0  0  0  0  0  0  0
   -1.9493   -1.0254   -0.0034 C   0  0  0  0  0  0  0  0  0  0  0  0
   -2.2147   -0.4286   -1.1607 C   0  0  0  0  0  0  0  0  0  0  0  0
    0.6251   -2.4767    1.7713 H   0  0  0  0  0  0  0  0  0  0  0  0
   -1.1406   -2.2721    2.2773 H   0  0  0  0  0  0  0  0  0  0  0  0
   -2.7446   -1.1625    0.7244 H   0  0  0  0  0  0  0  0  0  0  0  0
   -3.2080   -0.0727   -1.4007 H   0  0  0  0  0  0  0  0  0  0  0  0
   -1.4423   -0.2774   -1.9068 H   0  0  0  0  0  0  0  0  0  0  0  0
    1.4188   -0.2073   -2.0931 C   0  0  0  0  0  0  0  0  0  0  0  0
    1.4188   -0.2073   -0.5620 C   0  0  0  0  0  0  0  0  0  0  0  0
    1.4188    1.1809   -0.0153 C   0  0  0  0  0  0  0  0  0  0  0  0
    0.2992    1.8366    0.9322 S   0  0  0  0  0  1  0  0  0  0  0  0
    2.2740    0.3429   -2.4902 H   0  0  0  0  0  0  0  0  0  0  0  0
    1.4696   -1.2282   -2.4717 H   0  0  0  0  0  0  0  0  0  0  0  0
    0.5093    0.2551   -2.4787 H   0  0  0  0  0  0  0  0  0  0  0  0
    0.3911   -0.8667   -0.0934 H   0  0  0  0  0  0  0  0  0  0  0  0
    2.3291   -0.7040   -0.2066 H   0  0  0  0  0  0  0  0  0  0  0  0
    2.2742    1.7861   -0.3257 H   0  0  0  0  0  0  0  0  0  0  0  0
  1  2  2  3
  1  5  1  0
  1  6  1  0
  2  3  1  0
  2 17  1  0
  3  4  2  3
  3  7  1  0
  4  8  1  0
  4  9  1  0
 10 11  1  0
 10 14  1  0
 10 15  1  0
 10 16  1  0
 11 12  2  3
 11 18  1  0
 12 13  1  0
 12 19  1  0
M  RAD  1  13   2
M  END
>  <reaction>  (8) 
rxn_2015

>  <mol_properties>  (8) 
{"1": {"label": "*3", "atom_type": "Cd"}, "2": {"label": "*4", "atom_type": "Cd"}, "10": {"label": "*1", "atom_type": "Cs"}, "11": {"label": "*0", "atom_type": "CS"}, "16": {"label": "*2", "atom_type": "H0"}}

>  <type>  (8) 
unop_4

>  <geom_source>  (8) 
Heuristics

$$$$

     RDKit          3D

 19 17  0  0  0  0  0  0  0  0999 V2000
   -1.7526   -1.9535   -0.8558 C   0  0  0  0  0  0  0  0  0  0  0  0
   -0.8885   -1.3991   -0.0121 C   0  0  0  0  0  0  0  0  0  0  0  0
   -1.0034   -1.4728    1.4383 C   0  0  0  0  0  0  0  0  0  0  0  0
   -0.1393   -0.9184    2.2820 C   0  0  0  0  0  0  0  0  0  0  0  0
   -1.6290   -1.8742   -1.9279 H   0  0  0  0  0  0  0  0  0  0  0  0
   -2.6141   -2.5063   -0.4976 H   0  0  0  0  0  0  0  0  0  0  0  0
   -1.8573   -2.0207    1.8277 H   0  0  0  0  0  0  0  0  0  0  0  0
   -0.2629   -0.9977    3.3540 H   0  0  0  0  0  0  0  0  0  0  0  0
    0.7222   -0.3656    1.9238 H   0  0  0  0  0  0  0  0  0  0  0  0
    1.1638   -0.0823   -2.4791 C   0  0  0  0  0  0  0  0  0  0  0  0
    1.1638   -0.0823   -0.9481 C   0  0  0  0  0  0  0  0  0  0  0  0
    1.1638    1.3059   -0.4014 C   0  0  0  0  0  0  0  0  0  0  0  0
    0.0443    1.9616    0.5462 S   0  0  0  0  0  1  0  0  0  0  0  0
    2.0190    0.4679   -2.8762 H   0  0  0  0  0  0  0  0  0  0  0  0
    1.2146   -1.1032   -2.8578 H   0  0  0  0  0  0  0  0  0  0  0  0
    0.2543    0.3801   -2.8648 H   0  0  0  0  0  0  0  0  0  0  0  0
    0.1362   -0.7416   -0.4794 H   0  0  0  0  0  0  0  0  0  0  0  0
    2.0742   -0.5790   -0.5926 H   0  0  0  0  0  0  0  0  0  0  0  0
    2.0193    1.9112   -0.7117 H   0  0  0  0  0  0  0  0  0  0  0  0
  1  2  2  3
  1  5  1  0
  1  6  1  0
  2  3  1  0
  2 17  1  0
  3  4  2  3
  3  7  1  0
  4  8  1  0
  4  9  1  0
 10 11  1  0
 10 14  1  0
 10 15  1  0
 10 16  1  0
 11 12  2  3
 11 18  1  0
 12 13  1  0
 12 19  1  0
M  RAD  1  13   2
M  END
>  <reaction>  (9) 
rxn_2015

>  <mol_properties>  (9) 
{"1": {"label": "*3", "atom_type": "Cd"}, "2": {"label": "*4", "atom_type": "Cd"}, "10": {"label": "*1", "atom_type": "Cs"}, "11": {"label": "*0", "atom_type": "CS"}, "16": {"label": "*2", "atom_type": "H0"}}

>  <type>  (9) 
unop_5

>  <geom_source>  (9) 
Heuristics

$$$$

     RDKit          3D

 19 17  0  0  0  0  0  0  0  0999 V2000
   -0.2100   -2.5278    1.0617 C   0  0  0  0  0  0  0  0  0  0  0  0
   -0.6572   -1.5815    0.2429 C   0  0  0  0  0  0  0  0  0  0  0  0
   -1.8706   -0.8093    0.4749 C   0  0  0  0  0  0  0  0  0  0  0  0
   -2.3178    0.1370   -0.3439 C   0  0  0  0  0  0  0  0  0  0  0  0
    0.6976   -3.0779    0.8507 H   0  0  0  0  0  0  0  0  0  0  0  0
   -0.7411   -2.7820    1.9724 H   0  0  0  0  0  0  0  0  0  0  0  0
   -2.4250   -1.0415    1.3802 H   0  0  0  0  0  0  0  0  0  0  0  0
   -3.2254    0.6871   -0.1329 H   0  0  0  0  0  0  0  0  0  0  0  0
   -1.7867    0.3912   -1.2546 H   0  0  0  0  0  0  0  0  0  0  0  0
    1.3951   -0.2647   -2.2241 C   0  0  0  0  0  0  0  0  0  0  0  0
    1.3951   -0.2647   -0.6930 C   0  0  0  0  0  0  0  0  0  0  0  0
    1.3951    1.1235   -0.1463 C   0  0  0  0  0  0  0  0  0  0  0  0
    0.2755    1.7792    0.8012 S   0  0  0  0  0  1  0  0  0  0  0  0
    2.2503    0.2855   -2.6212 H   0  0  0  0  0  0  0  0  0  0  0  0
    1.4459   -1.2856   -2.6027 H   0  0  0  0  0  0  0  0  0  0  0  0
    0.4856    0.1977   -2.6097 H   0  0  0  0  0  0  0  0  0  0  0  0
    0.3674   -0.9241   -0.2243 H   0  0  0  0  0  0  0  0  0  0  0  0
    2.3054   -0.7614   -0.3376 H   0  0  0  0  0  0  0  0  0  0  0  0
    2.2505    1.7287   -0.4566 H   0  0  0  0  0  0  0  0  0  0  0  0
  1  2  2  3
  1  5  1  0
  1  6  1  0
  2  3  1  0
  2 17  1  0
  3  4  2  3
  3  7  1  0
  4  8  1  0
  4  9  1  0
 10 11  1  0
 10 14  1  0
 10 15  1  0
 10 16  1  0
 11 12  2  3
 11 18  1  0
 12 13  1  0
 12 19  1  0
M  RAD  1  13   2
M  END
>  <reaction>  (10) 
rxn_2015

>  <mol_properties>  (10) 
{"1": {"label": "*3", "atom_type": "Cd"}, "2": {"label": "*4", "atom_type": "Cd"}, "10": {"label": "*1", "atom_type": "Cs"}, "11": {"label": "*0", "atom_type": "CS"}, "16": {"label": "*2", "atom_type": "H0"}}

>  <type>  (10) 
unop_6

>  <geom_source>  (10) 
Heuristics

$$$$

     RDKit          3D

 19 17  0  0  0  0  0  0  0  0999 V2000
   -0.3124   -2.8116    0.3776 C   0  0  0  0  0  0  0  0  0  0  0  0
   -0.7207   -1.5749    0.1135 C   0  0  0  0  0  0  0  0  0  0  0  0
   -1.6429   -0.8236    0.9546 C   0  0  0  0  0  0  0  0  0  0  0  0
   -2.0511    0.4131    0.6905 C   0  0  0  0  0  0  0  0  0  0  0  0
    0.3745   -3.3338   -0.2754 H   0  0  0  0  0  0  0  0  0  0  0  0
   -0.6548   -3.3417    1.2595 H   0  0  0  0  0  0  0  0  0  0  0  0
   -2.0037   -1.3288    1.8465 H   0  0  0  0  0  0  0  0  0  0  0  0
   -2.7381    0.9353    1.3435 H   0  0  0  0  0  0  0  0  0  0  0  0
   -1.7087    0.9432   -0.1914 H   0  0  0  0  0  0  0  0  0  0  0  0
    1.3316   -0.2581   -2.3535 C   0  0  0  0  0  0  0  0  0  0  0  0
    1.3316   -0.2581   -0.8225 C   0  0  0  0  0  0  0  0  0  0  0  0
    1.3316    1.1301   -0.2758 C   0  0  0  0  0  0  0  0  0  0  0  0
    0.2120    1.7858    0.6718 S   0  0  0  0  0  1  0  0  0  0  0  0
    2.1868    0.2921   -2.7506 H   0  0  0  0  0  0  0  0  0  0  0  0
    1.3824   -1.2790   -2.7322 H   0  0  0  0  0  0  0  0  0  0  0  0
    0.4221    0.2043   -2.7392 H   0  0  0  0  0  0  0  0  0  0  0  0
    0.3039   -0.9175   -0.3538 H   0  0  0  0  0  0  0  0  0  0  0  0
    2.2419   -0.7548   -0.4670 H   0  0  0  0  0  0  0  0  0  0  0  0
    2.1870    1.7354   -0.5861 H   0  0  0  0  0  0  0  0  0  0  0  0
  1  2  2  3
  1  5  1  0
  1  6  1  0
  2  3  1  0
  2 17  1  0
  3  4  2  3
  3  7  1  0
  4  8  1  0
  4  9  1  0
 10 11  1  0
 10 14  1  0
 10 15  1  0
 10 16  1  0
 11 12  2  3
 11 18  1  0
 12 13  1  0
 12 19  1  0
M  RAD  1  13   2
M  END
>  <reaction>  (11) 
rxn_2015

>  <mol_properties>  (11) 
{"1": {"label": "*3", "atom_type": "Cd"}, "2": {"label": "*4", "atom_type": "Cd"}, "10": {"label": "*1", "atom_type": "Cs"}, "11": {"label": "*0", "atom_type": "CS"}, "16": {"label": "*2", "atom_type": "H0"}}

>  <type>  (11) 
unop_7

>  <geom_source>  (11) 
Heuristics

$$$$

     RDKit          3D

 19 17  0  0  0  0  0  0  0  0999 V2000
   -1.6318   -0.3119    1.0617 C   0  0  0  0  0  0  0  0  0  0  0  0
   -0.9579   -1.1128    0.2429 C   0  0  0  0  0  0  0  0  0  0  0  0
   -0.7617   -2.5376    0.4749 C   0  0  0  0  0  0  0  0  0  0  0  0
   -0.0879   -3.3385   -0.3439 C   0  0  0  0  0  0  0  0  0  0  0  0
   -1.7536    0.7424    0.8507 H   0  0  0  0  0  0  0  0  0  0  0  0
   -2.0842   -0.6888    1.9724 H   0  0  0  0  0  0  0  0  0  0  0  0
   -1.2038   -2.9448    1.3802 H   0  0  0  0  0  0  0  0  0  0  0  0
    0.0340   -4.3928   -0.1329 H   0  0  0  0  0  0  0  0  0  0  0  0
    0.3646   -2.9617   -1.2546 H   0  0  0  0  0  0  0  0  0  0  0  0
    1.0944    0.2040   -2.2241 C   0  0  0  0  0  0  0  0  0  0  0  0
    1.0944    0.2040   -0.6930 C   0  0  0  0  0  0  0  0  0  0  0  0
    1.0944    1.5921   -0.1463 C   0  0  0  0  0  0  0  0  0  0  0  0
   -0.0252    2.2478    0.8012 S   0  0  0  0  0  1  0  0  0  0  0  0
    1.9496    0.7541   -2.6212 H   0  0  0  0  0  0  0  0  0  0  0  0
    1.1452   -0.8170   -2.6027 H   0  0  0  0  0  0  0  0  0  0  0  0
    0.1849    0.6663   -2.6097 H   0  0  0  0  0  0  0  0  0  0  0  0
    0.0667   -0.4554   -0.2243 H   0  0  0  0  0  0  0  0  0  0  0  0
    2.0047   -0.2928   -0.3376 H   0  0  0  0  0  0  0  0  0  0  0  0
    1.9498    2.1974   -0.4566 H   0  0  0  0  0  0  0  0  0  0  0  0
  1  2  2  3
  1  5  1  0
  1  6  1  0
  2  3  1  0
  2 17  1  0
  3  4  2  3
  3  7  1  0
  4  8  1  0
  4  9  1  0
 10 11  1  0
 10 14  1  0
 10 15  1  0
 10 16  1  0
 11 12  2  3
 11 18  1  0
 12 13  1  0
 12 19  1  0
M  RAD  1  13   2
M  END
>  <reaction>  (12) 
rxn_2015

>  <mol_properties>  (12) 
{"1": {"label": "*3", "atom_type": "Cd"}, "2": {"label": "*4", "atom_type": "Cd"}, "10": {"label": "*1", "atom_type": "Cs"}, "11": {"label": "*0", "atom_type": "CS"}, "16": {"label": "*2", "atom_type": "H0"}}

>  <type>  (12) 
unop_8

>  <geom_source>  (12) 
Heuristics

$$$$

     RDKit          3D

 19 17  0  0  0  0  0  0  0  0999 V2000
   -0.6407   -1.7327    1.7615 C   0  0  0  0  0  0  0  0  0  0  0  0
   -0.6567   -1.4178    0.4706 C   0  0  0  0  0  0  0  0  0  0  0  0
   -1.8586   -1.4136   -0.3527 C   0  0  0  0  0  0  0  0  0  0  0  0
   -1.8747   -1.0987   -1.6436 C   0  0  0  0  0  0  0  0  0  0  0  0
    0.2760   -1.7229    2.3364 H   0  0  0  0  0  0  0  0  0  0  0  0
   -1.5487   -2.0113    2.2849 H   0  0  0  0  0  0  0  0  0  0  0  0
   -2.7851   -1.6887    0.1441 H   0  0  0  0  0  0  0  0  0  0  0  0
   -2.7914   -1.1086   -2.2185 H   0  0  0  0  0  0  0  0  0  0  0  0
   -0.9666   -0.8201   -2.1670 H   0  0  0  0  0  0  0  0  0  0  0  0
    1.3956   -0.1010   -1.9964 C   0  0  0  0  0  0  0  0  0  0  0  0
    1.3956   -0.1010   -0.4653 C   0  0  0  0  0  0  0  0  0  0  0  0
    1.3956    1.2872    0.0814 C   0  0  0  0  0  0  0  0  0  0  0  0
    0.2760    1.9429    1.0289 S   0  0  0  0  0  1  0  0  0  0  0  0
    2.2508    0.4491   -2.3935 H   0  0  0  0  0  0  0  0  0  0  0  0
    1.4464   -1.1219   -2.3751 H   0  0  0  0  0  0  0  0  0  0  0  0
    0.4861    0.3614   -2.3820 H   0  0  0  0  0  0  0  0  0  0  0  0
    0.3679   -0.7604    0.0033 H   0  0  0  0  0  0  0  0  0  0  0  0
    2.3059   -0.5977   -0.1099 H   0  0  0  0  0  0  0  0  0  0  0  0
    2.2510    1.8924   -0.2290 H   0  0  0  0  0  0  0  0  0  0  0  0
  1  2  2  3
  1  5  1  0
  1  6  1  0
  2  3  1  0
  2 17  1  0
  3  4  2  3
  3  7  1  0
  4  8  1  0
  4  9  1  0
 10 11  1  0
 10 14  1  0
 10 15  1  0
 10 16  1  0
 11 12  2  3
 11 18  1  0
 12 13  1  0
 12 19  1  0
M  RAD  1  13   2
M  END
>  <reaction>  (13) 
rxn_2015

>  <mol_properties>  (13) 
{"1": {"label": "*3", "atom_type": "Cd"}, "2": {"label": "*4", "atom_type": "Cd"}, "10": {"label": "*1", "atom_type": "Cs"}, "11": {"label": "*0", "atom_type": "CS"}, "16": {"label": "*2", "atom_type": "H0"}}

>  <type>  (13) 
unop_9

>  <geom_source>  (13) 
Heuristics

$$$$

     RDKit          3D

 19 17  0  0  0  0  0  0  0  0999 V2000
   -1.3277   -0.6253    1.5313 C   0  0  0  0  0  0  0  0  0  0  0  0
   -0.8959   -1.1152    0.3739 C   0  0  0  0  0  0  0  0  0  0  0  0
   -0.9909   -2.5191   -0.0034 C   0  0  0  0  0  0  0  0  0  0  0  0
   -0.5591   -3.0091   -1.1607 C   0  0  0  0  0  0  0  0  0  0  0  0
   -1.2373    0.4260    1.7713 H   0  0  0  0  0  0  0  0  0  0  0  0
   -1.7871   -1.2644    2.2773 H   0  0  0  0  0  0  0  0  0  0  0  0
   -1.4470   -3.1848    0.7244 H   0  0  0  0  0  0  0  0  0  0  0  0
   -0.6495   -4.0603   -1.4007 H   0  0  0  0  0  0  0  0  0  0  0  0
   -0.0997   -2.3700   -1.9068 H   0  0  0  0  0  0  0  0  0  0  0  0
    1.1564    0.2016   -2.0931 C   0  0  0  0  0  0  0  0  0  0  0  0
    1.1564    0.2016   -0.5620 C   0  0  0  0  0  0  0  0  0  0  0  0
    1.1564    1.5897   -0.0153 C   0  0  0  0  0  0  0  0  0  0  0  0
    0.0369    2.2454    0.9322 S   0  0  0  0  0  1  0  0  0  0  0  0
    2.0116    0.7517   -2.4902 H   0  0  0  0  0  0  0  0  0  0  0  0
    1.2073   -0.8194   -2.4717 H   0  0  0  0  0  0  0  0  0  0  0  0
    0.2469    0.6639   -2.4787 H   0  0  0  0  0  0  0  0  0  0  0  0
    0.1288   -0.4578   -0.0934 H   0  0  0  0  0  0  0  0  0  0  0  0
    2.0668   -0.2951   -0.2066 H   0  0  0  0  0  0  0  0  0  0  0  0
    2.0119    2.1950   -0.3257 H   0  0  0  0  0  0  0  0  0  0  0  0
  1  2  2  3
  1  5  1  0
  1  6  1  0
  2  3  1  0
  2 17  1  0
  3  4  2  3
  3  7  1  0
  4  8  1  0
  4  9  1  0
 10 11  1  0
 10 14  1  0
 10 15  1  0
 10 16  1  0
 11 12  2  3
 11 18  1  0
 12 13  1  0
 12 19  1  0
M  RAD  1  13   2
M  END
>  <reaction>  (14) 
rxn_2015

>  <mol_properties>  (14) 
{"1": {"label": "*3", "atom_type": "Cd"}, "2": {"label": "*4", "atom_type": "Cd"}, "10": {"label": "*1", "atom_type": "Cs"}, "11": {"label": "*0", "atom_type": "CS"}, "16": {"label": "*2", "atom_type": "H0"}}

>  <type>  (14) 
unop_10

>  <geom_source>  (14) 
Heuristics

$$$$

     RDKit          3D

 19 17  0  0  0  0  0  0  0  0999 V2000
   -0.8237   -2.7689   -0.3954 C   0  0  0  0  0  0  0  0  0  0  0  0
   -0.8057   -1.5069    0.0206 C   0  0  0  0  0  0  0  0  0  0  0  0
   -1.3258   -1.0653    1.3078 C   0  0  0  0  0  0  0  0  0  0  0  0
   -1.3079    0.1967    1.7237 C   0  0  0  0  0  0  0  0  0  0  0  0
   -0.4260   -3.0537   -1.3606 H   0  0  0  0  0  0  0  0  0  0  0  0
   -1.2389   -3.5592    0.2203 H   0  0  0  0  0  0  0  0  0  0  0  0
   -1.7488   -1.8352    1.9475 H   0  0  0  0  0  0  0  0  0  0  0  0
   -1.7056    0.4815    2.6890 H   0  0  0  0  0  0  0  0  0  0  0  0
   -0.8926    0.9870    1.1081 H   0  0  0  0  0  0  0  0  0  0  0  0
    1.2466   -0.1901   -2.4464 C   0  0  0  0  0  0  0  0  0  0  0  0
    1.2466   -0.1901   -0.9153 C   0  0  0  0  0  0  0  0  0  0  0  0
    1.2466    1.1980   -0.3686 C   0  0  0  0  0  0  0  0  0  0  0  0
    0.1270    1.8537    0.5789 S   0  0  0  0  0  1  0  0  0  0  0  0
    2.1018    0.3600   -2.8435 H   0  0  0  0  0  0  0  0  0  0  0  0
    1.2974   -1.2111   -2.8251 H   0  0  0  0  0  0  0  0  0  0  0  0
    0.3371    0.2722   -2.8320 H   0  0  0  0  0  0  0  0  0  0  0  0
    0.2189   -0.8495   -0.4467 H   0  0  0  0  0  0  0  0  0  0  0  0
    2.1569   -0.6868   -0.5599 H   0  0  0  0  0  0  0  0  0  0  0  0
    2.1020    1.8033   -0.6790 H   0  0  0  0  0  0  0  0  0  0  0  0
  1  2  2  3
  1  5  1  0
  1  6  1  0
  2  3  1  0
  2 17  1  0
  3  4  2  3
  3  7  1  0
  4  8  1  0
  4  9  1  0
 10 11  1  0
 10 14  1  0
 10 15  1  0
 10 16  1  0
 11 12  2  3
 11 18  1  0
 12 13  1  0
 12 19  1  0
M  RAD  1  13   2
M  END
>  <reaction>  (15) 
rxn_2015

>  <mol_properties>  (15) 
{"1": {"label": "*3", "atom_type": "Cd"}, "2": {"label": "*4", "atom_type": "Cd"}, "10": {"label": "*1", "atom_type": "Cs"}, "11": {"label": "*0", "atom_type": "CS"}, "16": {"label": "*2", "atom_type": "H0"}}

>  <type>  (15) 
unop_11

>  <geom_source>  (15) 
Heuristics

$$$$

     RDKit          3D

 19 17  0  0  0  0  0  0  0  0999 V2000
   -0.8882   -1.3989    1.8201 C   0  0  0  0  0  0  0  0  0  0  0  0
   -0.7210   -1.2916    0.5062 C   0  0  0  0  0  0  0  0  0  0  0  0
   -1.6233   -1.8705   -0.4804 C   0  0  0  0  0  0  0  0  0  0  0  0
   -1.4561   -1.7633   -1.7943 C   0  0  0  0  0  0  0  0  0  0  0  0
   -0.1926   -0.9526    2.5187 H   0  0  0  0  0  0  0  0  0  0  0  0
   -1.7301   -1.9391    2.2388 H   0  0  0  0  0  0  0  0  0  0  0  0
   -2.4771   -2.4184   -0.0910 H   0  0  0  0  0  0  0  0  0  0  0  0
   -2.1517   -2.2096   -2.4928 H   0  0  0  0  0  0  0  0  0  0  0  0
   -0.6141   -1.2231   -2.2130 H   0  0  0  0  0  0  0  0  0  0  0  0
    1.3313    0.0252   -1.9608 C   0  0  0  0  0  0  0  0  0  0  0  0
    1.3313    0.0252   -0.4298 C   0  0  0  0  0  0  0  0  0  0  0  0
    1.3313    1.4133    0.1169 C   0  0  0  0  0  0  0  0  0  0  0  0
    0.2117    2.0690    1.0645 S   0  0  0  0  0  1  0  0  0  0  0  0
    2.1865    0.5753   -2.3579 H   0  0  0  0  0  0  0  0  0  0  0  0
    1.3821   -0.9958   -2.3395 H   0  0  0  0  0  0  0  0  0  0  0  0
    0.4218    0.4875   -2.3465 H   0  0  0  0  0  0  0  0  0  0  0  0
    0.3036   -0.6342    0.0389 H   0  0  0  0  0  0  0  0  0  0  0  0
    2.2416   -0.4716   -0.0743 H   0  0  0  0  0  0  0  0  0  0  0  0
    2.1867    2.0186   -0.1934 H   0  0  0  0  0  0  0  0  0  0  0  0
  1  2  2  3
  1  5  1  0
  1  6  1  0
  2  3  1  0
  2 17  1  0
  3  4  2  3
  3  7  1  0
  4  8  1  0
  4  9  1  0
 10 11  1  0
 10 14  1  0
 10 15  1  0
 10 16  1  0
 11 12  2  3
 11 18  1  0
 12 13  1  0
 12 19  1  0
M  RAD  1  13   2
M  END
>  <reaction>  (16) 
rxn_2015

>  <mol_properties>  (16) 
{"1": {"label": "*3", "atom_type": "Cd"}, "2": {"label": "*4", "atom_type": "Cd"}, "10": {"label": "*1", "atom_type": "Cs"}, "11": {"label": "*0", "atom_type": "CS"}, "16": {"label": "*2", "atom_type": "H0"}}

>  <type>  (16) 
unop_12

>  <geom_source>  (16) 
Heuristics

$$$$

     RDKit          3D

 19 17  0  0  0  0  0  0  0  0999 V2000
   -1.1576   -1.0055    2.2536 S   0  0  0  0  0  1  0  0  0  0  0  0
   -2.4094    0.4333   -1.0801 C   0  0  0  0  0  0  0  0  0  0  0  0
   -1.5067    0.3673    0.1450 C   0  0  0  0  0  0  0  0  0  0  0  0
    1.8899    0.8257    0.4193 C   0  0  0  0  0  0  0  0  0  0  0  0
    1.0097   -0.1391   -0.2762 C   0  0  0  0  0  0  0  0  0  0  0  0
   -1.9701   -0.6745    1.1190 C   0  0  0  0  0  0  0  0  0  0  0  0
    3.1828    0.6287    0.6839 C   0  0  0  0  0  0  0  0  0  0  0  0
    1.3916   -1.3334   -0.7309 C   0  0  0  0  0  0  0  0  0  0  0  0
   -2.4230   -0.5494   -1.5974 H   0  0  0  0  0  0  0  0  0  0  0  0
   -3.4434    0.7115   -0.7838 H   0  0  0  0  0  0  0  0  0  0  0  0
   -2.0188    1.1986   -1.7827 H   0  0  0  0  0  0  0  0  0  0  0  0
   -1.4717    1.3632    0.6384 H   0  0  0  0  0  0  0  0  0  0  0  0
    1.4437    1.7604    0.7345 H   0  0  0  0  0  0  0  0  0  0  0  0
   -0.1456    0.1870   -0.4422 H   0  0  0  0  0  0  0  0  0  0  0  0
    3.7444    1.3970    1.1993 H   0  0  0  0  0  0  0  0  0  0  0  0
    3.7057   -0.2737    0.4050 H   0  0  0  0  0  0  0  0  0  0  0  0
    2.4000   -1.7045   -0.6265 H   0  0  0  0  0  0  0  0  0  0  0  0
    0.6692   -1.9674   -1.2276 H   0  0  0  0  0  0  0  0  0  0  0  0
   -2.8908   -1.2251    0.9494 H   0  0  0  0  0  0  0  0  0  0  0  0
  1  6  1  0
  2  3  1  0
  2  9  1  0
  2 10  1  0
  2 11  1  0
  3  6  2  3
  3 12  1  0
  4  7  2  3
  4  5  1  0
  4 13  1  0
  5  8  2  3
  5 14  1  0
  6 19  1  0
  7 15  1  0
  7 16  1  0
  8 17  1  0
  8 18  1  0
M  RAD  1   1   2
M  END
>  <reaction>  (17) 
rxn_2015

>  <mol_properties>  (17) 
{"1": {"label": "*3", "atom_type": "Cd"}, "2": {"label": "*4", "atom_type": "Cd"}, "10": {"label": "*1", "atom_type": "Cs"}, "11": {"label": "*0", "atom_type": "CS"}, "16": {"label": "*2", "atom_type": "H0"}}

>  <type>  (17) 
unop_13

>  <geom_source>  (17) 
AutoTST

$$$$
