
     RDKit          3D

  7  6  0  0  0  0  0  0  0  0999 V2000
   -0.6782    0.0507    0.0301 C   0  0  0  0  0  0  0  0  0  0  0  0
    0.8092    0.0996    0.0213 C   0  0  0  0  0  0  0  0  0  0  0  0
    1.7473    0.7521    1.1507 S   0  0  0  0  0  0  0  0  0  0  0  0
   -1.0667    0.5456   -0.8653 H   0  0  0  0  0  0  0  0  0  0  0  0
   -1.0112   -0.9904   -0.0239 H   0  0  0  0  0  0  0  0  0  0  0  0
   -1.0920    0.5225    0.9188 H   0  0  0  0  0  0  0  0  0  0  0  0
    1.2740   -0.3620   -0.8520 H   0  0  0  0  0  0  0  0  0  0  0  0
  1  2  1  0
  1  4  1  0
  1  5  1  0
  1  6  1  0
  2  3  2  0
  2  7  1  0
M  END
>  <reaction>  (1) 
rxn_1974

>  <mol_properties>  (1) 
{"0": {"label": "donator", "atom_type": "Cs"}, "3": {"label": "d_hydrogen", "atom_type": "H0"}}

>  <type>  (1) 
r1h

$$$$

     RDKit          3D

  5  4  0  0  0  0  0  0  0  0999 V2000
   -0.5642    0.0794    0.0348 C   0  0  0  0  0  3  0  0  0  0  0  0
    1.0624    0.5420    0.2853 S   0  0  0  0  0  0  0  0  0  0  0  0
   -1.3257    0.7631    0.3741 H   0  0  0  0  0  0  0  0  0  0  0  0
   -0.8236   -0.8519   -0.4401 H   0  0  0  0  0  0  0  0  0  0  0  0
    1.6511   -0.5325   -0.2540 H   0  0  0  0  0  0  0  0  0  0  0  0
  1  2  1  0
  1  3  1  0
  1  4  1  0
  2  5  1  0
M  RAD  1   1   2
M  END
>  <reaction>  (2) 
rxn_1974

>  <mol_properties>  (2) 
{"0": {"label": "acceptor", "atom_type": "Cs"}}

>  <type>  (2) 
r2

$$$$

     RDKit          3D

  6  5  0  0  0  0  0  0  0  0999 V2000
   -0.5072   -0.0291   -0.0097 C   0  0  0  0  0  0  0  0  0  0  0  0
    1.1321   -0.1527   -0.7687 S   0  0  0  0  0  0  0  0  0  0  0  0
   -0.6174   -0.7330    0.8127 H   0  0  0  0  0  0  0  0  0  0  0  0
   -0.5863    0.9827    0.3845 H   0  0  0  0  0  0  0  0  0  0  0  0
   -1.2962   -0.1800   -0.7434 H   0  0  0  0  0  0  0  0  0  0  0  0
    1.0312   -1.4237   -1.1764 H   0  0  0  0  0  0  0  0  0  0  0  0
  1  2  1  0
  1  3  1  0
  1  4  1  0
  1  5  1  0
  2  6  1  0
M  END
>  <reaction>  (3) 
rxn_1974

>  <mol_properties>  (3) 
{"0": {"label": "acceptor", "atom_type": "Cs"}, "5": {"label": "a_hydrogen", "atom_type": "H0"}}

>  <type>  (3) 
r2h

$$$$

     RDKit          3D

 12 10  0  0  0  0  0  0  0  0999 V2000
   -0.7403    0.8471    1.8492 C   0  0  0  0  0  3  0  0  0  0  0  0
   -1.8599   -0.3218    1.2125 S   0  0  0  0  0  0  0  0  0  0  0  0
   -0.6029    0.7424    2.9205 H   0  0  0  0  0  0  0  0  0  0  0  0
   -0.8514    1.8685    1.5026 H   0  0  0  0  0  0  0  0  0  0  0  0
   -1.9439    0.1756   -0.0288 H   0  0  0  0  0  0  0  0  0  0  0  0
    1.6377    0.2817    0.6724 C   0  0  0  0  0  0  0  0  0  0  0  0
    1.2132   -0.4285   -0.5028 C   0  0  0  0  0  0  0  0  0  0  0  0
    0.7040    0.2699   -1.8904 S   0  0  0  0  0  0  0  0  0  0  0  0
    0.5513    0.5106    1.2980 H   0  0  0  0  0  0  0  0  0  0  0  0
    2.2251   -0.2890    1.3889 H   0  0  0  0  0  0  0  0  0  0  0  0
    2.0033    1.2908    0.4994 H   0  0  0  0  0  0  0  0  0  0  0  0
    1.1754   -1.5140   -0.4181 H   0  0  0  0  0  0  0  0  0  0  0  0
  1  2  1  0
  1  3  1  0
  1  4  1  0
  2  5  1  0
  6  7  1  0
  6  9  1  0
  6 10  1  0
  6 11  1  0
  7  8  2  0
  7 12  1  0
M  RAD  1   1   2
M  END
>  <reaction>  (4) 
rxn_1974

>  <mol_properties>  (4) 
{"0": {"label": "*3", "atom_type": "Cs"}, "1": {"label": "*4", "atom_type": "S2s"}, "5": {"label": "*1", "atom_type": "Cs"}, "6": {"label": "*0", "atom_type": "CS"}, "8": {"label": "*2", "atom_type": "H0"}}

>  <type>  (4) 
ts

$$$$

     RDKit          3D

 12 10  0  0  0  0  0  0  0  0999 V2000
   -1.3120    0.4813    1.1816 C   0  0  0  0  0  0  0  0  0  0  0  0
   -0.8302    0.4576    2.9268 S   0  0  0  0  0  0  0  0  0  0  0  0
   -1.2060    1.5126    0.8489 H   0  0  0  0  0  0  0  0  0  0  0  0
   -2.3489    0.1784    1.0523 H   0  0  0  0  0  0  0  0  0  0  0  0
   -1.0242   -0.8504    3.1351 H   0  0  0  0  0  0  0  0  0  0  0  0
    0.7846    0.5457   -0.3864 C   0  0  0  0  0  0  0  0  0  0  0  0
    0.7846   -0.6528   -1.2686 C   0  0  0  0  0  0  0  0  0  0  0  0
    0.7846   -0.6528   -2.8753 S   0  0  0  0  0  1  0  0  0  0  0  0
   -0.2667    0.5134    0.3999 H   0  0  0  0  0  0  0  0  0  0  0  0
    1.6608    0.5188    0.2688 H   0  0  0  0  0  0  0  0  0  0  0  0
    0.7846    1.4695   -0.9611 H   0  0  0  0  0  0  0  0  0  0  0  0
    0.7846   -1.6072   -0.7387 H   0  0  0  0  0  0  0  0  0  0  0  0
  1  2  1  0
  1  3  1  0
  1  4  1  0
  1  9  1  0
  2  5  1  0
  6  7  2  3
  6 10  1  0
  6 11  1  0
  7  8  1  0
  7 12  1  0
M  RAD  1   8   2
M  END
>  <reaction>  (5) 
rxn_1974

>  <mol_properties>  (5) 
{"0": {"label": "*3", "atom_type": "Cs"}, "1": {"label": "*4", "atom_type": "S2s"}, "5": {"label": "*1", "atom_type": "Cs"}, "6": {"label": "*0", "atom_type": "CS"}, "8": {"label": "*2", "atom_type": "H0"}}

>  <type>  (5) 
unop_1

>  <geom_source>  (5) 
Heuristics

$$$$

     RDKit          3D

 12 10  0  0  0  0  0  0  0  0999 V2000
   -1.0111    0.9859    1.6087 C   0  0  0  0  0  0  0  0  0  0  0  0
   -1.5107   -0.7159    1.9729 S   0  0  0  0  0  0  0  0  0  0  0  0
   -0.4489    1.3317    2.4746 H   0  0  0  0  0  0  0  0  0  0  0  0
   -1.8756    1.6326    1.4737 H   0  0  0  0  0  0  0  0  0  0  0  0
   -2.1639   -0.9463    0.8275 H   0  0  0  0  0  0  0  0  0  0  0  0
    1.0855    1.0503    0.0407 C   0  0  0  0  0  0  0  0  0  0  0  0
    1.0855   -0.1482   -0.8414 C   0  0  0  0  0  0  0  0  0  0  0  0
    1.0855   -0.1482   -2.4481 S   0  0  0  0  0  1  0  0  0  0  0  0
    0.0341    1.0180    0.8270 H   0  0  0  0  0  0  0  0  0  0  0  0
    1.9616    1.0234    0.6960 H   0  0  0  0  0  0  0  0  0  0  0  0
    1.0855    1.9741   -0.5339 H   0  0  0  0  0  0  0  0  0  0  0  0
    1.0855   -1.1026   -0.3115 H   0  0  0  0  0  0  0  0  0  0  0  0
  1  2  1  0
  1  3  1  0
  1  4  1  0
  1  9  1  0
  2  5  1  0
  6  7  2  3
  6 10  1  0
  6 11  1  0
  7  8  1  0
  7 12  1  0
M  RAD  1   8   2
M  END
>  <reaction>  (6) 
rxn_1974

>  <mol_properties>  (6) 
{"0": {"label": "*3", "atom_type": "Cs"}, "1": {"label": "*4", "atom_type": "S2s"}, "5": {"label": "*1", "atom_type": "Cs"}, "6": {"label": "*0", "atom_type": "CS"}, "8": {"label": "*2", "atom_type": "H0"}}

>  <type>  (6) 
unop_2

>  <geom_source>  (6) 
Heuristics

$$$$

     RDKit          3D

 12 10  0  0  0  0  0  0  0  0999 V2000
   -1.2698    0.2259    1.2293 C   0  0  0  0  0  0  0  0  0  0  0  0
   -0.9377    1.0460    2.8091 S   0  0  0  0  0  0  0  0  0  0  0  0
   -1.6402    0.9973    0.5561 H   0  0  0  0  0  0  0  0  0  0  0  0
   -2.0339   -0.5415    1.3339 H   0  0  0  0  0  0  0  0  0  0  0  0
   -0.5077   -0.0353    3.4707 H   0  0  0  0  0  0  0  0  0  0  0  0
    0.8268    0.2903   -0.3387 C   0  0  0  0  0  0  0  0  0  0  0  0
    0.8268   -0.9082   -1.2209 C   0  0  0  0  0  0  0  0  0  0  0  0
    0.8268   -0.9082   -2.8276 S   0  0  0  0  0  1  0  0  0  0  0  0
   -0.2246    0.2580    0.4476 H   0  0  0  0  0  0  0  0  0  0  0  0
    1.7029    0.2634    0.3165 H   0  0  0  0  0  0  0  0  0  0  0  0
    0.8268    1.2141   -0.9134 H   0  0  0  0  0  0  0  0  0  0  0  0
    0.8268   -1.8626   -0.6910 H   0  0  0  0  0  0  0  0  0  0  0  0
  1  2  1  0
  1  3  1  0
  1  4  1  0
  1  9  1  0
  2  5  1  0
  6  7  2  3
  6 10  1  0
  6 11  1  0
  7  8  1  0
  7 12  1  0
M  RAD  1   8   2
M  END
>  <reaction>  (7) 
rxn_1974

>  <mol_properties>  (7) 
{"0": {"label": "*3", "atom_type": "Cs"}, "1": {"label": "*4", "atom_type": "S2s"}, "5": {"label": "*1", "atom_type": "Cs"}, "6": {"label": "*0", "atom_type": "CS"}, "8": {"label": "*2", "atom_type": "H0"}}

>  <type>  (7) 
unop_3

>  <geom_source>  (7) 
Heuristics

$$$$

     RDKit          3D

 12 10  0  0  0  0  0  0  0  0999 V2000
   -0.7051    0.4603    2.0103 C   0  0  0  0  0  0  0  0  0  0  0  0
   -2.2434    0.4516    1.0552 S   0  0  0  0  0  0  0  0  0  0  0  0
   -0.9134   -0.0827    2.9308 H   0  0  0  0  0  0  0  0  0  0  0  0
   -0.4021    1.4738    2.2647 H   0  0  0  0  0  0  0  0  0  0  0  0
   -1.7895    1.1429    0.0026 H   0  0  0  0  0  0  0  0  0  0  0  0
    1.3915    0.5247    0.4423 C   0  0  0  0  0  0  0  0  0  0  0  0
    1.3915   -0.6738   -0.4399 C   0  0  0  0  0  0  0  0  0  0  0  0
    1.3915   -0.6738   -2.0465 S   0  0  0  0  0  1  0  0  0  0  0  0
    0.3401    0.4924    1.2286 H   0  0  0  0  0  0  0  0  0  0  0  0
    2.2676    0.4978    1.0975 H   0  0  0  0  0  0  0  0  0  0  0  0
    1.3914    1.4484   -0.1323 H   0  0  0  0  0  0  0  0  0  0  0  0
    1.3915   -1.6282    0.0901 H   0  0  0  0  0  0  0  0  0  0  0  0
  1  2  1  0
  1  3  1  0
  1  4  1  0
  1  9  1  0
  2  5  1  0
  6  7  2  3
  6 10  1  0
  6 11  1  0
  7  8  1  0
  7 12  1  0
M  RAD  1   8   2
M  END
>  <reaction>  (8) 
rxn_1974

>  <mol_properties>  (8) 
{"0": {"label": "*3", "atom_type": "Cs"}, "1": {"label": "*4", "atom_type": "S2s"}, "5": {"label": "*1", "atom_type": "Cs"}, "6": {"label": "*0", "atom_type": "CS"}, "8": {"label": "*2", "atom_type": "H0"}}

>  <type>  (8) 
unop_4

>  <geom_source>  (8) 
Heuristics

$$$$

     RDKit          3D

 12 10  0  0  0  0  0  0  0  0999 V2000
   -1.1614    0.0353    1.3734 C   0  0  0  0  0  0  0  0  0  0  0  0
   -1.2095    1.4751    2.4703 S   0  0  0  0  0  0  0  0  0  0  0  0
   -2.0584    0.0890    0.7586 H   0  0  0  0  0  0  0  0  0  0  0  0
   -1.1813   -0.8943    1.9383 H   0  0  0  0  0  0  0  0  0  0  0  0
   -0.0634    1.2300    3.1170 H   0  0  0  0  0  0  0  0  0  0  0  0
    0.9352    0.0997   -0.1946 C   0  0  0  0  0  0  0  0  0  0  0  0
    0.9352   -1.0988   -1.0768 C   0  0  0  0  0  0  0  0  0  0  0  0
    0.9352   -1.0988   -2.6835 S   0  0  0  0  0  1  0  0  0  0  0  0
   -0.1162    0.0674    0.5917 H   0  0  0  0  0  0  0  0  0  0  0  0
    1.8113    0.0728    0.4606 H   0  0  0  0  0  0  0  0  0  0  0  0
    0.9351    1.0235   -0.7693 H   0  0  0  0  0  0  0  0  0  0  0  0
    0.9352   -2.0532   -0.5469 H   0  0  0  0  0  0  0  0  0  0  0  0
  1  2  1  0
  1  3  1  0
  1  4  1  0
  1  9  1  0
  2  5  1  0
  6  7  2  3
  6 10  1  0
  6 11  1  0
  7  8  1  0
  7 12  1  0
M  RAD  1   8   2
M  END
>  <reaction>  (9) 
rxn_1974

>  <mol_properties>  (9) 
{"0": {"label": "*3", "atom_type": "Cs"}, "1": {"label": "*4", "atom_type": "S2s"}, "5": {"label": "*1", "atom_type": "Cs"}, "6": {"label": "*0", "atom_type": "CS"}, "8": {"label": "*2", "atom_type": "H0"}}

>  <type>  (9) 
unop_5

>  <geom_source>  (9) 
Heuristics

$$$$

     RDKit          3D

 12 10  0  0  0  0  0  0  0  0999 V2000
   -0.7461    0.2043    1.9473 C   0  0  0  0  0  0  0  0  0  0  0  0
   -2.1633    1.0374    1.1885 S   0  0  0  0  0  0  0  0  0  0  0  0
   -1.1546   -0.4790    2.6901 H   0  0  0  0  0  0  0  0  0  0  0  0
   -0.0913    0.9136    2.4491 H   0  0  0  0  0  0  0  0  0  0  0  0
   -1.4700    1.8036    0.3375 H   0  0  0  0  0  0  0  0  0  0  0  0
    1.3505    0.2687    0.3793 C   0  0  0  0  0  0  0  0  0  0  0  0
    1.3505   -0.9298   -0.5029 C   0  0  0  0  0  0  0  0  0  0  0  0
    1.3505   -0.9298   -2.1096 S   0  0  0  0  0  1  0  0  0  0  0  0
    0.2991    0.2364    1.1656 H   0  0  0  0  0  0  0  0  0  0  0  0
    2.2266    0.2418    1.0345 H   0  0  0  0  0  0  0  0  0  0  0  0
    1.3505    1.1925   -0.1954 H   0  0  0  0  0  0  0  0  0  0  0  0
    1.3505   -1.8842    0.0270 H   0  0  0  0  0  0  0  0  0  0  0  0
  1  2  1  0
  1  3  1  0
  1  4  1  0
  1  9  1  0
  2  5  1  0
  6  7  2  3
  6 10  1  0
  6 11  1  0
  7  8  1  0
  7 12  1  0
M  RAD  1   8   2
M  END
>  <reaction>  (10) 
rxn_1974

>  <mol_properties>  (10) 
{"0": {"label": "*3", "atom_type": "Cs"}, "1": {"label": "*4", "atom_type": "S2s"}, "5": {"label": "*1", "atom_type": "Cs"}, "6": {"label": "*0", "atom_type": "CS"}, "8": {"label": "*2", "atom_type": "H0"}}

>  <type>  (10) 
unop_6

>  <geom_source>  (10) 
Heuristics

$$$$

     RDKit          3D

 12 10  0  0  0  0  0  0  0  0999 V2000
   -0.8585    0.0201    1.7896 C   0  0  0  0  0  0  0  0  0  0  0  0
   -1.9165    1.4674    1.5363 S   0  0  0  0  0  0  0  0  0  0  0  0
   -1.4900   -0.7461    2.2363 H   0  0  0  0  0  0  0  0  0  0  0  0
   -0.0417    0.2409    2.4736 H   0  0  0  0  0  0  0  0  0  0  0  0
   -0.9838    2.2635    0.9995 H   0  0  0  0  0  0  0  0  0  0  0  0
    1.2381    0.0845    0.2216 C   0  0  0  0  0  0  0  0  0  0  0  0
    1.2381   -1.1140   -0.6606 C   0  0  0  0  0  0  0  0  0  0  0  0
    1.2381   -1.1140   -2.2673 S   0  0  0  0  0  1  0  0  0  0  0  0
    0.1867    0.0522    1.0079 H   0  0  0  0  0  0  0  0  0  0  0  0
    2.1142    0.0576    0.8768 H   0  0  0  0  0  0  0  0  0  0  0  0
    1.2381    1.0082   -0.3531 H   0  0  0  0  0  0  0  0  0  0  0  0
    1.2381   -2.0684   -0.1307 H   0  0  0  0  0  0  0  0  0  0  0  0
  1  2  1  0
  1  3  1  0
  1  4  1  0
  1  9  1  0
  2  5  1  0
  6  7  2  3
  6 10  1  0
  6 11  1  0
  7  8  1  0
  7 12  1  0
M  RAD  1   8   2
M  END
>  <reaction>  (11) 
rxn_1974

>  <mol_properties>  (11) 
{"0": {"label": "*3", "atom_type": "Cs"}, "1": {"label": "*4", "atom_type": "S2s"}, "5": {"label": "*1", "atom_type": "Cs"}, "6": {"label": "*0", "atom_type": "CS"}, "8": {"label": "*2", "atom_type": "H0"}}

>  <type>  (11) 
unop_7

>  <geom_source>  (11) 
Heuristics

$$$$

     RDKit          3D

 12 10  0  0  0  0  0  0  0  0999 V2000
   -1.2737    0.7361    1.2433 C   0  0  0  0  0  0  0  0  0  0  0  0
   -0.9129   -0.1295    2.7922 S   0  0  0  0  0  0  0  0  0  0  0  0
   -0.8522    1.7347    1.3455 H   0  0  0  0  0  0  0  0  0  0  0  0
   -2.3456    0.8253    1.0793 H   0  0  0  0  0  0  0  0  0  0  0  0
   -1.4930   -1.2926    2.4718 H   0  0  0  0  0  0  0  0  0  0  0  0
    0.8229    0.8004   -0.3247 C   0  0  0  0  0  0  0  0  0  0  0  0
    0.8229   -0.3980   -1.2069 C   0  0  0  0  0  0  0  0  0  0  0  0
    0.8229   -0.3980   -2.8136 S   0  0  0  0  0  1  0  0  0  0  0  0
   -0.2285    0.7681    0.4616 H   0  0  0  0  0  0  0  0  0  0  0  0
    1.6990    0.7735    0.3305 H   0  0  0  0  0  0  0  0  0  0  0  0
    0.8229    1.7242   -0.8994 H   0  0  0  0  0  0  0  0  0  0  0  0
    0.8229   -1.3525   -0.6770 H   0  0  0  0  0  0  0  0  0  0  0  0
  1  2  1  0
  1  3  1  0
  1  4  1  0
  1  9  1  0
  2  5  1  0
  6  7  2  3
  6 10  1  0
  6 11  1  0
  7  8  1  0
  7 12  1  0
M  RAD  1   8   2
M  END
>  <reaction>  (12) 
rxn_1974

>  <mol_properties>  (12) 
{"0": {"label": "*3", "atom_type": "Cs"}, "1": {"label": "*4", "atom_type": "S2s"}, "5": {"label": "*1", "atom_type": "Cs"}, "6": {"label": "*0", "atom_type": "CS"}, "8": {"label": "*2", "atom_type": "H0"}}

>  <type>  (12) 
unop_8

>  <geom_source>  (12) 
Heuristics

$$$$

     RDKit          3D

 12 10  0  0  0  0  0  0  0  0999 V2000
   -0.7461    0.7193    1.9620 C   0  0  0  0  0  0  0  0  0  0  0  0
   -2.1347   -0.1332    1.1724 S   0  0  0  0  0  0  0  0  0  0  0  0
   -0.7075    0.3560    2.9877 H   0  0  0  0  0  0  0  0  0  0  0  0
   -0.9002    1.7962    1.9794 H   0  0  0  0  0  0  0  0  0  0  0  0
   -2.0133    0.4333   -0.0343 H   0  0  0  0  0  0  0  0  0  0  0  0
    1.3504    0.7836    0.3940 C   0  0  0  0  0  0  0  0  0  0  0  0
    1.3504   -0.4148   -0.4882 C   0  0  0  0  0  0  0  0  0  0  0  0
    1.3504   -0.4148   -2.0948 S   0  0  0  0  0  1  0  0  0  0  0  0
    0.2991    0.7513    1.1803 H   0  0  0  0  0  0  0  0  0  0  0  0
    2.2266    0.7567    1.0492 H   0  0  0  0  0  0  0  0  0  0  0  0
    1.3504    1.7074   -0.1806 H   0  0  0  0  0  0  0  0  0  0  0  0
    1.3504   -1.3693    0.0418 H   0  0  0  0  0  0  0  0  0  0  0  0
  1  2  1  0
  1  3  1  0
  1  4  1  0
  1  9  1  0
  2  5  1  0
  6  7  2  3
  6 10  1  0
  6 11  1  0
  7  8  1  0
  7 12  1  0
M  RAD  1   8   2
M  END
>  <reaction>  (13) 
rxn_1974

>  <mol_properties>  (13) 
{"0": {"label": "*3", "atom_type": "Cs"}, "1": {"label": "*4", "atom_type": "S2s"}, "5": {"label": "*1", "atom_type": "Cs"}, "6": {"label": "*0", "atom_type": "CS"}, "8": {"label": "*2", "atom_type": "H0"}}

>  <type>  (13) 
unop_9

>  <geom_source>  (13) 
Heuristics

$$$$

     RDKit          3D

 12 10  0  0  0  0  0  0  0  0999 V2000
   -1.1636    0.9212    1.3994 C   0  0  0  0  0  0  0  0  0  0  0  0
   -1.1620   -0.5585    2.4428 S   0  0  0  0  0  0  0  0  0  0  0  0
   -0.5760    1.6695    1.9288 H   0  0  0  0  0  0  0  0  0  0  0  0
   -2.1715    1.3057    1.2581 H   0  0  0  0  0  0  0  0  0  0  0  0
   -1.9091   -1.3279    1.6416 H   0  0  0  0  0  0  0  0  0  0  0  0
    0.9330    0.9856   -0.1686 C   0  0  0  0  0  0  0  0  0  0  0  0
    0.9330   -0.2129   -1.0508 C   0  0  0  0  0  0  0  0  0  0  0  0
    0.9330   -0.2129   -2.6575 S   0  0  0  0  0  1  0  0  0  0  0  0
   -0.1183    0.9533    0.6177 H   0  0  0  0  0  0  0  0  0  0  0  0
    1.8092    0.9587    0.4866 H   0  0  0  0  0  0  0  0  0  0  0  0
    0.9330    1.9094   -0.7433 H   0  0  0  0  0  0  0  0  0  0  0  0
    0.9330   -1.1673   -0.5209 H   0  0  0  0  0  0  0  0  0  0  0  0
  1  2  1  0
  1  3  1  0
  1  4  1  0
  1  9  1  0
  2  5  1  0
  6  7  2  3
  6 10  1  0
  6 11  1  0
  7  8  1  0
  7 12  1  0
M  RAD  1   8   2
M  END
>  <reaction>  (14) 
rxn_1974

>  <mol_properties>  (14) 
{"0": {"label": "*3", "atom_type": "Cs"}, "1": {"label": "*4", "atom_type": "S2s"}, "5": {"label": "*1", "atom_type": "Cs"}, "6": {"label": "*0", "atom_type": "CS"}, "8": {"label": "*2", "atom_type": "H0"}}

>  <type>  (14) 
unop_10

>  <geom_source>  (14) 
Heuristics

$$$$

     RDKit          3D

 12 10  0  0  0  0  0  0  0  0999 V2000
   -1.0117   -0.0419    1.5790 C   0  0  0  0  0  0  0  0  0  0  0  0
   -1.5686    1.6275    2.0050 S   0  0  0  0  0  0  0  0  0  0  0  0
   -1.9058   -0.6618    1.5390 H   0  0  0  0  0  0  0  0  0  0  0  0
   -0.3435   -0.4428    2.3384 H   0  0  0  0  0  0  0  0  0  0  0  0
   -0.3635    2.2104    2.0036 H   0  0  0  0  0  0  0  0  0  0  0  0
    1.0849    0.0225    0.0111 C   0  0  0  0  0  0  0  0  0  0  0  0
    1.0849   -1.1760   -0.8711 C   0  0  0  0  0  0  0  0  0  0  0  0
    1.0849   -1.1760   -2.4778 S   0  0  0  0  0  1  0  0  0  0  0  0
    0.0336   -0.0098    0.7973 H   0  0  0  0  0  0  0  0  0  0  0  0
    1.9611   -0.0044    0.6663 H   0  0  0  0  0  0  0  0  0  0  0  0
    1.0849    0.9463   -0.5636 H   0  0  0  0  0  0  0  0  0  0  0  0
    1.0849   -2.1304   -0.3412 H   0  0  0  0  0  0  0  0  0  0  0  0
  1  2  1  0
  1  3  1  0
  1  4  1  0
  1  9  1  0
  2  5  1  0
  6  7  2  3
  6 10  1  0
  6 11  1  0
  7  8  1  0
  7 12  1  0
M  RAD  1   8   2
M  END
>  <reaction>  (15) 
rxn_1974

>  <mol_properties>  (15) 
{"0": {"label": "*3", "atom_type": "Cs"}, "1": {"label": "*4", "atom_type": "S2s"}, "5": {"label": "*1", "atom_type": "Cs"}, "6": {"label": "*0", "atom_type": "CS"}, "8": {"label": "*2", "atom_type": "H0"}}

>  <type>  (15) 
unop_11

>  <geom_source>  (15) 
Heuristics

$$$$

     RDKit          3D

 12 10  0  0  0  0  0  0  0  0999 V2000
   -0.8581    0.9119    1.8150 C   0  0  0  0  0  0  0  0  0  0  0  0
   -1.8665   -0.5604    1.5082 S   0  0  0  0  0  0  0  0  0  0  0  0
   -0.5194    0.8411    2.8473 H   0  0  0  0  0  0  0  0  0  0  0  0
   -1.4418    1.8230    1.7015 H   0  0  0  0  0  0  0  0  0  0  0  0
   -2.1731   -0.2894    0.2337 H   0  0  0  0  0  0  0  0  0  0  0  0
    1.2385    0.9762    0.2470 C   0  0  0  0  0  0  0  0  0  0  0  0
    1.2385   -0.2222   -0.6352 C   0  0  0  0  0  0  0  0  0  0  0  0
    1.2385   -0.2222   -2.2419 S   0  0  0  0  0  1  0  0  0  0  0  0
    0.1872    0.9440    1.0333 H   0  0  0  0  0  0  0  0  0  0  0  0
    2.1147    0.9494    0.9022 H   0  0  0  0  0  0  0  0  0  0  0  0
    1.2385    1.9000   -0.3277 H   0  0  0  0  0  0  0  0  0  0  0  0
    1.2385   -1.1767   -0.1053 H   0  0  0  0  0  0  0  0  0  0  0  0
  1  2  1  0
  1  3  1  0
  1  4  1  0
  1  9  1  0
  2  5  1  0
  6  7  2  3
  6 10  1  0
  6 11  1  0
  7  8  1  0
  7 12  1  0
M  RAD  1   8   2
M  END
>  <reaction>  (16) 
rxn_1974

>  <mol_properties>  (16) 
{"0": {"label": "*3", "atom_type": "Cs"}, "1": {"label": "*4", "atom_type": "S2s"}, "5": {"label": "*1", "atom_type": "Cs"}, "6": {"label": "*0", "atom_type": "CS"}, "8": {"label": "*2", "atom_type": "H0"}}

>  <type>  (16) 
unop_12

>  <geom_source>  (16) 
Heuristics

$$$$

     RDKit          3D

 12 10  0  0  0  0  0  0  0  0999 V2000
    2.2157   -0.8875   -0.7406 S   0  0  0  0  0  0  0  0  0  0  0  0
   -2.1742   -0.5789    1.4800 S   0  0  0  0  0  1  0  0  0  0  0  0
    1.5292    0.4167    0.3178 C   0  0  0  0  0  0  0  0  0  0  0  0
   -0.9561    0.6252   -0.3929 C   0  0  0  0  0  0  0  0  0  0  0  0
   -1.8190   -0.4923    0.0931 C   0  0  0  0  0  0  0  0  0  0  0  0
    1.8694    1.4066   -0.0496 H   0  0  0  0  0  0  0  0  0  0  0  0
    1.8781    0.2717    1.3612 H   0  0  0  0  0  0  0  0  0  0  0  0
    0.1911    0.3649    0.2823 H   0  0  0  0  0  0  0  0  0  0  0  0
   -2.1268   -1.2780   -0.5892 H   0  0  0  0  0  0  0  0  0  0  0  0
   -1.4920    1.5935   -0.2969 H   0  0  0  0  0  0  0  0  0  0  0  0
   -0.6904    0.4619   -1.4582 H   0  0  0  0  0  0  0  0  0  0  0  0
    1.5749   -1.9038   -0.0070 H   0  0  0  0  0  0  0  0  0  0  0  0
  1  3  1  0
  1 12  1  0
  2  5  1  0
  3  6  1  0
  3  7  1  0
  3  8  1  0
  4  5  2  3
  4 10  1  0
  4 11  1  0
  5  9  1  0
M  RAD  1   2   2
M  END
>  <reaction>  (17) 
rxn_1974

>  <mol_properties>  (17) 
{"0": {"label": "*3", "atom_type": "Cs"}, "1": {"label": "*4", "atom_type": "S2s"}, "5": {"label": "*1", "atom_type": "Cs"}, "6": {"label": "*0", "atom_type": "CS"}, "8": {"label": "*2", "atom_type": "H0"}}

>  <type>  (17) 
unop_13

>  <geom_source>  (17) 
AutoTST

$$$$
