
     RDKit          3D

  8  7  0  0  0  0  0  0  0  0999 V2000
    0.7610    0.0250    0.0051 C   0  0  0  0  0  0  0  0  0  0  0  0
   -0.7610   -0.0250   -0.0051 C   0  0  0  0  0  0  0  0  0  0  0  0
    1.1904   -0.9237   -0.3217 H   0  0  0  0  0  0  0  0  0  0  0  0
    1.1359    0.8041   -0.6609 H   0  0  0  0  0  0  0  0  0  0  0  0
    1.1435    0.2336    1.0058 H   0  0  0  0  0  0  0  0  0  0  0  0
   -1.1435   -0.2336   -1.0058 H   0  0  0  0  0  0  0  0  0  0  0  0
   -1.1904    0.9237    0.3216 H   0  0  0  0  0  0  0  0  0  0  0  0
   -1.1359   -0.8041    0.6609 H   0  0  0  0  0  0  0  0  0  0  0  0
  1  2  1  0
  1  3  1  0
  1  4  1  0
  1  5  1  0
  2  6  1  0
  2  7  1  0
  2  8  1  0
M  END
>  <reaction>  (1) 
rxn_899

>  <mol_properties>  (1) 
{"1": {"label": "donator", "atom_type": "Cs"}, "5": {"label": "d_hydrogen", "atom_type": "H0"}}

>  <type>  (1) 
r1h

$$$$

     RDKit          3D

 10  9  0  0  0  0  0  0  0  0999 V2000
   -1.3354   -0.2069    0.0525 C   0  0  0  0  0  0  0  0  0  0  0  0
    0.0851    0.2624    0.0266 C   0  0  0  0  0  0  0  0  0  0  0  0
    0.4841    1.3876    0.7359 C   0  0  0  0  0  0  0  0  0  0  0  0
    2.0191    2.0303    0.8057 S   0  0  0  0  0  1  0  0  0  0  0  0
    1.1566   -0.6823   -0.9297 S   0  0  0  0  0  0  0  0  0  0  0  0
   -1.7589   -0.2174   -0.9545 H   0  0  0  0  0  0  0  0  0  0  0  0
   -1.4004   -1.2253    0.4427 H   0  0  0  0  0  0  0  0  0  0  0  0
   -1.9442    0.4442    0.6783 H   0  0  0  0  0  0  0  0  0  0  0  0
   -0.3073    1.8814    1.2951 H   0  0  0  0  0  0  0  0  0  0  0  0
    2.2383    0.0827   -0.6554 H   0  0  0  0  0  0  0  0  0  0  0  0
  1  2  1  0
  1  6  1  0
  1  7  1  0
  1  8  1  0
  2  3  2  3
  2  5  1  0
  3  4  1  0
  3  9  1  0
  5 10  1  0
M  RAD  1   4   2
M  END
>  <reaction>  (2) 
rxn_899

>  <mol_properties>  (2) 
{"1": {"label": "acceptor", "atom_type": "Cs"}}

>  <type>  (2) 
r2

$$$$

     RDKit          3D

 11 10  0  0  0  0  0  0  0  0999 V2000
   -1.0997   -0.5860   -0.1182 C   0  0  0  0  0  0  0  0  0  0  0  0
    0.0827    0.2961    0.2270 C   0  0  0  0  0  0  0  0  0  0  0  0
    0.1622    1.6171   -0.4774 C   0  0  0  0  0  0  0  0  0  0  0  0
   -0.9879    2.3087   -1.3633 S   0  0  0  0  0  0  0  0  0  0  0  0
    0.2176    0.6619    2.0187 S   0  0  0  0  0  0  0  0  0  0  0  0
   -1.1052   -0.8107   -1.1861 H   0  0  0  0  0  0  0  0  0  0  0  0
   -2.0402   -0.0893    0.1198 H   0  0  0  0  0  0  0  0  0  0  0  0
   -1.0438   -1.5182    0.4423 H   0  0  0  0  0  0  0  0  0  0  0  0
    1.0207   -0.2324    0.0280 H   0  0  0  0  0  0  0  0  0  0  0  0
    1.1091    2.1333   -0.3182 H   0  0  0  0  0  0  0  0  0  0  0  0
   -0.9205    1.3661    2.0994 H   0  0  0  0  0  0  0  0  0  0  0  0
  1  2  1  0
  1  6  1  0
  1  7  1  0
  1  8  1  0
  2  3  1  0
  2  5  1  0
  2  9  1  0
  3  4  2  0
  3 10  1  0
  5 11  1  0
M  END
>  <reaction>  (3) 
rxn_899

>  <mol_properties>  (3) 
{"1": {"label": "acceptor", "atom_type": "Cs"}, "10": {"label": "a_hydrogen", "atom_type": "H0"}}

>  <type>  (3) 
r2h

$$$$

     RDKit          3D

 18 16  0  0  0  0  0  0  0  0999 V2000
   -1.6569    0.8743   -0.4812 C   0  0  0  0  0  0  0  0  0  0  0  0
   -0.4418    0.0670   -0.0867 C   0  0  0  0  0  0  0  0  0  0  0  0
    0.8823    0.5969   -0.4121 C   0  0  0  0  0  0  0  0  0  0  0  0
    1.2101    1.8199   -1.4263 S   0  0  0  0  0  0  0  0  0  0  0  0
   -0.5184   -0.6755    1.5652 S   0  0  0  0  0  0  0  0  0  0  0  0
   -1.7162    1.7925    0.1073 H   0  0  0  0  0  0  0  0  0  0  0  0
   -1.5990    1.1594   -1.5318 H   0  0  0  0  0  0  0  0  0  0  0  0
   -2.5633    0.2946   -0.3108 H   0  0  0  0  0  0  0  0  0  0  0  0
    1.7025    0.0626    0.0667 H   0  0  0  0  0  0  0  0  0  0  0  0
   -0.3878    0.4643    2.2599 H   0  0  0  0  0  0  0  0  0  0  0  0
    0.7971   -2.5517   -1.8297 C   0  0  0  0  0  0  0  0  0  0  0  0
   -0.6343   -2.1848   -1.6155 C   0  0  0  0  0  3  0  0  0  0  0  0
    1.3515   -1.7339   -2.2947 H   0  0  0  0  0  0  0  0  0  0  0  0
    1.2871   -2.8099   -0.8894 H   0  0  0  0  0  0  0  0  0  0  0  0
    0.8827   -3.4196   -2.4930 H   0  0  0  0  0  0  0  0  0  0  0  0
   -0.5153   -0.9680   -0.7754 H   0  0  0  0  0  0  0  0  0  0  0  0
   -1.2291   -2.8276   -0.9734 H   0  0  0  0  0  0  0  0  0  0  0  0
   -1.1777   -1.7746   -2.4616 H   0  0  0  0  0  0  0  0  0  0  0  0
  1  2  1  0
  1  6  1  0
  1  7  1  0
  1  8  1  0
  2  3  1  0
  2  5  1  0
  2 16  1  0
  3  4  2  0
  3  9  1  0
  5 10  1  0
 11 12  1  0
 11 13  1  0
 11 14  1  0
 11 15  1  0
 12 17  1  0
 12 18  1  0
M  RAD  1  12   2
M  END
>  <reaction>  (4) 
rxn_899

>  <mol_properties>  (4) 
{"1": {"label": "*1", "atom_type": "Cs"}, "2": {"label": "*0", "atom_type": "CS"}, "10": {"label": "*4", "atom_type": "Cs"}, "11": {"label": "*3", "atom_type": "Cs"}, "15": {"label": "*2", "atom_type": "H0"}}

>  <type>  (4) 
ts

$$$$

     RDKit          3D

 18 16  0  0  0  0  0  0  0  0999 V2000
   -1.5856    0.2294    0.9811 C   0  0  0  0  0  0  0  0  0  0  0  0
   -0.3546   -0.0016    0.1286 C   0  0  0  0  0  0  0  0  0  0  0  0
    0.3607    1.2213   -0.3618 C   0  0  0  0  0  0  0  0  0  0  0  0
    0.1194    2.7372    0.1173 S   0  0  0  0  0  1  0  0  0  0  0  0
    0.9127   -1.0419    0.9494 S   0  0  0  0  0  0  0  0  0  0  0  0
   -1.3360    0.7844    1.8853 H   0  0  0  0  0  0  0  0  0  0  0  0
   -2.3246    0.8121    0.4286 H   0  0  0  0  0  0  0  0  0  0  0  0
   -2.0248   -0.7258    1.2658 H   0  0  0  0  0  0  0  0  0  0  0  0
    1.1327    1.0014   -1.0994 H   0  0  0  0  0  0  0  0  0  0  0  0
    1.1893   -0.1702    1.9300 H   0  0  0  0  0  0  0  0  0  0  0  0
   -0.3546   -2.4466   -2.3458 C   0  0  0  0  0  0  0  0  0  0  0  0
   -0.3546   -2.4466   -0.8230 C   0  0  0  0  0  0  0  0  0  0  0  0
   -1.2355   -1.9380   -2.7416 H   0  0  0  0  0  0  0  0  0  0  0  0
    0.5262   -1.9380   -2.7416 H   0  0  0  0  0  0  0  0  0  0  0  0
   -0.3546   -3.4637   -2.7416 H   0  0  0  0  0  0  0  0  0  0  0  0
   -0.3546   -1.2260   -0.3480 H   0  0  0  0  0  0  0  0  0  0  0  0
    0.5262   -2.9551   -0.4271 H   0  0  0  0  0  0  0  0  0  0  0  0
   -1.2355   -2.9551   -0.4271 H   0  0  0  0  0  0  0  0  0  0  0  0
  1  2  1  0
  1  6  1  0
  1  7  1  0
  1  8  1  0
  2  3  2  3
  2  5  1  0
  3  4  1  0
  3  9  1  0
  5 10  1  0
 11 12  1  0
 11 13  1  0
 11 14  1  0
 11 15  1  0
 12 16  1  0
 12 17  1  0
 12 18  1  0
M  RAD  1   4   2
M  END
>  <reaction>  (5) 
rxn_899

>  <mol_properties>  (5) 
{"1": {"label": "*1", "atom_type": "Cs"}, "2": {"label": "*0", "atom_type": "CS"}, "10": {"label": "*4", "atom_type": "Cs"}, "11": {"label": "*3", "atom_type": "Cs"}, "15": {"label": "*2", "atom_type": "H0"}}

>  <type>  (5) 
unop_1

>  <geom_source>  (5) 
Heuristics

$$$$

     RDKit          3D

 18 16  0  0  0  0  0  0  0  0999 V2000
   -0.8979    0.9789   -1.0252 C   0  0  0  0  0  0  0  0  0  0  0  0
   -0.1872    0.0437   -0.0683 C   0  0  0  0  0  0  0  0  0  0  0  0
    1.0457    0.5761    0.5982 C   0  0  0  0  0  0  0  0  0  0  0  0
    1.5556    2.1010    0.6068 S   0  0  0  0  0  1  0  0  0  0  0  0
   -1.2679   -0.5791    1.2757 S   0  0  0  0  0  0  0  0  0  0  0  0
   -1.2288    1.8829   -0.5143 H   0  0  0  0  0  0  0  0  0  0  0  0
   -0.2246    1.2808   -1.8292 H   0  0  0  0  0  0  0  0  0  0  0  0
   -1.7661    0.4811   -1.4549 H   0  0  0  0  0  0  0  0  0  0  0  0
    1.6042   -0.1862    1.1418 H   0  0  0  0  0  0  0  0  0  0  0  0
   -1.4620    0.6133    1.8572 H   0  0  0  0  0  0  0  0  0  0  0  0
   -0.1872   -2.4013   -2.5426 C   0  0  0  0  0  0  0  0  0  0  0  0
   -0.1872   -2.4013   -1.0198 C   0  0  0  0  0  0  0  0  0  0  0  0
   -1.0680   -1.8927   -2.9384 H   0  0  0  0  0  0  0  0  0  0  0  0
    0.6937   -1.8927   -2.9384 H   0  0  0  0  0  0  0  0  0  0  0  0
   -0.1872   -3.4184   -2.9384 H   0  0  0  0  0  0  0  0  0  0  0  0
   -0.1872   -1.1807   -0.5448 H   0  0  0  0  0  0  0  0  0  0  0  0
    0.6937   -2.9098   -0.6239 H   0  0  0  0  0  0  0  0  0  0  0  0
   -1.0680   -2.9098   -0.6239 H   0  0  0  0  0  0  0  0  0  0  0  0
  1  2  1  0
  1  6  1  0
  1  7  1  0
  1  8  1  0
  2  3  2  3
  2  5  1  0
  3  4  1  0
  3  9  1  0
  5 10  1  0
 11 12  1  0
 11 13  1  0
 11 14  1  0
 11 15  1  0
 12 16  1  0
 12 17  1  0
 12 18  1  0
M  RAD  1   4   2
M  END
>  <reaction>  (6) 
rxn_899

>  <mol_properties>  (6) 
{"1": {"label": "*1", "atom_type": "Cs"}, "2": {"label": "*0", "atom_type": "CS"}, "10": {"label": "*4", "atom_type": "Cs"}, "11": {"label": "*3", "atom_type": "Cs"}, "15": {"label": "*2", "atom_type": "H0"}}

>  <type>  (6) 
unop_2

>  <geom_source>  (6) 
Heuristics

$$$$

     RDKit          3D

 18 16  0  0  0  0  0  0  0  0999 V2000
   -0.9281   -0.0767    1.6952 C   0  0  0  0  0  0  0  0  0  0  0  0
   -0.2174   -0.1190    0.3578 C   0  0  0  0  0  0  0  0  0  0  0  0
   -0.2711    1.1298   -0.4701 C   0  0  0  0  0  0  0  0  0  0  0  0
   -0.7783    2.5803    0.0038 S   0  0  0  0  0  1  0  0  0  0  0  0
    1.5550   -0.5695    0.4910 S   0  0  0  0  0  0  0  0  0  0  0  0
   -0.5079    0.6979    2.3365 H   0  0  0  0  0  0  0  0  0  0  0  0
   -1.9865    0.1487    1.5542 H   0  0  0  0  0  0  0  0  0  0  0  0
   -0.8318   -1.0383    2.1974 H   0  0  0  0  0  0  0  0  0  0  0  0
    0.1094    0.9917   -1.4823 H   0  0  0  0  0  0  0  0  0  0  0  0
    1.9224    0.5252    1.1726 H   0  0  0  0  0  0  0  0  0  0  0  0
   -0.2174   -2.5639   -2.1166 C   0  0  0  0  0  0  0  0  0  0  0  0
   -0.2174   -2.5639   -0.5938 C   0  0  0  0  0  0  0  0  0  0  0  0
   -1.0982   -2.0554   -2.5124 H   0  0  0  0  0  0  0  0  0  0  0  0
    0.6635   -2.0554   -2.5124 H   0  0  0  0  0  0  0  0  0  0  0  0
   -0.2174   -3.5810   -2.5124 H   0  0  0  0  0  0  0  0  0  0  0  0
   -0.2174   -1.3434   -0.1188 H   0  0  0  0  0  0  0  0  0  0  0  0
    0.6635   -3.0725   -0.1979 H   0  0  0  0  0  0  0  0  0  0  0  0
   -1.0982   -3.0725   -0.1979 H   0  0  0  0  0  0  0  0  0  0  0  0
  1  2  1  0
  1  6  1  0
  1  7  1  0
  1  8  1  0
  2  3  2  3
  2  5  1  0
  3  4  1  0
  3  9  1  0
  5 10  1  0
 11 12  1  0
 11 13  1  0
 11 14  1  0
 11 15  1  0
 12 16  1  0
 12 17  1  0
 12 18  1  0
M  RAD  1   4   2
M  END
>  <reaction>  (7) 
rxn_899

>  <mol_properties>  (7) 
{"1": {"label": "*1", "atom_type": "Cs"}, "2": {"label": "*0", "atom_type": "CS"}, "10": {"label": "*4", "atom_type": "Cs"}, "11": {"label": "*3", "atom_type": "Cs"}, "15": {"label": "*2", "atom_type": "H0"}}

>  <type>  (7) 
unop_3

>  <geom_source>  (7) 
Heuristics

$$$$

     RDKit          3D

 18 16  0  0  0  0  0  0  0  0999 V2000
    1.1287    1.1585   -0.7681 C   0  0  0  0  0  0  0  0  0  0  0  0
   -0.1023    0.4120   -0.2961 C   0  0  0  0  0  0  0  0  0  0  0  0
    0.0179   -0.3254    1.0037 C   0  0  0  0  0  0  0  0  0  0  0  0
    1.2146   -0.2095    2.0715 S   0  0  0  0  0  1  0  0  0  0  0  0
   -1.5855    1.4793   -0.1444 S   0  0  0  0  0  0  0  0  0  0  0  0
    1.4253    1.9188   -0.0459 H   0  0  0  0  0  0  0  0  0  0  0  0
    1.9668    0.4696   -0.8864 H   0  0  0  0  0  0  0  0  0  0  0  0
    0.9265    1.6417   -1.7231 H   0  0  0  0  0  0  0  0  0  0  0  0
   -0.8335   -0.9741    1.2107 H   0  0  0  0  0  0  0  0  0  0  0  0
   -1.1024    2.2427    0.8464 H   0  0  0  0  0  0  0  0  0  0  0  0
   -0.1023   -2.0330   -2.7704 C   0  0  0  0  0  0  0  0  0  0  0  0
   -0.1023   -2.0330   -1.2476 C   0  0  0  0  0  0  0  0  0  0  0  0
   -0.9832   -1.5244   -3.1662 H   0  0  0  0  0  0  0  0  0  0  0  0
    0.7785   -1.5244   -3.1662 H   0  0  0  0  0  0  0  0  0  0  0  0
   -0.1023   -3.0501   -3.1662 H   0  0  0  0  0  0  0  0  0  0  0  0
   -0.1023   -0.8125   -0.7726 H   0  0  0  0  0  0  0  0  0  0  0  0
    0.7785   -2.5415   -0.8517 H   0  0  0  0  0  0  0  0  0  0  0  0
   -0.9832   -2.5415   -0.8517 H   0  0  0  0  0  0  0  0  0  0  0  0
  1  2  1  0
  1  6  1  0
  1  7  1  0
  1  8  1  0
  2  3  2  3
  2  5  1  0
  3  4  1  0
  3  9  1  0
  5 10  1  0
 11 12  1  0
 11 13  1  0
 11 14  1  0
 11 15  1  0
 12 16  1  0
 12 17  1  0
 12 18  1  0
M  RAD  1   4   2
M  END
>  <reaction>  (8) 
rxn_899

>  <mol_properties>  (8) 
{"1": {"label": "*1", "atom_type": "Cs"}, "2": {"label": "*0", "atom_type": "CS"}, "10": {"label": "*4", "atom_type": "Cs"}, "11": {"label": "*3", "atom_type": "Cs"}, "15": {"label": "*2", "atom_type": "H0"}}

>  <type>  (8) 
unop_4

>  <geom_source>  (8) 
Heuristics

$$$$

     RDKit          3D

 18 16  0  0  0  0  0  0  0  0999 V2000
    0.2561   -0.1300    1.9474 C   0  0  0  0  0  0  0  0  0  0  0  0
    0.2561   -0.1033    0.4325 C   0  0  0  0  0  0  0  0  0  0  0  0
   -0.8762    0.6266   -0.2253 C   0  0  0  0  0  0  0  0  0  0  0  0
   -1.9463    1.5914    0.4886 S   0  0  0  0  0  1  0  0  0  0  0  0
    1.7961    0.5896   -0.2817 S   0  0  0  0  0  0  0  0  0  0  0  0
    0.3039    0.8792    2.3559 H   0  0  0  0  0  0  0  0  0  0  0  0
   -0.6598   -0.5938    2.3176 H   0  0  0  0  0  0  0  0  0  0  0  0
    1.1138   -0.6957    2.3088 H   0  0  0  0  0  0  0  0  0  0  0  0
   -0.9173    0.4744   -1.3040 H   0  0  0  0  0  0  0  0  0  0  0  0
    1.6235    1.8289    0.2001 H   0  0  0  0  0  0  0  0  0  0  0  0
    0.2561   -2.5482   -2.0418 C   0  0  0  0  0  0  0  0  0  0  0  0
    0.2561   -2.5482   -0.5190 C   0  0  0  0  0  0  0  0  0  0  0  0
   -0.6248   -2.0397   -2.4376 H   0  0  0  0  0  0  0  0  0  0  0  0
    1.1369   -2.0397   -2.4376 H   0  0  0  0  0  0  0  0  0  0  0  0
    0.2561   -3.5653   -2.4376 H   0  0  0  0  0  0  0  0  0  0  0  0
    0.2561   -1.3277   -0.0440 H   0  0  0  0  0  0  0  0  0  0  0  0
    1.1369   -3.0568   -0.1232 H   0  0  0  0  0  0  0  0  0  0  0  0
   -0.6248   -3.0568   -0.1232 H   0  0  0  0  0  0  0  0  0  0  0  0
  1  2  1  0
  1  6  1  0
  1  7  1  0
  1  8  1  0
  2  3  2  3
  2  5  1  0
  3  4  1  0
  3  9  1  0
  5 10  1  0
 11 12  1  0
 11 13  1  0
 11 14  1  0
 11 15  1  0
 12 16  1  0
 12 17  1  0
 12 18  1  0
M  RAD  1   4   2
M  END
>  <reaction>  (9) 
rxn_899

>  <mol_properties>  (9) 
{"1": {"label": "*1", "atom_type": "Cs"}, "2": {"label": "*0", "atom_type": "CS"}, "10": {"label": "*4", "atom_type": "Cs"}, "11": {"label": "*3", "atom_type": "Cs"}, "15": {"label": "*2", "atom_type": "H0"}}

>  <type>  (9) 
unop_5

>  <geom_source>  (9) 
Heuristics

$$$$

     RDKit          3D

 18 16  0  0  0  0  0  0  0  0999 V2000
    1.5983    0.9745   -0.1006 C   0  0  0  0  0  0  0  0  0  0  0  0
    0.1769    0.4857   -0.2908 C   0  0  0  0  0  0  0  0  0  0  0  0
   -0.3984   -0.3498    0.8131 C   0  0  0  0  0  0  0  0  0  0  0  0
    0.2259   -0.5756    2.2776 S   0  0  0  0  0  1  0  0  0  0  0  0
   -1.0233    1.8398   -0.5874 S   0  0  0  0  0  0  0  0  0  0  0  0
    1.6812    1.5981    0.7893 H   0  0  0  0  0  0  0  0  0  0  0  0
    2.2760    0.1282    0.0242 H   0  0  0  0  0  0  0  0  0  0  0  0
    1.9100    1.5564   -0.9669 H   0  0  0  0  0  0  0  0  0  0  0  0
   -1.3527   -0.8082    0.5531 H   0  0  0  0  0  0  0  0  0  0  0  0
   -0.8896    2.4065    0.6205 H   0  0  0  0  0  0  0  0  0  0  0  0
    0.1769   -1.9593   -2.7652 C   0  0  0  0  0  0  0  0  0  0  0  0
    0.1769   -1.9593   -1.2424 C   0  0  0  0  0  0  0  0  0  0  0  0
   -0.7039   -1.4507   -3.1610 H   0  0  0  0  0  0  0  0  0  0  0  0
    1.0578   -1.4507   -3.1610 H   0  0  0  0  0  0  0  0  0  0  0  0
    0.1769   -2.9764   -3.1610 H   0  0  0  0  0  0  0  0  0  0  0  0
    0.1769   -0.7387   -0.7674 H   0  0  0  0  0  0  0  0  0  0  0  0
    1.0578   -2.4678   -0.8465 H   0  0  0  0  0  0  0  0  0  0  0  0
   -0.7039   -2.4678   -0.8465 H   0  0  0  0  0  0  0  0  0  0  0  0
  1  2  1  0
  1  6  1  0
  1  7  1  0
  1  8  1  0
  2  3  2  3
  2  5  1  0
  3  4  1  0
  3  9  1  0
  5 10  1  0
 11 12  1  0
 11 13  1  0
 11 14  1  0
 11 15  1  0
 12 16  1  0
 12 17  1  0
 12 18  1  0
M  RAD  1   4   2
M  END
>  <reaction>  (10) 
rxn_899

>  <mol_properties>  (10) 
{"1": {"label": "*1", "atom_type": "Cs"}, "2": {"label": "*0", "atom_type": "CS"}, "10": {"label": "*4", "atom_type": "Cs"}, "11": {"label": "*3", "atom_type": "Cs"}, "15": {"label": "*2", "atom_type": "H0"}}

>  <type>  (10) 
unop_6

>  <geom_source>  (10) 
Heuristics

$$$$

     RDKit          3D

 18 16  0  0  0  0  0  0  0  0999 V2000
    1.6867    0.6577    0.7191 C   0  0  0  0  0  0  0  0  0  0  0  0
    0.4557    0.4267   -0.1335 C   0  0  0  0  0  0  0  0  0  0  0  0
   -0.7066   -0.2441    0.5348 C   0  0  0  0  0  0  0  0  0  0  0  0
   -0.8879   -0.5179    2.1089 S   0  0  0  0  0  1  0  0  0  0  0  0
   -0.2035    1.9621   -0.8885 S   0  0  0  0  0  0  0  0  0  0  0  0
    1.4560    1.2926    1.5743 H   0  0  0  0  0  0  0  0  0  0  0  0
    2.0641   -0.2913    1.1037 H   0  0  0  0  0  0  0  0  0  0  0  0
    2.4645    1.1369    0.1261 H   0  0  0  0  0  0  0  0  0  0  0  0
   -1.4949   -0.5327   -0.1608 H   0  0  0  0  0  0  0  0  0  0  0  0
   -0.5483    2.5450    0.2687 H   0  0  0  0  0  0  0  0  0  0  0  0
    0.4557   -2.0183   -2.6078 C   0  0  0  0  0  0  0  0  0  0  0  0
    0.4557   -2.0183   -1.0850 C   0  0  0  0  0  0  0  0  0  0  0  0
   -0.4251   -1.5097   -3.0036 H   0  0  0  0  0  0  0  0  0  0  0  0
    1.3366   -1.5097   -3.0036 H   0  0  0  0  0  0  0  0  0  0  0  0
    0.4557   -3.0354   -3.0036 H   0  0  0  0  0  0  0  0  0  0  0  0
    0.4557   -0.7977   -0.6100 H   0  0  0  0  0  0  0  0  0  0  0  0
    1.3366   -2.5268   -0.6892 H   0  0  0  0  0  0  0  0  0  0  0  0
   -0.4251   -2.5268   -0.6892 H   0  0  0  0  0  0  0  0  0  0  0  0
  1  2  1  0
  1  6  1  0
  1  7  1  0
  1  8  1  0
  2  3  2  3
  2  5  1  0
  3  4  1  0
  3  9  1  0
  5 10  1  0
 11 12  1  0
 11 13  1  0
 11 14  1  0
 11 15  1  0
 12 16  1  0
 12 17  1  0
 12 18  1  0
M  RAD  1   4   2
M  END
>  <reaction>  (11) 
rxn_899

>  <mol_properties>  (11) 
{"1": {"label": "*1", "atom_type": "Cs"}, "2": {"label": "*0", "atom_type": "CS"}, "10": {"label": "*4", "atom_type": "Cs"}, "11": {"label": "*3", "atom_type": "Cs"}, "15": {"label": "*2", "atom_type": "H0"}}

>  <type>  (11) 
unop_7

>  <geom_source>  (11) 
Heuristics

$$$$

     RDKit          3D

 18 16  0  0  0  0  0  0  0  0999 V2000
   -1.7100    0.5481    0.1602 C   0  0  0  0  0  0  0  0  0  0  0  0
   -0.2886    0.0593   -0.0300 C   0  0  0  0  0  0  0  0  0  0  0  0
    0.7806    1.1091   -0.0795 C   0  0  0  0  0  0  0  0  0  0  0  0
    0.6230    2.6649    0.2950 S   0  0  0  0  0  1  0  0  0  0  0  0
    0.2398   -1.1506    1.2423 S   0  0  0  0  0  0  0  0  0  0  0  0
   -1.8137    1.0921    1.0989 H   0  0  0  0  0  0  0  0  0  0  0  0
   -1.9882    1.2267   -0.6479 H   0  0  0  0  0  0  0  0  0  0  0  0
   -2.3958   -0.2980    0.1676 H   0  0  0  0  0  0  0  0  0  0  0  0
    1.7528    0.7191   -0.3813 H   0  0  0  0  0  0  0  0  0  0  0  0
    0.1814   -0.2966    2.2743 H   0  0  0  0  0  0  0  0  0  0  0  0
   -0.2886   -2.3856   -2.5043 C   0  0  0  0  0  0  0  0  0  0  0  0
   -0.2886   -2.3856   -0.9815 C   0  0  0  0  0  0  0  0  0  0  0  0
   -1.1695   -1.8771   -2.9002 H   0  0  0  0  0  0  0  0  0  0  0  0
    0.5922   -1.8771   -2.9002 H   0  0  0  0  0  0  0  0  0  0  0  0
   -0.2886   -3.4027   -2.9002 H   0  0  0  0  0  0  0  0  0  0  0  0
   -0.2886   -1.1651   -0.5065 H   0  0  0  0  0  0  0  0  0  0  0  0
    0.5922   -2.8942   -0.5857 H   0  0  0  0  0  0  0  0  0  0  0  0
   -1.1695   -2.8942   -0.5857 H   0  0  0  0  0  0  0  0  0  0  0  0
  1  2  1  0
  1  6  1  0
  1  7  1  0
  1  8  1  0
  2  3  2  3
  2  5  1  0
  3  4  1  0
  3  9  1  0
  5 10  1  0
 11 12  1  0
 11 13  1  0
 11 14  1  0
 11 15  1  0
 12 16  1  0
 12 17  1  0
 12 18  1  0
M  RAD  1   4   2
M  END
>  <reaction>  (12) 
rxn_899

>  <mol_properties>  (12) 
{"1": {"label": "*1", "atom_type": "Cs"}, "2": {"label": "*0", "atom_type": "CS"}, "10": {"label": "*4", "atom_type": "Cs"}, "11": {"label": "*3", "atom_type": "Cs"}, "15": {"label": "*2", "atom_type": "H0"}}

>  <type>  (12) 
unop_8

>  <geom_source>  (12) 
Heuristics

$$$$

     RDKit          3D

 18 16  0  0  0  0  0  0  0  0999 V2000
    0.4487    1.1888   -1.1536 C   0  0  0  0  0  0  0  0  0  0  0  0
   -0.2620    0.2536   -0.1967 C   0  0  0  0  0  0  0  0  0  0  0  0
    0.4912   -0.1422    1.0377 C   0  0  0  0  0  0  0  0  0  0  0  0
    1.8582    0.5056    1.5829 S   0  0  0  0  0  1  0  0  0  0  0  0
   -1.8825    0.8932    0.3749 S   0  0  0  0  0  0  0  0  0  0  0  0
    0.6958    2.1320   -0.6668 H   0  0  0  0  0  0  0  0  0  0  0  0
    1.3819    0.7400   -1.4983 H   0  0  0  0  0  0  0  0  0  0  0  0
   -0.1875    1.3941   -2.0135 H   0  0  0  0  0  0  0  0  0  0  0  0
    0.0047   -0.9381    1.6018 H   0  0  0  0  0  0  0  0  0  0  0  0
   -1.3855    1.9442    1.0430 H   0  0  0  0  0  0  0  0  0  0  0  0
   -0.2620   -2.1914   -2.6710 C   0  0  0  0  0  0  0  0  0  0  0  0
   -0.2620   -2.1914   -1.1482 C   0  0  0  0  0  0  0  0  0  0  0  0
   -1.1428   -1.6828   -3.0669 H   0  0  0  0  0  0  0  0  0  0  0  0
    0.6189   -1.6828   -3.0669 H   0  0  0  0  0  0  0  0  0  0  0  0
   -0.2620   -3.2085   -3.0669 H   0  0  0  0  0  0  0  0  0  0  0  0
   -0.2620   -0.9708   -0.6732 H   0  0  0  0  0  0  0  0  0  0  0  0
    0.6189   -2.6999   -0.7524 H   0  0  0  0  0  0  0  0  0  0  0  0
   -1.1428   -2.6999   -0.7524 H   0  0  0  0  0  0  0  0  0  0  0  0
  1  2  1  0
  1  6  1  0
  1  7  1  0
  1  8  1  0
  2  3  2  3
  2  5  1  0
  3  4  1  0
  3  9  1  0
  5 10  1  0
 11 12  1  0
 11 13  1  0
 11 14  1  0
 11 15  1  0
 12 16  1  0
 12 17  1  0
 12 18  1  0
M  RAD  1   4   2
M  END
>  <reaction>  (13) 
rxn_899

>  <mol_properties>  (13) 
{"1": {"label": "*1", "atom_type": "Cs"}, "2": {"label": "*0", "atom_type": "CS"}, "10": {"label": "*4", "atom_type": "Cs"}, "11": {"label": "*3", "atom_type": "Cs"}, "15": {"label": "*2", "atom_type": "H0"}}

>  <type>  (13) 
unop_9

>  <geom_source>  (13) 
Heuristics

$$$$

     RDKit          3D

 18 16  0  0  0  0  0  0  0  0999 V2000
   -1.4272    0.8035   -0.5510 C   0  0  0  0  0  0  0  0  0  0  0  0
   -0.1962    0.0570   -0.0789 C   0  0  0  0  0  0  0  0  0  0  0  0
    1.0037    0.8892    0.2606 C   0  0  0  0  0  0  0  0  0  0  0  0
    1.0545    2.4884    0.4208 S   0  0  0  0  0  1  0  0  0  0  0  0
   -0.5086   -1.0104    1.3789 S   0  0  0  0  0  0  0  0  0  0  0  0
   -1.7796    1.4976    0.2118 H   0  0  0  0  0  0  0  0  0  0  0  0
   -1.1975    1.3842   -1.4460 H   0  0  0  0  0  0  0  0  0  0  0  0
   -2.2250    0.0978   -0.7785 H   0  0  0  0  0  0  0  0  0  0  0  0
    1.9029    0.2974    0.4328 H   0  0  0  0  0  0  0  0  0  0  0  0
   -0.7903   -0.0077    2.2233 H   0  0  0  0  0  0  0  0  0  0  0  0
   -0.1962   -2.3880   -2.5532 C   0  0  0  0  0  0  0  0  0  0  0  0
   -0.1962   -2.3880   -1.0304 C   0  0  0  0  0  0  0  0  0  0  0  0
   -1.0771   -1.8794   -2.9491 H   0  0  0  0  0  0  0  0  0  0  0  0
    0.6846   -1.8794   -2.9491 H   0  0  0  0  0  0  0  0  0  0  0  0
   -0.1962   -3.4051   -2.9491 H   0  0  0  0  0  0  0  0  0  0  0  0
   -0.1962   -1.1674   -0.5554 H   0  0  0  0  0  0  0  0  0  0  0  0
    0.6846   -2.8965   -0.6346 H   0  0  0  0  0  0  0  0  0  0  0  0
   -1.0771   -2.8965   -0.6346 H   0  0  0  0  0  0  0  0  0  0  0  0
  1  2  1  0
  1  6  1  0
  1  7  1  0
  1  8  1  0
  2  3  2  3
  2  5  1  0
  3  4  1  0
  3  9  1  0
  5 10  1  0
 11 12  1  0
 11 13  1  0
 11 14  1  0
 11 15  1  0
 12 16  1  0
 12 17  1  0
 12 18  1  0
M  RAD  1   4   2
M  END
>  <reaction>  (14) 
rxn_899

>  <mol_properties>  (14) 
{"1": {"label": "*1", "atom_type": "Cs"}, "2": {"label": "*0", "atom_type": "CS"}, "10": {"label": "*4", "atom_type": "Cs"}, "11": {"label": "*3", "atom_type": "Cs"}, "15": {"label": "*2", "atom_type": "H0"}}

>  <type>  (14) 
unop_10

>  <geom_source>  (14) 
Heuristics

$$$$

     RDKit          3D

 18 16  0  0  0  0  0  0  0  0999 V2000
    1.2771    0.2430    1.4996 C   0  0  0  0  0  0  0  0  0  0  0  0
    0.5664    0.2007    0.1622 C   0  0  0  0  0  0  0  0  0  0  0  0
   -0.9232    0.0359    0.1992 C   0  0  0  0  0  0  0  0  0  0  0  0
   -1.8746    0.1504    1.4905 S   0  0  0  0  0  1  0  0  0  0  0  0
    0.8932    1.6729   -0.8810 S   0  0  0  0  0  0  0  0  0  0  0  0
    0.9221    1.0773    2.1044 H   0  0  0  0  0  0  0  0  0  0  0  0
    1.0872   -0.6750    2.0582 H   0  0  0  0  0  0  0  0  0  0  0  0
    2.3499    0.3522    1.3467 H   0  0  0  0  0  0  0  0  0  0  0  0
   -1.3597   -0.1535   -0.7816 H   0  0  0  0  0  0  0  0  0  0  0  0
    0.2905    2.5520   -0.0675 H   0  0  0  0  0  0  0  0  0  0  0  0
    0.5664   -2.2442   -2.3122 C   0  0  0  0  0  0  0  0  0  0  0  0
    0.5664   -2.2442   -0.7894 C   0  0  0  0  0  0  0  0  0  0  0  0
   -0.3144   -1.7357   -2.7080 H   0  0  0  0  0  0  0  0  0  0  0  0
    1.4473   -1.7357   -2.7080 H   0  0  0  0  0  0  0  0  0  0  0  0
    0.5664   -3.2613   -2.7080 H   0  0  0  0  0  0  0  0  0  0  0  0
    0.5664   -1.0237   -0.3144 H   0  0  0  0  0  0  0  0  0  0  0  0
    1.4472   -2.7528   -0.3935 H   0  0  0  0  0  0  0  0  0  0  0  0
   -0.3144   -2.7528   -0.3935 H   0  0  0  0  0  0  0  0  0  0  0  0
  1  2  1  0
  1  6  1  0
  1  7  1  0
  1  8  1  0
  2  3  2  3
  2  5  1  0
  3  4  1  0
  3  9  1  0
  5 10  1  0
 11 12  1  0
 11 13  1  0
 11 14  1  0
 11 15  1  0
 12 16  1  0
 12 17  1  0
 12 18  1  0
M  RAD  1   4   2
M  END
>  <reaction>  (15) 
rxn_899

>  <mol_properties>  (15) 
{"1": {"label": "*1", "atom_type": "Cs"}, "2": {"label": "*0", "atom_type": "CS"}, "10": {"label": "*4", "atom_type": "Cs"}, "11": {"label": "*3", "atom_type": "Cs"}, "15": {"label": "*2", "atom_type": "H0"}}

>  <type>  (15) 
unop_11

>  <geom_source>  (15) 
Heuristics

$$$$

     RDKit          3D

 18 16  0  0  0  0  0  0  0  0999 V2000
   -0.2561    1.1060   -1.2287 C   0  0  0  0  0  0  0  0  0  0  0  0
   -0.2561    0.1018   -0.0943 C   0  0  0  0  0  0  0  0  0  0  0  0
    0.8762    0.1949    0.8839 C   0  0  0  0  0  0  0  0  0  0  0  0
    1.9463    1.3885    1.0101 S   0  0  0  0  0  1  0  0  0  0  0  0
   -1.7961    0.1296    0.9005 S   0  0  0  0  0  0  0  0  0  0  0  0
   -0.3039    2.1259   -0.8475 H   0  0  0  0  0  0  0  0  0  0  0  0
    0.6598    1.0146   -1.8150 H   0  0  0  0  0  0  0  0  0  0  0  0
   -1.1138    0.9335   -1.8774 H   0  0  0  0  0  0  0  0  0  0  0  0
    0.9173   -0.6465    1.5759 H   0  0  0  0  0  0  0  0  0  0  0  0
   -1.6235    1.3685    1.3831 H   0  0  0  0  0  0  0  0  0  0  0  0
   -0.2561   -2.3432   -2.5686 C   0  0  0  0  0  0  0  0  0  0  0  0
   -0.2561   -2.3432   -1.0458 C   0  0  0  0  0  0  0  0  0  0  0  0
   -1.1369   -1.8346   -2.9645 H   0  0  0  0  0  0  0  0  0  0  0  0
    0.6248   -1.8346   -2.9645 H   0  0  0  0  0  0  0  0  0  0  0  0
   -0.2561   -3.3603   -2.9645 H   0  0  0  0  0  0  0  0  0  0  0  0
   -0.2561   -1.1227   -0.5708 H   0  0  0  0  0  0  0  0  0  0  0  0
    0.6248   -2.8518   -0.6500 H   0  0  0  0  0  0  0  0  0  0  0  0
   -1.1369   -2.8518   -0.6500 H   0  0  0  0  0  0  0  0  0  0  0  0
  1  2  1  0
  1  6  1  0
  1  7  1  0
  1  8  1  0
  2  3  2  3
  2  5  1  0
  3  4  1  0
  3  9  1  0
  5 10  1  0
 11 12  1  0
 11 13  1  0
 11 14  1  0
 11 15  1  0
 12 16  1  0
 12 17  1  0
 12 18  1  0
M  RAD  1   4   2
M  END
>  <reaction>  (16) 
rxn_899

>  <mol_properties>  (16) 
{"1": {"label": "*1", "atom_type": "Cs"}, "2": {"label": "*0", "atom_type": "CS"}, "10": {"label": "*4", "atom_type": "Cs"}, "11": {"label": "*3", "atom_type": "Cs"}, "15": {"label": "*2", "atom_type": "H0"}}

>  <type>  (16) 
unop_12

>  <geom_source>  (16) 
Heuristics

$$$$

     RDKit          3D

 18 16  0  0  0  0  0  0  0  0999 V2000
   -1.6112    1.8221   -0.2597 S   0  0  0  0  0  0  0  0  0  0  0  0
   -0.7226   -1.4645    1.9960 S   0  0  0  0  0  1  0  0  0  0  0  0
   -1.0924    0.0937   -0.0012 C   0  0  0  0  0  0  0  0  0  0  0  0
   -1.8295   -0.8084   -0.9903 C   0  0  0  0  0  0  0  0  0  0  0  0
    2.4442   -0.1780    0.2931 C   0  0  0  0  0  0  0  0  0  0  0  0
   -1.3712   -0.3185    1.4210 C   0  0  0  0  0  0  0  0  0  0  0  0
    1.4086    0.5184   -0.5702 C   0  0  0  0  0  0  0  0  0  0  0  0
    0.2660    0.0170   -0.2509 H   0  0  0  0  0  0  0  0  0  0  0  0
   -2.9259   -0.7687   -0.8130 H   0  0  0  0  0  0  0  0  0  0  0  0
   -1.4822   -1.8579   -0.8856 H   0  0  0  0  0  0  0  0  0  0  0  0
   -1.6193   -0.4777   -2.0293 H   0  0  0  0  0  0  0  0  0  0  0  0
    2.3045    0.1182    1.3535 H   0  0  0  0  0  0  0  0  0  0  0  0
    3.4655    0.1073   -0.0365 H   0  0  0  0  0  0  0  0  0  0  0  0
    2.3236   -1.2777    0.2046 H   0  0  0  0  0  0  0  0  0  0  0  0
   -1.9799    0.3114    2.0622 H   0  0  0  0  0  0  0  0  0  0  0  0
    1.5363    0.2201   -1.6322 H   0  0  0  0  0  0  0  0  0  0  0  0
    1.5171    1.6198   -0.4803 H   0  0  0  0  0  0  0  0  0  0  0  0
   -0.6315    2.3233    0.6188 H   0  0  0  0  0  0  0  0  0  0  0  0
  1  3  1  0
  1 18  1  0
  2  6  1  0
  3  4  1  0
  3  6  2  3
  4  9  1  0
  4 10  1  0
  4 11  1  0
  5  7  1  0
  5 12  1  0
  5 13  1  0
  5 14  1  0
  6 15  1  0
  7  8  1  0
  7 16  1  0
  7 17  1  0
M  RAD  1   2   2
M  END
>  <reaction>  (17) 
rxn_899

>  <mol_properties>  (17) 
{"1": {"label": "*1", "atom_type": "Cs"}, "2": {"label": "*0", "atom_type": "CS"}, "10": {"label": "*4", "atom_type": "Cs"}, "11": {"label": "*3", "atom_type": "Cs"}, "15": {"label": "*2", "atom_type": "H0"}}

>  <type>  (17) 
unop_13

>  <geom_source>  (17) 
AutoTST

$$$$
