
     RDKit          3D

 19 20  0  0  0  0  0  0  0  0999 V2000
    1.1087   -0.4716   -0.9619 C   0  0  0  0  0  0  0  0  0  0  0  0
    0.9355    1.0407   -0.6470 C   0  0  0  0  0  0  0  0  0  0  0  0
   -0.0085    1.0377    0.5657 C   0  0  0  0  0  0  0  0  0  0  0  0
   -1.4093    0.6181    0.0927 C   0  0  0  0  0  0  0  0  0  0  0  0
   -1.2361   -0.8942   -0.2222 C   0  0  0  0  0  0  0  0  0  0  0  0
    0.2422   -1.1516    0.1099 C   0  0  0  0  0  0  0  0  0  0  0  0
    0.4537   -0.2211    1.3118 C   0  0  0  0  0  0  0  0  0  0  0  0
    2.1524   -0.7752   -0.8653 H   0  0  0  0  0  0  0  0  0  0  0  0
    0.7855   -0.7316   -1.9710 H   0  0  0  0  0  0  0  0  0  0  0  0
    1.8918    1.5001   -0.3916 H   0  0  0  0  0  0  0  0  0  0  0  0
    0.5184    1.6005   -1.4855 H   0  0  0  0  0  0  0  0  0  0  0  0
    0.0038    1.9661    1.1351 H   0  0  0  0  0  0  0  0  0  0  0  0
   -1.7351    1.1944   -0.7746 H   0  0  0  0  0  0  0  0  0  0  0  0
   -2.1465    0.7723    0.8824 H   0  0  0  0  0  0  0  0  0  0  0  0
   -1.4680   -1.1377   -1.2601 H   0  0  0  0  0  0  0  0  0  0  0  0
   -1.8859   -1.5030    0.4087 H   0  0  0  0  0  0  0  0  0  0  0  0
    0.4812   -2.2025    0.2673 H   0  0  0  0  0  0  0  0  0  0  0  0
    1.4942   -0.1701    1.6391 H   0  0  0  0  0  0  0  0  0  0  0  0
   -0.1779   -0.4714    2.1666 H   0  0  0  0  0  0  0  0  0  0  0  0
  1  2  1  0
  1  6  1  0
  1  8  1  0
  1  9  1  0
  2  3  1  0
  2 10  1  0
  2 11  1  0
  3  4  1  0
  3  7  1  0
  3 12  1  0
  4  5  1  0
  4 13  1  0
  4 14  1  0
  5  6  1  0
  5 15  1  0
  5 16  1  0
  6  7  1  0
  6 17  1  0
  7 18  1  0
  7 19  1  0
M  END
>  <reaction>  (1) 
rxn_554

>  <mol_properties>  (1) 
{"6": {"label": "donator", "atom_type": "Cs"}, "17": {"label": "d_hydrogen", "atom_type": "H0"}}

>  <type>  (1) 
r1h

$$$$

     RDKit          3D

  7  6  0  0  0  0  0  0  0  0999 V2000
    1.3002    0.7433    2.1279 C   0  0  0  0  0  0  0  0  0  0  0  0
    0.5758    0.3292    1.2319 C   0  0  0  0  0  0  0  0  0  0  0  0
   -0.2057   -0.1176    0.2652 C   0  0  0  0  0  3  0  0  0  0  0  0
   -0.9747   -0.5572   -0.6858 C   0  0  0  0  0  0  0  0  0  0  0  0
    1.9293    1.1030    2.9060 H   0  0  0  0  0  0  0  0  0  0  0  0
   -1.9977   -0.8727   -0.4932 H   0  0  0  0  0  0  0  0  0  0  0  0
   -0.6274   -0.6280   -1.7143 H   0  0  0  0  0  0  0  0  0  0  0  0
  1  2  3  0
  1  5  1  0
  2  3  1  0
  3  4  2  3
  4  6  1  0
  4  7  1  0
M  RAD  1   3   2
M  END
>  <reaction>  (2) 
rxn_554

>  <mol_properties>  (2) 
{"2": {"label": "acceptor", "atom_type": "Cd"}}

>  <type>  (2) 
r2

$$$$

     RDKit          3D

  8  7  0  0  0  0  0  0  0  0999 V2000
    1.9029    0.9046   -0.2050 C   0  0  0  0  0  0  0  0  0  0  0  0
    0.8517    0.4283    0.1217 C   0  0  0  0  0  0  0  0  0  0  0  0
   -0.3908   -0.1311    0.5404 C   0  0  0  0  0  0  0  0  0  0  0  0
   -1.2847   -0.6576   -0.2899 C   0  0  0  0  0  0  0  0  0  0  0  0
    2.8335    1.3255   -0.5014 H   0  0  0  0  0  0  0  0  0  0  0  0
   -0.5867   -0.1096    1.6074 H   0  0  0  0  0  0  0  0  0  0  0  0
   -2.2126   -1.0686    0.0850 H   0  0  0  0  0  0  0  0  0  0  0  0
   -1.1134   -0.6914   -1.3582 H   0  0  0  0  0  0  0  0  0  0  0  0
  1  2  3  0
  1  5  1  0
  2  3  1  0
  3  4  2  3
  3  6  1  0
  4  7  1  0
  4  8  1  0
M  END
>  <reaction>  (3) 
rxn_554

>  <mol_properties>  (3) 
{"2": {"label": "acceptor", "atom_type": "Cd"}, "7": {"label": "a_hydrogen", "atom_type": "H0"}}

>  <type>  (3) 
r2h

$$$$

     RDKit          3D

 26 26  0  0  0  0  0  0  0  0999 V2000
   -2.8864   -0.8060    2.1850 C   0  0  0  0  0  0  0  0  0  0  0  0
   -2.6018   -0.4330    1.0759 C   0  0  0  0  0  0  0  0  0  0  0  0
   -2.1528    0.0313   -0.1655 C   0  0  0  0  0  0  0  0  0  0  0  0
   -2.7402    0.0481   -1.3490 C   0  0  0  0  0  0  0  0  0  0  0  0
   -3.1631   -1.1416    3.1553 H   0  0  0  0  0  0  0  0  0  0  0  0
   -3.7453   -0.3325   -1.5004 H   0  0  0  0  0  0  0  0  0  0  0  0
   -2.2239    0.4501   -2.2137 H   0  0  0  0  0  0  0  0  0  0  0  0
    1.0328   -1.1187   -0.9811 C   0  0  0  0  0  0  0  0  0  0  0  0
    1.0453   -1.1225    0.5732 C   0  0  0  0  0  0  0  0  0  0  0  0
    1.1412    0.3708    0.9291 C   0  0  1  0  0  0  0  0  0  0  0  0
    2.5560    0.8668    0.5654 C   0  0  0  0  0  0  0  0  0  0  0  0
    2.5397    0.8728   -0.9911 C   0  0  0  0  0  0  0  0  0  0  0  0
    1.1178    0.3769   -1.3290 C   0  0  2  0  0  0  0  0  0  0  0  0
    0.3320    1.0051   -0.1899 C   0  0  0  0  0  3  0  0  0  0  0  0
    0.1082   -1.5519   -1.3636 H   0  0  0  0  0  0  0  0  0  0  0  0
    1.8640   -1.6790   -1.4111 H   0  0  0  0  0  0  0  0  0  0  0  0
    0.1259   -1.5534    0.9709 H   0  0  0  0  0  0  0  0  0  0  0  0
    1.8811   -1.6887    0.9862 H   0  0  0  0  0  0  0  0  0  0  0  0
    0.8338    0.6076    1.9456 H   0  0  0  0  0  0  0  0  0  0  0  0
    3.3284    0.2149    0.9767 H   0  0  0  0  0  0  0  0  0  0  0  0
    2.7283    1.8694    0.9592 H   0  0  0  0  0  0  0  0  0  0  0  0
    3.3041    0.2256   -1.4243 H   0  0  0  0  0  0  0  0  0  0  0  0
    2.7015    1.8787   -1.3808 H   0  0  0  0  0  0  0  0  0  0  0  0
    0.7951    0.6209   -2.3397 H   0  0  0  0  0  0  0  0  0  0  0  0
   -0.9244    0.5320   -0.1500 H   0  0  0  0  0  0  0  0  0  0  0  0
    0.2159    2.0885   -0.1852 H   0  0  0  0  0  0  0  0  0  0  0  0
  1  2  3  0
  1  5  1  0
  2  3  1  0
  3  4  2  3
  3 25  1  0
  4  6  1  0
  4  7  1  0
  8  9  1  0
  8 13  1  0
  8 15  1  0
  8 16  1  0
  9 10  1  0
  9 17  1  0
  9 18  1  0
 10 11  1  0
 10 14  1  0
 10 19  1  1
 11 12  1  0
 11 20  1  0
 11 21  1  0
 12 13  1  0
 12 22  1  0
 12 23  1  0
 13 14  1  0
 13 24  1  6
 14 26  1  0
M  RAD  1  14   2
M  END
>  <reaction>  (4) 
rxn_554

>  <mol_properties>  (4) 
{"1": {"label": "*0", "atom_type": "Ct"}, "2": {"label": "*1", "atom_type": "Cd"}, "9": {"label": "*4", "atom_type": "Cs"}, "13": {"label": "*3", "atom_type": "Cs"}, "24": {"label": "*2", "atom_type": "H0"}}

>  <type>  (4) 
ts

$$$$

     RDKit          3D

 26 26  0  0  0  0  0  0  0  0999 V2000
   -3.9759    1.5323    0.3554 C   0  0  0  0  0  0  0  0  0  0  0  0
   -3.1163    0.7097    0.2038 C   0  0  0  0  0  0  0  0  0  0  0  0
   -2.0774   -0.2535    0.0460 C   0  0  0  0  0  0  0  0  0  0  0  0
   -2.1264   -1.2630   -0.8167 C   0  0  0  0  0  0  0  0  0  0  0  0
   -4.7380    2.2617    0.4899 H   0  0  0  0  0  0  0  0  0  0  0  0
   -2.9809   -1.4129   -1.4641 H   0  0  0  0  0  0  0  0  0  0  0  0
   -1.3067   -1.9650   -0.8933 H   0  0  0  0  0  0  0  0  0  0  0  0
    1.2312   -1.3918   -0.7312 C   0  0  0  0  0  0  0  0  0  0  0  0
    1.2312   -1.3918    0.8232 C   0  0  0  0  0  0  0  0  0  0  0  0
    1.2312    0.1052    1.1711 C   0  0  0  0  0  0  0  0  0  0  0  0
    2.6105    0.6870    0.8232 C   0  0  0  0  0  0  0  0  0  0  0  0
    2.6105    0.6870   -0.7312 C   0  0  0  0  0  0  0  0  0  0  0  0
    1.2312    0.1052   -1.0791 C   0  0  0  0  0  0  0  0  0  0  0  0
    0.3617    0.6821    0.0460 C   0  0  0  0  0  3  0  0  0  0  0  0
    0.3375   -1.8800   -1.1233 H   0  0  0  0  0  0  0  0  0  0  0  0
    2.0957   -1.9071   -1.1525 H   0  0  0  0  0  0  0  0  0  0  0  0
    0.3375   -1.8800    1.2153 H   0  0  0  0  0  0  0  0  0  0  0  0
    2.0957   -1.9071    1.2445 H   0  0  0  0  0  0  0  0  0  0  0  0
    0.9068    0.3204    2.1883 H   0  0  0  0  0  0  0  0  0  0  0  0
    3.4213    0.0908    1.2445 H   0  0  0  0  0  0  0  0  0  0  0  0
    2.7129    1.7002    1.2153 H   0  0  0  0  0  0  0  0  0  0  0  0
    3.4213    0.0908   -1.1525 H   0  0  0  0  0  0  0  0  0  0  0  0
    2.7129    1.7002   -1.1233 H   0  0  0  0  0  0  0  0  0  0  0  0
    0.9068    0.3204   -2.0963 H   0  0  0  0  0  0  0  0  0  0  0  0
   -0.8617    0.2128    0.0460 H   0  0  0  0  0  0  0  0  0  0  0  0
    0.3257    1.7734    0.0460 H   0  0  0  0  0  0  0  0  0  0  0  0
  1  2  3  0
  1  5  1  0
  2  3  1  0
  3  4  2  3
  3 25  1  0
  4  6  1  0
  4  7  1  0
  8  9  1  0
  8 13  1  0
  8 15  1  0
  8 16  1  0
  9 10  1  0
  9 17  1  0
  9 18  1  0
 10 11  1  0
 10 14  1  0
 10 19  1  0
 11 12  1  0
 11 20  1  0
 11 21  1  0
 12 13  1  0
 12 22  1  0
 12 23  1  0
 13 14  1  0
 13 24  1  0
 14 26  1  0
M  RAD  1  14   2
M  END
>  <reaction>  (5) 
rxn_554

>  <mol_properties>  (5) 
{"1": {"label": "*0", "atom_type": "Ct"}, "2": {"label": "*1", "atom_type": "Cd"}, "9": {"label": "*4", "atom_type": "Cs"}, "13": {"label": "*3", "atom_type": "Cs"}, "24": {"label": "*2", "atom_type": "H0"}}

>  <type>  (5) 
unop_1

>  <geom_source>  (5) 
Heuristics

$$$$

     RDKit          3D

 26 26  0  0  0  0  0  0  0  0999 V2000
   -3.0811   -0.7279    2.1417 C   0  0  0  0  0  0  0  0  0  0  0  0
   -2.6626   -0.4150    1.0621 C   0  0  0  0  0  0  0  0  0  0  0  0
   -2.1356   -0.0438   -0.2093 C   0  0  0  0  0  0  0  0  0  0  0  0
   -2.8823    0.1781   -1.2859 C   0  0  0  0  0  0  0  0  0  0  0  0
   -3.4522   -1.0053    3.0989 H   0  0  0  0  0  0  0  0  0  0  0  0
   -3.9604    0.0867   -1.2552 H   0  0  0  0  0  0  0  0  0  0  0  0
   -2.4268    0.4577   -2.2265 H   0  0  0  0  0  0  0  0  0  0  0  0
    1.1730   -1.1821   -0.9865 C   0  0  0  0  0  0  0  0  0  0  0  0
    1.1730   -1.1821    0.5678 C   0  0  0  0  0  0  0  0  0  0  0  0
    1.1730    0.3148    0.9158 C   0  0  0  0  0  0  0  0  0  0  0  0
    2.5523    0.8967    0.5678 C   0  0  0  0  0  0  0  0  0  0  0  0
    2.5523    0.8967   -0.9865 C   0  0  0  0  0  0  0  0  0  0  0  0
    1.1730    0.3148   -1.3345 C   0  0  0  0  0  0  0  0  0  0  0  0
    0.3035    0.8918   -0.2093 C   0  0  0  0  0  3  0  0  0  0  0  0
    0.2793   -1.6703   -1.3787 H   0  0  0  0  0  0  0  0  0  0  0  0
    2.0375   -1.6974   -1.4079 H   0  0  0  0  0  0  0  0  0  0  0  0
    0.2793   -1.6703    0.9600 H   0  0  0  0  0  0  0  0  0  0  0  0
    2.0375   -1.6974    0.9892 H   0  0  0  0  0  0  0  0  0  0  0  0
    0.8486    0.5301    1.9330 H   0  0  0  0  0  0  0  0  0  0  0  0
    3.3631    0.3005    0.9892 H   0  0  0  0  0  0  0  0  0  0  0  0
    2.6547    1.9099    0.9600 H   0  0  0  0  0  0  0  0  0  0  0  0
    3.3631    0.3005   -1.4079 H   0  0  0  0  0  0  0  0  0  0  0  0
    2.6547    1.9099   -1.3787 H   0  0  0  0  0  0  0  0  0  0  0  0
    0.8486    0.5301   -2.3517 H   0  0  0  0  0  0  0  0  0  0  0  0
   -0.9199    0.4225   -0.2093 H   0  0  0  0  0  0  0  0  0  0  0  0
    0.2675    1.9831   -0.2093 H   0  0  0  0  0  0  0  0  0  0  0  0
  1  2  3  0
  1  5  1  0
  2  3  1  0
  3  4  2  3
  3 25  1  0
  4  6  1  0
  4  7  1  0
  8  9  1  0
  8 13  1  0
  8 15  1  0
  8 16  1  0
  9 10  1  0
  9 17  1  0
  9 18  1  0
 10 11  1  0
 10 14  1  0
 10 19  1  0
 11 12  1  0
 11 20  1  0
 11 21  1  0
 12 13  1  0
 12 22  1  0
 12 23  1  0
 13 14  1  0
 13 24  1  0
 14 26  1  0
M  RAD  1  14   2
M  END
>  <reaction>  (6) 
rxn_554

>  <mol_properties>  (6) 
{"1": {"label": "*0", "atom_type": "Ct"}, "2": {"label": "*1", "atom_type": "Cd"}, "9": {"label": "*4", "atom_type": "Cs"}, "13": {"label": "*3", "atom_type": "Cs"}, "24": {"label": "*2", "atom_type": "H0"}}

>  <type>  (6) 
unop_2

>  <geom_source>  (6) 
Heuristics

$$$$

     RDKit          3D

 26 26  0  0  0  0  0  0  0  0999 V2000
   -3.9251    1.4359   -0.7735 C   0  0  0  0  0  0  0  0  0  0  0  0
   -3.0924    0.6764   -0.3630 C   0  0  0  0  0  0  0  0  0  0  0  0
   -2.0863   -0.2014    0.1361 C   0  0  0  0  0  0  0  0  0  0  0  0
   -2.1275   -1.5238    0.0123 C   0  0  0  0  0  0  0  0  0  0  0  0
   -4.6633    2.1093   -1.1375 H   0  0  0  0  0  0  0  0  0  0  0  0
   -2.9495   -2.0198   -0.4878 H   0  0  0  0  0  0  0  0  0  0  0  0
   -1.3340   -2.1415    0.4116 H   0  0  0  0  0  0  0  0  0  0  0  0
    1.2223   -1.3397   -0.6411 C   0  0  0  0  0  0  0  0  0  0  0  0
    1.2223   -1.3397    0.9133 C   0  0  0  0  0  0  0  0  0  0  0  0
    1.2223    0.1572    1.2613 C   0  0  0  0  0  0  0  0  0  0  0  0
    2.6016    0.7391    0.9133 C   0  0  0  0  0  0  0  0  0  0  0  0
    2.6016    0.7391   -0.6411 C   0  0  0  0  0  0  0  0  0  0  0  0
    1.2223    0.1572   -0.9890 C   0  0  0  0  0  0  0  0  0  0  0  0
    0.3528    0.7342    0.1361 C   0  0  0  0  0  3  0  0  0  0  0  0
    0.3286   -1.8279   -1.0332 H   0  0  0  0  0  0  0  0  0  0  0  0
    2.0868   -1.8550   -1.0624 H   0  0  0  0  0  0  0  0  0  0  0  0
    0.3286   -1.8279    1.3054 H   0  0  0  0  0  0  0  0  0  0  0  0
    2.0868   -1.8550    1.3347 H   0  0  0  0  0  0  0  0  0  0  0  0
    0.8979    0.3725    2.2785 H   0  0  0  0  0  0  0  0  0  0  0  0
    3.4124    0.1429    1.3347 H   0  0  0  0  0  0  0  0  0  0  0  0
    2.7040    1.7523    1.3054 H   0  0  0  0  0  0  0  0  0  0  0  0
    3.4124    0.1429   -1.0624 H   0  0  0  0  0  0  0  0  0  0  0  0
    2.7040    1.7523   -1.0332 H   0  0  0  0  0  0  0  0  0  0  0  0
    0.8979    0.3725   -2.0062 H   0  0  0  0  0  0  0  0  0  0  0  0
   -0.8706    0.2649    0.1361 H   0  0  0  0  0  0  0  0  0  0  0  0
    0.3168    1.8255    0.1361 H   0  0  0  0  0  0  0  0  0  0  0  0
  1  2  3  0
  1  5  1  0
  2  3  1  0
  3  4  2  3
  3 25  1  0
  4  6  1  0
  4  7  1  0
  8  9  1  0
  8 13  1  0
  8 15  1  0
  8 16  1  0
  9 10  1  0
  9 17  1  0
  9 18  1  0
 10 11  1  0
 10 14  1  0
 10 19  1  0
 11 12  1  0
 11 20  1  0
 11 21  1  0
 12 13  1  0
 12 22  1  0
 12 23  1  0
 13 14  1  0
 13 24  1  0
 14 26  1  0
M  RAD  1  14   2
M  END
>  <reaction>  (7) 
rxn_554

>  <mol_properties>  (7) 
{"1": {"label": "*0", "atom_type": "Ct"}, "2": {"label": "*1", "atom_type": "Cd"}, "9": {"label": "*4", "atom_type": "Cs"}, "13": {"label": "*3", "atom_type": "Cs"}, "24": {"label": "*2", "atom_type": "H0"}}

>  <type>  (7) 
unop_3

>  <geom_source>  (7) 
Heuristics

$$$$

     RDKit          3D

 26 26  0  0  0  0  0  0  0  0999 V2000
   -2.4332   -2.4521   -0.1945 C   0  0  0  0  0  0  0  0  0  0  0  0
   -2.3486   -1.2617   -0.0746 C   0  0  0  0  0  0  0  0  0  0  0  0
   -2.2205    0.1493    0.0832 C   0  0  0  0  0  0  0  0  0  0  0  0
   -3.1103    1.0295   -0.3629 C   0  0  0  0  0  0  0  0  0  0  0  0
   -2.5082   -3.5075   -0.3008 H   0  0  0  0  0  0  0  0  0  0  0  0
   -4.0051    0.7147   -0.8844 H   0  0  0  0  0  0  0  0  0  0  0  0
   -2.9606    2.0907   -0.2143 H   0  0  0  0  0  0  0  0  0  0  0  0
    1.0882   -0.9890   -0.6940 C   0  0  0  0  0  0  0  0  0  0  0  0
    1.0882   -0.9890    0.8604 C   0  0  0  0  0  0  0  0  0  0  0  0
    1.0882    0.5080    1.2083 C   0  0  0  0  0  0  0  0  0  0  0  0
    2.4674    1.0898    0.8604 C   0  0  0  0  0  0  0  0  0  0  0  0
    2.4674    1.0898   -0.6940 C   0  0  0  0  0  0  0  0  0  0  0  0
    1.0882    0.5080   -1.0419 C   0  0  0  0  0  0  0  0  0  0  0  0
    0.2186    1.0849    0.0832 C   0  0  0  0  0  3  0  0  0  0  0  0
    0.1944   -1.4772   -1.0861 H   0  0  0  0  0  0  0  0  0  0  0  0
    1.9526   -1.5043   -1.1153 H   0  0  0  0  0  0  0  0  0  0  0  0
    0.1944   -1.4772    1.2525 H   0  0  0  0  0  0  0  0  0  0  0  0
    1.9527   -1.5043    1.2817 H   0  0  0  0  0  0  0  0  0  0  0  0
    0.7637    0.7232    2.2255 H   0  0  0  0  0  0  0  0  0  0  0  0
    3.2782    0.4936    1.2817 H   0  0  0  0  0  0  0  0  0  0  0  0
    2.5699    2.1030    1.2525 H   0  0  0  0  0  0  0  0  0  0  0  0
    3.2782    0.4936   -1.1153 H   0  0  0  0  0  0  0  0  0  0  0  0
    2.5699    2.1030   -1.0861 H   0  0  0  0  0  0  0  0  0  0  0  0
    0.7637    0.7232   -2.0591 H   0  0  0  0  0  0  0  0  0  0  0  0
   -1.0048    0.6156    0.0832 H   0  0  0  0  0  0  0  0  0  0  0  0
    0.1827    2.1763    0.0832 H   0  0  0  0  0  0  0  0  0  0  0  0
  1  2  3  0
  1  5  1  0
  2  3  1  0
  3  4  2  3
  3 25  1  0
  4  6  1  0
  4  7  1  0
  8  9  1  0
  8 13  1  0
  8 15  1  0
  8 16  1  0
  9 10  1  0
  9 17  1  0
  9 18  1  0
 10 11  1  0
 10 14  1  0
 10 19  1  0
 11 12  1  0
 11 20  1  0
 11 21  1  0
 12 13  1  0
 12 22  1  0
 12 23  1  0
 13 14  1  0
 13 24  1  0
 14 26  1  0
M  RAD  1  14   2
M  END
>  <reaction>  (8) 
rxn_554

>  <mol_properties>  (8) 
{"1": {"label": "*0", "atom_type": "Ct"}, "2": {"label": "*1", "atom_type": "Cd"}, "9": {"label": "*4", "atom_type": "Cs"}, "13": {"label": "*3", "atom_type": "Cs"}, "24": {"label": "*2", "atom_type": "H0"}}

>  <type>  (8) 
unop_4

>  <geom_source>  (8) 
Heuristics

$$$$

     RDKit          3D

 26 26  0  0  0  0  0  0  0  0999 V2000
   -3.6535    0.7807   -1.7283 C   0  0  0  0  0  0  0  0  0  0  0  0
   -2.9499    0.3472   -0.8591 C   0  0  0  0  0  0  0  0  0  0  0  0
   -2.0898   -0.1501    0.1632 C   0  0  0  0  0  0  0  0  0  0  0  0
   -2.4628   -1.0358    1.0808 C   0  0  0  0  0  0  0  0  0  0  0  0
   -4.2774    1.1651   -2.4990 H   0  0  0  0  0  0  0  0  0  0  0  0
   -3.4673   -1.4388    1.1027 H   0  0  0  0  0  0  0  0  0  0  0  0
   -1.7659   -1.3781    1.8342 H   0  0  0  0  0  0  0  0  0  0  0  0
    1.2189   -1.2883   -0.6140 C   0  0  0  0  0  0  0  0  0  0  0  0
    1.2189   -1.2883    0.9404 C   0  0  0  0  0  0  0  0  0  0  0  0
    1.2189    0.2086    1.2883 C   0  0  0  0  0  0  0  0  0  0  0  0
    2.5981    0.7905    0.9404 C   0  0  0  0  0  0  0  0  0  0  0  0
    2.5981    0.7905   -0.6140 C   0  0  0  0  0  0  0  0  0  0  0  0
    1.2189    0.2086   -0.9620 C   0  0  0  0  0  0  0  0  0  0  0  0
    0.3493    0.7856    0.1632 C   0  0  0  0  0  3  0  0  0  0  0  0
    0.3251   -1.7766   -1.0062 H   0  0  0  0  0  0  0  0  0  0  0  0
    2.0833   -1.8036   -1.0354 H   0  0  0  0  0  0  0  0  0  0  0  0
    0.3251   -1.7766    1.3325 H   0  0  0  0  0  0  0  0  0  0  0  0
    2.0833   -1.8036    1.3617 H   0  0  0  0  0  0  0  0  0  0  0  0
    0.8944    0.4239    2.3055 H   0  0  0  0  0  0  0  0  0  0  0  0
    3.4089    0.1942    1.3617 H   0  0  0  0  0  0  0  0  0  0  0  0
    2.7005    1.8037    1.3325 H   0  0  0  0  0  0  0  0  0  0  0  0
    3.4089    0.1942   -1.0354 H   0  0  0  0  0  0  0  0  0  0  0  0
    2.7005    1.8037   -1.0062 H   0  0  0  0  0  0  0  0  0  0  0  0
    0.8944    0.4239   -1.9792 H   0  0  0  0  0  0  0  0  0  0  0  0
   -0.8741    0.3163    0.1632 H   0  0  0  0  0  0  0  0  0  0  0  0
    0.3134    1.8769    0.1632 H   0  0  0  0  0  0  0  0  0  0  0  0
  1  2  3  0
  1  5  1  0
  2  3  1  0
  3  4  2  3
  3 25  1  0
  4  6  1  0
  4  7  1  0
  8  9  1  0
  8 13  1  0
  8 15  1  0
  8 16  1  0
  9 10  1  0
  9 17  1  0
  9 18  1  0
 10 11  1  0
 10 14  1  0
 10 19  1  0
 11 12  1  0
 11 20  1  0
 11 21  1  0
 12 13  1  0
 12 22  1  0
 12 23  1  0
 13 14  1  0
 13 24  1  0
 14 26  1  0
M  RAD  1  14   2
M  END
>  <reaction>  (9) 
rxn_554

>  <mol_properties>  (9) 
{"1": {"label": "*0", "atom_type": "Ct"}, "2": {"label": "*1", "atom_type": "Cd"}, "9": {"label": "*4", "atom_type": "Cs"}, "13": {"label": "*3", "atom_type": "Cs"}, "24": {"label": "*2", "atom_type": "H0"}}

>  <type>  (9) 
unop_5

>  <geom_source>  (9) 
Heuristics

$$$$

     RDKit          3D

 26 26  0  0  0  0  0  0  0  0999 V2000
   -2.5792   -2.1015   -1.2270 C   0  0  0  0  0  0  0  0  0  0  0  0
   -2.4197   -1.1006   -0.5858 C   0  0  0  0  0  0  0  0  0  0  0  0
   -2.2023    0.0777    0.1866 C   0  0  0  0  0  0  0  0  0  0  0  0
   -3.0520    1.0979    0.2387 C   0  0  0  0  0  0  0  0  0  0  0  0
   -2.7206   -2.9891   -1.7955 H   0  0  0  0  0  0  0  0  0  0  0  0
   -3.9806    1.0897   -0.3175 H   0  0  0  0  0  0  0  0  0  0  0  0
   -2.8343    1.9684    0.8432 H   0  0  0  0  0  0  0  0  0  0  0  0
    1.1064   -1.0606   -0.5906 C   0  0  0  0  0  0  0  0  0  0  0  0
    1.1064   -1.0606    0.9638 C   0  0  0  0  0  0  0  0  0  0  0  0
    1.1064    0.4364    1.3117 C   0  0  0  0  0  0  0  0  0  0  0  0
    2.4856    1.0182    0.9638 C   0  0  0  0  0  0  0  0  0  0  0  0
    2.4856    1.0182   -0.5906 C   0  0  0  0  0  0  0  0  0  0  0  0
    1.1064    0.4364   -0.9385 C   0  0  0  0  0  0  0  0  0  0  0  0
    0.2368    1.0133    0.1866 C   0  0  0  0  0  3  0  0  0  0  0  0
    0.2126   -1.5488   -0.9827 H   0  0  0  0  0  0  0  0  0  0  0  0
    1.9708   -1.5759   -1.0119 H   0  0  0  0  0  0  0  0  0  0  0  0
    0.2126   -1.5488    1.3559 H   0  0  0  0  0  0  0  0  0  0  0  0
    1.9708   -1.5759    1.3851 H   0  0  0  0  0  0  0  0  0  0  0  0
    0.7819    0.6516    2.3289 H   0  0  0  0  0  0  0  0  0  0  0  0
    3.2964    0.4220    1.3851 H   0  0  0  0  0  0  0  0  0  0  0  0
    2.5881    2.0315    1.3559 H   0  0  0  0  0  0  0  0  0  0  0  0
    3.2964    0.4220   -1.0119 H   0  0  0  0  0  0  0  0  0  0  0  0
    2.5881    2.0315   -0.9827 H   0  0  0  0  0  0  0  0  0  0  0  0
    0.7819    0.6516   -1.9557 H   0  0  0  0  0  0  0  0  0  0  0  0
   -0.9866    0.5440    0.1866 H   0  0  0  0  0  0  0  0  0  0  0  0
    0.2009    2.1047    0.1866 H   0  0  0  0  0  0  0  0  0  0  0  0
  1  2  3  0
  1  5  1  0
  2  3  1  0
  3  4  2  3
  3 25  1  0
  4  6  1  0
  4  7  1  0
  8  9  1  0
  8 13  1  0
  8 15  1  0
  8 16  1  0
  9 10  1  0
  9 17  1  0
  9 18  1  0
 10 11  1  0
 10 14  1  0
 10 19  1  0
 11 12  1  0
 11 20  1  0
 11 21  1  0
 12 13  1  0
 12 22  1  0
 12 23  1  0
 13 14  1  0
 13 24  1  0
 14 26  1  0
M  RAD  1  14   2
M  END
>  <reaction>  (10) 
rxn_554

>  <mol_properties>  (10) 
{"1": {"label": "*0", "atom_type": "Ct"}, "2": {"label": "*1", "atom_type": "Cd"}, "9": {"label": "*4", "atom_type": "Cs"}, "13": {"label": "*3", "atom_type": "Cs"}, "24": {"label": "*2", "atom_type": "H0"}}

>  <type>  (10) 
unop_6

>  <geom_source>  (10) 
Heuristics

$$$$

     RDKit          3D

 26 26  0  0  0  0  0  0  0  0999 V2000
   -2.8853   -1.3106   -1.9452 C   0  0  0  0  0  0  0  0  0  0  0  0
   -2.5686   -0.7180   -0.9517 C   0  0  0  0  0  0  0  0  0  0  0  0
   -2.1638   -0.0282    0.2283 C   0  0  0  0  0  0  0  0  0  0  0  0
   -2.9318    0.8367    0.8824 C   0  0  0  0  0  0  0  0  0  0  0  0
   -3.1662   -1.8359   -2.8262 H   0  0  0  0  0  0  0  0  0  0  0  0
   -3.9336    1.0708    0.5458 H   0  0  0  0  0  0  0  0  0  0  0  0
   -2.5713    1.3316    1.7744 H   0  0  0  0  0  0  0  0  0  0  0  0
    1.1448   -1.1665   -0.5488 C   0  0  0  0  0  0  0  0  0  0  0  0
    1.1448   -1.1665    1.0055 C   0  0  0  0  0  0  0  0  0  0  0  0
    1.1448    0.3305    1.3535 C   0  0  0  0  0  0  0  0  0  0  0  0
    2.5240    0.9123    1.0055 C   0  0  0  0  0  0  0  0  0  0  0  0
    2.5240    0.9123   -0.5488 C   0  0  0  0  0  0  0  0  0  0  0  0
    1.1448    0.3305   -0.8968 C   0  0  0  0  0  0  0  0  0  0  0  0
    0.2752    0.9074    0.2283 C   0  0  0  0  0  3  0  0  0  0  0  0
    0.2511   -1.6547   -0.9410 H   0  0  0  0  0  0  0  0  0  0  0  0
    2.0093   -1.6818   -0.9702 H   0  0  0  0  0  0  0  0  0  0  0  0
    0.2511   -1.6547    1.3977 H   0  0  0  0  0  0  0  0  0  0  0  0
    2.0093   -1.6818    1.4269 H   0  0  0  0  0  0  0  0  0  0  0  0
    0.8204    0.5457    2.3707 H   0  0  0  0  0  0  0  0  0  0  0  0
    3.3349    0.3161    1.4269 H   0  0  0  0  0  0  0  0  0  0  0  0
    2.6265    1.9256    1.3977 H   0  0  0  0  0  0  0  0  0  0  0  0
    3.3349    0.3161   -0.9702 H   0  0  0  0  0  0  0  0  0  0  0  0
    2.6265    1.9256   -0.9410 H   0  0  0  0  0  0  0  0  0  0  0  0
    0.8204    0.5457   -1.9140 H   0  0  0  0  0  0  0  0  0  0  0  0
   -0.9482    0.4381    0.2283 H   0  0  0  0  0  0  0  0  0  0  0  0
    0.2393    1.9988    0.2283 H   0  0  0  0  0  0  0  0  0  0  0  0
  1  2  3  0
  1  5  1  0
  2  3  1  0
  3  4  2  3
  3 25  1  0
  4  6  1  0
  4  7  1  0
  8  9  1  0
  8 13  1  0
  8 15  1  0
  8 16  1  0
  9 10  1  0
  9 17  1  0
  9 18  1  0
 10 11  1  0
 10 14  1  0
 10 19  1  0
 11 12  1  0
 11 20  1  0
 11 21  1  0
 12 13  1  0
 12 22  1  0
 12 23  1  0
 13 14  1  0
 13 24  1  0
 14 26  1  0
M  RAD  1  14   2
M  END
>  <reaction>  (11) 
rxn_554

>  <mol_properties>  (11) 
{"1": {"label": "*0", "atom_type": "Ct"}, "2": {"label": "*1", "atom_type": "Cd"}, "9": {"label": "*4", "atom_type": "Cs"}, "13": {"label": "*3", "atom_type": "Cs"}, "24": {"label": "*2", "atom_type": "H0"}}

>  <type>  (11) 
unop_7

>  <geom_source>  (11) 
Heuristics

$$$$

     RDKit          3D

 26 26  0  0  0  0  0  0  0  0999 V2000
   -3.8090    1.1045    1.3675 C   0  0  0  0  0  0  0  0  0  0  0  0
   -3.0285    0.4866    0.6986 C   0  0  0  0  0  0  0  0  0  0  0  0
   -2.0789   -0.2440   -0.0738 C   0  0  0  0  0  0  0  0  0  0  0  0
   -2.3375   -0.7646   -1.2687 C   0  0  0  0  0  0  0  0  0  0  0  0
   -4.5011    1.6524    1.9606 H   0  0  0  0  0  0  0  0  0  0  0  0
   -3.3096   -0.6595   -1.7331 H   0  0  0  0  0  0  0  0  0  0  0  0
   -1.5765   -1.3105   -1.8103 H   0  0  0  0  0  0  0  0  0  0  0  0
    1.2298   -1.3823   -0.8510 C   0  0  0  0  0  0  0  0  0  0  0  0
    1.2298   -1.3823    0.7034 C   0  0  0  0  0  0  0  0  0  0  0  0
    1.2298    0.1147    1.0514 C   0  0  0  0  0  0  0  0  0  0  0  0
    2.6090    0.6965    0.7034 C   0  0  0  0  0  0  0  0  0  0  0  0
    2.6090    0.6965   -0.8510 C   0  0  0  0  0  0  0  0  0  0  0  0
    1.2298    0.1147   -1.1989 C   0  0  0  0  0  0  0  0  0  0  0  0
    0.3602    0.6916   -0.0738 C   0  0  0  0  0  3  0  0  0  0  0  0
    0.3360   -1.8705   -1.2431 H   0  0  0  0  0  0  0  0  0  0  0  0
    2.0943   -1.8976   -1.2723 H   0  0  0  0  0  0  0  0  0  0  0  0
    0.3360   -1.8705    1.0956 H   0  0  0  0  0  0  0  0  0  0  0  0
    2.0943   -1.8976    1.1248 H   0  0  0  0  0  0  0  0  0  0  0  0
    0.9053    0.3299    2.0686 H   0  0  0  0  0  0  0  0  0  0  0  0
    3.4198    0.1003    1.1248 H   0  0  0  0  0  0  0  0  0  0  0  0
    2.7115    1.7097    1.0956 H   0  0  0  0  0  0  0  0  0  0  0  0
    3.4198    0.1003   -1.2723 H   0  0  0  0  0  0  0  0  0  0  0  0
    2.7115    1.7097   -1.2431 H   0  0  0  0  0  0  0  0  0  0  0  0
    0.9053    0.3299   -2.2161 H   0  0  0  0  0  0  0  0  0  0  0  0
   -0.8632    0.2223   -0.0738 H   0  0  0  0  0  0  0  0  0  0  0  0
    0.3243    1.7829   -0.0738 H   0  0  0  0  0  0  0  0  0  0  0  0
  1  2  3  0
  1  5  1  0
  2  3  1  0
  3  4  2  3
  3 25  1  0
  4  6  1  0
  4  7  1  0
  8  9  1  0
  8 13  1  0
  8 15  1  0
  8 16  1  0
  9 10  1  0
  9 17  1  0
  9 18  1  0
 10 11  1  0
 10 14  1  0
 10 19  1  0
 11 12  1  0
 11 20  1  0
 11 21  1  0
 12 13  1  0
 12 22  1  0
 12 23  1  0
 13 14  1  0
 13 24  1  0
 14 26  1  0
M  RAD  1  14   2
M  END
>  <reaction>  (12) 
rxn_554

>  <mol_properties>  (12) 
{"1": {"label": "*0", "atom_type": "Ct"}, "2": {"label": "*1", "atom_type": "Cd"}, "9": {"label": "*4", "atom_type": "Cs"}, "13": {"label": "*3", "atom_type": "Cs"}, "24": {"label": "*2", "atom_type": "H0"}}

>  <type>  (12) 
unop_8

>  <geom_source>  (12) 
Heuristics

$$$$

     RDKit          3D

 26 26  0  0  0  0  0  0  0  0999 V2000
   -2.4836   -2.2857    0.8810 C   0  0  0  0  0  0  0  0  0  0  0  0
   -2.3721   -1.1722    0.4493 C   0  0  0  0  0  0  0  0  0  0  0  0
   -2.2112    0.1533   -0.0498 C   0  0  0  0  0  0  0  0  0  0  0  0
   -3.1124    0.7779   -0.8004 C   0  0  0  0  0  0  0  0  0  0  0  0
   -2.5824   -3.2729    1.2638 H   0  0  0  0  0  0  0  0  0  0  0  0
   -4.0428    0.3014   -1.0814 H   0  0  0  0  0  0  0  0  0  0  0  0
   -2.9363    1.7860   -1.1517 H   0  0  0  0  0  0  0  0  0  0  0  0
    1.0974   -0.9849   -0.8270 C   0  0  0  0  0  0  0  0  0  0  0  0
    1.0974   -0.9849    0.7274 C   0  0  0  0  0  0  0  0  0  0  0  0
    1.0974    0.5120    1.0753 C   0  0  0  0  0  0  0  0  0  0  0  0
    2.4767    1.0939    0.7274 C   0  0  0  0  0  0  0  0  0  0  0  0
    2.4767    1.0939   -0.8270 C   0  0  0  0  0  0  0  0  0  0  0  0
    1.0974    0.5120   -1.1749 C   0  0  0  0  0  0  0  0  0  0  0  0
    0.2278    1.0890   -0.0498 C   0  0  0  0  0  3  0  0  0  0  0  0
    0.2037   -1.4732   -1.2191 H   0  0  0  0  0  0  0  0  0  0  0  0
    1.9619   -1.5002   -1.2483 H   0  0  0  0  0  0  0  0  0  0  0  0
    0.2037   -1.4732    1.1195 H   0  0  0  0  0  0  0  0  0  0  0  0
    1.9619   -1.5002    1.1487 H   0  0  0  0  0  0  0  0  0  0  0  0
    0.7730    0.7273    2.0925 H   0  0  0  0  0  0  0  0  0  0  0  0
    3.2875    0.4976    1.1487 H   0  0  0  0  0  0  0  0  0  0  0  0
    2.5791    2.1071    1.1195 H   0  0  0  0  0  0  0  0  0  0  0  0
    3.2875    0.4976   -1.2483 H   0  0  0  0  0  0  0  0  0  0  0  0
    2.5791    2.1071   -1.2191 H   0  0  0  0  0  0  0  0  0  0  0  0
    0.7730    0.7273   -2.1921 H   0  0  0  0  0  0  0  0  0  0  0  0
   -0.9956    0.6197   -0.0498 H   0  0  0  0  0  0  0  0  0  0  0  0
    0.1919    2.1803   -0.0498 H   0  0  0  0  0  0  0  0  0  0  0  0
  1  2  3  0
  1  5  1  0
  2  3  1  0
  3  4  2  3
  3 25  1  0
  4  6  1  0
  4  7  1  0
  8  9  1  0
  8 13  1  0
  8 15  1  0
  8 16  1  0
  9 10  1  0
  9 17  1  0
  9 18  1  0
 10 11  1  0
 10 14  1  0
 10 19  1  0
 11 12  1  0
 11 20  1  0
 11 21  1  0
 12 13  1  0
 12 22  1  0
 12 23  1  0
 13 14  1  0
 13 24  1  0
 14 26  1  0
M  RAD  1  14   2
M  END
>  <reaction>  (13) 
rxn_554

>  <mol_properties>  (13) 
{"1": {"label": "*0", "atom_type": "Ct"}, "2": {"label": "*1", "atom_type": "Cd"}, "9": {"label": "*4", "atom_type": "Cs"}, "13": {"label": "*3", "atom_type": "Cs"}, "24": {"label": "*2", "atom_type": "H0"}}

>  <type>  (13) 
unop_9

>  <geom_source>  (13) 
Heuristics

$$$$

     RDKit          3D

 26 26  0  0  0  0  0  0  0  0999 V2000
   -3.4804    0.2778    2.0147 C   0  0  0  0  0  0  0  0  0  0  0  0
   -2.8615    0.0754    1.0074 C   0  0  0  0  0  0  0  0  0  0  0  0
   -2.0992   -0.1668   -0.1726 C   0  0  0  0  0  0  0  0  0  0  0  0
   -2.6227   -0.2417   -1.3916 C   0  0  0  0  0  0  0  0  0  0  0  0
   -4.0291    0.4573    2.9078 H   0  0  0  0  0  0  0  0  0  0  0  0
   -3.6851   -0.1197   -1.5596 H   0  0  0  0  0  0  0  0  0  0  0  0
   -1.9945   -0.4280   -2.2525 H   0  0  0  0  0  0  0  0  0  0  0  0
    1.2094   -1.3050   -0.9498 C   0  0  0  0  0  0  0  0  0  0  0  0
    1.2094   -1.3050    0.6046 C   0  0  0  0  0  0  0  0  0  0  0  0
    1.2094    0.1919    0.9526 C   0  0  0  0  0  0  0  0  0  0  0  0
    2.5887    0.7738    0.6046 C   0  0  0  0  0  0  0  0  0  0  0  0
    2.5887    0.7738   -0.9498 C   0  0  0  0  0  0  0  0  0  0  0  0
    1.2094    0.1919   -1.2977 C   0  0  0  0  0  0  0  0  0  0  0  0
    0.3398    0.7689   -0.1726 C   0  0  0  0  0  3  0  0  0  0  0  0
    0.3157   -1.7933   -1.3419 H   0  0  0  0  0  0  0  0  0  0  0  0
    2.0739   -1.8204   -1.3711 H   0  0  0  0  0  0  0  0  0  0  0  0
    0.3157   -1.7933    0.9967 H   0  0  0  0  0  0  0  0  0  0  0  0
    2.0739   -1.8204    1.0260 H   0  0  0  0  0  0  0  0  0  0  0  0
    0.8850    0.4072    1.9698 H   0  0  0  0  0  0  0  0  0  0  0  0
    3.3995    0.1775    1.0260 H   0  0  0  0  0  0  0  0  0  0  0  0
    2.6911    1.7870    0.9967 H   0  0  0  0  0  0  0  0  0  0  0  0
    3.3995    0.1775   -1.3711 H   0  0  0  0  0  0  0  0  0  0  0  0
    2.6911    1.7870   -1.3419 H   0  0  0  0  0  0  0  0  0  0  0  0
    0.8850    0.4072   -2.3149 H   0  0  0  0  0  0  0  0  0  0  0  0
   -0.8836    0.2996   -0.1726 H   0  0  0  0  0  0  0  0  0  0  0  0
    0.3039    1.8602   -0.1726 H   0  0  0  0  0  0  0  0  0  0  0  0
  1  2  3  0
  1  5  1  0
  2  3  1  0
  3  4  2  3
  3 25  1  0
  4  6  1  0
  4  7  1  0
  8  9  1  0
  8 13  1  0
  8 15  1  0
  8 16  1  0
  9 10  1  0
  9 17  1  0
  9 18  1  0
 10 11  1  0
 10 14  1  0
 10 19  1  0
 11 12  1  0
 11 20  1  0
 11 21  1  0
 12 13  1  0
 12 22  1  0
 12 23  1  0
 13 14  1  0
 13 24  1  0
 14 26  1  0
M  RAD  1  14   2
M  END
>  <reaction>  (14) 
rxn_554

>  <mol_properties>  (14) 
{"1": {"label": "*0", "atom_type": "Ct"}, "2": {"label": "*1", "atom_type": "Cd"}, "9": {"label": "*4", "atom_type": "Cs"}, "13": {"label": "*3", "atom_type": "Cs"}, "24": {"label": "*2", "atom_type": "H0"}}

>  <type>  (14) 
unop_10

>  <geom_source>  (14) 
Heuristics

$$$$

     RDKit          3D

 26 26  0  0  0  0  0  0  0  0999 V2000
   -3.2728   -0.2644   -2.1494 C   0  0  0  0  0  0  0  0  0  0  0  0
   -2.7581   -0.1952   -1.0683 C   0  0  0  0  0  0  0  0  0  0  0  0
   -2.1180   -0.1187    0.2031 C   0  0  0  0  0  0  0  0  0  0  0  0
   -2.7582    0.1203    1.3428 C   0  0  0  0  0  0  0  0  0  0  0  0
   -3.7293   -0.3258   -3.1080 H   0  0  0  0  0  0  0  0  0  0  0  0
   -3.8294    0.2740    1.3684 H   0  0  0  0  0  0  0  0  0  0  0  0
   -2.2197    0.1673    2.2800 H   0  0  0  0  0  0  0  0  0  0  0  0
    1.1906   -1.2569   -0.5741 C   0  0  0  0  0  0  0  0  0  0  0  0
    1.1906   -1.2569    0.9803 C   0  0  0  0  0  0  0  0  0  0  0  0
    1.1906    0.2400    1.3283 C   0  0  0  0  0  0  0  0  0  0  0  0
    2.5698    0.8219    0.9803 C   0  0  0  0  0  0  0  0  0  0  0  0
    2.5698    0.8219   -0.5741 C   0  0  0  0  0  0  0  0  0  0  0  0
    1.1906    0.2400   -0.9220 C   0  0  0  0  0  0  0  0  0  0  0  0
    0.3210    0.8170    0.2031 C   0  0  0  0  0  3  0  0  0  0  0  0
    0.2969   -1.7451   -0.9662 H   0  0  0  0  0  0  0  0  0  0  0  0
    2.0551   -1.7722   -0.9954 H   0  0  0  0  0  0  0  0  0  0  0  0
    0.2969   -1.7451    1.3724 H   0  0  0  0  0  0  0  0  0  0  0  0
    2.0551   -1.7722    1.4016 H   0  0  0  0  0  0  0  0  0  0  0  0
    0.8662    0.4553    2.3455 H   0  0  0  0  0  0  0  0  0  0  0  0
    3.3806    0.2257    1.4016 H   0  0  0  0  0  0  0  0  0  0  0  0
    2.6723    1.8351    1.3724 H   0  0  0  0  0  0  0  0  0  0  0  0
    3.3806    0.2257   -0.9954 H   0  0  0  0  0  0  0  0  0  0  0  0
    2.6723    1.8351   -0.9662 H   0  0  0  0  0  0  0  0  0  0  0  0
    0.8661    0.4553   -1.9392 H   0  0  0  0  0  0  0  0  0  0  0  0
   -0.9024    0.3477    0.2031 H   0  0  0  0  0  0  0  0  0  0  0  0
    0.2851    1.9083    0.2031 H   0  0  0  0  0  0  0  0  0  0  0  0
  1  2  3  0
  1  5  1  0
  2  3  1  0
  3  4  2  3
  3 25  1  0
  4  6  1  0
  4  7  1  0
  8  9  1  0
  8 13  1  0
  8 15  1  0
  8 16  1  0
  9 10  1  0
  9 17  1  0
  9 18  1  0
 10 11  1  0
 10 14  1  0
 10 19  1  0
 11 12  1  0
 11 20  1  0
 11 21  1  0
 12 13  1  0
 12 22  1  0
 12 23  1  0
 13 14  1  0
 13 24  1  0
 14 26  1  0
M  RAD  1  14   2
M  END
>  <reaction>  (15) 
rxn_554

>  <mol_properties>  (15) 
{"1": {"label": "*0", "atom_type": "Ct"}, "2": {"label": "*1", "atom_type": "Cd"}, "9": {"label": "*4", "atom_type": "Cs"}, "13": {"label": "*3", "atom_type": "Cs"}, "24": {"label": "*2", "atom_type": "H0"}}

>  <type>  (15) 
unop_11

>  <geom_source>  (15) 
Heuristics

$$$$

     RDKit          3D

 26 26  0  0  0  0  0  0  0  0999 V2000
   -2.7182   -1.6577    1.7283 C   0  0  0  0  0  0  0  0  0  0  0  0
   -2.4850   -0.8648    0.8591 C   0  0  0  0  0  0  0  0  0  0  0  0
   -2.1781    0.0801   -0.1632 C   0  0  0  0  0  0  0  0  0  0  0  0
   -3.0478    0.4891   -1.0808 C   0  0  0  0  0  0  0  0  0  0  0  0
   -2.9249   -2.3607    2.4990 H   0  0  0  0  0  0  0  0  0  0  0  0
   -4.0640    0.1170   -1.1027 H   0  0  0  0  0  0  0  0  0  0  0  0
   -2.7586    1.2097   -1.8342 H   0  0  0  0  0  0  0  0  0  0  0  0
    1.1306   -1.0581   -0.9404 C   0  0  0  0  0  0  0  0  0  0  0  0
    1.1306   -1.0581    0.6140 C   0  0  0  0  0  0  0  0  0  0  0  0
    1.1306    0.4388    0.9620 C   0  0  0  0  0  0  0  0  0  0  0  0
    2.5098    1.0207    0.6140 C   0  0  0  0  0  0  0  0  0  0  0  0
    2.5098    1.0207   -0.9404 C   0  0  0  0  0  0  0  0  0  0  0  0
    1.1306    0.4388   -1.2883 C   0  0  0  0  0  0  0  0  0  0  0  0
    0.2610    1.0158   -0.1632 C   0  0  0  0  0  3  0  0  0  0  0  0
    0.2368   -1.5463   -1.3325 H   0  0  0  0  0  0  0  0  0  0  0  0
    1.9950   -1.5734   -1.3617 H   0  0  0  0  0  0  0  0  0  0  0  0
    0.2368   -1.5463    1.0062 H   0  0  0  0  0  0  0  0  0  0  0  0
    1.9950   -1.5734    1.0354 H   0  0  0  0  0  0  0  0  0  0  0  0
    0.8061    0.6541    1.9792 H   0  0  0  0  0  0  0  0  0  0  0  0
    3.3206    0.4245    1.0354 H   0  0  0  0  0  0  0  0  0  0  0  0
    2.6122    2.0339    1.0062 H   0  0  0  0  0  0  0  0  0  0  0  0
    3.3206    0.4245   -1.3617 H   0  0  0  0  0  0  0  0  0  0  0  0
    2.6122    2.0339   -1.3325 H   0  0  0  0  0  0  0  0  0  0  0  0
    0.8061    0.6541   -2.3055 H   0  0  0  0  0  0  0  0  0  0  0  0
   -0.9624    0.5465   -0.1632 H   0  0  0  0  0  0  0  0  0  0  0  0
    0.2250    2.1071   -0.1632 H   0  0  0  0  0  0  0  0  0  0  0  0
  1  2  3  0
  1  5  1  0
  2  3  1  0
  3  4  2  3
  3 25  1  0
  4  6  1  0
  4  7  1  0
  8  9  1  0
  8 13  1  0
  8 15  1  0
  8 16  1  0
  9 10  1  0
  9 17  1  0
  9 18  1  0
 10 11  1  0
 10 14  1  0
 10 19  1  0
 11 12  1  0
 11 20  1  0
 11 21  1  0
 12 13  1  0
 12 22  1  0
 12 23  1  0
 13 14  1  0
 13 24  1  0
 14 26  1  0
M  RAD  1  14   2
M  END
>  <reaction>  (16) 
rxn_554

>  <mol_properties>  (16) 
{"1": {"label": "*0", "atom_type": "Ct"}, "2": {"label": "*1", "atom_type": "Cd"}, "9": {"label": "*4", "atom_type": "Cs"}, "13": {"label": "*3", "atom_type": "Cs"}, "24": {"label": "*2", "atom_type": "H0"}}

>  <type>  (16) 
unop_12

>  <geom_source>  (16) 
Heuristics

$$$$

     RDKit          3D

 26 24  0  0  0  0  0  0  0  0999 V2000
   -1.1432    1.0864    0.7733 C   0  0  0  0  0  3  0  0  0  0  0  0
   -0.7256   -0.9308   -0.0415 C   0  0  0  0  0  3  0  0  0  0  0  0
   -0.7238    1.3857   -0.6762 C   0  0  0  0  0  0  0  0  0  0  0  0
   -2.5316    0.4292    0.7677 C   0  0  0  0  0  0  0  0  0  0  0  0
   -2.2416   -0.9711    0.2022 C   0  0  0  0  0  0  0  0  0  0  0  0
   -0.4342   -0.0129   -1.2411 C   0  0  0  0  0  0  0  0  0  0  0  0
   -0.2718   -0.0917    1.1253 C   0  0  0  0  0  1  0  0  0  0  0  0
    2.1514   -0.0412    0.2039 C   0  0  0  0  0  0  0  0  0  0  0  0
    2.9779    0.9379    0.5521 C   0  0  0  0  0  0  0  0  0  0  0  0
    2.6535   -1.2647   -0.3607 C   0  0  0  0  0  0  0  0  0  0  0  0
    3.0733   -2.2909   -0.8341 C   0  0  0  0  0  0  0  0  0  0  0  0
   -1.0526    1.9522    1.4633 H   0  0  0  0  0  0  0  0  0  0  0  0
   -0.2484   -1.9319   -0.1055 H   0  0  0  0  0  0  0  0  0  0  0  0
   -1.5268    1.9032   -1.2453 H   0  0  0  0  0  0  0  0  0  0  0  0
    0.1966    2.0102   -0.6893 H   0  0  0  0  0  0  0  0  0  0  0  0
   -3.2561    0.9881    0.1358 H   0  0  0  0  0  0  0  0  0  0  0  0
   -2.9280    0.3569    1.8047 H   0  0  0  0  0  0  0  0  0  0  0  0
   -2.8104   -1.1646   -0.7336 H   0  0  0  0  0  0  0  0  0  0  0  0
   -2.4909   -1.7542    0.9520 H   0  0  0  0  0  0  0  0  0  0  0  0
    0.6334   -0.0992   -1.5413 H   0  0  0  0  0  0  0  0  0  0  0  0
   -1.0814   -0.2481   -2.1142 H   0  0  0  0  0  0  0  0  0  0  0  0
    0.8157    0.1496    1.0853 H   0  0  0  0  0  0  0  0  0  0  0  0
    0.8920    0.1015    0.3709 H   0  0  0  0  0  0  0  0  0  0  0  0
    2.5813    1.8510    0.9753 H   0  0  0  0  0  0  0  0  0  0  0  0
    4.0491    0.8411    0.4206 H   0  0  0  0  0  0  0  0  0  0  0  0
    3.4420   -3.1917   -1.2496 H   0  0  0  0  0  0  0  0  0  0  0  0
  1  3  1  0
  1  4  1  0
  1 12  1  0
  2  6  1  0
  2  5  1  0
  2 13  1  0
  3  6  1  0
  3 14  1  0
  3 15  1  0
  4  5  1  0
  4 16  1  0
  4 17  1  0
  5 18  1  0
  5 19  1  0
  6 20  1  0
  6 21  1  0
  7 22  1  0
  8  9  2  3
  8 10  1  0
  8 23  1  0
  9 24  1  0
  9 25  1  0
 10 11  3  0
 11 26  1  0
M  CHG  2   1  -1   2   1
M  RAD  1   7   2
M  END
>  <reaction>  (17) 
rxn_554

>  <mol_properties>  (17) 
{"1": {"label": "*0", "atom_type": "Ct"}, "2": {"label": "*1", "atom_type": "Cd"}, "9": {"label": "*4", "atom_type": "Cs"}, "13": {"label": "*3", "atom_type": "Cs"}, "24": {"label": "*2", "atom_type": "H0"}}

>  <type>  (17) 
unop_13

>  <geom_source>  (17) 
AutoTST

$$$$
