
     RDKit          3D

  9  8  0  0  0  0  0  0  0  0999 V2000
    1.1303   -0.2933   -0.7510 C   0  0  0  0  0  0  0  0  0  0  0  0
    0.2866    0.4560   -0.0588 C   0  0  0  0  0  0  0  0  0  0  0  0
   -0.9719   -0.0331    0.5823 C   0  0  0  0  0  0  0  0  0  0  0  0
    2.0274    0.1230   -1.1916 H   0  0  0  0  0  0  0  0  0  0  0  0
    0.9532   -1.3530   -0.9023 H   0  0  0  0  0  0  0  0  0  0  0  0
    0.5065    1.5132    0.0659 H   0  0  0  0  0  0  0  0  0  0  0  0
   -0.9526    0.1426    1.6610 H   0  0  0  0  0  0  0  0  0  0  0  0
   -1.1182   -1.1002    0.4106 H   0  0  0  0  0  0  0  0  0  0  0  0
   -1.8412    0.5010    0.1901 H   0  0  0  0  0  0  0  0  0  0  0  0
  1  2  2  3
  1  4  1  0
  1  5  1  0
  2  3  1  0
  2  6  1  0
  3  7  1  0
  3  8  1  0
  3  9  1  0
M  END
>  <reaction>  (1) 
rxn_1027

>  <mol_properties>  (1) 
{"2": {"label": "donator", "atom_type": "Cs"}, "6": {"label": "d_hydrogen", "atom_type": "H0"}}

>  <type>  (1) 
r1h

$$$$

     RDKit          3D

 12 11  0  0  0  0  0  0  0  0999 V2000
   -0.9951    0.1196   -0.8321 C   0  0  0  0  0  0  0  0  0  0  0  0
   -0.3760    0.2571    0.5231 C   0  0  0  0  0  3  0  0  0  0  0  0
    0.9330   -0.1537    0.7810 C   0  0  0  0  0  0  0  0  0  0  0  0
    1.5987   -0.1880    1.9734 C   0  0  0  0  0  0  0  0  0  0  0  0
   -1.4483    0.9449    1.7152 S   0  0  0  0  0  0  0  0  0  0  0  0
   -1.9164   -0.4696   -0.7936 H   0  0  0  0  0  0  0  0  0  0  0  0
   -1.2565    1.0958   -1.2506 H   0  0  0  0  0  0  0  0  0  0  0  0
   -0.3088   -0.3780   -1.5170 H   0  0  0  0  0  0  0  0  0  0  0  0
    1.4783   -0.4898   -0.0971 H   0  0  0  0  0  0  0  0  0  0  0  0
    2.6278   -0.5153    2.0142 H   0  0  0  0  0  0  0  0  0  0  0  0
    1.1316    0.0690    2.9151 H   0  0  0  0  0  0  0  0  0  0  0  0
   -0.5306    1.3052    2.6211 H   0  0  0  0  0  0  0  0  0  0  0  0
  1  2  1  0
  1  6  1  0
  1  7  1  0
  1  8  1  0
  2  3  1  0
  2  5  1  0
  3  4  2  3
  3  9  1  0
  4 10  1  0
  4 11  1  0
  5 12  1  0
M  RAD  1   2   2
M  END
>  <reaction>  (2) 
rxn_1027

>  <mol_properties>  (2) 
{"1": {"label": "acceptor", "atom_type": "Cs"}}

>  <type>  (2) 
r2

$$$$

     RDKit          3D

 13 12  0  0  0  0  0  0  0  0999 V2000
   -1.1828    0.8269   -0.1645 C   0  0  0  0  0  0  0  0  0  0  0  0
   -0.4827   -0.4584   -0.5736 C   0  0  1  0  0  0  0  0  0  0  0  0
   -0.9759   -1.7030    0.1030 C   0  0  0  0  0  0  0  0  0  0  0  0
   -2.0084   -1.7831    0.9287 C   0  0  0  0  0  0  0  0  0  0  0  0
   -0.4908   -0.7025   -2.3913 S   0  0  0  0  0  0  0  0  0  0  0  0
   -1.0941    0.9860    0.9125 H   0  0  0  0  0  0  0  0  0  0  0  0
   -0.7405    1.6784   -0.6793 H   0  0  0  0  0  0  0  0  0  0  0  0
   -2.2437    0.7943   -0.4195 H   0  0  0  0  0  0  0  0  0  0  0  0
    0.5870   -0.3637   -0.3637 H   0  0  0  0  0  0  0  0  0  0  0  0
   -0.4209   -2.6026   -0.1443 H   0  0  0  0  0  0  0  0  0  0  0  0
   -2.2982   -2.7315    1.3623 H   0  0  0  0  0  0  0  0  0  0  0  0
   -2.5999   -0.9190    1.2055 H   0  0  0  0  0  0  0  0  0  0  0  0
   -1.8040   -0.9489   -2.4971 H   0  0  0  0  0  0  0  0  0  0  0  0
  1  2  1  0
  1  6  1  0
  1  7  1  0
  1  8  1  0
  2  3  1  0
  2  5  1  0
  2  9  1  1
  3  4  2  3
  3 10  1  0
  4 11  1  0
  4 12  1  0
  5 13  1  0
M  END
>  <reaction>  (3) 
rxn_1027

>  <mol_properties>  (3) 
{"1": {"label": "acceptor", "atom_type": "Cs"}, "12": {"label": "a_hydrogen", "atom_type": "H0"}}

>  <type>  (3) 
r2h

$$$$

     RDKit          3D

 21 19  0  0  0  0  0  0  0  0999 V2000
   -0.9850   -1.2884    0.5219 C   0  0  0  0  0  0  0  0  0  0  0  0
   -0.4151    0.0958    0.6957 C   0  0  1  0  0  0  0  0  0  0  0  0
   -1.1183    1.2163    0.0696 C   0  0  0  0  0  0  0  0  0  0  0  0
   -2.1347    1.1163   -0.7888 C   0  0  0  0  0  0  0  0  0  0  0  0
    0.2715    0.4567    2.3201 S   0  0  0  0  0  0  0  0  0  0  0  0
   -1.9644   -1.3736    1.0018 H   0  0  0  0  0  0  0  0  0  0  0  0
   -1.1048   -1.5224   -0.5388 H   0  0  0  0  0  0  0  0  0  0  0  0
   -0.3235   -2.0315    0.9654 H   0  0  0  0  0  0  0  0  0  0  0  0
   -0.7368    2.2009    0.3214 H   0  0  0  0  0  0  0  0  0  0  0  0
   -2.5750    2.0014   -1.2290 H   0  0  0  0  0  0  0  0  0  0  0  0
   -2.5609    0.1628   -1.0741 H   0  0  0  0  0  0  0  0  0  0  0  0
   -0.8899    0.6561    2.9637 H   0  0  0  0  0  0  0  0  0  0  0  0
    0.8119   -0.3582   -3.0642 C   0  0  0  0  0  0  0  0  0  0  0  0
    1.3573   -0.8858   -1.9603 C   0  0  0  0  0  0  0  0  0  0  0  0
    1.8073   -0.1198   -0.8184 C   0  0  0  0  0  3  0  0  0  0  0  0
    0.4561   -0.9830   -3.8727 H   0  0  0  0  0  0  0  0  0  0  0  0
    0.7149    0.7148   -3.1853 H   0  0  0  0  0  0  0  0  0  0  0  0
    1.4240   -1.9672   -1.8808 H   0  0  0  0  0  0  0  0  0  0  0  0
    0.7284    0.0084   -0.0120 H   0  0  0  0  0  0  0  0  0  0  0  0
    2.0143    0.9329   -0.9977 H   0  0  0  0  0  0  0  0  0  0  0  0
    2.5267   -0.5978   -0.1595 H   0  0  0  0  0  0  0  0  0  0  0  0
  1  2  1  0
  1  6  1  0
  1  7  1  0
  1  8  1  0
  2  3  1  0
  2  5  1  0
  2 19  1  6
  3  4  2  3
  3  9  1  0
  4 10  1  0
  4 11  1  0
  5 12  1  0
 13 14  2  3
 13 16  1  0
 13 17  1  0
 14 15  1  0
 14 18  1  0
 15 20  1  0
 15 21  1  0
M  RAD  1  15   2
M  END
>  <reaction>  (4) 
rxn_1027

>  <mol_properties>  (4) 
{"1": {"label": "*1", "atom_type": "Cs"}, "4": {"label": "*0", "atom_type": "S2s"}, "13": {"label": "*4", "atom_type": "Cd"}, "14": {"label": "*3", "atom_type": "Cs"}, "18": {"label": "*2", "atom_type": "H0"}}

>  <type>  (4) 
ts

$$$$

     RDKit          3D

 21 19  0  0  0  0  0  0  0  0999 V2000
    0.0561   -0.0071    2.2556 C   0  0  0  0  0  0  0  0  0  0  0  0
   -0.4027   -0.0236    0.8070 C   0  0  0  0  0  3  0  0  0  0  0  0
   -1.8169   -0.4717    0.5852 C   0  0  0  0  0  0  0  0  0  0  0  0
   -2.7026   -0.7499    1.5299 C   0  0  0  0  0  0  0  0  0  0  0  0
   -0.1317    1.5893   -0.0232 S   0  0  0  0  0  0  0  0  0  0  0  0
   -0.5355    0.6943    2.8468 H   0  0  0  0  0  0  0  0  0  0  0  0
   -0.0435   -0.9996    2.7009 H   0  0  0  0  0  0  0  0  0  0  0  0
    1.0993    0.2988    2.3180 H   0  0  0  0  0  0  0  0  0  0  0  0
   -2.1093   -0.5472   -0.4575 H   0  0  0  0  0  0  0  0  0  0  0  0
   -3.7082   -1.0568    1.2730 H   0  0  0  0  0  0  0  0  0  0  0  0
   -2.4664   -0.6862    2.5850 H   0  0  0  0  0  0  0  0  0  0  0  0
   -1.0744    2.2594    0.6540 H   0  0  0  0  0  0  0  0  0  0  0  0
    1.7049   -1.2868   -2.9411 C   0  0  0  0  0  0  0  0  0  0  0  0
    1.7049   -1.2868   -1.6173 C   0  0  0  0  0  0  0  0  0  0  0  0
    1.7049   -0.0647   -0.7568 C   0  0  0  0  0  0  0  0  0  0  0  0
    1.7049   -2.2096   -3.5075 H   0  0  0  0  0  0  0  0  0  0  0  0
    1.7049   -0.3612   -3.5071 H   0  0  0  0  0  0  0  0  0  0  0  0
    1.7049   -2.2395   -1.0938 H   0  0  0  0  0  0  0  0  0  0  0  0
    0.6517   -0.0441    0.0247 H   0  0  0  0  0  0  0  0  0  0  0  0
    1.7049    0.8458   -1.3574 H   0  0  0  0  0  0  0  0  0  0  0  0
    2.5826   -0.0475   -0.1056 H   0  0  0  0  0  0  0  0  0  0  0  0
  1  2  1  0
  1  6  1  0
  1  7  1  0
  1  8  1  0
  2  3  1  0
  2  5  1  0
  3  4  2  3
  3  9  1  0
  4 10  1  0
  4 11  1  0
  5 12  1  0
 13 14  2  3
 13 16  1  0
 13 17  1  0
 14 15  1  0
 14 18  1  0
 15 19  1  0
 15 20  1  0
 15 21  1  0
M  RAD  1   2   2
M  END
>  <reaction>  (5) 
rxn_1027

>  <mol_properties>  (5) 
{"1": {"label": "*1", "atom_type": "Cs"}, "4": {"label": "*0", "atom_type": "S2s"}, "13": {"label": "*4", "atom_type": "Cd"}, "14": {"label": "*3", "atom_type": "Cs"}, "18": {"label": "*2", "atom_type": "H0"}}

>  <type>  (5) 
unop_1

>  <geom_source>  (5) 
Heuristics

$$$$

     RDKit          3D

 21 19  0  0  0  0  0  0  0  0999 V2000
   -0.9386   -1.3399    0.8166 C   0  0  0  0  0  0  0  0  0  0  0  0
   -0.5283    0.0890    0.5014 C   0  0  0  0  0  3  0  0  0  0  0  0
   -1.6585    1.0402    0.2409 C   0  0  0  0  0  0  0  0  0  0  0  0
   -2.9491    0.7665    0.3585 C   0  0  0  0  0  0  0  0  0  0  0  0
    0.5814    0.7892    1.7829 S   0  0  0  0  0  0  0  0  0  0  0  0
   -1.5333   -1.3849    1.7308 H   0  0  0  0  0  0  0  0  0  0  0  0
   -1.5326   -1.7573    0.0005 H   0  0  0  0  0  0  0  0  0  0  0  0
   -0.0572   -1.9633    0.9592 H   0  0  0  0  0  0  0  0  0  0  0  0
   -1.3507    2.0389   -0.0527 H   0  0  0  0  0  0  0  0  0  0  0  0
   -3.6961    1.5239    0.1590 H   0  0  0  0  0  0  0  0  0  0  0  0
   -3.3116   -0.2108    0.6529 H   0  0  0  0  0  0  0  0  0  0  0  0
   -0.3478    0.8766    2.7449 H   0  0  0  0  0  0  0  0  0  0  0  0
    1.5793   -1.1743   -3.2467 C   0  0  0  0  0  0  0  0  0  0  0  0
    1.5793   -1.1743   -1.9229 C   0  0  0  0  0  0  0  0  0  0  0  0
    1.5793    0.0479   -1.0624 C   0  0  0  0  0  0  0  0  0  0  0  0
    1.5793   -2.0970   -3.8132 H   0  0  0  0  0  0  0  0  0  0  0  0
    1.5793   -0.2487   -3.8127 H   0  0  0  0  0  0  0  0  0  0  0  0
    1.5793   -2.1269   -1.3994 H   0  0  0  0  0  0  0  0  0  0  0  0
    0.5261    0.0684   -0.2810 H   0  0  0  0  0  0  0  0  0  0  0  0
    1.5793    0.9583   -1.6630 H   0  0  0  0  0  0  0  0  0  0  0  0
    2.4570    0.0650   -0.4112 H   0  0  0  0  0  0  0  0  0  0  0  0
  1  2  1  0
  1  6  1  0
  1  7  1  0
  1  8  1  0
  2  3  1  0
  2  5  1  0
  3  4  2  3
  3  9  1  0
  4 10  1  0
  4 11  1  0
  5 12  1  0
 13 14  2  3
 13 16  1  0
 13 17  1  0
 14 15  1  0
 14 18  1  0
 15 19  1  0
 15 20  1  0
 15 21  1  0
M  RAD  1   2   2
M  END
>  <reaction>  (6) 
rxn_1027

>  <mol_properties>  (6) 
{"1": {"label": "*1", "atom_type": "Cs"}, "4": {"label": "*0", "atom_type": "S2s"}, "13": {"label": "*4", "atom_type": "Cd"}, "14": {"label": "*3", "atom_type": "Cs"}, "18": {"label": "*2", "atom_type": "H0"}}

>  <type>  (6) 
unop_2

>  <geom_source>  (6) 
Heuristics

$$$$

     RDKit          3D

 21 19  0  0  0  0  0  0  0  0999 V2000
    0.0535    0.8827    2.1476 C   0  0  0  0  0  0  0  0  0  0  0  0
   -0.2971    0.1490    0.8638 C   0  0  0  0  0  3  0  0  0  0  0  0
   -1.3221   -0.9372    1.0029 C   0  0  0  0  0  0  0  0  0  0  0  0
   -1.9992   -1.2323    2.1023 C   0  0  0  0  0  0  0  0  0  0  0  0
   -0.7970    1.2981   -0.4755 S   0  0  0  0  0  0  0  0  0  0  0  0
   -0.8181    1.3974    2.5561 H   0  0  0  0  0  0  0  0  0  0  0  0
    0.4223    0.1828    2.9008 H   0  0  0  0  0  0  0  0  0  0  0  0
    0.8245    1.6279    1.9584 H   0  0  0  0  0  0  0  0  0  0  0  0
   -1.5110   -1.5001    0.0941 H   0  0  0  0  0  0  0  0  0  0  0  0
   -2.7306   -2.0301    2.1046 H   0  0  0  0  0  0  0  0  0  0  0  0
   -1.8547   -0.7001    3.0345 H   0  0  0  0  0  0  0  0  0  0  0  0
   -1.9654    1.6585    0.0734 H   0  0  0  0  0  0  0  0  0  0  0  0
    1.8106   -1.1143   -2.8843 C   0  0  0  0  0  0  0  0  0  0  0  0
    1.8106   -1.1143   -1.5605 C   0  0  0  0  0  0  0  0  0  0  0  0
    1.8106    0.1079   -0.7000 C   0  0  0  0  0  0  0  0  0  0  0  0
    1.8106   -2.0370   -3.4508 H   0  0  0  0  0  0  0  0  0  0  0  0
    1.8106   -0.1887   -3.4503 H   0  0  0  0  0  0  0  0  0  0  0  0
    1.8106   -2.0669   -1.0370 H   0  0  0  0  0  0  0  0  0  0  0  0
    0.7573    0.1285    0.0814 H   0  0  0  0  0  0  0  0  0  0  0  0
    1.8106    1.0184   -1.3006 H   0  0  0  0  0  0  0  0  0  0  0  0
    2.6883    0.1250   -0.0488 H   0  0  0  0  0  0  0  0  0  0  0  0
  1  2  1  0
  1  6  1  0
  1  7  1  0
  1  8  1  0
  2  3  1  0
  2  5  1  0
  3  4  2  3
  3  9  1  0
  4 10  1  0
  4 11  1  0
  5 12  1  0
 13 14  2  3
 13 16  1  0
 13 17  1  0
 14 15  1  0
 14 18  1  0
 15 19  1  0
 15 20  1  0
 15 21  1  0
M  RAD  1   2   2
M  END
>  <reaction>  (7) 
rxn_1027

>  <mol_properties>  (7) 
{"1": {"label": "*1", "atom_type": "Cs"}, "4": {"label": "*0", "atom_type": "S2s"}, "13": {"label": "*4", "atom_type": "Cd"}, "14": {"label": "*3", "atom_type": "Cs"}, "18": {"label": "*2", "atom_type": "H0"}}

>  <type>  (7) 
unop_3

>  <geom_source>  (7) 
Heuristics

$$$$

     RDKit          3D

 21 19  0  0  0  0  0  0  0  0999 V2000
   -1.7812    0.0950   -0.3610 C   0  0  0  0  0  0  0  0  0  0  0  0
   -0.5276    0.0960    0.4980 C   0  0  0  0  0  3  0  0  0  0  0  0
    0.0173    1.4512    0.8393 C   0  0  0  0  0  0  0  0  0  0  0  0
   -0.5459    2.6133    0.5451 C   0  0  0  0  0  0  0  0  0  0  0  0
   -0.7395   -0.8857    2.0327 S   0  0  0  0  0  0  0  0  0  0  0  0
   -2.6092    0.5874    0.1523 H   0  0  0  0  0  0  0  0  0  0  0  0
   -1.6015    0.6192   -1.3024 H   0  0  0  0  0  0  0  0  0  0  0  0
   -2.0853   -0.9264   -0.5844 H   0  0  0  0  0  0  0  0  0  0  0  0
    0.9513    1.4371    1.3924 H   0  0  0  0  0  0  0  0  0  0  0  0
   -0.0822    3.5446    0.8436 H   0  0  0  0  0  0  0  0  0  0  0  0
   -1.4792    2.6857    0.0003 H   0  0  0  0  0  0  0  0  0  0  0  0
   -1.5936   -0.0405    2.6267 H   0  0  0  0  0  0  0  0  0  0  0  0
    1.5801   -1.1673   -3.2501 C   0  0  0  0  0  0  0  0  0  0  0  0
    1.5801   -1.1673   -1.9263 C   0  0  0  0  0  0  0  0  0  0  0  0
    1.5801    0.0549   -1.0658 C   0  0  0  0  0  0  0  0  0  0  0  0
    1.5801   -2.0900   -3.8166 H   0  0  0  0  0  0  0  0  0  0  0  0
    1.5801   -0.2417   -3.8161 H   0  0  0  0  0  0  0  0  0  0  0  0
    1.5801   -2.1199   -1.4028 H   0  0  0  0  0  0  0  0  0  0  0  0
    0.5268    0.0755   -0.2844 H   0  0  0  0  0  0  0  0  0  0  0  0
    1.5801    0.9654   -1.6664 H   0  0  0  0  0  0  0  0  0  0  0  0
    2.4578    0.0720   -0.4146 H   0  0  0  0  0  0  0  0  0  0  0  0
  1  2  1  0
  1  6  1  0
  1  7  1  0
  1  8  1  0
  2  3  1  0
  2  5  1  0
  3  4  2  3
  3  9  1  0
  4 10  1  0
  4 11  1  0
  5 12  1  0
 13 14  2  3
 13 16  1  0
 13 17  1  0
 14 15  1  0
 14 18  1  0
 15 19  1  0
 15 20  1  0
 15 21  1  0
M  RAD  1   2   2
M  END
>  <reaction>  (8) 
rxn_1027

>  <mol_properties>  (8) 
{"1": {"label": "*1", "atom_type": "Cs"}, "4": {"label": "*0", "atom_type": "S2s"}, "13": {"label": "*4", "atom_type": "Cd"}, "14": {"label": "*3", "atom_type": "Cs"}, "18": {"label": "*2", "atom_type": "H0"}}

>  <type>  (8) 
unop_4

>  <geom_source>  (8) 
Heuristics

$$$$

     RDKit          3D

 21 19  0  0  0  0  0  0  0  0999 V2000
   -0.2722    1.6564    1.5793 C   0  0  0  0  0  0  0  0  0  0  0  0
   -0.3141    0.4001    0.7253 C   0  0  0  0  0  3  0  0  0  0  0  0
   -0.3489   -0.8931    1.4845 C   0  0  0  0  0  0  0  0  0  0  0  0
   -0.4443   -1.0214    2.7993 C   0  0  0  0  0  0  0  0  0  0  0  0
   -1.6862    0.4358   -0.4912 S   0  0  0  0  0  0  0  0  0  0  0  0
   -1.1679    1.7409    2.1975 H   0  0  0  0  0  0  0  0  0  0  0  0
    0.5989    1.6434    2.2384 H   0  0  0  0  0  0  0  0  0  0  0  0
   -0.2166    2.5413    0.9472 H   0  0  0  0  0  0  0  0  0  0  0  0
   -0.3066   -1.7830    0.8644 H   0  0  0  0  0  0  0  0  0  0  0  0
   -0.4736   -2.0008    3.2593 H   0  0  0  0  0  0  0  0  0  0  0  0
   -0.4950   -0.1682    3.4646 H   0  0  0  0  0  0  0  0  0  0  0  0
   -2.6751    0.3054    0.4041 H   0  0  0  0  0  0  0  0  0  0  0  0
    1.7936   -0.8632   -3.0227 C   0  0  0  0  0  0  0  0  0  0  0  0
    1.7936   -0.8632   -1.6990 C   0  0  0  0  0  0  0  0  0  0  0  0
    1.7936    0.3590   -0.8385 C   0  0  0  0  0  0  0  0  0  0  0  0
    1.7936   -1.7859   -3.5892 H   0  0  0  0  0  0  0  0  0  0  0  0
    1.7936    0.0624   -3.5887 H   0  0  0  0  0  0  0  0  0  0  0  0
    1.7936   -1.8158   -1.1755 H   0  0  0  0  0  0  0  0  0  0  0  0
    0.7403    0.3796   -0.0570 H   0  0  0  0  0  0  0  0  0  0  0  0
    1.7936    1.2695   -1.4391 H   0  0  0  0  0  0  0  0  0  0  0  0
    2.6713    0.3761   -0.1872 H   0  0  0  0  0  0  0  0  0  0  0  0
  1  2  1  0
  1  6  1  0
  1  7  1  0
  1  8  1  0
  2  3  1  0
  2  5  1  0
  3  4  2  3
  3  9  1  0
  4 10  1  0
  4 11  1  0
  5 12  1  0
 13 14  2  3
 13 16  1  0
 13 17  1  0
 14 15  1  0
 14 18  1  0
 15 19  1  0
 15 20  1  0
 15 21  1  0
M  RAD  1   2   2
M  END
>  <reaction>  (9) 
rxn_1027

>  <mol_properties>  (9) 
{"1": {"label": "*1", "atom_type": "Cs"}, "4": {"label": "*0", "atom_type": "S2s"}, "13": {"label": "*4", "atom_type": "Cd"}, "14": {"label": "*3", "atom_type": "Cs"}, "18": {"label": "*2", "atom_type": "H0"}}

>  <type>  (9) 
unop_5

>  <geom_source>  (9) 
Heuristics

$$$$

     RDKit          3D

 21 19  0  0  0  0  0  0  0  0999 V2000
   -1.7226    0.8818   -0.2650 C   0  0  0  0  0  0  0  0  0  0  0  0
   -0.5902    0.1633    0.4496 C   0  0  0  0  0  3  0  0  0  0  0  0
    0.4027    1.0522    1.1380 C   0  0  0  0  0  0  0  0  0  0  0  0
    0.3192    2.3689    1.2543 C   0  0  0  0  0  0  0  0  0  0  0  0
   -1.2066   -1.0988    1.6291 S   0  0  0  0  0  0  0  0  0  0  0  0
   -2.3294    1.4551    0.4383 H   0  0  0  0  0  0  0  0  0  0  0  0
   -1.3272    1.5694   -1.0160 H   0  0  0  0  0  0  0  0  0  0  0  0
   -2.3733    0.1627   -0.7603 H   0  0  0  0  0  0  0  0  0  0  0  0
    1.2443    0.5308    1.5834 H   0  0  0  0  0  0  0  0  0  0  0  0
    1.0820    2.9277    1.7809 H   0  0  0  0  0  0  0  0  0  0  0  0
   -0.5006    2.9388    0.8343 H   0  0  0  0  0  0  0  0  0  0  0  0
   -1.7105   -0.2308    2.5175 H   0  0  0  0  0  0  0  0  0  0  0  0
    1.5175   -1.1000   -3.2984 C   0  0  0  0  0  0  0  0  0  0  0  0
    1.5175   -1.1000   -1.9747 C   0  0  0  0  0  0  0  0  0  0  0  0
    1.5175    0.1222   -1.1142 C   0  0  0  0  0  0  0  0  0  0  0  0
    1.5175   -2.0227   -3.8649 H   0  0  0  0  0  0  0  0  0  0  0  0
    1.5175   -0.1744   -3.8644 H   0  0  0  0  0  0  0  0  0  0  0  0
    1.5175   -2.0526   -1.4512 H   0  0  0  0  0  0  0  0  0  0  0  0
    0.4642    0.1427   -0.3327 H   0  0  0  0  0  0  0  0  0  0  0  0
    1.5175    1.0326   -1.7148 H   0  0  0  0  0  0  0  0  0  0  0  0
    2.3952    0.1393   -0.4629 H   0  0  0  0  0  0  0  0  0  0  0  0
  1  2  1  0
  1  6  1  0
  1  7  1  0
  1  8  1  0
  2  3  1  0
  2  5  1  0
  3  4  2  3
  3  9  1  0
  4 10  1  0
  4 11  1  0
  5 12  1  0
 13 14  2  3
 13 16  1  0
 13 17  1  0
 14 15  1  0
 14 18  1  0
 15 19  1  0
 15 20  1  0
 15 21  1  0
M  RAD  1   2   2
M  END
>  <reaction>  (10) 
rxn_1027

>  <mol_properties>  (10) 
{"1": {"label": "*1", "atom_type": "Cs"}, "4": {"label": "*0", "atom_type": "S2s"}, "13": {"label": "*4", "atom_type": "Cd"}, "14": {"label": "*3", "atom_type": "Cs"}, "18": {"label": "*2", "atom_type": "H0"}}

>  <type>  (10) 
unop_6

>  <geom_source>  (10) 
Heuristics

$$$$

     RDKit          3D

 21 19  0  0  0  0  0  0  0  0999 V2000
   -1.4125    1.5498    0.1349 C   0  0  0  0  0  0  0  0  0  0  0  0
   -0.5981    0.3023    0.4347 C   0  0  0  0  0  3  0  0  0  0  0  0
    0.5601    0.4987    1.3675 C   0  0  0  0  0  0  0  0  0  0  0  0
    0.8609    1.6171    2.0101 C   0  0  0  0  0  0  0  0  0  0  0  0
   -1.6442   -1.0790    1.0361 S   0  0  0  0  0  0  0  0  0  0  0  0
   -1.8725    1.9457    1.0422 H   0  0  0  0  0  0  0  0  0  0  0  0
   -0.7778    2.3280   -0.2950 H   0  0  0  0  0  0  0  0  0  0  0  0
   -2.2085    1.3206   -0.5718 H   0  0  0  0  0  0  0  0  0  0  0  0
    1.1751   -0.3832    1.5170 H   0  0  0  0  0  0  0  0  0  0  0  0
    1.7142    1.6615    2.6745 H   0  0  0  0  0  0  0  0  0  0  0  0
    0.2790    2.5242    1.9020 H   0  0  0  0  0  0  0  0  0  0  0  0
   -1.9327   -0.5331    2.2257 H   0  0  0  0  0  0  0  0  0  0  0  0
    1.5095   -0.9610   -3.3133 C   0  0  0  0  0  0  0  0  0  0  0  0
    1.5095   -0.9610   -1.9896 C   0  0  0  0  0  0  0  0  0  0  0  0
    1.5095    0.2612   -1.1290 C   0  0  0  0  0  0  0  0  0  0  0  0
    1.5095   -1.8837   -3.8798 H   0  0  0  0  0  0  0  0  0  0  0  0
    1.5095   -0.0354   -3.8793 H   0  0  0  0  0  0  0  0  0  0  0  0
    1.5095   -1.9137   -1.4660 H   0  0  0  0  0  0  0  0  0  0  0  0
    0.4563    0.2817   -0.3476 H   0  0  0  0  0  0  0  0  0  0  0  0
    1.5095    1.1716   -1.7296 H   0  0  0  0  0  0  0  0  0  0  0  0
    2.3873    0.2783   -0.4778 H   0  0  0  0  0  0  0  0  0  0  0  0
  1  2  1  0
  1  6  1  0
  1  7  1  0
  1  8  1  0
  2  3  1  0
  2  5  1  0
  3  4  2  3
  3  9  1  0
  4 10  1  0
  4 11  1  0
  5 12  1  0
 13 14  2  3
 13 16  1  0
 13 17  1  0
 14 15  1  0
 14 18  1  0
 15 19  1  0
 15 20  1  0
 15 21  1  0
M  RAD  1   2   2
M  END
>  <reaction>  (11) 
rxn_1027

>  <mol_properties>  (11) 
{"1": {"label": "*1", "atom_type": "Cs"}, "4": {"label": "*0", "atom_type": "S2s"}, "13": {"label": "*4", "atom_type": "Cd"}, "14": {"label": "*3", "atom_type": "Cs"}, "18": {"label": "*2", "atom_type": "H0"}}

>  <type>  (11) 
unop_7

>  <geom_source>  (11) 
Heuristics

$$$$

     RDKit          3D

 21 19  0  0  0  0  0  0  0  0999 V2000
   -0.1640   -0.7624    1.9795 C   0  0  0  0  0  0  0  0  0  0  0  0
   -0.5017   -0.0594    0.6753 C   0  0  0  0  0  3  0  0  0  0  0  0
   -1.9654    0.0668    0.3727 C   0  0  0  0  0  0  0  0  0  0  0  0
   -2.9592   -0.2853    1.1745 C   0  0  0  0  0  0  0  0  0  0  0  0
    0.2960    1.5873    0.5499 S   0  0  0  0  0  0  0  0  0  0  0  0
   -0.5609   -0.2135    2.8355 H   0  0  0  0  0  0  0  0  0  0  0  0
   -0.5863   -1.7698    1.9928 H   0  0  0  0  0  0  0  0  0  0  0  0
    0.9157   -0.8364    2.1003 H   0  0  0  0  0  0  0  0  0  0  0  0
   -2.1914    0.5063   -0.5938 H   0  0  0  0  0  0  0  0  0  0  0  0
   -3.9894   -0.1457    0.8734 H   0  0  0  0  0  0  0  0  0  0  0  0
   -2.7912   -0.7231    2.1508 H   0  0  0  0  0  0  0  0  0  0  0  0
   -0.4505    2.1804    1.4919 H   0  0  0  0  0  0  0  0  0  0  0  0
    1.6059   -1.3227   -3.0728 C   0  0  0  0  0  0  0  0  0  0  0  0
    1.6059   -1.3227   -1.7490 C   0  0  0  0  0  0  0  0  0  0  0  0
    1.6059   -0.1005   -0.8885 C   0  0  0  0  0  0  0  0  0  0  0  0
    1.6059   -2.2454   -3.6393 H   0  0  0  0  0  0  0  0  0  0  0  0
    1.6059   -0.3971   -3.6388 H   0  0  0  0  0  0  0  0  0  0  0  0
    1.6059   -2.2753   -1.2255 H   0  0  0  0  0  0  0  0  0  0  0  0
    0.5527   -0.0800   -0.1071 H   0  0  0  0  0  0  0  0  0  0  0  0
    1.6059    0.8099   -1.4891 H   0  0  0  0  0  0  0  0  0  0  0  0
    2.4837   -0.0834   -0.2373 H   0  0  0  0  0  0  0  0  0  0  0  0
  1  2  1  0
  1  6  1  0
  1  7  1  0
  1  8  1  0
  2  3  1  0
  2  5  1  0
  3  4  2  3
  3  9  1  0
  4 10  1  0
  4 11  1  0
  5 12  1  0
 13 14  2  3
 13 16  1  0
 13 17  1  0
 14 15  1  0
 14 18  1  0
 15 19  1  0
 15 20  1  0
 15 21  1  0
M  RAD  1   2   2
M  END
>  <reaction>  (12) 
rxn_1027

>  <mol_properties>  (12) 
{"1": {"label": "*1", "atom_type": "Cs"}, "4": {"label": "*0", "atom_type": "S2s"}, "13": {"label": "*4", "atom_type": "Cd"}, "14": {"label": "*3", "atom_type": "Cs"}, "18": {"label": "*2", "atom_type": "H0"}}

>  <type>  (12) 
unop_8

>  <geom_source>  (12) 
Heuristics

$$$$

     RDKit          3D

 21 19  0  0  0  0  0  0  0  0999 V2000
   -1.6189   -0.6139   -0.1695 C   0  0  0  0  0  0  0  0  0  0  0  0
   -0.4736    0.1043    0.5247 C   0  0  0  0  0  3  0  0  0  0  0  0
   -0.5557    1.6020    0.5191 C   0  0  0  0  0  0  0  0  0  0  0  0
   -1.5661    2.3245    0.0594 C   0  0  0  0  0  0  0  0  0  0  0  0
   -0.2225   -0.4911    2.2412 S   0  0  0  0  0  0  0  0  0  0  0  0
   -2.5702   -0.4029    0.3225 H   0  0  0  0  0  0  0  0  0  0  0  0
   -1.6947   -0.2968   -1.2121 H   0  0  0  0  0  0  0  0  0  0  0  0
   -1.4602   -1.6908   -0.1443 H   0  0  0  0  0  0  0  0  0  0  0  0
    0.3027    2.1038    0.9548 H   0  0  0  0  0  0  0  0  0  0  0  0
   -1.5409    3.4054    0.1077 H   0  0  0  0  0  0  0  0  0  0  0  0
   -2.4487    1.8761   -0.3802 H   0  0  0  0  0  0  0  0  0  0  0  0
   -1.3470    0.0385    2.7427 H   0  0  0  0  0  0  0  0  0  0  0  0
    1.6340   -1.1590   -3.2233 C   0  0  0  0  0  0  0  0  0  0  0  0
    1.6340   -1.1590   -1.8996 C   0  0  0  0  0  0  0  0  0  0  0  0
    1.6340    0.0632   -1.0391 C   0  0  0  0  0  0  0  0  0  0  0  0
    1.6340   -2.0817   -3.7898 H   0  0  0  0  0  0  0  0  0  0  0  0
    1.6340   -0.2334   -3.7893 H   0  0  0  0  0  0  0  0  0  0  0  0
    1.6340   -2.1116   -1.3761 H   0  0  0  0  0  0  0  0  0  0  0  0
    0.5808    0.0837   -0.2576 H   0  0  0  0  0  0  0  0  0  0  0  0
    1.6340    0.9736   -1.6397 H   0  0  0  0  0  0  0  0  0  0  0  0
    2.5117    0.0803   -0.3878 H   0  0  0  0  0  0  0  0  0  0  0  0
  1  2  1  0
  1  6  1  0
  1  7  1  0
  1  8  1  0
  2  3  1  0
  2  5  1  0
  3  4  2  3
  3  9  1  0
  4 10  1  0
  4 11  1  0
  5 12  1  0
 13 14  2  3
 13 16  1  0
 13 17  1  0
 14 15  1  0
 14 18  1  0
 15 19  1  0
 15 20  1  0
 15 21  1  0
M  RAD  1   2   2
M  END
>  <reaction>  (13) 
rxn_1027

>  <mol_properties>  (13) 
{"1": {"label": "*1", "atom_type": "Cs"}, "4": {"label": "*0", "atom_type": "S2s"}, "13": {"label": "*4", "atom_type": "Cd"}, "14": {"label": "*3", "atom_type": "Cs"}, "18": {"label": "*2", "atom_type": "H0"}}

>  <type>  (13) 
unop_9

>  <geom_source>  (13) 
Heuristics

$$$$

     RDKit          3D

 21 19  0  0  0  0  0  0  0  0999 V2000
   -0.5284   -1.2311    1.4465 C   0  0  0  0  0  0  0  0  0  0  0  0
   -0.5480    0.0009    0.5571 C   0  0  0  0  0  3  0  0  0  0  0  0
   -1.9070    0.5712    0.2777 C   0  0  0  0  0  0  0  0  0  0  0  0
   -3.0482    0.1594    0.8091 C   0  0  0  0  0  0  0  0  0  0  0  0
    0.5569    1.3242    1.1833 S   0  0  0  0  0  0  0  0  0  0  0  0
   -0.9256   -1.0058    2.4380 H   0  0  0  0  0  0  0  0  0  0  0  0
   -1.1318   -2.0297    1.0090 H   0  0  0  0  0  0  0  0  0  0  0  0
    0.4914   -1.5929    1.5684 H   0  0  0  0  0  0  0  0  0  0  0  0
   -1.9133    1.4067   -0.4153 H   0  0  0  0  0  0  0  0  0  0  0  0
   -3.9832    0.6416    0.5547 H   0  0  0  0  0  0  0  0  0  0  0  0
   -3.0992   -0.6654    1.5093 H   0  0  0  0  0  0  0  0  0  0  0  0
   -0.1836    1.6333    2.2569 H   0  0  0  0  0  0  0  0  0  0  0  0
    1.5597   -1.2623   -3.1909 C   0  0  0  0  0  0  0  0  0  0  0  0
    1.5597   -1.2623   -1.8672 C   0  0  0  0  0  0  0  0  0  0  0  0
    1.5597   -0.0402   -1.0067 C   0  0  0  0  0  0  0  0  0  0  0  0
    1.5597   -2.1851   -3.7574 H   0  0  0  0  0  0  0  0  0  0  0  0
    1.5597   -0.3367   -3.7569 H   0  0  0  0  0  0  0  0  0  0  0  0
    1.5597   -2.2150   -1.3437 H   0  0  0  0  0  0  0  0  0  0  0  0
    0.5064   -0.0196   -0.2252 H   0  0  0  0  0  0  0  0  0  0  0  0
    1.5597    0.8703   -1.6073 H   0  0  0  0  0  0  0  0  0  0  0  0
    2.4374   -0.0230   -0.3554 H   0  0  0  0  0  0  0  0  0  0  0  0
  1  2  1  0
  1  6  1  0
  1  7  1  0
  1  8  1  0
  2  3  1  0
  2  5  1  0
  3  4  2  3
  3  9  1  0
  4 10  1  0
  4 11  1  0
  5 12  1  0
 13 14  2  3
 13 16  1  0
 13 17  1  0
 14 15  1  0
 14 18  1  0
 15 19  1  0
 15 20  1  0
 15 21  1  0
M  RAD  1   2   2
M  END
>  <reaction>  (14) 
rxn_1027

>  <mol_properties>  (14) 
{"1": {"label": "*1", "atom_type": "Cs"}, "4": {"label": "*0", "atom_type": "S2s"}, "13": {"label": "*4", "atom_type": "Cd"}, "14": {"label": "*3", "atom_type": "Cs"}, "18": {"label": "*2", "atom_type": "H0"}}

>  <type>  (14) 
unop_10

>  <geom_source>  (14) 
Heuristics

$$$$

     RDKit          3D

 21 19  0  0  0  0  0  0  0  0999 V2000
   -0.8798    1.8862    0.7892 C   0  0  0  0  0  0  0  0  0  0  0  0
   -0.4953    0.4418    0.5148 C   0  0  0  0  0  3  0  0  0  0  0  0
    0.4013   -0.1907    1.5376 C   0  0  0  0  0  0  0  0  0  0  0  0
    0.7917    0.3597    2.6772 C   0  0  0  0  0  0  0  0  0  0  0  0
   -1.9620   -0.6245    0.2397 S   0  0  0  0  0  0  0  0  0  0  0  0
   -1.4441    1.9722    1.7196 H   0  0  0  0  0  0  0  0  0  0  0  0
    0.0120    2.5117    0.8703 H   0  0  0  0  0  0  0  0  0  0  0  0
   -1.5023    2.2711   -0.0170 H   0  0  0  0  0  0  0  0  0  0  0  0
    0.7258   -1.1976    1.2939 H   0  0  0  0  0  0  0  0  0  0  0  0
    1.4337   -0.1801    3.3614 H   0  0  0  0  0  0  0  0  0  0  0  0
    0.4940    1.3583    2.9726 H   0  0  0  0  0  0  0  0  0  0  0  0
   -2.4007   -0.5945    1.5059 H   0  0  0  0  0  0  0  0  0  0  0  0
    1.6124   -0.8215   -3.2332 C   0  0  0  0  0  0  0  0  0  0  0  0
    1.6124   -0.8215   -1.9095 C   0  0  0  0  0  0  0  0  0  0  0  0
    1.6124    0.4007   -1.0490 C   0  0  0  0  0  0  0  0  0  0  0  0
    1.6124   -1.7443   -3.7997 H   0  0  0  0  0  0  0  0  0  0  0  0
    1.6124    0.1041   -3.7992 H   0  0  0  0  0  0  0  0  0  0  0  0
    1.6124   -1.7742   -1.3860 H   0  0  0  0  0  0  0  0  0  0  0  0
    0.5591    0.4212   -0.2675 H   0  0  0  0  0  0  0  0  0  0  0  0
    1.6124    1.3111   -1.6496 H   0  0  0  0  0  0  0  0  0  0  0  0
    2.4901    0.4178   -0.3978 H   0  0  0  0  0  0  0  0  0  0  0  0
  1  2  1  0
  1  6  1  0
  1  7  1  0
  1  8  1  0
  2  3  1  0
  2  5  1  0
  3  4  2  3
  3  9  1  0
  4 10  1  0
  4 11  1  0
  5 12  1  0
 13 14  2  3
 13 16  1  0
 13 17  1  0
 14 15  1  0
 14 18  1  0
 15 19  1  0
 15 20  1  0
 15 21  1  0
M  RAD  1   2   2
M  END
>  <reaction>  (15) 
rxn_1027

>  <mol_properties>  (15) 
{"1": {"label": "*1", "atom_type": "Cs"}, "4": {"label": "*0", "atom_type": "S2s"}, "13": {"label": "*4", "atom_type": "Cd"}, "14": {"label": "*3", "atom_type": "Cs"}, "18": {"label": "*2", "atom_type": "H0"}}

>  <type>  (15) 
unop_11

>  <geom_source>  (15) 
Heuristics

$$$$

     RDKit          3D

 21 19  0  0  0  0  0  0  0  0999 V2000
   -1.3160   -1.1136    0.2453 C   0  0  0  0  0  0  0  0  0  0  0  0
   -0.4794    0.1272    0.5097 C   0  0  0  0  0  3  0  0  0  0  0  0
   -1.1833    1.4348    0.2986 C   0  0  0  0  0  0  0  0  0  0  0  0
   -2.4658    1.5900    0.0062 C   0  0  0  0  0  0  0  0  0  0  0  0
    0.2864    0.1034    2.1762 S   0  0  0  0  0  0  0  0  0  0  0  0
   -2.1690   -1.1640    0.9246 H   0  0  0  0  0  0  0  0  0  0  0  0
   -1.6939   -1.1102   -0.7795 H   0  0  0  0  0  0  0  0  0  0  0  0
   -0.7173   -2.0112    0.3921 H   0  0  0  0  0  0  0  0  0  0  0  0
   -0.5554    2.3117    0.4215 H   0  0  0  0  0  0  0  0  0  0  0  0
   -2.8897    2.5782   -0.1175 H   0  0  0  0  0  0  0  0  0  0  0  0
   -3.1385    0.7509   -0.1224 H   0  0  0  0  0  0  0  0  0  0  0  0
   -0.8534    0.2752    2.8602 H   0  0  0  0  0  0  0  0  0  0  0  0
    1.6283   -1.1361   -3.2383 C   0  0  0  0  0  0  0  0  0  0  0  0
    1.6283   -1.1361   -1.9146 C   0  0  0  0  0  0  0  0  0  0  0  0
    1.6283    0.0861   -1.0541 C   0  0  0  0  0  0  0  0  0  0  0  0
    1.6283   -2.0588   -3.8048 H   0  0  0  0  0  0  0  0  0  0  0  0
    1.6283   -0.2105   -3.8043 H   0  0  0  0  0  0  0  0  0  0  0  0
    1.6283   -2.0887   -1.3910 H   0  0  0  0  0  0  0  0  0  0  0  0
    0.5751    0.1066   -0.2726 H   0  0  0  0  0  0  0  0  0  0  0  0
    1.6283    0.9965   -1.6547 H   0  0  0  0  0  0  0  0  0  0  0  0
    2.5060    0.1032   -0.4028 H   0  0  0  0  0  0  0  0  0  0  0  0
  1  2  1  0
  1  6  1  0
  1  7  1  0
  1  8  1  0
  2  3  1  0
  2  5  1  0
  3  4  2  3
  3  9  1  0
  4 10  1  0
  4 11  1  0
  5 12  1  0
 13 14  2  3
 13 16  1  0
 13 17  1  0
 14 15  1  0
 14 18  1  0
 15 19  1  0
 15 20  1  0
 15 21  1  0
M  RAD  1   2   2
M  END
>  <reaction>  (16) 
rxn_1027

>  <mol_properties>  (16) 
{"1": {"label": "*1", "atom_type": "Cs"}, "4": {"label": "*0", "atom_type": "S2s"}, "13": {"label": "*4", "atom_type": "Cd"}, "14": {"label": "*3", "atom_type": "Cs"}, "18": {"label": "*2", "atom_type": "H0"}}

>  <type>  (16) 
unop_12

>  <geom_source>  (16) 
Heuristics

$$$$

     RDKit          3D

 21 19  0  0  0  0  0  0  0  0999 V2000
   -0.2278    1.1761    1.5723 S   0  0  0  0  0  0  0  0  0  0  0  0
    0.7470    0.1679    0.4040 C   0  0  0  0  0  0  0  0  0  0  0  0
    1.7176   -0.7287    1.1727 C   0  0  0  0  0  0  0  0  0  0  0  0
    1.4791    1.0580   -0.5668 C   0  0  0  0  0  0  0  0  0  0  0  0
   -2.6730   -0.5932   -0.2821 C   0  0  0  0  0  0  0  0  0  0  0  0
    2.0326    0.5669   -1.6791 C   0  0  0  0  0  0  0  0  0  0  0  0
   -1.3230   -1.2202   -0.3916 C   0  0  0  0  0  0  0  0  0  0  0  0
   -2.7991    0.7237   -0.1180 C   0  0  0  0  0  3  0  0  0  0  0  0
   -0.1009   -0.5978   -0.2682 H   0  0  0  0  0  0  0  0  0  0  0  0
    2.4610   -0.1174    1.7280 H   0  0  0  0  0  0  0  0  0  0  0  0
    2.2551   -1.4024    0.4726 H   0  0  0  0  0  0  0  0  0  0  0  0
    1.1563   -1.3583    1.8949 H   0  0  0  0  0  0  0  0  0  0  0  0
    1.5378    2.1273   -0.3839 H   0  0  0  0  0  0  0  0  0  0  0  0
   -3.5589   -1.2186   -0.3370 H   0  0  0  0  0  0  0  0  0  0  0  0
    1.9790   -0.4927   -1.9101 H   0  0  0  0  0  0  0  0  0  0  0  0
    2.5426    1.2300   -2.3703 H   0  0  0  0  0  0  0  0  0  0  0  0
   -1.9248    1.3654   -0.0609 H   0  0  0  0  0  0  0  0  0  0  0  0
   -3.7856    1.1691   -0.0396 H   0  0  0  0  0  0  0  0  0  0  0  0
   -1.2286   -1.7346   -1.3704 H   0  0  0  0  0  0  0  0  0  0  0  0
   -1.1848   -1.9546    0.4288 H   0  0  0  0  0  0  0  0  0  0  0  0
    0.8986    1.8338    2.1048 H   0  0  0  0  0  0  0  0  0  0  0  0
  1  2  1  0
  1 21  1  0
  2  3  1  0
  2  4  1  0
  2  9  1  0
  3 10  1  0
  3 11  1  0
  3 12  1  0
  4  6  2  3
  4 13  1  0
  5  7  2  3
  5  8  1  0
  5 14  1  0
  6 15  1  0
  6 16  1  0
  7 19  1  0
  7 20  1  0
  8 17  1  0
  8 18  1  0
M  RAD  1   8   2
M  END
>  <reaction>  (17) 
rxn_1027

>  <mol_properties>  (17) 
{"1": {"label": "*1", "atom_type": "Cs"}, "4": {"label": "*0", "atom_type": "S2s"}, "13": {"label": "*4", "atom_type": "Cd"}, "14": {"label": "*3", "atom_type": "Cs"}, "18": {"label": "*2", "atom_type": "H0"}}

>  <type>  (17) 
unop_13

>  <geom_source>  (17) 
AutoTST

$$$$
