
     RDKit          3D

 18 18  0  0  0  0  0  0  0  0999 V2000
   -2.4852    0.3210   -0.3966 C   0  0  0  0  0  0  0  0  0  0  0  0
   -1.5917   -0.2708    0.6941 C   0  0  0  0  0  0  0  0  0  0  0  0
   -0.1292   -0.1692    0.3493 C   0  0  0  0  0  0  0  0  0  0  0  0
    0.6099    0.9558    0.7015 C   0  0  0  0  0  0  0  0  0  0  0  0
    1.9447    1.0728    0.3458 C   0  0  0  0  0  0  0  0  0  0  0  0
    2.5646    0.0613   -0.3720 C   0  0  0  0  0  0  0  0  0  0  0  0
    1.8399   -1.0657   -0.7287 C   0  0  0  0  0  0  0  0  0  0  0  0
    0.5055   -1.1769   -0.3700 C   0  0  0  0  0  0  0  0  0  0  0  0
   -2.3325   -0.1971   -1.3452 H   0  0  0  0  0  0  0  0  0  0  0  0
   -2.2554    1.3763   -0.5546 H   0  0  0  0  0  0  0  0  0  0  0  0
   -3.5397    0.2376   -0.1280 H   0  0  0  0  0  0  0  0  0  0  0  0
   -1.7801    0.2462    1.6380 H   0  0  0  0  0  0  0  0  0  0  0  0
   -1.8568   -1.3190    0.8516 H   0  0  0  0  0  0  0  0  0  0  0  0
    0.1327    1.7497    1.2656 H   0  0  0  0  0  0  0  0  0  0  0  0
    2.5033    1.9550    0.6330 H   0  0  0  0  0  0  0  0  0  0  0  0
    3.6077    0.1491   -0.6484 H   0  0  0  0  0  0  0  0  0  0  0  0
    2.3163   -1.8632   -1.2854 H   0  0  0  0  0  0  0  0  0  0  0  0
   -0.0540   -2.0629   -0.6500 H   0  0  0  0  0  0  0  0  0  0  0  0
  1  2  1  0
  1  9  1  0
  1 10  1  0
  1 11  1  0
  2  3  1  0
  2 12  1  0
  2 13  1  0
  3  4  2  0
  3  8  1  0
  4  5  1  0
  4 14  1  0
  5  6  2  0
  5 15  1  0
  6  7  1  0
  6 16  1  0
  7  8  2  0
  7 17  1  0
  8 18  1  0
M  END
>  <reaction>  (1) 
rxn_445

>  <mol_properties>  (1) 
{"2": {"label": "donator", "atom_type": "Cs"}, "17": {"label": "d_hydrogen", "atom_type": "H0"}}

>  <type>  (1) 
r1h

$$$$

     RDKit          3D

  3  2  0  0  0  0  0  0  0  0999 V2000
    0.9943   -0.1797    0.0000 O   0  0  0  0  0  1  0  0  0  0  0  0
   -0.1595    0.4394    0.0000 O   0  0  0  0  0  0  0  0  0  0  0  0
   -0.8348   -0.2597    0.0000 H   0  0  0  0  0  0  0  0  0  0  0  0
  1  2  1  0
  2  3  1  0
M  RAD  1   1   2
M  END
>  <reaction>  (2) 
rxn_445

>  <mol_properties>  (2) 
{"1": {"label": "acceptor", "atom_type": "O2s"}}

>  <type>  (2) 
r2

$$$$

     RDKit          3D

  4  3  0  0  0  0  0  0  0  0999 V2000
    0.5949   -0.3853    0.2659 O   0  0  0  0  0  0  0  0  0  0  0  0
   -0.5918    0.4028    0.2462 O   0  0  0  0  0  0  0  0  0  0  0  0
    1.1865    0.1539   -0.2689 H   0  0  0  0  0  0  0  0  0  0  0  0
   -1.1896   -0.1714   -0.2432 H   0  0  0  0  0  0  0  0  0  0  0  0
  1  2  1  0
  1  3  1  0
  2  4  1  0
M  END
>  <reaction>  (3) 
rxn_445

>  <mol_properties>  (3) 
{"1": {"label": "acceptor", "atom_type": "O2s"}, "3": {"label": "a_hydrogen", "atom_type": "H0"}}

>  <type>  (3) 
r2h

$$$$

     RDKit          3D

 21 20  0  0  0  0  0  0  0  0999 V2000
   -1.2513    2.5927    0.3007 O   0  0  0  0  0  0  0  0  0  0  0  0
   -2.2456    1.6704    0.5323 O   0  0  0  0  0  0  0  0  0  0  0  0
   -2.1383   -1.5403   -0.1329 C   0  0  0  0  0  0  0  0  0  0  0  0
    0.0715   -0.2242   -0.3206 C   0  0  0  0  0  0  0  0  0  0  0  0
   -1.3483   -0.3697   -0.6593 C   0  0  0  0  0  0  0  0  0  0  0  0
    0.8791    0.6314   -1.0810 C   0  0  0  0  0  3  0  0  0  0  0  0
    0.6472   -0.8587    0.7861 C   0  0  0  0  0  0  0  0  0  0  0  0
    2.2081    0.8352   -0.7569 C   0  0  0  0  0  0  0  0  0  0  0  0
    2.7640    0.1926    0.3407 C   0  0  0  0  0  0  0  0  0  0  0  0
    1.9774   -0.6546    1.1090 C   0  0  0  0  0  0  0  0  0  0  0  0
   -2.1461   -1.5687    0.9578 H   0  0  0  0  0  0  0  0  0  0  0  0
   -1.7210   -2.4874   -0.4884 H   0  0  0  0  0  0  0  0  0  0  0  0
   -3.1735   -1.4817   -0.4676 H   0  0  0  0  0  0  0  0  0  0  0  0
   -1.5589   -0.1290   -1.7010 H   0  0  0  0  0  0  0  0  0  0  0  0
    0.4464    1.1417   -1.9329 H   0  0  0  0  0  0  0  0  0  0  0  0
    2.8135    1.4979   -1.3622 H   0  0  0  0  0  0  0  0  0  0  0  0
    0.0504   -1.5245    1.3958 H   0  0  0  0  0  0  0  0  0  0  0  0
    3.8045    0.3492    0.5949 H   0  0  0  0  0  0  0  0  0  0  0  0
    2.4050   -1.1614    1.9651 H   0  0  0  0  0  0  0  0  0  0  0  0
   -0.6088    2.4191    1.0010 H   0  0  0  0  0  0  0  0  0  0  0  0
   -1.8756    0.6701   -0.0807 H   0  0  0  0  0  0  0  0  0  0  0  0
  1  2  1  0
  1 20  1  0
  2 21  1  0
  3  5  1  0
  3 11  1  0
  3 12  1  0
  3 13  1  0
  4  5  2  3
  4  6  1  0
  4  7  1  0
  5 14  1  0
  6  8  1  0
  6 15  1  0
  7 10  2  0
  7 17  1  0
  8  9  2  0
  8 16  1  0
  9 10  1  0
  9 18  1  0
 10 19  1  0
M  RAD  1   6   2
M  END
>  <reaction>  (4) 
rxn_445

>  <mol_properties>  (4) 
{"0": {"label": "*0", "atom_type": "O2s"}, "1": {"label": "*1", "atom_type": "O2s"}, "3": {"label": "*4", "atom_type": "Cd"}, "4": {"label": "*3", "atom_type": "Cd"}, "20": {"label": "*2", "atom_type": "H0"}}

>  <type>  (4) 
ts

$$$$

     RDKit          3D

 21 20  0  0  0  0  0  0  0  0999 V2000
   -1.5849   -2.3184    0.1039 O   0  0  0  0  0  0  0  0  0  0  0  0
   -0.9733   -3.3631    0.8549 O   0  0  0  0  0  0  0  0  0  0  0  0
   -0.6798   -2.8843    1.6368 H   0  0  0  0  0  0  0  0  0  0  0  0
    0.3939   -1.0957   -2.2449 C   0  0  0  0  0  0  0  0  0  0  0  0
    0.3939   -1.0957   -0.7158 C   0  0  0  0  0  0  0  0  0  0  0  0
    0.3939    0.2986   -0.1464 C   0  0  0  0  0  0  0  0  0  0  0  0
   -0.8007    0.9676    0.1014 C   0  0  0  0  0  3  0  0  0  0  0  0
   -0.8039    2.2678    0.5823 C   0  0  0  0  0  0  0  0  0  0  0  0
    0.3939    2.9231    0.8241 C   0  0  0  0  0  0  0  0  0  0  0  0
    1.5917    2.2678    0.5823 C   0  0  0  0  0  0  0  0  0  0  0  0
    1.5884    0.9676    0.1014 C   0  0  0  0  0  0  0  0  0  0  0  0
    1.2751   -0.5806   -2.6317 H   0  0  0  0  0  0  0  0  0  0  0  0
   -0.4874   -0.5806   -2.6317 H   0  0  0  0  0  0  0  0  0  0  0  0
    0.3939   -2.1141   -2.6372 H   0  0  0  0  0  0  0  0  0  0  0  0
   -0.6581   -1.7457   -0.2800 H   0  0  0  0  0  0  0  0  0  0  0  0
    1.2705   -1.6373   -0.3527 H   0  0  0  0  0  0  0  0  0  0  0  0
   -1.7416    0.4604   -0.0824 H   0  0  0  0  0  0  0  0  0  0  0  0
   -1.7447    2.7695    0.7722 H   0  0  0  0  0  0  0  0  0  0  0  0
    0.3939    3.9375    1.2024 H   0  0  0  0  0  0  0  0  0  0  0  0
    2.5325    2.7695    0.7722 H   0  0  0  0  0  0  0  0  0  0  0  0
    2.5293    0.4604   -0.0824 H   0  0  0  0  0  0  0  0  0  0  0  0
  1  2  1  0
  1 15  1  0
  2  3  1  0
  4  5  1  0
  4 12  1  0
  4 13  1  0
  4 14  1  0
  5  6  2  3
  5 16  1  0
  6  7  1  0
  6 11  1  0
  7  8  1  0
  7 17  1  0
  8  9  2  0
  8 18  1  0
  9 10  1  0
  9 19  1  0
 10 11  2  0
 10 20  1  0
 11 21  1  0
M  RAD  1   7   2
M  END
>  <reaction>  (5) 
rxn_445

>  <mol_properties>  (5) 
{"0": {"label": "*0", "atom_type": "O2s"}, "1": {"label": "*1", "atom_type": "O2s"}, "3": {"label": "*4", "atom_type": "Cd"}, "4": {"label": "*3", "atom_type": "Cd"}, "20": {"label": "*2", "atom_type": "H0"}}

>  <type>  (5) 
unop_1

>  <geom_source>  (5) 
Heuristics

$$$$

     RDKit          3D

 21 20  0  0  0  0  0  0  0  0999 V2000
   -1.4875   -2.3218    0.3273 O   0  0  0  0  0  0  0  0  0  0  0  0
   -1.6845   -3.2650   -0.7222 O   0  0  0  0  0  0  0  0  0  0  0  0
   -1.1905   -4.0211   -0.3894 H   0  0  0  0  0  0  0  0  0  0  0  0
    0.4913   -1.0991   -2.0215 C   0  0  0  0  0  0  0  0  0  0  0  0
    0.4913   -1.0991   -0.4924 C   0  0  0  0  0  0  0  0  0  0  0  0
    0.4913    0.2951    0.0770 C   0  0  0  0  0  0  0  0  0  0  0  0
   -0.7033    0.9641    0.3247 C   0  0  0  0  0  3  0  0  0  0  0  0
   -0.7065    2.2643    0.8057 C   0  0  0  0  0  0  0  0  0  0  0  0
    0.4913    2.9197    1.0475 C   0  0  0  0  0  0  0  0  0  0  0  0
    1.6891    2.2643    0.8057 C   0  0  0  0  0  0  0  0  0  0  0  0
    1.6858    0.9641    0.3247 C   0  0  0  0  0  0  0  0  0  0  0  0
    1.3726   -0.5841   -2.4084 H   0  0  0  0  0  0  0  0  0  0  0  0
   -0.3900   -0.5841   -2.4084 H   0  0  0  0  0  0  0  0  0  0  0  0
    0.4913   -2.1176   -2.4138 H   0  0  0  0  0  0  0  0  0  0  0  0
   -0.5607   -1.7491   -0.0567 H   0  0  0  0  0  0  0  0  0  0  0  0
    1.3679   -1.6408   -0.1293 H   0  0  0  0  0  0  0  0  0  0  0  0
   -1.6441    0.4569    0.1410 H   0  0  0  0  0  0  0  0  0  0  0  0
   -1.6473    2.7660    0.9956 H   0  0  0  0  0  0  0  0  0  0  0  0
    0.4913    3.9340    1.4258 H   0  0  0  0  0  0  0  0  0  0  0  0
    2.6299    2.7660    0.9956 H   0  0  0  0  0  0  0  0  0  0  0  0
    2.6267    0.4569    0.1410 H   0  0  0  0  0  0  0  0  0  0  0  0
  1  2  1  0
  1 15  1  0
  2  3  1  0
  4  5  1  0
  4 12  1  0
  4 13  1  0
  4 14  1  0
  5  6  2  3
  5 16  1  0
  6  7  1  0
  6 11  1  0
  7  8  1  0
  7 17  1  0
  8  9  2  0
  8 18  1  0
  9 10  1  0
  9 19  1  0
 10 11  2  0
 10 20  1  0
 11 21  1  0
M  RAD  1   7   2
M  END
>  <reaction>  (6) 
rxn_445

>  <mol_properties>  (6) 
{"0": {"label": "*0", "atom_type": "O2s"}, "1": {"label": "*1", "atom_type": "O2s"}, "3": {"label": "*4", "atom_type": "Cd"}, "4": {"label": "*3", "atom_type": "Cd"}, "20": {"label": "*2", "atom_type": "H0"}}

>  <type>  (6) 
unop_2

>  <geom_source>  (6) 
Heuristics

$$$$

     RDKit          3D

 21 20  0  0  0  0  0  0  0  0999 V2000
   -1.5662   -2.3843    0.0462 O   0  0  0  0  0  0  0  0  0  0  0  0
   -1.0789   -2.9045    1.2797 O   0  0  0  0  0  0  0  0  0  0  0  0
   -1.2654   -2.1736    1.8777 H   0  0  0  0  0  0  0  0  0  0  0  0
    0.4125   -1.1616   -2.3025 C   0  0  0  0  0  0  0  0  0  0  0  0
    0.4125   -1.1616   -0.7734 C   0  0  0  0  0  0  0  0  0  0  0  0
    0.4125    0.2327   -0.2040 C   0  0  0  0  0  0  0  0  0  0  0  0
   -0.7820    0.9016    0.0437 C   0  0  0  0  0  3  0  0  0  0  0  0
   -0.7853    2.2018    0.5246 C   0  0  0  0  0  0  0  0  0  0  0  0
    0.4125    2.8572    0.7664 C   0  0  0  0  0  0  0  0  0  0  0  0
    1.6103    2.2018    0.5246 C   0  0  0  0  0  0  0  0  0  0  0  0
    1.6071    0.9016    0.0437 C   0  0  0  0  0  0  0  0  0  0  0  0
    1.2938   -0.6466   -2.6894 H   0  0  0  0  0  0  0  0  0  0  0  0
   -0.4688   -0.6466   -2.6894 H   0  0  0  0  0  0  0  0  0  0  0  0
    0.4125   -2.1800   -2.6949 H   0  0  0  0  0  0  0  0  0  0  0  0
   -0.6394   -1.8116   -0.3377 H   0  0  0  0  0  0  0  0  0  0  0  0
    1.2892   -1.7033   -0.4103 H   0  0  0  0  0  0  0  0  0  0  0  0
   -1.7229    0.3944   -0.1400 H   0  0  0  0  0  0  0  0  0  0  0  0
   -1.7261    2.7035    0.7146 H   0  0  0  0  0  0  0  0  0  0  0  0
    0.4125    3.8715    1.1448 H   0  0  0  0  0  0  0  0  0  0  0  0
    2.5511    2.7035    0.7146 H   0  0  0  0  0  0  0  0  0  0  0  0
    2.5479    0.3944   -0.1400 H   0  0  0  0  0  0  0  0  0  0  0  0
  1  2  1  0
  1 15  1  0
  2  3  1  0
  4  5  1  0
  4 12  1  0
  4 13  1  0
  4 14  1  0
  5  6  2  3
  5 16  1  0
  6  7  1  0
  6 11  1  0
  7  8  1  0
  7 17  1  0
  8  9  2  0
  8 18  1  0
  9 10  1  0
  9 19  1  0
 10 11  2  0
 10 20  1  0
 11 21  1  0
M  RAD  1   7   2
M  END
>  <reaction>  (7) 
rxn_445

>  <mol_properties>  (7) 
{"0": {"label": "*0", "atom_type": "O2s"}, "1": {"label": "*1", "atom_type": "O2s"}, "3": {"label": "*4", "atom_type": "Cd"}, "4": {"label": "*3", "atom_type": "Cd"}, "20": {"label": "*2", "atom_type": "H0"}}

>  <type>  (7) 
unop_3

>  <geom_source>  (7) 
Heuristics

$$$$

     RDKit          3D

 21 20  0  0  0  0  0  0  0  0999 V2000
   -1.3740   -2.5319    0.2716 O   0  0  0  0  0  0  0  0  0  0  0  0
   -2.4299   -1.7616   -0.2954 O   0  0  0  0  0  0  0  0  0  0  0  0
   -3.1055   -2.4354   -0.4226 H   0  0  0  0  0  0  0  0  0  0  0  0
    0.6047   -1.3092   -2.0772 C   0  0  0  0  0  0  0  0  0  0  0  0
    0.6047   -1.3092   -0.5481 C   0  0  0  0  0  0  0  0  0  0  0  0
    0.6047    0.0851    0.0213 C   0  0  0  0  0  0  0  0  0  0  0  0
   -0.5898    0.7540    0.2691 C   0  0  0  0  0  3  0  0  0  0  0  0
   -0.5931    2.0542    0.7500 C   0  0  0  0  0  0  0  0  0  0  0  0
    0.6047    2.7096    0.9918 C   0  0  0  0  0  0  0  0  0  0  0  0
    1.8025    2.0542    0.7500 C   0  0  0  0  0  0  0  0  0  0  0  0
    1.7993    0.7540    0.2691 C   0  0  0  0  0  0  0  0  0  0  0  0
    1.4860   -0.7941   -2.4640 H   0  0  0  0  0  0  0  0  0  0  0  0
   -0.2765   -0.7941   -2.4640 H   0  0  0  0  0  0  0  0  0  0  0  0
    0.6047   -2.3276   -2.4695 H   0  0  0  0  0  0  0  0  0  0  0  0
   -0.4472   -1.9592   -0.1123 H   0  0  0  0  0  0  0  0  0  0  0  0
    1.4814   -1.8509   -0.1849 H   0  0  0  0  0  0  0  0  0  0  0  0
   -1.5307    0.2469    0.0853 H   0  0  0  0  0  0  0  0  0  0  0  0
   -1.5339    2.5559    0.9399 H   0  0  0  0  0  0  0  0  0  0  0  0
    0.6047    3.7239    1.3702 H   0  0  0  0  0  0  0  0  0  0  0  0
    2.7433    2.5559    0.9399 H   0  0  0  0  0  0  0  0  0  0  0  0
    2.7402    0.2469    0.0853 H   0  0  0  0  0  0  0  0  0  0  0  0
  1  2  1  0
  1 15  1  0
  2  3  1  0
  4  5  1  0
  4 12  1  0
  4 13  1  0
  4 14  1  0
  5  6  2  3
  5 16  1  0
  6  7  1  0
  6 11  1  0
  7  8  1  0
  7 17  1  0
  8  9  2  0
  8 18  1  0
  9 10  1  0
  9 19  1  0
 10 11  2  0
 10 20  1  0
 11 21  1  0
M  RAD  1   7   2
M  END
>  <reaction>  (8) 
rxn_445

>  <mol_properties>  (8) 
{"0": {"label": "*0", "atom_type": "O2s"}, "1": {"label": "*1", "atom_type": "O2s"}, "3": {"label": "*4", "atom_type": "Cd"}, "4": {"label": "*3", "atom_type": "Cd"}, "20": {"label": "*2", "atom_type": "H0"}}

>  <type>  (8) 
unop_4

>  <geom_source>  (8) 
Heuristics

$$$$

     RDKit          3D

 21 20  0  0  0  0  0  0  0  0999 V2000
   -1.5237   -2.4596    0.0272 O   0  0  0  0  0  0  0  0  0  0  0  0
   -1.3507   -2.3527    1.4373 O   0  0  0  0  0  0  0  0  0  0  0  0
   -2.1074   -1.8085    1.6779 H   0  0  0  0  0  0  0  0  0  0  0  0
    0.4551   -1.2369   -2.3215 C   0  0  0  0  0  0  0  0  0  0  0  0
    0.4551   -1.2369   -0.7924 C   0  0  0  0  0  0  0  0  0  0  0  0
    0.4551    0.1574   -0.2230 C   0  0  0  0  0  0  0  0  0  0  0  0
   -0.7394    0.8263    0.0247 C   0  0  0  0  0  3  0  0  0  0  0  0
   -0.7427    2.1265    0.5056 C   0  0  0  0  0  0  0  0  0  0  0  0
    0.4551    2.7819    0.7474 C   0  0  0  0  0  0  0  0  0  0  0  0
    1.6529    2.1265    0.5056 C   0  0  0  0  0  0  0  0  0  0  0  0
    1.6496    0.8263    0.0247 C   0  0  0  0  0  0  0  0  0  0  0  0
    1.3364   -0.7219   -2.7084 H   0  0  0  0  0  0  0  0  0  0  0  0
   -0.4262   -0.7219   -2.7084 H   0  0  0  0  0  0  0  0  0  0  0  0
    0.4551   -2.2553   -2.7139 H   0  0  0  0  0  0  0  0  0  0  0  0
   -0.5969   -1.8869   -0.3567 H   0  0  0  0  0  0  0  0  0  0  0  0
    1.3317   -1.7786   -0.4293 H   0  0  0  0  0  0  0  0  0  0  0  0
   -1.6803    0.3191   -0.1590 H   0  0  0  0  0  0  0  0  0  0  0  0
   -1.6835    2.6282    0.6956 H   0  0  0  0  0  0  0  0  0  0  0  0
    0.4551    3.7962    1.1258 H   0  0  0  0  0  0  0  0  0  0  0  0
    2.5937    2.6282    0.6956 H   0  0  0  0  0  0  0  0  0  0  0  0
    2.5905    0.3191   -0.1590 H   0  0  0  0  0  0  0  0  0  0  0  0
  1  2  1  0
  1 15  1  0
  2  3  1  0
  4  5  1  0
  4 12  1  0
  4 13  1  0
  4 14  1  0
  5  6  2  3
  5 16  1  0
  6  7  1  0
  6 11  1  0
  7  8  1  0
  7 17  1  0
  8  9  2  0
  8 18  1  0
  9 10  1  0
  9 19  1  0
 10 11  2  0
 10 20  1  0
 11 21  1  0
M  RAD  1   7   2
M  END
>  <reaction>  (9) 
rxn_445

>  <mol_properties>  (9) 
{"0": {"label": "*0", "atom_type": "O2s"}, "1": {"label": "*1", "atom_type": "O2s"}, "3": {"label": "*4", "atom_type": "Cd"}, "4": {"label": "*3", "atom_type": "Cd"}, "20": {"label": "*2", "atom_type": "H0"}}

>  <type>  (9) 
unop_5

>  <geom_source>  (9) 
Heuristics

$$$$

     RDKit          3D

 21 20  0  0  0  0  0  0  0  0999 V2000
   -1.3851   -2.5676    0.1907 O   0  0  0  0  0  0  0  0  0  0  0  0
   -2.3418   -1.5160    0.2827 O   0  0  0  0  0  0  0  0  0  0  0  0
   -3.1667   -2.0066    0.2090 H   0  0  0  0  0  0  0  0  0  0  0  0
    0.5937   -1.3449   -2.1581 C   0  0  0  0  0  0  0  0  0  0  0  0
    0.5937   -1.3449   -0.6290 C   0  0  0  0  0  0  0  0  0  0  0  0
    0.5937    0.0494   -0.0596 C   0  0  0  0  0  0  0  0  0  0  0  0
   -0.6008    0.7183    0.1881 C   0  0  0  0  0  3  0  0  0  0  0  0
   -0.6041    2.0185    0.6691 C   0  0  0  0  0  0  0  0  0  0  0  0
    0.5937    2.6739    0.9109 C   0  0  0  0  0  0  0  0  0  0  0  0
    1.7915    2.0185    0.6691 C   0  0  0  0  0  0  0  0  0  0  0  0
    1.7882    0.7183    0.1881 C   0  0  0  0  0  0  0  0  0  0  0  0
    1.4750   -0.8299   -2.5450 H   0  0  0  0  0  0  0  0  0  0  0  0
   -0.2876   -0.8299   -2.5450 H   0  0  0  0  0  0  0  0  0  0  0  0
    0.5937   -2.3633   -2.5504 H   0  0  0  0  0  0  0  0  0  0  0  0
   -0.4583   -1.9949   -0.1933 H   0  0  0  0  0  0  0  0  0  0  0  0
    1.4703   -1.8866   -0.2659 H   0  0  0  0  0  0  0  0  0  0  0  0
   -1.5417    0.2111    0.0044 H   0  0  0  0  0  0  0  0  0  0  0  0
   -1.5449    2.5202    0.8590 H   0  0  0  0  0  0  0  0  0  0  0  0
    0.5937    3.6882    1.2892 H   0  0  0  0  0  0  0  0  0  0  0  0
    2.7323    2.5202    0.8590 H   0  0  0  0  0  0  0  0  0  0  0  0
    2.7291    0.2111    0.0044 H   0  0  0  0  0  0  0  0  0  0  0  0
  1  2  1  0
  1 15  1  0
  2  3  1  0
  4  5  1  0
  4 12  1  0
  4 13  1  0
  4 14  1  0
  5  6  2  3
  5 16  1  0
  6  7  1  0
  6 11  1  0
  7  8  1  0
  7 17  1  0
  8  9  2  0
  8 18  1  0
  9 10  1  0
  9 19  1  0
 10 11  2  0
 10 20  1  0
 11 21  1  0
M  RAD  1   7   2
M  END
>  <reaction>  (10) 
rxn_445

>  <mol_properties>  (10) 
{"0": {"label": "*0", "atom_type": "O2s"}, "1": {"label": "*1", "atom_type": "O2s"}, "3": {"label": "*4", "atom_type": "Cd"}, "4": {"label": "*3", "atom_type": "Cd"}, "20": {"label": "*2", "atom_type": "H0"}}

>  <type>  (10) 
unop_6

>  <geom_source>  (10) 
Heuristics

$$$$

     RDKit          3D

 21 20  0  0  0  0  0  0  0  0999 V2000
   -1.4206   -2.5644    0.1098 O   0  0  0  0  0  0  0  0  0  0  0  0
   -2.0814   -1.5500    0.8609 O   0  0  0  0  0  0  0  0  0  0  0  0
   -2.9941   -1.8536    0.8227 H   0  0  0  0  0  0  0  0  0  0  0  0
    0.5582   -1.3417   -2.2390 C   0  0  0  0  0  0  0  0  0  0  0  0
    0.5582   -1.3417   -0.7098 C   0  0  0  0  0  0  0  0  0  0  0  0
    0.5582    0.0525   -0.1404 C   0  0  0  0  0  0  0  0  0  0  0  0
   -0.6364    0.7215    0.1073 C   0  0  0  0  0  3  0  0  0  0  0  0
   -0.6396    2.0217    0.5882 C   0  0  0  0  0  0  0  0  0  0  0  0
    0.5582    2.6771    0.8300 C   0  0  0  0  0  0  0  0  0  0  0  0
    1.7560    2.0217    0.5882 C   0  0  0  0  0  0  0  0  0  0  0  0
    1.7527    0.7215    0.1073 C   0  0  0  0  0  0  0  0  0  0  0  0
    1.4394   -0.8267   -2.6258 H   0  0  0  0  0  0  0  0  0  0  0  0
   -0.3231   -0.8267   -2.6258 H   0  0  0  0  0  0  0  0  0  0  0  0
    0.5582   -2.3602   -2.6313 H   0  0  0  0  0  0  0  0  0  0  0  0
   -0.4938   -1.9917   -0.2741 H   0  0  0  0  0  0  0  0  0  0  0  0
    1.4348   -1.8834   -0.3467 H   0  0  0  0  0  0  0  0  0  0  0  0
   -1.5773    0.2143   -0.0764 H   0  0  0  0  0  0  0  0  0  0  0  0
   -1.5804    2.5234    0.7781 H   0  0  0  0  0  0  0  0  0  0  0  0
    0.5582    3.6914    1.2084 H   0  0  0  0  0  0  0  0  0  0  0  0
    2.6967    2.5234    0.7781 H   0  0  0  0  0  0  0  0  0  0  0  0
    2.6936    0.2143   -0.0764 H   0  0  0  0  0  0  0  0  0  0  0  0
  1  2  1  0
  1 15  1  0
  2  3  1  0
  4  5  1  0
  4 12  1  0
  4 13  1  0
  4 14  1  0
  5  6  2  3
  5 16  1  0
  6  7  1  0
  6 11  1  0
  7  8  1  0
  7 17  1  0
  8  9  2  0
  8 18  1  0
  9 10  1  0
  9 19  1  0
 10 11  2  0
 10 20  1  0
 11 21  1  0
M  RAD  1   7   2
M  END
>  <reaction>  (11) 
rxn_445

>  <mol_properties>  (11) 
{"0": {"label": "*0", "atom_type": "O2s"}, "1": {"label": "*1", "atom_type": "O2s"}, "3": {"label": "*4", "atom_type": "Cd"}, "4": {"label": "*3", "atom_type": "Cd"}, "20": {"label": "*2", "atom_type": "H0"}}

>  <type>  (11) 
unop_7

>  <geom_source>  (11) 
Heuristics

$$$$

     RDKit          3D

 21 20  0  0  0  0  0  0  0  0999 V2000
   -1.5748   -2.2810    0.1845 O   0  0  0  0  0  0  0  0  0  0  0  0
   -1.0623   -3.6071    0.2765 O   0  0  0  0  0  0  0  0  0  0  0  0
   -0.4924   -3.5342    1.0489 H   0  0  0  0  0  0  0  0  0  0  0  0
    0.4040   -1.0583   -2.1643 C   0  0  0  0  0  0  0  0  0  0  0  0
    0.4040   -1.0583   -0.6352 C   0  0  0  0  0  0  0  0  0  0  0  0
    0.4040    0.3360   -0.0657 C   0  0  0  0  0  0  0  0  0  0  0  0
   -0.7905    1.0049    0.1820 C   0  0  0  0  0  3  0  0  0  0  0  0
   -0.7938    2.3051    0.6629 C   0  0  0  0  0  0  0  0  0  0  0  0
    0.4040    2.9605    0.9047 C   0  0  0  0  0  0  0  0  0  0  0  0
    1.6018    2.3051    0.6629 C   0  0  0  0  0  0  0  0  0  0  0  0
    1.5985    1.0049    0.1820 C   0  0  0  0  0  0  0  0  0  0  0  0
    1.2853   -0.5433   -2.5511 H   0  0  0  0  0  0  0  0  0  0  0  0
   -0.4773   -0.5433   -2.5511 H   0  0  0  0  0  0  0  0  0  0  0  0
    0.4040   -2.0767   -2.5566 H   0  0  0  0  0  0  0  0  0  0  0  0
   -0.6480   -1.7083   -0.1994 H   0  0  0  0  0  0  0  0  0  0  0  0
    1.2806   -1.6000   -0.2720 H   0  0  0  0  0  0  0  0  0  0  0  0
   -1.7314    0.4977   -0.0017 H   0  0  0  0  0  0  0  0  0  0  0  0
   -1.7346    2.8068    0.8528 H   0  0  0  0  0  0  0  0  0  0  0  0
    0.4040    3.9748    1.2831 H   0  0  0  0  0  0  0  0  0  0  0  0
    2.5426    2.8068    0.8528 H   0  0  0  0  0  0  0  0  0  0  0  0
    2.5394    0.4977   -0.0017 H   0  0  0  0  0  0  0  0  0  0  0  0
  1  2  1  0
  1 15  1  0
  2  3  1  0
  4  5  1  0
  4 12  1  0
  4 13  1  0
  4 14  1  0
  5  6  2  3
  5 16  1  0
  6  7  1  0
  6 11  1  0
  7  8  1  0
  7 17  1  0
  8  9  2  0
  8 18  1  0
  9 10  1  0
  9 19  1  0
 10 11  2  0
 10 20  1  0
 11 21  1  0
M  RAD  1   7   2
M  END
>  <reaction>  (12) 
rxn_445

>  <mol_properties>  (12) 
{"0": {"label": "*0", "atom_type": "O2s"}, "1": {"label": "*1", "atom_type": "O2s"}, "3": {"label": "*4", "atom_type": "Cd"}, "4": {"label": "*3", "atom_type": "Cd"}, "20": {"label": "*2", "atom_type": "H0"}}

>  <type>  (12) 
unop_8

>  <geom_source>  (12) 
Heuristics

$$$$

     RDKit          3D

 21 20  0  0  0  0  0  0  0  0999 V2000
   -1.3914   -2.4663    0.3306 O   0  0  0  0  0  0  0  0  0  0  0  0
   -2.3230   -2.2206   -0.7189 O   0  0  0  0  0  0  0  0  0  0  0  0
   -2.6989   -3.0978   -0.8446 H   0  0  0  0  0  0  0  0  0  0  0  0
    0.5874   -1.2436   -2.0182 C   0  0  0  0  0  0  0  0  0  0  0  0
    0.5874   -1.2436   -0.4891 C   0  0  0  0  0  0  0  0  0  0  0  0
    0.5874    0.1507    0.0803 C   0  0  0  0  0  0  0  0  0  0  0  0
   -0.6071    0.8196    0.3281 C   0  0  0  0  0  3  0  0  0  0  0  0
   -0.6104    2.1198    0.8090 C   0  0  0  0  0  0  0  0  0  0  0  0
    0.5874    2.7752    1.0508 C   0  0  0  0  0  0  0  0  0  0  0  0
    1.7852    2.1198    0.8090 C   0  0  0  0  0  0  0  0  0  0  0  0
    1.7819    0.8196    0.3281 C   0  0  0  0  0  0  0  0  0  0  0  0
    1.4687   -0.7285   -2.4050 H   0  0  0  0  0  0  0  0  0  0  0  0
   -0.2939   -0.7285   -2.4050 H   0  0  0  0  0  0  0  0  0  0  0  0
    0.5874   -2.2620   -2.4105 H   0  0  0  0  0  0  0  0  0  0  0  0
   -0.4646   -1.8936   -0.0533 H   0  0  0  0  0  0  0  0  0  0  0  0
    1.4640   -1.7853   -0.1260 H   0  0  0  0  0  0  0  0  0  0  0  0
   -1.5480    0.3125    0.1443 H   0  0  0  0  0  0  0  0  0  0  0  0
   -1.5512    2.6215    0.9989 H   0  0  0  0  0  0  0  0  0  0  0  0
    0.5874    3.7895    1.4291 H   0  0  0  0  0  0  0  0  0  0  0  0
    2.7260    2.6215    0.9989 H   0  0  0  0  0  0  0  0  0  0  0  0
    2.7228    0.3125    0.1443 H   0  0  0  0  0  0  0  0  0  0  0  0
  1  2  1  0
  1 15  1  0
  2  3  1  0
  4  5  1  0
  4 12  1  0
  4 13  1  0
  4 14  1  0
  5  6  2  3
  5 16  1  0
  6  7  1  0
  6 11  1  0
  7  8  1  0
  7 17  1  0
  8  9  2  0
  8 18  1  0
  9 10  1  0
  9 19  1  0
 10 11  2  0
 10 20  1  0
 11 21  1  0
M  RAD  1   7   2
M  END
>  <reaction>  (13) 
rxn_445

>  <mol_properties>  (13) 
{"0": {"label": "*0", "atom_type": "O2s"}, "1": {"label": "*1", "atom_type": "O2s"}, "3": {"label": "*4", "atom_type": "Cd"}, "4": {"label": "*3", "atom_type": "Cd"}, "20": {"label": "*2", "atom_type": "H0"}}

>  <type>  (13) 
unop_9

>  <geom_source>  (13) 
Heuristics

$$$$

     RDKit          3D

 21 20  0  0  0  0  0  0  0  0999 V2000
   -1.5392   -2.2824    0.2663 O   0  0  0  0  0  0  0  0  0  0  0  0
   -1.3227   -3.5713   -0.3007 O   0  0  0  0  0  0  0  0  0  0  0  0
   -0.6726   -3.9366    0.3080 H   0  0  0  0  0  0  0  0  0  0  0  0
    0.4396   -1.0597   -2.0825 C   0  0  0  0  0  0  0  0  0  0  0  0
    0.4396   -1.0597   -0.5534 C   0  0  0  0  0  0  0  0  0  0  0  0
    0.4396    0.3346    0.0160 C   0  0  0  0  0  0  0  0  0  0  0  0
   -0.7549    1.0035    0.2638 C   0  0  0  0  0  3  0  0  0  0  0  0
   -0.7582    2.3037    0.7447 C   0  0  0  0  0  0  0  0  0  0  0  0
    0.4396    2.9591    0.9865 C   0  0  0  0  0  0  0  0  0  0  0  0
    1.6374    2.3037    0.7447 C   0  0  0  0  0  0  0  0  0  0  0  0
    1.6341    1.0035    0.2638 C   0  0  0  0  0  0  0  0  0  0  0  0
    1.3209   -0.5446   -2.4693 H   0  0  0  0  0  0  0  0  0  0  0  0
   -0.4417   -0.5446   -2.4693 H   0  0  0  0  0  0  0  0  0  0  0  0
    0.4396   -2.0781   -2.4748 H   0  0  0  0  0  0  0  0  0  0  0  0
   -0.6124   -1.7097   -0.1176 H   0  0  0  0  0  0  0  0  0  0  0  0
    1.3162   -1.6014   -0.1903 H   0  0  0  0  0  0  0  0  0  0  0  0
   -1.6958    0.4964    0.0800 H   0  0  0  0  0  0  0  0  0  0  0  0
   -1.6990    2.8054    0.9346 H   0  0  0  0  0  0  0  0  0  0  0  0
    0.4396    3.9734    1.3648 H   0  0  0  0  0  0  0  0  0  0  0  0
    2.5782    2.8054    0.9346 H   0  0  0  0  0  0  0  0  0  0  0  0
    2.5750    0.4964    0.0800 H   0  0  0  0  0  0  0  0  0  0  0  0
  1  2  1  0
  1 15  1  0
  2  3  1  0
  4  5  1  0
  4 12  1  0
  4 13  1  0
  4 14  1  0
  5  6  2  3
  5 16  1  0
  6  7  1  0
  6 11  1  0
  7  8  1  0
  7 17  1  0
  8  9  2  0
  8 18  1  0
  9 10  1  0
  9 19  1  0
 10 11  2  0
 10 20  1  0
 11 21  1  0
M  RAD  1   7   2
M  END
>  <reaction>  (14) 
rxn_445

>  <mol_properties>  (14) 
{"0": {"label": "*0", "atom_type": "O2s"}, "1": {"label": "*1", "atom_type": "O2s"}, "3": {"label": "*4", "atom_type": "Cd"}, "4": {"label": "*3", "atom_type": "Cd"}, "20": {"label": "*2", "atom_type": "H0"}}

>  <type>  (14) 
unop_10

>  <geom_source>  (14) 
Heuristics

$$$$

     RDKit          3D

 21 20  0  0  0  0  0  0  0  0999 V2000
   -1.4708   -2.5245    0.0505 O   0  0  0  0  0  0  0  0  0  0  0  0
   -1.7181   -1.8559    1.2840 O   0  0  0  0  0  0  0  0  0  0  0  0
   -2.6803   -1.8312    1.2937 H   0  0  0  0  0  0  0  0  0  0  0  0
    0.5080   -1.3018   -2.2983 C   0  0  0  0  0  0  0  0  0  0  0  0
    0.5080   -1.3018   -0.7692 C   0  0  0  0  0  0  0  0  0  0  0  0
    0.5080    0.0924   -0.1998 C   0  0  0  0  0  0  0  0  0  0  0  0
   -0.6866    0.7614    0.0480 C   0  0  0  0  0  3  0  0  0  0  0  0
   -0.6898    2.0616    0.5289 C   0  0  0  0  0  0  0  0  0  0  0  0
    0.5080    2.7170    0.7707 C   0  0  0  0  0  0  0  0  0  0  0  0
    1.7058    2.0616    0.5289 C   0  0  0  0  0  0  0  0  0  0  0  0
    1.7025    0.7614    0.0480 C   0  0  0  0  0  0  0  0  0  0  0  0
    1.3892   -0.7868   -2.6851 H   0  0  0  0  0  0  0  0  0  0  0  0
   -0.3733   -0.7868   -2.6851 H   0  0  0  0  0  0  0  0  0  0  0  0
    0.5080   -2.3203   -2.6906 H   0  0  0  0  0  0  0  0  0  0  0  0
   -0.5440   -1.9519   -0.3334 H   0  0  0  0  0  0  0  0  0  0  0  0
    1.3846   -1.8435   -0.4060 H   0  0  0  0  0  0  0  0  0  0  0  0
   -1.6275    0.2542   -0.1358 H   0  0  0  0  0  0  0  0  0  0  0  0
   -1.6306    2.5633    0.7188 H   0  0  0  0  0  0  0  0  0  0  0  0
    0.5080    3.7313    1.1491 H   0  0  0  0  0  0  0  0  0  0  0  0
    2.6466    2.5633    0.7188 H   0  0  0  0  0  0  0  0  0  0  0  0
    2.6434    0.2542   -0.1358 H   0  0  0  0  0  0  0  0  0  0  0  0
  1  2  1  0
  1 15  1  0
  2  3  1  0
  4  5  1  0
  4 12  1  0
  4 13  1  0
  4 14  1  0
  5  6  2  3
  5 16  1  0
  6  7  1  0
  6 11  1  0
  7  8  1  0
  7 17  1  0
  8  9  2  0
  8 18  1  0
  9 10  1  0
  9 19  1  0
 10 11  2  0
 10 20  1  0
 11 21  1  0
M  RAD  1   7   2
M  END
>  <reaction>  (15) 
rxn_445

>  <mol_properties>  (15) 
{"0": {"label": "*0", "atom_type": "O2s"}, "1": {"label": "*1", "atom_type": "O2s"}, "3": {"label": "*4", "atom_type": "Cd"}, "4": {"label": "*3", "atom_type": "Cd"}, "20": {"label": "*2", "atom_type": "H0"}}

>  <type>  (15) 
unop_11

>  <geom_source>  (15) 
Heuristics

$$$$

     RDKit          3D

 21 20  0  0  0  0  0  0  0  0999 V2000
   -1.4332   -2.3890    0.3510 O   0  0  0  0  0  0  0  0  0  0  0  0
   -2.0504   -2.7704   -0.8750 O   0  0  0  0  0  0  0  0  0  0  0  0
   -1.9633   -3.7284   -0.8383 H   0  0  0  0  0  0  0  0  0  0  0  0
    0.5456   -1.1663   -1.9978 C   0  0  0  0  0  0  0  0  0  0  0  0
    0.5456   -1.1663   -0.4687 C   0  0  0  0  0  0  0  0  0  0  0  0
    0.5456    0.2279    0.1007 C   0  0  0  0  0  0  0  0  0  0  0  0
   -0.6489    0.8969    0.3485 C   0  0  0  0  0  3  0  0  0  0  0  0
   -0.6522    2.1971    0.8294 C   0  0  0  0  0  0  0  0  0  0  0  0
    0.5456    2.8525    1.0712 C   0  0  0  0  0  0  0  0  0  0  0  0
    1.7434    2.1971    0.8294 C   0  0  0  0  0  0  0  0  0  0  0  0
    1.7401    0.8969    0.3485 C   0  0  0  0  0  0  0  0  0  0  0  0
    1.4269   -0.6513   -2.3846 H   0  0  0  0  0  0  0  0  0  0  0  0
   -0.3357   -0.6513   -2.3846 H   0  0  0  0  0  0  0  0  0  0  0  0
    0.5456   -2.1848   -2.3901 H   0  0  0  0  0  0  0  0  0  0  0  0
   -0.5064   -1.8164   -0.0329 H   0  0  0  0  0  0  0  0  0  0  0  0
    1.4222   -1.7080   -0.1055 H   0  0  0  0  0  0  0  0  0  0  0  0
   -1.5898    0.3897    0.1647 H   0  0  0  0  0  0  0  0  0  0  0  0
   -1.5930    2.6988    1.0193 H   0  0  0  0  0  0  0  0  0  0  0  0
    0.5456    3.8668    1.4496 H   0  0  0  0  0  0  0  0  0  0  0  0
    2.6842    2.6988    1.0193 H   0  0  0  0  0  0  0  0  0  0  0  0
    2.6810    0.3897    0.1647 H   0  0  0  0  0  0  0  0  0  0  0  0
  1  2  1  0
  1 15  1  0
  2  3  1  0
  4  5  1  0
  4 12  1  0
  4 13  1  0
  4 14  1  0
  5  6  2  3
  5 16  1  0
  6  7  1  0
  6 11  1  0
  7  8  1  0
  7 17  1  0
  8  9  2  0
  8 18  1  0
  9 10  1  0
  9 19  1  0
 10 11  2  0
 10 20  1  0
 11 21  1  0
M  RAD  1   7   2
M  END
>  <reaction>  (16) 
rxn_445

>  <mol_properties>  (16) 
{"0": {"label": "*0", "atom_type": "O2s"}, "1": {"label": "*1", "atom_type": "O2s"}, "3": {"label": "*4", "atom_type": "Cd"}, "4": {"label": "*3", "atom_type": "Cd"}, "20": {"label": "*2", "atom_type": "H0"}}

>  <type>  (16) 
unop_12

>  <geom_source>  (16) 
Heuristics

$$$$

     RDKit          3D

 21 20  0  0  0  0  0  0  0  0999 V2000
   -2.5830    2.6535    0.7958 O   0  0  0  0  0  0  0  0  0  0  0  0
   -1.5451    1.8986    1.0884 O   0  0  0  0  0  1  0  0  0  0  0  0
   -1.8422   -1.5153   -0.7657 C   0  0  0  0  0  0  0  0  0  0  0  0
    0.1141   -0.1661   -0.0026 C   0  0  0  0  0  0  0  0  0  0  0  0
   -1.3749   -0.1927   -0.1721 C   0  0  0  0  0  0  0  0  0  0  0  0
    0.9546    0.1219   -1.0900 C   0  0  0  0  0  0  0  0  0  0  0  0
    0.6754   -0.4627    1.2474 C   0  0  0  0  0  0  0  0  0  0  0  0
    2.3430    0.1239   -0.9221 C   0  0  0  0  0  0  0  0  0  0  0  0
    2.8976   -0.1659    0.3282 C   0  0  0  0  0  0  0  0  0  0  0  0
    2.0645   -0.4598    1.4118 C   0  0  0  0  0  0  0  0  0  0  0  0
   -1.5313   -2.3579   -0.1123 H   0  0  0  0  0  0  0  0  0  0  0  0
   -1.4144   -1.6565   -1.7811 H   0  0  0  0  0  0  0  0  0  0  0  0
   -2.9494   -1.5130   -0.8396 H   0  0  0  0  0  0  0  0  0  0  0  0
   -1.7151    0.6577   -0.8018 H   0  0  0  0  0  0  0  0  0  0  0  0
    0.5346    0.3430   -2.0635 H   0  0  0  0  0  0  0  0  0  0  0  0
    2.9889    0.3481   -1.7612 H   0  0  0  0  0  0  0  0  0  0  0  0
    0.0383   -0.6959    2.0917 H   0  0  0  0  0  0  0  0  0  0  0  0
    3.9723   -0.1647    0.4567 H   0  0  0  0  0  0  0  0  0  0  0  0
    2.4949   -0.6872    2.3785 H   0  0  0  0  0  0  0  0  0  0  0  0
   -2.3148    3.1399   -0.0245 H   0  0  0  0  0  0  0  0  0  0  0  0
   -1.8082    0.7511    0.5380 H   0  0  0  0  0  0  0  0  0  0  0  0
  1  2  1  0
  1 20  1  0
  3  5  1  0
  3 11  1  0
  3 12  1  0
  3 13  1  0
  4  5  1  0
  4  6  2  0
  4  7  1  0
  5 14  1  0
  5 21  1  0
  6  8  1  0
  6 15  1  0
  7 10  2  0
  7 17  1  0
  8  9  2  0
  8 16  1  0
  9 10  1  0
  9 18  1  0
 10 19  1  0
M  RAD  1   2   2
M  END
>  <reaction>  (17) 
rxn_445

>  <mol_properties>  (17) 
{"0": {"label": "*0", "atom_type": "O2s"}, "1": {"label": "*1", "atom_type": "O2s"}, "3": {"label": "*4", "atom_type": "Cd"}, "4": {"label": "*3", "atom_type": "Cd"}, "20": {"label": "*2", "atom_type": "H0"}}

>  <type>  (17) 
unop_13

>  <geom_source>  (17) 
AutoTST

$$$$
