
     RDKit          3D

 18 18  0  0  0  0  0  0  0  0999 V2000
   -2.4852    0.3210   -0.3966 C   0  0  0  0  0  0  0  0  0  0  0  0
   -1.5917   -0.2708    0.6941 C   0  0  0  0  0  0  0  0  0  0  0  0
   -0.1292   -0.1692    0.3493 C   0  0  0  0  0  0  0  0  0  0  0  0
    0.6099    0.9558    0.7015 C   0  0  0  0  0  0  0  0  0  0  0  0
    1.9447    1.0728    0.3458 C   0  0  0  0  0  0  0  0  0  0  0  0
    2.5646    0.0613   -0.3720 C   0  0  0  0  0  0  0  0  0  0  0  0
    1.8399   -1.0657   -0.7287 C   0  0  0  0  0  0  0  0  0  0  0  0
    0.5055   -1.1769   -0.3700 C   0  0  0  0  0  0  0  0  0  0  0  0
   -2.3325   -0.1971   -1.3452 H   0  0  0  0  0  0  0  0  0  0  0  0
   -2.2554    1.3763   -0.5546 H   0  0  0  0  0  0  0  0  0  0  0  0
   -3.5397    0.2376   -0.1280 H   0  0  0  0  0  0  0  0  0  0  0  0
   -1.7801    0.2462    1.6380 H   0  0  0  0  0  0  0  0  0  0  0  0
   -1.8568   -1.3190    0.8516 H   0  0  0  0  0  0  0  0  0  0  0  0
    0.1327    1.7497    1.2656 H   0  0  0  0  0  0  0  0  0  0  0  0
    2.5033    1.9550    0.6330 H   0  0  0  0  0  0  0  0  0  0  0  0
    3.6077    0.1491   -0.6484 H   0  0  0  0  0  0  0  0  0  0  0  0
    2.3163   -1.8632   -1.2854 H   0  0  0  0  0  0  0  0  0  0  0  0
   -0.0540   -2.0629   -0.6500 H   0  0  0  0  0  0  0  0  0  0  0  0
  1  2  1  0
  1  9  1  0
  1 10  1  0
  1 11  1  0
  2  3  1  0
  2 12  1  0
  2 13  1  0
  3  4  2  0
  3  8  1  0
  4  5  1  0
  4 14  1  0
  5  6  2  0
  5 15  1  0
  6  7  1  0
  6 16  1  0
  7  8  2  0
  7 17  1  0
  8 18  1  0
M  END
>  <reaction>  (1) 
rxn_1503

>  <mol_properties>  (1) 
{"1": {"label": "donator", "atom_type": "Cs"}, "11": {"label": "d_hydrogen", "atom_type": "H0"}}

>  <type>  (1) 
r1h

$$$$

     RDKit          3D

  9  8  0  0  0  0  0  0  0  0999 V2000
   -1.2704   -0.1236    0.1096 C   0  0  0  0  0  0  0  0  0  0  0  0
    0.0713   -0.5323    0.5887 C   0  0  0  0  0  0  0  0  0  0  0  0
    0.9521   -1.3639   -0.0464 C   0  0  0  0  0  0  0  0  0  0  0  0
    0.6900   -2.1109   -1.5335 S   0  0  0  0  0  1  0  0  0  0  0  0
   -1.3201    0.9657    0.0241 H   0  0  0  0  0  0  0  0  0  0  0  0
   -1.5103   -0.5706   -0.8526 H   0  0  0  0  0  0  0  0  0  0  0  0
   -2.0312   -0.4112    0.8411 H   0  0  0  0  0  0  0  0  0  0  0  0
    0.3863   -0.1265    1.5468 H   0  0  0  0  0  0  0  0  0  0  0  0
    1.8971   -1.5543    0.4552 H   0  0  0  0  0  0  0  0  0  0  0  0
  1  2  1  0
  1  5  1  0
  1  6  1  0
  1  7  1  0
  2  3  2  3
  2  8  1  0
  3  4  1  0
  3  9  1  0
M  RAD  1   4   2
M  END
>  <reaction>  (2) 
rxn_1503

>  <mol_properties>  (2) 
{"1": {"label": "acceptor", "atom_type": "Cs"}}

>  <type>  (2) 
r2

$$$$

     RDKit          3D

 10  9  0  0  0  0  0  0  0  0999 V2000
   -1.1508    0.0666    0.2839 C   0  0  0  0  0  0  0  0  0  0  0  0
    0.1022   -0.3749   -0.4771 C   0  0  0  0  0  0  0  0  0  0  0  0
    1.3428    0.1620    0.1542 C   0  0  0  0  0  0  0  0  0  0  0  0
    2.5613   -0.6971    0.7526 S   0  0  0  0  0  0  0  0  0  0  0  0
   -1.2137    1.1546    0.3481 H   0  0  0  0  0  0  0  0  0  0  0  0
   -2.0472   -0.2935   -0.2212 H   0  0  0  0  0  0  0  0  0  0  0  0
   -1.1467   -0.3334    1.2987 H   0  0  0  0  0  0  0  0  0  0  0  0
    0.1602   -1.4616   -0.5369 H   0  0  0  0  0  0  0  0  0  0  0  0
    0.0536    0.0174   -1.4997 H   0  0  0  0  0  0  0  0  0  0  0  0
    1.3824    1.2528    0.2110 H   0  0  0  0  0  0  0  0  0  0  0  0
  1  2  1  0
  1  5  1  0
  1  6  1  0
  1  7  1  0
  2  3  1  0
  2  8  1  0
  2  9  1  0
  3  4  2  0
  3 10  1  0
M  END
>  <reaction>  (3) 
rxn_1503

>  <mol_properties>  (3) 
{"1": {"label": "acceptor", "atom_type": "Cs"}, "9": {"label": "a_hydrogen", "atom_type": "H0"}}

>  <type>  (3) 
r2h

$$$$

     RDKit          3D

 27 26  0  0  0  0  0  0  0  0999 V2000
   -0.5030   -1.1889    2.0843 C   0  0  0  0  0  0  0  0  0  0  0  0
   -0.4785   -1.9871    0.8064 C   0  0  0  0  0  0  0  0  0  0  0  0
   -1.6233   -1.9952   -0.0670 C   0  0  0  0  0  0  0  0  0  0  0  0
   -2.8566   -0.9214   -0.0767 S   0  0  0  0  0  0  0  0  0  0  0  0
   -0.8069   -0.1594    1.8963 H   0  0  0  0  0  0  0  0  0  0  0  0
   -1.2161   -1.6205    2.7904 H   0  0  0  0  0  0  0  0  0  0  0  0
    0.4829   -1.1810    2.5502 H   0  0  0  0  0  0  0  0  0  0  0  0
   -0.0047   -2.9659    0.8906 H   0  0  0  0  0  0  0  0  0  0  0  0
   -1.6150   -2.7816   -0.8224 H   0  0  0  0  0  0  0  0  0  0  0  0
    0.8403   -0.8735   -2.0331 C   0  0  0  0  0  0  0  0  0  0  0  0
    1.3376   -0.5948   -0.6442 C   0  0  0  0  0  0  0  0  0  0  0  0
    1.1935    0.7257   -0.0457 C   0  0  0  0  0  0  0  0  0  0  0  0
    0.1722    1.6040   -0.4271 C   0  0  0  0  0  3  0  0  0  0  0  0
    0.0148    2.8234    0.2071 C   0  0  0  0  0  0  0  0  0  0  0  0
    0.8703    3.1969    1.2334 C   0  0  0  0  0  0  0  0  0  0  0  0
    1.8909    2.3384    1.6224 C   0  0  0  0  0  0  0  0  0  0  0  0
    2.0477    1.1188    0.9931 C   0  0  0  0  0  0  0  0  0  0  0  0
    1.3406   -0.2310   -2.7633 H   0  0  0  0  0  0  0  0  0  0  0  0
   -0.2341   -0.6971   -2.1221 H   0  0  0  0  0  0  0  0  0  0  0  0
    1.0292   -1.9111   -2.3092 H   0  0  0  0  0  0  0  0  0  0  0  0
    0.4145   -1.3798    0.0969 H   0  0  0  0  0  0  0  0  0  0  0  0
    2.2632   -1.1011   -0.3786 H   0  0  0  0  0  0  0  0  0  0  0  0
   -0.5154    1.3230   -1.2138 H   0  0  0  0  0  0  0  0  0  0  0  0
   -0.7863    3.4847   -0.0978 H   0  0  0  0  0  0  0  0  0  0  0  0
    0.7433    4.1510    1.7285 H   0  0  0  0  0  0  0  0  0  0  0  0
    2.5647    2.6232    2.4207 H   0  0  0  0  0  0  0  0  0  0  0  0
    2.8425    0.4500    1.3037 H   0  0  0  0  0  0  0  0  0  0  0  0
  1  2  1  0
  1  5  1  0
  1  6  1  0
  1  7  1  0
  2  3  1  0
  2  8  1  0
  2 21  1  0
  3  4  2  0
  3  9  1  0
 10 11  1  0
 10 18  1  0
 10 19  1  0
 10 20  1  0
 11 12  2  3
 11 22  1  0
 12 13  1  0
 12 17  1  0
 13 14  1  0
 13 23  1  0
 14 15  2  0
 14 24  1  0
 15 16  1  0
 15 25  1  0
 16 17  2  0
 16 26  1  0
 17 27  1  0
M  RAD  1  13   2
M  END
>  <reaction>  (4) 
rxn_1503

>  <mol_properties>  (4) 
{"1": {"label": "*1", "atom_type": "Cs"}, "2": {"label": "*0", "atom_type": "CS"}, "10": {"label": "*3", "atom_type": "Cd"}, "11": {"label": "*4", "atom_type": "Cd"}, "20": {"label": "*2", "atom_type": "H0"}}

>  <type>  (4) 
ts

$$$$

     RDKit          3D

 27 26  0  0  0  0  0  0  0  0999 V2000
   -0.9454   -2.3393    1.8912 C   0  0  0  0  0  0  0  0  0  0  0  0
   -0.9093   -2.3170    0.3607 C   0  0  0  0  0  0  0  0  0  0  0  0
   -2.1481   -1.7090   -0.2066 C   0  0  0  0  0  0  0  0  0  0  0  0
   -2.2335   -0.4024   -1.1374 S   0  0  0  0  0  0  0  0  0  0  0  0
   -0.9786   -1.3250    2.2909 H   0  0  0  0  0  0  0  0  0  0  0  0
   -1.8201   -2.8784    2.2600 H   0  0  0  0  0  0  0  0  0  0  0  0
   -0.0558   -2.8319    2.2837 H   0  0  0  0  0  0  0  0  0  0  0  0
   -0.8463   -3.3474   -0.0084 H   0  0  0  0  0  0  0  0  0  0  0  0
   -3.0705   -2.2232    0.0747 H   0  0  0  0  0  0  0  0  0  0  0  0
    1.1920   -1.0186   -2.0389 C   0  0  0  0  0  0  0  0  0  0  0  0
    1.1920   -1.0186   -0.5098 C   0  0  0  0  0  0  0  0  0  0  0  0
    1.1920    0.3757    0.0596 C   0  0  0  0  0  0  0  0  0  0  0  0
   -0.0025    1.0446    0.3074 C   0  0  0  0  0  3  0  0  0  0  0  0
   -0.0058    2.3448    0.7883 C   0  0  0  0  0  0  0  0  0  0  0  0
    1.1920    3.0002    1.0301 C   0  0  0  0  0  0  0  0  0  0  0  0
    2.3898    2.3448    0.7883 C   0  0  0  0  0  0  0  0  0  0  0  0
    2.3865    1.0446    0.3074 C   0  0  0  0  0  0  0  0  0  0  0  0
    2.0733   -0.5036   -2.4257 H   0  0  0  0  0  0  0  0  0  0  0  0
    0.3107   -0.5036   -2.4257 H   0  0  0  0  0  0  0  0  0  0  0  0
    1.1920   -2.0370   -2.4312 H   0  0  0  0  0  0  0  0  0  0  0  0
    0.1400   -1.6686   -0.0740 H   0  0  0  0  0  0  0  0  0  0  0  0
    2.0686   -1.5603   -0.1466 H   0  0  0  0  0  0  0  0  0  0  0  0
   -0.9434    0.5374    0.1236 H   0  0  0  0  0  0  0  0  0  0  0  0
   -0.9466    2.8465    0.9782 H   0  0  0  0  0  0  0  0  0  0  0  0
    1.1920    4.0145    1.4085 H   0  0  0  0  0  0  0  0  0  0  0  0
    3.3306    2.8465    0.9782 H   0  0  0  0  0  0  0  0  0  0  0  0
    3.3274    0.5374    0.1236 H   0  0  0  0  0  0  0  0  0  0  0  0
  1  2  1  0
  1  5  1  0
  1  6  1  0
  1  7  1  0
  2  3  1  0
  2  8  1  0
  2 21  1  0
  3  4  2  0
  3  9  1  0
 10 11  1  0
 10 18  1  0
 10 19  1  0
 10 20  1  0
 11 12  2  3
 11 22  1  0
 12 13  1  0
 12 17  1  0
 13 14  1  0
 13 23  1  0
 14 15  2  0
 14 24  1  0
 15 16  1  0
 15 25  1  0
 16 17  2  0
 16 26  1  0
 17 27  1  0
M  RAD  1  13   2
M  END
>  <reaction>  (5) 
rxn_1503

>  <mol_properties>  (5) 
{"1": {"label": "*1", "atom_type": "Cs"}, "2": {"label": "*0", "atom_type": "CS"}, "10": {"label": "*3", "atom_type": "Cd"}, "11": {"label": "*4", "atom_type": "Cd"}, "20": {"label": "*2", "atom_type": "H0"}}

>  <type>  (5) 
unop_1

>  <geom_source>  (5) 
Heuristics

$$$$

     RDKit          3D

 27 26  0  0  0  0  0  0  0  0999 V2000
   -2.0525   -2.8538   -1.1047 C   0  0  0  0  0  0  0  0  0  0  0  0
   -1.6380   -1.7576   -0.1195 C   0  0  0  0  0  0  0  0  0  0  0  0
   -0.9529   -2.3281    1.0768 C   0  0  0  0  0  0  0  0  0  0  0  0
    0.5441   -2.0098    1.5653 S   0  0  0  0  0  0  0  0  0  0  0  0
   -1.1763   -3.3738   -1.4941 H   0  0  0  0  0  0  0  0  0  0  0  0
   -2.7010   -3.5914   -0.6281 H   0  0  0  0  0  0  0  0  0  0  0  0
   -2.5948   -2.4217   -1.9458 H   0  0  0  0  0  0  0  0  0  0  0  0
   -2.5364   -1.2355    0.2300 H   0  0  0  0  0  0  0  0  0  0  0  0
   -1.5569   -3.0418    1.6428 H   0  0  0  0  0  0  0  0  0  0  0  0
    0.4633   -0.4591   -2.5190 C   0  0  0  0  0  0  0  0  0  0  0  0
    0.4633   -0.4591   -0.9899 C   0  0  0  0  0  0  0  0  0  0  0  0
    0.4633    0.9351   -0.4205 C   0  0  0  0  0  0  0  0  0  0  0  0
   -0.7312    1.6041   -0.1728 C   0  0  0  0  0  3  0  0  0  0  0  0
   -0.7345    2.9043    0.3082 C   0  0  0  0  0  0  0  0  0  0  0  0
    0.4633    3.5597    0.5500 C   0  0  0  0  0  0  0  0  0  0  0  0
    1.6611    2.9043    0.3082 C   0  0  0  0  0  0  0  0  0  0  0  0
    1.6579    1.6041   -0.1728 C   0  0  0  0  0  0  0  0  0  0  0  0
    1.3446    0.0559   -2.9058 H   0  0  0  0  0  0  0  0  0  0  0  0
   -0.4180    0.0559   -2.9058 H   0  0  0  0  0  0  0  0  0  0  0  0
    0.4633   -1.4776   -2.9113 H   0  0  0  0  0  0  0  0  0  0  0  0
   -0.5886   -1.1092   -0.5542 H   0  0  0  0  0  0  0  0  0  0  0  0
    1.3400   -1.0008   -0.6268 H   0  0  0  0  0  0  0  0  0  0  0  0
   -1.6721    1.0969   -0.3565 H   0  0  0  0  0  0  0  0  0  0  0  0
   -1.6753    3.4060    0.4981 H   0  0  0  0  0  0  0  0  0  0  0  0
    0.4633    4.5740    0.9283 H   0  0  0  0  0  0  0  0  0  0  0  0
    2.6019    3.4060    0.4981 H   0  0  0  0  0  0  0  0  0  0  0  0
    2.5987    1.0969   -0.3565 H   0  0  0  0  0  0  0  0  0  0  0  0
  1  2  1  0
  1  5  1  0
  1  6  1  0
  1  7  1  0
  2  3  1  0
  2  8  1  0
  2 21  1  0
  3  4  2  0
  3  9  1  0
 10 11  1  0
 10 18  1  0
 10 19  1  0
 10 20  1  0
 11 12  2  3
 11 22  1  0
 12 13  1  0
 12 17  1  0
 13 14  1  0
 13 23  1  0
 14 15  2  0
 14 24  1  0
 15 16  1  0
 15 25  1  0
 16 17  2  0
 16 26  1  0
 17 27  1  0
M  RAD  1  13   2
M  END
>  <reaction>  (6) 
rxn_1503

>  <mol_properties>  (6) 
{"1": {"label": "*1", "atom_type": "Cs"}, "2": {"label": "*0", "atom_type": "CS"}, "10": {"label": "*3", "atom_type": "Cd"}, "11": {"label": "*4", "atom_type": "Cd"}, "20": {"label": "*2", "atom_type": "H0"}}

>  <type>  (6) 
unop_2

>  <geom_source>  (6) 
Heuristics

$$$$

     RDKit          3D

 27 26  0  0  0  0  0  0  0  0999 V2000
   -1.2926   -1.3671    1.8659 C   0  0  0  0  0  0  0  0  0  0  0  0
   -0.8267   -1.9194    0.5160 C   0  0  0  0  0  0  0  0  0  0  0  0
   -1.9617   -2.5022   -0.2573 C   0  0  0  0  0  0  0  0  0  0  0  0
   -2.4774   -2.0293   -1.7035 S   0  0  0  0  0  0  0  0  0  0  0  0
   -1.9972   -0.5467    1.7244 H   0  0  0  0  0  0  0  0  0  0  0  0
   -1.7844   -2.1381    2.4620 H   0  0  0  0  0  0  0  0  0  0  0  0
   -0.4421   -0.9922    2.4355 H   0  0  0  0  0  0  0  0  0  0  0  0
   -0.0989   -2.7201    0.6917 H   0  0  0  0  0  0  0  0  0  0  0  0
   -2.4787   -3.3200    0.2508 H   0  0  0  0  0  0  0  0  0  0  0  0
    1.2746   -0.6210   -1.8835 C   0  0  0  0  0  0  0  0  0  0  0  0
    1.2746   -0.6210   -0.3544 C   0  0  0  0  0  0  0  0  0  0  0  0
    1.2746    0.7733    0.2150 C   0  0  0  0  0  0  0  0  0  0  0  0
    0.0801    1.4423    0.4627 C   0  0  0  0  0  3  0  0  0  0  0  0
    0.0768    2.7425    0.9437 C   0  0  0  0  0  0  0  0  0  0  0  0
    1.2746    3.3978    1.1855 C   0  0  0  0  0  0  0  0  0  0  0  0
    2.4724    2.7425    0.9437 C   0  0  0  0  0  0  0  0  0  0  0  0
    2.4692    1.4423    0.4627 C   0  0  0  0  0  0  0  0  0  0  0  0
    2.1559   -0.1059   -2.2704 H   0  0  0  0  0  0  0  0  0  0  0  0
    0.3933   -0.1059   -2.2704 H   0  0  0  0  0  0  0  0  0  0  0  0
    1.2746   -1.6394   -2.2758 H   0  0  0  0  0  0  0  0  0  0  0  0
    0.2227   -1.2710    0.0813 H   0  0  0  0  0  0  0  0  0  0  0  0
    2.1513   -1.1626    0.0087 H   0  0  0  0  0  0  0  0  0  0  0  0
   -0.8608    0.9351    0.2790 H   0  0  0  0  0  0  0  0  0  0  0  0
   -0.8640    3.2442    1.1336 H   0  0  0  0  0  0  0  0  0  0  0  0
    1.2746    4.4122    1.5638 H   0  0  0  0  0  0  0  0  0  0  0  0
    3.4132    3.2442    1.1336 H   0  0  0  0  0  0  0  0  0  0  0  0
    3.4100    0.9351    0.2790 H   0  0  0  0  0  0  0  0  0  0  0  0
  1  2  1  0
  1  5  1  0
  1  6  1  0
  1  7  1  0
  2  3  1  0
  2  8  1  0
  2 21  1  0
  3  4  2  0
  3  9  1  0
 10 11  1  0
 10 18  1  0
 10 19  1  0
 10 20  1  0
 11 12  2  3
 11 22  1  0
 12 13  1  0
 12 17  1  0
 13 14  1  0
 13 23  1  0
 14 15  2  0
 14 24  1  0
 15 16  1  0
 15 25  1  0
 16 17  2  0
 16 26  1  0
 17 27  1  0
M  RAD  1  13   2
M  END
>  <reaction>  (7) 
rxn_1503

>  <mol_properties>  (7) 
{"1": {"label": "*1", "atom_type": "Cs"}, "2": {"label": "*0", "atom_type": "CS"}, "10": {"label": "*3", "atom_type": "Cd"}, "11": {"label": "*4", "atom_type": "Cd"}, "20": {"label": "*2", "atom_type": "H0"}}

>  <type>  (7) 
unop_3

>  <geom_source>  (7) 
Heuristics

$$$$

     RDKit          3D

 27 26  0  0  0  0  0  0  0  0999 V2000
   -1.8223   -0.7289    1.3472 C   0  0  0  0  0  0  0  0  0  0  0  0
   -0.9335   -1.6348    0.4907 C   0  0  0  0  0  0  0  0  0  0  0  0
   -1.6714   -2.8467    0.0295 C   0  0  0  0  0  0  0  0  0  0  0  0
   -1.9464   -3.2781   -1.4935 S   0  0  0  0  0  0  0  0  0  0  0  0
   -2.6630   -0.3507    0.7641 H   0  0  0  0  0  0  0  0  0  0  0  0
   -2.2216   -1.2653    2.2101 H   0  0  0  0  0  0  0  0  0  0  0  0
   -1.2512    0.1236    1.7151 H   0  0  0  0  0  0  0  0  0  0  0  0
   -0.0840   -1.9735    1.0953 H   0  0  0  0  0  0  0  0  0  0  0  0
   -2.0622   -3.4698    0.8379 H   0  0  0  0  0  0  0  0  0  0  0  0
    1.1678   -0.3364   -1.9088 C   0  0  0  0  0  0  0  0  0  0  0  0
    1.1678   -0.3364   -0.3797 C   0  0  0  0  0  0  0  0  0  0  0  0
    1.1678    1.0579    0.1897 C   0  0  0  0  0  0  0  0  0  0  0  0
   -0.0267    1.7268    0.4375 C   0  0  0  0  0  3  0  0  0  0  0  0
   -0.0300    3.0270    0.9184 C   0  0  0  0  0  0  0  0  0  0  0  0
    1.1678    3.6824    1.1602 C   0  0  0  0  0  0  0  0  0  0  0  0
    2.3656    3.0270    0.9184 C   0  0  0  0  0  0  0  0  0  0  0  0
    2.3623    1.7268    0.4375 C   0  0  0  0  0  0  0  0  0  0  0  0
    2.0491    0.1787   -2.2956 H   0  0  0  0  0  0  0  0  0  0  0  0
    0.2865    0.1787   -2.2956 H   0  0  0  0  0  0  0  0  0  0  0  0
    1.1678   -1.3548   -2.3011 H   0  0  0  0  0  0  0  0  0  0  0  0
    0.1159   -0.9864    0.0561 H   0  0  0  0  0  0  0  0  0  0  0  0
    2.0445   -0.8781   -0.0166 H   0  0  0  0  0  0  0  0  0  0  0  0
   -0.9676    1.2196    0.2537 H   0  0  0  0  0  0  0  0  0  0  0  0
   -0.9708    3.5287    1.1083 H   0  0  0  0  0  0  0  0  0  0  0  0
    1.1678    4.6967    1.5385 H   0  0  0  0  0  0  0  0  0  0  0  0
    3.3064    3.5287    1.1083 H   0  0  0  0  0  0  0  0  0  0  0  0
    3.3032    1.2197    0.2537 H   0  0  0  0  0  0  0  0  0  0  0  0
  1  2  1  0
  1  5  1  0
  1  6  1  0
  1  7  1  0
  2  3  1  0
  2  8  1  0
  2 21  1  0
  3  4  2  0
  3  9  1  0
 10 11  1  0
 10 18  1  0
 10 19  1  0
 10 20  1  0
 11 12  2  3
 11 22  1  0
 12 13  1  0
 12 17  1  0
 13 14  1  0
 13 23  1  0
 14 15  2  0
 14 24  1  0
 15 16  1  0
 15 25  1  0
 16 17  2  0
 16 26  1  0
 17 27  1  0
M  RAD  1  13   2
M  END
>  <reaction>  (8) 
rxn_1503

>  <mol_properties>  (8) 
{"1": {"label": "*1", "atom_type": "Cs"}, "2": {"label": "*0", "atom_type": "CS"}, "10": {"label": "*3", "atom_type": "Cd"}, "11": {"label": "*4", "atom_type": "Cd"}, "20": {"label": "*2", "atom_type": "H0"}}

>  <type>  (8) 
unop_4

>  <geom_source>  (8) 
Heuristics

$$$$

     RDKit          3D

 27 26  0  0  0  0  0  0  0  0999 V2000
   -2.5424   -1.3091   -0.8461 C   0  0  0  0  0  0  0  0  0  0  0  0
   -1.3765   -1.4288    0.1391 C   0  0  0  0  0  0  0  0  0  0  0  0
   -1.2944   -2.7983    0.7251 C   0  0  0  0  0  0  0  0  0  0  0  0
   -0.0571   -3.8165    0.6096 S   0  0  0  0  0  0  0  0  0  0  0  0
   -2.4000   -1.9786   -1.6953 H   0  0  0  0  0  0  0  0  0  0  0  0
   -3.4919   -1.5614   -0.3703 H   0  0  0  0  0  0  0  0  0  0  0  0
   -2.6155   -0.2893   -1.2242 H   0  0  0  0  0  0  0  0  0  0  0  0
   -1.5341   -0.7238    0.9636 H   0  0  0  0  0  0  0  0  0  0  0  0
   -2.1913   -3.1101    1.2663 H   0  0  0  0  0  0  0  0  0  0  0  0
    0.7248   -0.1304   -2.2605 C   0  0  0  0  0  0  0  0  0  0  0  0
    0.7248   -0.1304   -0.7314 C   0  0  0  0  0  0  0  0  0  0  0  0
    0.7248    1.2639   -0.1620 C   0  0  0  0  0  0  0  0  0  0  0  0
   -0.4697    1.9329    0.0858 C   0  0  0  0  0  3  0  0  0  0  0  0
   -0.4730    3.2331    0.5667 C   0  0  0  0  0  0  0  0  0  0  0  0
    0.7248    3.8884    0.8085 C   0  0  0  0  0  0  0  0  0  0  0  0
    1.9226    3.2331    0.5667 C   0  0  0  0  0  0  0  0  0  0  0  0
    1.9194    1.9329    0.0858 C   0  0  0  0  0  0  0  0  0  0  0  0
    1.6061    0.3847   -2.6473 H   0  0  0  0  0  0  0  0  0  0  0  0
   -0.1565    0.3847   -2.6473 H   0  0  0  0  0  0  0  0  0  0  0  0
    0.7248   -1.1488   -2.6528 H   0  0  0  0  0  0  0  0  0  0  0  0
   -0.3271   -0.7804   -0.2956 H   0  0  0  0  0  0  0  0  0  0  0  0
    1.6015   -0.6720   -0.3682 H   0  0  0  0  0  0  0  0  0  0  0  0
   -1.4106    1.4257   -0.0980 H   0  0  0  0  0  0  0  0  0  0  0  0
   -1.4138    3.7348    0.7566 H   0  0  0  0  0  0  0  0  0  0  0  0
    0.7248    4.9028    1.1869 H   0  0  0  0  0  0  0  0  0  0  0  0
    2.8634    3.7348    0.7566 H   0  0  0  0  0  0  0  0  0  0  0  0
    2.8602    1.4257   -0.0980 H   0  0  0  0  0  0  0  0  0  0  0  0
  1  2  1  0
  1  5  1  0
  1  6  1  0
  1  7  1  0
  2  3  1  0
  2  8  1  0
  2 21  1  0
  3  4  2  0
  3  9  1  0
 10 11  1  0
 10 18  1  0
 10 19  1  0
 10 20  1  0
 11 12  2  3
 11 22  1  0
 12 13  1  0
 12 17  1  0
 13 14  1  0
 13 23  1  0
 14 15  2  0
 14 24  1  0
 15 16  1  0
 15 25  1  0
 16 17  2  0
 16 26  1  0
 17 27  1  0
M  RAD  1  13   2
M  END
>  <reaction>  (9) 
rxn_1503

>  <mol_properties>  (9) 
{"1": {"label": "*1", "atom_type": "Cs"}, "2": {"label": "*0", "atom_type": "CS"}, "10": {"label": "*3", "atom_type": "Cd"}, "11": {"label": "*4", "atom_type": "Cd"}, "20": {"label": "*2", "atom_type": "H0"}}

>  <type>  (9) 
unop_5

>  <geom_source>  (9) 
Heuristics

$$$$

     RDKit          3D

 27 26  0  0  0  0  0  0  0  0999 V2000
   -2.5071   -0.7615   -0.2183 C   0  0  0  0  0  0  0  0  0  0  0  0
   -1.2142   -1.4177    0.2734 C   0  0  0  0  0  0  0  0  0  0  0  0
   -1.4120   -2.8686    0.5596 C   0  0  0  0  0  0  0  0  0  0  0  0
   -0.6464   -4.0954   -0.1404 S   0  0  0  0  0  0  0  0  0  0  0  0
   -2.8275   -1.2014   -1.1636 H   0  0  0  0  0  0  0  0  0  0  0  0
   -3.3153   -0.8854    0.5050 H   0  0  0  0  0  0  0  0  0  0  0  0
   -2.3545    0.3066   -0.3733 H   0  0  0  0  0  0  0  0  0  0  0  0
   -0.9032   -0.9346    1.2070 H   0  0  0  0  0  0  0  0  0  0  0  0
   -2.1731   -3.0779    1.3154 H   0  0  0  0  0  0  0  0  0  0  0  0
    0.8871   -0.1193   -2.1262 C   0  0  0  0  0  0  0  0  0  0  0  0
    0.8871   -0.1193   -0.5970 C   0  0  0  0  0  0  0  0  0  0  0  0
    0.8871    1.2750   -0.0276 C   0  0  0  0  0  0  0  0  0  0  0  0
   -0.3074    1.9439    0.2201 C   0  0  0  0  0  3  0  0  0  0  0  0
   -0.3107    3.2441    0.7010 C   0  0  0  0  0  0  0  0  0  0  0  0
    0.8871    3.8995    0.9428 C   0  0  0  0  0  0  0  0  0  0  0  0
    2.0849    3.2441    0.7010 C   0  0  0  0  0  0  0  0  0  0  0  0
    2.0817    1.9439    0.2201 C   0  0  0  0  0  0  0  0  0  0  0  0
    1.7684    0.3957   -2.5130 H   0  0  0  0  0  0  0  0  0  0  0  0
    0.0059    0.3957   -2.5130 H   0  0  0  0  0  0  0  0  0  0  0  0
    0.8871   -1.1377   -2.5185 H   0  0  0  0  0  0  0  0  0  0  0  0
   -0.1648   -0.7693   -0.1613 H   0  0  0  0  0  0  0  0  0  0  0  0
    1.7638   -0.6610   -0.2339 H   0  0  0  0  0  0  0  0  0  0  0  0
   -1.2483    1.4367    0.0364 H   0  0  0  0  0  0  0  0  0  0  0  0
   -1.2514    3.7458    0.8909 H   0  0  0  0  0  0  0  0  0  0  0  0
    0.8871    4.9138    1.3212 H   0  0  0  0  0  0  0  0  0  0  0  0
    3.0257    3.7458    0.8909 H   0  0  0  0  0  0  0  0  0  0  0  0
    3.0226    1.4367    0.0364 H   0  0  0  0  0  0  0  0  0  0  0  0
  1  2  1  0
  1  5  1  0
  1  6  1  0
  1  7  1  0
  2  3  1  0
  2  8  1  0
  2 21  1  0
  3  4  2  0
  3  9  1  0
 10 11  1  0
 10 18  1  0
 10 19  1  0
 10 20  1  0
 11 12  2  3
 11 22  1  0
 12 13  1  0
 12 17  1  0
 13 14  1  0
 13 23  1  0
 14 15  2  0
 14 24  1  0
 15 16  1  0
 15 25  1  0
 16 17  2  0
 16 26  1  0
 17 27  1  0
M  RAD  1  13   2
M  END
>  <reaction>  (10) 
rxn_1503

>  <mol_properties>  (10) 
{"1": {"label": "*1", "atom_type": "Cs"}, "2": {"label": "*0", "atom_type": "CS"}, "10": {"label": "*3", "atom_type": "Cd"}, "11": {"label": "*4", "atom_type": "Cd"}, "20": {"label": "*2", "atom_type": "H0"}}

>  <type>  (10) 
unop_6

>  <geom_source>  (10) 
Heuristics

$$$$

     RDKit          3D

 27 27  0  0  0  0  0  0  0  0999 V2000
   -1.2497   -3.7120    0.0484 C   0  0  0  0  0  0  0  0  0  0  0  0
   -1.5609   -2.2240   -0.1340 C   0  0  0  0  0  0  0  0  0  0  0  0
   -1.1318   -1.4265    1.0517 C   0  0  0  0  0  3  0  0  0  0  0  0
   -0.0633   -0.2267    1.0626 S   0  0  0  0  0  0  0  0  0  0  0  0
   -0.1742   -3.8737    0.1315 H   0  0  0  0  0  0  0  0  0  0  0  0
   -1.7233   -4.1094    0.9481 H   0  0  0  0  0  0  0  0  0  0  0  0
   -1.6157   -4.2828   -0.8052 H   0  0  0  0  0  0  0  0  0  0  0  0
   -2.6443   -2.0984   -0.2441 H   0  0  0  0  0  0  0  0  0  0  0  0
   -1.6018   -1.7290    1.9908 H   0  0  0  0  0  0  0  0  0  0  0  0
    0.5404   -0.9256   -2.5335 C   0  0  0  0  0  0  0  0  0  0  0  0
    0.5404   -0.9256   -1.0044 C   0  0  0  0  0  3  0  0  0  0  0  0
    0.5404    0.4687   -0.4350 C   0  0  0  0  0  0  0  0  0  0  0  0
   -0.6541    1.1376   -0.1873 C   0  0  0  0  0  0  0  0  0  0  0  0
   -0.6574    2.4378    0.2937 C   0  0  0  0  0  0  0  0  0  0  0  0
    0.5404    3.0932    0.5355 C   0  0  0  0  0  0  0  0  0  0  0  0
    1.7383    2.4378    0.2937 C   0  0  0  0  0  0  0  0  0  0  0  0
    1.7350    1.1376   -0.1873 C   0  0  0  0  0  3  0  0  0  0  0  0
    1.4217   -0.4106   -2.9204 H   0  0  0  0  0  0  0  0  0  0  0  0
   -0.3408   -0.4106   -2.9204 H   0  0  0  0  0  0  0  0  0  0  0  0
    0.5404   -1.9440   -2.9258 H   0  0  0  0  0  0  0  0  0  0  0  0
   -0.5115   -1.5756   -0.5687 H   0  0  0  0  0  0  0  0  0  0  0  0
    1.4171   -1.4673   -0.6413 H   0  0  0  0  0  0  0  0  0  0  0  0
   -1.5950    0.6304   -0.3710 H   0  0  0  0  0  0  0  0  0  0  0  0
   -1.5981    2.9395    0.4836 H   0  0  0  0  0  0  0  0  0  0  0  0
    0.5404    4.1075    0.9138 H   0  0  0  0  0  0  0  0  0  0  0  0
    2.6790    2.9395    0.4836 H   0  0  0  0  0  0  0  0  0  0  0  0
    2.6759    0.6304   -0.3710 H   0  0  0  0  0  0  0  0  0  0  0  0
  1  2  1  0
  1  5  1  0
  1  6  1  0
  1  7  1  0
  2  3  1  0
  2  8  1  0
  2 21  1  0
  3  4  1  0
  3  9  1  0
  4 12  1  0
 10 11  1  0
 10 18  1  0
 10 19  1  0
 10 20  1  0
 11 12  1  0
 11 22  1  0
 12 13  1  0
 12 17  1  0
 13 14  2  0
 13 23  1  0
 14 15  1  0
 14 24  1  0
 15 16  2  0
 15 25  1  0
 16 17  1  0
 16 26  1  0
 17 27  1  0
M  CHG  2  11   1  17  -1
M  RAD  1   3   2
M  END
>  <reaction>  (11) 
rxn_1503

>  <mol_properties>  (11) 
{"1": {"label": "*1", "atom_type": "Cs"}, "2": {"label": "*0", "atom_type": "CS"}, "10": {"label": "*3", "atom_type": "Cd"}, "11": {"label": "*4", "atom_type": "Cd"}, "20": {"label": "*2", "atom_type": "H0"}}

>  <type>  (11) 
unop_7

>  <geom_source>  (11) 
Heuristics

$$$$

     RDKit          3D

 27 26  0  0  0  0  0  0  0  0999 V2000
   -1.6295   -3.4562   -0.6565 C   0  0  0  0  0  0  0  0  0  0  0  0
   -1.6380   -2.0063   -0.1647 C   0  0  0  0  0  0  0  0  0  0  0  0
   -0.9561   -1.8728    1.1555 C   0  0  0  0  0  0  0  0  0  0  0  0
    0.3360   -0.9745    1.4792 S   0  0  0  0  0  0  0  0  0  0  0  0
   -0.6082   -3.8011   -0.8226 H   0  0  0  0  0  0  0  0  0  0  0  0
   -2.0998   -4.1239    0.0679 H   0  0  0  0  0  0  0  0  0  0  0  0
   -2.1754   -3.5405   -1.5963 H   0  0  0  0  0  0  0  0  0  0  0  0
   -2.6768   -1.6806   -0.0362 H   0  0  0  0  0  0  0  0  0  0  0  0
   -1.3999   -2.4736    1.9534 H   0  0  0  0  0  0  0  0  0  0  0  0
    0.4633   -0.7078   -2.5643 C   0  0  0  0  0  0  0  0  0  0  0  0
    0.4633   -0.7078   -1.0352 C   0  0  0  0  0  0  0  0  0  0  0  0
    0.4633    0.6864   -0.4658 C   0  0  0  0  0  0  0  0  0  0  0  0
   -0.7312    1.3554   -0.2180 C   0  0  0  0  0  3  0  0  0  0  0  0
   -0.7345    2.6556    0.2629 C   0  0  0  0  0  0  0  0  0  0  0  0
    0.4633    3.3109    0.5047 C   0  0  0  0  0  0  0  0  0  0  0  0
    1.6611    2.6556    0.2629 C   0  0  0  0  0  0  0  0  0  0  0  0
    1.6579    1.3554   -0.2180 C   0  0  0  0  0  0  0  0  0  0  0  0
    1.3446   -0.1928   -2.9511 H   0  0  0  0  0  0  0  0  0  0  0  0
   -0.4180   -0.1928   -2.9511 H   0  0  0  0  0  0  0  0  0  0  0  0
    0.4633   -1.7263   -2.9566 H   0  0  0  0  0  0  0  0  0  0  0  0
   -0.5886   -1.3579   -0.5994 H   0  0  0  0  0  0  0  0  0  0  0  0
    1.3400   -1.2495   -0.6721 H   0  0  0  0  0  0  0  0  0  0  0  0
   -1.6721    0.8482   -0.4018 H   0  0  0  0  0  0  0  0  0  0  0  0
   -1.6753    3.1573    0.4528 H   0  0  0  0  0  0  0  0  0  0  0  0
    0.4633    4.3253    0.8831 H   0  0  0  0  0  0  0  0  0  0  0  0
    2.6019    3.1573    0.4528 H   0  0  0  0  0  0  0  0  0  0  0  0
    2.5987    0.8482   -0.4018 H   0  0  0  0  0  0  0  0  0  0  0  0
  1  2  1  0
  1  5  1  0
  1  6  1  0
  1  7  1  0
  2  3  1  0
  2  8  1  0
  2 21  1  0
  3  4  2  0
  3  9  1  0
 10 11  1  0
 10 18  1  0
 10 19  1  0
 10 20  1  0
 11 12  2  3
 11 22  1  0
 12 13  1  0
 12 17  1  0
 13 14  1  0
 13 23  1  0
 14 15  2  0
 14 24  1  0
 15 16  1  0
 15 25  1  0
 16 17  2  0
 16 26  1  0
 17 27  1  0
M  RAD  1  13   2
M  END
>  <reaction>  (12) 
rxn_1503

>  <mol_properties>  (12) 
{"1": {"label": "*1", "atom_type": "Cs"}, "2": {"label": "*0", "atom_type": "CS"}, "10": {"label": "*3", "atom_type": "Cd"}, "11": {"label": "*4", "atom_type": "Cd"}, "20": {"label": "*2", "atom_type": "H0"}}

>  <type>  (12) 
unop_8

>  <geom_source>  (12) 
Heuristics

$$$$

     RDKit          3D

 27 26  0  0  0  0  0  0  0  0999 V2000
   -2.2613   -0.5397    0.5761 C   0  0  0  0  0  0  0  0  0  0  0  0
   -1.0698   -1.4837    0.3938 C   0  0  0  0  0  0  0  0  0  0  0  0
   -1.5058   -2.9092    0.3338 C   0  0  0  0  0  0  0  0  0  0  0  0
   -1.2824   -3.9280   -0.8882 S   0  0  0  0  0  0  0  0  0  0  0  0
   -2.9354   -0.5999   -0.2793 H   0  0  0  0  0  0  0  0  0  0  0  0
   -2.8300   -0.7870    1.4746 H   0  0  0  0  0  0  0  0  0  0  0  0
   -1.9176    0.4906    0.6679 H   0  0  0  0  0  0  0  0  0  0  0  0
   -0.3978   -1.3781    1.2535 H   0  0  0  0  0  0  0  0  0  0  0  0
   -2.0412   -3.2533    1.2223 H   0  0  0  0  0  0  0  0  0  0  0  0
    1.0315   -0.1853   -2.0058 C   0  0  0  0  0  0  0  0  0  0  0  0
    1.0315   -0.1853   -0.4767 C   0  0  0  0  0  0  0  0  0  0  0  0
    1.0315    1.2090    0.0927 C   0  0  0  0  0  0  0  0  0  0  0  0
   -0.1630    1.8779    0.3405 C   0  0  0  0  0  3  0  0  0  0  0  0
   -0.1663    3.1781    0.8214 C   0  0  0  0  0  0  0  0  0  0  0  0
    1.0315    3.8335    1.0632 C   0  0  0  0  0  0  0  0  0  0  0  0
    2.2293    3.1781    0.8214 C   0  0  0  0  0  0  0  0  0  0  0  0
    2.2261    1.8779    0.3405 C   0  0  0  0  0  0  0  0  0  0  0  0
    1.9128    0.3298   -2.3926 H   0  0  0  0  0  0  0  0  0  0  0  0
    0.1503    0.3298   -2.3926 H   0  0  0  0  0  0  0  0  0  0  0  0
    1.0315   -1.2037   -2.3981 H   0  0  0  0  0  0  0  0  0  0  0  0
   -0.0204   -0.8353   -0.0409 H   0  0  0  0  0  0  0  0  0  0  0  0
    1.9082   -0.7270   -0.1135 H   0  0  0  0  0  0  0  0  0  0  0  0
   -1.1039    1.3708    0.1567 H   0  0  0  0  0  0  0  0  0  0  0  0
   -1.1071    3.6798    1.0113 H   0  0  0  0  0  0  0  0  0  0  0  0
    1.0315    4.8478    1.4416 H   0  0  0  0  0  0  0  0  0  0  0  0
    3.1701    3.6798    1.0113 H   0  0  0  0  0  0  0  0  0  0  0  0
    3.1670    1.3708    0.1567 H   0  0  0  0  0  0  0  0  0  0  0  0
  1  2  1  0
  1  5  1  0
  1  6  1  0
  1  7  1  0
  2  3  1  0
  2  8  1  0
  2 21  1  0
  3  4  2  0
  3  9  1  0
 10 11  1  0
 10 18  1  0
 10 19  1  0
 10 20  1  0
 11 12  2  3
 11 22  1  0
 12 13  1  0
 12 17  1  0
 13 14  1  0
 13 23  1  0
 14 15  2  0
 14 24  1  0
 15 16  1  0
 15 25  1  0
 16 17  2  0
 16 26  1  0
 17 27  1  0
M  RAD  1  13   2
M  END
>  <reaction>  (13) 
rxn_1503

>  <mol_properties>  (13) 
{"1": {"label": "*1", "atom_type": "Cs"}, "2": {"label": "*0", "atom_type": "CS"}, "10": {"label": "*3", "atom_type": "Cd"}, "11": {"label": "*4", "atom_type": "Cd"}, "20": {"label": "*2", "atom_type": "H0"}}

>  <type>  (13) 
unop_9

>  <geom_source>  (13) 
Heuristics

$$$$

     RDKit          3D

 27 26  0  0  0  0  0  0  0  0999 V2000
   -2.3834   -2.0641   -1.1697 C   0  0  0  0  0  0  0  0  0  0  0  0
   -1.5390   -1.5423   -0.0039 C   0  0  0  0  0  0  0  0  0  0  0  0
   -1.1090   -2.6500    0.8983 C   0  0  0  0  0  0  0  0  0  0  0  0
    0.4024   -3.0755    1.2385 S   0  0  0  0  0  0  0  0  0  0  0  0
   -1.7992   -2.7379   -1.7977 H   0  0  0  0  0  0  0  0  0  0  0  0
   -3.2604   -2.6074   -0.8129 H   0  0  0  0  0  0  0  0  0  0  0  0
   -2.7289   -1.2352   -1.7877 H   0  0  0  0  0  0  0  0  0  0  0  0
   -2.1438   -0.8467    0.5895 H   0  0  0  0  0  0  0  0  0  0  0  0
   -1.9333   -3.2151    1.3406 H   0  0  0  0  0  0  0  0  0  0  0  0
    0.5623   -0.2439   -2.4035 C   0  0  0  0  0  0  0  0  0  0  0  0
    0.5623   -0.2439   -0.8744 C   0  0  0  0  0  0  0  0  0  0  0  0
    0.5623    1.1504   -0.3049 C   0  0  0  0  0  0  0  0  0  0  0  0
   -0.6323    1.8193   -0.0572 C   0  0  0  0  0  3  0  0  0  0  0  0
   -0.6355    3.1195    0.4237 C   0  0  0  0  0  0  0  0  0  0  0  0
    0.5623    3.7749    0.6655 C   0  0  0  0  0  0  0  0  0  0  0  0
    1.7601    3.1195    0.4237 C   0  0  0  0  0  0  0  0  0  0  0  0
    1.7568    1.8193   -0.0572 C   0  0  0  0  0  0  0  0  0  0  0  0
    1.4436    0.2711   -2.7903 H   0  0  0  0  0  0  0  0  0  0  0  0
   -0.3190    0.2711   -2.7903 H   0  0  0  0  0  0  0  0  0  0  0  0
    0.5623   -1.2623   -2.7958 H   0  0  0  0  0  0  0  0  0  0  0  0
   -0.4897   -0.8939   -0.4386 H   0  0  0  0  0  0  0  0  0  0  0  0
    1.4389   -0.7856   -0.5112 H   0  0  0  0  0  0  0  0  0  0  0  0
   -1.5731    1.3121   -0.2409 H   0  0  0  0  0  0  0  0  0  0  0  0
   -1.5763    3.6212    0.6136 H   0  0  0  0  0  0  0  0  0  0  0  0
    0.5623    4.7892    1.0439 H   0  0  0  0  0  0  0  0  0  0  0  0
    2.7009    3.6212    0.6136 H   0  0  0  0  0  0  0  0  0  0  0  0
    2.6977    1.3121   -0.2409 H   0  0  0  0  0  0  0  0  0  0  0  0
  1  2  1  0
  1  5  1  0
  1  6  1  0
  1  7  1  0
  2  3  1  0
  2  8  1  0
  2 21  1  0
  3  4  2  0
  3  9  1  0
 10 11  1  0
 10 18  1  0
 10 19  1  0
 10 20  1  0
 11 12  2  3
 11 22  1  0
 12 13  1  0
 12 17  1  0
 13 14  1  0
 13 23  1  0
 14 15  2  0
 14 24  1  0
 15 16  1  0
 15 25  1  0
 16 17  2  0
 16 26  1  0
 17 27  1  0
M  RAD  1  13   2
M  END
>  <reaction>  (14) 
rxn_1503

>  <mol_properties>  (14) 
{"1": {"label": "*1", "atom_type": "Cs"}, "2": {"label": "*0", "atom_type": "CS"}, "10": {"label": "*3", "atom_type": "Cd"}, "11": {"label": "*4", "atom_type": "Cd"}, "20": {"label": "*2", "atom_type": "H0"}}

>  <type>  (14) 
unop_10

>  <geom_source>  (14) 
Heuristics

$$$$

     RDKit          3D

 27 26  0  0  0  0  0  0  0  0999 V2000
   -4.3486    0.2484    1.8278 S   0  0  0  0  0  0  0  0  0  0  0  0
   -2.4847    0.1351    0.0700 C   0  0  0  0  0  0  0  0  0  0  0  0
   -2.5803    1.5141   -0.5765 C   0  0  0  0  0  0  0  0  0  0  0  0
    0.0919   -2.1571   -1.3939 C   0  0  0  0  0  0  0  0  0  0  0  0
    1.0742   -0.3256   -0.0116 C   0  0  0  0  0  0  0  0  0  0  0  0
   -0.1794   -1.0675   -0.3647 C   0  0  0  0  0  0  0  0  0  0  0  0
    1.9849   -0.8571    0.9157 C   0  0  0  0  0  3  0  0  0  0  0  0
    1.3562    0.8970   -0.6371 C   0  0  0  0  0  0  0  0  0  0  0  0
    3.1603   -0.1635    1.2210 C   0  0  0  0  0  0  0  0  0  0  0  0
    3.4337    1.0588    0.5996 C   0  0  0  0  0  0  0  0  0  0  0  0
    2.5327    1.5881   -0.3294 C   0  0  0  0  0  0  0  0  0  0  0  0
   -2.9518    0.1585    1.4991 C   0  0  0  0  0  0  0  0  0  0  0  0
   -3.0734   -0.6018   -0.5197 H   0  0  0  0  0  0  0  0  0  0  0  0
   -1.1913   -0.2552    0.0472 H   0  0  0  0  0  0  0  0  0  0  0  0
   -2.1750    1.4654   -1.6087 H   0  0  0  0  0  0  0  0  0  0  0  0
   -3.6382    1.8491   -0.6260 H   0  0  0  0  0  0  0  0  0  0  0  0
   -1.9862    2.2514    0.0043 H   0  0  0  0  0  0  0  0  0  0  0  0
    0.7916   -2.9145   -0.9805 H   0  0  0  0  0  0  0  0  0  0  0  0
    0.5280   -1.7132   -2.3138 H   0  0  0  0  0  0  0  0  0  0  0  0
   -0.8628   -2.6569   -1.6588 H   0  0  0  0  0  0  0  0  0  0  0  0
   -0.6506   -1.5002    0.5443 H   0  0  0  0  0  0  0  0  0  0  0  0
    1.7843   -1.8055    1.3988 H   0  0  0  0  0  0  0  0  0  0  0  0
    3.8599   -0.5740    1.9376 H   0  0  0  0  0  0  0  0  0  0  0  0
    0.6665    1.3129   -1.3612 H   0  0  0  0  0  0  0  0  0  0  0  0
    4.3440    1.5944    0.8362 H   0  0  0  0  0  0  0  0  0  0  0  0
    2.7468    2.5329   -0.8122 H   0  0  0  0  0  0  0  0  0  0  0  0
   -2.2326   -0.0142    2.2926 H   0  0  0  0  0  0  0  0  0  0  0  0
  1 12  2  0
  2  3  1  0
  2 12  1  0
  2 13  1  0
  2 14  1  0
  3 15  1  0
  3 16  1  0
  3 17  1  0
  4  6  1  0
  4 18  1  0
  4 19  1  0
  4 20  1  0
  5  6  2  3
  5  7  1  0
  5  8  1  0
  6 21  1  0
  7  9  1  0
  7 22  1  0
  8 11  2  0
  8 24  1  0
  9 10  2  0
  9 23  1  0
 10 11  1  0
 10 25  1  0
 11 26  1  0
 12 27  1  0
M  RAD  1   7   2
M  END
>  <reaction>  (15) 
rxn_1503

>  <mol_properties>  (15) 
{"1": {"label": "*1", "atom_type": "Cs"}, "2": {"label": "*0", "atom_type": "CS"}, "10": {"label": "*3", "atom_type": "Cd"}, "11": {"label": "*4", "atom_type": "Cd"}, "20": {"label": "*2", "atom_type": "H0"}}

>  <type>  (15) 
unop_11

>  <geom_source>  (15) 
AutoTST

$$$$
