
     RDKit          3D

 22 23  0  0  0  0  0  0  0  0999 V2000
   -2.1093   -0.3263    0.3079 C   0  0  0  0  0  0  0  0  0  0  0  0
   -1.3270    0.9803    0.4115 C   0  0  0  0  0  0  0  0  0  0  0  0
   -0.1818    0.8289   -0.6044 C   0  0  0  0  0  0  0  0  0  0  0  0
    1.1682    1.3904   -0.1341 C   0  0  0  0  0  0  0  0  0  0  0  0
    1.8508    0.2041    0.5479 C   0  0  0  0  0  0  0  0  0  0  0  0
    1.4982   -0.9663   -0.3710 C   0  0  0  0  0  0  0  0  0  0  0  0
    0.0340   -0.7124   -0.7594 C   0  0  0  0  0  0  0  0  0  0  0  0
   -0.9986   -1.3650    0.1756 C   0  0  0  0  0  0  0  0  0  0  0  0
   -2.7686   -0.5042    1.1589 H   0  0  0  0  0  0  0  0  0  0  0  0
   -2.7285   -0.3223   -0.5943 H   0  0  0  0  0  0  0  0  0  0  0  0
   -1.9339    1.8682    0.2289 H   0  0  0  0  0  0  0  0  0  0  0  0
   -0.9144    1.0729    1.4218 H   0  0  0  0  0  0  0  0  0  0  0  0
   -0.4804    1.2763   -1.5535 H   0  0  0  0  0  0  0  0  0  0  0  0
    1.7667    1.7058   -0.9931 H   0  0  0  0  0  0  0  0  0  0  0  0
    1.0540    2.2578    0.5189 H   0  0  0  0  0  0  0  0  0  0  0  0
    1.4197    0.0438    1.5410 H   0  0  0  0  0  0  0  0  0  0  0  0
    2.9248    0.3413    0.6788 H   0  0  0  0  0  0  0  0  0  0  0  0
    2.1362   -0.9329   -1.2584 H   0  0  0  0  0  0  0  0  0  0  0  0
    1.6421   -1.9421    0.0966 H   0  0  0  0  0  0  0  0  0  0  0  0
   -0.1575   -1.0299   -1.7854 H   0  0  0  0  0  0  0  0  0  0  0  0
   -1.3459   -2.3310   -0.1933 H   0  0  0  0  0  0  0  0  0  0  0  0
   -0.5489   -1.5373    1.1593 H   0  0  0  0  0  0  0  0  0  0  0  0
  1  2  1  0
  1  8  1  0
  1  9  1  0
  1 10  1  0
  2  3  1  0
  2 11  1  0
  2 12  1  0
  3  4  1  0
  3  7  1  0
  3 13  1  0
  4  5  1  0
  4 14  1  0
  4 15  1  0
  5  6  1  0
  5 16  1  0
  5 17  1  0
  6  7  1  0
  6 18  1  0
  6 19  1  0
  7  8  1  0
  7 20  1  0
  8 21  1  0
  8 22  1  0
M  END
>  <reaction>  (1) 
rxn_566

>  <mol_properties>  (1) 
{"2": {"label": "donator", "atom_type": "Cs"}, "12": {"label": "d_hydrogen", "atom_type": "H0"}}

>  <type>  (1) 
r1h

$$$$

     RDKit          3D

 12 11  0  0  0  0  0  0  0  0999 V2000
    2.5164   -0.5559   -0.0242 C   0  0  0  0  0  0  0  0  0  0  0  0
    1.3287   -0.2938   -0.0132 C   0  0  0  0  0  0  0  0  0  0  0  0
   -0.0146    0.0027   -0.0006 C   0  0  0  0  0  3  0  0  0  0  0  0
   -1.0396   -1.0729   -0.1642 C   0  0  0  0  0  0  0  0  0  0  0  0
   -0.4887    1.4091    0.1769 C   0  0  0  0  0  0  0  0  0  0  0  0
    3.5543   -0.7850   -0.0339 H   0  0  0  0  0  0  0  0  0  0  0  0
   -1.7064   -1.1056    0.7044 H   0  0  0  0  0  0  0  0  0  0  0  0
   -0.5831   -2.0533   -0.2854 H   0  0  0  0  0  0  0  0  0  0  0  0
   -1.6716   -0.8741   -1.0367 H   0  0  0  0  0  0  0  0  0  0  0  0
   -1.0951    1.7228   -0.6798 H   0  0  0  0  0  0  0  0  0  0  0  0
    0.3401    2.1059    0.2861 H   0  0  0  0  0  0  0  0  0  0  0  0
   -1.1300    1.4913    1.0613 H   0  0  0  0  0  0  0  0  0  0  0  0
  1  2  3  0
  1  6  1  0
  2  3  1  0
  3  4  1  0
  3  5  1  0
  4  7  1  0
  4  8  1  0
  4  9  1  0
  5 10  1  0
  5 11  1  0
  5 12  1  0
M  RAD  1   3   2
M  END
>  <reaction>  (2) 
rxn_566

>  <mol_properties>  (2) 
{"2": {"label": "acceptor", "atom_type": "Cs"}}

>  <type>  (2) 
r2

$$$$

     RDKit          3D

 13 12  0  0  0  0  0  0  0  0999 V2000
    2.2975   -0.6134    0.7685 C   0  0  0  0  0  0  0  0  0  0  0  0
    1.1676   -0.5248    0.3802 C   0  0  0  0  0  0  0  0  0  0  0  0
   -0.2109   -0.3926   -0.0948 C   0  0  0  0  0  0  0  0  0  0  0  0
   -0.2501    0.2584   -1.4808 C   0  0  0  0  0  0  0  0  0  0  0  0
   -1.0633    0.3831    0.9141 C   0  0  0  0  0  0  0  0  0  0  0  0
    3.2999   -0.6974    1.1133 H   0  0  0  0  0  0  0  0  0  0  0  0
   -0.6209   -1.4038   -0.1814 H   0  0  0  0  0  0  0  0  0  0  0  0
    0.3402   -0.3102   -2.1992 H   0  0  0  0  0  0  0  0  0  0  0  0
    0.1511    1.2724   -1.4369 H   0  0  0  0  0  0  0  0  0  0  0  0
   -1.2791    0.3109   -1.8407 H   0  0  0  0  0  0  0  0  0  0  0  0
   -0.6861    1.4008    1.0287 H   0  0  0  0  0  0  0  0  0  0  0  0
   -1.0492   -0.0971    1.8924 H   0  0  0  0  0  0  0  0  0  0  0  0
   -2.0971    0.4363    0.5680 H   0  0  0  0  0  0  0  0  0  0  0  0
  1  2  3  0
  1  6  1  0
  2  3  1  0
  3  4  1  0
  3  5  1  0
  3  7  1  0
  4  8  1  0
  4  9  1  0
  4 10  1  0
  5 11  1  0
  5 12  1  0
  5 13  1  0
M  END
>  <reaction>  (3) 
rxn_566

>  <mol_properties>  (3) 
{"2": {"label": "acceptor", "atom_type": "Cs"}, "12": {"label": "a_hydrogen", "atom_type": "H0"}}

>  <type>  (3) 
r2h

$$$$

     RDKit          3D

 34 34  0  0  0  0  0  0  0  0999 V2000
   -2.8560    1.3669    1.1376 C   0  0  0  0  0  0  0  0  0  0  0  0
   -2.3894    0.3196    0.7736 C   0  0  0  0  0  0  0  0  0  0  0  0
   -1.7692   -0.8975    0.3354 C   0  0  0  0  0  0  0  0  0  0  0  0
   -2.2011   -1.3606   -1.0438 C   0  0  0  0  0  0  0  0  0  0  0  0
   -1.7285   -1.9951    1.3822 C   0  0  0  0  0  0  0  0  0  0  0  0
   -3.2847    2.2845    1.4605 H   0  0  0  0  0  0  0  0  0  0  0  0
   -1.5643   -2.1818   -1.3799 H   0  0  0  0  0  0  0  0  0  0  0  0
   -2.1289   -0.5505   -1.7701 H   0  0  0  0  0  0  0  0  0  0  0  0
   -3.2355   -1.7162   -1.0352 H   0  0  0  0  0  0  0  0  0  0  0  0
   -2.7275   -2.3996    1.5692 H   0  0  0  0  0  0  0  0  0  0  0  0
   -1.3330   -1.6217    2.3271 H   0  0  0  0  0  0  0  0  0  0  0  0
   -1.0907   -2.8138    1.0420 H   0  0  0  0  0  0  0  0  0  0  0  0
    1.4552   -0.7681   -2.2264 C   0  0  0  0  0  0  0  0  0  0  0  0
    1.4860   -1.2639   -0.7772 C   0  0  0  0  0  0  0  0  0  0  0  0
    0.7833   -0.1715    0.0055 C   0  0  0  0  0  3  0  0  0  0  0  0
    1.2808    0.2353    1.3762 C   0  0  0  0  0  0  0  0  0  0  0  0
    2.0458    1.5380    1.1027 C   0  0  0  0  0  0  0  0  0  0  0  0
    1.1929    2.2299    0.0349 C   0  0  0  0  0  0  0  0  0  0  0  0
    0.7119    1.0856   -0.8699 C   0  0  0  0  0  0  0  0  0  0  0  0
    1.5998    0.7465   -2.0769 C   0  0  0  0  0  0  0  0  0  0  0  0
    2.2285   -1.2181   -2.8500 H   0  0  0  0  0  0  0  0  0  0  0  0
    0.4873   -1.0034   -2.6783 H   0  0  0  0  0  0  0  0  0  0  0  0
    1.0280   -2.2482   -0.6492 H   0  0  0  0  0  0  0  0  0  0  0  0
    2.5242   -1.3548   -0.4335 H   0  0  0  0  0  0  0  0  0  0  0  0
   -0.5296   -0.5675    0.1783 H   0  0  0  0  0  0  0  0  0  0  0  0
    0.4354    0.4459    2.0410 H   0  0  0  0  0  0  0  0  0  0  0  0
    1.8894   -0.5358    1.8517 H   0  0  0  0  0  0  0  0  0  0  0  0
    3.0355    1.3040    0.6988 H   0  0  0  0  0  0  0  0  0  0  0  0
    2.1925    2.1467    1.9957 H   0  0  0  0  0  0  0  0  0  0  0  0
    0.3329    2.7076    0.5103 H   0  0  0  0  0  0  0  0  0  0  0  0
    1.7367    2.9995   -0.5158 H   0  0  0  0  0  0  0  0  0  0  0  0
   -0.3100    1.2708   -1.2152 H   0  0  0  0  0  0  0  0  0  0  0  0
    1.3231    1.2999   -2.9753 H   0  0  0  0  0  0  0  0  0  0  0  0
    2.6421    0.9926   -1.8470 H   0  0  0  0  0  0  0  0  0  0  0  0
  1  2  3  0
  1  6  1  0
  2  3  1  0
  3  4  1  0
  3  5  1  0
  3 25  1  0
  4  7  1  0
  4  8  1  0
  4  9  1  0
  5 10  1  0
  5 11  1  0
  5 12  1  0
 13 20  1  0
 13 14  1  0
 13 21  1  0
 13 22  1  0
 14 15  1  0
 14 23  1  0
 14 24  1  0
 15 16  1  0
 15 19  1  0
 16 17  1  0
 16 26  1  0
 16 27  1  0
 17 18  1  0
 17 28  1  0
 17 29  1  0
 18 19  1  0
 18 30  1  0
 18 31  1  0
 19 20  1  0
 19 32  1  0
 20 33  1  0
 20 34  1  0
M  RAD  1  15   2
M  END
>  <reaction>  (4) 
rxn_566

>  <mol_properties>  (4) 
{"1": {"label": "*0", "atom_type": "Ct"}, "2": {"label": "*1", "atom_type": "Cs"}, "14": {"label": "*3", "atom_type": "Cs"}, "18": {"label": "*4", "atom_type": "Cs"}, "24": {"label": "*2", "atom_type": "H0"}}

>  <type>  (4) 
ts

$$$$

     RDKit          3D

 34 34  0  0  0  0  0  0  0  0999 V2000
   -2.4099   -0.4559    2.9607 C   0  0  0  0  0  0  0  0  0  0  0  0
   -2.0901   -0.7063    1.8335 C   0  0  0  0  0  0  0  0  0  0  0  0
   -1.7219   -1.0082    0.4492 C   0  0  0  0  0  3  0  0  0  0  0  0
   -1.9365    0.2125   -0.4508 C   0  0  0  0  0  0  0  0  0  0  0  0
   -2.4916   -2.2280   -0.0663 C   0  0  0  0  0  0  0  0  0  0  0  0
   -2.6937   -0.2337    3.9611 H   0  0  0  0  0  0  0  0  0  0  0  0
   -1.6174   -0.0130   -1.4699 H   0  0  0  0  0  0  0  0  0  0  0  0
   -1.3690    1.0708   -0.0915 H   0  0  0  0  0  0  0  0  0  0  0  0
   -2.9924    0.4878   -0.4740 H   0  0  0  0  0  0  0  0  0  0  0  0
   -3.5638   -2.0248   -0.0781 H   0  0  0  0  0  0  0  0  0  0  0  0
   -2.3173   -3.0989    0.5655 H   0  0  0  0  0  0  0  0  0  0  0  0
   -2.1757   -2.4677   -1.0831 H   0  0  0  0  0  0  0  0  0  0  0  0
    1.6356   -1.1486   -1.8637 C   0  0  0  0  0  0  0  0  0  0  0  0
    1.6356   -1.1486   -0.3372 C   0  0  0  0  0  0  0  0  0  0  0  0
    0.6723   -0.0138    0.0511 C   0  0  0  0  0  0  0  0  0  0  0  0
    1.1250    0.8247    1.2556 C   0  0  0  0  0  0  0  0  0  0  0  0
    1.9370    1.9629    0.6362 C   0  0  0  0  0  0  0  0  0  0  0  0
    1.1250    2.3225   -0.6087 C   0  0  0  0  0  0  0  0  0  0  0  0
    0.6723    0.9657   -1.1681 C   0  0  0  0  0  0  0  0  0  0  0  0
    1.6356    0.3420   -2.1925 C   0  0  0  0  0  0  0  0  0  0  0  0
    2.4805   -1.6868   -2.2960 H   0  0  0  0  0  0  0  0  0  0  0  0
    0.7198   -1.6154   -2.2387 H   0  0  0  0  0  0  0  0  0  0  0  0
    1.3513   -2.1069    0.0994 H   0  0  0  0  0  0  0  0  0  0  0  0
    2.6438   -0.9160    0.0221 H   0  0  0  0  0  0  0  0  0  0  0  0
   -0.5228   -0.5102    0.2498 H   0  0  0  0  0  0  0  0  0  0  0  0
    0.2572    1.2415    1.7740 H   0  0  0  0  0  0  0  0  0  0  0  0
    1.6881    0.2380    1.9839 H   0  0  0  0  0  0  0  0  0  0  0  0
    2.9281    1.6011    0.3455 H   0  0  0  0  0  0  0  0  0  0  0  0
    2.0849    2.8053    1.3130 H   0  0  0  0  0  0  0  0  0  0  0  0
    0.2572    2.9186   -0.3134 H   0  0  0  0  0  0  0  0  0  0  0  0
    1.6881    2.9073   -1.3385 H   0  0  0  0  0  0  0  0  0  0  0  0
   -0.3236    1.0383   -1.6077 H   0  0  0  0  0  0  0  0  0  0  0  0
    1.3513    0.5619   -3.2224 H   0  0  0  0  0  0  0  0  0  0  0  0
    2.6438    0.7430   -2.0428 H   0  0  0  0  0  0  0  0  0  0  0  0
  1  2  3  0
  1  6  1  0
  2  3  1  0
  3  4  1  0
  3  5  1  0
  4  7  1  0
  4  8  1  0
  4  9  1  0
  5 10  1  0
  5 11  1  0
  5 12  1  0
 13 14  1  0
 13 20  1  0
 13 21  1  0
 13 22  1  0
 14 15  1  0
 14 23  1  0
 14 24  1  0
 15 16  1  0
 15 19  1  0
 15 25  1  0
 16 17  1  0
 16 26  1  0
 16 27  1  0
 17 18  1  0
 17 28  1  0
 17 29  1  0
 18 19  1  0
 18 30  1  0
 18 31  1  0
 19 20  1  0
 19 32  1  0
 20 33  1  0
 20 34  1  0
M  RAD  1   3   2
M  END
>  <reaction>  (5) 
rxn_566

>  <mol_properties>  (5) 
{"1": {"label": "*0", "atom_type": "Ct"}, "2": {"label": "*1", "atom_type": "Cs"}, "14": {"label": "*3", "atom_type": "Cs"}, "18": {"label": "*4", "atom_type": "Cs"}, "24": {"label": "*2", "atom_type": "H0"}}

>  <type>  (5) 
unop_1

>  <geom_source>  (5) 
Heuristics

$$$$

     RDKit          3D

 34 34  0  0  0  0  0  0  0  0999 V2000
   -1.4957   -3.2493    1.3787 C   0  0  0  0  0  0  0  0  0  0  0  0
   -1.6218   -2.1271    0.9785 C   0  0  0  0  0  0  0  0  0  0  0  0
   -1.7983   -0.7556    0.4978 C   0  0  0  0  0  3  0  0  0  0  0  0
   -2.0721    0.1998    1.6633 C   0  0  0  0  0  0  0  0  0  0  0  0
   -2.9064   -0.6859   -0.5575 C   0  0  0  0  0  0  0  0  0  0  0  0
   -1.3838   -4.2452    1.7339 H   0  0  0  0  0  0  0  0  0  0  0  0
   -2.1583    1.2239    1.2956 H   0  0  0  0  0  0  0  0  0  0  0  0
   -1.2696    0.1620    2.3998 H   0  0  0  0  0  0  0  0  0  0  0  0
   -3.0055   -0.0660    2.1625 H   0  0  0  0  0  0  0  0  0  0  0  0
   -3.8644   -0.9779   -0.1237 H   0  0  0  0  0  0  0  0  0  0  0  0
   -2.6949   -1.3513   -1.3944 H   0  0  0  0  0  0  0  0  0  0  0  0
   -2.9974    0.3330   -0.9380 H   0  0  0  0  0  0  0  0  0  0  0  0
    1.5592   -0.8960   -1.8151 C   0  0  0  0  0  0  0  0  0  0  0  0
    1.5592   -0.8960   -0.2886 C   0  0  0  0  0  0  0  0  0  0  0  0
    0.5958    0.2388    0.0997 C   0  0  0  0  0  0  0  0  0  0  0  0
    1.0486    1.0774    1.3042 C   0  0  0  0  0  0  0  0  0  0  0  0
    1.8606    2.2155    0.6848 C   0  0  0  0  0  0  0  0  0  0  0  0
    1.0486    2.5752   -0.5601 C   0  0  0  0  0  0  0  0  0  0  0  0
    0.5958    1.2183   -1.1195 C   0  0  0  0  0  0  0  0  0  0  0  0
    1.5592    0.5946   -2.1439 C   0  0  0  0  0  0  0  0  0  0  0  0
    2.4040   -1.4341   -2.2474 H   0  0  0  0  0  0  0  0  0  0  0  0
    0.6433   -1.3628   -2.1901 H   0  0  0  0  0  0  0  0  0  0  0  0
    1.2748   -1.8543    0.1480 H   0  0  0  0  0  0  0  0  0  0  0  0
    2.5673   -0.6634    0.0707 H   0  0  0  0  0  0  0  0  0  0  0  0
   -0.5992   -0.2575    0.2984 H   0  0  0  0  0  0  0  0  0  0  0  0
    0.1807    1.4942    1.8226 H   0  0  0  0  0  0  0  0  0  0  0  0
    1.6116    0.4906    2.0325 H   0  0  0  0  0  0  0  0  0  0  0  0
    2.8517    1.8537    0.3941 H   0  0  0  0  0  0  0  0  0  0  0  0
    2.0085    3.0579    1.3616 H   0  0  0  0  0  0  0  0  0  0  0  0
    0.1807    3.1712   -0.2648 H   0  0  0  0  0  0  0  0  0  0  0  0
    1.6116    3.1599   -1.2899 H   0  0  0  0  0  0  0  0  0  0  0  0
   -0.4001    1.2909   -1.5590 H   0  0  0  0  0  0  0  0  0  0  0  0
    1.2748    0.8145   -3.1738 H   0  0  0  0  0  0  0  0  0  0  0  0
    2.5673    0.9956   -1.9942 H   0  0  0  0  0  0  0  0  0  0  0  0
  1  2  3  0
  1  6  1  0
  2  3  1  0
  3  4  1  0
  3  5  1  0
  4  7  1  0
  4  8  1  0
  4  9  1  0
  5 10  1  0
  5 11  1  0
  5 12  1  0
 13 14  1  0
 13 20  1  0
 13 21  1  0
 13 22  1  0
 14 15  1  0
 14 23  1  0
 14 24  1  0
 15 16  1  0
 15 19  1  0
 15 25  1  0
 16 17  1  0
 16 26  1  0
 16 27  1  0
 17 18  1  0
 17 28  1  0
 17 29  1  0
 18 19  1  0
 18 30  1  0
 18 31  1  0
 19 20  1  0
 19 32  1  0
 20 33  1  0
 20 34  1  0
M  RAD  1   3   2
M  END
>  <reaction>  (6) 
rxn_566

>  <mol_properties>  (6) 
{"1": {"label": "*0", "atom_type": "Ct"}, "2": {"label": "*1", "atom_type": "Cs"}, "14": {"label": "*3", "atom_type": "Cs"}, "18": {"label": "*4", "atom_type": "Cs"}, "24": {"label": "*2", "atom_type": "H0"}}

>  <type>  (6) 
unop_2

>  <geom_source>  (6) 
Heuristics

$$$$

     RDKit          3D

 34 34  0  0  0  0  0  0  0  0999 V2000
   -2.8999    0.4962    2.3239 C   0  0  0  0  0  0  0  0  0  0  0  0
   -2.3448   -0.1890    1.5129 C   0  0  0  0  0  0  0  0  0  0  0  0
   -1.6878   -1.0324    0.5128 C   0  0  0  0  0  3  0  0  0  0  0  0
   -1.9869   -0.5324   -0.9038 C   0  0  0  0  0  0  0  0  0  0  0  0
   -2.0910   -2.4998    0.6870 C   0  0  0  0  0  0  0  0  0  0  0  0
   -3.3926    1.1043    3.0437 H   0  0  0  0  0  0  0  0  0  0  0  0
   -1.4563   -1.1433   -1.6362 H   0  0  0  0  0  0  0  0  0  0  0  0
   -1.6776    0.5053   -1.0281 H   0  0  0  0  0  0  0  0  0  0  0  0
   -3.0563   -0.5965   -1.1125 H   0  0  0  0  0  0  0  0  0  0  0  0
   -3.1634   -2.6219    0.5253 H   0  0  0  0  0  0  0  0  0  0  0  0
   -1.8554   -2.8560    1.6898 H   0  0  0  0  0  0  0  0  0  0  0  0
   -1.5610   -3.1221   -0.0362 H   0  0  0  0  0  0  0  0  0  0  0  0
    1.6697   -1.1728   -1.8000 C   0  0  0  0  0  0  0  0  0  0  0  0
    1.6697   -1.1728   -0.2736 C   0  0  0  0  0  0  0  0  0  0  0  0
    0.7064   -0.0381    0.1148 C   0  0  0  0  0  0  0  0  0  0  0  0
    1.1591    0.8005    1.3192 C   0  0  0  0  0  0  0  0  0  0  0  0
    1.9711    1.9387    0.6998 C   0  0  0  0  0  0  0  0  0  0  0  0
    1.1591    2.2983   -0.5451 C   0  0  0  0  0  0  0  0  0  0  0  0
    0.7064    0.9415   -1.1045 C   0  0  0  0  0  0  0  0  0  0  0  0
    1.6697    0.3177   -2.1289 C   0  0  0  0  0  0  0  0  0  0  0  0
    2.5146   -1.7110   -2.2324 H   0  0  0  0  0  0  0  0  0  0  0  0
    0.7539   -1.6397   -2.1751 H   0  0  0  0  0  0  0  0  0  0  0  0
    1.3854   -2.1312    0.1630 H   0  0  0  0  0  0  0  0  0  0  0  0
    2.6779   -0.9403    0.0857 H   0  0  0  0  0  0  0  0  0  0  0  0
   -0.4887   -0.5344    0.3134 H   0  0  0  0  0  0  0  0  0  0  0  0
    0.2913    1.2173    1.8376 H   0  0  0  0  0  0  0  0  0  0  0  0
    1.7222    0.2138    2.0475 H   0  0  0  0  0  0  0  0  0  0  0  0
    2.9622    1.5768    0.4091 H   0  0  0  0  0  0  0  0  0  0  0  0
    2.1190    2.7810    1.3766 H   0  0  0  0  0  0  0  0  0  0  0  0
    0.2913    2.8943   -0.2497 H   0  0  0  0  0  0  0  0  0  0  0  0
    1.7222    2.8830   -1.2749 H   0  0  0  0  0  0  0  0  0  0  0  0
   -0.2895    1.0140   -1.5440 H   0  0  0  0  0  0  0  0  0  0  0  0
    1.3854    0.5376   -3.1588 H   0  0  0  0  0  0  0  0  0  0  0  0
    2.6779    0.7187   -1.9792 H   0  0  0  0  0  0  0  0  0  0  0  0
  1  2  3  0
  1  6  1  0
  2  3  1  0
  3  4  1  0
  3  5  1  0
  4  7  1  0
  4  8  1  0
  4  9  1  0
  5 10  1  0
  5 11  1  0
  5 12  1  0
 13 14  1  0
 13 20  1  0
 13 21  1  0
 13 22  1  0
 14 15  1  0
 14 23  1  0
 14 24  1  0
 15 16  1  0
 15 19  1  0
 15 25  1  0
 16 17  1  0
 16 26  1  0
 16 27  1  0
 17 18  1  0
 17 28  1  0
 17 29  1  0
 18 19  1  0
 18 30  1  0
 18 31  1  0
 19 20  1  0
 19 32  1  0
 20 33  1  0
 20 34  1  0
M  RAD  1   3   2
M  END
>  <reaction>  (7) 
rxn_566

>  <mol_properties>  (7) 
{"1": {"label": "*0", "atom_type": "Ct"}, "2": {"label": "*1", "atom_type": "Cs"}, "14": {"label": "*3", "atom_type": "Cs"}, "18": {"label": "*4", "atom_type": "Cs"}, "24": {"label": "*2", "atom_type": "H0"}}

>  <type>  (7) 
unop_3

>  <geom_source>  (7) 
Heuristics

$$$$

     RDKit          3D

 34 34  0  0  0  0  0  0  0  0999 V2000
   -2.4959   -2.0257   -1.5185 C   0  0  0  0  0  0  0  0  0  0  0  0
   -2.1336   -1.5153   -0.4969 C   0  0  0  0  0  0  0  0  0  0  0  0
   -1.7136   -0.8860    0.7564 C   0  0  0  0  0  3  0  0  0  0  0  0
   -2.3296   -1.6046    1.9607 C   0  0  0  0  0  0  0  0  0  0  0  0
   -2.0555    0.6071    0.7584 C   0  0  0  0  0  0  0  0  0  0  0  0
   -2.8175   -2.4787   -2.4252 H   0  0  0  0  0  0  0  0  0  0  0  0
   -1.9739   -1.1528    2.8883 H   0  0  0  0  0  0  0  0  0  0  0  0
   -2.0645   -2.6618    1.9657 H   0  0  0  0  0  0  0  0  0  0  0  0
   -3.4179   -1.5264    1.9352 H   0  0  0  0  0  0  0  0  0  0  0  0
   -3.1357    0.7506    0.6974 H   0  0  0  0  0  0  0  0  0  0  0  0
   -1.5962    1.1169   -0.0884 H   0  0  0  0  0  0  0  0  0  0  0  0
   -1.6982    1.0717    1.6791 H   0  0  0  0  0  0  0  0  0  0  0  0
    1.6439   -1.0264   -1.5564 C   0  0  0  0  0  0  0  0  0  0  0  0
    1.6439   -1.0264   -0.0300 C   0  0  0  0  0  0  0  0  0  0  0  0
    0.6806    0.1083    0.3584 C   0  0  0  0  0  0  0  0  0  0  0  0
    1.1333    0.9469    1.5628 C   0  0  0  0  0  0  0  0  0  0  0  0
    1.9453    2.0851    0.9435 C   0  0  0  0  0  0  0  0  0  0  0  0
    1.1333    2.4447   -0.3014 C   0  0  0  0  0  0  0  0  0  0  0  0
    0.6806    1.0879   -0.8608 C   0  0  0  0  0  0  0  0  0  0  0  0
    1.6439    0.4642   -1.8853 C   0  0  0  0  0  0  0  0  0  0  0  0
    2.4888   -1.5646   -1.9888 H   0  0  0  0  0  0  0  0  0  0  0  0
    0.7281   -1.4932   -1.9315 H   0  0  0  0  0  0  0  0  0  0  0  0
    1.3596   -1.9848    0.4066 H   0  0  0  0  0  0  0  0  0  0  0  0
    2.6521   -0.7938    0.3293 H   0  0  0  0  0  0  0  0  0  0  0  0
   -0.5145   -0.3880    0.5571 H   0  0  0  0  0  0  0  0  0  0  0  0
    0.2655    1.3637    2.0813 H   0  0  0  0  0  0  0  0  0  0  0  0
    1.6964    0.3602    2.2911 H   0  0  0  0  0  0  0  0  0  0  0  0
    2.9364    1.7233    0.6527 H   0  0  0  0  0  0  0  0  0  0  0  0
    2.0932    2.9274    1.6202 H   0  0  0  0  0  0  0  0  0  0  0  0
    0.2655    3.0408   -0.0061 H   0  0  0  0  0  0  0  0  0  0  0  0
    1.6964    3.0295   -1.0313 H   0  0  0  0  0  0  0  0  0  0  0  0
   -0.3153    1.1605   -1.3004 H   0  0  0  0  0  0  0  0  0  0  0  0
    1.3596    0.6841   -2.9152 H   0  0  0  0  0  0  0  0  0  0  0  0
    2.6521    0.8651   -1.7355 H   0  0  0  0  0  0  0  0  0  0  0  0
  1  2  3  0
  1  6  1  0
  2  3  1  0
  3  4  1  0
  3  5  1  0
  4  7  1  0
  4  8  1  0
  4  9  1  0
  5 10  1  0
  5 11  1  0
  5 12  1  0
 13 14  1  0
 13 20  1  0
 13 21  1  0
 13 22  1  0
 14 15  1  0
 14 23  1  0
 14 24  1  0
 15 16  1  0
 15 19  1  0
 15 25  1  0
 16 17  1  0
 16 26  1  0
 16 27  1  0
 17 18  1  0
 17 28  1  0
 17 29  1  0
 18 19  1  0
 18 30  1  0
 18 31  1  0
 19 20  1  0
 19 32  1  0
 20 33  1  0
 20 34  1  0
M  RAD  1   3   2
M  END
>  <reaction>  (8) 
rxn_566

>  <mol_properties>  (8) 
{"1": {"label": "*0", "atom_type": "Ct"}, "2": {"label": "*1", "atom_type": "Cs"}, "14": {"label": "*3", "atom_type": "Cs"}, "18": {"label": "*4", "atom_type": "Cs"}, "24": {"label": "*2", "atom_type": "H0"}}

>  <type>  (8) 
unop_4

>  <geom_source>  (8) 
Heuristics

$$$$

     RDKit          3D

 34 34  0  0  0  0  0  0  0  0999 V2000
   -3.2789    0.9906    1.2122 C   0  0  0  0  0  0  0  0  0  0  0  0
   -2.5475    0.0905    0.9116 C   0  0  0  0  0  0  0  0  0  0  0  0
   -1.6721   -1.0246    0.5462 C   0  0  0  0  0  3  0  0  0  0  0  0
   -2.1391   -1.6802   -0.7570 C   0  0  0  0  0  0  0  0  0  0  0  0
   -1.5821   -2.0435    1.6864 C   0  0  0  0  0  0  0  0  0  0  0  0
   -3.9280    1.7894    1.4790 H   0  0  0  0  0  0  0  0  0  0  0  0
   -1.4534   -2.4807   -1.0400 H   0  0  0  0  0  0  0  0  0  0  0  0
   -2.1800   -0.9549   -1.5695 H   0  0  0  0  0  0  0  0  0  0  0  0
   -3.1352   -2.1085   -0.6323 H   0  0  0  0  0  0  0  0  0  0  0  0
   -2.5617   -2.4826    1.8831 H   0  0  0  0  0  0  0  0  0  0  0  0
   -1.2282   -1.5756    2.6049 H   0  0  0  0  0  0  0  0  0  0  0  0
   -0.8931   -2.8462    1.4175 H   0  0  0  0  0  0  0  0  0  0  0  0
    1.6854   -1.1650   -1.7666 C   0  0  0  0  0  0  0  0  0  0  0  0
    1.6854   -1.1650   -0.2402 C   0  0  0  0  0  0  0  0  0  0  0  0
    0.7220   -0.0303    0.1482 C   0  0  0  0  0  0  0  0  0  0  0  0
    1.1748    0.8083    1.3526 C   0  0  0  0  0  0  0  0  0  0  0  0
    1.9868    1.9465    0.7333 C   0  0  0  0  0  0  0  0  0  0  0  0
    1.1748    2.3061   -0.5116 C   0  0  0  0  0  0  0  0  0  0  0  0
    0.7220    0.9493   -1.0710 C   0  0  0  0  0  0  0  0  0  0  0  0
    1.6854    0.3256   -2.0955 C   0  0  0  0  0  0  0  0  0  0  0  0
    2.5302   -1.7032   -2.1990 H   0  0  0  0  0  0  0  0  0  0  0  0
    0.7695   -1.6319   -2.1417 H   0  0  0  0  0  0  0  0  0  0  0  0
    1.4010   -2.1234    0.1964 H   0  0  0  0  0  0  0  0  0  0  0  0
    2.6935   -0.9324    0.1191 H   0  0  0  0  0  0  0  0  0  0  0  0
   -0.4730   -0.5266    0.3469 H   0  0  0  0  0  0  0  0  0  0  0  0
    0.3069    1.2251    1.8711 H   0  0  0  0  0  0  0  0  0  0  0  0
    1.7378    0.2216    2.0809 H   0  0  0  0  0  0  0  0  0  0  0  0
    2.9779    1.5846    0.4426 H   0  0  0  0  0  0  0  0  0  0  0  0
    2.1347    2.7888    1.4100 H   0  0  0  0  0  0  0  0  0  0  0  0
    0.3069    2.9022   -0.2163 H   0  0  0  0  0  0  0  0  0  0  0  0
    1.7378    2.8909   -1.2415 H   0  0  0  0  0  0  0  0  0  0  0  0
   -0.2739    1.0218   -1.5106 H   0  0  0  0  0  0  0  0  0  0  0  0
    1.4010    0.5454   -3.1254 H   0  0  0  0  0  0  0  0  0  0  0  0
    2.6935    0.7265   -1.9457 H   0  0  0  0  0  0  0  0  0  0  0  0
  1  2  3  0
  1  6  1  0
  2  3  1  0
  3  4  1  0
  3  5  1  0
  4  7  1  0
  4  8  1  0
  4  9  1  0
  5 10  1  0
  5 11  1  0
  5 12  1  0
 13 14  1  0
 13 20  1  0
 13 21  1  0
 13 22  1  0
 14 15  1  0
 14 23  1  0
 14 24  1  0
 15 16  1  0
 15 19  1  0
 15 25  1  0
 16 17  1  0
 16 26  1  0
 16 27  1  0
 17 18  1  0
 17 28  1  0
 17 29  1  0
 18 19  1  0
 18 30  1  0
 18 31  1  0
 19 20  1  0
 19 32  1  0
 20 33  1  0
 20 34  1  0
M  RAD  1   3   2
M  END
>  <reaction>  (9) 
rxn_566

>  <mol_properties>  (9) 
{"1": {"label": "*0", "atom_type": "Ct"}, "2": {"label": "*1", "atom_type": "Cs"}, "14": {"label": "*3", "atom_type": "Cs"}, "18": {"label": "*4", "atom_type": "Cs"}, "24": {"label": "*2", "atom_type": "H0"}}

>  <type>  (9) 
unop_5

>  <geom_source>  (9) 
Heuristics

$$$$

     RDKit          3D

 34 34  0  0  0  0  0  0  0  0999 V2000
   -2.9799   -0.9093   -1.5972 C   0  0  0  0  0  0  0  0  0  0  0  0
   -2.3891   -0.9445   -0.5556 C   0  0  0  0  0  0  0  0  0  0  0  0
   -1.6872   -0.9815    0.7287 C   0  0  0  0  0  3  0  0  0  0  0  0
   -2.2867   -2.0507    1.6472 C   0  0  0  0  0  0  0  0  0  0  0  0
   -1.6941    0.3982    1.3939 C   0  0  0  0  0  0  0  0  0  0  0  0
   -3.5044   -0.8780   -2.5217 H   0  0  0  0  0  0  0  0  0  0  0  0
   -1.7268   -2.0969    2.5830 H   0  0  0  0  0  0  0  0  0  0  0  0
   -2.2587   -3.0336    1.1772 H   0  0  0  0  0  0  0  0  0  0  0  0
   -3.3263   -1.8137    1.8798 H   0  0  0  0  0  0  0  0  0  0  0  0
   -2.7163    0.7074    1.6190 H   0  0  0  0  0  0  0  0  0  0  0  0
   -1.2464    1.1503    0.7445 H   0  0  0  0  0  0  0  0  0  0  0  0
   -1.1309    0.3661    2.3282 H   0  0  0  0  0  0  0  0  0  0  0  0
    1.6703   -1.1219   -1.5841 C   0  0  0  0  0  0  0  0  0  0  0  0
    1.6703   -1.1219   -0.0577 C   0  0  0  0  0  0  0  0  0  0  0  0
    0.7070    0.0128    0.3307 C   0  0  0  0  0  0  0  0  0  0  0  0
    1.1597    0.8514    1.5351 C   0  0  0  0  0  0  0  0  0  0  0  0
    1.9717    1.9896    0.9157 C   0  0  0  0  0  0  0  0  0  0  0  0
    1.1597    2.3492   -0.3292 C   0  0  0  0  0  0  0  0  0  0  0  0
    0.7070    0.9924   -0.8885 C   0  0  0  0  0  0  0  0  0  0  0  0
    1.6703    0.3687   -1.9130 C   0  0  0  0  0  0  0  0  0  0  0  0
    2.5151   -1.6601   -2.0165 H   0  0  0  0  0  0  0  0  0  0  0  0
    0.7545   -1.5888   -1.9592 H   0  0  0  0  0  0  0  0  0  0  0  0
    1.3860   -2.0803    0.3789 H   0  0  0  0  0  0  0  0  0  0  0  0
    2.6785   -0.8893    0.3016 H   0  0  0  0  0  0  0  0  0  0  0  0
   -0.4881   -0.4835    0.5294 H   0  0  0  0  0  0  0  0  0  0  0  0
    0.2919    1.2682    2.0536 H   0  0  0  0  0  0  0  0  0  0  0  0
    1.7228    0.2647    2.2634 H   0  0  0  0  0  0  0  0  0  0  0  0
    2.9628    1.6277    0.6250 H   0  0  0  0  0  0  0  0  0  0  0  0
    2.1196    2.8319    1.5925 H   0  0  0  0  0  0  0  0  0  0  0  0
    0.2919    2.9453   -0.0338 H   0  0  0  0  0  0  0  0  0  0  0  0
    1.7228    2.9340   -1.0590 H   0  0  0  0  0  0  0  0  0  0  0  0
   -0.2889    1.0649   -1.3281 H   0  0  0  0  0  0  0  0  0  0  0  0
    1.3860    0.5885   -2.9429 H   0  0  0  0  0  0  0  0  0  0  0  0
    2.6785    0.7696   -1.7633 H   0  0  0  0  0  0  0  0  0  0  0  0
  1  2  3  0
  1  6  1  0
  2  3  1  0
  3  4  1  0
  3  5  1  0
  4  7  1  0
  4  8  1  0
  4  9  1  0
  5 10  1  0
  5 11  1  0
  5 12  1  0
 13 14  1  0
 13 20  1  0
 13 21  1  0
 13 22  1  0
 14 15  1  0
 14 23  1  0
 14 24  1  0
 15 16  1  0
 15 19  1  0
 15 25  1  0
 16 17  1  0
 16 26  1  0
 16 27  1  0
 17 18  1  0
 17 28  1  0
 17 29  1  0
 18 19  1  0
 18 30  1  0
 18 31  1  0
 19 20  1  0
 19 32  1  0
 20 33  1  0
 20 34  1  0
M  RAD  1   3   2
M  END
>  <reaction>  (10) 
rxn_566

>  <mol_properties>  (10) 
{"1": {"label": "*0", "atom_type": "Ct"}, "2": {"label": "*1", "atom_type": "Cs"}, "14": {"label": "*3", "atom_type": "Cs"}, "18": {"label": "*4", "atom_type": "Cs"}, "24": {"label": "*2", "atom_type": "H0"}}

>  <type>  (10) 
unop_6

>  <geom_source>  (10) 
Heuristics

$$$$

     RDKit          3D

 34 34  0  0  0  0  0  0  0  0999 V2000
   -3.3276    0.1426   -1.0645 C   0  0  0  0  0  0  0  0  0  0  0  0
   -2.5761   -0.3893   -0.2979 C   0  0  0  0  0  0  0  0  0  0  0  0
   -1.6748   -1.0389    0.6556 C   0  0  0  0  0  3  0  0  0  0  0  0
   -2.2282   -2.3998    1.0889 C   0  0  0  0  0  0  0  0  0  0  0  0
   -1.4095   -0.1312    1.8605 C   0  0  0  0  0  0  0  0  0  0  0  0
   -3.9946    0.6147   -1.7448 H   0  0  0  0  0  0  0  0  0  0  0  0
   -1.5263   -2.8912    1.7650 H   0  0  0  0  0  0  0  0  0  0  0  0
   -2.3940   -3.0488    0.2292 H   0  0  0  0  0  0  0  0  0  0  0  0
   -3.1788   -2.2759    1.6106 H   0  0  0  0  0  0  0  0  0  0  0  0
   -2.3360    0.0597    2.4049 H   0  0  0  0  0  0  0  0  0  0  0  0
   -0.9953    0.8271    1.5474 H   0  0  0  0  0  0  0  0  0  0  0  0
   -0.7029   -0.6094    2.5411 H   0  0  0  0  0  0  0  0  0  0  0  0
    1.6827   -1.1793   -1.6573 C   0  0  0  0  0  0  0  0  0  0  0  0
    1.6827   -1.1793   -0.1308 C   0  0  0  0  0  0  0  0  0  0  0  0
    0.7193   -0.0445    0.2575 C   0  0  0  0  0  0  0  0  0  0  0  0
    1.1721    0.7940    1.4620 C   0  0  0  0  0  0  0  0  0  0  0  0
    1.9841    1.9322    0.8426 C   0  0  0  0  0  0  0  0  0  0  0  0
    1.1721    2.2919   -0.4023 C   0  0  0  0  0  0  0  0  0  0  0  0
    0.7193    0.9350   -0.9617 C   0  0  0  0  0  0  0  0  0  0  0  0
    1.6827    0.3113   -1.9861 C   0  0  0  0  0  0  0  0  0  0  0  0
    2.5275   -1.7175   -2.0896 H   0  0  0  0  0  0  0  0  0  0  0  0
    0.7668   -1.6461   -2.0323 H   0  0  0  0  0  0  0  0  0  0  0  0
    1.3984   -2.1376    0.3058 H   0  0  0  0  0  0  0  0  0  0  0  0
    2.6908   -0.9467    0.2285 H   0  0  0  0  0  0  0  0  0  0  0  0
   -0.4757   -0.5409    0.4562 H   0  0  0  0  0  0  0  0  0  0  0  0
    0.3043    1.2109    1.9804 H   0  0  0  0  0  0  0  0  0  0  0  0
    1.7352    0.2073    2.1903 H   0  0  0  0  0  0  0  0  0  0  0  0
    2.9752    1.5704    0.5519 H   0  0  0  0  0  0  0  0  0  0  0  0
    2.1320    2.7746    1.5194 H   0  0  0  0  0  0  0  0  0  0  0  0
    0.3043    2.8879   -0.1070 H   0  0  0  0  0  0  0  0  0  0  0  0
    1.7352    2.8766   -1.1321 H   0  0  0  0  0  0  0  0  0  0  0  0
   -0.2765    1.0076   -1.4013 H   0  0  0  0  0  0  0  0  0  0  0  0
    1.3984    0.5312   -3.0160 H   0  0  0  0  0  0  0  0  0  0  0  0
    2.6908    0.7123   -1.8364 H   0  0  0  0  0  0  0  0  0  0  0  0
  1  2  3  0
  1  6  1  0
  2  3  1  0
  3  4  1  0
  3  5  1  0
  4  7  1  0
  4  8  1  0
  4  9  1  0
  5 10  1  0
  5 11  1  0
  5 12  1  0
 13 14  1  0
 13 20  1  0
 13 21  1  0
 13 22  1  0
 14 15  1  0
 14 23  1  0
 14 24  1  0
 15 16  1  0
 15 19  1  0
 15 25  1  0
 16 17  1  0
 16 26  1  0
 16 27  1  0
 17 18  1  0
 17 28  1  0
 17 29  1  0
 18 19  1  0
 18 30  1  0
 18 31  1  0
 19 20  1  0
 19 32  1  0
 20 33  1  0
 20 34  1  0
M  RAD  1   3   2
M  END
>  <reaction>  (11) 
rxn_566

>  <mol_properties>  (11) 
{"1": {"label": "*0", "atom_type": "Ct"}, "2": {"label": "*1", "atom_type": "Cs"}, "14": {"label": "*3", "atom_type": "Cs"}, "18": {"label": "*4", "atom_type": "Cs"}, "24": {"label": "*2", "atom_type": "H0"}}

>  <type>  (11) 
unop_7

>  <geom_source>  (11) 
Heuristics

$$$$

     RDKit          3D

 34 34  0  0  0  0  0  0  0  0999 V2000
   -1.9361   -1.5900    2.9811 C   0  0  0  0  0  0  0  0  0  0  0  0
   -1.8469   -1.2981    1.8225 C   0  0  0  0  0  0  0  0  0  0  0  0
   -1.7605   -0.9337    0.4072 C   0  0  0  0  0  3  0  0  0  0  0  0
   -1.9621    0.5729    0.2187 C   0  0  0  0  0  0  0  0  0  0  0  0
   -2.7594   -1.7424   -0.4261 C   0  0  0  0  0  0  0  0  0  0  0  0
   -2.0153   -1.8491    4.0093 H   0  0  0  0  0  0  0  0  0  0  0  0
   -1.8520    0.8364   -0.8347 H   0  0  0  0  0  0  0  0  0  0  0  0
   -1.2344    1.1425    0.7967 H   0  0  0  0  0  0  0  0  0  0  0  0
   -2.9614    0.8672    0.5443 H   0  0  0  0  0  0  0  0  0  0  0  0
   -3.7822   -1.5164   -0.1195 H   0  0  0  0  0  0  0  0  0  0  0  0
   -2.5966   -2.8133   -0.3049 H   0  0  0  0  0  0  0  0  0  0  0  0
   -2.6539   -1.4923   -1.4832 H   0  0  0  0  0  0  0  0  0  0  0  0
    1.5970   -1.0741   -1.9056 C   0  0  0  0  0  0  0  0  0  0  0  0
    1.5970   -1.0741   -0.3791 C   0  0  0  0  0  0  0  0  0  0  0  0
    0.6337    0.0606    0.0092 C   0  0  0  0  0  0  0  0  0  0  0  0
    1.0864    0.8992    1.2137 C   0  0  0  0  0  0  0  0  0  0  0  0
    1.8984    2.0374    0.5943 C   0  0  0  0  0  0  0  0  0  0  0  0
    1.0864    2.3970   -0.6506 C   0  0  0  0  0  0  0  0  0  0  0  0
    0.6337    1.0402   -1.2100 C   0  0  0  0  0  0  0  0  0  0  0  0
    1.5970    0.4165   -2.2344 C   0  0  0  0  0  0  0  0  0  0  0  0
    2.4419   -1.6123   -2.3380 H   0  0  0  0  0  0  0  0  0  0  0  0
    0.6812   -1.5410   -2.2806 H   0  0  0  0  0  0  0  0  0  0  0  0
    1.3127   -2.0325    0.0575 H   0  0  0  0  0  0  0  0  0  0  0  0
    2.6052   -0.8415   -0.0198 H   0  0  0  0  0  0  0  0  0  0  0  0
   -0.5614   -0.4357    0.2079 H   0  0  0  0  0  0  0  0  0  0  0  0
    0.2186    1.3160    1.7321 H   0  0  0  0  0  0  0  0  0  0  0  0
    1.6495    0.3125    1.9419 H   0  0  0  0  0  0  0  0  0  0  0  0
    2.8895    1.6755    0.3036 H   0  0  0  0  0  0  0  0  0  0  0  0
    2.0463    2.8797    1.2710 H   0  0  0  0  0  0  0  0  0  0  0  0
    0.2186    2.9931   -0.3553 H   0  0  0  0  0  0  0  0  0  0  0  0
    1.6495    2.9818   -1.3805 H   0  0  0  0  0  0  0  0  0  0  0  0
   -0.3622    1.1127   -1.6496 H   0  0  0  0  0  0  0  0  0  0  0  0
    1.3127    0.6363   -3.2643 H   0  0  0  0  0  0  0  0  0  0  0  0
    2.6052    0.8174   -2.0847 H   0  0  0  0  0  0  0  0  0  0  0  0
  1  2  3  0
  1  6  1  0
  2  3  1  0
  3  4  1  0
  3  5  1  0
  4  7  1  0
  4  8  1  0
  4  9  1  0
  5 10  1  0
  5 11  1  0
  5 12  1  0
 13 14  1  0
 13 20  1  0
 13 21  1  0
 13 22  1  0
 14 15  1  0
 14 23  1  0
 14 24  1  0
 15 16  1  0
 15 19  1  0
 15 25  1  0
 16 17  1  0
 16 26  1  0
 16 27  1  0
 17 18  1  0
 17 28  1  0
 17 29  1  0
 18 19  1  0
 18 30  1  0
 18 31  1  0
 19 20  1  0
 19 32  1  0
 20 33  1  0
 20 34  1  0
M  RAD  1   3   2
M  END
>  <reaction>  (12) 
rxn_566

>  <mol_properties>  (12) 
{"1": {"label": "*0", "atom_type": "Ct"}, "2": {"label": "*1", "atom_type": "Cs"}, "14": {"label": "*3", "atom_type": "Cs"}, "18": {"label": "*4", "atom_type": "Cs"}, "24": {"label": "*2", "atom_type": "H0"}}

>  <type>  (12) 
unop_8

>  <geom_source>  (12) 
Heuristics

$$$$

     RDKit          3D

 34 34  0  0  0  0  0  0  0  0999 V2000
   -2.0066   -2.9161   -0.8622 C   0  0  0  0  0  0  0  0  0  0  0  0
   -1.8798   -1.9588   -0.1530 C   0  0  0  0  0  0  0  0  0  0  0  0
   -1.7485   -0.7880    0.7161 C   0  0  0  0  0  3  0  0  0  0  0  0
   -2.2970   -1.0833    2.1154 C   0  0  0  0  0  0  0  0  0  0  0  0
   -2.4304    0.4335    0.0921 C   0  0  0  0  0  0  0  0  0  0  0  0
   -2.1192   -3.7656   -1.4917 H   0  0  0  0  0  0  0  0  0  0  0  0
   -2.1533   -0.2175    2.7642 H   0  0  0  0  0  0  0  0  0  0  0  0
   -1.7926   -1.9397    2.5629 H   0  0  0  0  0  0  0  0  0  0  0  0
   -3.3648   -1.3037    2.0674 H   0  0  0  0  0  0  0  0  0  0  0  0
   -3.5021    0.2579   -0.0156 H   0  0  0  0  0  0  0  0  0  0  0  0
   -2.0205    0.6517   -0.8940 H   0  0  0  0  0  0  0  0  0  0  0  0
   -2.2874    1.3081    0.7292 H   0  0  0  0  0  0  0  0  0  0  0  0
    1.6089   -0.9284   -1.5967 C   0  0  0  0  0  0  0  0  0  0  0  0
    1.6089   -0.9284   -0.0703 C   0  0  0  0  0  0  0  0  0  0  0  0
    0.6456    0.2063    0.3181 C   0  0  0  0  0  0  0  0  0  0  0  0
    1.0983    1.0449    1.5225 C   0  0  0  0  0  0  0  0  0  0  0  0
    1.9103    2.1831    0.9031 C   0  0  0  0  0  0  0  0  0  0  0  0
    1.0983    2.5427   -0.3418 C   0  0  0  0  0  0  0  0  0  0  0  0
    0.6456    1.1859   -0.9012 C   0  0  0  0  0  0  0  0  0  0  0  0
    1.6089    0.5622   -1.9256 C   0  0  0  0  0  0  0  0  0  0  0  0
    2.4538   -1.4666   -2.0291 H   0  0  0  0  0  0  0  0  0  0  0  0
    0.6931   -1.3953   -1.9718 H   0  0  0  0  0  0  0  0  0  0  0  0
    1.3246   -1.8868    0.3663 H   0  0  0  0  0  0  0  0  0  0  0  0
    2.6171   -0.6958    0.2890 H   0  0  0  0  0  0  0  0  0  0  0  0
   -0.5495   -0.2900    0.5167 H   0  0  0  0  0  0  0  0  0  0  0  0
    0.2305    1.4617    2.0409 H   0  0  0  0  0  0  0  0  0  0  0  0
    1.6614    0.4582    2.2508 H   0  0  0  0  0  0  0  0  0  0  0  0
    2.9014    1.8212    0.6124 H   0  0  0  0  0  0  0  0  0  0  0  0
    2.0583    3.0254    1.5799 H   0  0  0  0  0  0  0  0  0  0  0  0
    0.2305    3.1388   -0.0465 H   0  0  0  0  0  0  0  0  0  0  0  0
    1.6614    3.1275   -1.0716 H   0  0  0  0  0  0  0  0  0  0  0  0
   -0.3503    1.2584   -1.3407 H   0  0  0  0  0  0  0  0  0  0  0  0
    1.3246    0.7820   -2.9555 H   0  0  0  0  0  0  0  0  0  0  0  0
    2.6171    0.9631   -1.7759 H   0  0  0  0  0  0  0  0  0  0  0  0
  1  2  3  0
  1  6  1  0
  2  3  1  0
  3  4  1  0
  3  5  1  0
  4  7  1  0
  4  8  1  0
  4  9  1  0
  5 10  1  0
  5 11  1  0
  5 12  1  0
 13 14  1  0
 13 20  1  0
 13 21  1  0
 13 22  1  0
 14 15  1  0
 14 23  1  0
 14 24  1  0
 15 16  1  0
 15 19  1  0
 15 25  1  0
 16 17  1  0
 16 26  1  0
 16 27  1  0
 17 18  1  0
 17 28  1  0
 17 29  1  0
 18 19  1  0
 18 30  1  0
 18 31  1  0
 19 20  1  0
 19 32  1  0
 20 33  1  0
 20 34  1  0
M  RAD  1   3   2
M  END
>  <reaction>  (13) 
rxn_566

>  <mol_properties>  (13) 
{"1": {"label": "*0", "atom_type": "Ct"}, "2": {"label": "*1", "atom_type": "Cs"}, "14": {"label": "*3", "atom_type": "Cs"}, "18": {"label": "*4", "atom_type": "Cs"}, "24": {"label": "*2", "atom_type": "H0"}}

>  <type>  (13) 
unop_9

>  <geom_source>  (13) 
Heuristics

$$$$

     RDKit          3D

 34 34  0  0  0  0  0  0  0  0999 V2000
   -1.6028   -2.6081    2.3986 C   0  0  0  0  0  0  0  0  0  0  0  0
   -1.6770   -1.8130    1.5055 C   0  0  0  0  0  0  0  0  0  0  0  0
   -1.7900   -0.8361    0.4210 C   0  0  0  0  0  3  0  0  0  0  0  0
   -2.0055    0.5744    0.9779 C   0  0  0  0  0  0  0  0  0  0  0  0
   -2.9031   -1.2306   -0.5545 C   0  0  0  0  0  0  0  0  0  0  0  0
   -1.5369   -3.3138    3.1913 H   0  0  0  0  0  0  0  0  0  0  0  0
   -2.0443    1.2974    0.1611 H   0  0  0  0  0  0  0  0  0  0  0  0
   -1.1989    0.8578    1.6540 H   0  0  0  0  0  0  0  0  0  0  0  0
   -2.9461    0.6270    1.5287 H   0  0  0  0  0  0  0  0  0  0  0  0
   -3.8703   -1.2314   -0.0489 H   0  0  0  0  0  0  0  0  0  0  0  0
   -2.7325   -2.2262   -0.9641 H   0  0  0  0  0  0  0  0  0  0  0  0
   -2.9471   -0.5181   -1.3801 H   0  0  0  0  0  0  0  0  0  0  0  0
    1.5674   -0.9765   -1.8918 C   0  0  0  0  0  0  0  0  0  0  0  0
    1.5674   -0.9765   -0.3654 C   0  0  0  0  0  0  0  0  0  0  0  0
    0.6041    0.1582    0.0230 C   0  0  0  0  0  0  0  0  0  0  0  0
    1.0568    0.9968    1.2274 C   0  0  0  0  0  0  0  0  0  0  0  0
    1.8688    2.1350    0.6080 C   0  0  0  0  0  0  0  0  0  0  0  0
    1.0568    2.4946   -0.6369 C   0  0  0  0  0  0  0  0  0  0  0  0
    0.6041    1.1378   -1.1962 C   0  0  0  0  0  0  0  0  0  0  0  0
    1.5674    0.5141   -2.2207 C   0  0  0  0  0  0  0  0  0  0  0  0
    2.4123   -1.5147   -2.3242 H   0  0  0  0  0  0  0  0  0  0  0  0
    0.6516   -1.4434   -2.2669 H   0  0  0  0  0  0  0  0  0  0  0  0
    1.2831   -1.9349    0.0712 H   0  0  0  0  0  0  0  0  0  0  0  0
    2.5756   -0.7440   -0.0061 H   0  0  0  0  0  0  0  0  0  0  0  0
   -0.5910   -0.3381    0.2217 H   0  0  0  0  0  0  0  0  0  0  0  0
    0.1890    1.4136    1.7459 H   0  0  0  0  0  0  0  0  0  0  0  0
    1.6199    0.4101    1.9557 H   0  0  0  0  0  0  0  0  0  0  0  0
    2.8599    1.7731    0.3173 H   0  0  0  0  0  0  0  0  0  0  0  0
    2.0168    2.9773    1.2848 H   0  0  0  0  0  0  0  0  0  0  0  0
    0.1890    3.0906   -0.3415 H   0  0  0  0  0  0  0  0  0  0  0  0
    1.6199    3.0794   -1.3667 H   0  0  0  0  0  0  0  0  0  0  0  0
   -0.3918    1.2103   -1.6358 H   0  0  0  0  0  0  0  0  0  0  0  0
    1.2831    0.7339   -3.2506 H   0  0  0  0  0  0  0  0  0  0  0  0
    2.5756    0.9150   -2.0710 H   0  0  0  0  0  0  0  0  0  0  0  0
  1  2  3  0
  1  6  1  0
  2  3  1  0
  3  4  1  0
  3  5  1  0
  4  7  1  0
  4  8  1  0
  4  9  1  0
  5 10  1  0
  5 11  1  0
  5 12  1  0
 13 14  1  0
 13 20  1  0
 13 21  1  0
 13 22  1  0
 14 15  1  0
 14 23  1  0
 14 24  1  0
 15 16  1  0
 15 19  1  0
 15 25  1  0
 16 17  1  0
 16 26  1  0
 16 27  1  0
 17 18  1  0
 17 28  1  0
 17 29  1  0
 18 19  1  0
 18 30  1  0
 18 31  1  0
 19 20  1  0
 19 32  1  0
 20 33  1  0
 20 34  1  0
M  RAD  1   3   2
M  END
>  <reaction>  (14) 
rxn_566

>  <mol_properties>  (14) 
{"1": {"label": "*0", "atom_type": "Ct"}, "2": {"label": "*1", "atom_type": "Cs"}, "14": {"label": "*3", "atom_type": "Cs"}, "18": {"label": "*4", "atom_type": "Cs"}, "24": {"label": "*2", "atom_type": "H0"}}

>  <type>  (14) 
unop_10

>  <geom_source>  (14) 
Heuristics

$$$$

     RDKit          3D

 34 34  0  0  0  0  0  0  0  0999 V2000
   -3.4398    0.8482   -0.0439 C   0  0  0  0  0  0  0  0  0  0  0  0
   -2.6373    0.0018    0.2299 C   0  0  0  0  0  0  0  0  0  0  0  0
   -1.6725   -1.0424    0.5795 C   0  0  0  0  0  3  0  0  0  0  0  0
   -2.2034   -2.4265    0.1942 C   0  0  0  0  0  0  0  0  0  0  0  0
   -1.3098   -0.9740    2.0661 C   0  0  0  0  0  0  0  0  0  0  0  0
   -4.1520    1.5995   -0.2869 H   0  0  0  0  0  0  0  0  0  0  0  0
   -1.4569   -3.1900    0.4204 H   0  0  0  0  0  0  0  0  0  0  0  0
   -2.4388   -2.4756   -0.8688 H   0  0  0  0  0  0  0  0  0  0  0  0
   -3.1110   -2.6561    0.7551 H   0  0  0  0  0  0  0  0  0  0  0  0
   -2.1911   -1.1607    2.6822 H   0  0  0  0  0  0  0  0  0  0  0  0
   -0.9121    0.0061    2.3293 H   0  0  0  0  0  0  0  0  0  0  0  0
   -0.5582   -1.7290    2.3031 H   0  0  0  0  0  0  0  0  0  0  0  0
    1.6849   -1.1828   -1.7333 C   0  0  0  0  0  0  0  0  0  0  0  0
    1.6849   -1.1828   -0.2069 C   0  0  0  0  0  0  0  0  0  0  0  0
    0.7216   -0.0480    0.1815 C   0  0  0  0  0  0  0  0  0  0  0  0
    1.1743    0.7905    1.3860 C   0  0  0  0  0  0  0  0  0  0  0  0
    1.9863    1.9287    0.7666 C   0  0  0  0  0  0  0  0  0  0  0  0
    1.1743    2.2884   -0.4783 C   0  0  0  0  0  0  0  0  0  0  0  0
    0.7216    0.9315   -1.0377 C   0  0  0  0  0  0  0  0  0  0  0  0
    1.6849    0.3078   -2.0621 C   0  0  0  0  0  0  0  0  0  0  0  0
    2.5298   -1.7210   -2.1657 H   0  0  0  0  0  0  0  0  0  0  0  0
    0.7691   -1.6496   -2.1084 H   0  0  0  0  0  0  0  0  0  0  0  0
    1.4006   -2.1411    0.2297 H   0  0  0  0  0  0  0  0  0  0  0  0
    2.6931   -0.9502    0.1524 H   0  0  0  0  0  0  0  0  0  0  0  0
   -0.4735   -0.5444    0.3802 H   0  0  0  0  0  0  0  0  0  0  0  0
    0.3065    1.2074    1.9044 H   0  0  0  0  0  0  0  0  0  0  0  0
    1.7374    0.2038    2.1142 H   0  0  0  0  0  0  0  0  0  0  0  0
    2.9774    1.5669    0.4759 H   0  0  0  0  0  0  0  0  0  0  0  0
    2.1343    2.7711    1.4433 H   0  0  0  0  0  0  0  0  0  0  0  0
    0.3065    2.8844   -0.1830 H   0  0  0  0  0  0  0  0  0  0  0  0
    1.7374    2.8731   -1.2082 H   0  0  0  0  0  0  0  0  0  0  0  0
   -0.2743    1.0041   -1.4773 H   0  0  0  0  0  0  0  0  0  0  0  0
    1.4006    0.5277   -3.0921 H   0  0  0  0  0  0  0  0  0  0  0  0
    2.6931    0.7088   -1.9124 H   0  0  0  0  0  0  0  0  0  0  0  0
  1  2  3  0
  1  6  1  0
  2  3  1  0
  3  4  1  0
  3  5  1  0
  4  7  1  0
  4  8  1  0
  4  9  1  0
  5 10  1  0
  5 11  1  0
  5 12  1  0
 13 14  1  0
 13 20  1  0
 13 21  1  0
 13 22  1  0
 14 15  1  0
 14 23  1  0
 14 24  1  0
 15 16  1  0
 15 19  1  0
 15 25  1  0
 16 17  1  0
 16 26  1  0
 16 27  1  0
 17 18  1  0
 17 28  1  0
 17 29  1  0
 18 19  1  0
 18 30  1  0
 18 31  1  0
 19 20  1  0
 19 32  1  0
 20 33  1  0
 20 34  1  0
M  RAD  1   3   2
M  END
>  <reaction>  (15) 
rxn_566

>  <mol_properties>  (15) 
{"1": {"label": "*0", "atom_type": "Ct"}, "2": {"label": "*1", "atom_type": "Cs"}, "14": {"label": "*3", "atom_type": "Cs"}, "18": {"label": "*4", "atom_type": "Cs"}, "24": {"label": "*2", "atom_type": "H0"}}

>  <type>  (15) 
unop_11

>  <geom_source>  (15) 
Heuristics

$$$$

     RDKit          3D

 34 34  0  0  0  0  0  0  0  0999 V2000
   -1.6420   -3.3589    0.1923 C   0  0  0  0  0  0  0  0  0  0  0  0
   -1.6943   -2.1767    0.3800 C   0  0  0  0  0  0  0  0  0  0  0  0
   -1.7814   -0.7342    0.6143 C   0  0  0  0  0  3  0  0  0  0  0  0
   -2.1854   -0.4404    2.0623 C   0  0  0  0  0  0  0  0  0  0  0  0
   -2.7424   -0.0771   -0.3811 C   0  0  0  0  0  0  0  0  0  0  0  0
   -1.5957   -4.4080    0.0257 H   0  0  0  0  0  0  0  0  0  0  0  0
   -2.2040    0.6372    2.2344 H   0  0  0  0  0  0  0  0  0  0  0  0
   -1.4855   -0.8920    2.7653 H   0  0  0  0  0  0  0  0  0  0  0  0
   -3.1802   -0.8389    2.2686 H   0  0  0  0  0  0  0  0  0  0  0  0
   -3.7537   -0.4649   -0.2469 H   0  0  0  0  0  0  0  0  0  0  0  0
   -2.4372   -0.2713   -1.4092 H   0  0  0  0  0  0  0  0  0  0  0  0
   -2.7643    1.0026   -0.2231 H   0  0  0  0  0  0  0  0  0  0  0  0
    1.5761   -0.8746   -1.6985 C   0  0  0  0  0  0  0  0  0  0  0  0
    1.5761   -0.8746   -0.1721 C   0  0  0  0  0  0  0  0  0  0  0  0
    0.6127    0.2601    0.2163 C   0  0  0  0  0  0  0  0  0  0  0  0
    1.0655    1.0987    1.4207 C   0  0  0  0  0  0  0  0  0  0  0  0
    1.8775    2.2369    0.8014 C   0  0  0  0  0  0  0  0  0  0  0  0
    1.0655    2.5965   -0.4435 C   0  0  0  0  0  0  0  0  0  0  0  0
    0.6127    1.2397   -1.0029 C   0  0  0  0  0  0  0  0  0  0  0  0
    1.5761    0.6160   -2.0274 C   0  0  0  0  0  0  0  0  0  0  0  0
    2.4209   -1.4128   -2.1309 H   0  0  0  0  0  0  0  0  0  0  0  0
    0.6602   -1.3415   -2.0736 H   0  0  0  0  0  0  0  0  0  0  0  0
    1.2918   -1.8330    0.2645 H   0  0  0  0  0  0  0  0  0  0  0  0
    2.5842   -0.6421    0.1872 H   0  0  0  0  0  0  0  0  0  0  0  0
   -0.5823   -0.2362    0.4150 H   0  0  0  0  0  0  0  0  0  0  0  0
    0.1977    1.5155    1.9392 H   0  0  0  0  0  0  0  0  0  0  0  0
    1.6286    0.5120    2.1490 H   0  0  0  0  0  0  0  0  0  0  0  0
    2.8686    1.8750    0.5106 H   0  0  0  0  0  0  0  0  0  0  0  0
    2.0254    3.0792    1.4781 H   0  0  0  0  0  0  0  0  0  0  0  0
    0.1977    3.1925   -0.1482 H   0  0  0  0  0  0  0  0  0  0  0  0
    1.6286    3.1813   -1.1734 H   0  0  0  0  0  0  0  0  0  0  0  0
   -0.3832    1.3122   -1.4425 H   0  0  0  0  0  0  0  0  0  0  0  0
    1.2918    0.8358   -3.0573 H   0  0  0  0  0  0  0  0  0  0  0  0
    2.5842    1.0169   -1.8776 H   0  0  0  0  0  0  0  0  0  0  0  0
  1  2  3  0
  1  6  1  0
  2  3  1  0
  3  4  1  0
  3  5  1  0
  4  7  1  0
  4  8  1  0
  4  9  1  0
  5 10  1  0
  5 11  1  0
  5 12  1  0
 13 14  1  0
 13 20  1  0
 13 21  1  0
 13 22  1  0
 14 15  1  0
 14 23  1  0
 14 24  1  0
 15 16  1  0
 15 19  1  0
 15 25  1  0
 16 17  1  0
 16 26  1  0
 16 27  1  0
 17 18  1  0
 17 28  1  0
 17 29  1  0
 18 19  1  0
 18 30  1  0
 18 31  1  0
 19 20  1  0
 19 32  1  0
 20 33  1  0
 20 34  1  0
M  RAD  1   3   2
M  END
>  <reaction>  (16) 
rxn_566

>  <mol_properties>  (16) 
{"1": {"label": "*0", "atom_type": "Ct"}, "2": {"label": "*1", "atom_type": "Cs"}, "14": {"label": "*3", "atom_type": "Cs"}, "18": {"label": "*4", "atom_type": "Cs"}, "24": {"label": "*2", "atom_type": "H0"}}

>  <type>  (16) 
unop_12

>  <geom_source>  (16) 
Heuristics

$$$$

     RDKit          3D

 34 34  0  0  0  0  0  0  0  0999 V2000
   -1.3315   -0.2959    0.7922 C   0  0  0  0  0  0  0  0  0  0  0  0
    1.9838    0.0142    0.0461 C   0  0  0  0  0  0  0  0  0  0  0  0
   -2.2611   -1.4780    0.4997 C   0  0  0  0  0  0  0  0  0  0  0  0
   -2.0460    1.0101    1.1539 C   0  0  0  0  0  0  0  0  0  0  0  0
   -1.6670   -2.1632   -0.7199 C   0  0  0  0  0  0  0  0  0  0  0  0
   -1.2986    2.0982    0.4005 C   0  0  0  0  0  0  0  0  0  0  0  0
   -1.0043   -1.0544   -1.5202 C   0  0  0  0  0  0  0  0  0  0  0  0
   -0.7896    1.4315   -0.8666 C   0  0  0  0  0  0  0  0  0  0  0  0
    2.4804    1.1921   -0.7933 C   0  0  0  0  0  0  0  0  0  0  0  0
    1.9254    0.3833    1.5289 C   0  0  0  0  0  0  0  0  0  0  0  0
   -0.5475   -0.0283   -0.4832 C   0  0  0  0  0  3  0  0  0  0  0  0
    2.8604   -1.1505   -0.1501 C   0  0  0  0  0  0  0  0  0  0  0  0
    3.5781   -2.1058   -0.3113 C   0  0  0  0  0  0  0  0  0  0  0  0
   -0.6076   -0.5687    1.5916 H   0  0  0  0  0  0  0  0  0  0  0  0
    0.7625   -0.3082   -0.3581 H   0  0  0  0  0  0  0  0  0  0  0  0
   -2.3083   -2.1745    1.3646 H   0  0  0  0  0  0  0  0  0  0  0  0
   -3.2924   -1.1438    0.2524 H   0  0  0  0  0  0  0  0  0  0  0  0
   -0.8988   -2.9003   -0.3961 H   0  0  0  0  0  0  0  0  0  0  0  0
   -2.4477   -2.6846   -1.3152 H   0  0  0  0  0  0  0  0  0  0  0  0
   -3.1062    1.0099    0.8189 H   0  0  0  0  0  0  0  0  0  0  0  0
   -2.0171    1.1927    2.2500 H   0  0  0  0  0  0  0  0  0  0  0  0
   -1.9597    2.9615    0.1693 H   0  0  0  0  0  0  0  0  0  0  0  0
   -0.4364    2.4489    1.0102 H   0  0  0  0  0  0  0  0  0  0  0  0
   -0.1338   -1.4403   -2.0913 H   0  0  0  0  0  0  0  0  0  0  0  0
   -1.7475   -0.6288   -2.2294 H   0  0  0  0  0  0  0  0  0  0  0  0
    0.1549    1.9018   -1.2128 H   0  0  0  0  0  0  0  0  0  0  0  0
   -1.5610    1.5322   -1.6611 H   0  0  0  0  0  0  0  0  0  0  0  0
    3.5059    1.4920   -0.4860 H   0  0  0  0  0  0  0  0  0  0  0  0
    1.7990    2.0603   -0.6687 H   0  0  0  0  0  0  0  0  0  0  0  0
    2.4925    0.9146   -1.8691 H   0  0  0  0  0  0  0  0  0  0  0  0
    2.9338    0.6582    1.9080 H   0  0  0  0  0  0  0  0  0  0  0  0
    1.5392   -0.4747    2.1199 H   0  0  0  0  0  0  0  0  0  0  0  0
    1.2380    1.2426    1.6790 H   0  0  0  0  0  0  0  0  0  0  0  0
    4.2082   -2.9442   -0.4528 H   0  0  0  0  0  0  0  0  0  0  0  0
  1  3  1  0
  1  4  1  0
  1 11  1  0
  1 14  1  0
  2  9  1  0
  2 10  1  0
  2 12  1  0
  2 15  1  0
  3  5  1  0
  3 16  1  0
  3 17  1  0
  4  6  1  0
  4 20  1  0
  4 21  1  0
  5  7  1  0
  5 18  1  0
  5 19  1  0
  6  8  1  0
  6 22  1  0
  6 23  1  0
  7 11  1  0
  7 24  1  0
  7 25  1  0
  8 11  1  0
  8 26  1  0
  8 27  1  0
  9 28  1  0
  9 29  1  0
  9 30  1  0
 10 31  1  0
 10 32  1  0
 10 33  1  0
 12 13  3  0
 13 34  1  0
M  RAD  1  11   2
M  END
>  <reaction>  (17) 
rxn_566

>  <mol_properties>  (17) 
{"1": {"label": "*0", "atom_type": "Ct"}, "2": {"label": "*1", "atom_type": "Cs"}, "14": {"label": "*3", "atom_type": "Cs"}, "18": {"label": "*4", "atom_type": "Cs"}, "24": {"label": "*2", "atom_type": "H0"}}

>  <type>  (17) 
unop_13

>  <geom_source>  (17) 
AutoTST

$$$$
