
     RDKit          3D

  7  6  0  0  0  0  0  0  0  0999 V2000
    1.2985   -0.0065   -0.2721 C   0  0  0  0  0  0  0  0  0  0  0  0
    0.0000    0.0000   -0.2926 C   0  0  0  0  0  0  0  0  0  0  0  0
   -1.2985    0.0065   -0.3130 C   0  0  0  0  0  0  0  0  0  0  0  0
    1.8444   -0.7551    0.2895 H   0  0  0  0  0  0  0  0  0  0  0  0
    1.8693    0.7364   -0.8162 H   0  0  0  0  0  0  0  0  0  0  0  0
   -1.8658    0.5623    0.4239 H   0  0  0  0  0  0  0  0  0  0  0  0
   -1.8479   -0.5437   -1.0675 H   0  0  0  0  0  0  0  0  0  0  0  0
  1  2  2  0
  1  4  1  0
  1  5  1  0
  2  3  2  0
  3  6  1  0
  3  7  1  0
M  END
>  <reaction>  (1) 
rxn_1840

>  <mol_properties>  (1) 
{"0": {"label": "donator", "atom_type": "Cd"}, "3": {"label": "d_hydrogen", "atom_type": "H0"}}

>  <type>  (1) 
r1h

$$$$

     RDKit          3D

  5  4  0  0  0  0  0  0  0  0999 V2000
    2.6254   -0.7183   -0.0520 S   0  0  0  0  0  0  0  0  0  0  0  0
    1.1395   -0.3116    0.0735 C   0  0  0  0  0  3  0  0  0  0  0  0
   -0.1296    0.0355    0.1803 C   0  0  0  0  0  0  0  0  0  0  0  0
   -1.3063    0.3574    0.2794 C   0  0  0  0  0  0  0  0  0  0  0  0
   -2.3291    0.6370    0.3655 H   0  0  0  0  0  0  0  0  0  0  0  0
  1  2  2  0
  2  3  1  0
  3  4  3  0
  4  5  1  0
M  RAD  1   2   2
M  END
>  <reaction>  (2) 
rxn_1840

>  <mol_properties>  (2) 
{"1": {"label": "acceptor", "atom_type": "CS"}}

>  <type>  (2) 
r2

$$$$

     RDKit          3D

  6  5  0  0  0  0  0  0  0  0999 V2000
   -1.9761    1.0978   -0.6585 S   0  0  0  0  0  0  0  0  0  0  0  0
   -1.0502    0.0275    0.1158 C   0  0  0  0  0  0  0  0  0  0  0  0
    0.3587   -0.0566   -0.0000 C   0  0  0  0  0  0  0  0  0  0  0  0
    1.5530   -0.1477   -0.0815 C   0  0  0  0  0  0  0  0  0  0  0  0
   -1.4972   -0.7045    0.7881 H   0  0  0  0  0  0  0  0  0  0  0  0
    2.6118   -0.2165   -0.1639 H   0  0  0  0  0  0  0  0  0  0  0  0
  1  2  2  0
  2  3  1  0
  2  5  1  0
  3  4  3  0
  4  6  1  0
M  END
>  <reaction>  (3) 
rxn_1840

>  <mol_properties>  (3) 
{"1": {"label": "acceptor", "atom_type": "CS"}, "5": {"label": "a_hydrogen", "atom_type": "H0"}}

>  <type>  (3) 
r2h

$$$$

     RDKit          3D

 12 10  0  0  0  0  0  0  0  0999 V2000
   -0.9034   -1.2185   -0.4425 S   0  0  0  0  0  0  0  0  0  0  0  0
   -0.1995   -0.2692    0.6195 C   0  0  0  0  0  0  0  0  0  0  0  0
   -0.2014   -0.2719    2.0152 C   0  0  0  0  0  0  0  0  0  0  0  0
   -0.1423   -0.1923    3.2146 C   0  0  0  0  0  0  0  0  0  0  0  0
   -0.1068   -0.1445    4.2772 H   0  0  0  0  0  0  0  0  0  0  0  0
    1.2332    1.6632   -0.5658 C   0  0  0  0  0  0  0  0  0  0  0  0
    1.1142    1.5029   -1.8159 C   0  0  0  0  0  0  0  0  0  0  0  0
    0.9093    1.2266   -3.0913 C   0  0  0  0  0  3  0  0  0  0  0  0
    0.5213    0.7030    0.1224 H   0  0  0  0  0  0  0  0  0  0  0  0
    1.7481    2.3576    0.0764 H   0  0  0  0  0  0  0  0  0  0  0  0
    0.0821    1.6711   -3.6298 H   0  0  0  0  0  0  0  0  0  0  0  0
    1.5750    0.5642   -3.6299 H   0  0  0  0  0  0  0  0  0  0  0  0
  1  2  2  0
  2  3  1  0
  2  9  1  0
  3  4  3  0
  4  5  1  0
  6  7  3  0
  6 10  1  0
  7  8  1  0
  8 11  1  0
  8 12  1  0
M  RAD  1   8   2
M  END
>  <reaction>  (4) 
rxn_1840

>  <mol_properties>  (4) 
{"0": {"label": "*0", "atom_type": "S2d"}, "1": {"label": "*1", "atom_type": "CS"}, "5": {"label": "*3", "atom_type": "Ct"}, "6": {"label": "*4", "atom_type": "Ct"}, "8": {"label": "*2", "atom_type": "H0"}}

>  <type>  (4) 
ts

$$$$

     RDKit          3D

 12 10  0  0  0  0  0  0  0  0999 V2000
    0.4616   -1.5874    1.5951 S   0  0  0  0  0  0  0  0  0  0  0  0
   -0.3027   -0.5955    0.5780 C   0  0  0  0  0  3  0  0  0  0  0  0
   -1.5156    0.0777    0.8630 C   0  0  0  0  0  0  0  0  0  0  0  0
   -2.5431    0.6590    1.0810 C   0  0  0  0  0  0  0  0  0  0  0  0
   -3.4540    1.1744    1.2742 H   0  0  0  0  0  0  0  0  0  0  0  0
    1.0285    1.1997   -0.7662 C   0  0  0  0  0  0  0  0  0  0  0  0
    1.0285    1.1997   -2.0648 C   0  0  0  0  0  0  0  0  0  0  0  0
    1.0285    1.1997   -3.3635 C   0  0  0  0  0  0  0  0  0  0  0  0
    0.3649    0.3047   -0.0961 H   0  0  0  0  0  0  0  0  0  0  0  0
    1.5815    1.9454   -0.2077 H   0  0  0  0  0  0  0  0  0  0  0  0
    0.2827    1.7527   -3.9219 H   0  0  0  0  0  0  0  0  0  0  0  0
    1.7743    0.6466   -3.9219 H   0  0  0  0  0  0  0  0  0  0  0  0
  1  2  2  0
  2  3  1  0
  3  4  3  0
  4  5  1  0
  6  7  2  0
  6  9  1  0
  6 10  1  0
  7  8  2  0
  8 11  1  0
  8 12  1  0
M  RAD  1   2   2
M  END
>  <reaction>  (5) 
rxn_1840

>  <mol_properties>  (5) 
{"0": {"label": "*0", "atom_type": "S2d"}, "1": {"label": "*1", "atom_type": "CS"}, "5": {"label": "*3", "atom_type": "Ct"}, "6": {"label": "*4", "atom_type": "Ct"}, "8": {"label": "*2", "atom_type": "H0"}}

>  <type>  (5) 
unop_1

>  <geom_source>  (5) 
Heuristics

$$$$

     RDKit          3D

 12 10  0  0  0  0  0  0  0  0999 V2000
   -0.5996   -1.8188    0.0770 S   0  0  0  0  0  0  0  0  0  0  0  0
   -0.3714   -0.3434    0.6883 C   0  0  0  0  0  3  0  0  0  0  0  0
   -0.5204   -0.0021    2.0547 C   0  0  0  0  0  0  0  0  0  0  0  0
   -0.6403    0.3117    3.2073 C   0  0  0  0  0  0  0  0  0  0  0  0
   -0.7466    0.5899    4.2290 H   0  0  0  0  0  0  0  0  0  0  0  0
    0.9597    1.4517   -0.6558 C   0  0  0  0  0  0  0  0  0  0  0  0
    0.9597    1.4517   -1.9545 C   0  0  0  0  0  0  0  0  0  0  0  0
    0.9597    1.4517   -3.2532 C   0  0  0  0  0  0  0  0  0  0  0  0
    0.2961    0.5568    0.0143 H   0  0  0  0  0  0  0  0  0  0  0  0
    1.5127    2.1974   -0.0974 H   0  0  0  0  0  0  0  0  0  0  0  0
    0.2140    2.0047   -3.8116 H   0  0  0  0  0  0  0  0  0  0  0  0
    1.7055    0.8987   -3.8116 H   0  0  0  0  0  0  0  0  0  0  0  0
  1  2  2  0
  2  3  1  0
  3  4  3  0
  4  5  1  0
  6  7  2  0
  6  9  1  0
  6 10  1  0
  7  8  2  0
  8 11  1  0
  8 12  1  0
M  RAD  1   2   2
M  END
>  <reaction>  (6) 
rxn_1840

>  <mol_properties>  (6) 
{"0": {"label": "*0", "atom_type": "S2d"}, "1": {"label": "*1", "atom_type": "CS"}, "5": {"label": "*3", "atom_type": "Ct"}, "6": {"label": "*4", "atom_type": "Ct"}, "8": {"label": "*2", "atom_type": "H0"}}

>  <type>  (6) 
unop_2

>  <geom_source>  (6) 
Heuristics

$$$$

     RDKit          3D

 12 10  0  0  0  0  0  0  0  0999 V2000
    0.3314   -1.0456    2.1250 S   0  0  0  0  0  0  0  0  0  0  0  0
   -0.1802   -0.5678    0.6717 C   0  0  0  0  0  3  0  0  0  0  0  0
   -1.5390   -0.4222    0.3000 C   0  0  0  0  0  0  0  0  0  0  0  0
   -2.6833   -0.2913   -0.0387 C   0  0  0  0  0  0  0  0  0  0  0  0
   -3.6977   -0.1752   -0.3389 H   0  0  0  0  0  0  0  0  0  0  0  0
    1.1509    1.2273   -0.6725 C   0  0  0  0  0  0  0  0  0  0  0  0
    1.1509    1.2273   -1.9712 C   0  0  0  0  0  0  0  0  0  0  0  0
    1.1509    1.2273   -3.2698 C   0  0  0  0  0  0  0  0  0  0  0  0
    0.4873    0.3324   -0.0024 H   0  0  0  0  0  0  0  0  0  0  0  0
    1.7040    1.9731   -0.1141 H   0  0  0  0  0  0  0  0  0  0  0  0
    0.4052    1.7803   -3.8283 H   0  0  0  0  0  0  0  0  0  0  0  0
    1.8967    0.6743   -3.8283 H   0  0  0  0  0  0  0  0  0  0  0  0
  1  2  2  0
  2  3  1  0
  3  4  3  0
  4  5  1  0
  6  7  2  0
  6  9  1  0
  6 10  1  0
  7  8  2  0
  8 11  1  0
  8 12  1  0
M  RAD  1   2   2
M  END
>  <reaction>  (7) 
rxn_1840

>  <mol_properties>  (7) 
{"0": {"label": "*0", "atom_type": "S2d"}, "1": {"label": "*1", "atom_type": "CS"}, "5": {"label": "*3", "atom_type": "Ct"}, "6": {"label": "*4", "atom_type": "Ct"}, "8": {"label": "*2", "atom_type": "H0"}}

>  <type>  (7) 
unop_3

>  <geom_source>  (7) 
Heuristics

$$$$

     RDKit          3D

 12 10  0  0  0  0  0  0  0  0999 V2000
   -1.8588   -0.6624    0.4432 S   0  0  0  0  0  0  0  0  0  0  0  0
   -0.2607   -0.5297    0.6182 C   0  0  0  0  0  3  0  0  0  0  0  0
    0.4468   -0.7963    1.8157 C   0  0  0  0  0  0  0  0  0  0  0  0
    1.0687   -1.0163    2.8187 C   0  0  0  0  0  0  0  0  0  0  0  0
    1.6200   -1.2113    3.7079 H   0  0  0  0  0  0  0  0  0  0  0  0
    1.0705    1.2654   -0.7260 C   0  0  0  0  0  0  0  0  0  0  0  0
    1.0705    1.2654   -2.0247 C   0  0  0  0  0  0  0  0  0  0  0  0
    1.0705    1.2654   -3.3233 C   0  0  0  0  0  0  0  0  0  0  0  0
    0.4069    0.3705   -0.0559 H   0  0  0  0  0  0  0  0  0  0  0  0
    1.6235    2.0112   -0.1676 H   0  0  0  0  0  0  0  0  0  0  0  0
    0.3247    1.8184   -3.8818 H   0  0  0  0  0  0  0  0  0  0  0  0
    1.8162    0.7124   -3.8818 H   0  0  0  0  0  0  0  0  0  0  0  0
  1  2  2  0
  2  3  1  0
  3  4  3  0
  4  5  1  0
  6  7  2  0
  6  9  1  0
  6 10  1  0
  7  8  2  0
  8 11  1  0
  8 12  1  0
M  RAD  1   2   2
M  END
>  <reaction>  (8) 
rxn_1840

>  <mol_properties>  (8) 
{"0": {"label": "*0", "atom_type": "S2d"}, "1": {"label": "*1", "atom_type": "CS"}, "5": {"label": "*3", "atom_type": "Ct"}, "6": {"label": "*4", "atom_type": "Ct"}, "8": {"label": "*2", "atom_type": "H0"}}

>  <type>  (8) 
unop_4

>  <geom_source>  (8) 
Heuristics

$$$$

     RDKit          3D

 12 10  0  0  0  0  0  0  0  0999 V2000
   -0.2464   -0.3323    2.3810 S   0  0  0  0  0  0  0  0  0  0  0  0
   -0.2565   -0.3459    0.7679 C   0  0  0  0  0  3  0  0  0  0  0  0
   -0.9539   -1.2864   -0.0287 C   0  0  0  0  0  0  0  0  0  0  0  0
   -1.5364   -2.0718   -0.7252 C   0  0  0  0  0  0  0  0  0  0  0  0
   -2.0527   -2.7681   -1.3427 H   0  0  0  0  0  0  0  0  0  0  0  0
    1.0747    1.4492   -0.5762 C   0  0  0  0  0  0  0  0  0  0  0  0
    1.0747    1.4492   -1.8749 C   0  0  0  0  0  0  0  0  0  0  0  0
    1.0747    1.4492   -3.1736 C   0  0  0  0  0  0  0  0  0  0  0  0
    0.4110    0.5543    0.0939 H   0  0  0  0  0  0  0  0  0  0  0  0
    1.6277    2.1950   -0.0178 H   0  0  0  0  0  0  0  0  0  0  0  0
    0.3289    2.0022   -3.7320 H   0  0  0  0  0  0  0  0  0  0  0  0
    1.8204    0.8962   -3.7320 H   0  0  0  0  0  0  0  0  0  0  0  0
  1  2  2  0
  2  3  1  0
  3  4  3  0
  4  5  1  0
  6  7  2  0
  6  9  1  0
  6 10  1  0
  7  8  2  0
  8 11  1  0
  8 12  1  0
M  RAD  1   2   2
M  END
>  <reaction>  (9) 
rxn_1840

>  <mol_properties>  (9) 
{"0": {"label": "*0", "atom_type": "S2d"}, "1": {"label": "*1", "atom_type": "CS"}, "5": {"label": "*3", "atom_type": "Ct"}, "6": {"label": "*4", "atom_type": "Ct"}, "8": {"label": "*2", "atom_type": "H0"}}

>  <type>  (9) 
unop_5

>  <geom_source>  (9) 
Heuristics

$$$$

     RDKit          3D

 12 10  0  0  0  0  0  0  0  0999 V2000
   -1.9041   -0.2699    0.9872 S   0  0  0  0  0  0  0  0  0  0  0  0
   -0.3698   -0.5362    0.5661 C   0  0  0  0  0  3  0  0  0  0  0  0
    0.6073   -1.1290    1.4025 C   0  0  0  0  0  0  0  0  0  0  0  0
    1.4529   -1.6290    2.0925 C   0  0  0  0  0  0  0  0  0  0  0  0
    2.2026   -2.0723    2.7041 H   0  0  0  0  0  0  0  0  0  0  0  0
    0.9614    1.2590   -0.7780 C   0  0  0  0  0  0  0  0  0  0  0  0
    0.9614    1.2590   -2.0767 C   0  0  0  0  0  0  0  0  0  0  0  0
    0.9614    1.2590   -3.3754 C   0  0  0  0  0  0  0  0  0  0  0  0
    0.2977    0.3640   -0.1079 H   0  0  0  0  0  0  0  0  0  0  0  0
    1.5144    2.0047   -0.2196 H   0  0  0  0  0  0  0  0  0  0  0  0
    0.2156    1.8120   -3.9338 H   0  0  0  0  0  0  0  0  0  0  0  0
    1.7071    0.7059   -3.9338 H   0  0  0  0  0  0  0  0  0  0  0  0
  1  2  2  0
  2  3  1  0
  3  4  3  0
  4  5  1  0
  6  7  2  0
  6  9  1  0
  6 10  1  0
  7  8  2  0
  8 11  1  0
  8 12  1  0
M  RAD  1   2   2
M  END
>  <reaction>  (10) 
rxn_1840

>  <mol_properties>  (10) 
{"0": {"label": "*0", "atom_type": "S2d"}, "1": {"label": "*1", "atom_type": "CS"}, "5": {"label": "*3", "atom_type": "Ct"}, "6": {"label": "*4", "atom_type": "Ct"}, "8": {"label": "*2", "atom_type": "H0"}}

>  <type>  (10) 
unop_6

>  <geom_source>  (10) 
Heuristics

$$$$

     RDKit          3D

 12 10  0  0  0  0  0  0  0  0999 V2000
   -1.6530   -0.0193    1.5951 S   0  0  0  0  0  0  0  0  0  0  0  0
   -0.4819   -0.4625    0.5780 C   0  0  0  0  0  3  0  0  0  0  0  0
    0.5145   -1.4277    0.8630 C   0  0  0  0  0  0  0  0  0  0  0  0
    1.3692   -2.2421    1.0810 C   0  0  0  0  0  0  0  0  0  0  0  0
    2.1269   -2.9641    1.2742 H   0  0  0  0  0  0  0  0  0  0  0  0
    0.8492    1.3326   -0.7662 C   0  0  0  0  0  0  0  0  0  0  0  0
    0.8492    1.3326   -2.0648 C   0  0  0  0  0  0  0  0  0  0  0  0
    0.8492    1.3326   -3.3635 C   0  0  0  0  0  0  0  0  0  0  0  0
    0.1856    0.4377   -0.0961 H   0  0  0  0  0  0  0  0  0  0  0  0
    1.4023    2.0783   -0.2077 H   0  0  0  0  0  0  0  0  0  0  0  0
    0.1035    1.8856   -3.9219 H   0  0  0  0  0  0  0  0  0  0  0  0
    1.5950    0.7796   -3.9219 H   0  0  0  0  0  0  0  0  0  0  0  0
  1  2  2  0
  2  3  1  0
  3  4  3  0
  4  5  1  0
  6  7  2  0
  6  9  1  0
  6 10  1  0
  7  8  2  0
  8 11  1  0
  8 12  1  0
M  RAD  1   2   2
M  END
>  <reaction>  (11) 
rxn_1840

>  <mol_properties>  (11) 
{"0": {"label": "*0", "atom_type": "S2d"}, "1": {"label": "*1", "atom_type": "CS"}, "5": {"label": "*3", "atom_type": "Ct"}, "6": {"label": "*4", "atom_type": "Ct"}, "8": {"label": "*2", "atom_type": "H0"}}

>  <type>  (11) 
unop_7

>  <geom_source>  (11) 
Heuristics

$$$$

     RDKit          3D

 12 10  0  0  0  0  0  0  0  0999 V2000
    0.2947   -1.9004    0.9872 S   0  0  0  0  0  0  0  0  0  0  0  0
   -0.4057   -0.5096    0.5661 C   0  0  0  0  0  3  0  0  0  0  0  0
   -1.2567    0.2532    1.4025 C   0  0  0  0  0  0  0  0  0  0  0  0
   -1.9808    0.9172    2.0925 C   0  0  0  0  0  0  0  0  0  0  0  0
   -2.6227    1.5058    2.7041 H   0  0  0  0  0  0  0  0  0  0  0  0
    0.9255    1.2856   -0.7780 C   0  0  0  0  0  0  0  0  0  0  0  0
    0.9255    1.2856   -2.0767 C   0  0  0  0  0  0  0  0  0  0  0  0
    0.9255    1.2856   -3.3754 C   0  0  0  0  0  0  0  0  0  0  0  0
    0.2619    0.3906   -0.1079 H   0  0  0  0  0  0  0  0  0  0  0  0
    1.4785    2.0313   -0.2196 H   0  0  0  0  0  0  0  0  0  0  0  0
    0.1797    1.8386   -3.9338 H   0  0  0  0  0  0  0  0  0  0  0  0
    1.6713    0.7325   -3.9338 H   0  0  0  0  0  0  0  0  0  0  0  0
  1  2  2  0
  2  3  1  0
  3  4  3  0
  4  5  1  0
  6  7  2  0
  6  9  1  0
  6 10  1  0
  7  8  2  0
  8 11  1  0
  8 12  1  0
M  RAD  1   2   2
M  END
>  <reaction>  (12) 
rxn_1840

>  <mol_properties>  (12) 
{"0": {"label": "*0", "atom_type": "S2d"}, "1": {"label": "*1", "atom_type": "CS"}, "5": {"label": "*3", "atom_type": "Ct"}, "6": {"label": "*4", "atom_type": "Ct"}, "8": {"label": "*2", "atom_type": "H0"}}

>  <type>  (12) 
unop_8

>  <geom_source>  (12) 
Heuristics

$$$$

     RDKit          3D

 12 10  0  0  0  0  0  0  0  0999 V2000
   -1.5663   -1.1019    0.0770 S   0  0  0  0  0  0  0  0  0  0  0  0
   -0.2208   -0.4552    0.6883 C   0  0  0  0  0  3  0  0  0  0  0  0
    0.1491   -0.4986    2.0547 C   0  0  0  0  0  0  0  0  0  0  0  0
    0.4842   -0.5222    3.2073 C   0  0  0  0  0  0  0  0  0  0  0  0
    0.7813   -0.5431    4.2290 H   0  0  0  0  0  0  0  0  0  0  0  0
    1.1104    1.3400   -0.6558 C   0  0  0  0  0  0  0  0  0  0  0  0
    1.1104    1.3400   -1.9545 C   0  0  0  0  0  0  0  0  0  0  0  0
    1.1104    1.3400   -3.2532 C   0  0  0  0  0  0  0  0  0  0  0  0
    0.4468    0.4450    0.0143 H   0  0  0  0  0  0  0  0  0  0  0  0
    1.6634    2.0857   -0.0974 H   0  0  0  0  0  0  0  0  0  0  0  0
    0.3646    1.8930   -3.8116 H   0  0  0  0  0  0  0  0  0  0  0  0
    1.8561    0.7869   -3.8116 H   0  0  0  0  0  0  0  0  0  0  0  0
  1  2  2  0
  2  3  1  0
  3  4  3  0
  4  5  1  0
  6  7  2  0
  6  9  1  0
  6 10  1  0
  7  8  2  0
  8 11  1  0
  8 12  1  0
M  RAD  1   2   2
M  END
>  <reaction>  (13) 
rxn_1840

>  <mol_properties>  (13) 
{"0": {"label": "*0", "atom_type": "S2d"}, "1": {"label": "*1", "atom_type": "CS"}, "5": {"label": "*3", "atom_type": "Ct"}, "6": {"label": "*4", "atom_type": "Ct"}, "8": {"label": "*2", "atom_type": "H0"}}

>  <type>  (13) 
unop_9

>  <geom_source>  (13) 
Heuristics

$$$$

     RDKit          3D

 12 10  0  0  0  0  0  0  0  0999 V2000
   -0.0940   -1.9711    0.4432 S   0  0  0  0  0  0  0  0  0  0  0  0
   -0.4311   -0.4033    0.6182 C   0  0  0  0  0  3  0  0  0  0  0  0
   -0.8918    0.1963    1.8157 C   0  0  0  0  0  0  0  0  0  0  0  0
   -1.2829    0.7275    2.8187 C   0  0  0  0  0  0  0  0  0  0  0  0
   -1.6296    1.1983    3.7079 H   0  0  0  0  0  0  0  0  0  0  0  0
    0.9000    1.3918   -0.7260 C   0  0  0  0  0  0  0  0  0  0  0  0
    0.9000    1.3918   -2.0247 C   0  0  0  0  0  0  0  0  0  0  0  0
    0.9000    1.3918   -3.3233 C   0  0  0  0  0  0  0  0  0  0  0  0
    0.2364    0.4969   -0.0559 H   0  0  0  0  0  0  0  0  0  0  0  0
    1.4530    2.1376   -0.1676 H   0  0  0  0  0  0  0  0  0  0  0  0
    0.1542    1.9449   -3.8818 H   0  0  0  0  0  0  0  0  0  0  0  0
    1.6458    0.8388   -3.8818 H   0  0  0  0  0  0  0  0  0  0  0  0
  1  2  2  0
  2  3  1  0
  3  4  3  0
  4  5  1  0
  6  7  2  0
  6  9  1  0
  6 10  1  0
  7  8  2  0
  8 11  1  0
  8 12  1  0
M  RAD  1   2   2
M  END
>  <reaction>  (14) 
rxn_1840

>  <mol_properties>  (14) 
{"0": {"label": "*0", "atom_type": "S2d"}, "1": {"label": "*1", "atom_type": "CS"}, "5": {"label": "*3", "atom_type": "Ct"}, "6": {"label": "*4", "atom_type": "Ct"}, "8": {"label": "*2", "atom_type": "H0"}}

>  <type>  (14) 
unop_10

>  <geom_source>  (14) 
Heuristics

$$$$

     RDKit          3D

 12 10  0  0  0  0  0  0  0  0999 V2000
   -1.0968    0.0134    2.1250 S   0  0  0  0  0  0  0  0  0  0  0  0
   -0.4910   -0.3373    0.6717 C   0  0  0  0  0  3  0  0  0  0  0  0
    0.0430   -1.5953    0.3000 C   0  0  0  0  0  0  0  0  0  0  0  0
    0.5006   -2.6522   -0.0387 C   0  0  0  0  0  0  0  0  0  0  0  0
    0.9062   -3.5892   -0.3389 H   0  0  0  0  0  0  0  0  0  0  0  0
    0.8402    1.4578   -0.6725 C   0  0  0  0  0  0  0  0  0  0  0  0
    0.8402    1.4578   -1.9712 C   0  0  0  0  0  0  0  0  0  0  0  0
    0.8402    1.4578   -3.2698 C   0  0  0  0  0  0  0  0  0  0  0  0
    0.1766    0.5629   -0.0024 H   0  0  0  0  0  0  0  0  0  0  0  0
    1.3932    2.2035   -0.1141 H   0  0  0  0  0  0  0  0  0  0  0  0
    0.0944    2.0108   -3.8283 H   0  0  0  0  0  0  0  0  0  0  0  0
    1.5859    0.9048   -3.8283 H   0  0  0  0  0  0  0  0  0  0  0  0
  1  2  2  0
  2  3  1  0
  3  4  3  0
  4  5  1  0
  6  7  2  0
  6  9  1  0
  6 10  1  0
  7  8  2  0
  8 11  1  0
  8 12  1  0
M  RAD  1   2   2
M  END
>  <reaction>  (15) 
rxn_1840

>  <mol_properties>  (15) 
{"0": {"label": "*0", "atom_type": "S2d"}, "1": {"label": "*1", "atom_type": "CS"}, "5": {"label": "*3", "atom_type": "Ct"}, "6": {"label": "*4", "atom_type": "Ct"}, "8": {"label": "*2", "atom_type": "H0"}}

>  <type>  (15) 
unop_11

>  <geom_source>  (15) 
Heuristics

$$$$

     RDKit          3D

 12 10  0  0  0  0  0  0  0  0999 V2000
   -1.1174   -1.5068   -0.0501 S   0  0  0  0  0  0  0  0  0  0  0  0
   -0.2734   -0.3686    0.7209 C   0  0  0  0  0  3  0  0  0  0  0  0
   -0.1811   -0.2442    2.1286 C   0  0  0  0  0  0  0  0  0  0  0  0
   -0.0875   -0.1181    3.3188 C   0  0  0  0  0  0  0  0  0  0  0  0
   -0.0046   -0.0062    4.3739 H   0  0  0  0  0  0  0  0  0  0  0  0
    1.0578    1.4265   -0.6233 C   0  0  0  0  0  0  0  0  0  0  0  0
    1.0578    1.4265   -1.9220 C   0  0  0  0  0  0  0  0  0  0  0  0
    1.0578    1.4265   -3.2206 C   0  0  0  0  0  0  0  0  0  0  0  0
    0.3942    0.5316    0.0468 H   0  0  0  0  0  0  0  0  0  0  0  0
    1.6108    2.1723   -0.0649 H   0  0  0  0  0  0  0  0  0  0  0  0
    0.3120    1.9795   -3.7790 H   0  0  0  0  0  0  0  0  0  0  0  0
    1.8036    0.8735   -3.7790 H   0  0  0  0  0  0  0  0  0  0  0  0
  1  2  2  0
  2  3  1  0
  3  4  3  0
  4  5  1  0
  6  7  2  0
  6  9  1  0
  6 10  1  0
  7  8  2  0
  8 11  1  0
  8 12  1  0
M  RAD  1   2   2
M  END
>  <reaction>  (16) 
rxn_1840

>  <mol_properties>  (16) 
{"0": {"label": "*0", "atom_type": "S2d"}, "1": {"label": "*1", "atom_type": "CS"}, "5": {"label": "*3", "atom_type": "Ct"}, "6": {"label": "*4", "atom_type": "Ct"}, "8": {"label": "*2", "atom_type": "H0"}}

>  <type>  (16) 
unop_12

>  <geom_source>  (16) 
Heuristics

$$$$

     RDKit          3D

 12 10  0  0  0  0  0  0  0  0999 V2000
    1.4024    2.4613   -0.5861 S   0  0  0  0  0  0  0  0  0  0  0  0
    1.3337    0.9308   -0.0225 C   0  0  0  0  0  3  0  0  0  0  0  0
   -2.6078   -0.8792   -0.0943 C   0  0  0  0  0  0  0  0  0  0  0  0
    2.2478   -0.0589   -0.5170 C   0  0  0  0  0  0  0  0  0  0  0  0
   -1.7259   -0.2081    0.5902 C   0  0  0  0  0  0  0  0  0  0  0  0
   -0.8440    0.4630    1.2747 C   0  0  0  0  0  0  0  0  0  0  0  0
    3.0151   -0.8911   -0.9317 C   0  0  0  0  0  0  0  0  0  0  0  0
    0.4055    0.5915    0.9206 H   0  0  0  0  0  0  0  0  0  0  0  0
   -2.4868   -1.9446   -0.2348 H   0  0  0  0  0  0  0  0  0  0  0  0
   -3.4610   -0.3708   -0.5222 H   0  0  0  0  0  0  0  0  0  0  0  0
    3.6888   -1.6216   -1.2958 H   0  0  0  0  0  0  0  0  0  0  0  0
   -0.9678    1.5276    1.4192 H   0  0  0  0  0  0  0  0  0  0  0  0
  1  2  2  0
  2  4  1  0
  3  5  2  0
  3  9  1  0
  3 10  1  0
  4  7  3  0
  5  6  2  0
  6  8  1  0
  6 12  1  0
  7 11  1  0
M  RAD  1   2   2
M  END
>  <reaction>  (17) 
rxn_1840

>  <mol_properties>  (17) 
{"0": {"label": "*0", "atom_type": "S2d"}, "1": {"label": "*1", "atom_type": "CS"}, "5": {"label": "*3", "atom_type": "Ct"}, "6": {"label": "*4", "atom_type": "Ct"}, "8": {"label": "*2", "atom_type": "H0"}}

>  <type>  (17) 
unop_13

>  <geom_source>  (17) 
AutoTST

$$$$
