
     RDKit          3D

 15 15  0  0  0  0  0  0  0  0999 V2000
    2.2031   -0.2111   -0.1693 C   0  0  0  0  0  0  0  0  0  0  0  0
    0.7140   -0.0314   -0.0623 C   0  0  0  0  0  0  0  0  0  0  0  0
   -0.0114    0.5491   -1.0982 C   0  0  0  0  0  0  0  0  0  0  0  0
   -1.3882    0.6886   -1.0150 C   0  0  0  0  0  0  0  0  0  0  0  0
   -2.0661    0.2493    0.1118 C   0  0  0  0  0  0  0  0  0  0  0  0
   -1.3551   -0.3278    1.1528 C   0  0  0  0  0  0  0  0  0  0  0  0
    0.0216   -0.4648    1.0642 C   0  0  0  0  0  0  0  0  0  0  0  0
    2.6776   -0.1836    0.8122 H   0  0  0  0  0  0  0  0  0  0  0  0
    2.4446   -1.1749   -0.6249 H   0  0  0  0  0  0  0  0  0  0  0  0
    2.6532    0.5664   -0.7875 H   0  0  0  0  0  0  0  0  0  0  0  0
    0.5104    0.8989   -1.9819 H   0  0  0  0  0  0  0  0  0  0  0  0
   -1.9328    1.1452   -1.8322 H   0  0  0  0  0  0  0  0  0  0  0  0
   -3.1409    0.3597    0.1800 H   0  0  0  0  0  0  0  0  0  0  0  0
   -1.8736   -0.6702    2.0398 H   0  0  0  0  0  0  0  0  0  0  0  0
    0.5695   -0.9141    1.8849 H   0  0  0  0  0  0  0  0  0  0  0  0
  1  2  1  0
  1  8  1  0
  1  9  1  0
  1 10  1  0
  2  3  2  0
  2  7  1  0
  3  4  1  0
  3 11  1  0
  4  5  2  0
  4 12  1  0
  5  6  1  0
  5 13  1  0
  6  7  2  0
  6 14  1  0
  7 15  1  0
M  END
>  <reaction>  (1) 
rxn_259

>  <mol_properties>  (1) 
{"4": {"label": "donator", "atom_type": "Cd"}, "11": {"label": "d_hydrogen", "atom_type": "H0"}}

>  <type>  (1) 
r1h

$$$$

     RDKit          3D

  2  1  0  0  0  0  0  0  0  0999 V2000
    0.0000    0.0000    0.4855 O   0  0  0  0  0  1  0  0  0  0  0  0
    0.0000    0.0000   -0.4855 H   0  0  0  0  0  0  0  0  0  0  0  0
  1  2  1  0
M  RAD  1   1   2
M  END
>  <reaction>  (2) 
rxn_259

>  <mol_properties>  (2) 
{"0": {"label": "acceptor", "atom_type": "O2s"}}

>  <type>  (2) 
r2

$$$$

     RDKit          3D

  3  2  0  0  0  0  0  0  0  0999 V2000
   -0.0003    0.3867    0.0000 O   0  0  0  0  0  0  0  0  0  0  0  0
   -0.7617   -0.1940    0.0000 H   0  0  0  0  0  0  0  0  0  0  0  0
    0.7620   -0.1927    0.0000 H   0  0  0  0  0  0  0  0  0  0  0  0
  1  2  1  0
  1  3  1  0
M  END
>  <reaction>  (3) 
rxn_259

>  <mol_properties>  (3) 
{"0": {"label": "acceptor", "atom_type": "O2s"}, "1": {"label": "a_hydrogen", "atom_type": "H0"}}

>  <type>  (3) 
r2h

$$$$

     RDKit          3D

 17 16  0  0  0  0  0  0  0  0999 V2000
    3.1089   -0.0059   -2.0067 O   0  0  0  0  0  1  0  0  0  0  0  0
   -2.4386    0.7010   -0.3416 C   0  0  0  0  0  0  0  0  0  0  0  0
   -1.0784    0.2052    0.0637 C   0  0  0  0  0  0  0  0  0  0  0  0
   -0.0185    0.2199   -0.8430 C   0  0  0  0  0  0  0  0  0  0  0  0
   -0.8475   -0.3013    1.3393 C   0  0  0  0  0  0  0  0  0  0  0  0
    1.2046   -0.2773   -0.4532 C   0  0  0  0  0  0  0  0  0  0  0  0
    1.4520   -0.7767    0.8067 C   0  0  0  0  0  0  0  0  0  0  0  0
    0.3973   -0.7876    1.7107 C   0  0  0  0  0  0  0  0  0  0  0  0
   -3.0134    1.0311    0.5238 H   0  0  0  0  0  0  0  0  0  0  0  0
   -2.3642    1.5342   -1.0411 H   0  0  0  0  0  0  0  0  0  0  0  0
   -3.0063   -0.0924   -0.8339 H   0  0  0  0  0  0  0  0  0  0  0  0
   -0.1582    0.6114   -1.8436 H   0  0  0  0  0  0  0  0  0  0  0  0
    2.1138   -0.2904   -1.2783 H   0  0  0  0  0  0  0  0  0  0  0  0
    2.4301   -1.1502    1.0788 H   0  0  0  0  0  0  0  0  0  0  0  0
    0.5493   -1.1741    2.7108 H   0  0  0  0  0  0  0  0  0  0  0  0
   -1.6586   -0.3124    2.0582 H   0  0  0  0  0  0  0  0  0  0  0  0
    3.3277    0.8657   -1.6506 H   0  0  0  0  0  0  0  0  0  0  0  0
  1 17  1  0
  2  3  1  0
  2  9  1  0
  2 10  1  0
  2 11  1  0
  3  4  2  0
  3  5  1  0
  4  6  1  0
  4 12  1  0
  5  8  2  0
  5 16  1  0
  6  7  2  0
  6 13  1  0
  7  8  1  0
  7 14  1  0
  8 15  1  0
M  RAD  1   1   2
M  END
>  <reaction>  (4) 
rxn_259

>  <mol_properties>  (4) 
{"0": {"label": "*3", "atom_type": "O2s"}, "3": {"label": "*0", "atom_type": "Cd"}, "5": {"label": "*1", "atom_type": "Cd"}, "12": {"label": "*2", "atom_type": "H0"}, "16": {"label": "*4", "atom_type": "H0"}}

>  <type>  (4) 
ts

$$$$

     RDKit          3D

 17 16  0  0  0  0  0  0  0  0999 V2000
    0.0322   -0.5205   -2.8227 C   0  0  0  0  0  0  0  0  0  0  0  0
    0.0322   -0.5205   -1.3189 C   0  0  0  0  0  0  0  0  0  0  0  0
    0.0322    0.6738   -0.6049 C   0  0  0  0  0  0  0  0  0  0  0  0
    0.0018    0.6772    0.7811 C   0  0  0  0  0  3  0  0  0  0  0  0
   -0.0278   -0.5198    1.4801 C   0  0  0  0  0  0  0  0  0  0  0  0
   -0.0246   -1.7172    0.7811 C   0  0  0  0  0  0  0  0  0  0  0  0
    0.0059   -1.7145   -0.6049 C   0  0  0  0  0  0  0  0  0  0  0  0
    0.5238   -1.4094   -3.2194 H   0  0  0  0  0  0  0  0  0  0  0  0
   -0.9900   -0.5092   -3.2094 H   0  0  0  0  0  0  0  0  0  0  0  0
    0.5433    0.3574   -3.2194 H   0  0  0  0  0  0  0  0  0  0  0  0
    0.0588    1.6149   -1.1427 H   0  0  0  0  0  0  0  0  0  0  0  0
    0.0050    1.8066    1.4240 H   0  0  0  0  0  0  0  0  0  0  0  0
   -0.0489   -0.5196    2.5625 H   0  0  0  0  0  0  0  0  0  0  0  0
   -0.0427   -2.6582    1.3168 H   0  0  0  0  0  0  0  0  0  0  0  0
    0.0117   -2.6560   -1.1427 H   0  0  0  0  0  0  0  0  0  0  0  0
    0.0078    2.8053    1.9924 O   0  0  0  0  0  0  0  0  0  0  0  0
   -0.8030    2.8108    2.5018 H   0  0  0  0  0  0  0  0  0  0  0  0
  1  2  1  0
  1  8  1  0
  1  9  1  0
  1 10  1  0
  2  7  2  0
  2  3  1  0
  3  4  2  0
  3 11  1  0
  4  5  1  0
  5  6  2  0
  5 13  1  0
  6  7  1  0
  6 14  1  0
  7 15  1  0
 12 16  1  0
 16 17  1  0
M  RAD  1   4   2
M  END
>  <reaction>  (5) 
rxn_259

>  <mol_properties>  (5) 
{"0": {"label": "*3", "atom_type": "O2s"}, "3": {"label": "*0", "atom_type": "Cd"}, "5": {"label": "*1", "atom_type": "Cd"}, "12": {"label": "*2", "atom_type": "H0"}, "16": {"label": "*4", "atom_type": "H0"}}

>  <type>  (5) 
unop_1

>  <geom_source>  (5) 
Heuristics

$$$$

     RDKit          3D

 17 16  0  0  0  0  0  0  0  0999 V2000
    0.0288   -0.5262   -2.8126 C   0  0  0  0  0  0  0  0  0  0  0  0
    0.0288   -0.5262   -1.3089 C   0  0  0  0  0  0  0  0  0  0  0  0
    0.0288    0.6681   -0.5948 C   0  0  0  0  0  0  0  0  0  0  0  0
   -0.0017    0.6715    0.7912 C   0  0  0  0  0  3  0  0  0  0  0  0
   -0.0312   -0.5255    1.4902 C   0  0  0  0  0  0  0  0  0  0  0  0
   -0.0281   -1.7229    0.7912 C   0  0  0  0  0  0  0  0  0  0  0  0
    0.0025   -1.7202   -0.5948 C   0  0  0  0  0  0  0  0  0  0  0  0
    0.5204   -1.4151   -3.2093 H   0  0  0  0  0  0  0  0  0  0  0  0
   -0.9934   -0.5150   -3.1994 H   0  0  0  0  0  0  0  0  0  0  0  0
    0.5398    0.3517   -3.2093 H   0  0  0  0  0  0  0  0  0  0  0  0
    0.0554    1.6092   -1.1326 H   0  0  0  0  0  0  0  0  0  0  0  0
    0.0015    1.8009    1.4340 H   0  0  0  0  0  0  0  0  0  0  0  0
   -0.0523   -0.5253    2.5726 H   0  0  0  0  0  0  0  0  0  0  0  0
   -0.0462   -2.6640    1.3269 H   0  0  0  0  0  0  0  0  0  0  0  0
    0.0083   -2.6617   -1.1326 H   0  0  0  0  0  0  0  0  0  0  0  0
    0.0043    2.7996    2.0024 O   0  0  0  0  0  0  0  0  0  0  0  0
   -0.4351    3.4233    1.4238 H   0  0  0  0  0  0  0  0  0  0  0  0
  1  2  1  0
  1  8  1  0
  1  9  1  0
  1 10  1  0
  2  7  2  0
  2  3  1  0
  3  4  2  0
  3 11  1  0
  4  5  1  0
  5  6  2  0
  5 13  1  0
  6  7  1  0
  6 14  1  0
  7 15  1  0
 12 16  1  0
 16 17  1  0
M  RAD  1   4   2
M  END
>  <reaction>  (6) 
rxn_259

>  <mol_properties>  (6) 
{"0": {"label": "*3", "atom_type": "O2s"}, "3": {"label": "*0", "atom_type": "Cd"}, "5": {"label": "*1", "atom_type": "Cd"}, "12": {"label": "*2", "atom_type": "H0"}, "16": {"label": "*4", "atom_type": "H0"}}

>  <type>  (6) 
unop_2

>  <geom_source>  (6) 
Heuristics

$$$$

     RDKit          3D

 17 16  0  0  0  0  0  0  0  0999 V2000
    0.0292   -0.5189   -2.8254 C   0  0  0  0  0  0  0  0  0  0  0  0
    0.0292   -0.5189   -1.3217 C   0  0  0  0  0  0  0  0  0  0  0  0
    0.0292    0.6754   -0.6077 C   0  0  0  0  0  0  0  0  0  0  0  0
   -0.0013    0.6788    0.7783 C   0  0  0  0  0  3  0  0  0  0  0  0
   -0.0308   -0.5182    1.4774 C   0  0  0  0  0  0  0  0  0  0  0  0
   -0.0277   -1.7156    0.7783 C   0  0  0  0  0  0  0  0  0  0  0  0
    0.0029   -1.7129   -0.6077 C   0  0  0  0  0  0  0  0  0  0  0  0
    0.5208   -1.4078   -3.2222 H   0  0  0  0  0  0  0  0  0  0  0  0
   -0.9930   -0.5076   -3.2122 H   0  0  0  0  0  0  0  0  0  0  0  0
    0.5402    0.3590   -3.2222 H   0  0  0  0  0  0  0  0  0  0  0  0
    0.0558    1.6165   -1.1455 H   0  0  0  0  0  0  0  0  0  0  0  0
    0.0019    1.8082    1.4212 H   0  0  0  0  0  0  0  0  0  0  0  0
   -0.0520   -0.5180    2.5597 H   0  0  0  0  0  0  0  0  0  0  0  0
   -0.0458   -2.6567    1.3141 H   0  0  0  0  0  0  0  0  0  0  0  0
    0.0087   -2.6544   -1.1455 H   0  0  0  0  0  0  0  0  0  0  0  0
    0.0047    2.8069    1.9896 O   0  0  0  0  0  0  0  0  0  0  0  0
   -0.4774    2.6401    2.8000 H   0  0  0  0  0  0  0  0  0  0  0  0
  1  2  1  0
  1  8  1  0
  1  9  1  0
  1 10  1  0
  2  7  2  0
  2  3  1  0
  3  4  2  0
  3 11  1  0
  4  5  1  0
  5  6  2  0
  5 13  1  0
  6  7  1  0
  6 14  1  0
  7 15  1  0
 12 16  1  0
 16 17  1  0
M  RAD  1   4   2
M  END
>  <reaction>  (7) 
rxn_259

>  <mol_properties>  (7) 
{"0": {"label": "*3", "atom_type": "O2s"}, "3": {"label": "*0", "atom_type": "Cd"}, "5": {"label": "*1", "atom_type": "Cd"}, "12": {"label": "*2", "atom_type": "H0"}, "16": {"label": "*4", "atom_type": "H0"}}

>  <type>  (7) 
unop_3

>  <geom_source>  (7) 
Heuristics

$$$$

     RDKit          3D

 17 16  0  0  0  0  0  0  0  0999 V2000
    0.0172   -0.5245   -2.8156 C   0  0  0  0  0  0  0  0  0  0  0  0
    0.0172   -0.5245   -1.3118 C   0  0  0  0  0  0  0  0  0  0  0  0
    0.0172    0.6698   -0.5978 C   0  0  0  0  0  0  0  0  0  0  0  0
   -0.0132    0.6732    0.7882 C   0  0  0  0  0  3  0  0  0  0  0  0
   -0.0428   -0.5238    1.4872 C   0  0  0  0  0  0  0  0  0  0  0  0
   -0.0396   -1.7212    0.7882 C   0  0  0  0  0  0  0  0  0  0  0  0
   -0.0091   -1.7185   -0.5978 C   0  0  0  0  0  0  0  0  0  0  0  0
    0.5088   -1.4134   -3.2123 H   0  0  0  0  0  0  0  0  0  0  0  0
   -1.0050   -0.5132   -3.2023 H   0  0  0  0  0  0  0  0  0  0  0  0
    0.5283    0.3534   -3.2123 H   0  0  0  0  0  0  0  0  0  0  0  0
    0.0438    1.6109   -1.1356 H   0  0  0  0  0  0  0  0  0  0  0  0
   -0.0100    1.8026    1.4311 H   0  0  0  0  0  0  0  0  0  0  0  0
   -0.0639   -0.5236    2.5696 H   0  0  0  0  0  0  0  0  0  0  0  0
   -0.0577   -2.6622    1.3239 H   0  0  0  0  0  0  0  0  0  0  0  0
   -0.0033   -2.6600   -1.1356 H   0  0  0  0  0  0  0  0  0  0  0  0
   -0.0072    2.8013    1.9995 O   0  0  0  0  0  0  0  0  0  0  0  0
    0.8048    3.2387    1.7421 H   0  0  0  0  0  0  0  0  0  0  0  0
  1  2  1  0
  1  8  1  0
  1  9  1  0
  1 10  1  0
  2  7  2  0
  2  3  1  0
  3  4  2  0
  3 11  1  0
  4  5  1  0
  5  6  2  0
  5 13  1  0
  6  7  1  0
  6 14  1  0
  7 15  1  0
 12 16  1  0
 16 17  1  0
M  RAD  1   4   2
M  END
>  <reaction>  (8) 
rxn_259

>  <mol_properties>  (8) 
{"0": {"label": "*3", "atom_type": "O2s"}, "3": {"label": "*0", "atom_type": "Cd"}, "5": {"label": "*1", "atom_type": "Cd"}, "12": {"label": "*2", "atom_type": "H0"}, "16": {"label": "*4", "atom_type": "H0"}}

>  <type>  (8) 
unop_4

>  <geom_source>  (8) 
Heuristics

$$$$

     RDKit          3D

 17 16  0  0  0  0  0  0  0  0999 V2000
    0.0250   -0.5183   -2.8265 C   0  0  0  0  0  0  0  0  0  0  0  0
    0.0250   -0.5183   -1.3228 C   0  0  0  0  0  0  0  0  0  0  0  0
    0.0250    0.6760   -0.6087 C   0  0  0  0  0  0  0  0  0  0  0  0
   -0.0055    0.6794    0.7772 C   0  0  0  0  0  3  0  0  0  0  0  0
   -0.0350   -0.5176    1.4763 C   0  0  0  0  0  0  0  0  0  0  0  0
   -0.0319   -1.7150    0.7772 C   0  0  0  0  0  0  0  0  0  0  0  0
   -0.0014   -1.7123   -0.6087 C   0  0  0  0  0  0  0  0  0  0  0  0
    0.5165   -1.4072   -3.2233 H   0  0  0  0  0  0  0  0  0  0  0  0
   -0.9973   -0.5070   -3.2133 H   0  0  0  0  0  0  0  0  0  0  0  0
    0.5360    0.3596   -3.2233 H   0  0  0  0  0  0  0  0  0  0  0  0
    0.0516    1.6171   -1.1466 H   0  0  0  0  0  0  0  0  0  0  0  0
   -0.0023    1.8089    1.4201 H   0  0  0  0  0  0  0  0  0  0  0  0
   -0.0562   -0.5174    2.5586 H   0  0  0  0  0  0  0  0  0  0  0  0
   -0.0500   -2.6560    1.3130 H   0  0  0  0  0  0  0  0  0  0  0  0
    0.0045   -2.6538   -1.1466 H   0  0  0  0  0  0  0  0  0  0  0  0
    0.0005    2.8075    1.9885 O   0  0  0  0  0  0  0  0  0  0  0  0
   -0.0235    2.5726    2.9165 H   0  0  0  0  0  0  0  0  0  0  0  0
  1  2  1  0
  1  8  1  0
  1  9  1  0
  1 10  1  0
  2  7  2  0
  2  3  1  0
  3  4  2  0
  3 11  1  0
  4  5  1  0
  5  6  2  0
  5 13  1  0
  6  7  1  0
  6 14  1  0
  7 15  1  0
 12 16  1  0
 16 17  1  0
M  RAD  1   4   2
M  END
>  <reaction>  (9) 
rxn_259

>  <mol_properties>  (9) 
{"0": {"label": "*3", "atom_type": "O2s"}, "3": {"label": "*0", "atom_type": "Cd"}, "5": {"label": "*1", "atom_type": "Cd"}, "12": {"label": "*2", "atom_type": "H0"}, "16": {"label": "*4", "atom_type": "H0"}}

>  <type>  (9) 
unop_5

>  <geom_source>  (9) 
Heuristics

$$$$

     RDKit          3D

 17 16  0  0  0  0  0  0  0  0999 V2000
    0.0162   -0.5224   -2.8193 C   0  0  0  0  0  0  0  0  0  0  0  0
    0.0162   -0.5224   -1.3156 C   0  0  0  0  0  0  0  0  0  0  0  0
    0.0162    0.6720   -0.6015 C   0  0  0  0  0  0  0  0  0  0  0  0
   -0.0142    0.6753    0.7845 C   0  0  0  0  0  3  0  0  0  0  0  0
   -0.0438   -0.5217    1.4835 C   0  0  0  0  0  0  0  0  0  0  0  0
   -0.0407   -1.7191    0.7845 C   0  0  0  0  0  0  0  0  0  0  0  0
   -0.0101   -1.7164   -0.6015 C   0  0  0  0  0  0  0  0  0  0  0  0
    0.5078   -1.4113   -3.2160 H   0  0  0  0  0  0  0  0  0  0  0  0
   -1.0060   -0.5111   -3.2061 H   0  0  0  0  0  0  0  0  0  0  0  0
    0.5272    0.3555   -3.2160 H   0  0  0  0  0  0  0  0  0  0  0  0
    0.0428    1.6131   -1.1393 H   0  0  0  0  0  0  0  0  0  0  0  0
   -0.0111    1.8048    1.4273 H   0  0  0  0  0  0  0  0  0  0  0  0
   -0.0649   -0.5215    2.5659 H   0  0  0  0  0  0  0  0  0  0  0  0
   -0.0588   -2.6601    1.3202 H   0  0  0  0  0  0  0  0  0  0  0  0
   -0.0043   -2.6578   -1.1393 H   0  0  0  0  0  0  0  0  0  0  0  0
   -0.0083    2.8034    1.9957 O   0  0  0  0  0  0  0  0  0  0  0  0
    0.9151    3.0107    2.1421 H   0  0  0  0  0  0  0  0  0  0  0  0
  1  2  1  0
  1  8  1  0
  1  9  1  0
  1 10  1  0
  2  7  2  0
  2  3  1  0
  3  4  2  0
  3 11  1  0
  4  5  1  0
  5  6  2  0
  5 13  1  0
  6  7  1  0
  6 14  1  0
  7 15  1  0
 12 16  1  0
 16 17  1  0
M  RAD  1   4   2
M  END
>  <reaction>  (10) 
rxn_259

>  <mol_properties>  (10) 
{"0": {"label": "*3", "atom_type": "O2s"}, "3": {"label": "*0", "atom_type": "Cd"}, "5": {"label": "*1", "atom_type": "Cd"}, "12": {"label": "*2", "atom_type": "H0"}, "16": {"label": "*4", "atom_type": "H0"}}

>  <type>  (10) 
unop_6

>  <geom_source>  (10) 
Heuristics

$$$$

     RDKit          3D

 17 16  0  0  0  0  0  0  0  0999 V2000
    0.0175   -0.5203   -2.8230 C   0  0  0  0  0  0  0  0  0  0  0  0
    0.0175   -0.5203   -1.3192 C   0  0  0  0  0  0  0  0  0  0  0  0
    0.0175    0.6741   -0.6052 C   0  0  0  0  0  0  0  0  0  0  0  0
   -0.0130    0.6774    0.7808 C   0  0  0  0  0  3  0  0  0  0  0  0
   -0.0425   -0.5196    1.4798 C   0  0  0  0  0  0  0  0  0  0  0  0
   -0.0394   -1.7170    0.7808 C   0  0  0  0  0  0  0  0  0  0  0  0
   -0.0089   -1.7143   -0.6052 C   0  0  0  0  0  0  0  0  0  0  0  0
    0.5090   -1.4092   -3.2197 H   0  0  0  0  0  0  0  0  0  0  0  0
   -1.0048   -0.5090   -3.2097 H   0  0  0  0  0  0  0  0  0  0  0  0
    0.5285    0.3576   -3.2197 H   0  0  0  0  0  0  0  0  0  0  0  0
    0.0441    1.6152   -1.1430 H   0  0  0  0  0  0  0  0  0  0  0  0
   -0.0098    1.8069    1.4237 H   0  0  0  0  0  0  0  0  0  0  0  0
   -0.0637   -0.5194    2.5622 H   0  0  0  0  0  0  0  0  0  0  0  0
   -0.0575   -2.6580    1.3165 H   0  0  0  0  0  0  0  0  0  0  0  0
   -0.0030   -2.6558   -1.1430 H   0  0  0  0  0  0  0  0  0  0  0  0
   -0.0070    2.8055    1.9921 O   0  0  0  0  0  0  0  0  0  0  0  0
    0.7804    2.7865    2.5367 H   0  0  0  0  0  0  0  0  0  0  0  0
  1  2  1  0
  1  8  1  0
  1  9  1  0
  1 10  1  0
  2  7  2  0
  2  3  1  0
  3  4  2  0
  3 11  1  0
  4  5  1  0
  5  6  2  0
  5 13  1  0
  6  7  1  0
  6 14  1  0
  7 15  1  0
 12 16  1  0
 16 17  1  0
M  RAD  1   4   2
M  END
>  <reaction>  (11) 
rxn_259

>  <mol_properties>  (11) 
{"0": {"label": "*3", "atom_type": "O2s"}, "3": {"label": "*0", "atom_type": "Cd"}, "5": {"label": "*1", "atom_type": "Cd"}, "12": {"label": "*2", "atom_type": "H0"}, "16": {"label": "*4", "atom_type": "H0"}}

>  <type>  (11) 
unop_7

>  <geom_source>  (11) 
Heuristics

$$$$

     RDKit          3D

 17 16  0  0  0  0  0  0  0  0999 V2000
    0.0333   -0.5226   -2.8189 C   0  0  0  0  0  0  0  0  0  0  0  0
    0.0333   -0.5226   -1.3152 C   0  0  0  0  0  0  0  0  0  0  0  0
    0.0333    0.6717   -0.6011 C   0  0  0  0  0  0  0  0  0  0  0  0
    0.0028    0.6751    0.7848 C   0  0  0  0  0  3  0  0  0  0  0  0
   -0.0267   -0.5220    1.4839 C   0  0  0  0  0  0  0  0  0  0  0  0
   -0.0236   -1.7193    0.7848 C   0  0  0  0  0  0  0  0  0  0  0  0
    0.0069   -1.7166   -0.6011 C   0  0  0  0  0  0  0  0  0  0  0  0
    0.5248   -1.4116   -3.2157 H   0  0  0  0  0  0  0  0  0  0  0  0
   -0.9890   -0.5114   -3.2057 H   0  0  0  0  0  0  0  0  0  0  0  0
    0.5443    0.3553   -3.2157 H   0  0  0  0  0  0  0  0  0  0  0  0
    0.0599    1.6128   -1.1390 H   0  0  0  0  0  0  0  0  0  0  0  0
    0.0060    1.8045    1.4277 H   0  0  0  0  0  0  0  0  0  0  0  0
   -0.0479   -0.5217    2.5662 H   0  0  0  0  0  0  0  0  0  0  0  0
   -0.0417   -2.6604    1.3206 H   0  0  0  0  0  0  0  0  0  0  0  0
    0.0128   -2.6581   -1.1390 H   0  0  0  0  0  0  0  0  0  0  0  0
    0.0088    2.8032    1.9961 O   0  0  0  0  0  0  0  0  0  0  0  0
   -0.9133    3.0387    2.1018 H   0  0  0  0  0  0  0  0  0  0  0  0
  1  2  1  0
  1  8  1  0
  1  9  1  0
  1 10  1  0
  2  7  2  0
  2  3  1  0
  3  4  2  0
  3 11  1  0
  4  5  1  0
  5  6  2  0
  5 13  1  0
  6  7  1  0
  6 14  1  0
  7 15  1  0
 12 16  1  0
 16 17  1  0
M  RAD  1   4   2
M  END
>  <reaction>  (12) 
rxn_259

>  <mol_properties>  (12) 
{"0": {"label": "*3", "atom_type": "O2s"}, "3": {"label": "*0", "atom_type": "Cd"}, "5": {"label": "*1", "atom_type": "Cd"}, "12": {"label": "*2", "atom_type": "H0"}, "16": {"label": "*4", "atom_type": "H0"}}

>  <type>  (12) 
unop_8

>  <geom_source>  (12) 
Heuristics

$$$$

     RDKit          3D

 17 16  0  0  0  0  0  0  0  0999 V2000
    0.0203   -0.5261   -2.8128 C   0  0  0  0  0  0  0  0  0  0  0  0
    0.0203   -0.5261   -1.3091 C   0  0  0  0  0  0  0  0  0  0  0  0
    0.0203    0.6682   -0.5950 C   0  0  0  0  0  0  0  0  0  0  0  0
   -0.0102    0.6716    0.7910 C   0  0  0  0  0  3  0  0  0  0  0  0
   -0.0397   -0.5254    1.4900 C   0  0  0  0  0  0  0  0  0  0  0  0
   -0.0366   -1.7228    0.7910 C   0  0  0  0  0  0  0  0  0  0  0  0
   -0.0061   -1.7201   -0.5950 C   0  0  0  0  0  0  0  0  0  0  0  0
    0.5118   -1.4150   -3.2095 H   0  0  0  0  0  0  0  0  0  0  0  0
   -1.0020   -0.5148   -3.1995 H   0  0  0  0  0  0  0  0  0  0  0  0
    0.5313    0.3518   -3.2095 H   0  0  0  0  0  0  0  0  0  0  0  0
    0.0469    1.6093   -1.1328 H   0  0  0  0  0  0  0  0  0  0  0  0
   -0.0070    1.8010    1.4338 H   0  0  0  0  0  0  0  0  0  0  0  0
   -0.0609   -0.5252    2.5724 H   0  0  0  0  0  0  0  0  0  0  0  0
   -0.0547   -2.6638    1.3267 H   0  0  0  0  0  0  0  0  0  0  0  0
   -0.0002   -2.6616   -1.1328 H   0  0  0  0  0  0  0  0  0  0  0  0
   -0.0042    2.7997    2.0023 O   0  0  0  0  0  0  0  0  0  0  0  0
    0.4791    3.4093    1.4439 H   0  0  0  0  0  0  0  0  0  0  0  0
  1  2  1  0
  1  8  1  0
  1  9  1  0
  1 10  1  0
  2  7  2  0
  2  3  1  0
  3  4  2  0
  3 11  1  0
  4  5  1  0
  5  6  2  0
  5 13  1  0
  6  7  1  0
  6 14  1  0
  7 15  1  0
 12 16  1  0
 16 17  1  0
M  RAD  1   4   2
M  END
>  <reaction>  (13) 
rxn_259

>  <mol_properties>  (13) 
{"0": {"label": "*3", "atom_type": "O2s"}, "3": {"label": "*0", "atom_type": "Cd"}, "5": {"label": "*1", "atom_type": "Cd"}, "12": {"label": "*2", "atom_type": "H0"}, "16": {"label": "*4", "atom_type": "H0"}}

>  <type>  (13) 
unop_9

>  <geom_source>  (13) 
Heuristics

$$$$

     RDKit          3D

 17 16  0  0  0  0  0  0  0  0999 V2000
    0.0320   -0.5247   -2.8152 C   0  0  0  0  0  0  0  0  0  0  0  0
    0.0320   -0.5247   -1.3115 C   0  0  0  0  0  0  0  0  0  0  0  0
    0.0320    0.6696   -0.5975 C   0  0  0  0  0  0  0  0  0  0  0  0
    0.0015    0.6730    0.7885 C   0  0  0  0  0  3  0  0  0  0  0  0
   -0.0280   -0.5240    1.4876 C   0  0  0  0  0  0  0  0  0  0  0  0
   -0.0249   -1.7214    0.7885 C   0  0  0  0  0  0  0  0  0  0  0  0
    0.0057   -1.7187   -0.5975 C   0  0  0  0  0  0  0  0  0  0  0  0
    0.5236   -1.4136   -3.2120 H   0  0  0  0  0  0  0  0  0  0  0  0
   -0.9902   -0.5135   -3.2020 H   0  0  0  0  0  0  0  0  0  0  0  0
    0.5430    0.3532   -3.2120 H   0  0  0  0  0  0  0  0  0  0  0  0
    0.0586    1.6107   -1.1353 H   0  0  0  0  0  0  0  0  0  0  0  0
    0.0047    1.8024    1.4314 H   0  0  0  0  0  0  0  0  0  0  0  0
   -0.0491   -0.5238    2.5699 H   0  0  0  0  0  0  0  0  0  0  0  0
   -0.0430   -2.6625    1.3242 H   0  0  0  0  0  0  0  0  0  0  0  0
    0.0115   -2.6602   -1.1353 H   0  0  0  0  0  0  0  0  0  0  0  0
    0.0075    2.8011    1.9998 O   0  0  0  0  0  0  0  0  0  0  0  0
   -0.7786    3.2630    1.7073 H   0  0  0  0  0  0  0  0  0  0  0  0
  1  2  1  0
  1  8  1  0
  1  9  1  0
  1 10  1  0
  2  7  2  0
  2  3  1  0
  3  4  2  0
  3 11  1  0
  4  5  1  0
  5  6  2  0
  5 13  1  0
  6  7  1  0
  6 14  1  0
  7 15  1  0
 12 16  1  0
 16 17  1  0
M  RAD  1   4   2
M  END
>  <reaction>  (14) 
rxn_259

>  <mol_properties>  (14) 
{"0": {"label": "*3", "atom_type": "O2s"}, "3": {"label": "*0", "atom_type": "Cd"}, "5": {"label": "*1", "atom_type": "Cd"}, "12": {"label": "*2", "atom_type": "H0"}, "16": {"label": "*4", "atom_type": "H0"}}

>  <type>  (14) 
unop_10

>  <geom_source>  (14) 
Heuristics

$$$$

     RDKit          3D

 17 16  0  0  0  0  0  0  0  0999 V2000
    0.0207   -0.5188   -2.8256 C   0  0  0  0  0  0  0  0  0  0  0  0
    0.0207   -0.5188   -1.3219 C   0  0  0  0  0  0  0  0  0  0  0  0
    0.0207    0.6755   -0.6078 C   0  0  0  0  0  0  0  0  0  0  0  0
   -0.0098    0.6789    0.7781 C   0  0  0  0  0  3  0  0  0  0  0  0
   -0.0393   -0.5181    1.4772 C   0  0  0  0  0  0  0  0  0  0  0  0
   -0.0362   -1.7155    0.7781 C   0  0  0  0  0  0  0  0  0  0  0  0
   -0.0057   -1.7128   -0.6078 C   0  0  0  0  0  0  0  0  0  0  0  0
    0.5122   -1.4077   -3.2224 H   0  0  0  0  0  0  0  0  0  0  0  0
   -1.0016   -0.5075   -3.2124 H   0  0  0  0  0  0  0  0  0  0  0  0
    0.5317    0.3591   -3.2224 H   0  0  0  0  0  0  0  0  0  0  0  0
    0.0473    1.6166   -1.1457 H   0  0  0  0  0  0  0  0  0  0  0  0
   -0.0066    1.8084    1.4210 H   0  0  0  0  0  0  0  0  0  0  0  0
   -0.0605   -0.5179    2.5595 H   0  0  0  0  0  0  0  0  0  0  0  0
   -0.0543   -2.6565    1.3139 H   0  0  0  0  0  0  0  0  0  0  0  0
    0.0002   -2.6543   -1.1457 H   0  0  0  0  0  0  0  0  0  0  0  0
   -0.0038    2.8070    1.9894 O   0  0  0  0  0  0  0  0  0  0  0  0
    0.4368    2.6261    2.8201 H   0  0  0  0  0  0  0  0  0  0  0  0
  1  2  1  0
  1  8  1  0
  1  9  1  0
  1 10  1  0
  2  7  2  0
  2  3  1  0
  3  4  2  0
  3 11  1  0
  4  5  1  0
  5  6  2  0
  5 13  1  0
  6  7  1  0
  6 14  1  0
  7 15  1  0
 12 16  1  0
 16 17  1  0
M  RAD  1   4   2
M  END
>  <reaction>  (15) 
rxn_259

>  <mol_properties>  (15) 
{"0": {"label": "*3", "atom_type": "O2s"}, "3": {"label": "*0", "atom_type": "Cd"}, "5": {"label": "*1", "atom_type": "Cd"}, "12": {"label": "*2", "atom_type": "H0"}, "16": {"label": "*4", "atom_type": "H0"}}

>  <type>  (15) 
unop_11

>  <geom_source>  (15) 
Heuristics

$$$$

     RDKit          3D

 17 16  0  0  0  0  0  0  0  0999 V2000
    0.0245   -0.5267   -2.8117 C   0  0  0  0  0  0  0  0  0  0  0  0
    0.0245   -0.5267   -1.3080 C   0  0  0  0  0  0  0  0  0  0  0  0
    0.0245    0.6676   -0.5939 C   0  0  0  0  0  0  0  0  0  0  0  0
   -0.0059    0.6710    0.7921 C   0  0  0  0  0  3  0  0  0  0  0  0
   -0.0355   -0.5260    1.4911 C   0  0  0  0  0  0  0  0  0  0  0  0
   -0.0324   -1.7234    0.7921 C   0  0  0  0  0  0  0  0  0  0  0  0
   -0.0018   -1.7207   -0.5939 C   0  0  0  0  0  0  0  0  0  0  0  0
    0.5161   -1.4156   -3.2084 H   0  0  0  0  0  0  0  0  0  0  0  0
   -0.9977   -0.5155   -3.1985 H   0  0  0  0  0  0  0  0  0  0  0  0
    0.5355    0.3512   -3.2084 H   0  0  0  0  0  0  0  0  0  0  0  0
    0.0511    1.6087   -1.1317 H   0  0  0  0  0  0  0  0  0  0  0  0
   -0.0028    1.8004    1.4349 H   0  0  0  0  0  0  0  0  0  0  0  0
   -0.0566   -0.5258    2.5735 H   0  0  0  0  0  0  0  0  0  0  0  0
   -0.0505   -2.6645    1.3278 H   0  0  0  0  0  0  0  0  0  0  0  0
    0.0040   -2.6622   -1.1317 H   0  0  0  0  0  0  0  0  0  0  0  0
    0.0000    2.7991    2.0033 O   0  0  0  0  0  0  0  0  0  0  0  0
    0.0253    3.4769    1.3274 H   0  0  0  0  0  0  0  0  0  0  0  0
  1  2  1  0
  1  8  1  0
  1  9  1  0
  1 10  1  0
  2  7  2  0
  2  3  1  0
  3  4  2  0
  3 11  1  0
  4  5  1  0
  5  6  2  0
  5 13  1  0
  6  7  1  0
  6 14  1  0
  7 15  1  0
 12 16  1  0
 16 17  1  0
M  RAD  1   4   2
M  END
>  <reaction>  (16) 
rxn_259

>  <mol_properties>  (16) 
{"0": {"label": "*3", "atom_type": "O2s"}, "3": {"label": "*0", "atom_type": "Cd"}, "5": {"label": "*1", "atom_type": "Cd"}, "12": {"label": "*2", "atom_type": "H0"}, "16": {"label": "*4", "atom_type": "H0"}}

>  <type>  (16) 
unop_12

>  <geom_source>  (16) 
Heuristics

$$$$

     RDKit          3D

 17 16  0  0  0  0  0  0  0  0999 V2000
    2.8235   -1.1741    0.5555 O   0  0  0  0  0  0  0  0  0  0  0  0
   -2.3485   -0.8345    0.3640 C   0  0  0  0  0  0  0  0  0  0  0  0
   -1.0744   -0.1237    0.0165 C   0  0  0  0  0  0  0  0  0  0  0  0
   -0.9071    1.2315    0.3461 C   0  0  0  0  0  0  0  0  0  0  0  0
    0.2958    1.8833    0.0541 C   0  0  0  0  0  0  0  0  0  0  0  0
   -0.0129   -0.8240   -0.5797 C   0  0  0  0  0  0  0  0  0  0  0  0
    1.3412    1.1837   -0.5555 C   0  0  0  0  0  0  0  0  0  0  0  0
    1.1876   -0.1689   -0.8684 C   0  0  0  0  0  3  0  0  0  0  0  0
   -2.2685   -1.2562    1.3876 H   0  0  0  0  0  0  0  0  0  0  0  0
   -3.2102   -0.1344    0.3267 H   0  0  0  0  0  0  0  0  0  0  0  0
   -2.5453   -1.6594   -0.3535 H   0  0  0  0  0  0  0  0  0  0  0  0
    0.4186    2.9293    0.3037 H   0  0  0  0  0  0  0  0  0  0  0  0
   -1.7062    1.7821    0.8270 H   0  0  0  0  0  0  0  0  0  0  0  0
   -0.1120   -1.8744   -0.8217 H   0  0  0  0  0  0  0  0  0  0  0  0
    2.2725    1.6856   -0.7813 H   0  0  0  0  0  0  0  0  0  0  0  0
    3.5850   -1.7500    0.2930 H   0  0  0  0  0  0  0  0  0  0  0  0
    2.2609   -0.8959   -0.5143 H   0  0  0  0  0  0  0  0  0  0  0  0
  1 16  1  0
  1 17  1  0
  2  3  1  0
  2  9  1  0
  2 10  1  0
  2 11  1  0
  3  4  2  0
  3  6  1  0
  4  5  1  0
  4 13  1  0
  5  7  2  0
  5 12  1  0
  6  8  2  0
  6 14  1  0
  7  8  1  0
  7 15  1  0
M  RAD  1   8   2
M  END
>  <reaction>  (17) 
rxn_259

>  <mol_properties>  (17) 
{"0": {"label": "*3", "atom_type": "O2s"}, "3": {"label": "*0", "atom_type": "Cd"}, "5": {"label": "*1", "atom_type": "Cd"}, "12": {"label": "*2", "atom_type": "H0"}, "16": {"label": "*4", "atom_type": "H0"}}

>  <type>  (17) 
unop_13

>  <geom_source>  (17) 
AutoTST

$$$$
