
     RDKit          3D

 22 23  0  0  0  0  0  0  0  0999 V2000
   -2.1093   -0.3263    0.3079 C   0  0  0  0  0  0  0  0  0  0  0  0
   -1.3270    0.9803    0.4115 C   0  0  0  0  0  0  0  0  0  0  0  0
   -0.1818    0.8289   -0.6044 C   0  0  0  0  0  0  0  0  0  0  0  0
    1.1682    1.3904   -0.1341 C   0  0  0  0  0  0  0  0  0  0  0  0
    1.8508    0.2041    0.5479 C   0  0  0  0  0  0  0  0  0  0  0  0
    1.4982   -0.9663   -0.3710 C   0  0  0  0  0  0  0  0  0  0  0  0
    0.0340   -0.7124   -0.7594 C   0  0  0  0  0  0  0  0  0  0  0  0
   -0.9986   -1.3650    0.1756 C   0  0  0  0  0  0  0  0  0  0  0  0
   -2.7686   -0.5042    1.1589 H   0  0  0  0  0  0  0  0  0  0  0  0
   -2.7285   -0.3223   -0.5943 H   0  0  0  0  0  0  0  0  0  0  0  0
   -1.9339    1.8682    0.2289 H   0  0  0  0  0  0  0  0  0  0  0  0
   -0.9144    1.0729    1.4218 H   0  0  0  0  0  0  0  0  0  0  0  0
   -0.4804    1.2763   -1.5535 H   0  0  0  0  0  0  0  0  0  0  0  0
    1.7667    1.7058   -0.9931 H   0  0  0  0  0  0  0  0  0  0  0  0
    1.0540    2.2578    0.5189 H   0  0  0  0  0  0  0  0  0  0  0  0
    1.4197    0.0438    1.5410 H   0  0  0  0  0  0  0  0  0  0  0  0
    2.9248    0.3413    0.6788 H   0  0  0  0  0  0  0  0  0  0  0  0
    2.1362   -0.9329   -1.2584 H   0  0  0  0  0  0  0  0  0  0  0  0
    1.6421   -1.9421    0.0966 H   0  0  0  0  0  0  0  0  0  0  0  0
   -0.1575   -1.0299   -1.7854 H   0  0  0  0  0  0  0  0  0  0  0  0
   -1.3459   -2.3310   -0.1933 H   0  0  0  0  0  0  0  0  0  0  0  0
   -0.5489   -1.5373    1.1593 H   0  0  0  0  0  0  0  0  0  0  0  0
  1  2  1  0
  1  8  1  0
  1  9  1  0
  1 10  1  0
  2  3  1  0
  2 11  1  0
  2 12  1  0
  3  4  1  0
  3  7  1  0
  3 13  1  0
  4  5  1  0
  4 14  1  0
  4 15  1  0
  5  6  1  0
  5 16  1  0
  5 17  1  0
  6  7  1  0
  6 18  1  0
  6 19  1  0
  7  8  1  0
  7 20  1  0
  8 21  1  0
  8 22  1  0
M  END
>  <reaction>  (1) 
rxn_567

>  <mol_properties>  (1) 
{"2": {"label": "donator", "atom_type": "Cs"}, "12": {"label": "d_hydrogen", "atom_type": "H0"}}

>  <type>  (1) 
r1h

$$$$

     RDKit          3D

  8  7  0  0  0  0  0  0  0  0999 V2000
   -2.2129    0.4855    0.7390 C   0  0  0  0  0  0  0  0  0  0  0  0
   -1.2226    0.0526    0.1974 C   0  0  0  0  0  0  0  0  0  0  0  0
   -0.1006   -0.4575   -0.4419 C   0  0  0  0  0  3  0  0  0  0  0  0
    1.1960   -0.1737   -0.0342 C   0  0  0  0  0  0  0  0  0  0  0  0
    2.3329    0.0603    0.3036 C   0  0  0  0  0  0  0  0  0  0  0  0
   -3.0803    0.8696    1.2198 H   0  0  0  0  0  0  0  0  0  0  0  0
   -0.2433   -1.1067   -1.2980 H   0  0  0  0  0  0  0  0  0  0  0  0
    3.3308    0.2700    0.6058 H   0  0  0  0  0  0  0  0  0  0  0  0
  1  2  3  0
  1  6  1  0
  2  3  1  0
  3  4  1  0
  3  7  1  0
  4  5  3  0
  5  8  1  0
M  RAD  1   3   2
M  END
>  <reaction>  (2) 
rxn_567

>  <mol_properties>  (2) 
{"2": {"label": "acceptor", "atom_type": "Cs"}}

>  <type>  (2) 
r2

$$$$

     RDKit          3D

  9  8  0  0  0  0  0  0  0  0999 V2000
   -2.1022   -0.6873    0.3932 C   0  0  0  0  0  0  0  0  0  0  0  0
   -1.2072   -0.1086   -0.1482 C   0  0  0  0  0  0  0  0  0  0  0  0
   -0.1242    0.6105   -0.8193 C   0  0  0  0  0  0  0  0  0  0  0  0
    1.2067    0.1106   -0.4741 C   0  0  0  0  0  0  0  0  0  0  0  0
    2.3005   -0.2875   -0.2012 C   0  0  0  0  0  0  0  0  0  0  0  0
   -2.8942   -1.2059    0.8778 H   0  0  0  0  0  0  0  0  0  0  0  0
   -0.1862    1.6723   -0.5649 H   0  0  0  0  0  0  0  0  0  0  0  0
   -0.2641    0.5418   -1.9017 H   0  0  0  0  0  0  0  0  0  0  0  0
    3.2709   -0.6459    0.0455 H   0  0  0  0  0  0  0  0  0  0  0  0
  1  2  3  0
  1  6  1  0
  2  3  1  0
  3  4  1  0
  3  7  1  0
  3  8  1  0
  4  5  3  0
  5  9  1  0
M  END
>  <reaction>  (3) 
rxn_567

>  <mol_properties>  (3) 
{"2": {"label": "acceptor", "atom_type": "Cs"}, "8": {"label": "a_hydrogen", "atom_type": "H0"}}

>  <type>  (3) 
r2h

$$$$

     RDKit          3D

 30 30  0  0  0  0  0  0  0  0999 V2000
   -1.7495   -2.9002   -0.8661 C   0  0  0  0  0  0  0  0  0  0  0  0
   -1.7360   -2.0118   -0.0599 C   0  0  0  0  0  0  0  0  0  0  0  0
   -1.6400   -0.9399    0.8933 C   0  0  0  0  0  0  0  0  0  0  0  0
   -2.5000    0.1924    0.6803 C   0  0  0  0  0  0  0  0  0  0  0  0
   -3.1575    1.1804    0.5033 C   0  0  0  0  0  0  0  0  0  0  0  0
   -1.7864   -3.6908   -1.5760 H   0  0  0  0  0  0  0  0  0  0  0  0
   -1.6493   -1.2895    1.9257 H   0  0  0  0  0  0  0  0  0  0  0  0
   -3.7632    2.0402    0.3471 H   0  0  0  0  0  0  0  0  0  0  0  0
    1.9539   -1.2667   -1.0695 C   0  0  0  0  0  0  0  0  0  0  0  0
    1.7916   -1.0166    0.4340 C   0  0  0  0  0  0  0  0  0  0  0  0
    0.7962    0.1222    0.5160 C   0  0  0  0  0  3  0  0  0  0  0  0
    0.9451    1.2304    1.5344 C   0  0  0  0  0  0  0  0  0  0  0  0
    1.4721    2.4054    0.6970 C   0  0  0  0  0  0  0  0  0  0  0  0
    0.7151    2.2661   -0.6277 C   0  0  0  0  0  0  0  0  0  0  0  0
    0.6478    0.7518   -0.8710 C   0  0  0  0  0  0  0  0  0  0  0  0
    1.7991    0.1285   -1.6750 C   0  0  0  0  0  0  0  0  0  0  0  0
    2.9003   -1.7459   -1.3222 H   0  0  0  0  0  0  0  0  0  0  0  0
    1.1453   -1.9125   -1.4211 H   0  0  0  0  0  0  0  0  0  0  0  0
    1.4728   -1.9060    0.9835 H   0  0  0  0  0  0  0  0  0  0  0  0
    2.7447   -0.6978    0.8737 H   0  0  0  0  0  0  0  0  0  0  0  0
   -0.4460   -0.4720    0.7642 H   0  0  0  0  0  0  0  0  0  0  0  0
   -0.0309    1.4965    1.9555 H   0  0  0  0  0  0  0  0  0  0  0  0
    1.5990    0.9574    2.3640 H   0  0  0  0  0  0  0  0  0  0  0  0
    2.5462    2.2826    0.5299 H   0  0  0  0  0  0  0  0  0  0  0  0
    1.3241    3.3733    1.1771 H   0  0  0  0  0  0  0  0  0  0  0  0
   -0.2958    2.6643   -0.5134 H   0  0  0  0  0  0  0  0  0  0  0  0
    1.1914    2.8015   -1.4506 H   0  0  0  0  0  0  0  0  0  0  0  0
   -0.3024    0.4702   -1.3354 H   0  0  0  0  0  0  0  0  0  0  0  0
    1.6043    0.1163   -2.7480 H   0  0  0  0  0  0  0  0  0  0  0  0
    2.7161    0.7053   -1.5119 H   0  0  0  0  0  0  0  0  0  0  0  0
  1  2  3  0
  1  6  1  0
  2  3  1  0
  3  4  1  0
  3  7  1  0
  3 21  1  0
  4  5  3  0
  5  8  1  0
  9 16  1  0
  9 10  1  0
  9 17  1  0
  9 18  1  0
 10 11  1  0
 10 19  1  0
 10 20  1  0
 11 12  1  0
 11 15  1  0
 12 13  1  0
 12 22  1  0
 12 23  1  0
 13 14  1  0
 13 24  1  0
 13 25  1  0
 14 15  1  0
 14 26  1  0
 14 27  1  0
 15 16  1  0
 15 28  1  0
 16 29  1  0
 16 30  1  0
M  RAD  1  11   2
M  END
>  <reaction>  (4) 
rxn_567

>  <mol_properties>  (4) 
{"1": {"label": "*0", "atom_type": "Ct"}, "2": {"label": "*1", "atom_type": "Cs"}, "10": {"label": "*3", "atom_type": "Cs"}, "14": {"label": "*4", "atom_type": "Cs"}, "20": {"label": "*2", "atom_type": "H0"}}

>  <type>  (4) 
ts

$$$$

     RDKit          3D

 30 30  0  0  0  0  0  0  0  0999 V2000
   -2.4340   -0.2988    2.9668 C   0  0  0  0  0  0  0  0  0  0  0  0
   -2.0965   -0.5257    1.8427 C   0  0  0  0  0  0  0  0  0  0  0  0
   -1.6834   -0.8035    0.4669 C   0  0  0  0  0  3  0  0  0  0  0  0
   -2.4404   -1.8874   -0.1595 C   0  0  0  0  0  0  0  0  0  0  0  0
   -3.0589   -2.7732   -0.6715 C   0  0  0  0  0  0  0  0  0  0  0  0
   -2.7343   -0.0969    3.9669 H   0  0  0  0  0  0  0  0  0  0  0  0
   -1.7944    0.1049   -0.1318 H   0  0  0  0  0  0  0  0  0  0  0  0
   -3.6092   -3.5611   -1.1269 H   0  0  0  0  0  0  0  0  0  0  0  0
    1.6729   -0.9444   -1.8457 C   0  0  0  0  0  0  0  0  0  0  0  0
    1.6729   -0.9444   -0.3192 C   0  0  0  0  0  0  0  0  0  0  0  0
    0.7095    0.1904    0.0691 C   0  0  0  0  0  0  0  0  0  0  0  0
    1.1623    1.0289    1.2736 C   0  0  0  0  0  0  0  0  0  0  0  0
    1.9743    2.1671    0.6542 C   0  0  0  0  0  0  0  0  0  0  0  0
    1.1623    2.5267   -0.5907 C   0  0  0  0  0  0  0  0  0  0  0  0
    0.7095    1.1699   -1.1501 C   0  0  0  0  0  0  0  0  0  0  0  0
    1.6729    0.5462   -2.1745 C   0  0  0  0  0  0  0  0  0  0  0  0
    2.5177   -1.4826   -2.2781 H   0  0  0  0  0  0  0  0  0  0  0  0
    0.7570   -1.4112   -2.2207 H   0  0  0  0  0  0  0  0  0  0  0  0
    1.3885   -1.9027    0.1174 H   0  0  0  0  0  0  0  0  0  0  0  0
    2.6810   -0.7118    0.0401 H   0  0  0  0  0  0  0  0  0  0  0  0
   -0.4855   -0.3060    0.2678 H   0  0  0  0  0  0  0  0  0  0  0  0
    0.2945    1.4457    1.7920 H   0  0  0  0  0  0  0  0  0  0  0  0
    1.7253    0.4422    2.0018 H   0  0  0  0  0  0  0  0  0  0  0  0
    2.9654    1.8053    0.3635 H   0  0  0  0  0  0  0  0  0  0  0  0
    2.1222    3.0095    1.3309 H   0  0  0  0  0  0  0  0  0  0  0  0
    0.2945    3.1228   -0.2954 H   0  0  0  0  0  0  0  0  0  0  0  0
    1.7253    3.1115   -1.3205 H   0  0  0  0  0  0  0  0  0  0  0  0
   -0.2864    1.2425   -1.5897 H   0  0  0  0  0  0  0  0  0  0  0  0
    1.3885    0.7661   -3.2044 H   0  0  0  0  0  0  0  0  0  0  0  0
    2.6810    0.9472   -2.0248 H   0  0  0  0  0  0  0  0  0  0  0  0
  1  2  3  0
  1  6  1  0
  2  3  1  0
  3  4  1  0
  3  7  1  0
  4  5  3  0
  5  8  1  0
  9 10  1  0
  9 16  1  0
  9 17  1  0
  9 18  1  0
 10 11  1  0
 10 19  1  0
 10 20  1  0
 11 12  1  0
 11 15  1  0
 11 21  1  0
 12 13  1  0
 12 22  1  0
 12 23  1  0
 13 14  1  0
 13 24  1  0
 13 25  1  0
 14 15  1  0
 14 26  1  0
 14 27  1  0
 15 16  1  0
 15 28  1  0
 16 29  1  0
 16 30  1  0
M  RAD  1   3   2
M  END
>  <reaction>  (5) 
rxn_567

>  <mol_properties>  (5) 
{"1": {"label": "*0", "atom_type": "Ct"}, "2": {"label": "*1", "atom_type": "Cs"}, "10": {"label": "*3", "atom_type": "Cs"}, "14": {"label": "*4", "atom_type": "Cs"}, "20": {"label": "*2", "atom_type": "H0"}}

>  <type>  (5) 
unop_1

>  <geom_source>  (5) 
Heuristics

$$$$

     RDKit          3D

 30 30  0  0  0  0  0  0  0  0999 V2000
   -1.4985   -3.2201    1.5930 C   0  0  0  0  0  0  0  0  0  0  0  0
   -1.6007   -2.0963    1.1983 C   0  0  0  0  0  0  0  0  0  0  0  0
   -1.7258   -0.7210    0.7152 C   0  0  0  0  0  3  0  0  0  0  0  0
   -2.8180   -0.5379   -0.2408 C   0  0  0  0  0  0  0  0  0  0  0  0
   -3.7104   -0.3883   -1.0220 C   0  0  0  0  0  0  0  0  0  0  0  0
   -1.4076   -4.2198    1.9442 H   0  0  0  0  0  0  0  0  0  0  0  0
   -1.8790   -0.0534    1.5677 H   0  0  0  0  0  0  0  0  0  0  0  0
   -4.5044   -0.2551   -1.7170 H   0  0  0  0  0  0  0  0  0  0  0  0
    1.6305   -0.8619   -1.5974 C   0  0  0  0  0  0  0  0  0  0  0  0
    1.6305   -0.8619   -0.0709 C   0  0  0  0  0  0  0  0  0  0  0  0
    0.6671    0.2728    0.3174 C   0  0  0  0  0  0  0  0  0  0  0  0
    1.1199    1.1114    1.5219 C   0  0  0  0  0  0  0  0  0  0  0  0
    1.9319    2.2496    0.9025 C   0  0  0  0  0  0  0  0  0  0  0  0
    1.1199    2.6092   -0.3424 C   0  0  0  0  0  0  0  0  0  0  0  0
    0.6671    1.2524   -0.9018 C   0  0  0  0  0  0  0  0  0  0  0  0
    1.6305    0.6287   -1.9262 C   0  0  0  0  0  0  0  0  0  0  0  0
    2.4753   -1.4001   -2.0298 H   0  0  0  0  0  0  0  0  0  0  0  0
    0.7146   -1.3287   -1.9724 H   0  0  0  0  0  0  0  0  0  0  0  0
    1.3462   -1.8203    0.3657 H   0  0  0  0  0  0  0  0  0  0  0  0
    2.6386   -0.6293    0.2884 H   0  0  0  0  0  0  0  0  0  0  0  0
   -0.5279   -0.2235    0.5161 H   0  0  0  0  0  0  0  0  0  0  0  0
    0.2521    1.5282    2.0403 H   0  0  0  0  0  0  0  0  0  0  0  0
    1.6830    0.5247    2.2501 H   0  0  0  0  0  0  0  0  0  0  0  0
    2.9230    1.8878    0.6118 H   0  0  0  0  0  0  0  0  0  0  0  0
    2.0798    3.0919    1.5792 H   0  0  0  0  0  0  0  0  0  0  0  0
    0.2521    3.2053   -0.0471 H   0  0  0  0  0  0  0  0  0  0  0  0
    1.6830    3.1940   -1.0722 H   0  0  0  0  0  0  0  0  0  0  0  0
   -0.3287    1.3250   -1.3414 H   0  0  0  0  0  0  0  0  0  0  0  0
    1.3462    0.8486   -2.9561 H   0  0  0  0  0  0  0  0  0  0  0  0
    2.6386    1.0296   -1.7765 H   0  0  0  0  0  0  0  0  0  0  0  0
  1  2  3  0
  1  6  1  0
  2  3  1  0
  3  4  1  0
  3  7  1  0
  4  5  3  0
  5  8  1  0
  9 10  1  0
  9 16  1  0
  9 17  1  0
  9 18  1  0
 10 11  1  0
 10 19  1  0
 10 20  1  0
 11 12  1  0
 11 15  1  0
 11 21  1  0
 12 13  1  0
 12 22  1  0
 12 23  1  0
 13 14  1  0
 13 24  1  0
 13 25  1  0
 14 15  1  0
 14 26  1  0
 14 27  1  0
 15 16  1  0
 15 28  1  0
 16 29  1  0
 16 30  1  0
M  RAD  1   3   2
M  END
>  <reaction>  (6) 
rxn_567

>  <mol_properties>  (6) 
{"1": {"label": "*0", "atom_type": "Ct"}, "2": {"label": "*1", "atom_type": "Cs"}, "10": {"label": "*3", "atom_type": "Cs"}, "14": {"label": "*4", "atom_type": "Cs"}, "20": {"label": "*2", "atom_type": "H0"}}

>  <type>  (6) 
unop_2

>  <geom_source>  (6) 
Heuristics

$$$$

     RDKit          3D

 30 30  0  0  0  0  0  0  0  0999 V2000
   -2.9664    0.6315    2.2252 C   0  0  0  0  0  0  0  0  0  0  0  0
   -2.3957   -0.0326    1.4112 C   0  0  0  0  0  0  0  0  0  0  0  0
   -1.6974   -0.8453    0.4151 C   0  0  0  0  0  3  0  0  0  0  0  0
   -2.1007   -2.2516    0.4261 C   0  0  0  0  0  0  0  0  0  0  0  0
   -2.4302   -3.4007    0.4351 C   0  0  0  0  0  0  0  0  0  0  0  0
   -3.4741    1.2222    2.9493 H   0  0  0  0  0  0  0  0  0  0  0  0
   -1.8776   -0.4277   -0.5795 H   0  0  0  0  0  0  0  0  0  0  0  0
   -2.7233   -4.4230    0.4431 H   0  0  0  0  0  0  0  0  0  0  0  0
    1.6589   -0.9862   -1.8975 C   0  0  0  0  0  0  0  0  0  0  0  0
    1.6589   -0.9862   -0.3711 C   0  0  0  0  0  0  0  0  0  0  0  0
    0.6955    0.1486    0.0173 C   0  0  0  0  0  0  0  0  0  0  0  0
    1.1483    0.9871    1.2217 C   0  0  0  0  0  0  0  0  0  0  0  0
    1.9603    2.1253    0.6023 C   0  0  0  0  0  0  0  0  0  0  0  0
    1.1483    2.4849   -0.6426 C   0  0  0  0  0  0  0  0  0  0  0  0
    0.6955    1.1281   -1.2020 C   0  0  0  0  0  0  0  0  0  0  0  0
    1.6589    0.5044   -2.2264 C   0  0  0  0  0  0  0  0  0  0  0  0
    2.5037   -1.5244   -2.3299 H   0  0  0  0  0  0  0  0  0  0  0  0
    0.7431   -1.4530   -2.2726 H   0  0  0  0  0  0  0  0  0  0  0  0
    1.3746   -1.9445    0.0655 H   0  0  0  0  0  0  0  0  0  0  0  0
    2.6670   -0.7536   -0.0118 H   0  0  0  0  0  0  0  0  0  0  0  0
   -0.4995   -0.3478    0.2159 H   0  0  0  0  0  0  0  0  0  0  0  0
    0.2805    1.4039    1.7401 H   0  0  0  0  0  0  0  0  0  0  0  0
    1.7114    0.4004    1.9500 H   0  0  0  0  0  0  0  0  0  0  0  0
    2.9514    1.7635    0.3116 H   0  0  0  0  0  0  0  0  0  0  0  0
    2.1082    2.9677    1.2791 H   0  0  0  0  0  0  0  0  0  0  0  0
    0.2805    3.0810   -0.3472 H   0  0  0  0  0  0  0  0  0  0  0  0
    1.7114    3.0697   -1.3724 H   0  0  0  0  0  0  0  0  0  0  0  0
   -0.3003    1.2007   -1.6415 H   0  0  0  0  0  0  0  0  0  0  0  0
    1.3746    0.7243   -3.2563 H   0  0  0  0  0  0  0  0  0  0  0  0
    2.6670    0.9054   -2.0767 H   0  0  0  0  0  0  0  0  0  0  0  0
  1  2  3  0
  1  6  1  0
  2  3  1  0
  3  4  1  0
  3  7  1  0
  4  5  3  0
  5  8  1  0
  9 10  1  0
  9 16  1  0
  9 17  1  0
  9 18  1  0
 10 11  1  0
 10 19  1  0
 10 20  1  0
 11 12  1  0
 11 15  1  0
 11 21  1  0
 12 13  1  0
 12 22  1  0
 12 23  1  0
 13 14  1  0
 13 24  1  0
 13 25  1  0
 14 15  1  0
 14 26  1  0
 14 27  1  0
 15 16  1  0
 15 28  1  0
 16 29  1  0
 16 30  1  0
M  RAD  1   3   2
M  END
>  <reaction>  (7) 
rxn_567

>  <mol_properties>  (7) 
{"1": {"label": "*0", "atom_type": "Ct"}, "2": {"label": "*1", "atom_type": "Cs"}, "10": {"label": "*3", "atom_type": "Cs"}, "14": {"label": "*4", "atom_type": "Cs"}, "20": {"label": "*2", "atom_type": "H0"}}

>  <type>  (7) 
unop_3

>  <geom_source>  (7) 
Heuristics

$$$$

     RDKit          3D

 30 30  0  0  0  0  0  0  0  0999 V2000
   -2.5959   -2.2931   -1.3803 C   0  0  0  0  0  0  0  0  0  0  0  0
   -2.2166   -1.7684   -0.3753 C   0  0  0  0  0  0  0  0  0  0  0  0
   -1.7524   -1.1263    0.8546 C   0  0  0  0  0  3  0  0  0  0  0  0
   -2.1216    0.2863    0.9478 C   0  0  0  0  0  0  0  0  0  0  0  0
   -2.4234    1.4406    1.0240 C   0  0  0  0  0  0  0  0  0  0  0  0
   -2.9334   -2.7598   -2.2743 H   0  0  0  0  0  0  0  0  0  0  0  0
   -2.1612   -1.6620    1.7159 H   0  0  0  0  0  0  0  0  0  0  0  0
   -2.6918    2.4674    1.0918 H   0  0  0  0  0  0  0  0  0  0  0  0
    1.6039   -1.2672   -1.4580 C   0  0  0  0  0  0  0  0  0  0  0  0
    1.6039   -1.2672    0.0684 C   0  0  0  0  0  0  0  0  0  0  0  0
    0.6405   -0.1324    0.4568 C   0  0  0  0  0  0  0  0  0  0  0  0
    1.0933    0.7061    1.6612 C   0  0  0  0  0  0  0  0  0  0  0  0
    1.9053    1.8443    1.0419 C   0  0  0  0  0  0  0  0  0  0  0  0
    1.0933    2.2039   -0.2030 C   0  0  0  0  0  0  0  0  0  0  0  0
    0.6405    0.8471   -0.7624 C   0  0  0  0  0  0  0  0  0  0  0  0
    1.6039    0.2234   -1.7869 C   0  0  0  0  0  0  0  0  0  0  0  0
    2.4487   -1.8054   -1.8904 H   0  0  0  0  0  0  0  0  0  0  0  0
    0.6880   -1.7340   -1.8331 H   0  0  0  0  0  0  0  0  0  0  0  0
    1.3196   -2.2255    0.5050 H   0  0  0  0  0  0  0  0  0  0  0  0
    2.6120   -1.0346    0.4277 H   0  0  0  0  0  0  0  0  0  0  0  0
   -0.5545   -0.6288    0.6555 H   0  0  0  0  0  0  0  0  0  0  0  0
    0.2255    1.1229    2.1797 H   0  0  0  0  0  0  0  0  0  0  0  0
    1.6564    0.1194    2.3895 H   0  0  0  0  0  0  0  0  0  0  0  0
    2.8964    1.4825    0.7512 H   0  0  0  0  0  0  0  0  0  0  0  0
    2.0532    2.6866    1.7186 H   0  0  0  0  0  0  0  0  0  0  0  0
    0.2255    2.8000    0.0923 H   0  0  0  0  0  0  0  0  0  0  0  0
    1.6564    2.7887   -0.9329 H   0  0  0  0  0  0  0  0  0  0  0  0
   -0.3553    0.9197   -1.2020 H   0  0  0  0  0  0  0  0  0  0  0  0
    1.3196    0.4433   -2.8168 H   0  0  0  0  0  0  0  0  0  0  0  0
    2.6120    0.6244   -1.6371 H   0  0  0  0  0  0  0  0  0  0  0  0
  1  2  3  0
  1  6  1  0
  2  3  1  0
  3  4  1  0
  3  7  1  0
  4  5  3  0
  5  8  1  0
  9 10  1  0
  9 16  1  0
  9 17  1  0
  9 18  1  0
 10 11  1  0
 10 19  1  0
 10 20  1  0
 11 12  1  0
 11 15  1  0
 11 21  1  0
 12 13  1  0
 12 22  1  0
 12 23  1  0
 13 14  1  0
 13 24  1  0
 13 25  1  0
 14 15  1  0
 14 26  1  0
 14 27  1  0
 15 16  1  0
 15 28  1  0
 16 29  1  0
 16 30  1  0
M  RAD  1   3   2
M  END
>  <reaction>  (8) 
rxn_567

>  <mol_properties>  (8) 
{"1": {"label": "*0", "atom_type": "Ct"}, "2": {"label": "*1", "atom_type": "Cs"}, "10": {"label": "*3", "atom_type": "Cs"}, "14": {"label": "*4", "atom_type": "Cs"}, "20": {"label": "*2", "atom_type": "H0"}}

>  <type>  (8) 
unop_4

>  <geom_source>  (8) 
Heuristics

$$$$

     RDKit          3D

 30 30  0  0  0  0  0  0  0  0999 V2000
   -3.4140    0.9951    1.0087 C   0  0  0  0  0  0  0  0  0  0  0  0
   -2.6671    0.1117    0.7070 C   0  0  0  0  0  0  0  0  0  0  0  0
   -1.7530   -0.9693    0.3379 C   0  0  0  0  0  3  0  0  0  0  0  0
   -1.6719   -2.0301    1.3421 C   0  0  0  0  0  0  0  0  0  0  0  0
   -1.6056   -2.8970    2.1627 C   0  0  0  0  0  0  0  0  0  0  0  0
   -4.0784    1.7810    1.2770 H   0  0  0  0  0  0  0  0  0  0  0  0
   -2.0727   -1.4003   -0.6149 H   0  0  0  0  0  0  0  0  0  0  0  0
   -1.5467   -3.6681    2.8927 H   0  0  0  0  0  0  0  0  0  0  0  0
    1.6033   -1.1102   -1.9747 C   0  0  0  0  0  0  0  0  0  0  0  0
    1.6033   -1.1102   -0.4483 C   0  0  0  0  0  0  0  0  0  0  0  0
    0.6399    0.0246   -0.0599 C   0  0  0  0  0  0  0  0  0  0  0  0
    1.0927    0.8631    1.1445 C   0  0  0  0  0  0  0  0  0  0  0  0
    1.9047    2.0013    0.5252 C   0  0  0  0  0  0  0  0  0  0  0  0
    1.0927    2.3609   -0.7197 C   0  0  0  0  0  0  0  0  0  0  0  0
    0.6399    1.0041   -1.2791 C   0  0  0  0  0  0  0  0  0  0  0  0
    1.6033    0.3804   -2.3036 C   0  0  0  0  0  0  0  0  0  0  0  0
    2.4481   -1.6484   -2.4071 H   0  0  0  0  0  0  0  0  0  0  0  0
    0.6874   -1.5770   -2.3498 H   0  0  0  0  0  0  0  0  0  0  0  0
    1.3189   -2.0685   -0.0117 H   0  0  0  0  0  0  0  0  0  0  0  0
    2.6114   -0.8776   -0.0890 H   0  0  0  0  0  0  0  0  0  0  0  0
   -0.5551   -0.4718    0.1388 H   0  0  0  0  0  0  0  0  0  0  0  0
    0.2249    1.2799    1.6630 H   0  0  0  0  0  0  0  0  0  0  0  0
    1.6558    0.2764    1.8728 H   0  0  0  0  0  0  0  0  0  0  0  0
    2.8958    1.6395    0.2344 H   0  0  0  0  0  0  0  0  0  0  0  0
    2.0526    2.8436    1.2019 H   0  0  0  0  0  0  0  0  0  0  0  0
    0.2249    2.9570   -0.4244 H   0  0  0  0  0  0  0  0  0  0  0  0
    1.6558    2.9457   -1.4496 H   0  0  0  0  0  0  0  0  0  0  0  0
   -0.3560    1.0767   -1.7187 H   0  0  0  0  0  0  0  0  0  0  0  0
    1.3189    0.6003   -3.3335 H   0  0  0  0  0  0  0  0  0  0  0  0
    2.6114    0.7814   -2.1539 H   0  0  0  0  0  0  0  0  0  0  0  0
  1  2  3  0
  1  6  1  0
  2  3  1  0
  3  4  1  0
  3  7  1  0
  4  5  3  0
  5  8  1  0
  9 10  1  0
  9 16  1  0
  9 17  1  0
  9 18  1  0
 10 11  1  0
 10 19  1  0
 10 20  1  0
 11 12  1  0
 11 15  1  0
 11 21  1  0
 12 13  1  0
 12 22  1  0
 12 23  1  0
 13 14  1  0
 13 24  1  0
 13 25  1  0
 14 15  1  0
 14 26  1  0
 14 27  1  0
 15 16  1  0
 15 28  1  0
 16 29  1  0
 16 30  1  0
M  RAD  1   3   2
M  END
>  <reaction>  (9) 
rxn_567

>  <mol_properties>  (9) 
{"1": {"label": "*0", "atom_type": "Ct"}, "2": {"label": "*1", "atom_type": "Cs"}, "10": {"label": "*3", "atom_type": "Cs"}, "14": {"label": "*4", "atom_type": "Cs"}, "20": {"label": "*2", "atom_type": "H0"}}

>  <type>  (9) 
unop_5

>  <geom_source>  (9) 
Heuristics

$$$$

     RDKit          3D

 30 30  0  0  0  0  0  0  0  0999 V2000
   -3.1135   -1.2056   -1.5580 C   0  0  0  0  0  0  0  0  0  0  0  0
   -2.5066   -1.2187   -0.5281 C   0  0  0  0  0  0  0  0  0  0  0  0
   -1.7640   -1.2348    0.7323 C   0  0  0  0  0  3  0  0  0  0  0  0
   -1.7996    0.0429    1.4442 C   0  0  0  0  0  0  0  0  0  0  0  0
   -1.8287    1.0869    2.0259 C   0  0  0  0  0  0  0  0  0  0  0  0
   -3.6533   -1.1939   -2.4742 H   0  0  0  0  0  0  0  0  0  0  0  0
   -2.1705   -2.0176    1.3788 H   0  0  0  0  0  0  0  0  0  0  0  0
   -1.8546    2.0156    2.5433 H   0  0  0  0  0  0  0  0  0  0  0  0
    1.5923   -1.3757   -1.5803 C   0  0  0  0  0  0  0  0  0  0  0  0
    1.5923   -1.3757   -0.0539 C   0  0  0  0  0  0  0  0  0  0  0  0
    0.6289   -0.2409    0.3345 C   0  0  0  0  0  0  0  0  0  0  0  0
    1.0817    0.5977    1.5389 C   0  0  0  0  0  0  0  0  0  0  0  0
    1.8937    1.7358    0.9196 C   0  0  0  0  0  0  0  0  0  0  0  0
    1.0817    2.0955   -0.3253 C   0  0  0  0  0  0  0  0  0  0  0  0
    0.6289    0.7386   -0.8847 C   0  0  0  0  0  0  0  0  0  0  0  0
    1.5923    0.1149   -1.9091 C   0  0  0  0  0  0  0  0  0  0  0  0
    2.4371   -1.9138   -2.0127 H   0  0  0  0  0  0  0  0  0  0  0  0
    0.6764   -1.8425   -1.9554 H   0  0  0  0  0  0  0  0  0  0  0  0
    1.3080   -2.3340    0.3827 H   0  0  0  0  0  0  0  0  0  0  0  0
    2.6004   -1.1431    0.3054 H   0  0  0  0  0  0  0  0  0  0  0  0
   -0.5661   -0.7372    0.5332 H   0  0  0  0  0  0  0  0  0  0  0  0
    0.2139    1.0145    2.0574 H   0  0  0  0  0  0  0  0  0  0  0  0
    1.6448    0.0109    2.2672 H   0  0  0  0  0  0  0  0  0  0  0  0
    2.8848    1.3740    0.6289 H   0  0  0  0  0  0  0  0  0  0  0  0
    2.0416    2.5782    1.5963 H   0  0  0  0  0  0  0  0  0  0  0  0
    0.2139    2.6915   -0.0300 H   0  0  0  0  0  0  0  0  0  0  0  0
    1.6448    2.6802   -1.0552 H   0  0  0  0  0  0  0  0  0  0  0  0
   -0.3669    0.8112   -1.3243 H   0  0  0  0  0  0  0  0  0  0  0  0
    1.3080    0.3348   -2.9391 H   0  0  0  0  0  0  0  0  0  0  0  0
    2.6004    0.5159   -1.7594 H   0  0  0  0  0  0  0  0  0  0  0  0
  1  2  3  0
  1  6  1  0
  2  3  1  0
  3  4  1  0
  3  7  1  0
  4  5  3  0
  5  8  1  0
  9 10  1  0
  9 16  1  0
  9 17  1  0
  9 18  1  0
 10 11  1  0
 10 19  1  0
 10 20  1  0
 11 12  1  0
 11 15  1  0
 11 21  1  0
 12 13  1  0
 12 22  1  0
 12 23  1  0
 13 14  1  0
 13 24  1  0
 13 25  1  0
 14 15  1  0
 14 26  1  0
 14 27  1  0
 15 16  1  0
 15 28  1  0
 16 29  1  0
 16 30  1  0
M  RAD  1   3   2
M  END
>  <reaction>  (10) 
rxn_567

>  <mol_properties>  (10) 
{"1": {"label": "*0", "atom_type": "Ct"}, "2": {"label": "*1", "atom_type": "Cs"}, "10": {"label": "*3", "atom_type": "Cs"}, "14": {"label": "*4", "atom_type": "Cs"}, "20": {"label": "*2", "atom_type": "H0"}}

>  <type>  (10) 
unop_6

>  <geom_source>  (10) 
Heuristics

$$$$

     RDKit          3D

 30 30  0  0  0  0  0  0  0  0999 V2000
   -3.4885   -0.1320   -1.1334 C   0  0  0  0  0  0  0  0  0  0  0  0
   -2.7207   -0.6395   -0.3704 C   0  0  0  0  0  0  0  0  0  0  0  0
   -1.7811   -1.2606    0.5632 C   0  0  0  0  0  3  0  0  0  0  0  0
   -1.5389   -0.4594    1.7631 C   0  0  0  0  0  0  0  0  0  0  0  0
   -1.3410    0.1953    2.7436 C   0  0  0  0  0  0  0  0  0  0  0  0
   -4.1716    0.3196   -1.8121 H   0  0  0  0  0  0  0  0  0  0  0  0
   -2.1633   -2.2420    0.8577 H   0  0  0  0  0  0  0  0  0  0  0  0
   -1.1649    0.7777    3.6158 H   0  0  0  0  0  0  0  0  0  0  0  0
    1.5751   -1.4015   -1.7494 C   0  0  0  0  0  0  0  0  0  0  0  0
    1.5751   -1.4015   -0.2230 C   0  0  0  0  0  0  0  0  0  0  0  0
    0.6118   -0.2668    0.1654 C   0  0  0  0  0  0  0  0  0  0  0  0
    1.0646    0.5718    1.3698 C   0  0  0  0  0  0  0  0  0  0  0  0
    1.8765    1.7100    0.7505 C   0  0  0  0  0  0  0  0  0  0  0  0
    1.0646    2.0696   -0.4944 C   0  0  0  0  0  0  0  0  0  0  0  0
    0.6118    0.7128   -1.0538 C   0  0  0  0  0  0  0  0  0  0  0  0
    1.5751    0.0891   -2.0783 C   0  0  0  0  0  0  0  0  0  0  0  0
    2.4200   -1.9397   -2.1818 H   0  0  0  0  0  0  0  0  0  0  0  0
    0.6593   -1.8684   -2.1245 H   0  0  0  0  0  0  0  0  0  0  0  0
    1.2908   -2.3599    0.2136 H   0  0  0  0  0  0  0  0  0  0  0  0
    2.5833   -1.1690    0.1363 H   0  0  0  0  0  0  0  0  0  0  0  0
   -0.5832   -0.7631    0.3641 H   0  0  0  0  0  0  0  0  0  0  0  0
    0.1967    0.9886    1.8883 H   0  0  0  0  0  0  0  0  0  0  0  0
    1.6276   -0.0149    2.0981 H   0  0  0  0  0  0  0  0  0  0  0  0
    2.8677    1.3481    0.4597 H   0  0  0  0  0  0  0  0  0  0  0  0
    2.0245    2.5523    1.4272 H   0  0  0  0  0  0  0  0  0  0  0  0
    0.1967    2.6657   -0.1991 H   0  0  0  0  0  0  0  0  0  0  0  0
    1.6276    2.6544   -1.2243 H   0  0  0  0  0  0  0  0  0  0  0  0
   -0.3841    0.7853   -1.4934 H   0  0  0  0  0  0  0  0  0  0  0  0
    1.2908    0.3089   -3.1082 H   0  0  0  0  0  0  0  0  0  0  0  0
    2.5833    0.4900   -1.9285 H   0  0  0  0  0  0  0  0  0  0  0  0
  1  2  3  0
  1  6  1  0
  2  3  1  0
  3  4  1  0
  3  7  1  0
  4  5  3  0
  5  8  1  0
  9 10  1  0
  9 16  1  0
  9 17  1  0
  9 18  1  0
 10 11  1  0
 10 19  1  0
 10 20  1  0
 11 12  1  0
 11 15  1  0
 11 21  1  0
 12 13  1  0
 12 22  1  0
 12 23  1  0
 13 14  1  0
 13 24  1  0
 13 25  1  0
 14 15  1  0
 14 26  1  0
 14 27  1  0
 15 16  1  0
 15 28  1  0
 16 29  1  0
 16 30  1  0
M  RAD  1   3   2
M  END
>  <reaction>  (11) 
rxn_567

>  <mol_properties>  (11) 
{"1": {"label": "*0", "atom_type": "Ct"}, "2": {"label": "*1", "atom_type": "Cs"}, "10": {"label": "*3", "atom_type": "Cs"}, "14": {"label": "*4", "atom_type": "Cs"}, "20": {"label": "*2", "atom_type": "H0"}}

>  <type>  (11) 
unop_7

>  <geom_source>  (11) 
Heuristics

$$$$

     RDKit          3D

 30 30  0  0  0  0  0  0  0  0999 V2000
   -1.9397   -1.4496    3.0647 C   0  0  0  0  0  0  0  0  0  0  0  0
   -1.8297   -1.1388    1.9156 C   0  0  0  0  0  0  0  0  0  0  0  0
   -1.6950   -0.7583    0.5094 C   0  0  0  0  0  3  0  0  0  0  0  0
   -2.6754   -1.4040   -0.3638 C   0  0  0  0  0  0  0  0  0  0  0  0
   -3.4765   -1.9315   -1.0773 C   0  0  0  0  0  0  0  0  0  0  0  0
   -2.0376   -1.7262    4.0870 H   0  0  0  0  0  0  0  0  0  0  0  0
   -1.7941    0.3271    0.4198 H   0  0  0  0  0  0  0  0  0  0  0  0
   -4.1892   -2.4009   -1.7120 H   0  0  0  0  0  0  0  0  0  0  0  0
    1.6612   -0.8992   -1.8032 C   0  0  0  0  0  0  0  0  0  0  0  0
    1.6612   -0.8992   -0.2768 C   0  0  0  0  0  0  0  0  0  0  0  0
    0.6979    0.2355    0.1116 C   0  0  0  0  0  0  0  0  0  0  0  0
    1.1506    1.0741    1.3160 C   0  0  0  0  0  0  0  0  0  0  0  0
    1.9626    2.2123    0.6966 C   0  0  0  0  0  0  0  0  0  0  0  0
    1.1506    2.5719   -0.5483 C   0  0  0  0  0  0  0  0  0  0  0  0
    0.6979    1.2151   -1.1076 C   0  0  0  0  0  0  0  0  0  0  0  0
    1.6612    0.5914   -2.1321 C   0  0  0  0  0  0  0  0  0  0  0  0
    2.5061   -1.4374   -2.2356 H   0  0  0  0  0  0  0  0  0  0  0  0
    0.7454   -1.3661   -2.1783 H   0  0  0  0  0  0  0  0  0  0  0  0
    1.3769   -1.8576    0.1598 H   0  0  0  0  0  0  0  0  0  0  0  0
    2.6694   -0.6666    0.0825 H   0  0  0  0  0  0  0  0  0  0  0  0
   -0.4972   -0.2608    0.3102 H   0  0  0  0  0  0  0  0  0  0  0  0
    0.2828    1.4909    1.8344 H   0  0  0  0  0  0  0  0  0  0  0  0
    1.7137    0.4874    2.0443 H   0  0  0  0  0  0  0  0  0  0  0  0
    2.9537    1.8504    0.4059 H   0  0  0  0  0  0  0  0  0  0  0  0
    2.1106    3.0546    1.3734 H   0  0  0  0  0  0  0  0  0  0  0  0
    0.2828    3.1680   -0.2529 H   0  0  0  0  0  0  0  0  0  0  0  0
    1.7137    3.1567   -1.2781 H   0  0  0  0  0  0  0  0  0  0  0  0
   -0.2980    1.2876   -1.5472 H   0  0  0  0  0  0  0  0  0  0  0  0
    1.3769    0.8112   -3.1620 H   0  0  0  0  0  0  0  0  0  0  0  0
    2.6694    0.9923   -1.9824 H   0  0  0  0  0  0  0  0  0  0  0  0
  1  2  3  0
  1  6  1  0
  2  3  1  0
  3  4  1  0
  3  7  1  0
  4  5  3  0
  5  8  1  0
  9 10  1  0
  9 16  1  0
  9 17  1  0
  9 18  1  0
 10 11  1  0
 10 19  1  0
 10 20  1  0
 11 12  1  0
 11 15  1  0
 11 21  1  0
 12 13  1  0
 12 22  1  0
 12 23  1  0
 13 14  1  0
 13 24  1  0
 13 25  1  0
 14 15  1  0
 14 26  1  0
 14 27  1  0
 15 16  1  0
 15 28  1  0
 16 29  1  0
 16 30  1  0
M  RAD  1   3   2
M  END
>  <reaction>  (12) 
rxn_567

>  <mol_properties>  (12) 
{"1": {"label": "*0", "atom_type": "Ct"}, "2": {"label": "*1", "atom_type": "Cs"}, "10": {"label": "*3", "atom_type": "Cs"}, "14": {"label": "*4", "atom_type": "Cs"}, "20": {"label": "*2", "atom_type": "H0"}}

>  <type>  (12) 
unop_8

>  <geom_source>  (12) 
Heuristics

$$$$

     RDKit          3D

 30 30  0  0  0  0  0  0  0  0999 V2000
   -2.0688   -3.1071   -0.6473 C   0  0  0  0  0  0  0  0  0  0  0  0
   -1.9226   -2.1452    0.0475 C   0  0  0  0  0  0  0  0  0  0  0  0
   -1.7437   -0.9682    0.8977 C   0  0  0  0  0  3  0  0  0  0  0  0
   -2.4413    0.2183    0.4020 C   0  0  0  0  0  0  0  0  0  0  0  0
   -3.0113    1.1879   -0.0032 C   0  0  0  0  0  0  0  0  0  0  0  0
   -2.1989   -3.9627   -1.2654 H   0  0  0  0  0  0  0  0  0  0  0  0
   -2.0970   -1.1971    1.9070 H   0  0  0  0  0  0  0  0  0  0  0  0
   -3.5184    2.0505   -0.3636 H   0  0  0  0  0  0  0  0  0  0  0  0
    1.6126   -1.1091   -1.4149 C   0  0  0  0  0  0  0  0  0  0  0  0
    1.6126   -1.1091    0.1116 C   0  0  0  0  0  0  0  0  0  0  0  0
    0.6493    0.0256    0.4999 C   0  0  0  0  0  0  0  0  0  0  0  0
    1.1020    0.8642    1.7044 C   0  0  0  0  0  0  0  0  0  0  0  0
    1.9140    2.0024    1.0850 C   0  0  0  0  0  0  0  0  0  0  0  0
    1.1020    2.3620   -0.1599 C   0  0  0  0  0  0  0  0  0  0  0  0
    0.6493    1.0052   -0.7193 C   0  0  0  0  0  0  0  0  0  0  0  0
    1.6126    0.3815   -1.7437 C   0  0  0  0  0  0  0  0  0  0  0  0
    2.4575   -1.6473   -1.8473 H   0  0  0  0  0  0  0  0  0  0  0  0
    0.6968   -1.5760   -1.7899 H   0  0  0  0  0  0  0  0  0  0  0  0
    1.3283   -2.0675    0.5482 H   0  0  0  0  0  0  0  0  0  0  0  0
    2.6208   -0.8765    0.4709 H   0  0  0  0  0  0  0  0  0  0  0  0
   -0.5458   -0.4707    0.6986 H   0  0  0  0  0  0  0  0  0  0  0  0
    0.2342    1.2810    2.2228 H   0  0  0  0  0  0  0  0  0  0  0  0
    1.6651    0.2775    2.4326 H   0  0  0  0  0  0  0  0  0  0  0  0
    2.9051    1.6405    0.7943 H   0  0  0  0  0  0  0  0  0  0  0  0
    2.0619    2.8447    1.7617 H   0  0  0  0  0  0  0  0  0  0  0  0
    0.2342    2.9581    0.1354 H   0  0  0  0  0  0  0  0  0  0  0  0
    1.6651    2.9468   -0.8898 H   0  0  0  0  0  0  0  0  0  0  0  0
   -0.3466    1.0777   -1.1589 H   0  0  0  0  0  0  0  0  0  0  0  0
    1.3283    0.6013   -2.7736 H   0  0  0  0  0  0  0  0  0  0  0  0
    2.6208    0.7824   -1.5940 H   0  0  0  0  0  0  0  0  0  0  0  0
  1  2  3  0
  1  6  1  0
  2  3  1  0
  3  4  1  0
  3  7  1  0
  4  5  3  0
  5  8  1  0
  9 10  1  0
  9 16  1  0
  9 17  1  0
  9 18  1  0
 10 11  1  0
 10 19  1  0
 10 20  1  0
 11 12  1  0
 11 15  1  0
 11 21  1  0
 12 13  1  0
 12 22  1  0
 12 23  1  0
 13 14  1  0
 13 24  1  0
 13 25  1  0
 14 15  1  0
 14 26  1  0
 14 27  1  0
 15 16  1  0
 15 28  1  0
 16 29  1  0
 16 30  1  0
M  RAD  1   3   2
M  END
>  <reaction>  (13) 
rxn_567

>  <mol_properties>  (13) 
{"1": {"label": "*0", "atom_type": "Ct"}, "2": {"label": "*1", "atom_type": "Cs"}, "10": {"label": "*3", "atom_type": "Cs"}, "14": {"label": "*4", "atom_type": "Cs"}, "20": {"label": "*2", "atom_type": "H0"}}

>  <type>  (13) 
unop_9

>  <geom_source>  (13) 
Heuristics

$$$$

     RDKit          3D

 30 30  0  0  0  0  0  0  0  0999 V2000
   -1.5994   -2.5069    2.5512 C   0  0  0  0  0  0  0  0  0  0  0  0
   -1.6503   -1.7017    1.6691 C   0  0  0  0  0  0  0  0  0  0  0  0
   -1.7127   -0.7162    0.5896 C   0  0  0  0  0  3  0  0  0  0  0  0
   -2.8059   -0.9550   -0.3529 C   0  0  0  0  0  0  0  0  0  0  0  0
   -3.6992   -1.1501   -1.1231 C   0  0  0  0  0  0  0  0  0  0  0  0
   -1.5541   -3.2233    3.3359 H   0  0  0  0  0  0  0  0  0  0  0  0
   -1.8221    0.2827    1.0210 H   0  0  0  0  0  0  0  0  0  0  0  0
   -4.4938   -1.3236   -1.8082 H   0  0  0  0  0  0  0  0  0  0  0  0
    1.6436   -0.8571   -1.7231 C   0  0  0  0  0  0  0  0  0  0  0  0
    1.6436   -0.8571   -0.1966 C   0  0  0  0  0  0  0  0  0  0  0  0
    0.6803    0.2777    0.1917 C   0  0  0  0  0  0  0  0  0  0  0  0
    1.1330    1.1162    1.3962 C   0  0  0  0  0  0  0  0  0  0  0  0
    1.9450    2.2544    0.7768 C   0  0  0  0  0  0  0  0  0  0  0  0
    1.1330    2.6140   -0.4681 C   0  0  0  0  0  0  0  0  0  0  0  0
    0.6803    1.2572   -1.0275 C   0  0  0  0  0  0  0  0  0  0  0  0
    1.6436    0.6335   -2.0519 C   0  0  0  0  0  0  0  0  0  0  0  0
    2.4885   -1.3953   -2.1554 H   0  0  0  0  0  0  0  0  0  0  0  0
    0.7278   -1.3239   -2.0981 H   0  0  0  0  0  0  0  0  0  0  0  0
    1.3593   -1.8154    0.2400 H   0  0  0  0  0  0  0  0  0  0  0  0
    2.6518   -0.6245    0.1627 H   0  0  0  0  0  0  0  0  0  0  0  0
   -0.5148   -0.2187    0.3904 H   0  0  0  0  0  0  0  0  0  0  0  0
    0.2652    1.5330    1.9146 H   0  0  0  0  0  0  0  0  0  0  0  0
    1.6961    0.5295    2.1245 H   0  0  0  0  0  0  0  0  0  0  0  0
    2.9361    1.8926    0.4861 H   0  0  0  0  0  0  0  0  0  0  0  0
    2.0929    3.0967    1.4536 H   0  0  0  0  0  0  0  0  0  0  0  0
    0.2652    3.2101   -0.1728 H   0  0  0  0  0  0  0  0  0  0  0  0
    1.6961    3.1988   -1.1979 H   0  0  0  0  0  0  0  0  0  0  0  0
   -0.3156    1.3298   -1.4670 H   0  0  0  0  0  0  0  0  0  0  0  0
    1.3593    0.8534   -3.0818 H   0  0  0  0  0  0  0  0  0  0  0  0
    2.6518    1.0345   -1.9022 H   0  0  0  0  0  0  0  0  0  0  0  0
  1  2  3  0
  1  6  1  0
  2  3  1  0
  3  4  1  0
  3  7  1  0
  4  5  3  0
  5  8  1  0
  9 10  1  0
  9 16  1  0
  9 17  1  0
  9 18  1  0
 10 11  1  0
 10 19  1  0
 10 20  1  0
 11 12  1  0
 11 15  1  0
 11 21  1  0
 12 13  1  0
 12 22  1  0
 12 23  1  0
 13 14  1  0
 13 24  1  0
 13 25  1  0
 14 15  1  0
 14 26  1  0
 14 27  1  0
 15 16  1  0
 15 28  1  0
 16 29  1  0
 16 30  1  0
M  RAD  1   3   2
M  END
>  <reaction>  (14) 
rxn_567

>  <mol_properties>  (14) 
{"1": {"label": "*0", "atom_type": "Ct"}, "2": {"label": "*1", "atom_type": "Cs"}, "10": {"label": "*3", "atom_type": "Cs"}, "14": {"label": "*4", "atom_type": "Cs"}, "20": {"label": "*2", "atom_type": "H0"}}

>  <type>  (14) 
unop_10

>  <geom_source>  (14) 
Heuristics

$$$$

     RDKit          3D

 30 30  0  0  0  0  0  0  0  0999 V2000
   -3.6119    0.6673   -0.2178 C   0  0  0  0  0  0  0  0  0  0  0  0
   -2.7928   -0.1588    0.0578 C   0  0  0  0  0  0  0  0  0  0  0  0
   -1.7905   -1.1697    0.3950 C   0  0  0  0  0  3  0  0  0  0  0  0
   -1.4414   -1.1908    1.8156 C   0  0  0  0  0  0  0  0  0  0  0  0
   -1.1562   -1.2081    2.9764 C   0  0  0  0  0  0  0  0  0  0  0  0
   -4.3405    1.4021   -0.4629 H   0  0  0  0  0  0  0  0  0  0  0  0
   -2.1618   -2.1556    0.1017 H   0  0  0  0  0  0  0  0  0  0  0  0
   -0.9025   -1.2234    4.0091 H   0  0  0  0  0  0  0  0  0  0  0  0
    1.5658   -1.3106   -1.9176 C   0  0  0  0  0  0  0  0  0  0  0  0
    1.5658   -1.3106   -0.3912 C   0  0  0  0  0  0  0  0  0  0  0  0
    0.6025   -0.1759   -0.0028 C   0  0  0  0  0  0  0  0  0  0  0  0
    1.0552    0.6627    1.2016 C   0  0  0  0  0  0  0  0  0  0  0  0
    1.8672    1.8009    0.5822 C   0  0  0  0  0  0  0  0  0  0  0  0
    1.0552    2.1605   -0.6627 C   0  0  0  0  0  0  0  0  0  0  0  0
    0.6025    0.8037   -1.2221 C   0  0  0  0  0  0  0  0  0  0  0  0
    1.5658    0.1800   -2.2465 C   0  0  0  0  0  0  0  0  0  0  0  0
    2.4107   -1.8488   -2.3500 H   0  0  0  0  0  0  0  0  0  0  0  0
    0.6500   -1.7775   -2.2927 H   0  0  0  0  0  0  0  0  0  0  0  0
    1.2815   -2.2690    0.0454 H   0  0  0  0  0  0  0  0  0  0  0  0
    2.5740   -1.0781   -0.0319 H   0  0  0  0  0  0  0  0  0  0  0  0
   -0.5926   -0.6722    0.1958 H   0  0  0  0  0  0  0  0  0  0  0  0
    0.1874    1.0795    1.7200 H   0  0  0  0  0  0  0  0  0  0  0  0
    1.6183    0.0760    1.9299 H   0  0  0  0  0  0  0  0  0  0  0  0
    2.8583    1.4390    0.2915 H   0  0  0  0  0  0  0  0  0  0  0  0
    2.0152    2.6432    1.2590 H   0  0  0  0  0  0  0  0  0  0  0  0
    0.1874    2.7565   -0.3673 H   0  0  0  0  0  0  0  0  0  0  0  0
    1.6183    2.7452   -1.3925 H   0  0  0  0  0  0  0  0  0  0  0  0
   -0.3934    0.8762   -1.6616 H   0  0  0  0  0  0  0  0  0  0  0  0
    1.2815    0.3998   -3.2764 H   0  0  0  0  0  0  0  0  0  0  0  0
    2.5740    0.5809   -2.0968 H   0  0  0  0  0  0  0  0  0  0  0  0
  1  2  3  0
  1  6  1  0
  2  3  1  0
  3  4  1  0
  3  7  1  0
  4  5  3  0
  5  8  1  0
  9 10  1  0
  9 16  1  0
  9 17  1  0
  9 18  1  0
 10 11  1  0
 10 19  1  0
 10 20  1  0
 11 12  1  0
 11 15  1  0
 11 21  1  0
 12 13  1  0
 12 22  1  0
 12 23  1  0
 13 14  1  0
 13 24  1  0
 13 25  1  0
 14 15  1  0
 14 26  1  0
 14 27  1  0
 15 16  1  0
 15 28  1  0
 16 29  1  0
 16 30  1  0
M  RAD  1   3   2
M  END
>  <reaction>  (15) 
rxn_567

>  <mol_properties>  (15) 
{"1": {"label": "*0", "atom_type": "Ct"}, "2": {"label": "*1", "atom_type": "Cs"}, "10": {"label": "*3", "atom_type": "Cs"}, "14": {"label": "*4", "atom_type": "Cs"}, "20": {"label": "*2", "atom_type": "H0"}}

>  <type>  (15) 
unop_11

>  <geom_source>  (15) 
Heuristics

$$$$

     RDKit          3D

 30 30  0  0  0  0  0  0  0  0999 V2000
   -1.6680   -3.4379    0.4362 C   0  0  0  0  0  0  0  0  0  0  0  0
   -1.6981   -2.2568    0.6187 C   0  0  0  0  0  0  0  0  0  0  0  0
   -1.7348   -0.8114    0.8420 C   0  0  0  0  0  3  0  0  0  0  0  0
   -2.6932   -0.1149   -0.0164 C   0  0  0  0  0  0  0  0  0  0  0  0
   -3.4763    0.4542   -0.7178 C   0  0  0  0  0  0  0  0  0  0  0  0
   -1.6413   -4.4885    0.2739 H   0  0  0  0  0  0  0  0  0  0  0  0
   -1.9823   -0.6159    1.8891 H   0  0  0  0  0  0  0  0  0  0  0  0
   -4.1730    0.9605   -1.3418 H   0  0  0  0  0  0  0  0  0  0  0  0
    1.6215   -0.9523   -1.4706 C   0  0  0  0  0  0  0  0  0  0  0  0
    1.6215   -0.9523    0.0558 C   0  0  0  0  0  0  0  0  0  0  0  0
    0.6581    0.1825    0.4442 C   0  0  0  0  0  0  0  0  0  0  0  0
    1.1109    1.0211    1.6486 C   0  0  0  0  0  0  0  0  0  0  0  0
    1.9229    2.1592    1.0292 C   0  0  0  0  0  0  0  0  0  0  0  0
    1.1109    2.5189   -0.2157 C   0  0  0  0  0  0  0  0  0  0  0  0
    0.6581    1.1620   -0.7751 C   0  0  0  0  0  0  0  0  0  0  0  0
    1.6215    0.5383   -1.7995 C   0  0  0  0  0  0  0  0  0  0  0  0
    2.4663   -1.4905   -1.9030 H   0  0  0  0  0  0  0  0  0  0  0  0
    0.7056   -1.4191   -1.8457 H   0  0  0  0  0  0  0  0  0  0  0  0
    1.3372   -1.9106    0.4924 H   0  0  0  0  0  0  0  0  0  0  0  0
    2.6296   -0.7197    0.4151 H   0  0  0  0  0  0  0  0  0  0  0  0
   -0.5369   -0.3139    0.6428 H   0  0  0  0  0  0  0  0  0  0  0  0
    0.2431    1.4379    2.1670 H   0  0  0  0  0  0  0  0  0  0  0  0
    1.6740    0.4343    2.3769 H   0  0  0  0  0  0  0  0  0  0  0  0
    2.9140    1.7974    0.7385 H   0  0  0  0  0  0  0  0  0  0  0  0
    2.0708    3.0016    1.7060 H   0  0  0  0  0  0  0  0  0  0  0  0
    0.2431    3.1149    0.0797 H   0  0  0  0  0  0  0  0  0  0  0  0
    1.6740    3.1036   -0.9455 H   0  0  0  0  0  0  0  0  0  0  0  0
   -0.3377    1.2346   -1.2146 H   0  0  0  0  0  0  0  0  0  0  0  0
    1.3372    0.7582   -2.8294 H   0  0  0  0  0  0  0  0  0  0  0  0
    2.6296    0.9393   -1.6498 H   0  0  0  0  0  0  0  0  0  0  0  0
  1  2  3  0
  1  6  1  0
  2  3  1  0
  3  4  1  0
  3  7  1  0
  4  5  3  0
  5  8  1  0
  9 10  1  0
  9 16  1  0
  9 17  1  0
  9 18  1  0
 10 11  1  0
 10 19  1  0
 10 20  1  0
 11 12  1  0
 11 15  1  0
 11 21  1  0
 12 13  1  0
 12 22  1  0
 12 23  1  0
 13 14  1  0
 13 24  1  0
 13 25  1  0
 14 15  1  0
 14 26  1  0
 14 27  1  0
 15 16  1  0
 15 28  1  0
 16 29  1  0
 16 30  1  0
M  RAD  1   3   2
M  END
>  <reaction>  (16) 
rxn_567

>  <mol_properties>  (16) 
{"1": {"label": "*0", "atom_type": "Ct"}, "2": {"label": "*1", "atom_type": "Cs"}, "10": {"label": "*3", "atom_type": "Cs"}, "14": {"label": "*4", "atom_type": "Cs"}, "20": {"label": "*2", "atom_type": "H0"}}

>  <type>  (16) 
unop_12

>  <geom_source>  (16) 
Heuristics

$$$$

     RDKit          3D

 30 30  0  0  0  0  0  0  0  0999 V2000
   -1.2028    0.0934    0.7535 C   0  0  0  0  0  0  0  0  0  0  0  0
   -2.2275   -0.9399    0.2744 C   0  0  0  0  0  0  0  0  0  0  0  0
   -1.7815    1.4781    1.0615 C   0  0  0  0  0  0  0  0  0  0  0  0
   -1.5512   -1.6737   -0.8719 C   0  0  0  0  0  0  0  0  0  0  0  0
   -0.7872    2.4675    0.4761 C   0  0  0  0  0  0  0  0  0  0  0  0
   -0.6300   -0.6507   -1.5153 C   0  0  0  0  0  0  0  0  0  0  0  0
   -0.1843    1.7650   -0.7289 C   0  0  0  0  0  0  0  0  0  0  0  0
    1.9585   -1.0600    0.1692 C   0  0  0  0  0  3  0  0  0  0  0  0
   -0.2034    0.2773   -0.3779 C   0  0  0  0  0  0  0  0  0  0  0  0
    2.5403   -0.9805    1.5105 C   0  0  0  0  0  0  0  0  0  0  0  0
    3.0033   -0.8537   -0.8357 C   0  0  0  0  0  0  0  0  0  0  0  0
    3.0174   -0.9151    2.6159 C   0  0  0  0  0  0  0  0  0  0  0  0
    3.8621   -0.6838   -1.6647 C   0  0  0  0  0  0  0  0  0  0  0  0
   -0.6538   -0.2961    1.6391 H   0  0  0  0  0  0  0  0  0  0  0  0
   -2.5005   -1.6424    1.0914 H   0  0  0  0  0  0  0  0  0  0  0  0
   -3.1540   -0.4590   -0.1088 H   0  0  0  0  0  0  0  0  0  0  0  0
   -2.2944   -2.0669   -1.5991 H   0  0  0  0  0  0  0  0  0  0  0  0
   -0.9485   -2.5183   -0.4698 H   0  0  0  0  0  0  0  0  0  0  0  0
   -1.8969    1.6299    2.1565 H   0  0  0  0  0  0  0  0  0  0  0  0
   -2.7678    1.6340    0.5724 H   0  0  0  0  0  0  0  0  0  0  0  0
   -1.2822    3.4200    0.1870 H   0  0  0  0  0  0  0  0  0  0  0  0
    0.0104    2.6800    1.2223 H   0  0  0  0  0  0  0  0  0  0  0  0
    0.2577   -1.1418   -1.9668 H   0  0  0  0  0  0  0  0  0  0  0  0
   -1.1911   -0.1092   -2.3079 H   0  0  0  0  0  0  0  0  0  0  0  0
   -0.8037    1.9908   -1.6244 H   0  0  0  0  0  0  0  0  0  0  0  0
    0.8569    2.1060   -0.9096 H   0  0  0  0  0  0  0  0  0  0  0  0
    1.4990   -2.0594    0.0245 H   0  0  0  0  0  0  0  0  0  0  0  0
    1.0031   -0.0990    0.0326 H   0  0  0  0  0  0  0  0  0  0  0  0
    3.4363   -0.8577    3.5861 H   0  0  0  0  0  0  0  0  0  0  0  0
    4.6161   -0.5347   -2.3922 H   0  0  0  0  0  0  0  0  0  0  0  0
  1  2  1  0
  1  3  1  0
  1  9  1  0
  1 14  1  0
  2  4  1  0
  2 15  1  0
  2 16  1  0
  3  5  1  0
  3 19  1  0
  3 20  1  0
  4  6  1  0
  4 17  1  0
  4 18  1  0
  5  7  1  0
  5 21  1  0
  5 22  1  0
  6  9  1  0
  6 23  1  0
  6 24  1  0
  7  9  1  0
  7 25  1  0
  7 26  1  0
  8 10  1  0
  8 11  1  0
  8 27  1  0
  9 28  1  0
 10 12  3  0
 11 13  3  0
 12 29  1  0
 13 30  1  0
M  RAD  1   8   2
M  END
>  <reaction>  (17) 
rxn_567

>  <mol_properties>  (17) 
{"1": {"label": "*0", "atom_type": "Ct"}, "2": {"label": "*1", "atom_type": "Cs"}, "10": {"label": "*3", "atom_type": "Cs"}, "14": {"label": "*4", "atom_type": "Cs"}, "20": {"label": "*2", "atom_type": "H0"}}

>  <type>  (17) 
unop_13

>  <geom_source>  (17) 
AutoTST

$$$$
