
     RDKit          3D

 15 14  0  0  0  0  0  0  0  0999 V2000
    2.1256    0.4849   -0.6284 C   0  0  0  0  0  0  0  0  0  0  0  0
    1.1128    0.2141    0.1794 C   0  0  0  0  0  0  0  0  0  0  0  0
   -0.3017   -0.0425   -0.2513 C   0  0  0  0  0  0  0  0  0  0  0  0
   -1.2427    1.0075    0.3423 C   0  0  0  0  0  0  0  0  0  0  0  0
   -0.7381   -1.4526    0.1504 C   0  0  0  0  0  0  0  0  0  0  0  0
    3.1243    0.6602   -0.2486 H   0  0  0  0  0  0  0  0  0  0  0  0
    1.9908    0.5411   -1.7036 H   0  0  0  0  0  0  0  0  0  0  0  0
    1.2888    0.1665    1.2533 H   0  0  0  0  0  0  0  0  0  0  0  0
   -0.3426    0.0343   -1.3424 H   0  0  0  0  0  0  0  0  0  0  0  0
   -0.9570    2.0133    0.0315 H   0  0  0  0  0  0  0  0  0  0  0  0
   -1.2189    0.9728    1.4350 H   0  0  0  0  0  0  0  0  0  0  0  0
   -2.2723    0.8287    0.0254 H   0  0  0  0  0  0  0  0  0  0  0  0
   -0.6964   -1.5744    1.2363 H   0  0  0  0  0  0  0  0  0  0  0  0
   -0.0911   -2.2079   -0.2978 H   0  0  0  0  0  0  0  0  0  0  0  0
   -1.7646   -1.6461   -0.1677 H   0  0  0  0  0  0  0  0  0  0  0  0
  1  2  2  3
  1  6  1  0
  1  7  1  0
  2  3  1  0
  2  8  1  0
  3  4  1  0
  3  5  1  0
  3  9  1  0
  4 10  1  0
  4 11  1  0
  4 12  1  0
  5 13  1  0
  5 14  1  0
  5 15  1  0
M  END
>  <reaction>  (1) 
rxn_1092

>  <mol_properties>  (1) 
{"2": {"label": "donator", "atom_type": "Cs"}, "8": {"label": "d_hydrogen", "atom_type": "H0"}}

>  <type>  (1) 
r1h

$$$$

     RDKit          3D

 12 11  0  0  0  0  0  0  0  0999 V2000
    2.5164   -0.5559   -0.0242 C   0  0  0  0  0  0  0  0  0  0  0  0
    1.3287   -0.2938   -0.0132 C   0  0  0  0  0  0  0  0  0  0  0  0
   -0.0146    0.0027   -0.0006 C   0  0  0  0  0  3  0  0  0  0  0  0
   -1.0396   -1.0729   -0.1642 C   0  0  0  0  0  0  0  0  0  0  0  0
   -0.4887    1.4091    0.1769 C   0  0  0  0  0  0  0  0  0  0  0  0
    3.5543   -0.7850   -0.0339 H   0  0  0  0  0  0  0  0  0  0  0  0
   -1.7064   -1.1056    0.7044 H   0  0  0  0  0  0  0  0  0  0  0  0
   -0.5831   -2.0533   -0.2854 H   0  0  0  0  0  0  0  0  0  0  0  0
   -1.6716   -0.8741   -1.0367 H   0  0  0  0  0  0  0  0  0  0  0  0
   -1.0951    1.7228   -0.6798 H   0  0  0  0  0  0  0  0  0  0  0  0
    0.3401    2.1059    0.2861 H   0  0  0  0  0  0  0  0  0  0  0  0
   -1.1300    1.4913    1.0613 H   0  0  0  0  0  0  0  0  0  0  0  0
  1  2  3  0
  1  6  1  0
  2  3  1  0
  3  4  1  0
  3  5  1  0
  4  7  1  0
  4  8  1  0
  4  9  1  0
  5 10  1  0
  5 11  1  0
  5 12  1  0
M  RAD  1   3   2
M  END
>  <reaction>  (2) 
rxn_1092

>  <mol_properties>  (2) 
{"2": {"label": "acceptor", "atom_type": "Cs"}}

>  <type>  (2) 
r2

$$$$

     RDKit          3D

 13 12  0  0  0  0  0  0  0  0999 V2000
    2.2975   -0.6134    0.7685 C   0  0  0  0  0  0  0  0  0  0  0  0
    1.1676   -0.5248    0.3802 C   0  0  0  0  0  0  0  0  0  0  0  0
   -0.2109   -0.3926   -0.0948 C   0  0  0  0  0  0  0  0  0  0  0  0
   -0.2501    0.2584   -1.4808 C   0  0  0  0  0  0  0  0  0  0  0  0
   -1.0633    0.3831    0.9141 C   0  0  0  0  0  0  0  0  0  0  0  0
    3.2999   -0.6974    1.1133 H   0  0  0  0  0  0  0  0  0  0  0  0
   -0.6209   -1.4038   -0.1814 H   0  0  0  0  0  0  0  0  0  0  0  0
    0.3402   -0.3102   -2.1992 H   0  0  0  0  0  0  0  0  0  0  0  0
    0.1511    1.2724   -1.4369 H   0  0  0  0  0  0  0  0  0  0  0  0
   -1.2791    0.3109   -1.8407 H   0  0  0  0  0  0  0  0  0  0  0  0
   -0.6861    1.4008    1.0287 H   0  0  0  0  0  0  0  0  0  0  0  0
   -1.0492   -0.0971    1.8924 H   0  0  0  0  0  0  0  0  0  0  0  0
   -2.0971    0.4363    0.5680 H   0  0  0  0  0  0  0  0  0  0  0  0
  1  2  3  0
  1  6  1  0
  2  3  1  0
  3  4  1  0
  3  5  1  0
  3  7  1  0
  4  8  1  0
  4  9  1  0
  4 10  1  0
  5 11  1  0
  5 12  1  0
  5 13  1  0
M  END
>  <reaction>  (3) 
rxn_1092

>  <mol_properties>  (3) 
{"2": {"label": "acceptor", "atom_type": "Cs"}, "12": {"label": "a_hydrogen", "atom_type": "H0"}}

>  <type>  (3) 
r2h

$$$$

     RDKit          3D

 27 25  0  0  0  0  0  0  0  0999 V2000
   -2.6597    2.0497    0.3232 C   0  0  0  0  0  0  0  0  0  0  0  0
   -1.5481    1.7550   -0.0342 C   0  0  0  0  0  0  0  0  0  0  0  0
   -0.2374    1.3521   -0.4238 C   0  0  0  0  0  3  0  0  0  0  0  0
    0.9024    2.1299    0.1970 C   0  0  0  0  0  0  0  0  0  0  0  0
   -0.0613    1.0169   -1.8885 C   0  0  0  0  0  0  0  0  0  0  0  0
   -3.6397    2.3255    0.6295 H   0  0  0  0  0  0  0  0  0  0  0  0
    1.8375    1.5783    0.0780 H   0  0  0  0  0  0  0  0  0  0  0  0
    0.7314    2.2999    1.2598 H   0  0  0  0  0  0  0  0  0  0  0  0
    1.0184    3.1045   -0.2874 H   0  0  0  0  0  0  0  0  0  0  0  0
   -0.0378    1.9254   -2.4978 H   0  0  0  0  0  0  0  0  0  0  0  0
   -0.8750    0.3883   -2.2505 H   0  0  0  0  0  0  0  0  0  0  0  0
    0.8829    0.4879   -2.0380 H   0  0  0  0  0  0  0  0  0  0  0  0
    2.5273   -1.4941    0.8682 C   0  0  0  0  0  0  0  0  0  0  0  0
    1.3522   -1.5399    0.2348 C   0  0  0  0  0  0  0  0  0  0  0  0
    0.0632   -1.0573    0.7326 C   0  0  0  0  0  0  0  0  0  0  0  0
   -0.0282   -0.6845    2.1925 C   0  0  0  0  0  0  0  0  0  0  0  0
   -1.1483   -1.7931    0.2034 C   0  0  0  0  0  0  0  0  0  0  0  0
    3.4299   -1.8537    0.3916 H   0  0  0  0  0  0  0  0  0  0  0  0
    2.6263   -1.1114    1.8766 H   0  0  0  0  0  0  0  0  0  0  0  0
    1.3322   -1.9509   -0.7722 H   0  0  0  0  0  0  0  0  0  0  0  0
   -0.0808    0.1212    0.1507 H   0  0  0  0  0  0  0  0  0  0  0  0
    0.7702   -0.0024    2.4883 H   0  0  0  0  0  0  0  0  0  0  0  0
    0.0382   -1.5736    2.8278 H   0  0  0  0  0  0  0  0  0  0  0  0
   -0.9803   -0.1916    2.3968 H   0  0  0  0  0  0  0  0  0  0  0  0
   -1.2774   -2.7521    0.7156 H   0  0  0  0  0  0  0  0  0  0  0  0
   -1.0540   -1.9960   -0.8652 H   0  0  0  0  0  0  0  0  0  0  0  0
   -2.0551   -1.2050    0.3593 H   0  0  0  0  0  0  0  0  0  0  0  0
  1  2  3  0
  1  6  1  0
  2  3  1  0
  3  4  1  0
  3  5  1  0
  4  7  1  0
  4  8  1  0
  4  9  1  0
  5 10  1  0
  5 11  1  0
  5 12  1  0
 13 14  2  3
 13 18  1  0
 13 19  1  0
 14 15  1  0
 14 20  1  0
 15 16  1  0
 15 17  1  0
 15 21  1  0
 16 22  1  0
 16 23  1  0
 16 24  1  0
 17 25  1  0
 17 26  1  0
 17 27  1  0
M  RAD  1   3   2
M  END
>  <reaction>  (4) 
rxn_1092

>  <mol_properties>  (4) 
{"1": {"label": "*4", "atom_type": "Ct"}, "2": {"label": "*3", "atom_type": "Cs"}, "13": {"label": "*0", "atom_type": "Cd"}, "14": {"label": "*1", "atom_type": "Cs"}, "20": {"label": "*2", "atom_type": "H0"}}

>  <type>  (4) 
ts

$$$$

     RDKit          3D

 27 25  0  0  0  0  0  0  0  0999 V2000
   -2.0546    2.4444   -0.1637 C   0  0  0  0  0  0  0  0  0  0  0  0
   -1.0733    1.8035   -0.4119 C   0  0  0  0  0  0  0  0  0  0  0  0
    0.1382    1.0406   -0.7180 C   0  0  0  0  0  3  0  0  0  0  0  0
    1.2289    1.3084    0.3235 C   0  0  0  0  0  0  0  0  0  0  0  0
    0.6298    1.3438   -2.1366 C   0  0  0  0  0  0  0  0  0  0  0  0
   -2.9255    3.0133    0.0565 H   0  0  0  0  0  0  0  0  0  0  0  0
    2.1097    0.7009    0.1078 H   0  0  0  0  0  0  0  0  0  0  0  0
    0.8805    1.0698    1.3283 H   0  0  0  0  0  0  0  0  0  0  0  0
    1.5231    2.3593    0.3055 H   0  0  0  0  0  0  0  0  0  0  0  0
    0.9063    2.3957   -2.2272 H   0  0  0  0  0  0  0  0  0  0  0  0
   -0.1431    1.1304   -2.8748 H   0  0  0  0  0  0  0  0  0  0  0  0
    1.5071    0.7366   -2.3665 H   0  0  0  0  0  0  0  0  0  0  0  0
    0.1382   -2.2938   -1.3525 C   0  0  0  0  0  0  0  0  0  0  0  0
    0.1382   -2.2938   -0.0290 C   0  0  0  0  0  0  0  0  0  0  0  0
    0.1382   -1.0724    0.8430 C   0  0  0  0  0  0  0  0  0  0  0  0
    1.3975   -1.0319    1.7107 C   0  0  0  0  0  0  0  0  0  0  0  0
   -1.1211   -1.0319    1.7107 C   0  0  0  0  0  0  0  0  0  0  0  0
    0.1382   -3.2155   -1.9208 H   0  0  0  0  0  0  0  0  0  0  0  0
    0.1382   -1.3672   -1.9171 H   0  0  0  0  0  0  0  0  0  0  0  0
    0.1382   -3.2451    0.5015 H   0  0  0  0  0  0  0  0  0  0  0  0
    0.1382   -0.0160    0.0626 H   0  0  0  0  0  0  0  0  0  0  0  0
    2.2990   -1.0260    1.0965 H   0  0  0  0  0  0  0  0  0  0  0  0
    1.4421   -1.9058    2.3665 H   0  0  0  0  0  0  0  0  0  0  0  0
    1.4050   -0.1407    2.3417 H   0  0  0  0  0  0  0  0  0  0  0  0
   -1.1657   -1.9058    2.3665 H   0  0  0  0  0  0  0  0  0  0  0  0
   -2.0227   -1.0260    1.0965 H   0  0  0  0  0  0  0  0  0  0  0  0
   -1.1287   -0.1407    2.3417 H   0  0  0  0  0  0  0  0  0  0  0  0
  1  2  3  0
  1  6  1  0
  2  3  1  0
  3  4  1  0
  3  5  1  0
  4  7  1  0
  4  8  1  0
  4  9  1  0
  5 10  1  0
  5 11  1  0
  5 12  1  0
 13 14  2  3
 13 18  1  0
 13 19  1  0
 14 15  1  0
 14 20  1  0
 15 16  1  0
 15 17  1  0
 15 21  1  0
 16 22  1  0
 16 23  1  0
 16 24  1  0
 17 25  1  0
 17 26  1  0
 17 27  1  0
M  RAD  1   3   2
M  END
>  <reaction>  (5) 
rxn_1092

>  <mol_properties>  (5) 
{"1": {"label": "*4", "atom_type": "Ct"}, "2": {"label": "*3", "atom_type": "Cs"}, "13": {"label": "*0", "atom_type": "Cd"}, "14": {"label": "*1", "atom_type": "Cs"}, "20": {"label": "*2", "atom_type": "H0"}}

>  <type>  (5) 
unop_1

>  <geom_source>  (5) 
Heuristics

$$$$

     RDKit          3D

 27 25  0  0  0  0  0  0  0  0999 V2000
   -1.1282    0.5682   -2.6680 C   0  0  0  0  0  0  0  0  0  0  0  0
   -0.5533    0.8541   -1.6565 C   0  0  0  0  0  0  0  0  0  0  0  0
    0.1461    1.2267   -0.4255 C   0  0  0  0  0  3  0  0  0  0  0  0
   -0.7811    2.0021    0.5153 C   0  0  0  0  0  0  0  0  0  0  0  0
    1.4181    2.0201   -0.7398 C   0  0  0  0  0  0  0  0  0  0  0  0
   -1.6384    0.3145   -3.5657 H   0  0  0  0  0  0  0  0  0  0  0  0
   -0.2605    2.2352    1.4457 H   0  0  0  0  0  0  0  0  0  0  0  0
   -1.6738    1.4235    0.7527 H   0  0  0  0  0  0  0  0  0  0  0  0
   -1.0957    2.9394    0.0530 H   0  0  0  0  0  0  0  0  0  0  0  0
    1.1684    2.9580   -1.2391 H   0  0  0  0  0  0  0  0  0  0  0  0
    2.0836    1.4543   -1.3916 H   0  0  0  0  0  0  0  0  0  0  0  0
    1.9515    2.2534    0.1834 H   0  0  0  0  0  0  0  0  0  0  0  0
    0.1461   -2.1076   -1.0601 C   0  0  0  0  0  0  0  0  0  0  0  0
    0.1461   -2.1076    0.2634 C   0  0  0  0  0  0  0  0  0  0  0  0
    0.1461   -0.8862    1.1354 C   0  0  0  0  0  0  0  0  0  0  0  0
    1.4054   -0.8458    2.0031 C   0  0  0  0  0  0  0  0  0  0  0  0
   -1.1132   -0.8458    2.0031 C   0  0  0  0  0  0  0  0  0  0  0  0
    0.1461   -3.0293   -1.6284 H   0  0  0  0  0  0  0  0  0  0  0  0
    0.1461   -1.1811   -1.6247 H   0  0  0  0  0  0  0  0  0  0  0  0
    0.1461   -3.0589    0.7939 H   0  0  0  0  0  0  0  0  0  0  0  0
    0.1461    0.1702    0.3550 H   0  0  0  0  0  0  0  0  0  0  0  0
    2.3070   -0.8399    1.3889 H   0  0  0  0  0  0  0  0  0  0  0  0
    1.4500   -1.7196    2.6589 H   0  0  0  0  0  0  0  0  0  0  0  0
    1.4130    0.0454    2.6341 H   0  0  0  0  0  0  0  0  0  0  0  0
   -1.1577   -1.7196    2.6589 H   0  0  0  0  0  0  0  0  0  0  0  0
   -2.0147   -0.8399    1.3889 H   0  0  0  0  0  0  0  0  0  0  0  0
   -1.1207    0.0454    2.6341 H   0  0  0  0  0  0  0  0  0  0  0  0
  1  2  3  0
  1  6  1  0
  2  3  1  0
  3  4  1  0
  3  5  1  0
  4  7  1  0
  4  8  1  0
  4  9  1  0
  5 10  1  0
  5 11  1  0
  5 12  1  0
 13 14  2  3
 13 18  1  0
 13 19  1  0
 14 15  1  0
 14 20  1  0
 15 16  1  0
 15 17  1  0
 15 21  1  0
 16 22  1  0
 16 23  1  0
 16 24  1  0
 17 25  1  0
 17 26  1  0
 17 27  1  0
M  RAD  1   3   2
M  END
>  <reaction>  (6) 
rxn_1092

>  <mol_properties>  (6) 
{"1": {"label": "*4", "atom_type": "Ct"}, "2": {"label": "*3", "atom_type": "Cs"}, "13": {"label": "*0", "atom_type": "Cd"}, "14": {"label": "*1", "atom_type": "Cs"}, "20": {"label": "*2", "atom_type": "H0"}}

>  <type>  (6) 
unop_2

>  <geom_source>  (6) 
Heuristics

$$$$

     RDKit          3D

 27 25  0  0  0  0  0  0  0  0999 V2000
   -1.2169    2.9660    0.5656 C   0  0  0  0  0  0  0  0  0  0  0  0
   -0.6548    2.0794   -0.0118 C   0  0  0  0  0  0  0  0  0  0  0  0
    0.0447    1.0122   -0.7296 C   0  0  0  0  0  3  0  0  0  0  0  0
    1.5491    1.0589   -0.4453 C   0  0  0  0  0  0  0  0  0  0  0  0
   -0.2453    1.0846   -2.2319 C   0  0  0  0  0  0  0  0  0  0  0  0
   -1.7158    3.7529    1.0780 H   0  0  0  0  0  0  0  0  0  0  0  0
    2.0514    0.2326   -0.9513 H   0  0  0  0  0  0  0  0  0  0  0  0
    1.7499    0.9848    0.6234 H   0  0  0  0  0  0  0  0  0  0  0  0
    1.9765    1.9952   -0.8081 H   0  0  0  0  0  0  0  0  0  0  0  0
    0.1292    2.0217   -2.6474 H   0  0  0  0  0  0  0  0  0  0  0  0
   -1.3158    1.0287   -2.4290 H   0  0  0  0  0  0  0  0  0  0  0  0
    0.2467    0.2584   -2.7483 H   0  0  0  0  0  0  0  0  0  0  0  0
    0.0447   -2.3221   -1.3641 C   0  0  0  0  0  0  0  0  0  0  0  0
    0.0447   -2.3221   -0.0406 C   0  0  0  0  0  0  0  0  0  0  0  0
    0.0447   -1.1007    0.8314 C   0  0  0  0  0  0  0  0  0  0  0  0
    1.3040   -1.0603    1.6990 C   0  0  0  0  0  0  0  0  0  0  0  0
   -1.2146   -1.0603    1.6990 C   0  0  0  0  0  0  0  0  0  0  0  0
    0.0447   -3.2438   -1.9324 H   0  0  0  0  0  0  0  0  0  0  0  0
    0.0447   -1.3955   -1.9287 H   0  0  0  0  0  0  0  0  0  0  0  0
    0.0447   -3.2734    0.4899 H   0  0  0  0  0  0  0  0  0  0  0  0
    0.0447   -0.0443    0.0509 H   0  0  0  0  0  0  0  0  0  0  0  0
    2.2055   -1.0544    1.0849 H   0  0  0  0  0  0  0  0  0  0  0  0
    1.3486   -1.9341    2.3548 H   0  0  0  0  0  0  0  0  0  0  0  0
    1.3115   -0.1691    2.3300 H   0  0  0  0  0  0  0  0  0  0  0  0
   -1.2592   -1.9341    2.3548 H   0  0  0  0  0  0  0  0  0  0  0  0
   -2.1162   -1.0544    1.0849 H   0  0  0  0  0  0  0  0  0  0  0  0
   -1.2222   -0.1691    2.3300 H   0  0  0  0  0  0  0  0  0  0  0  0
  1  2  3  0
  1  6  1  0
  2  3  1  0
  3  4  1  0
  3  5  1  0
  4  7  1  0
  4  8  1  0
  4  9  1  0
  5 10  1  0
  5 11  1  0
  5 12  1  0
 13 14  2  3
 13 18  1  0
 13 19  1  0
 14 15  1  0
 14 20  1  0
 15 16  1  0
 15 17  1  0
 15 21  1  0
 16 22  1  0
 16 23  1  0
 16 24  1  0
 17 25  1  0
 17 26  1  0
 17 27  1  0
M  RAD  1   3   2
M  END
>  <reaction>  (7) 
rxn_1092

>  <mol_properties>  (7) 
{"1": {"label": "*4", "atom_type": "Ct"}, "2": {"label": "*3", "atom_type": "Cs"}, "13": {"label": "*0", "atom_type": "Cd"}, "14": {"label": "*1", "atom_type": "Cs"}, "20": {"label": "*2", "atom_type": "H0"}}

>  <type>  (7) 
unop_3

>  <geom_source>  (7) 
Heuristics

$$$$

     RDKit          3D

 27 25  0  0  0  0  0  0  0  0999 V2000
    1.9791    1.0625   -2.0205 C   0  0  0  0  0  0  0  0  0  0  0  0
    0.9869    1.0988   -1.3500 C   0  0  0  0  0  0  0  0  0  0  0  0
   -0.2245    1.1671   -0.5308 C   0  0  0  0  0  3  0  0  0  0  0  0
   -1.3541    1.8745   -1.2857 C   0  0  0  0  0  0  0  0  0  0  0  0
    0.0630    1.8443    0.8126 C   0  0  0  0  0  0  0  0  0  0  0  0
    2.8597    1.0302   -2.6157 H   0  0  0  0  0  0  0  0  0  0  0  0
   -2.2626    1.8797   -0.6809 H   0  0  0  0  0  0  0  0  0  0  0  0
   -1.5689    1.3751   -2.2304 H   0  0  0  0  0  0  0  0  0  0  0  0
   -1.0788    2.9083   -1.5018 H   0  0  0  0  0  0  0  0  0  0  0  0
    0.3801    2.8772    0.6585 H   0  0  0  0  0  0  0  0  0  0  0  0
    0.8522    1.3235    1.3547 H   0  0  0  0  0  0  0  0  0  0  0  0
   -0.8373    1.8493    1.4296 H   0  0  0  0  0  0  0  0  0  0  0  0
   -0.2245   -2.1672   -1.1654 C   0  0  0  0  0  0  0  0  0  0  0  0
   -0.2245   -2.1672    0.1581 C   0  0  0  0  0  0  0  0  0  0  0  0
   -0.2245   -0.9458    1.0301 C   0  0  0  0  0  0  0  0  0  0  0  0
    1.0348   -0.9054    1.8978 C   0  0  0  0  0  0  0  0  0  0  0  0
   -1.4839   -0.9054    1.8978 C   0  0  0  0  0  0  0  0  0  0  0  0
   -0.2245   -3.0889   -1.7337 H   0  0  0  0  0  0  0  0  0  0  0  0
   -0.2245   -1.2406   -1.7300 H   0  0  0  0  0  0  0  0  0  0  0  0
   -0.2245   -3.1185    0.6886 H   0  0  0  0  0  0  0  0  0  0  0  0
   -0.2245    0.1106    0.2497 H   0  0  0  0  0  0  0  0  0  0  0  0
    1.9363   -0.8995    1.2836 H   0  0  0  0  0  0  0  0  0  0  0  0
    1.0793   -1.7792    2.5536 H   0  0  0  0  0  0  0  0  0  0  0  0
    1.0423   -0.0142    2.5288 H   0  0  0  0  0  0  0  0  0  0  0  0
   -1.5284   -1.7792    2.5536 H   0  0  0  0  0  0  0  0  0  0  0  0
   -2.3854   -0.8995    1.2836 H   0  0  0  0  0  0  0  0  0  0  0  0
   -1.4914   -0.0142    2.5288 H   0  0  0  0  0  0  0  0  0  0  0  0
  1  2  3  0
  1  6  1  0
  2  3  1  0
  3  4  1  0
  3  5  1  0
  4  7  1  0
  4  8  1  0
  4  9  1  0
  5 10  1  0
  5 11  1  0
  5 12  1  0
 13 14  2  3
 13 18  1  0
 13 19  1  0
 14 15  1  0
 14 20  1  0
 15 16  1  0
 15 17  1  0
 15 21  1  0
 16 22  1  0
 16 23  1  0
 16 24  1  0
 17 25  1  0
 17 26  1  0
 17 27  1  0
M  RAD  1   3   2
M  END
>  <reaction>  (8) 
rxn_1092

>  <mol_properties>  (8) 
{"1": {"label": "*4", "atom_type": "Ct"}, "2": {"label": "*3", "atom_type": "Cs"}, "13": {"label": "*0", "atom_type": "Cd"}, "14": {"label": "*1", "atom_type": "Cs"}, "20": {"label": "*2", "atom_type": "H0"}}

>  <type>  (8) 
unop_4

>  <geom_source>  (8) 
Heuristics

$$$$

     RDKit          3D

 27 25  0  0  0  0  0  0  0  0999 V2000
    0.0000    3.1609    0.8526 C   0  0  0  0  0  0  0  0  0  0  0  0
    0.0000    2.1850    0.1576 C   0  0  0  0  0  0  0  0  0  0  0  0
    0.0000    1.0065   -0.7110 C   0  0  0  0  0  3  0  0  0  0  0  0
    1.2661    0.9636   -1.5719 C   0  0  0  0  0  0  0  0  0  0  0  0
   -1.2661    0.9636   -1.5719 C   0  0  0  0  0  0  0  0  0  0  0  0
    0.0000    4.0271    1.4693 H   0  0  0  0  0  0  0  0  0  0  0  0
    1.2735    0.0586   -2.1820 H   0  0  0  0  0  0  0  0  0  0  0  0
    2.1632    0.9720   -0.9529 H   0  0  0  0  0  0  0  0  0  0  0  0
    1.3035    1.8275   -2.2378 H   0  0  0  0  0  0  0  0  0  0  0  0
   -1.3035    1.8275   -2.2378 H   0  0  0  0  0  0  0  0  0  0  0  0
   -2.1632    0.9720   -0.9529 H   0  0  0  0  0  0  0  0  0  0  0  0
   -1.2735    0.0586   -2.1820 H   0  0  0  0  0  0  0  0  0  0  0  0
   -0.0000   -2.3279   -1.3455 C   0  0  0  0  0  0  0  0  0  0  0  0
   -0.0000   -2.3279   -0.0220 C   0  0  0  0  0  0  0  0  0  0  0  0
   -0.0000   -1.1065    0.8500 C   0  0  0  0  0  0  0  0  0  0  0  0
    1.2593   -1.0660    1.7177 C   0  0  0  0  0  0  0  0  0  0  0  0
   -1.2593   -1.0660    1.7177 C   0  0  0  0  0  0  0  0  0  0  0  0
   -0.0000   -3.2496   -1.9138 H   0  0  0  0  0  0  0  0  0  0  0  0
   -0.0000   -1.4013   -1.9101 H   0  0  0  0  0  0  0  0  0  0  0  0
   -0.0000   -3.2792    0.5085 H   0  0  0  0  0  0  0  0  0  0  0  0
   -0.0000   -0.0501    0.0696 H   0  0  0  0  0  0  0  0  0  0  0  0
    2.1609   -1.0601    1.1035 H   0  0  0  0  0  0  0  0  0  0  0  0
    1.3039   -1.9399    2.3735 H   0  0  0  0  0  0  0  0  0  0  0  0
    1.2668   -0.1748    2.3487 H   0  0  0  0  0  0  0  0  0  0  0  0
   -1.3039   -1.9399    2.3735 H   0  0  0  0  0  0  0  0  0  0  0  0
   -2.1609   -1.0601    1.1035 H   0  0  0  0  0  0  0  0  0  0  0  0
   -1.2668   -0.1748    2.3487 H   0  0  0  0  0  0  0  0  0  0  0  0
  1  2  3  0
  1  6  1  0
  2  3  1  0
  3  4  1  0
  3  5  1  0
  4  7  1  0
  4  8  1  0
  4  9  1  0
  5 10  1  0
  5 11  1  0
  5 12  1  0
 13 14  2  3
 13 18  1  0
 13 19  1  0
 14 15  1  0
 14 20  1  0
 15 16  1  0
 15 17  1  0
 15 21  1  0
 16 22  1  0
 16 23  1  0
 16 24  1  0
 17 25  1  0
 17 26  1  0
 17 27  1  0
M  RAD  1   3   2
M  END
>  <reaction>  (9) 
rxn_1092

>  <mol_properties>  (9) 
{"1": {"label": "*4", "atom_type": "Ct"}, "2": {"label": "*3", "atom_type": "Cs"}, "13": {"label": "*0", "atom_type": "Cd"}, "14": {"label": "*1", "atom_type": "Cs"}, "20": {"label": "*2", "atom_type": "H0"}}

>  <type>  (9) 
unop_5

>  <geom_source>  (9) 
Heuristics

$$$$

     RDKit          3D

 27 25  0  0  0  0  0  0  0  0999 V2000
    2.3238    1.7473   -1.1086 C   0  0  0  0  0  0  0  0  0  0  0  0
    1.1837    1.4441   -0.8998 C   0  0  0  0  0  0  0  0  0  0  0  0
   -0.2152    1.0968   -0.6433 C   0  0  0  0  0  3  0  0  0  0  0  0
   -1.1230    1.6339   -1.7540 C   0  0  0  0  0  0  0  0  0  0  0  0
   -0.6576    1.5980    0.7349 C   0  0  0  0  0  0  0  0  0  0  0  0
    3.3357    2.0164   -1.2940 H   0  0  0  0  0  0  0  0  0  0  0  0
   -2.1557    1.3308   -1.5727 H   0  0  0  0  0  0  0  0  0  0  0  0
   -0.8166    1.2562   -2.7294 H   0  0  0  0  0  0  0  0  0  0  0  0
   -1.0846    2.7242   -1.7835 H   0  0  0  0  0  0  0  0  0  0  0  0
   -0.6055    2.6873    0.7788 H   0  0  0  0  0  0  0  0  0  0  0  0
   -0.0216    1.1949    1.5228 H   0  0  0  0  0  0  0  0  0  0  0  0
   -1.6876    1.2947    0.9306 H   0  0  0  0  0  0  0  0  0  0  0  0
   -0.2152   -2.2375   -1.2778 C   0  0  0  0  0  0  0  0  0  0  0  0
   -0.2152   -2.2375    0.0457 C   0  0  0  0  0  0  0  0  0  0  0  0
   -0.2152   -1.0161    0.9177 C   0  0  0  0  0  0  0  0  0  0  0  0
    1.0441   -0.9757    1.7854 C   0  0  0  0  0  0  0  0  0  0  0  0
   -1.4745   -0.9757    1.7854 C   0  0  0  0  0  0  0  0  0  0  0  0
   -0.2152   -3.1592   -1.8461 H   0  0  0  0  0  0  0  0  0  0  0  0
   -0.2152   -1.3110   -1.8424 H   0  0  0  0  0  0  0  0  0  0  0  0
   -0.2152   -3.1888    0.5762 H   0  0  0  0  0  0  0  0  0  0  0  0
   -0.2152    0.0403    0.1373 H   0  0  0  0  0  0  0  0  0  0  0  0
    1.9457   -0.9698    1.1712 H   0  0  0  0  0  0  0  0  0  0  0  0
    1.0887   -1.8495    2.4412 H   0  0  0  0  0  0  0  0  0  0  0  0
    1.0516   -0.0845    2.4164 H   0  0  0  0  0  0  0  0  0  0  0  0
   -1.5191   -1.8495    2.4412 H   0  0  0  0  0  0  0  0  0  0  0  0
   -2.3761   -0.9698    1.1712 H   0  0  0  0  0  0  0  0  0  0  0  0
   -1.4820   -0.0845    2.4164 H   0  0  0  0  0  0  0  0  0  0  0  0
  1  2  3  0
  1  6  1  0
  2  3  1  0
  3  4  1  0
  3  5  1  0
  4  7  1  0
  4  8  1  0
  4  9  1  0
  5 10  1  0
  5 11  1  0
  5 12  1  0
 13 14  2  3
 13 18  1  0
 13 19  1  0
 14 15  1  0
 14 20  1  0
 15 16  1  0
 15 17  1  0
 15 21  1  0
 16 22  1  0
 16 23  1  0
 16 24  1  0
 17 25  1  0
 17 26  1  0
 17 27  1  0
M  RAD  1   3   2
M  END
>  <reaction>  (10) 
rxn_1092

>  <mol_properties>  (10) 
{"1": {"label": "*4", "atom_type": "Ct"}, "2": {"label": "*3", "atom_type": "Cs"}, "13": {"label": "*0", "atom_type": "Cd"}, "14": {"label": "*1", "atom_type": "Cs"}, "20": {"label": "*2", "atom_type": "H0"}}

>  <type>  (10) 
unop_6

>  <geom_source>  (10) 
Heuristics

$$$$

     RDKit          3D

 27 25  0  0  0  0  0  0  0  0999 V2000
    2.0546    2.4444   -0.1637 C   0  0  0  0  0  0  0  0  0  0  0  0
    1.0733    1.8035   -0.4119 C   0  0  0  0  0  0  0  0  0  0  0  0
   -0.1382    1.0406   -0.7180 C   0  0  0  0  0  3  0  0  0  0  0  0
   -0.6298    1.3438   -2.1366 C   0  0  0  0  0  0  0  0  0  0  0  0
   -1.2289    1.3084    0.3235 C   0  0  0  0  0  0  0  0  0  0  0  0
    2.9255    3.0133    0.0566 H   0  0  0  0  0  0  0  0  0  0  0  0
   -1.5071    0.7366   -2.3665 H   0  0  0  0  0  0  0  0  0  0  0  0
    0.1431    1.1304   -2.8748 H   0  0  0  0  0  0  0  0  0  0  0  0
   -0.9063    2.3957   -2.2272 H   0  0  0  0  0  0  0  0  0  0  0  0
   -1.5231    2.3593    0.3055 H   0  0  0  0  0  0  0  0  0  0  0  0
   -0.8805    1.0698    1.3283 H   0  0  0  0  0  0  0  0  0  0  0  0
   -2.1097    0.7009    0.1078 H   0  0  0  0  0  0  0  0  0  0  0  0
   -0.1382   -2.2938   -1.3525 C   0  0  0  0  0  0  0  0  0  0  0  0
   -0.1382   -2.2938   -0.0290 C   0  0  0  0  0  0  0  0  0  0  0  0
   -0.1382   -1.0724    0.8430 C   0  0  0  0  0  0  0  0  0  0  0  0
    1.1211   -1.0319    1.7107 C   0  0  0  0  0  0  0  0  0  0  0  0
   -1.3975   -1.0319    1.7107 C   0  0  0  0  0  0  0  0  0  0  0  0
   -0.1382   -3.2155   -1.9208 H   0  0  0  0  0  0  0  0  0  0  0  0
   -0.1382   -1.3672   -1.9171 H   0  0  0  0  0  0  0  0  0  0  0  0
   -0.1382   -3.2451    0.5015 H   0  0  0  0  0  0  0  0  0  0  0  0
   -0.1382   -0.0160    0.0626 H   0  0  0  0  0  0  0  0  0  0  0  0
    2.0227   -1.0260    1.0965 H   0  0  0  0  0  0  0  0  0  0  0  0
    1.1657   -1.9058    2.3665 H   0  0  0  0  0  0  0  0  0  0  0  0
    1.1287   -0.1407    2.3417 H   0  0  0  0  0  0  0  0  0  0  0  0
   -1.4421   -1.9058    2.3665 H   0  0  0  0  0  0  0  0  0  0  0  0
   -2.2990   -1.0260    1.0965 H   0  0  0  0  0  0  0  0  0  0  0  0
   -1.4050   -0.1407    2.3417 H   0  0  0  0  0  0  0  0  0  0  0  0
  1  2  3  0
  1  6  1  0
  2  3  1  0
  3  4  1  0
  3  5  1  0
  4  7  1  0
  4  8  1  0
  4  9  1  0
  5 10  1  0
  5 11  1  0
  5 12  1  0
 13 14  2  3
 13 18  1  0
 13 19  1  0
 14 15  1  0
 14 20  1  0
 15 16  1  0
 15 17  1  0
 15 21  1  0
 16 22  1  0
 16 23  1  0
 16 24  1  0
 17 25  1  0
 17 26  1  0
 17 27  1  0
M  RAD  1   3   2
M  END
>  <reaction>  (11) 
rxn_1092

>  <mol_properties>  (11) 
{"1": {"label": "*4", "atom_type": "Ct"}, "2": {"label": "*3", "atom_type": "Cs"}, "13": {"label": "*0", "atom_type": "Cd"}, "14": {"label": "*1", "atom_type": "Cs"}, "20": {"label": "*2", "atom_type": "H0"}}

>  <type>  (11) 
unop_7

>  <geom_source>  (11) 
Heuristics

$$$$

     RDKit          3D

 27 25  0  0  0  0  0  0  0  0999 V2000
   -2.3238    1.7473   -1.1086 C   0  0  0  0  0  0  0  0  0  0  0  0
   -1.1837    1.4441   -0.8998 C   0  0  0  0  0  0  0  0  0  0  0  0
    0.2152    1.0968   -0.6433 C   0  0  0  0  0  3  0  0  0  0  0  0
    0.6576    1.5980    0.7349 C   0  0  0  0  0  0  0  0  0  0  0  0
    1.1230    1.6339   -1.7540 C   0  0  0  0  0  0  0  0  0  0  0  0
   -3.3357    2.0164   -1.2940 H   0  0  0  0  0  0  0  0  0  0  0  0
    1.6876    1.2947    0.9306 H   0  0  0  0  0  0  0  0  0  0  0  0
    0.0216    1.1949    1.5228 H   0  0  0  0  0  0  0  0  0  0  0  0
    0.6056    2.6873    0.7788 H   0  0  0  0  0  0  0  0  0  0  0  0
    1.0846    2.7242   -1.7834 H   0  0  0  0  0  0  0  0  0  0  0  0
    0.8166    1.2562   -2.7294 H   0  0  0  0  0  0  0  0  0  0  0  0
    2.1557    1.3308   -1.5727 H   0  0  0  0  0  0  0  0  0  0  0  0
    0.2152   -2.2375   -1.2778 C   0  0  0  0  0  0  0  0  0  0  0  0
    0.2152   -2.2375    0.0457 C   0  0  0  0  0  0  0  0  0  0  0  0
    0.2152   -1.0161    0.9177 C   0  0  0  0  0  0  0  0  0  0  0  0
    1.4745   -0.9757    1.7854 C   0  0  0  0  0  0  0  0  0  0  0  0
   -1.0441   -0.9757    1.7854 C   0  0  0  0  0  0  0  0  0  0  0  0
    0.2152   -3.1592   -1.8461 H   0  0  0  0  0  0  0  0  0  0  0  0
    0.2152   -1.3110   -1.8424 H   0  0  0  0  0  0  0  0  0  0  0  0
    0.2152   -3.1888    0.5762 H   0  0  0  0  0  0  0  0  0  0  0  0
    0.2152    0.0403    0.1373 H   0  0  0  0  0  0  0  0  0  0  0  0
    2.3761   -0.9698    1.1712 H   0  0  0  0  0  0  0  0  0  0  0  0
    1.5191   -1.8495    2.4412 H   0  0  0  0  0  0  0  0  0  0  0  0
    1.4820   -0.0845    2.4164 H   0  0  0  0  0  0  0  0  0  0  0  0
   -1.0887   -1.8495    2.4412 H   0  0  0  0  0  0  0  0  0  0  0  0
   -1.9457   -0.9698    1.1712 H   0  0  0  0  0  0  0  0  0  0  0  0
   -1.0516   -0.0845    2.4164 H   0  0  0  0  0  0  0  0  0  0  0  0
  1  2  3  0
  1  6  1  0
  2  3  1  0
  3  4  1  0
  3  5  1  0
  4  7  1  0
  4  8  1  0
  4  9  1  0
  5 10  1  0
  5 11  1  0
  5 12  1  0
 13 14  2  3
 13 18  1  0
 13 19  1  0
 14 15  1  0
 14 20  1  0
 15 16  1  0
 15 17  1  0
 15 21  1  0
 16 22  1  0
 16 23  1  0
 16 24  1  0
 17 25  1  0
 17 26  1  0
 17 27  1  0
M  RAD  1   3   2
M  END
>  <reaction>  (12) 
rxn_1092

>  <mol_properties>  (12) 
{"1": {"label": "*4", "atom_type": "Ct"}, "2": {"label": "*3", "atom_type": "Cs"}, "13": {"label": "*0", "atom_type": "Cd"}, "14": {"label": "*1", "atom_type": "Cs"}, "20": {"label": "*2", "atom_type": "H0"}}

>  <type>  (12) 
unop_8

>  <geom_source>  (12) 
Heuristics

$$$$

     RDKit          3D

 27 25  0  0  0  0  0  0  0  0999 V2000
    1.1282    0.5682   -2.6680 C   0  0  0  0  0  0  0  0  0  0  0  0
    0.5533    0.8541   -1.6565 C   0  0  0  0  0  0  0  0  0  0  0  0
   -0.1461    1.2267   -0.4255 C   0  0  0  0  0  3  0  0  0  0  0  0
   -1.4181    2.0201   -0.7398 C   0  0  0  0  0  0  0  0  0  0  0  0
    0.7812    2.0021    0.5153 C   0  0  0  0  0  0  0  0  0  0  0  0
    1.6384    0.3145   -3.5657 H   0  0  0  0  0  0  0  0  0  0  0  0
   -1.9515    2.2534    0.1834 H   0  0  0  0  0  0  0  0  0  0  0  0
   -2.0836    1.4543   -1.3916 H   0  0  0  0  0  0  0  0  0  0  0  0
   -1.1684    2.9580   -1.2391 H   0  0  0  0  0  0  0  0  0  0  0  0
    1.0957    2.9394    0.0530 H   0  0  0  0  0  0  0  0  0  0  0  0
    1.6738    1.4235    0.7527 H   0  0  0  0  0  0  0  0  0  0  0  0
    0.2605    2.2352    1.4457 H   0  0  0  0  0  0  0  0  0  0  0  0
   -0.1461   -2.1076   -1.0601 C   0  0  0  0  0  0  0  0  0  0  0  0
   -0.1461   -2.1076    0.2634 C   0  0  0  0  0  0  0  0  0  0  0  0
   -0.1461   -0.8862    1.1354 C   0  0  0  0  0  0  0  0  0  0  0  0
    1.1132   -0.8458    2.0031 C   0  0  0  0  0  0  0  0  0  0  0  0
   -1.4055   -0.8458    2.0031 C   0  0  0  0  0  0  0  0  0  0  0  0
   -0.1461   -3.0293   -1.6284 H   0  0  0  0  0  0  0  0  0  0  0  0
   -0.1461   -1.1811   -1.6247 H   0  0  0  0  0  0  0  0  0  0  0  0
   -0.1461   -3.0589    0.7939 H   0  0  0  0  0  0  0  0  0  0  0  0
   -0.1461    0.1702    0.3550 H   0  0  0  0  0  0  0  0  0  0  0  0
    2.0147   -0.8399    1.3889 H   0  0  0  0  0  0  0  0  0  0  0  0
    1.1577   -1.7196    2.6589 H   0  0  0  0  0  0  0  0  0  0  0  0
    1.1207    0.0454    2.6341 H   0  0  0  0  0  0  0  0  0  0  0  0
   -1.4500   -1.7196    2.6589 H   0  0  0  0  0  0  0  0  0  0  0  0
   -2.3070   -0.8399    1.3889 H   0  0  0  0  0  0  0  0  0  0  0  0
   -1.4130    0.0454    2.6341 H   0  0  0  0  0  0  0  0  0  0  0  0
  1  2  3  0
  1  6  1  0
  2  3  1  0
  3  4  1  0
  3  5  1  0
  4  7  1  0
  4  8  1  0
  4  9  1  0
  5 10  1  0
  5 11  1  0
  5 12  1  0
 13 14  2  3
 13 18  1  0
 13 19  1  0
 14 15  1  0
 14 20  1  0
 15 16  1  0
 15 17  1  0
 15 21  1  0
 16 22  1  0
 16 23  1  0
 16 24  1  0
 17 25  1  0
 17 26  1  0
 17 27  1  0
M  RAD  1   3   2
M  END
>  <reaction>  (13) 
rxn_1092

>  <mol_properties>  (13) 
{"1": {"label": "*4", "atom_type": "Ct"}, "2": {"label": "*3", "atom_type": "Cs"}, "13": {"label": "*0", "atom_type": "Cd"}, "14": {"label": "*1", "atom_type": "Cs"}, "20": {"label": "*2", "atom_type": "H0"}}

>  <type>  (13) 
unop_9

>  <geom_source>  (13) 
Heuristics

$$$$

     RDKit          3D

 27 25  0  0  0  0  0  0  0  0999 V2000
   -1.9791    1.0625   -2.0205 C   0  0  0  0  0  0  0  0  0  0  0  0
   -0.9869    1.0988   -1.3500 C   0  0  0  0  0  0  0  0  0  0  0  0
    0.2245    1.1671   -0.5308 C   0  0  0  0  0  3  0  0  0  0  0  0
   -0.0630    1.8443    0.8126 C   0  0  0  0  0  0  0  0  0  0  0  0
    1.3541    1.8745   -1.2857 C   0  0  0  0  0  0  0  0  0  0  0  0
   -2.8597    1.0302   -2.6157 H   0  0  0  0  0  0  0  0  0  0  0  0
    0.8373    1.8493    1.4296 H   0  0  0  0  0  0  0  0  0  0  0  0
   -0.8522    1.3235    1.3547 H   0  0  0  0  0  0  0  0  0  0  0  0
   -0.3801    2.8772    0.6585 H   0  0  0  0  0  0  0  0  0  0  0  0
    1.0788    2.9083   -1.5018 H   0  0  0  0  0  0  0  0  0  0  0  0
    1.5689    1.3751   -2.2304 H   0  0  0  0  0  0  0  0  0  0  0  0
    2.2626    1.8797   -0.6809 H   0  0  0  0  0  0  0  0  0  0  0  0
    0.2245   -2.1672   -1.1654 C   0  0  0  0  0  0  0  0  0  0  0  0
    0.2245   -2.1672    0.1581 C   0  0  0  0  0  0  0  0  0  0  0  0
    0.2245   -0.9458    1.0301 C   0  0  0  0  0  0  0  0  0  0  0  0
    1.4839   -0.9054    1.8978 C   0  0  0  0  0  0  0  0  0  0  0  0
   -1.0348   -0.9054    1.8978 C   0  0  0  0  0  0  0  0  0  0  0  0
    0.2245   -3.0889   -1.7337 H   0  0  0  0  0  0  0  0  0  0  0  0
    0.2245   -1.2406   -1.7300 H   0  0  0  0  0  0  0  0  0  0  0  0
    0.2245   -3.1185    0.6886 H   0  0  0  0  0  0  0  0  0  0  0  0
    0.2245    0.1106    0.2497 H   0  0  0  0  0  0  0  0  0  0  0  0
    2.3854   -0.8995    1.2836 H   0  0  0  0  0  0  0  0  0  0  0  0
    1.5284   -1.7792    2.5536 H   0  0  0  0  0  0  0  0  0  0  0  0
    1.4914   -0.0142    2.5288 H   0  0  0  0  0  0  0  0  0  0  0  0
   -1.0793   -1.7792    2.5536 H   0  0  0  0  0  0  0  0  0  0  0  0
   -1.9363   -0.8995    1.2836 H   0  0  0  0  0  0  0  0  0  0  0  0
   -1.0423   -0.0142    2.5288 H   0  0  0  0  0  0  0  0  0  0  0  0
  1  2  3  0
  1  6  1  0
  2  3  1  0
  3  4  1  0
  3  5  1  0
  4  7  1  0
  4  8  1  0
  4  9  1  0
  5 10  1  0
  5 11  1  0
  5 12  1  0
 13 14  2  3
 13 18  1  0
 13 19  1  0
 14 15  1  0
 14 20  1  0
 15 16  1  0
 15 17  1  0
 15 21  1  0
 16 22  1  0
 16 23  1  0
 16 24  1  0
 17 25  1  0
 17 26  1  0
 17 27  1  0
M  RAD  1   3   2
M  END
>  <reaction>  (14) 
rxn_1092

>  <mol_properties>  (14) 
{"1": {"label": "*4", "atom_type": "Ct"}, "2": {"label": "*3", "atom_type": "Cs"}, "13": {"label": "*0", "atom_type": "Cd"}, "14": {"label": "*1", "atom_type": "Cs"}, "20": {"label": "*2", "atom_type": "H0"}}

>  <type>  (14) 
unop_10

>  <geom_source>  (14) 
Heuristics

$$$$

     RDKit          3D

 27 25  0  0  0  0  0  0  0  0999 V2000
    1.2169    2.9660    0.5656 C   0  0  0  0  0  0  0  0  0  0  0  0
    0.6548    2.0794   -0.0118 C   0  0  0  0  0  0  0  0  0  0  0  0
   -0.0447    1.0122   -0.7296 C   0  0  0  0  0  3  0  0  0  0  0  0
    0.2453    1.0846   -2.2319 C   0  0  0  0  0  0  0  0  0  0  0  0
   -1.5491    1.0589   -0.4453 C   0  0  0  0  0  0  0  0  0  0  0  0
    1.7158    3.7529    1.0780 H   0  0  0  0  0  0  0  0  0  0  0  0
   -0.2467    0.2584   -2.7483 H   0  0  0  0  0  0  0  0  0  0  0  0
    1.3158    1.0287   -2.4290 H   0  0  0  0  0  0  0  0  0  0  0  0
   -0.1292    2.0217   -2.6474 H   0  0  0  0  0  0  0  0  0  0  0  0
   -1.9765    1.9952   -0.8081 H   0  0  0  0  0  0  0  0  0  0  0  0
   -1.7499    0.9848    0.6234 H   0  0  0  0  0  0  0  0  0  0  0  0
   -2.0514    0.2326   -0.9513 H   0  0  0  0  0  0  0  0  0  0  0  0
   -0.0447   -2.3221   -1.3641 C   0  0  0  0  0  0  0  0  0  0  0  0
   -0.0447   -2.3221   -0.0406 C   0  0  0  0  0  0  0  0  0  0  0  0
   -0.0447   -1.1007    0.8314 C   0  0  0  0  0  0  0  0  0  0  0  0
    1.2146   -1.0603    1.6990 C   0  0  0  0  0  0  0  0  0  0  0  0
   -1.3040   -1.0603    1.6990 C   0  0  0  0  0  0  0  0  0  0  0  0
   -0.0447   -3.2438   -1.9324 H   0  0  0  0  0  0  0  0  0  0  0  0
   -0.0447   -1.3955   -1.9287 H   0  0  0  0  0  0  0  0  0  0  0  0
   -0.0447   -3.2734    0.4899 H   0  0  0  0  0  0  0  0  0  0  0  0
   -0.0447   -0.0443    0.0509 H   0  0  0  0  0  0  0  0  0  0  0  0
    2.1162   -1.0544    1.0849 H   0  0  0  0  0  0  0  0  0  0  0  0
    1.2592   -1.9341    2.3548 H   0  0  0  0  0  0  0  0  0  0  0  0
    1.2222   -0.1691    2.3300 H   0  0  0  0  0  0  0  0  0  0  0  0
   -1.3486   -1.9341    2.3548 H   0  0  0  0  0  0  0  0  0  0  0  0
   -2.2055   -1.0544    1.0849 H   0  0  0  0  0  0  0  0  0  0  0  0
   -1.3115   -0.1691    2.3300 H   0  0  0  0  0  0  0  0  0  0  0  0
  1  2  3  0
  1  6  1  0
  2  3  1  0
  3  4  1  0
  3  5  1  0
  4  7  1  0
  4  8  1  0
  4  9  1  0
  5 10  1  0
  5 11  1  0
  5 12  1  0
 13 14  2  3
 13 18  1  0
 13 19  1  0
 14 15  1  0
 14 20  1  0
 15 16  1  0
 15 17  1  0
 15 21  1  0
 16 22  1  0
 16 23  1  0
 16 24  1  0
 17 25  1  0
 17 26  1  0
 17 27  1  0
M  RAD  1   3   2
M  END
>  <reaction>  (15) 
rxn_1092

>  <mol_properties>  (15) 
{"1": {"label": "*4", "atom_type": "Ct"}, "2": {"label": "*3", "atom_type": "Cs"}, "13": {"label": "*0", "atom_type": "Cd"}, "14": {"label": "*1", "atom_type": "Cs"}, "20": {"label": "*2", "atom_type": "H0"}}

>  <type>  (15) 
unop_11

>  <geom_source>  (15) 
Heuristics

$$$$

     RDKit          3D

 27 25  0  0  0  0  0  0  0  0999 V2000
    0.0000    0.3889   -2.8997 C   0  0  0  0  0  0  0  0  0  0  0  0
    0.0000    0.7664   -1.7626 C   0  0  0  0  0  0  0  0  0  0  0  0
    0.0000    1.2503   -0.3809 C   0  0  0  0  0  3  0  0  0  0  0  0
   -1.2661    2.0607   -0.0869 C   0  0  0  0  0  0  0  0  0  0  0  0
    1.2661    2.0607   -0.0869 C   0  0  0  0  0  0  0  0  0  0  0  0
    0.0000    0.0539   -3.9088 H   0  0  0  0  0  0  0  0  0  0  0  0
   -1.2735    2.3779    0.9574 H   0  0  0  0  0  0  0  0  0  0  0  0
   -2.1632    1.4715   -0.2769 H   0  0  0  0  0  0  0  0  0  0  0  0
   -1.3035    2.9510   -0.7170 H   0  0  0  0  0  0  0  0  0  0  0  0
    1.3035    2.9510   -0.7170 H   0  0  0  0  0  0  0  0  0  0  0  0
    2.1632    1.4715   -0.2769 H   0  0  0  0  0  0  0  0  0  0  0  0
    1.2735    2.3779    0.9574 H   0  0  0  0  0  0  0  0  0  0  0  0
   -0.0000   -2.0840   -1.0154 C   0  0  0  0  0  0  0  0  0  0  0  0
   -0.0000   -2.0840    0.3081 C   0  0  0  0  0  0  0  0  0  0  0  0
   -0.0000   -0.8626    1.1801 C   0  0  0  0  0  0  0  0  0  0  0  0
    1.2593   -0.8222    2.0477 C   0  0  0  0  0  0  0  0  0  0  0  0
   -1.2593   -0.8222    2.0477 C   0  0  0  0  0  0  0  0  0  0  0  0
   -0.0000   -3.0057   -1.5837 H   0  0  0  0  0  0  0  0  0  0  0  0
   -0.0000   -1.1575   -1.5800 H   0  0  0  0  0  0  0  0  0  0  0  0
   -0.0000   -3.0353    0.8386 H   0  0  0  0  0  0  0  0  0  0  0  0
   -0.0000    0.1938    0.3996 H   0  0  0  0  0  0  0  0  0  0  0  0
    2.1609   -0.8163    1.4336 H   0  0  0  0  0  0  0  0  0  0  0  0
    1.3039   -1.6960    2.7035 H   0  0  0  0  0  0  0  0  0  0  0  0
    1.2668    0.0690    2.6787 H   0  0  0  0  0  0  0  0  0  0  0  0
   -1.3039   -1.6960    2.7035 H   0  0  0  0  0  0  0  0  0  0  0  0
   -2.1609   -0.8163    1.4336 H   0  0  0  0  0  0  0  0  0  0  0  0
   -1.2668    0.0690    2.6787 H   0  0  0  0  0  0  0  0  0  0  0  0
  1  2  3  0
  1  6  1  0
  2  3  1  0
  3  4  1  0
  3  5  1  0
  4  7  1  0
  4  8  1  0
  4  9  1  0
  5 10  1  0
  5 11  1  0
  5 12  1  0
 13 14  2  3
 13 18  1  0
 13 19  1  0
 14 15  1  0
 14 20  1  0
 15 16  1  0
 15 17  1  0
 15 21  1  0
 16 22  1  0
 16 23  1  0
 16 24  1  0
 17 25  1  0
 17 26  1  0
 17 27  1  0
M  RAD  1   3   2
M  END
>  <reaction>  (16) 
rxn_1092

>  <mol_properties>  (16) 
{"1": {"label": "*4", "atom_type": "Ct"}, "2": {"label": "*3", "atom_type": "Cs"}, "13": {"label": "*0", "atom_type": "Cd"}, "14": {"label": "*1", "atom_type": "Cs"}, "20": {"label": "*2", "atom_type": "H0"}}

>  <type>  (16) 
unop_12

>  <geom_source>  (16) 
Heuristics

$$$$

     RDKit          3D

 27 25  0  0  0  0  0  0  0  0999 V2000
    1.3243   -0.1777    0.0742 C   0  0  0  0  0  0  0  0  0  0  0  0
    1.7976   -0.4507   -1.3540 C   0  0  0  0  0  0  0  0  0  0  0  0
    1.3882   -1.4465    0.9254 C   0  0  0  0  0  0  0  0  0  0  0  0
   -1.4544    1.2852   -1.1828 C   0  0  0  0  0  0  0  0  0  0  0  0
   -1.6259   -1.2303   -1.0353 C   0  0  0  0  0  0  0  0  0  0  0  0
   -1.2291    0.0529   -0.3041 C   0  0  0  0  0  3  0  0  0  0  0  0
   -1.9570    0.1810    1.0080 C   0  0  0  0  0  0  0  0  0  0  0  0
   -1.4811    0.9595    1.9822 C   0  0  0  0  0  0  0  0  0  0  0  0
    2.1436    0.8809    0.6839 C   0  0  0  0  0  0  0  0  0  0  0  0
    2.8143    1.7493    1.1837 C   0  0  0  0  0  0  0  0  0  0  0  0
    0.0635    0.2405    0.0304 H   0  0  0  0  0  0  0  0  0  0  0  0
    2.8527   -0.8012   -1.3607 H   0  0  0  0  0  0  0  0  0  0  0  0
    1.1574   -1.2274   -1.8236 H   0  0  0  0  0  0  0  0  0  0  0  0
    1.7207    0.4747   -1.9640 H   0  0  0  0  0  0  0  0  0  0  0  0
    0.7435   -2.2341    0.4808 H   0  0  0  0  0  0  0  0  0  0  0  0
    2.4306   -1.8278    0.9892 H   0  0  0  0  0  0  0  0  0  0  0  0
    1.0174   -1.2357    1.9514 H   0  0  0  0  0  0  0  0  0  0  0  0
   -1.0989    2.1977   -0.6593 H   0  0  0  0  0  0  0  0  0  0  0  0
   -0.8804    1.1863   -2.1282 H   0  0  0  0  0  0  0  0  0  0  0  0
   -2.5331    1.4021   -1.4233 H   0  0  0  0  0  0  0  0  0  0  0  0
   -1.4204   -2.1108   -0.3903 H   0  0  0  0  0  0  0  0  0  0  0  0
   -2.7058   -1.2157   -1.2977 H   0  0  0  0  0  0  0  0  0  0  0  0
   -1.0281   -1.3360   -1.9651 H   0  0  0  0  0  0  0  0  0  0  0  0
   -2.8682   -0.3851    1.1830 H   0  0  0  0  0  0  0  0  0  0  0  0
   -0.5642    1.5253    1.8469 H   0  0  0  0  0  0  0  0  0  0  0  0
   -2.0100    1.0321    2.9269 H   0  0  0  0  0  0  0  0  0  0  0  0
    3.4030    2.5114    1.6224 H   0  0  0  0  0  0  0  0  0  0  0  0
  1  2  1  0
  1  3  1  0
  1  9  1  0
  1 11  1  0
  2 12  1  0
  2 13  1  0
  2 14  1  0
  3 15  1  0
  3 16  1  0
  3 17  1  0
  4  6  1  0
  4 18  1  0
  4 19  1  0
  4 20  1  0
  5  6  1  0
  5 21  1  0
  5 22  1  0
  5 23  1  0
  6  7  1  0
  7  8  2  3
  7 24  1  0
  8 25  1  0
  8 26  1  0
  9 10  3  0
 10 27  1  0
M  RAD  1   6   2
M  END
>  <reaction>  (17) 
rxn_1092

>  <mol_properties>  (17) 
{"1": {"label": "*4", "atom_type": "Ct"}, "2": {"label": "*3", "atom_type": "Cs"}, "13": {"label": "*0", "atom_type": "Cd"}, "14": {"label": "*1", "atom_type": "Cs"}, "20": {"label": "*2", "atom_type": "H0"}}

>  <type>  (17) 
unop_13

>  <geom_source>  (17) 
AutoTST

$$$$
