
     RDKit          3D

 12 11  0  0  0  0  0  0  0  0999 V2000
    1.9877    0.1011    0.4814 C   0  0  0  0  0  0  0  0  0  0  0  0
    0.8179    0.5502    0.0525 C   0  0  0  0  0  0  0  0  0  0  0  0
   -0.2939   -0.2692   -0.5320 C   0  0  0  0  0  0  0  0  0  0  0  0
   -0.0292   -1.7631   -0.6328 C   0  0  0  0  0  0  0  0  0  0  0  0
    2.2522   -0.9490    0.4436 H   0  0  0  0  0  0  0  0  0  0  0  0
    2.7295    0.7757    0.8896 H   0  0  0  0  0  0  0  0  0  0  0  0
    0.6162    1.6164    0.1190 H   0  0  0  0  0  0  0  0  0  0  0  0
   -0.5268    0.1319   -1.5245 H   0  0  0  0  0  0  0  0  0  0  0  0
   -1.1959   -0.0938    0.0644 H   0  0  0  0  0  0  0  0  0  0  0  0
    0.1590   -2.1992    0.3502 H   0  0  0  0  0  0  0  0  0  0  0  0
    0.8382   -1.9701   -1.2626 H   0  0  0  0  0  0  0  0  0  0  0  0
   -0.8879   -2.2759   -1.0672 H   0  0  0  0  0  0  0  0  0  0  0  0
  1  2  2  3
  1  5  1  0
  1  6  1  0
  2  3  1  0
  2  7  1  0
  3  4  1  0
  3  8  1  0
  3  9  1  0
  4 10  1  0
  4 11  1  0
  4 12  1  0
M  END
>  <reaction>  (1) 
rxn_1044

>  <mol_properties>  (1) 
{"2": {"label": "donator", "atom_type": "Cs"}, "7": {"label": "d_hydrogen", "atom_type": "H0"}}

>  <type>  (1) 
r1h

$$$$

     RDKit          3D

 12 11  0  0  0  0  0  0  0  0999 V2000
   -2.3791    0.4612   -0.5870 C   0  0  0  0  0  0  0  0  0  0  0  0
   -1.3422   -0.3138   -0.1893 C   0  0  0  0  0  0  0  0  0  0  0  0
   -1.4723   -1.6058    0.3589 C   0  0  0  0  0  3  0  0  0  0  0  0
   -0.3798   -2.3973    0.7671 C   0  0  0  0  0  0  0  0  0  0  0  0
   -0.4849   -3.6397    1.2956 C   0  0  0  0  0  0  0  0  0  0  0  0
   -2.2205    1.4472   -1.0017 H   0  0  0  0  0  0  0  0  0  0  0  0
   -3.4026    0.1153   -0.5011 H   0  0  0  0  0  0  0  0  0  0  0  0
   -0.3330    0.0765   -0.2952 H   0  0  0  0  0  0  0  0  0  0  0  0
   -2.4723   -2.0151    0.4735 H   0  0  0  0  0  0  0  0  0  0  0  0
    0.6117   -1.9687    0.6436 H   0  0  0  0  0  0  0  0  0  0  0  0
    0.3893   -4.2030    1.5920 H   0  0  0  0  0  0  0  0  0  0  0  0
   -1.4516   -4.1084    1.4378 H   0  0  0  0  0  0  0  0  0  0  0  0
  1  2  2  3
  1  6  1  0
  1  7  1  0
  2  3  1  0
  2  8  1  0
  3  4  1  0
  3  9  1  0
  4  5  2  3
  4 10  1  0
  5 11  1  0
  5 12  1  0
M  RAD  1   3   2
M  END
>  <reaction>  (2) 
rxn_1044

>  <mol_properties>  (2) 
{"2": {"label": "acceptor", "atom_type": "Cs"}}

>  <type>  (2) 
r2

$$$$

     RDKit          3D

 13 12  0  0  0  0  0  0  0  0999 V2000
    3.0977   -0.3549   -0.5105 C   0  0  0  0  0  0  0  0  0  0  0  0
    2.0556    0.4221   -0.2627 C   0  0  0  0  0  0  0  0  0  0  0  0
    0.6313   -0.0354   -0.2366 C   0  0  0  0  0  0  0  0  0  0  0  0
   -0.2567    0.6038   -1.2694 C   0  0  0  0  0  0  0  0  0  0  0  0
    0.1459    1.3456   -2.2891 C   0  0  0  0  0  0  0  0  0  0  0  0
    4.1081    0.0344   -0.5074 H   0  0  0  0  0  0  0  0  0  0  0  0
    2.9777   -1.4116   -0.7243 H   0  0  0  0  0  0  0  0  0  0  0  0
    2.2171    1.4781   -0.0618 H   0  0  0  0  0  0  0  0  0  0  0  0
    0.5865   -1.1233   -0.3540 H   0  0  0  0  0  0  0  0  0  0  0  0
    0.2065    0.1743    0.7521 H   0  0  0  0  0  0  0  0  0  0  0  0
   -1.3190    0.4126   -1.1445 H   0  0  0  0  0  0  0  0  0  0  0  0
    1.1948    1.5564   -2.4628 H   0  0  0  0  0  0  0  0  0  0  0  0
   -0.5644    1.7621   -2.9918 H   0  0  0  0  0  0  0  0  0  0  0  0
  1  2  2  3
  1  6  1  0
  1  7  1  0
  2  3  1  0
  2  8  1  0
  3  4  1  0
  3  9  1  0
  3 10  1  0
  4  5  2  3
  4 11  1  0
  5 12  1  0
  5 13  1  0
M  END
>  <reaction>  (3) 
rxn_1044

>  <mol_properties>  (3) 
{"2": {"label": "acceptor", "atom_type": "Cs"}, "12": {"label": "a_hydrogen", "atom_type": "H0"}}

>  <type>  (3) 
r2h

$$$$

     RDKit          3D

 24 22  0  0  0  0  0  0  0  0999 V2000
    0.0996    1.7766    2.7435 C   0  0  0  0  0  0  0  0  0  0  0  0
    0.6293    1.2002    1.6666 C   0  0  0  0  0  0  0  0  0  0  0  0
    0.3349   -0.1647    1.2265 C   0  0  0  0  0  0  0  0  0  0  0  0
    1.3189   -0.9364    0.4615 C   0  0  0  0  0  0  0  0  0  0  0  0
    2.4665   -0.4955   -0.0560 C   0  0  0  0  0  0  0  0  0  0  0  0
    0.3215    2.8040    3.0011 H   0  0  0  0  0  0  0  0  0  0  0  0
   -0.5667    1.2344    3.4057 H   0  0  0  0  0  0  0  0  0  0  0  0
    1.2868    1.7889    1.0340 H   0  0  0  0  0  0  0  0  0  0  0  0
   -0.1938   -0.7583    1.9726 H   0  0  0  0  0  0  0  0  0  0  0  0
    1.0367   -1.9675    0.2710 H   0  0  0  0  0  0  0  0  0  0  0  0
    3.0965   -1.1523   -0.6412 H   0  0  0  0  0  0  0  0  0  0  0  0
    2.8252    0.5151    0.0956 H   0  0  0  0  0  0  0  0  0  0  0  0
   -1.1787   -1.6677   -2.2681 C   0  0  0  0  0  0  0  0  0  0  0  0
   -1.8032   -1.1302   -1.2123 C   0  0  0  0  0  0  0  0  0  0  0  0
   -1.5647    0.1902   -0.6660 C   0  0  0  0  0  3  0  0  0  0  0  0
   -0.8178    1.2158   -1.4731 C   0  0  0  0  0  0  0  0  0  0  0  0
   -0.4494   -1.1140   -2.8465 H   0  0  0  0  0  0  0  0  0  0  0  0
   -1.3919   -2.6795   -2.5871 H   0  0  0  0  0  0  0  0  0  0  0  0
   -2.5226   -1.7425   -0.6755 H   0  0  0  0  0  0  0  0  0  0  0  0
   -0.6541   -0.0362    0.3540 H   0  0  0  0  0  0  0  0  0  0  0  0
   -2.3850    0.5865   -0.0706 H   0  0  0  0  0  0  0  0  0  0  0  0
   -1.3522    1.4610   -2.3956 H   0  0  0  0  0  0  0  0  0  0  0  0
    0.1746    0.8523   -1.7507 H   0  0  0  0  0  0  0  0  0  0  0  0
   -0.6886    2.1346   -0.9007 H   0  0  0  0  0  0  0  0  0  0  0  0
  1  2  2  3
  1  6  1  0
  1  7  1  0
  2  3  1  0
  2  8  1  0
  3  4  1  0
  3  9  1  0
  3 20  1  0
  4  5  2  3
  4 10  1  0
  5 11  1  0
  5 12  1  0
 13 14  2  3
 13 17  1  0
 13 18  1  0
 14 15  1  0
 14 19  1  0
 15 16  1  0
 15 21  1  0
 16 22  1  0
 16 23  1  0
 16 24  1  0
M  RAD  1  15   2
M  END
>  <reaction>  (4) 
rxn_1044

>  <mol_properties>  (4) 
{"1": {"label": "*0", "atom_type": "Cd"}, "2": {"label": "*1", "atom_type": "Cs"}, "13": {"label": "*4", "atom_type": "Cd"}, "14": {"label": "*3", "atom_type": "Cs"}, "19": {"label": "*2", "atom_type": "H0"}}

>  <type>  (4) 
ts

$$$$

     RDKit          3D

 24 22  0  0  0  0  0  0  0  0999 V2000
    1.1832    2.2660    1.2517 C   0  0  0  0  0  0  0  0  0  0  0  0
    1.3673    1.0749    0.7055 C   0  0  0  0  0  0  0  0  0  0  0  0
    0.4893   -0.1161    0.9282 C   0  0  0  0  0  3  0  0  0  0  0  0
    1.1693   -1.2890    1.5805 C   0  0  0  0  0  0  0  0  0  0  0  0
    2.3689   -1.2798    2.1402 C   0  0  0  0  0  0  0  0  0  0  0  0
    1.8505    3.0934    1.0449 H   0  0  0  0  0  0  0  0  0  0  0  0
    0.3551    2.4577    1.9258 H   0  0  0  0  0  0  0  0  0  0  0  0
    2.2144    0.9207    0.0420 H   0  0  0  0  0  0  0  0  0  0  0  0
   -0.3809    0.1689    1.5287 H   0  0  0  0  0  0  0  0  0  0  0  0
    0.5936   -2.2106    1.5847 H   0  0  0  0  0  0  0  0  0  0  0  0
    2.7800   -2.1718    2.5953 H   0  0  0  0  0  0  0  0  0  0  0  0
    2.9776   -0.3835    2.1710 H   0  0  0  0  0  0  0  0  0  0  0  0
   -1.5979   -1.1574   -2.8816 C   0  0  0  0  0  0  0  0  0  0  0  0
   -1.5979   -1.1574   -1.5573 C   0  0  0  0  0  0  0  0  0  0  0  0
   -1.5979    0.0471   -0.6638 C   0  0  0  0  0  0  0  0  0  0  0  0
   -1.5979    1.3929   -1.3715 C   0  0  0  0  0  0  0  0  0  0  0  0
   -1.5979   -0.2405   -3.4591 H   0  0  0  0  0  0  0  0  0  0  0  0
   -1.5979   -2.0847   -3.4403 H   0  0  0  0  0  0  0  0  0  0  0  0
   -1.5979   -2.1131   -1.0391 H   0  0  0  0  0  0  0  0  0  0  0  0
   -0.5546   -0.0344    0.1319 H   0  0  0  0  0  0  0  0  0  0  0  0
   -2.4673   -0.0209   -0.0007 H   0  0  0  0  0  0  0  0  0  0  0  0
   -2.4803    1.5079   -2.0040 H   0  0  0  0  0  0  0  0  0  0  0  0
   -0.7155    1.5079   -2.0040 H   0  0  0  0  0  0  0  0  0  0  0  0
   -1.5979    2.2072   -0.6462 H   0  0  0  0  0  0  0  0  0  0  0  0
  1  2  2  3
  1  6  1  0
  1  7  1  0
  2  3  1  0
  2  8  1  0
  3  4  1  0
  3  9  1  0
  4  5  2  3
  4 10  1  0
  5 11  1  0
  5 12  1  0
 13 14  2  3
 13 17  1  0
 13 18  1  0
 14 15  1  0
 14 19  1  0
 15 16  1  0
 15 20  1  0
 15 21  1  0
 16 22  1  0
 16 23  1  0
 16 24  1  0
M  RAD  1   3   2
M  END
>  <reaction>  (5) 
rxn_1044

>  <mol_properties>  (5) 
{"1": {"label": "*0", "atom_type": "Cd"}, "2": {"label": "*1", "atom_type": "Cs"}, "13": {"label": "*4", "atom_type": "Cd"}, "14": {"label": "*3", "atom_type": "Cs"}, "19": {"label": "*2", "atom_type": "H0"}}

>  <type>  (5) 
unop_1

>  <geom_source>  (5) 
Heuristics

$$$$

     RDKit          3D

 24 22  0  0  0  0  0  0  0  0999 V2000
    2.6784    0.1042   -0.2876 C   0  0  0  0  0  0  0  0  0  0  0  0
    1.6148   -0.4591    0.2624 C   0  0  0  0  0  0  0  0  0  0  0  0
    0.5205    0.2794    0.9667 C   0  0  0  0  0  3  0  0  0  0  0  0
    0.3599   -0.0665    2.4221 C   0  0  0  0  0  0  0  0  0  0  0  0
    1.2044   -0.7808    3.1493 C   0  0  0  0  0  0  0  0  0  0  0  0
    3.4344   -0.4847   -0.7918 H   0  0  0  0  0  0  0  0  0  0  0  0
    2.8309    1.1777   -0.2549 H   0  0  0  0  0  0  0  0  0  0  0  0
    1.5029   -1.5393    0.2161 H   0  0  0  0  0  0  0  0  0  0  0  0
    0.6788    1.3589    0.8735 H   0  0  0  0  0  0  0  0  0  0  0  0
   -0.5362    0.3286    2.8927 H   0  0  0  0  0  0  0  0  0  0  0  0
    1.0130   -0.9762    4.1968 H   0  0  0  0  0  0  0  0  0  0  0  0
    2.1169   -1.1878    2.7292 H   0  0  0  0  0  0  0  0  0  0  0  0
   -1.5668   -0.7619   -2.8432 C   0  0  0  0  0  0  0  0  0  0  0  0
   -1.5668   -0.7619   -1.5188 C   0  0  0  0  0  0  0  0  0  0  0  0
   -1.5668    0.4426   -0.6254 C   0  0  0  0  0  0  0  0  0  0  0  0
   -1.5668    1.7883   -1.3331 C   0  0  0  0  0  0  0  0  0  0  0  0
   -1.5668    0.1550   -3.4206 H   0  0  0  0  0  0  0  0  0  0  0  0
   -1.5668   -1.6893   -3.4019 H   0  0  0  0  0  0  0  0  0  0  0  0
   -1.5668   -1.7177   -1.0007 H   0  0  0  0  0  0  0  0  0  0  0  0
   -0.5235    0.3610    0.1704 H   0  0  0  0  0  0  0  0  0  0  0  0
   -2.4362    0.3746    0.0377 H   0  0  0  0  0  0  0  0  0  0  0  0
   -2.4492    1.9033   -1.9655 H   0  0  0  0  0  0  0  0  0  0  0  0
   -0.6843    1.9033   -1.9655 H   0  0  0  0  0  0  0  0  0  0  0  0
   -1.5668    2.6027   -0.6078 H   0  0  0  0  0  0  0  0  0  0  0  0
  1  2  2  3
  1  6  1  0
  1  7  1  0
  2  3  1  0
  2  8  1  0
  3  4  1  0
  3  9  1  0
  4  5  2  3
  4 10  1  0
  5 11  1  0
  5 12  1  0
 13 14  2  3
 13 17  1  0
 13 18  1  0
 14 15  1  0
 14 19  1  0
 15 16  1  0
 15 20  1  0
 15 21  1  0
 16 22  1  0
 16 23  1  0
 16 24  1  0
M  RAD  1   3   2
M  END
>  <reaction>  (6) 
rxn_1044

>  <mol_properties>  (6) 
{"1": {"label": "*0", "atom_type": "Cd"}, "2": {"label": "*1", "atom_type": "Cs"}, "13": {"label": "*4", "atom_type": "Cd"}, "14": {"label": "*3", "atom_type": "Cs"}, "19": {"label": "*2", "atom_type": "H0"}}

>  <type>  (6) 
unop_2

>  <geom_source>  (6) 
Heuristics

$$$$

     RDKit          3D

 24 22  0  0  0  0  0  0  0  0999 V2000
    0.5909    1.9139    2.3344 C   0  0  0  0  0  0  0  0  0  0  0  0
    0.9651    1.2371    1.2606 C   0  0  0  0  0  0  0  0  0  0  0  0
    0.5065   -0.1444    0.9141 C   0  0  0  0  0  3  0  0  0  0  0  0
    1.5987   -1.1777    0.8602 C   0  0  0  0  0  0  0  0  0  0  0  0
    2.8431   -1.0165    1.2815 C   0  0  0  0  0  0  0  0  0  0  0  0
    0.9523    2.9163    2.5266 H   0  0  0  0  0  0  0  0  0  0  0  0
   -0.0937    1.4893    3.0609 H   0  0  0  0  0  0  0  0  0  0  0  0
    1.6599    1.6943    0.5608 H   0  0  0  0  0  0  0  0  0  0  0  0
   -0.2585   -0.4730    1.6255 H   0  0  0  0  0  0  0  0  0  0  0  0
    1.3051   -2.1359    0.4403 H   0  0  0  0  0  0  0  0  0  0  0  0
    3.5655   -1.8198    1.2110 H   0  0  0  0  0  0  0  0  0  0  0  0
    3.1821   -0.0837    1.7173 H   0  0  0  0  0  0  0  0  0  0  0  0
   -1.5808   -1.1857   -2.8957 C   0  0  0  0  0  0  0  0  0  0  0  0
   -1.5808   -1.1857   -1.5714 C   0  0  0  0  0  0  0  0  0  0  0  0
   -1.5808    0.0188   -0.6779 C   0  0  0  0  0  0  0  0  0  0  0  0
   -1.5808    1.3646   -1.3856 C   0  0  0  0  0  0  0  0  0  0  0  0
   -1.5808   -0.2688   -3.4732 H   0  0  0  0  0  0  0  0  0  0  0  0
   -1.5808   -2.1130   -3.4544 H   0  0  0  0  0  0  0  0  0  0  0  0
   -1.5808   -2.1414   -1.0532 H   0  0  0  0  0  0  0  0  0  0  0  0
   -0.5375   -0.0627    0.1178 H   0  0  0  0  0  0  0  0  0  0  0  0
   -2.4502   -0.0491   -0.0148 H   0  0  0  0  0  0  0  0  0  0  0  0
   -2.4632    1.4796   -2.0180 H   0  0  0  0  0  0  0  0  0  0  0  0
   -0.6983    1.4796   -2.0180 H   0  0  0  0  0  0  0  0  0  0  0  0
   -1.5808    2.1789   -0.6603 H   0  0  0  0  0  0  0  0  0  0  0  0
  1  2  2  3
  1  6  1  0
  1  7  1  0
  2  3  1  0
  2  8  1  0
  3  4  1  0
  3  9  1  0
  4  5  2  3
  4 10  1  0
  5 11  1  0
  5 12  1  0
 13 14  2  3
 13 17  1  0
 13 18  1  0
 14 15  1  0
 14 19  1  0
 15 16  1  0
 15 20  1  0
 15 21  1  0
 16 22  1  0
 16 23  1  0
 16 24  1  0
M  RAD  1   3   2
M  END
>  <reaction>  (7) 
rxn_1044

>  <mol_properties>  (7) 
{"1": {"label": "*0", "atom_type": "Cd"}, "2": {"label": "*1", "atom_type": "Cs"}, "13": {"label": "*4", "atom_type": "Cd"}, "14": {"label": "*3", "atom_type": "Cs"}, "19": {"label": "*2", "atom_type": "H0"}}

>  <type>  (7) 
unop_3

>  <geom_source>  (7) 
Heuristics

$$$$

     RDKit          3D

 24 22  0  0  0  0  0  0  0  0999 V2000
    1.9676   -1.8219    1.9469 C   0  0  0  0  0  0  0  0  0  0  0  0
    0.9398   -1.1526    1.4503 C   0  0  0  0  0  0  0  0  0  0  0  0
    1.0432    0.0990    0.6368 C   0  0  0  0  0  3  0  0  0  0  0  0
    0.3983    1.3095    1.2552 C   0  0  0  0  0  0  0  0  0  0  0  0
   -0.0477    1.4035    2.4980 C   0  0  0  0  0  0  0  0  0  0  0  0
    1.8286   -2.7283    2.5227 H   0  0  0  0  0  0  0  0  0  0  0  0
    2.9882   -1.4875    1.7935 H   0  0  0  0  0  0  0  0  0  0  0  0
   -0.0682   -1.5156    1.6338 H   0  0  0  0  0  0  0  0  0  0  0  0
    2.0948    0.3236    0.4298 H   0  0  0  0  0  0  0  0  0  0  0  0
    0.3140    2.1715    0.5991 H   0  0  0  0  0  0  0  0  0  0  0  0
   -0.4935    2.3196    2.8639 H   0  0  0  0  0  0  0  0  0  0  0  0
    0.0230    0.5756    3.1941 H   0  0  0  0  0  0  0  0  0  0  0  0
   -1.0440   -0.9423   -3.1730 C   0  0  0  0  0  0  0  0  0  0  0  0
   -1.0440   -0.9423   -1.8487 C   0  0  0  0  0  0  0  0  0  0  0  0
   -1.0440    0.2622   -0.9552 C   0  0  0  0  0  0  0  0  0  0  0  0
   -1.0440    1.6079   -1.6629 C   0  0  0  0  0  0  0  0  0  0  0  0
   -1.0440   -0.0254   -3.7505 H   0  0  0  0  0  0  0  0  0  0  0  0
   -1.0440   -1.8697   -3.7317 H   0  0  0  0  0  0  0  0  0  0  0  0
   -1.0440   -1.8981   -1.3305 H   0  0  0  0  0  0  0  0  0  0  0  0
   -0.0007    0.1806   -0.1595 H   0  0  0  0  0  0  0  0  0  0  0  0
   -1.9134    0.1942   -0.2921 H   0  0  0  0  0  0  0  0  0  0  0  0
   -1.9265    1.7229   -2.2953 H   0  0  0  0  0  0  0  0  0  0  0  0
   -0.1616    1.7229   -2.2953 H   0  0  0  0  0  0  0  0  0  0  0  0
   -1.0440    2.4223   -0.9376 H   0  0  0  0  0  0  0  0  0  0  0  0
  1  2  2  3
  1  6  1  0
  1  7  1  0
  2  3  1  0
  2  8  1  0
  3  4  1  0
  3  9  1  0
  4  5  2  3
  4 10  1  0
  5 11  1  0
  5 12  1  0
 13 14  2  3
 13 17  1  0
 13 18  1  0
 14 15  1  0
 14 19  1  0
 15 16  1  0
 15 20  1  0
 15 21  1  0
 16 22  1  0
 16 23  1  0
 16 24  1  0
M  RAD  1   3   2
M  END
>  <reaction>  (8) 
rxn_1044

>  <mol_properties>  (8) 
{"1": {"label": "*0", "atom_type": "Cd"}, "2": {"label": "*1", "atom_type": "Cs"}, "13": {"label": "*4", "atom_type": "Cd"}, "14": {"label": "*3", "atom_type": "Cs"}, "19": {"label": "*2", "atom_type": "H0"}}

>  <type>  (8) 
unop_4

>  <geom_source>  (8) 
Heuristics

$$$$

     RDKit          3D

 24 22  0  0  0  0  0  0  0  0999 V2000
    0.5300    0.8775    3.2002 C   0  0  0  0  0  0  0  0  0  0  0  0
    0.5644    0.9247    1.8783 C   0  0  0  0  0  0  0  0  0  0  0  0
    0.5441   -0.2689    0.9763 C   0  0  0  0  0  3  0  0  0  0  0  0
    1.7703   -0.4347    0.1201 C   0  0  0  0  0  0  0  0  0  0  0  0
    2.9033    0.2379    0.2461 C   0  0  0  0  0  0  0  0  0  0  0  0
    0.5391    1.7791    3.7998 H   0  0  0  0  0  0  0  0  0  0  0  0
    0.4896   -0.0672    3.7320 H   0  0  0  0  0  0  0  0  0  0  0  0
    0.6136    1.8911    1.3830 H   0  0  0  0  0  0  0  0  0  0  0  0
    0.3969   -1.1799    1.5660 H   0  0  0  0  0  0  0  0  0  0  0  0
    1.6898   -1.1895   -0.6574 H   0  0  0  0  0  0  0  0  0  0  0  0
    3.7418    0.0484   -0.4118 H   0  0  0  0  0  0  0  0  0  0  0  0
    3.0369    0.9931    1.0122 H   0  0  0  0  0  0  0  0  0  0  0  0
   -1.5431   -1.3102   -2.8336 C   0  0  0  0  0  0  0  0  0  0  0  0
   -1.5431   -1.3102   -1.5093 C   0  0  0  0  0  0  0  0  0  0  0  0
   -1.5431   -0.1057   -0.6158 C   0  0  0  0  0  0  0  0  0  0  0  0
   -1.5431    1.2400   -1.3235 C   0  0  0  0  0  0  0  0  0  0  0  0
   -1.5431   -0.3933   -3.4110 H   0  0  0  0  0  0  0  0  0  0  0  0
   -1.5431   -2.2376   -3.3923 H   0  0  0  0  0  0  0  0  0  0  0  0
   -1.5431   -2.2659   -0.9911 H   0  0  0  0  0  0  0  0  0  0  0  0
   -0.4998   -0.1873    0.1800 H   0  0  0  0  0  0  0  0  0  0  0  0
   -2.4125   -0.1737    0.0473 H   0  0  0  0  0  0  0  0  0  0  0  0
   -2.4255    1.3550   -1.9559 H   0  0  0  0  0  0  0  0  0  0  0  0
   -0.6607    1.3550   -1.9559 H   0  0  0  0  0  0  0  0  0  0  0  0
   -1.5431    2.0544   -0.5982 H   0  0  0  0  0  0  0  0  0  0  0  0
  1  2  2  3
  1  6  1  0
  1  7  1  0
  2  3  1  0
  2  8  1  0
  3  4  1  0
  3  9  1  0
  4  5  2  3
  4 10  1  0
  5 11  1  0
  5 12  1  0
 13 14  2  3
 13 17  1  0
 13 18  1  0
 14 15  1  0
 14 19  1  0
 15 16  1  0
 15 20  1  0
 15 21  1  0
 16 22  1  0
 16 23  1  0
 16 24  1  0
M  RAD  1   3   2
M  END
>  <reaction>  (9) 
rxn_1044

>  <mol_properties>  (9) 
{"1": {"label": "*0", "atom_type": "Cd"}, "2": {"label": "*1", "atom_type": "Cs"}, "13": {"label": "*4", "atom_type": "Cd"}, "14": {"label": "*3", "atom_type": "Cs"}, "19": {"label": "*2", "atom_type": "H0"}}

>  <type>  (9) 
unop_5

>  <geom_source>  (9) 
Heuristics

$$$$

     RDKit          3D

 24 22  0  0  0  0  0  0  0  0999 V2000
    1.5126   -1.4743    2.7400 C   0  0  0  0  0  0  0  0  0  0  0  0
    0.6679   -0.8843    1.9097 C   0  0  0  0  0  0  0  0  0  0  0  0
    1.0591   -0.1504    0.6659 C   0  0  0  0  0  3  0  0  0  0  0  0
    0.7078    1.3126    0.6585 C   0  0  0  0  0  0  0  0  0  0  0  0
    0.2913    2.0174    1.6986 C   0  0  0  0  0  0  0  0  0  0  0  0
    1.1668   -1.9983    3.6223 H   0  0  0  0  0  0  0  0  0  0  0  0
    2.5832   -1.4561    2.5659 H   0  0  0  0  0  0  0  0  0  0  0  0
   -0.3972   -0.9174    2.1242 H   0  0  0  0  0  0  0  0  0  0  0  0
    2.1349   -0.2582    0.4917 H   0  0  0  0  0  0  0  0  0  0  0  0
    0.8262    1.8093   -0.3006 H   0  0  0  0  0  0  0  0  0  0  0  0
    0.0669    3.0723    1.6050 H   0  0  0  0  0  0  0  0  0  0  0  0
    0.1673    1.5706    2.6784 H   0  0  0  0  0  0  0  0  0  0  0  0
   -1.0281   -1.1917   -3.1440 C   0  0  0  0  0  0  0  0  0  0  0  0
   -1.0281   -1.1917   -1.8197 C   0  0  0  0  0  0  0  0  0  0  0  0
   -1.0281    0.0128   -0.9262 C   0  0  0  0  0  0  0  0  0  0  0  0
   -1.0281    1.3585   -1.6339 C   0  0  0  0  0  0  0  0  0  0  0  0
   -1.0281   -0.2748   -3.7214 H   0  0  0  0  0  0  0  0  0  0  0  0
   -1.0281   -2.1191   -3.7027 H   0  0  0  0  0  0  0  0  0  0  0  0
   -1.0281   -2.1475   -1.3015 H   0  0  0  0  0  0  0  0  0  0  0  0
    0.0152   -0.0688   -0.1304 H   0  0  0  0  0  0  0  0  0  0  0  0
   -1.8975   -0.0552   -0.2631 H   0  0  0  0  0  0  0  0  0  0  0  0
   -1.9106    1.4735   -2.2663 H   0  0  0  0  0  0  0  0  0  0  0  0
   -0.1457    1.4735   -2.2663 H   0  0  0  0  0  0  0  0  0  0  0  0
   -1.0281    2.1729   -0.9086 H   0  0  0  0  0  0  0  0  0  0  0  0
  1  2  2  3
  1  6  1  0
  1  7  1  0
  2  3  1  0
  2  8  1  0
  3  4  1  0
  3  9  1  0
  4  5  2  3
  4 10  1  0
  5 11  1  0
  5 12  1  0
 13 14  2  3
 13 17  1  0
 13 18  1  0
 14 15  1  0
 14 19  1  0
 15 16  1  0
 15 20  1  0
 15 21  1  0
 16 22  1  0
 16 23  1  0
 16 24  1  0
M  RAD  1   3   2
M  END
>  <reaction>  (10) 
rxn_1044

>  <mol_properties>  (10) 
{"1": {"label": "*0", "atom_type": "Cd"}, "2": {"label": "*1", "atom_type": "Cs"}, "13": {"label": "*4", "atom_type": "Cd"}, "14": {"label": "*3", "atom_type": "Cs"}, "19": {"label": "*2", "atom_type": "H0"}}

>  <type>  (10) 
unop_6

>  <geom_source>  (10) 
Heuristics

$$$$

     RDKit          3D

 24 22  0  0  0  0  0  0  0  0999 V2000
    1.1902   -0.8290    3.2269 C   0  0  0  0  0  0  0  0  0  0  0  0
    0.4836   -0.3802    2.2021 C   0  0  0  0  0  0  0  0  0  0  0  0
    0.9540   -0.3526    0.7820 C   0  0  0  0  0  3  0  0  0  0  0  0
    1.0546    1.0210    0.1764 C   0  0  0  0  0  0  0  0  0  0  0  0
    0.9684    2.1679    0.8317 C   0  0  0  0  0  0  0  0  0  0  0  0
    0.7906   -0.8304    4.2333 H   0  0  0  0  0  0  0  0  0  0  0  0
    2.1959   -1.2141    3.0957 H   0  0  0  0  0  0  0  0  0  0  0  0
   -0.5175    0.0059    2.3764 H   0  0  0  0  0  0  0  0  0  0  0  0
    1.9271   -0.8483    0.7015 H   0  0  0  0  0  0  0  0  0  0  0  0
    1.2227    1.0394   -0.8969 H   0  0  0  0  0  0  0  0  0  0  0  0
    1.0599    3.1149    0.3151 H   0  0  0  0  0  0  0  0  0  0  0  0
    0.8118    2.2026    1.9037 H   0  0  0  0  0  0  0  0  0  0  0  0
   -1.1333   -1.3939   -3.0279 C   0  0  0  0  0  0  0  0  0  0  0  0
   -1.1333   -1.3939   -1.7035 C   0  0  0  0  0  0  0  0  0  0  0  0
   -1.1333   -0.1894   -0.8101 C   0  0  0  0  0  0  0  0  0  0  0  0
   -1.1333    1.1563   -1.5178 C   0  0  0  0  0  0  0  0  0  0  0  0
   -1.1333   -0.4770   -3.6053 H   0  0  0  0  0  0  0  0  0  0  0  0
   -1.1333   -2.3212   -3.5866 H   0  0  0  0  0  0  0  0  0  0  0  0
   -1.1333   -2.3496   -1.1853 H   0  0  0  0  0  0  0  0  0  0  0  0
   -0.0900   -0.2710   -0.0143 H   0  0  0  0  0  0  0  0  0  0  0  0
   -2.0026   -0.2574   -0.1469 H   0  0  0  0  0  0  0  0  0  0  0  0
   -2.0157    1.2714   -2.1502 H   0  0  0  0  0  0  0  0  0  0  0  0
   -0.2508    1.2714   -2.1502 H   0  0  0  0  0  0  0  0  0  0  0  0
   -1.1333    1.9707   -0.7925 H   0  0  0  0  0  0  0  0  0  0  0  0
  1  2  2  3
  1  6  1  0
  1  7  1  0
  2  3  1  0
  2  8  1  0
  3  4  1  0
  3  9  1  0
  4  5  2  3
  4 10  1  0
  5 11  1  0
  5 12  1  0
 13 14  2  3
 13 17  1  0
 13 18  1  0
 14 15  1  0
 14 19  1  0
 15 16  1  0
 15 20  1  0
 15 21  1  0
 16 22  1  0
 16 23  1  0
 16 24  1  0
M  RAD  1   3   2
M  END
>  <reaction>  (11) 
rxn_1044

>  <mol_properties>  (11) 
{"1": {"label": "*0", "atom_type": "Cd"}, "2": {"label": "*1", "atom_type": "Cs"}, "13": {"label": "*4", "atom_type": "Cd"}, "14": {"label": "*3", "atom_type": "Cs"}, "19": {"label": "*2", "atom_type": "H0"}}

>  <type>  (11) 
unop_7

>  <geom_source>  (11) 
Heuristics

$$$$

     RDKit          3D

 24 22  0  0  0  0  0  0  0  0999 V2000
    1.8430    1.9319    0.3497 C   0  0  0  0  0  0  0  0  0  0  0  0
    1.6142    0.6287    0.3361 C   0  0  0  0  0  0  0  0  0  0  0  0
    0.4484   -0.0446    0.9892 C   0  0  0  0  0  3  0  0  0  0  0  0
    0.8095   -1.0141    2.0816 C   0  0  0  0  0  0  0  0  0  0  0  0
    2.0054   -1.1563    2.6310 C   0  0  0  0  0  0  0  0  0  0  0  0
    2.7025    2.3615   -0.1497 H   0  0  0  0  0  0  0  0  0  0  0  0
    1.1762    2.6184    0.8606 H   0  0  0  0  0  0  0  0  0  0  0  0
    2.3111   -0.0270   -0.1795 H   0  0  0  0  0  0  0  0  0  0  0  0
   -0.2379    0.7068    1.3938 H   0  0  0  0  0  0  0  0  0  0  0  0
   -0.0098   -1.6331    2.4366 H   0  0  0  0  0  0  0  0  0  0  0  0
    2.1754   -1.8771    3.4207 H   0  0  0  0  0  0  0  0  0  0  0  0
    2.8521   -0.5556    2.3193 H   0  0  0  0  0  0  0  0  0  0  0  0
   -1.6388   -1.0859   -2.8207 C   0  0  0  0  0  0  0  0  0  0  0  0
   -1.6388   -1.0859   -1.4963 C   0  0  0  0  0  0  0  0  0  0  0  0
   -1.6388    0.1186   -0.6029 C   0  0  0  0  0  0  0  0  0  0  0  0
   -1.6388    1.4644   -1.3106 C   0  0  0  0  0  0  0  0  0  0  0  0
   -1.6388   -0.1690   -3.3981 H   0  0  0  0  0  0  0  0  0  0  0  0
   -1.6388   -2.0132   -3.3793 H   0  0  0  0  0  0  0  0  0  0  0  0
   -1.6388   -2.0416   -0.9781 H   0  0  0  0  0  0  0  0  0  0  0  0
   -0.5956    0.0370    0.1929 H   0  0  0  0  0  0  0  0  0  0  0  0
   -2.5082    0.0506    0.0603 H   0  0  0  0  0  0  0  0  0  0  0  0
   -2.5213    1.5794   -1.9430 H   0  0  0  0  0  0  0  0  0  0  0  0
   -0.7564    1.5794   -1.9430 H   0  0  0  0  0  0  0  0  0  0  0  0
   -1.6388    2.2787   -0.5853 H   0  0  0  0  0  0  0  0  0  0  0  0
  1  2  2  3
  1  6  1  0
  1  7  1  0
  2  3  1  0
  2  8  1  0
  3  4  1  0
  3  9  1  0
  4  5  2  3
  4 10  1  0
  5 11  1  0
  5 12  1  0
 13 14  2  3
 13 17  1  0
 13 18  1  0
 14 15  1  0
 14 19  1  0
 15 16  1  0
 15 20  1  0
 15 21  1  0
 16 22  1  0
 16 23  1  0
 16 24  1  0
M  RAD  1   3   2
M  END
>  <reaction>  (12) 
rxn_1044

>  <mol_properties>  (12) 
{"1": {"label": "*0", "atom_type": "Cd"}, "2": {"label": "*1", "atom_type": "Cs"}, "13": {"label": "*4", "atom_type": "Cd"}, "14": {"label": "*3", "atom_type": "Cs"}, "19": {"label": "*2", "atom_type": "H0"}}

>  <type>  (12) 
unop_8

>  <geom_source>  (12) 
Heuristics

$$$$

     RDKit          3D

 24 22  0  0  0  0  0  0  0  0999 V2000
    2.4433   -1.6524    0.9866 C   0  0  0  0  0  0  0  0  0  0  0  0
    1.2244   -1.1387    0.9471 C   0  0  0  0  0  0  0  0  0  0  0  0
    0.9086    0.3033    0.7029 C   0  0  0  0  0  3  0  0  0  0  0  0
    0.2078    0.9978    1.8388 C   0  0  0  0  0  0  0  0  0  0  0  0
    0.0445    0.5176    3.0615 C   0  0  0  0  0  0  0  0  0  0  0  0
    2.6076   -2.7085    1.1600 H   0  0  0  0  0  0  0  0  0  0  0  0
    3.3231   -1.0338    0.8445 H   0  0  0  0  0  0  0  0  0  0  0  0
    0.3687   -1.7906    1.1031 H   0  0  0  0  0  0  0  0  0  0  0  0
    1.8262    0.8510    0.4637 H   0  0  0  0  0  0  0  0  0  0  0  0
   -0.1801    1.9854    1.6050 H   0  0  0  0  0  0  0  0  0  0  0  0
   -0.4684    1.0910    3.8231 H   0  0  0  0  0  0  0  0  0  0  0  0
    0.4222   -0.4574    3.3472 H   0  0  0  0  0  0  0  0  0  0  0  0
   -1.1787   -0.7380   -3.1070 C   0  0  0  0  0  0  0  0  0  0  0  0
   -1.1787   -0.7380   -1.7827 C   0  0  0  0  0  0  0  0  0  0  0  0
   -1.1787    0.4665   -0.8892 C   0  0  0  0  0  0  0  0  0  0  0  0
   -1.1787    1.8122   -1.5969 C   0  0  0  0  0  0  0  0  0  0  0  0
   -1.1787    0.1789   -3.6844 H   0  0  0  0  0  0  0  0  0  0  0  0
   -1.1787   -1.6654   -3.6657 H   0  0  0  0  0  0  0  0  0  0  0  0
   -1.1787   -1.6937   -1.2645 H   0  0  0  0  0  0  0  0  0  0  0  0
   -0.1354    0.3849   -0.0934 H   0  0  0  0  0  0  0  0  0  0  0  0
   -2.0481    0.3985   -0.2261 H   0  0  0  0  0  0  0  0  0  0  0  0
   -2.0611    1.9273   -2.2293 H   0  0  0  0  0  0  0  0  0  0  0  0
   -0.2962    1.9273   -2.2293 H   0  0  0  0  0  0  0  0  0  0  0  0
   -1.1787    2.6266   -0.8716 H   0  0  0  0  0  0  0  0  0  0  0  0
  1  2  2  3
  1  6  1  0
  1  7  1  0
  2  3  1  0
  2  8  1  0
  3  4  1  0
  3  9  1  0
  4  5  2  3
  4 10  1  0
  5 11  1  0
  5 12  1  0
 13 14  2  3
 13 17  1  0
 13 18  1  0
 14 15  1  0
 14 19  1  0
 15 16  1  0
 15 20  1  0
 15 21  1  0
 16 22  1  0
 16 23  1  0
 16 24  1  0
M  RAD  1   3   2
M  END
>  <reaction>  (13) 
rxn_1044

>  <mol_properties>  (13) 
{"1": {"label": "*0", "atom_type": "Cd"}, "2": {"label": "*1", "atom_type": "Cs"}, "13": {"label": "*4", "atom_type": "Cd"}, "14": {"label": "*3", "atom_type": "Cs"}, "19": {"label": "*2", "atom_type": "H0"}}

>  <type>  (13) 
unop_9

>  <geom_source>  (13) 
Heuristics

$$$$

     RDKit          3D

 24 22  0  0  0  0  0  0  0  0999 V2000
    2.3653    1.1374   -0.2006 C   0  0  0  0  0  0  0  0  0  0  0  0
    1.6854    0.0715    0.1900 C   0  0  0  0  0  0  0  0  0  0  0  0
    0.4404    0.1045    1.0193 C   0  0  0  0  0  3  0  0  0  0  0  0
    0.5552   -0.5721    2.3583 C   0  0  0  0  0  0  0  0  0  0  0  0
    1.6762   -0.9897    2.9249 C   0  0  0  0  0  0  0  0  0  0  0  0
    3.2572    1.0491   -0.8083 H   0  0  0  0  0  0  0  0  0  0  0  0
    2.0527    2.1396    0.0725 H   0  0  0  0  0  0  0  0  0  0  0  0
    2.0365   -0.9163   -0.0972 H   0  0  0  0  0  0  0  0  0  0  0  0
    0.1206    1.1407    1.1713 H   0  0  0  0  0  0  0  0  0  0  0  0
   -0.3841   -0.7072    2.8875 H   0  0  0  0  0  0  0  0  0  0  0  0
    1.6678   -1.4621    3.8989 H   0  0  0  0  0  0  0  0  0  0  0  0
    2.6394   -0.8686    2.4425 H   0  0  0  0  0  0  0  0  0  0  0  0
   -1.6468   -0.9368   -2.7905 C   0  0  0  0  0  0  0  0  0  0  0  0
   -1.6468   -0.9368   -1.4662 C   0  0  0  0  0  0  0  0  0  0  0  0
   -1.6468    0.2677   -0.5727 C   0  0  0  0  0  0  0  0  0  0  0  0
   -1.6468    1.6134   -1.2804 C   0  0  0  0  0  0  0  0  0  0  0  0
   -1.6468   -0.0199   -3.3680 H   0  0  0  0  0  0  0  0  0  0  0  0
   -1.6468   -1.8642   -3.3492 H   0  0  0  0  0  0  0  0  0  0  0  0
   -1.6468   -1.8926   -0.9480 H   0  0  0  0  0  0  0  0  0  0  0  0
   -0.6036    0.1861    0.2230 H   0  0  0  0  0  0  0  0  0  0  0  0
   -2.5162    0.1997    0.0904 H   0  0  0  0  0  0  0  0  0  0  0  0
   -2.5293    1.7284   -1.9129 H   0  0  0  0  0  0  0  0  0  0  0  0
   -0.7644    1.7284   -1.9129 H   0  0  0  0  0  0  0  0  0  0  0  0
   -1.6468    2.4278   -0.5551 H   0  0  0  0  0  0  0  0  0  0  0  0
  1  2  2  3
  1  6  1  0
  1  7  1  0
  2  3  1  0
  2  8  1  0
  3  4  1  0
  3  9  1  0
  4  5  2  3
  4 10  1  0
  5 11  1  0
  5 12  1  0
 13 14  2  3
 13 17  1  0
 13 18  1  0
 14 15  1  0
 14 19  1  0
 15 16  1  0
 15 20  1  0
 15 21  1  0
 16 22  1  0
 16 23  1  0
 16 24  1  0
M  RAD  1   3   2
M  END
>  <reaction>  (14) 
rxn_1044

>  <mol_properties>  (14) 
{"1": {"label": "*0", "atom_type": "Cd"}, "2": {"label": "*1", "atom_type": "Cs"}, "13": {"label": "*4", "atom_type": "Cd"}, "14": {"label": "*3", "atom_type": "Cs"}, "19": {"label": "*2", "atom_type": "H0"}}

>  <type>  (14) 
unop_10

>  <geom_source>  (14) 
Heuristics

$$$$

     RDKit          3D

 24 22  0  0  0  0  0  0  0  0999 V2000
    0.9124   -0.0842    3.4066 C   0  0  0  0  0  0  0  0  0  0  0  0
    0.4267    0.2660    2.2265 C   0  0  0  0  0  0  0  0  0  0  0  0
    0.7465   -0.4119    0.9316 C   0  0  0  0  0  3  0  0  0  0  0  0
    1.4378    0.4580   -0.0830 C   0  0  0  0  0  0  0  0  0  0  0  0
    1.9523    1.6565    0.1421 C   0  0  0  0  0  0  0  0  0  0  0  0
    0.6362    0.4420    4.3117 H   0  0  0  0  0  0  0  0  0  0  0  0
    1.6043   -0.9133    3.5104 H   0  0  0  0  0  0  0  0  0  0  0  0
   -0.2574    1.1084    2.1632 H   0  0  0  0  0  0  0  0  0  0  0  0
    1.3614   -1.2990    1.1166 H   0  0  0  0  0  0  0  0  0  0  0  0
    1.5136    0.0312   -1.0794 H   0  0  0  0  0  0  0  0  0  0  0  0
    2.4410    2.2123   -0.6480 H   0  0  0  0  0  0  0  0  0  0  0  0
    1.9116    2.1208    1.1208 H   0  0  0  0  0  0  0  0  0  0  0  0
   -1.3408   -1.4532   -2.8783 C   0  0  0  0  0  0  0  0  0  0  0  0
   -1.3408   -1.4532   -1.5539 C   0  0  0  0  0  0  0  0  0  0  0  0
   -1.3408   -0.2487   -0.6605 C   0  0  0  0  0  0  0  0  0  0  0  0
   -1.3408    1.0971   -1.3682 C   0  0  0  0  0  0  0  0  0  0  0  0
   -1.3408   -0.5363   -3.4557 H   0  0  0  0  0  0  0  0  0  0  0  0
   -1.3408   -2.3805   -3.4370 H   0  0  0  0  0  0  0  0  0  0  0  0
   -1.3408   -2.4089   -1.0358 H   0  0  0  0  0  0  0  0  0  0  0  0
   -0.2975   -0.3302    0.1353 H   0  0  0  0  0  0  0  0  0  0  0  0
   -2.2101   -0.3166    0.0026 H   0  0  0  0  0  0  0  0  0  0  0  0
   -2.2232    1.2121   -2.0006 H   0  0  0  0  0  0  0  0  0  0  0  0
   -0.4583    1.2121   -2.0006 H   0  0  0  0  0  0  0  0  0  0  0  0
   -1.3408    1.9114   -0.6429 H   0  0  0  0  0  0  0  0  0  0  0  0
  1  2  2  3
  1  6  1  0
  1  7  1  0
  2  3  1  0
  2  8  1  0
  3  4  1  0
  3  9  1  0
  4  5  2  3
  4 10  1  0
  5 11  1  0
  5 12  1  0
 13 14  2  3
 13 17  1  0
 13 18  1  0
 14 15  1  0
 14 19  1  0
 15 16  1  0
 15 20  1  0
 15 21  1  0
 16 22  1  0
 16 23  1  0
 16 24  1  0
M  RAD  1   3   2
M  END
>  <reaction>  (15) 
rxn_1044

>  <mol_properties>  (15) 
{"1": {"label": "*0", "atom_type": "Cd"}, "2": {"label": "*1", "atom_type": "Cs"}, "13": {"label": "*4", "atom_type": "Cd"}, "14": {"label": "*3", "atom_type": "Cs"}, "19": {"label": "*2", "atom_type": "H0"}}

>  <type>  (15) 
unop_11

>  <geom_source>  (15) 
Heuristics

$$$$

     RDKit          3D

 24 22  0  0  0  0  0  0  0  0999 V2000
    2.7206   -0.9304    0.1429 C   0  0  0  0  0  0  0  0  0  0  0  0
    1.4549   -0.8813    0.5256 C   0  0  0  0  0  0  0  0  0  0  0  0
    0.7006    0.3729    0.8369 C   0  0  0  0  0  3  0  0  0  0  0  0
    0.2127    0.4809    2.2560 C   0  0  0  0  0  0  0  0  0  0  0  0
    0.5615   -0.3076    3.2604 C   0  0  0  0  0  0  0  0  0  0  0  0
    3.2102   -1.8710   -0.0763 H   0  0  0  0  0  0  0  0  0  0  0  0
    3.3140   -0.0289    0.0329 H   0  0  0  0  0  0  0  0  0  0  0  0
    0.8967   -1.8079    0.6327 H   0  0  0  0  0  0  0  0  0  0  0  0
    1.3187    1.2470    0.6063 H   0  0  0  0  0  0  0  0  0  0  0  0
   -0.4808    1.2962    2.4432 H   0  0  0  0  0  0  0  0  0  0  0  0
    0.1657   -0.1526    4.2560 H   0  0  0  0  0  0  0  0  0  0  0  0
    1.2578   -1.1276    3.1273 H   0  0  0  0  0  0  0  0  0  0  0  0
   -1.3866   -0.6684   -2.9730 C   0  0  0  0  0  0  0  0  0  0  0  0
   -1.3866   -0.6684   -1.6486 C   0  0  0  0  0  0  0  0  0  0  0  0
   -1.3866    0.5361   -0.7552 C   0  0  0  0  0  0  0  0  0  0  0  0
   -1.3866    1.8818   -1.4629 C   0  0  0  0  0  0  0  0  0  0  0  0
   -1.3866    0.2485   -3.5504 H   0  0  0  0  0  0  0  0  0  0  0  0
   -1.3866   -1.5958   -3.5316 H   0  0  0  0  0  0  0  0  0  0  0  0
   -1.3866   -1.6242   -1.1304 H   0  0  0  0  0  0  0  0  0  0  0  0
   -0.3434    0.4545    0.0406 H   0  0  0  0  0  0  0  0  0  0  0  0
   -2.2560    0.4681   -0.0920 H   0  0  0  0  0  0  0  0  0  0  0  0
   -2.2691    1.9968   -2.0953 H   0  0  0  0  0  0  0  0  0  0  0  0
   -0.5042    1.9968   -2.0953 H   0  0  0  0  0  0  0  0  0  0  0  0
   -1.3866    2.6962   -0.7376 H   0  0  0  0  0  0  0  0  0  0  0  0
  1  2  2  3
  1  6  1  0
  1  7  1  0
  2  3  1  0
  2  8  1  0
  3  4  1  0
  3  9  1  0
  4  5  2  3
  4 10  1  0
  5 11  1  0
  5 12  1  0
 13 14  2  3
 13 17  1  0
 13 18  1  0
 14 15  1  0
 14 19  1  0
 15 16  1  0
 15 20  1  0
 15 21  1  0
 16 22  1  0
 16 23  1  0
 16 24  1  0
M  RAD  1   3   2
M  END
>  <reaction>  (16) 
rxn_1044

>  <mol_properties>  (16) 
{"1": {"label": "*0", "atom_type": "Cd"}, "2": {"label": "*1", "atom_type": "Cs"}, "13": {"label": "*4", "atom_type": "Cd"}, "14": {"label": "*3", "atom_type": "Cs"}, "19": {"label": "*2", "atom_type": "H0"}}

>  <type>  (16) 
unop_12

>  <geom_source>  (16) 
Heuristics

$$$$

     RDKit          3D

 24 22  0  0  0  0  0  0  0  0999 V2000
   -0.7559   -0.1959   -0.8339 C   0  0  0  0  0  3  0  0  0  0  0  0
    0.9612   -0.7331    1.4427 C   0  0  0  0  0  0  0  0  0  0  0  0
    1.6640   -0.7990    0.0922 C   0  0  0  0  0  0  0  0  0  0  0  0
   -1.3362    1.1635   -0.5659 C   0  0  0  0  0  0  0  0  0  0  0  0
   -1.7566   -1.2801   -0.5496 C   0  0  0  0  0  0  0  0  0  0  0  0
    2.1115    0.5560   -0.3741 C   0  0  0  0  0  0  0  0  0  0  0  0
   -1.5900    1.5799    0.6775 C   0  0  0  0  0  0  0  0  0  0  0  0
   -2.8401   -1.4535   -1.3122 C   0  0  0  0  0  0  0  0  0  0  0  0
    3.1254    1.2018    0.2089 C   0  0  0  0  0  0  0  0  0  0  0  0
   -0.4305   -0.2609   -1.8946 H   0  0  0  0  0  0  0  0  0  0  0  0
    0.3643   -0.3805   -0.0297 H   0  0  0  0  0  0  0  0  0  0  0  0
    0.0944   -0.0410    1.3884 H   0  0  0  0  0  0  0  0  0  0  0  0
    1.6630   -0.3872    2.2310 H   0  0  0  0  0  0  0  0  0  0  0  0
    0.5917   -1.7442    1.7121 H   0  0  0  0  0  0  0  0  0  0  0  0
   -1.5378    1.8275   -1.4013 H   0  0  0  0  0  0  0  0  0  0  0  0
   -1.5835   -1.9468    0.2894 H   0  0  0  0  0  0  0  0  0  0  0  0
    2.5213   -1.5055    0.1273 H   0  0  0  0  0  0  0  0  0  0  0  0
    1.6134    1.0039   -1.2278 H   0  0  0  0  0  0  0  0  0  0  0  0
   -2.0021    2.5696    0.8454 H   0  0  0  0  0  0  0  0  0  0  0  0
   -1.3902    0.9401    1.5319 H   0  0  0  0  0  0  0  0  0  0  0  0
   -3.0336   -0.8060   -2.1622 H   0  0  0  0  0  0  0  0  0  0  0  0
   -3.5418   -2.2498   -1.0859 H   0  0  0  0  0  0  0  0  0  0  0  0
    3.4341    2.1741   -0.1612 H   0  0  0  0  0  0  0  0  0  0  0  0
    3.6541    0.7672    1.0519 H   0  0  0  0  0  0  0  0  0  0  0  0
  1  4  1  0
  1  5  1  0
  1 10  1  0
  2  3  1  0
  2 12  1  0
  2 13  1  0
  2 14  1  0
  3  6  1  0
  3 11  1  0
  3 17  1  0
  4  7  2  3
  4 15  1  0
  5  8  2  3
  5 16  1  0
  6  9  2  3
  6 18  1  0
  7 19  1  0
  7 20  1  0
  8 21  1  0
  8 22  1  0
  9 23  1  0
  9 24  1  0
M  RAD  1   1   2
M  END
>  <reaction>  (17) 
rxn_1044

>  <mol_properties>  (17) 
{"1": {"label": "*0", "atom_type": "Cd"}, "2": {"label": "*1", "atom_type": "Cs"}, "13": {"label": "*4", "atom_type": "Cd"}, "14": {"label": "*3", "atom_type": "Cs"}, "19": {"label": "*2", "atom_type": "H0"}}

>  <type>  (17) 
unop_13

>  <geom_source>  (17) 
AutoTST

$$$$

     RDKit          3D

 24 22  0  0  0  0  0  0  0  0999 V2000
    2.6784    0.1042   -0.2876 C   0  0  0  0  0  0  0  0  0  0  0  0
    1.6148   -0.4591    0.2624 C   0  0  0  0  0  0  0  0  0  0  0  0
    0.5205    0.2794    0.9667 C   0  0  0  0  0  3  0  0  0  0  0  0
    0.3599   -0.0665    2.4221 C   0  0  0  0  0  0  0  0  0  0  0  0
    1.2044   -0.7808    3.1493 C   0  0  0  0  0  0  0  0  0  0  0  0
    3.4343   -0.4847   -0.7918 H   0  0  0  0  0  0  0  0  0  0  0  0
    2.8309    1.1777   -0.2549 H   0  0  0  0  0  0  0  0  0  0  0  0
    1.5029   -1.5393    0.2161 H   0  0  0  0  0  0  0  0  0  0  0  0
    0.6788    1.3589    0.8735 H   0  0  0  0  0  0  0  0  0  0  0  0
   -0.5362    0.3286    2.8927 H   0  0  0  0  0  0  0  0  0  0  0  0
    1.0130   -0.9762    4.1968 H   0  0  0  0  0  0  0  0  0  0  0  0
    2.1169   -1.1878    2.7292 H   0  0  0  0  0  0  0  0  0  0  0  0
   -1.5668   -0.7620   -2.8432 C   0  0  0  0  0  0  0  0  0  0  0  0
   -1.5668   -0.7620   -1.5188 C   0  0  0  0  0  0  0  0  0  0  0  0
   -1.5668    0.4425   -0.6254 C   0  0  0  0  0  0  0  0  0  0  0  0
   -1.5668    1.7883   -1.3331 C   0  0  0  0  0  0  0  0  0  0  0  0
   -1.5668    0.1550   -3.4206 H   0  0  0  0  0  0  0  0  0  0  0  0
   -1.5668   -1.6893   -3.4019 H   0  0  0  0  0  0  0  0  0  0  0  0
   -1.5668   -1.7177   -1.0007 H   0  0  0  0  0  0  0  0  0  0  0  0
   -0.5235    0.3610    0.1704 H   0  0  0  0  0  0  0  0  0  0  0  0
   -2.4362    0.3746    0.0377 H   0  0  0  0  0  0  0  0  0  0  0  0
   -2.4492    1.9033   -1.9655 H   0  0  0  0  0  0  0  0  0  0  0  0
   -0.6843    1.9033   -1.9655 H   0  0  0  0  0  0  0  0  0  0  0  0
   -1.5668    2.6027   -0.6078 H   0  0  0  0  0  0  0  0  0  0  0  0
  1  2  2  3
  1  6  1  0
  1  7  1  0
  2  3  1  0
  2  8  1  0
  3  4  1  0
  3  9  1  0
  4  5  2  3
  4 10  1  0
  5 11  1  0
  5 12  1  0
 13 14  2  3
 13 17  1  0
 13 18  1  0
 14 15  1  0
 14 19  1  0
 15 16  1  0
 15 20  1  0
 15 21  1  0
 16 22  1  0
 16 23  1  0
 16 24  1  0
M  RAD  1   3   2
M  END
>  <reaction>  (18) 
rxn_1044

>  <mol_properties>  (18) 
{"1": {"label": "*0", "atom_type": "Cd"}, "2": {"label": "*1", "atom_type": "Cs"}, "13": {"label": "*4", "atom_type": "Cd"}, "14": {"label": "*3", "atom_type": "Cs"}, "19": {"label": "*2", "atom_type": "H0"}}

>  <type>  (18) 
unop_14

>  <geom_source>  (18) 
gaussian_log

$$$$
