
     RDKit          3D

 12 11  0  0  0  0  0  0  0  0999 V2000
    1.9877    0.1011    0.4814 C   0  0  0  0  0  0  0  0  0  0  0  0
    0.8179    0.5502    0.0525 C   0  0  0  0  0  0  0  0  0  0  0  0
   -0.2939   -0.2692   -0.5320 C   0  0  0  0  0  0  0  0  0  0  0  0
   -0.0292   -1.7631   -0.6328 C   0  0  0  0  0  0  0  0  0  0  0  0
    2.2522   -0.9490    0.4436 H   0  0  0  0  0  0  0  0  0  0  0  0
    2.7295    0.7757    0.8896 H   0  0  0  0  0  0  0  0  0  0  0  0
    0.6162    1.6164    0.1190 H   0  0  0  0  0  0  0  0  0  0  0  0
   -0.5268    0.1319   -1.5245 H   0  0  0  0  0  0  0  0  0  0  0  0
   -1.1959   -0.0938    0.0644 H   0  0  0  0  0  0  0  0  0  0  0  0
    0.1590   -2.1992    0.3502 H   0  0  0  0  0  0  0  0  0  0  0  0
    0.8382   -1.9701   -1.2626 H   0  0  0  0  0  0  0  0  0  0  0  0
   -0.8879   -2.2759   -1.0672 H   0  0  0  0  0  0  0  0  0  0  0  0
  1  2  2  3
  1  5  1  0
  1  6  1  0
  2  3  1  0
  2  7  1  0
  3  4  1  0
  3  8  1  0
  3  9  1  0
  4 10  1  0
  4 11  1  0
  4 12  1  0
M  END
>  <reaction>  (1) 
rxn_57

>  <mol_properties>  (1) 
{"2": {"label": "donator", "atom_type": "Cs"}, "7": {"label": "d_hydrogen", "atom_type": "H0"}}

>  <type>  (1) 
r1h

$$$$

     RDKit          3D

  2  1  0  0  0  0  0  0  0  0999 V2000
    0.0000    0.0000    0.6715 S   0  0  0  0  0  1  0  0  0  0  0  0
    0.0000    0.0000   -0.6715 H   0  0  0  0  0  0  0  0  0  0  0  0
  1  2  1  0
M  RAD  1   1   2
M  END
>  <reaction>  (2) 
rxn_57

>  <mol_properties>  (2) 
{"0": {"label": "acceptor", "atom_type": "S2s"}}

>  <type>  (2) 
r2

$$$$

     RDKit          3D

  3  2  0  0  0  0  0  0  0  0999 V2000
   -0.0007    0.6157    0.0000 S   0  0  0  0  0  0  0  0  0  0  0  0
   -0.9686   -0.3090    0.0000 H   0  0  0  0  0  0  0  0  0  0  0  0
    0.9693   -0.3067    0.0000 H   0  0  0  0  0  0  0  0  0  0  0  0
  1  2  1  0
  1  3  1  0
M  END
>  <reaction>  (3) 
rxn_57

>  <mol_properties>  (3) 
{"0": {"label": "a_hydrogen", "atom_type": "H0"}, "1": {"label": "acceptor", "atom_type": "S2s"}}

>  <type>  (3) 
r2h

$$$$

     RDKit          3D

 14 12  0  0  0  0  0  0  0  0999 V2000
   -0.6698   -1.0570   -2.1710 C   0  0  0  0  0  0  0  0  0  0  0  0
   -1.0447   -0.9973   -0.8897 C   0  0  0  0  0  0  0  0  0  0  0  0
   -1.0532    0.2023   -0.0671 C   0  0  0  0  0  0  0  0  0  0  0  0
   -0.8625    1.5559   -0.6918 C   0  0  0  0  0  0  0  0  0  0  0  0
   -0.3616   -0.1772   -2.7224 H   0  0  0  0  0  0  0  0  0  0  0  0
   -0.6761   -1.9953   -2.7097 H   0  0  0  0  0  0  0  0  0  0  0  0
   -1.3419   -1.9142   -0.3904 H   0  0  0  0  0  0  0  0  0  0  0  0
    0.0390    0.0591    0.7258 H   0  0  0  0  0  0  0  0  0  0  0  0
   -1.7839    0.1735    0.7400 H   0  0  0  0  0  0  0  0  0  0  0  0
   -1.7064    1.7975   -1.3447 H   0  0  0  0  0  0  0  0  0  0  0  0
    0.0492    1.5968   -1.2887 H   0  0  0  0  0  0  0  0  0  0  0  0
   -0.7927    2.3265    0.0748 H   0  0  0  0  0  0  0  0  0  0  0  0
    1.3868   -0.0424    1.5353 S   0  0  0  0  0  1  0  0  0  0  0  0
    1.9153   -0.6884    0.4866 H   0  0  0  0  0  0  0  0  0  0  0  0
  1  2  2  3
  1  5  1  0
  1  6  1  0
  2  3  1  0
  2  7  1  0
  3  4  1  0
  3  8  1  0
  3  9  1  0
  4 10  1  0
  4 11  1  0
  4 12  1  0
 13 14  1  0
M  RAD  1  13   2
M  END
>  <reaction>  (4) 
rxn_57

>  <mol_properties>  (4) 
{"1": {"label": "*0", "atom_type": "Cd"}, "2": {"label": "*1", "atom_type": "Cs"}, "7": {"label": "*2", "atom_type": "H0"}, "12": {"label": "*3", "atom_type": "S2s"}, "13": {"label": "*4", "atom_type": "H0"}}

>  <type>  (4) 
ts

$$$$

     RDKit          3D

 14 12  0  0  0  0  0  0  0  0999 V2000
   -0.8664   -1.0111   -2.2720 C   0  0  0  0  0  0  0  0  0  0  0  0
   -0.8664   -1.0111   -0.9476 C   0  0  0  0  0  0  0  0  0  0  0  0
   -0.8664    0.1934   -0.0542 C   0  0  0  0  0  0  0  0  0  0  0  0
   -0.8664    1.5392   -0.7619 C   0  0  0  0  0  0  0  0  0  0  0  0
   -0.8664   -0.0942   -2.8494 H   0  0  0  0  0  0  0  0  0  0  0  0
   -0.8664   -1.9384   -2.8306 H   0  0  0  0  0  0  0  0  0  0  0  0
   -0.8664   -1.9668   -0.4294 H   0  0  0  0  0  0  0  0  0  0  0  0
    0.1769    0.1118    0.7416 H   0  0  0  0  0  0  0  0  0  0  0  0
   -1.7357    0.1254    0.6090 H   0  0  0  0  0  0  0  0  0  0  0  0
   -1.7488    1.6542   -1.3943 H   0  0  0  0  0  0  0  0  0  0  0  0
    0.0161    1.6542   -1.3943 H   0  0  0  0  0  0  0  0  0  0  0  0
   -0.8664    2.3535   -0.0366 H   0  0  0  0  0  0  0  0  0  0  0  0
    1.4517    0.0122    1.7139 S   0  0  0  0  0  1  0  0  0  0  0  0
    1.9665    1.1626    1.2630 H   0  0  0  0  0  0  0  0  0  0  0  0
  1  2  2  3
  1  5  1  0
  1  6  1  0
  2  3  1  0
  2  7  1  0
  3  4  1  0
  3  8  1  0
  3  9  1  0
  4 10  1  0
  4 11  1  0
  4 12  1  0
 13 14  1  0
M  RAD  1  13   2
M  END
>  <reaction>  (5) 
rxn_57

>  <mol_properties>  (5) 
{"1": {"label": "*0", "atom_type": "Cd"}, "2": {"label": "*1", "atom_type": "Cs"}, "7": {"label": "*2", "atom_type": "H0"}, "12": {"label": "*3", "atom_type": "S2s"}, "13": {"label": "*4", "atom_type": "H0"}}

>  <type>  (5) 
unop_1

>  <geom_source>  (5) 
Heuristics

$$$$

     RDKit          3D

 14 12  0  0  0  0  0  0  0  0999 V2000
   -0.8687   -0.9904   -2.2668 C   0  0  0  0  0  0  0  0  0  0  0  0
   -0.8687   -0.9904   -0.9425 C   0  0  0  0  0  0  0  0  0  0  0  0
   -0.8687    0.2141   -0.0490 C   0  0  0  0  0  0  0  0  0  0  0  0
   -0.8687    1.5598   -0.7567 C   0  0  0  0  0  0  0  0  0  0  0  0
   -0.8687   -0.0735   -2.8442 H   0  0  0  0  0  0  0  0  0  0  0  0
   -0.8687   -1.9178   -2.8255 H   0  0  0  0  0  0  0  0  0  0  0  0
   -0.8687   -1.9462   -0.4243 H   0  0  0  0  0  0  0  0  0  0  0  0
    0.1746    0.1325    0.7467 H   0  0  0  0  0  0  0  0  0  0  0  0
   -1.7381    0.1461    0.6141 H   0  0  0  0  0  0  0  0  0  0  0  0
   -1.7511    1.6748   -1.3891 H   0  0  0  0  0  0  0  0  0  0  0  0
    0.0138    1.6748   -1.3891 H   0  0  0  0  0  0  0  0  0  0  0  0
   -0.8687    2.3742   -0.0314 H   0  0  0  0  0  0  0  0  0  0  0  0
    1.4494    0.0328    1.7191 S   0  0  0  0  0  1  0  0  0  0  0  0
    2.1687   -0.6406    0.8130 H   0  0  0  0  0  0  0  0  0  0  0  0
  1  2  2  3
  1  5  1  0
  1  6  1  0
  2  3  1  0
  2  7  1  0
  3  4  1  0
  3  8  1  0
  3  9  1  0
  4 10  1  0
  4 11  1  0
  4 12  1  0
 13 14  1  0
M  RAD  1  13   2
M  END
>  <reaction>  (6) 
rxn_57

>  <mol_properties>  (6) 
{"1": {"label": "*0", "atom_type": "Cd"}, "2": {"label": "*1", "atom_type": "Cs"}, "7": {"label": "*2", "atom_type": "H0"}, "12": {"label": "*3", "atom_type": "S2s"}, "13": {"label": "*4", "atom_type": "H0"}}

>  <type>  (6) 
unop_2

>  <geom_source>  (6) 
Heuristics

$$$$

     RDKit          3D

 14 12  0  0  0  0  0  0  0  0999 V2000
   -0.8619   -1.0131   -2.2780 C   0  0  0  0  0  0  0  0  0  0  0  0
   -0.8619   -1.0131   -0.9537 C   0  0  0  0  0  0  0  0  0  0  0  0
   -0.8619    0.1914   -0.0602 C   0  0  0  0  0  0  0  0  0  0  0  0
   -0.8619    1.5371   -0.7680 C   0  0  0  0  0  0  0  0  0  0  0  0
   -0.8619   -0.0962   -2.8555 H   0  0  0  0  0  0  0  0  0  0  0  0
   -0.8619   -1.9405   -2.8367 H   0  0  0  0  0  0  0  0  0  0  0  0
   -0.8619   -1.9689   -0.4355 H   0  0  0  0  0  0  0  0  0  0  0  0
    0.1814    0.1098    0.7355 H   0  0  0  0  0  0  0  0  0  0  0  0
   -1.7313    0.1234    0.6029 H   0  0  0  0  0  0  0  0  0  0  0  0
   -1.7443    1.6521   -1.4004 H   0  0  0  0  0  0  0  0  0  0  0  0
    0.0206    1.6521   -1.4004 H   0  0  0  0  0  0  0  0  0  0  0  0
   -0.8619    2.3515   -0.0426 H   0  0  0  0  0  0  0  0  0  0  0  0
    1.4562    0.0101    1.7078 S   0  0  0  0  0  1  0  0  0  0  0  0
    1.5746    1.3406    1.7950 H   0  0  0  0  0  0  0  0  0  0  0  0
  1  2  2  3
  1  5  1  0
  1  6  1  0
  2  3  1  0
  2  7  1  0
  3  4  1  0
  3  8  1  0
  3  9  1  0
  4 10  1  0
  4 11  1  0
  4 12  1  0
 13 14  1  0
M  RAD  1  13   2
M  END
>  <reaction>  (7) 
rxn_57

>  <mol_properties>  (7) 
{"1": {"label": "*0", "atom_type": "Cd"}, "2": {"label": "*1", "atom_type": "Cs"}, "7": {"label": "*2", "atom_type": "H0"}, "12": {"label": "*3", "atom_type": "S2s"}, "13": {"label": "*4", "atom_type": "H0"}}

>  <type>  (7) 
unop_3

>  <geom_source>  (7) 
Heuristics

$$$$

     RDKit          3D

 14 12  0  0  0  0  0  0  0  0999 V2000
   -0.8559   -0.9850   -2.2830 C   0  0  0  0  0  0  0  0  0  0  0  0
   -0.8559   -0.9850   -0.9587 C   0  0  0  0  0  0  0  0  0  0  0  0
   -0.8559    0.2195   -0.0652 C   0  0  0  0  0  0  0  0  0  0  0  0
   -0.8559    1.5653   -0.7729 C   0  0  0  0  0  0  0  0  0  0  0  0
   -0.8559   -0.0681   -2.8605 H   0  0  0  0  0  0  0  0  0  0  0  0
   -0.8559   -1.9123   -2.8417 H   0  0  0  0  0  0  0  0  0  0  0  0
   -0.8559   -1.9407   -0.4405 H   0  0  0  0  0  0  0  0  0  0  0  0
    0.1874    0.1380    0.7305 H   0  0  0  0  0  0  0  0  0  0  0  0
   -1.7252    0.1516    0.5979 H   0  0  0  0  0  0  0  0  0  0  0  0
   -1.7383    1.6803   -1.4054 H   0  0  0  0  0  0  0  0  0  0  0  0
    0.0266    1.6803   -1.4054 H   0  0  0  0  0  0  0  0  0  0  0  0
   -0.8559    2.3797   -0.0476 H   0  0  0  0  0  0  0  0  0  0  0  0
    1.4622    0.0383    1.7028 S   0  0  0  0  0  1  0  0  0  0  0  0
    1.0493   -1.1201    2.2315 H   0  0  0  0  0  0  0  0  0  0  0  0
  1  2  2  3
  1  5  1  0
  1  6  1  0
  2  3  1  0
  2  7  1  0
  3  4  1  0
  3  8  1  0
  3  9  1  0
  4 10  1  0
  4 11  1  0
  4 12  1  0
 13 14  1  0
M  RAD  1  13   2
M  END
>  <reaction>  (8) 
rxn_57

>  <mol_properties>  (8) 
{"1": {"label": "*0", "atom_type": "Cd"}, "2": {"label": "*1", "atom_type": "Cs"}, "7": {"label": "*2", "atom_type": "H0"}, "12": {"label": "*3", "atom_type": "S2s"}, "13": {"label": "*4", "atom_type": "H0"}}

>  <type>  (8) 
unop_4

>  <geom_source>  (8) 
Heuristics

$$$$

     RDKit          3D

 14 12  0  0  0  0  0  0  0  0999 V2000
   -0.8572   -1.0111   -2.2840 C   0  0  0  0  0  0  0  0  0  0  0  0
   -0.8572   -1.0111   -0.9596 C   0  0  0  0  0  0  0  0  0  0  0  0
   -0.8572    0.1934   -0.0662 C   0  0  0  0  0  0  0  0  0  0  0  0
   -0.8572    1.5391   -0.7739 C   0  0  0  0  0  0  0  0  0  0  0  0
   -0.8572   -0.0942   -2.8614 H   0  0  0  0  0  0  0  0  0  0  0  0
   -0.8572   -1.9385   -2.8427 H   0  0  0  0  0  0  0  0  0  0  0  0
   -0.8572   -1.9668   -0.4415 H   0  0  0  0  0  0  0  0  0  0  0  0
    0.1861    0.1118    0.7296 H   0  0  0  0  0  0  0  0  0  0  0  0
   -1.7266    0.1254    0.5969 H   0  0  0  0  0  0  0  0  0  0  0  0
   -1.7396    1.6542   -1.4063 H   0  0  0  0  0  0  0  0  0  0  0  0
    0.0253    1.6542   -1.4063 H   0  0  0  0  0  0  0  0  0  0  0  0
   -0.8572    2.3535   -0.0486 H   0  0  0  0  0  0  0  0  0  0  0  0
    1.4608    0.0121    1.7019 S   0  0  0  0  0  1  0  0  0  0  0  0
    1.1649    1.1651    2.3142 H   0  0  0  0  0  0  0  0  0  0  0  0
  1  2  2  3
  1  5  1  0
  1  6  1  0
  2  3  1  0
  2  7  1  0
  3  4  1  0
  3  8  1  0
  3  9  1  0
  4 10  1  0
  4 11  1  0
  4 12  1  0
 13 14  1  0
M  RAD  1  13   2
M  END
>  <reaction>  (9) 
rxn_57

>  <mol_properties>  (9) 
{"1": {"label": "*0", "atom_type": "Cd"}, "2": {"label": "*1", "atom_type": "Cs"}, "7": {"label": "*2", "atom_type": "H0"}, "12": {"label": "*3", "atom_type": "S2s"}, "13": {"label": "*4", "atom_type": "H0"}}

>  <type>  (9) 
unop_5

>  <geom_source>  (9) 
Heuristics

$$$$

     RDKit          3D

 14 12  0  0  0  0  0  0  0  0999 V2000
   -0.8528   -0.9905   -2.2876 C   0  0  0  0  0  0  0  0  0  0  0  0
   -0.8528   -0.9905   -0.9633 C   0  0  0  0  0  0  0  0  0  0  0  0
   -0.8528    0.2140   -0.0698 C   0  0  0  0  0  0  0  0  0  0  0  0
   -0.8528    1.5598   -0.7776 C   0  0  0  0  0  0  0  0  0  0  0  0
   -0.8528   -0.0736   -2.8651 H   0  0  0  0  0  0  0  0  0  0  0  0
   -0.8528   -1.9178   -2.8463 H   0  0  0  0  0  0  0  0  0  0  0  0
   -0.8528   -1.9462   -0.4451 H   0  0  0  0  0  0  0  0  0  0  0  0
    0.1905    0.1324    0.7259 H   0  0  0  0  0  0  0  0  0  0  0  0
   -1.7222    0.1460    0.5933 H   0  0  0  0  0  0  0  0  0  0  0  0
   -1.7352    1.6748   -1.4100 H   0  0  0  0  0  0  0  0  0  0  0  0
    0.0297    1.6748   -1.4100 H   0  0  0  0  0  0  0  0  0  0  0  0
   -0.8528    2.3741   -0.0522 H   0  0  0  0  0  0  0  0  0  0  0  0
    1.4653    0.0328    1.6982 S   0  0  0  0  0  1  0  0  0  0  0  0
    0.7803   -0.6363    2.6337 H   0  0  0  0  0  0  0  0  0  0  0  0
  1  2  2  3
  1  5  1  0
  1  6  1  0
  2  3  1  0
  2  7  1  0
  3  4  1  0
  3  8  1  0
  3  9  1  0
  4 10  1  0
  4 11  1  0
  4 12  1  0
 13 14  1  0
M  RAD  1  13   2
M  END
>  <reaction>  (10) 
rxn_57

>  <mol_properties>  (10) 
{"1": {"label": "*0", "atom_type": "Cd"}, "2": {"label": "*1", "atom_type": "Cs"}, "7": {"label": "*2", "atom_type": "H0"}, "12": {"label": "*3", "atom_type": "S2s"}, "13": {"label": "*4", "atom_type": "H0"}}

>  <type>  (10) 
unop_6

>  <geom_source>  (10) 
Heuristics

$$$$

     RDKit          3D

 14 12  0  0  0  0  0  0  0  0999 V2000
   -0.8519   -0.9981   -2.2895 C   0  0  0  0  0  0  0  0  0  0  0  0
   -0.8519   -0.9981   -0.9652 C   0  0  0  0  0  0  0  0  0  0  0  0
   -0.8519    0.2064   -0.0717 C   0  0  0  0  0  0  0  0  0  0  0  0
   -0.8519    1.5522   -0.7794 C   0  0  0  0  0  0  0  0  0  0  0  0
   -0.8519   -0.0811   -2.8670 H   0  0  0  0  0  0  0  0  0  0  0  0
   -0.8519   -1.9254   -2.8482 H   0  0  0  0  0  0  0  0  0  0  0  0
   -0.8519   -1.9538   -0.4470 H   0  0  0  0  0  0  0  0  0  0  0  0
    0.1913    0.1249    0.7240 H   0  0  0  0  0  0  0  0  0  0  0  0
   -1.7213    0.1385    0.5914 H   0  0  0  0  0  0  0  0  0  0  0  0
   -1.7344    1.6672   -1.4119 H   0  0  0  0  0  0  0  0  0  0  0  0
    0.0305    1.6672   -1.4119 H   0  0  0  0  0  0  0  0  0  0  0  0
   -0.8519    2.3666   -0.0541 H   0  0  0  0  0  0  0  0  0  0  0  0
    1.4661    0.0252    1.6963 S   0  0  0  0  0  1  0  0  0  0  0  0
    0.7063    0.0237    2.7984 H   0  0  0  0  0  0  0  0  0  0  0  0
  1  2  2  3
  1  5  1  0
  1  6  1  0
  2  3  1  0
  2  7  1  0
  3  4  1  0
  3  8  1  0
  3  9  1  0
  4 10  1  0
  4 11  1  0
  4 12  1  0
 13 14  1  0
M  RAD  1  13   2
M  END
>  <reaction>  (11) 
rxn_57

>  <mol_properties>  (11) 
{"1": {"label": "*0", "atom_type": "Cd"}, "2": {"label": "*1", "atom_type": "Cs"}, "7": {"label": "*2", "atom_type": "H0"}, "12": {"label": "*3", "atom_type": "S2s"}, "13": {"label": "*4", "atom_type": "H0"}}

>  <type>  (11) 
unop_7

>  <geom_source>  (11) 
Heuristics

$$$$

     RDKit          3D

 14 12  0  0  0  0  0  0  0  0999 V2000
   -0.8694   -1.0056   -2.2674 C   0  0  0  0  0  0  0  0  0  0  0  0
   -0.8694   -1.0056   -0.9430 C   0  0  0  0  0  0  0  0  0  0  0  0
   -0.8694    0.1989   -0.0496 C   0  0  0  0  0  0  0  0  0  0  0  0
   -0.8694    1.5447   -0.7573 C   0  0  0  0  0  0  0  0  0  0  0  0
   -0.8694   -0.0886   -2.8448 H   0  0  0  0  0  0  0  0  0  0  0  0
   -0.8694   -1.9329   -2.8260 H   0  0  0  0  0  0  0  0  0  0  0  0
   -0.8694   -1.9613   -0.4248 H   0  0  0  0  0  0  0  0  0  0  0  0
    0.1738    0.1174    0.7462 H   0  0  0  0  0  0  0  0  0  0  0  0
   -1.7388    0.1310    0.6136 H   0  0  0  0  0  0  0  0  0  0  0  0
   -1.7519    1.6597   -1.3897 H   0  0  0  0  0  0  0  0  0  0  0  0
    0.0130    1.6597   -1.3897 H   0  0  0  0  0  0  0  0  0  0  0  0
   -0.8694    2.3591   -0.0320 H   0  0  0  0  0  0  0  0  0  0  0  0
    1.4486    0.0177    1.7185 S   0  0  0  0  0  1  0  0  0  0  0  0
    2.2355    0.6788    0.8608 H   0  0  0  0  0  0  0  0  0  0  0  0
  1  2  2  3
  1  5  1  0
  1  6  1  0
  2  3  1  0
  2  7  1  0
  3  4  1  0
  3  8  1  0
  3  9  1  0
  4 10  1  0
  4 11  1  0
  4 12  1  0
 13 14  1  0
M  RAD  1  13   2
M  END
>  <reaction>  (12) 
rxn_57

>  <mol_properties>  (12) 
{"1": {"label": "*0", "atom_type": "Cd"}, "2": {"label": "*1", "atom_type": "Cs"}, "7": {"label": "*2", "atom_type": "H0"}, "12": {"label": "*3", "atom_type": "S2s"}, "13": {"label": "*4", "atom_type": "H0"}}

>  <type>  (12) 
unop_8

>  <geom_source>  (12) 
Heuristics

$$$$

     RDKit          3D

 14 12  0  0  0  0  0  0  0  0999 V2000
   -0.8603   -0.9829   -2.2770 C   0  0  0  0  0  0  0  0  0  0  0  0
   -0.8603   -0.9829   -0.9526 C   0  0  0  0  0  0  0  0  0  0  0  0
   -0.8603    0.2216   -0.0592 C   0  0  0  0  0  0  0  0  0  0  0  0
   -0.8603    1.5673   -0.7669 C   0  0  0  0  0  0  0  0  0  0  0  0
   -0.8603   -0.0660   -2.8544 H   0  0  0  0  0  0  0  0  0  0  0  0
   -0.8603   -1.9103   -2.8356 H   0  0  0  0  0  0  0  0  0  0  0  0
   -0.8603   -1.9386   -0.4344 H   0  0  0  0  0  0  0  0  0  0  0  0
    0.1829    0.1400    0.7366 H   0  0  0  0  0  0  0  0  0  0  0  0
   -1.7297    0.1536    0.6040 H   0  0  0  0  0  0  0  0  0  0  0  0
   -1.7428    1.6824   -1.3993 H   0  0  0  0  0  0  0  0  0  0  0  0
    0.0221    1.6824   -1.3993 H   0  0  0  0  0  0  0  0  0  0  0  0
   -0.8603    2.3817   -0.0416 H   0  0  0  0  0  0  0  0  0  0  0  0
    1.4577    0.0403    1.7089 S   0  0  0  0  0  1  0  0  0  0  0  0
    1.4412   -1.2981    1.6995 H   0  0  0  0  0  0  0  0  0  0  0  0
  1  2  2  3
  1  5  1  0
  1  6  1  0
  2  3  1  0
  2  7  1  0
  3  4  1  0
  3  8  1  0
  3  9  1  0
  4 10  1  0
  4 11  1  0
  4 12  1  0
 13 14  1  0
M  RAD  1  13   2
M  END
>  <reaction>  (13) 
rxn_57

>  <mol_properties>  (13) 
{"1": {"label": "*0", "atom_type": "Cd"}, "2": {"label": "*1", "atom_type": "Cs"}, "7": {"label": "*2", "atom_type": "H0"}, "12": {"label": "*3", "atom_type": "S2s"}, "13": {"label": "*4", "atom_type": "H0"}}

>  <type>  (13) 
unop_9

>  <geom_source>  (13) 
Heuristics

$$$$

     RDKit          3D

 14 12  0  0  0  0  0  0  0  0999 V2000
   -0.8703   -0.9980   -2.2655 C   0  0  0  0  0  0  0  0  0  0  0  0
   -0.8703   -0.9980   -0.9411 C   0  0  0  0  0  0  0  0  0  0  0  0
   -0.8703    0.2065   -0.0477 C   0  0  0  0  0  0  0  0  0  0  0  0
   -0.8703    1.5523   -0.7554 C   0  0  0  0  0  0  0  0  0  0  0  0
   -0.8703   -0.0811   -2.8429 H   0  0  0  0  0  0  0  0  0  0  0  0
   -0.8703   -1.9253   -2.8242 H   0  0  0  0  0  0  0  0  0  0  0  0
   -0.8703   -1.9537   -0.4229 H   0  0  0  0  0  0  0  0  0  0  0  0
    0.1730    0.1249    0.7481 H   0  0  0  0  0  0  0  0  0  0  0  0
   -1.7397    0.1385    0.6155 H   0  0  0  0  0  0  0  0  0  0  0  0
   -1.7527    1.6673   -1.3878 H   0  0  0  0  0  0  0  0  0  0  0  0
    0.0122    1.6673   -1.3878 H   0  0  0  0  0  0  0  0  0  0  0  0
   -0.8703    2.3666   -0.0301 H   0  0  0  0  0  0  0  0  0  0  0  0
    1.4477    0.0253    1.7204 S   0  0  0  0  0  1  0  0  0  0  0  0
    2.3095    0.0188    0.6961 H   0  0  0  0  0  0  0  0  0  0  0  0
  1  2  2  3
  1  5  1  0
  1  6  1  0
  2  3  1  0
  2  7  1  0
  3  4  1  0
  3  8  1  0
  3  9  1  0
  4 10  1  0
  4 11  1  0
  4 12  1  0
 13 14  1  0
M  RAD  1  13   2
M  END
>  <reaction>  (14) 
rxn_57

>  <mol_properties>  (14) 
{"1": {"label": "*0", "atom_type": "Cd"}, "2": {"label": "*1", "atom_type": "Cs"}, "7": {"label": "*2", "atom_type": "H0"}, "12": {"label": "*3", "atom_type": "S2s"}, "13": {"label": "*4", "atom_type": "H0"}}

>  <type>  (14) 
unop_10

>  <geom_source>  (14) 
Heuristics

$$$$

     RDKit          3D

 14 12  0  0  0  0  0  0  0  0999 V2000
   -0.8535   -1.0056   -2.2882 C   0  0  0  0  0  0  0  0  0  0  0  0
   -0.8535   -1.0056   -0.9639 C   0  0  0  0  0  0  0  0  0  0  0  0
   -0.8535    0.1989   -0.0704 C   0  0  0  0  0  0  0  0  0  0  0  0
   -0.8535    1.5446   -0.7781 C   0  0  0  0  0  0  0  0  0  0  0  0
   -0.8535   -0.0887   -2.8656 H   0  0  0  0  0  0  0  0  0  0  0  0
   -0.8535   -1.9329   -2.8469 H   0  0  0  0  0  0  0  0  0  0  0  0
   -0.8535   -1.9613   -0.4457 H   0  0  0  0  0  0  0  0  0  0  0  0
    0.1897    0.1173    0.7254 H   0  0  0  0  0  0  0  0  0  0  0  0
   -1.7229    0.1309    0.5927 H   0  0  0  0  0  0  0  0  0  0  0  0
   -1.7360    1.6597   -1.4105 H   0  0  0  0  0  0  0  0  0  0  0  0
    0.0289    1.6597   -1.4105 H   0  0  0  0  0  0  0  0  0  0  0  0
   -0.8535    2.3590   -0.0528 H   0  0  0  0  0  0  0  0  0  0  0  0
    1.4645    0.0177    1.6977 S   0  0  0  0  0  1  0  0  0  0  0  0
    0.8471    0.6831    2.6815 H   0  0  0  0  0  0  0  0  0  0  0  0
  1  2  2  3
  1  5  1  0
  1  6  1  0
  2  3  1  0
  2  7  1  0
  3  4  1  0
  3  8  1  0
  3  9  1  0
  4 10  1  0
  4 11  1  0
  4 12  1  0
 13 14  1  0
M  RAD  1  13   2
M  END
>  <reaction>  (15) 
rxn_57

>  <mol_properties>  (15) 
{"1": {"label": "*0", "atom_type": "Cd"}, "2": {"label": "*1", "atom_type": "Cs"}, "7": {"label": "*2", "atom_type": "H0"}, "12": {"label": "*3", "atom_type": "S2s"}, "13": {"label": "*4", "atom_type": "H0"}}

>  <type>  (15) 
unop_11

>  <geom_source>  (15) 
Heuristics

$$$$

     RDKit          3D

 14 12  0  0  0  0  0  0  0  0999 V2000
   -0.8650   -0.9849   -2.2710 C   0  0  0  0  0  0  0  0  0  0  0  0
   -0.8650   -0.9849   -0.9467 C   0  0  0  0  0  0  0  0  0  0  0  0
   -0.8650    0.2196   -0.0532 C   0  0  0  0  0  0  0  0  0  0  0  0
   -0.8650    1.5653   -0.7609 C   0  0  0  0  0  0  0  0  0  0  0  0
   -0.8650   -0.0680   -2.8485 H   0  0  0  0  0  0  0  0  0  0  0  0
   -0.8650   -1.9123   -2.8297 H   0  0  0  0  0  0  0  0  0  0  0  0
   -0.8650   -1.9407   -0.4285 H   0  0  0  0  0  0  0  0  0  0  0  0
    0.1782    0.1380    0.7425 H   0  0  0  0  0  0  0  0  0  0  0  0
   -1.7344    0.1516    0.6099 H   0  0  0  0  0  0  0  0  0  0  0  0
   -1.7475    1.6803   -1.3933 H   0  0  0  0  0  0  0  0  0  0  0  0
    0.0174    1.6803   -1.3933 H   0  0  0  0  0  0  0  0  0  0  0  0
   -0.8650    2.3797   -0.0356 H   0  0  0  0  0  0  0  0  0  0  0  0
    1.4530    0.0383    1.7149 S   0  0  0  0  0  1  0  0  0  0  0  0
    1.8509   -1.1226    1.1803 H   0  0  0  0  0  0  0  0  0  0  0  0
  1  2  2  3
  1  5  1  0
  1  6  1  0
  2  3  1  0
  2  7  1  0
  3  4  1  0
  3  8  1  0
  3  9  1  0
  4 10  1  0
  4 11  1  0
  4 12  1  0
 13 14  1  0
M  RAD  1  13   2
M  END
>  <reaction>  (16) 
rxn_57

>  <mol_properties>  (16) 
{"1": {"label": "*0", "atom_type": "Cd"}, "2": {"label": "*1", "atom_type": "Cs"}, "7": {"label": "*2", "atom_type": "H0"}, "12": {"label": "*3", "atom_type": "S2s"}, "13": {"label": "*4", "atom_type": "H0"}}

>  <type>  (16) 
unop_12

>  <geom_source>  (16) 
Heuristics

$$$$
