
     RDKit          3D

 10  9  0  0  0  0  0  0  0  0999 V2000
    2.2097   -0.5315    0.2575 S   0  0  0  0  0  0  0  0  0  0  0  0
    0.5401   -0.7188   -0.4494 C   0  0  0  0  0  0  0  0  0  0  0  0
   -0.5263   -0.1678    0.4365 C   0  0  0  0  0  0  0  0  0  0  0  0
   -1.3394    0.8185    0.0912 C   0  0  0  0  0  0  0  0  0  0  0  0
    2.1701    0.8016    0.3806 H   0  0  0  0  0  0  0  0  0  0  0  0
    0.4238   -1.7978   -0.5701 H   0  0  0  0  0  0  0  0  0  0  0  0
    0.5053   -0.2663   -1.4400 H   0  0  0  0  0  0  0  0  0  0  0  0
   -0.6005   -0.6141    1.4236 H   0  0  0  0  0  0  0  0  0  0  0  0
   -2.0960    1.1907    0.7700 H   0  0  0  0  0  0  0  0  0  0  0  0
   -1.2784    1.2877   -0.8850 H   0  0  0  0  0  0  0  0  0  0  0  0
  1  2  1  0
  1  5  1  0
  2  3  1  0
  2  6  1  0
  2  7  1  0
  3  4  2  3
  3  8  1  0
  4  9  1  0
  4 10  1  0
M  END
>  <reaction>  (1) 
rxn_466

>  <mol_properties>  (1) 
{"1": {"label": "donator", "atom_type": "Cs"}, "5": {"label": "d_hydrogen", "atom_type": "H0"}}

>  <type>  (1) 
r1h

$$$$

     RDKit          3D

  5  4  0  0  0  0  0  0  0  0999 V2000
   -0.1322   -0.0293    0.0034 C   0  0  0  0  0  0  0  0  0  0  0  0
    1.6514    0.0533   -0.0278 S   0  0  0  0  0  1  0  0  0  0  0  0
   -0.5276   -0.5578   -0.8632 H   0  0  0  0  0  0  0  0  0  0  0  0
   -0.5002   -0.4706    0.9289 H   0  0  0  0  0  0  0  0  0  0  0  0
   -0.4913    1.0044   -0.0413 H   0  0  0  0  0  0  0  0  0  0  0  0
  1  2  1  0
  1  3  1  0
  1  4  1  0
  1  5  1  0
M  RAD  1   2   2
M  END
>  <reaction>  (2) 
rxn_466

>  <mol_properties>  (2) 
{"1": {"label": "acceptor", "atom_type": "S2s"}}

>  <type>  (2) 
r2

$$$$

     RDKit          3D

  6  5  0  0  0  0  0  0  0  0999 V2000
   -0.5072   -0.0291   -0.0097 C   0  0  0  0  0  0  0  0  0  0  0  0
    1.1321   -0.1527   -0.7687 S   0  0  0  0  0  0  0  0  0  0  0  0
   -0.6174   -0.7330    0.8127 H   0  0  0  0  0  0  0  0  0  0  0  0
   -0.5863    0.9827    0.3845 H   0  0  0  0  0  0  0  0  0  0  0  0
   -1.2962   -0.1800   -0.7434 H   0  0  0  0  0  0  0  0  0  0  0  0
    1.0312   -1.4237   -1.1764 H   0  0  0  0  0  0  0  0  0  0  0  0
  1  2  1  0
  1  3  1  0
  1  4  1  0
  1  5  1  0
  2  6  1  0
M  END
>  <reaction>  (3) 
rxn_466

>  <mol_properties>  (3) 
{"0": {"label": "a_hydrogen", "atom_type": "H0"}, "2": {"label": "acceptor", "atom_type": "S2s"}}

>  <type>  (3) 
r2h

$$$$

     RDKit          3D

 15 13  0  0  0  0  0  0  0  0999 V2000
    0.0352    0.7929   -1.5811 S   0  0  0  0  0  0  0  0  0  0  0  0
   -1.0319    0.4665   -0.2061 C   0  0  0  0  0  0  0  0  0  0  0  0
   -1.0578    1.5145    0.8048 C   0  0  0  0  0  0  0  0  0  0  0  0
   -2.1062    1.7594    1.5918 C   0  0  0  0  0  0  0  0  0  0  0  0
    0.0030   -0.4428   -2.0988 H   0  0  0  0  0  0  0  0  0  0  0  0
   -0.5234   -0.6323    0.3968 H   0  0  0  0  0  0  0  0  0  0  0  0
   -2.0039    0.0568   -0.4743 H   0  0  0  0  0  0  0  0  0  0  0  0
   -0.1426    2.0837    0.9388 H   0  0  0  0  0  0  0  0  0  0  0  0
   -2.0647    2.5200    2.3599 H   0  0  0  0  0  0  0  0  0  0  0  0
   -3.0317    1.2043    1.4922 H   0  0  0  0  0  0  0  0  0  0  0  0
    1.6033   -0.8258    1.5489 C   0  0  0  0  0  0  0  0  0  0  0  0
    0.1990   -1.8543    1.0737 S   0  0  0  0  0  1  0  0  0  0  0  0
    1.3514   -0.1653    2.3775 H   0  0  0  0  0  0  0  0  0  0  0  0
    2.4092   -1.4902    1.8607 H   0  0  0  0  0  0  0  0  0  0  0  0
    1.9532   -0.2410    0.6971 H   0  0  0  0  0  0  0  0  0  0  0  0
  1  2  1  0
  1  5  1  0
  2  3  1  0
  2  6  1  0
  2  7  1  0
  3  4  2  3
  3  8  1  0
  4  9  1  0
  4 10  1  0
 11 12  1  0
 11 13  1  0
 11 14  1  0
 11 15  1  0
M  RAD  1  12   2
M  END
>  <reaction>  (4) 
rxn_466

>  <mol_properties>  (4) 
{"0": {"label": "*0", "atom_type": "S2s"}, "1": {"label": "*1", "atom_type": "Cs"}, "5": {"label": "*2", "atom_type": "H0"}, "10": {"label": "*4", "atom_type": "Cs"}, "11": {"label": "*3", "atom_type": "S2s"}}

>  <type>  (4) 
ts

$$$$

     RDKit          3D

 15 13  0  0  0  0  0  0  0  0999 V2000
   -0.9343    0.0099   -1.9467 S   0  0  0  0  0  0  0  0  0  0  0  0
   -0.9343    0.0099   -0.1239 C   0  0  0  0  0  0  0  0  0  0  0  0
   -0.9343    1.3858    0.4527 C   0  0  0  0  0  0  0  0  0  0  0  0
   -1.8942    1.8628    1.2301 C   0  0  0  0  0  0  0  0  0  0  0  0
   -2.0628    0.7158   -2.0951 H   0  0  0  0  0  0  0  0  0  0  0  0
    0.1663   -0.6266    0.1931 H   0  0  0  0  0  0  0  0  0  0  0  0
   -1.7763   -0.5746    0.2457 H   0  0  0  0  0  0  0  0  0  0  0  0
   -0.0897    2.0129    0.1836 H   0  0  0  0  0  0  0  0  0  0  0  0
   -1.8550    2.8712    1.6215 H   0  0  0  0  0  0  0  0  0  0  0  0
   -2.7531    1.2599    1.5046 H   0  0  0  0  0  0  0  0  0  0  0  0
    2.2954   -0.0604    1.5078 C   0  0  0  0  0  0  0  0  0  0  0  0
    1.5156   -1.4068    0.5817 S   0  0  0  0  0  1  0  0  0  0  0  0
    1.5536    0.5560    2.0115 H   0  0  0  0  0  0  0  0  0  0  0  0
    2.9260   -0.5315    2.2599 H   0  0  0  0  0  0  0  0  0  0  0  0
    2.9210    0.5537    0.8634 H   0  0  0  0  0  0  0  0  0  0  0  0
  1  2  1  0
  1  5  1  0
  2  3  1  0
  2  6  1  0
  2  7  1  0
  3  4  2  3
  3  8  1  0
  4  9  1  0
  4 10  1  0
 11 12  1  0
 11 13  1  0
 11 14  1  0
 11 15  1  0
M  RAD  1  12   2
M  END
>  <reaction>  (5) 
rxn_466

>  <mol_properties>  (5) 
{"0": {"label": "*0", "atom_type": "S2s"}, "1": {"label": "*1", "atom_type": "Cs"}, "5": {"label": "*2", "atom_type": "H0"}, "10": {"label": "*4", "atom_type": "Cs"}, "11": {"label": "*3", "atom_type": "S2s"}}

>  <type>  (5) 
unop_1

>  <geom_source>  (5) 
Heuristics

$$$$

     RDKit          3D

 15 13  0  0  0  0  0  0  0  0999 V2000
   -0.9584    0.1215   -1.6389 S   0  0  0  0  0  0  0  0  0  0  0  0
   -0.9584    0.1215    0.1838 C   0  0  0  0  0  0  0  0  0  0  0  0
   -0.9584    1.4975    0.7604 C   0  0  0  0  0  0  0  0  0  0  0  0
   -1.9183    1.9745    1.5378 C   0  0  0  0  0  0  0  0  0  0  0  0
   -2.0869    0.8274   -1.7874 H   0  0  0  0  0  0  0  0  0  0  0  0
    0.1422   -0.5149    0.5008 H   0  0  0  0  0  0  0  0  0  0  0  0
   -1.8004   -0.4630    0.5534 H   0  0  0  0  0  0  0  0  0  0  0  0
   -0.1139    2.1245    0.4914 H   0  0  0  0  0  0  0  0  0  0  0  0
   -1.8792    2.9829    1.9293 H   0  0  0  0  0  0  0  0  0  0  0  0
   -2.7773    1.3716    1.8123 H   0  0  0  0  0  0  0  0  0  0  0  0
    2.4560   -0.8152   -0.5658 C   0  0  0  0  0  0  0  0  0  0  0  0
    1.4914   -1.2951    0.8894 S   0  0  0  0  0  1  0  0  0  0  0  0
    2.3497    0.2463   -0.7795 H   0  0  0  0  0  0  0  0  0  0  0  0
    3.4977   -1.0195   -0.3234 H   0  0  0  0  0  0  0  0  0  0  0  0
    2.1790   -1.4049   -1.4372 H   0  0  0  0  0  0  0  0  0  0  0  0
  1  2  1  0
  1  5  1  0
  2  3  1  0
  2  6  1  0
  2  7  1  0
  3  4  2  3
  3  8  1  0
  4  9  1  0
  4 10  1  0
 11 12  1  0
 11 13  1  0
 11 14  1  0
 11 15  1  0
M  RAD  1  12   2
M  END
>  <reaction>  (6) 
rxn_466

>  <mol_properties>  (6) 
{"0": {"label": "*0", "atom_type": "S2s"}, "1": {"label": "*1", "atom_type": "Cs"}, "5": {"label": "*2", "atom_type": "H0"}, "10": {"label": "*4", "atom_type": "Cs"}, "11": {"label": "*3", "atom_type": "S2s"}}

>  <type>  (6) 
unop_2

>  <geom_source>  (6) 
Heuristics

$$$$

     RDKit          3D

 15 13  0  0  0  0  0  0  0  0999 V2000
   -0.8740    0.0732   -2.0289 S   0  0  0  0  0  0  0  0  0  0  0  0
   -0.8740    0.0732   -0.2061 C   0  0  0  0  0  0  0  0  0  0  0  0
   -0.8740    1.4491    0.3704 C   0  0  0  0  0  0  0  0  0  0  0  0
   -1.8339    1.9262    1.1478 C   0  0  0  0  0  0  0  0  0  0  0  0
   -2.0025    0.7791   -2.1773 H   0  0  0  0  0  0  0  0  0  0  0  0
    0.2266   -0.5633    0.1109 H   0  0  0  0  0  0  0  0  0  0  0  0
   -1.7161   -0.5113    0.1634 H   0  0  0  0  0  0  0  0  0  0  0  0
   -0.0295    2.0762    0.1014 H   0  0  0  0  0  0  0  0  0  0  0  0
   -1.7948    2.9345    1.5393 H   0  0  0  0  0  0  0  0  0  0  0  0
   -2.6929    1.3232    1.4224 H   0  0  0  0  0  0  0  0  0  0  0  0
    1.8887   -0.4867    2.0636 C   0  0  0  0  0  0  0  0  0  0  0  0
    1.5758   -1.3435    0.4995 S   0  0  0  0  0  1  0  0  0  0  0  0
    0.9746   -0.3715    2.6423 H   0  0  0  0  0  0  0  0  0  0  0  0
    2.5792   -1.1151    2.6238 H   0  0  0  0  0  0  0  0  0  0  0  0
    2.3550    0.4823    1.8985 H   0  0  0  0  0  0  0  0  0  0  0  0
  1  2  1  0
  1  5  1  0
  2  3  1  0
  2  6  1  0
  2  7  1  0
  3  4  2  3
  3  8  1  0
  4  9  1  0
  4 10  1  0
 11 12  1  0
 11 13  1  0
 11 14  1  0
 11 15  1  0
M  RAD  1  12   2
M  END
>  <reaction>  (7) 
rxn_466

>  <mol_properties>  (7) 
{"0": {"label": "*0", "atom_type": "S2s"}, "1": {"label": "*1", "atom_type": "Cs"}, "5": {"label": "*2", "atom_type": "H0"}, "10": {"label": "*4", "atom_type": "Cs"}, "11": {"label": "*3", "atom_type": "S2s"}}

>  <type>  (7) 
unop_3

>  <geom_source>  (7) 
Heuristics

$$$$

     RDKit          3D

 15 13  0  0  0  0  0  0  0  0999 V2000
   -0.7817    0.3859   -1.7215 S   0  0  0  0  0  0  0  0  0  0  0  0
   -0.7817    0.3859    0.1012 C   0  0  0  0  0  0  0  0  0  0  0  0
   -0.7817    1.7618    0.6778 C   0  0  0  0  0  0  0  0  0  0  0  0
   -1.7416    2.2389    1.4552 C   0  0  0  0  0  0  0  0  0  0  0  0
   -1.9102    1.0918   -1.8700 H   0  0  0  0  0  0  0  0  0  0  0  0
    0.3189   -0.2505    0.4182 H   0  0  0  0  0  0  0  0  0  0  0  0
   -1.6237   -0.1986    0.4708 H   0  0  0  0  0  0  0  0  0  0  0  0
    0.0629    2.3889    0.4088 H   0  0  0  0  0  0  0  0  0  0  0  0
   -1.7024    3.2473    1.8467 H   0  0  0  0  0  0  0  0  0  0  0  0
   -2.6006    1.6359    1.7298 H   0  0  0  0  0  0  0  0  0  0  0  0
    1.2665   -2.5958   -0.0103 C   0  0  0  0  0  0  0  0  0  0  0  0
    1.6682   -1.0308    0.8069 S   0  0  0  0  0  1  0  0  0  0  0  0
    1.6064   -2.6021   -1.0438 H   0  0  0  0  0  0  0  0  0  0  0  0
    1.7992   -3.3720    0.5366 H   0  0  0  0  0  0  0  0  0  0  0  0
    0.2000   -2.8055    0.0371 H   0  0  0  0  0  0  0  0  0  0  0  0
  1  2  1  0
  1  5  1  0
  2  3  1  0
  2  6  1  0
  2  7  1  0
  3  4  2  3
  3  8  1  0
  4  9  1  0
  4 10  1  0
 11 12  1  0
 11 13  1  0
 11 14  1  0
 11 15  1  0
M  RAD  1  12   2
M  END
>  <reaction>  (8) 
rxn_466

>  <mol_properties>  (8) 
{"0": {"label": "*0", "atom_type": "S2s"}, "1": {"label": "*1", "atom_type": "Cs"}, "5": {"label": "*2", "atom_type": "H0"}, "10": {"label": "*4", "atom_type": "Cs"}, "11": {"label": "*3", "atom_type": "S2s"}}

>  <type>  (8) 
unop_4

>  <geom_source>  (8) 
Heuristics

$$$$

     RDKit          3D

 15 13  0  0  0  0  0  0  0  0999 V2000
   -0.8096    0.1697   -2.0590 S   0  0  0  0  0  0  0  0  0  0  0  0
   -0.8096    0.1697   -0.2362 C   0  0  0  0  0  0  0  0  0  0  0  0
   -0.8096    1.5456    0.3404 C   0  0  0  0  0  0  0  0  0  0  0  0
   -1.7695    2.0227    1.1178 C   0  0  0  0  0  0  0  0  0  0  0  0
   -1.9381    0.8756   -2.2074 H   0  0  0  0  0  0  0  0  0  0  0  0
    0.2910   -0.4667    0.0808 H   0  0  0  0  0  0  0  0  0  0  0  0
   -1.6516   -0.4148    0.1334 H   0  0  0  0  0  0  0  0  0  0  0  0
    0.0349    2.1727    0.0714 H   0  0  0  0  0  0  0  0  0  0  0  0
   -1.7303    3.0311    1.5092 H   0  0  0  0  0  0  0  0  0  0  0  0
   -2.6285    1.4197    1.3923 H   0  0  0  0  0  0  0  0  0  0  0  0
    1.4530   -1.1387    2.2671 C   0  0  0  0  0  0  0  0  0  0  0  0
    1.6402   -1.2469    0.4694 S   0  0  0  0  0  1  0  0  0  0  0  0
    0.5533   -1.6497    2.6035 H   0  0  0  0  0  0  0  0  0  0  0  0
    2.3195   -1.6397    2.6957 H   0  0  0  0  0  0  0  0  0  0  0  0
    1.4471   -0.1040    2.6035 H   0  0  0  0  0  0  0  0  0  0  0  0
  1  2  1  0
  1  5  1  0
  2  3  1  0
  2  6  1  0
  2  7  1  0
  3  4  2  3
  3  8  1  0
  4  9  1  0
  4 10  1  0
 11 12  1  0
 11 13  1  0
 11 14  1  0
 11 15  1  0
M  RAD  1  12   2
M  END
>  <reaction>  (9) 
rxn_466

>  <mol_properties>  (9) 
{"0": {"label": "*0", "atom_type": "S2s"}, "1": {"label": "*1", "atom_type": "Cs"}, "5": {"label": "*2", "atom_type": "H0"}, "10": {"label": "*4", "atom_type": "Cs"}, "11": {"label": "*3", "atom_type": "S2s"}}

>  <type>  (9) 
unop_5

>  <geom_source>  (9) 
Heuristics

$$$$

     RDKit          3D

 15 13  0  0  0  0  0  0  0  0999 V2000
   -0.7419    0.3986   -1.8342 S   0  0  0  0  0  0  0  0  0  0  0  0
   -0.7419    0.3986   -0.0114 C   0  0  0  0  0  0  0  0  0  0  0  0
   -0.7419    1.7745    0.5652 C   0  0  0  0  0  0  0  0  0  0  0  0
   -1.7018    2.2516    1.3426 C   0  0  0  0  0  0  0  0  0  0  0  0
   -1.8704    1.1045   -1.9826 H   0  0  0  0  0  0  0  0  0  0  0  0
    0.3587   -0.2378    0.3056 H   0  0  0  0  0  0  0  0  0  0  0  0
   -1.5839   -0.1859    0.3582 H   0  0  0  0  0  0  0  0  0  0  0  0
    0.1027    2.4016    0.2962 H   0  0  0  0  0  0  0  0  0  0  0  0
   -1.6626    3.2600    1.7340 H   0  0  0  0  0  0  0  0  0  0  0  0
   -2.5607    1.6486    1.6171 H   0  0  0  0  0  0  0  0  0  0  0  0
    0.9977   -2.6827    0.7487 C   0  0  0  0  0  0  0  0  0  0  0  0
    1.7080   -1.0181    0.6942 S   0  0  0  0  0  1  0  0  0  0  0  0
    1.1153   -3.1953   -0.2038 H   0  0  0  0  0  0  0  0  0  0  0  0
    1.5541   -3.2280    1.5092 H   0  0  0  0  0  0  0  0  0  0  0  0
   -0.0514   -2.6569    1.0359 H   0  0  0  0  0  0  0  0  0  0  0  0
  1  2  1  0
  1  5  1  0
  2  3  1  0
  2  6  1  0
  2  7  1  0
  3  4  2  3
  3  8  1  0
  4  9  1  0
  4 10  1  0
 11 12  1  0
 11 13  1  0
 11 14  1  0
 11 15  1  0
M  RAD  1  12   2
M  END
>  <reaction>  (10) 
rxn_466

>  <mol_properties>  (10) 
{"0": {"label": "*0", "atom_type": "S2s"}, "1": {"label": "*1", "atom_type": "Cs"}, "5": {"label": "*2", "atom_type": "H0"}, "10": {"label": "*4", "atom_type": "Cs"}, "11": {"label": "*3", "atom_type": "S2s"}}

>  <type>  (10) 
unop_6

>  <geom_source>  (10) 
Heuristics

$$$$

     RDKit          3D

 15 13  0  0  0  0  0  0  0  0999 V2000
   -0.7333    0.3575   -1.9467 S   0  0  0  0  0  0  0  0  0  0  0  0
   -0.7333    0.3575   -0.1239 C   0  0  0  0  0  0  0  0  0  0  0  0
   -0.7333    1.7334    0.4527 C   0  0  0  0  0  0  0  0  0  0  0  0
   -1.6931    2.2105    1.2301 C   0  0  0  0  0  0  0  0  0  0  0  0
   -1.8618    1.0634   -2.0951 H   0  0  0  0  0  0  0  0  0  0  0  0
    0.3673   -0.2789    0.1931 H   0  0  0  0  0  0  0  0  0  0  0  0
   -1.5753   -0.2270    0.2457 H   0  0  0  0  0  0  0  0  0  0  0  0
    0.1113    2.3605    0.1836 H   0  0  0  0  0  0  0  0  0  0  0  0
   -1.6540    3.2189    1.6215 H   0  0  0  0  0  0  0  0  0  0  0  0
   -2.5521    1.6075    1.5046 H   0  0  0  0  0  0  0  0  0  0  0  0
    0.9387   -2.4066    1.5078 C   0  0  0  0  0  0  0  0  0  0  0  0
    1.7166   -1.0592    0.5817 S   0  0  0  0  0  1  0  0  0  0  0  0
    0.7186   -3.2552    0.8634 H   0  0  0  0  0  0  0  0  0  0  0  0
    1.6616   -2.7182    2.2599 H   0  0  0  0  0  0  0  0  0  0  0  0
    0.0345   -2.0712    2.0115 H   0  0  0  0  0  0  0  0  0  0  0  0
  1  2  1  0
  1  5  1  0
  2  3  1  0
  2  6  1  0
  2  7  1  0
  3  4  2  3
  3  8  1  0
  4  9  1  0
  4 10  1  0
 11 12  1  0
 11 13  1  0
 11 14  1  0
 11 15  1  0
M  RAD  1  12   2
M  END
>  <reaction>  (11) 
rxn_466

>  <mol_properties>  (11) 
{"0": {"label": "*0", "atom_type": "S2s"}, "1": {"label": "*1", "atom_type": "Cs"}, "5": {"label": "*2", "atom_type": "H0"}, "10": {"label": "*4", "atom_type": "Cs"}, "11": {"label": "*3", "atom_type": "S2s"}}

>  <type>  (11) 
unop_7

>  <geom_source>  (11) 
Heuristics

$$$$

     RDKit          3D

 15 13  0  0  0  0  0  0  0  0999 V2000
   -0.9742   -0.0032   -1.8342 S   0  0  0  0  0  0  0  0  0  0  0  0
   -0.9742   -0.0032   -0.0114 C   0  0  0  0  0  0  0  0  0  0  0  0
   -0.9742    1.3728    0.5652 C   0  0  0  0  0  0  0  0  0  0  0  0
   -1.9341    1.8498    1.3426 C   0  0  0  0  0  0  0  0  0  0  0  0
   -2.1027    0.7027   -1.9826 H   0  0  0  0  0  0  0  0  0  0  0  0
    0.1264   -0.6396    0.3056 H   0  0  0  0  0  0  0  0  0  0  0  0
   -1.8162   -0.5877    0.3582 H   0  0  0  0  0  0  0  0  0  0  0  0
   -0.1296    1.9998    0.2962 H   0  0  0  0  0  0  0  0  0  0  0  0
   -1.8949    2.8582    1.7340 H   0  0  0  0  0  0  0  0  0  0  0  0
   -2.7931    1.2469    1.6171 H   0  0  0  0  0  0  0  0  0  0  0  0
    2.5641    0.0262    0.7487 C   0  0  0  0  0  0  0  0  0  0  0  0
    1.4757   -1.4198    0.6942 S   0  0  0  0  0  1  0  0  0  0  0  0
    2.0184    0.9225    1.0359 H   0  0  0  0  0  0  0  0  0  0  0  0
    3.3143   -0.1841    1.5092 H   0  0  0  0  0  0  0  0  0  0  0  0
    3.0670    0.1799   -0.2038 H   0  0  0  0  0  0  0  0  0  0  0  0
  1  2  1  0
  1  5  1  0
  2  3  1  0
  2  6  1  0
  2  7  1  0
  3  4  2  3
  3  8  1  0
  4  9  1  0
  4 10  1  0
 11 12  1  0
 11 13  1  0
 11 14  1  0
 11 15  1  0
M  RAD  1  12   2
M  END
>  <reaction>  (12) 
rxn_466

>  <mol_properties>  (12) 
{"0": {"label": "*0", "atom_type": "S2s"}, "1": {"label": "*1", "atom_type": "Cs"}, "5": {"label": "*2", "atom_type": "H0"}, "10": {"label": "*4", "atom_type": "Cs"}, "11": {"label": "*3", "atom_type": "S2s"}}

>  <type>  (12) 
unop_8

>  <geom_source>  (12) 
Heuristics

$$$$

     RDKit          3D

 15 13  0  0  0  0  0  0  0  0999 V2000
   -0.8421    0.3227   -1.6389 S   0  0  0  0  0  0  0  0  0  0  0  0
   -0.8421    0.3227    0.1838 C   0  0  0  0  0  0  0  0  0  0  0  0
   -0.8421    1.6986    0.7604 C   0  0  0  0  0  0  0  0  0  0  0  0
   -1.8020    2.1757    1.5378 C   0  0  0  0  0  0  0  0  0  0  0  0
   -1.9706    1.0286   -1.7874 H   0  0  0  0  0  0  0  0  0  0  0  0
    0.2585   -0.3137    0.5008 H   0  0  0  0  0  0  0  0  0  0  0  0
   -1.6841   -0.2618    0.5534 H   0  0  0  0  0  0  0  0  0  0  0  0
    0.0025    2.3257    0.4914 H   0  0  0  0  0  0  0  0  0  0  0  0
   -1.7628    3.1841    1.9293 H   0  0  0  0  0  0  0  0  0  0  0  0
   -2.6610    1.5727    1.8123 H   0  0  0  0  0  0  0  0  0  0  0  0
    1.6730   -2.1693   -0.5658 C   0  0  0  0  0  0  0  0  0  0  0  0
    1.6078   -1.0939    0.8894 S   0  0  0  0  0  1  0  0  0  0  0  0
    2.0459   -1.6351   -1.4372 H   0  0  0  0  0  0  0  0  0  0  0  0
    2.3696   -2.9702   -0.3234 H   0  0  0  0  0  0  0  0  0  0  0  0
    0.7000   -2.6067   -0.7795 H   0  0  0  0  0  0  0  0  0  0  0  0
  1  2  1  0
  1  5  1  0
  2  3  1  0
  2  6  1  0
  2  7  1  0
  3  4  2  3
  3  8  1  0
  4  9  1  0
  4 10  1  0
 11 12  1  0
 11 13  1  0
 11 14  1  0
 11 15  1  0
M  RAD  1  12   2
M  END
>  <reaction>  (13) 
rxn_466

>  <mol_properties>  (13) 
{"0": {"label": "*0", "atom_type": "S2s"}, "1": {"label": "*1", "atom_type": "Cs"}, "5": {"label": "*2", "atom_type": "H0"}, "10": {"label": "*4", "atom_type": "Cs"}, "11": {"label": "*3", "atom_type": "S2s"}}

>  <type>  (13) 
unop_9

>  <geom_source>  (13) 
Heuristics

$$$$

     RDKit          3D

 15 13  0  0  0  0  0  0  0  0999 V2000
   -0.9831    0.0377   -1.7215 S   0  0  0  0  0  0  0  0  0  0  0  0
   -0.9831    0.0377    0.1012 C   0  0  0  0  0  0  0  0  0  0  0  0
   -0.9831    1.4136    0.6778 C   0  0  0  0  0  0  0  0  0  0  0  0
   -1.9429    1.8907    1.4552 C   0  0  0  0  0  0  0  0  0  0  0  0
   -2.1116    0.7436   -1.8700 H   0  0  0  0  0  0  0  0  0  0  0  0
    0.1175   -0.5988    0.4182 H   0  0  0  0  0  0  0  0  0  0  0  0
   -1.8251   -0.5468    0.4708 H   0  0  0  0  0  0  0  0  0  0  0  0
   -0.1385    2.0407    0.4088 H   0  0  0  0  0  0  0  0  0  0  0  0
   -1.9038    2.8990    1.8467 H   0  0  0  0  0  0  0  0  0  0  0  0
   -2.8019    1.2877    1.7298 H   0  0  0  0  0  0  0  0  0  0  0  0
    2.6229   -0.2502   -0.0103 C   0  0  0  0  0  0  0  0  0  0  0  0
    1.4668   -1.3790    0.8069 S   0  0  0  0  0  1  0  0  0  0  0  0
    2.2726    0.7788    0.0371 H   0  0  0  0  0  0  0  0  0  0  0  0
    3.5613   -0.3246    0.5366 H   0  0  0  0  0  0  0  0  0  0  0  0
    2.7978   -0.5416   -1.0438 H   0  0  0  0  0  0  0  0  0  0  0  0
  1  2  1  0
  1  5  1  0
  2  3  1  0
  2  6  1  0
  2  7  1  0
  3  4  2  3
  3  8  1  0
  4  9  1  0
  4 10  1  0
 11 12  1  0
 11 13  1  0
 11 14  1  0
 11 15  1  0
M  RAD  1  12   2
M  END
>  <reaction>  (14) 
rxn_466

>  <mol_properties>  (14) 
{"0": {"label": "*0", "atom_type": "S2s"}, "1": {"label": "*1", "atom_type": "Cs"}, "5": {"label": "*2", "atom_type": "H0"}, "10": {"label": "*4", "atom_type": "Cs"}, "11": {"label": "*3", "atom_type": "S2s"}}

>  <type>  (14) 
unop_10

>  <geom_source>  (14) 
Heuristics

$$$$

     RDKit          3D

 15 13  0  0  0  0  0  0  0  0999 V2000
   -0.7581    0.2737   -2.0289 S   0  0  0  0  0  0  0  0  0  0  0  0
   -0.7581    0.2737   -0.2061 C   0  0  0  0  0  0  0  0  0  0  0  0
   -0.7581    1.6496    0.3704 C   0  0  0  0  0  0  0  0  0  0  0  0
   -1.7180    2.1267    1.1478 C   0  0  0  0  0  0  0  0  0  0  0  0
   -1.8866    0.9796   -2.1773 H   0  0  0  0  0  0  0  0  0  0  0  0
    0.3425   -0.3627    0.1109 H   0  0  0  0  0  0  0  0  0  0  0  0
   -1.6001   -0.3108    0.1634 H   0  0  0  0  0  0  0  0  0  0  0  0
    0.0865    2.2767    0.1014 H   0  0  0  0  0  0  0  0  0  0  0  0
   -1.6788    3.1351    1.5393 H   0  0  0  0  0  0  0  0  0  0  0  0
   -2.5770    1.5237    1.4224 H   0  0  0  0  0  0  0  0  0  0  0  0
    1.1053   -1.8415    2.0636 C   0  0  0  0  0  0  0  0  0  0  0  0
    1.6918   -1.1429    0.4995 S   0  0  0  0  0  1  0  0  0  0  0  0
    0.4981   -2.7291    1.8985 H   0  0  0  0  0  0  0  0  0  0  0  0
    1.9943   -2.1265    2.6238 H   0  0  0  0  0  0  0  0  0  0  0  0
    0.5494   -1.1067    2.6423 H   0  0  0  0  0  0  0  0  0  0  0  0
  1  2  1  0
  1  5  1  0
  2  3  1  0
  2  6  1  0
  2  7  1  0
  3  4  2  3
  3  8  1  0
  4  9  1  0
  4 10  1  0
 11 12  1  0
 11 13  1  0
 11 14  1  0
 11 15  1  0
M  RAD  1  12   2
M  END
>  <reaction>  (15) 
rxn_466

>  <mol_properties>  (15) 
{"0": {"label": "*0", "atom_type": "S2s"}, "1": {"label": "*1", "atom_type": "Cs"}, "5": {"label": "*2", "atom_type": "H0"}, "10": {"label": "*4", "atom_type": "Cs"}, "11": {"label": "*3", "atom_type": "S2s"}}

>  <type>  (15) 
unop_11

>  <geom_source>  (15) 
Heuristics

$$$$

     RDKit          3D

 15 13  0  0  0  0  0  0  0  0999 V2000
   -0.9068    0.2259   -1.6087 S   0  0  0  0  0  0  0  0  0  0  0  0
   -0.9068    0.2259    0.2141 C   0  0  0  0  0  0  0  0  0  0  0  0
   -0.9068    1.6018    0.7907 C   0  0  0  0  0  0  0  0  0  0  0  0
   -1.8667    2.0789    1.5681 C   0  0  0  0  0  0  0  0  0  0  0  0
   -2.0353    0.9318   -1.7571 H   0  0  0  0  0  0  0  0  0  0  0  0
    0.1938   -0.4105    0.5311 H   0  0  0  0  0  0  0  0  0  0  0  0
   -1.7488   -0.3586    0.5837 H   0  0  0  0  0  0  0  0  0  0  0  0
   -0.0622    2.2289    0.5216 H   0  0  0  0  0  0  0  0  0  0  0  0
   -1.8275    3.0873    1.9595 H   0  0  0  0  0  0  0  0  0  0  0  0
   -2.7257    1.4759    1.8426 H   0  0  0  0  0  0  0  0  0  0  0  0
    2.1084   -1.5176   -0.7691 C   0  0  0  0  0  0  0  0  0  0  0  0
    1.5431   -1.1907    0.9197 S   0  0  0  0  0  1  0  0  0  0  0  0
    2.2922   -0.5927   -1.3117 H   0  0  0  0  0  0  0  0  0  0  0  0
    3.0476   -2.0607   -0.6776 H   0  0  0  0  0  0  0  0  0  0  0  0
    1.3984   -2.1383   -1.3117 H   0  0  0  0  0  0  0  0  0  0  0  0
  1  2  1  0
  1  5  1  0
  2  3  1  0
  2  6  1  0
  2  7  1  0
  3  4  2  3
  3  8  1  0
  4  9  1  0
  4 10  1  0
 11 12  1  0
 11 13  1  0
 11 14  1  0
 11 15  1  0
M  RAD  1  12   2
M  END
>  <reaction>  (16) 
rxn_466

>  <mol_properties>  (16) 
{"0": {"label": "*0", "atom_type": "S2s"}, "1": {"label": "*1", "atom_type": "Cs"}, "5": {"label": "*2", "atom_type": "H0"}, "10": {"label": "*4", "atom_type": "Cs"}, "11": {"label": "*3", "atom_type": "S2s"}}

>  <type>  (16) 
unop_12

>  <geom_source>  (16) 
Heuristics

$$$$
