
     RDKit          3D

 12 11  0  0  0  0  0  0  0  0999 V2000
    1.9877    0.1011    0.4814 C   0  0  0  0  0  0  0  0  0  0  0  0
    0.8179    0.5502    0.0525 C   0  0  0  0  0  0  0  0  0  0  0  0
   -0.2939   -0.2692   -0.5320 C   0  0  0  0  0  0  0  0  0  0  0  0
   -0.0292   -1.7631   -0.6328 C   0  0  0  0  0  0  0  0  0  0  0  0
    2.2522   -0.9490    0.4436 H   0  0  0  0  0  0  0  0  0  0  0  0
    2.7295    0.7757    0.8896 H   0  0  0  0  0  0  0  0  0  0  0  0
    0.6162    1.6164    0.1190 H   0  0  0  0  0  0  0  0  0  0  0  0
   -0.5268    0.1319   -1.5245 H   0  0  0  0  0  0  0  0  0  0  0  0
   -1.1959   -0.0938    0.0644 H   0  0  0  0  0  0  0  0  0  0  0  0
    0.1590   -2.1992    0.3502 H   0  0  0  0  0  0  0  0  0  0  0  0
    0.8382   -1.9701   -1.2626 H   0  0  0  0  0  0  0  0  0  0  0  0
   -0.8879   -2.2759   -1.0672 H   0  0  0  0  0  0  0  0  0  0  0  0
  1  2  2  3
  1  5  1  0
  1  6  1  0
  2  3  1  0
  2  7  1  0
  3  4  1  0
  3  8  1  0
  3  9  1  0
  4 10  1  0
  4 11  1  0
  4 12  1  0
M  END
>  <reaction>  (1) 
rxn_1072

>  <mol_properties>  (1) 
{"2": {"label": "donator", "atom_type": "Cs"}, "7": {"label": "d_hydrogen", "atom_type": "H0"}}

>  <type>  (1) 
r1h

$$$$

     RDKit          3D

  7  6  0  0  0  0  0  0  0  0999 V2000
   -2.0652    0.3855   -0.2963 S   0  0  0  0  0  0  0  0  0  0  0  0
   -0.7169   -0.5853    0.1792 C   0  0  0  0  0  3  0  0  0  0  0  0
    0.5987   -0.2168    0.0254 C   0  0  0  0  0  0  0  0  0  0  0  0
    1.7547    0.1211   -0.1163 C   0  0  0  0  0  0  0  0  0  0  0  0
   -1.3643    1.4227   -0.7731 H   0  0  0  0  0  0  0  0  0  0  0  0
   -0.9781   -1.5363    0.6220 H   0  0  0  0  0  0  0  0  0  0  0  0
    2.7711    0.4089   -0.2366 H   0  0  0  0  0  0  0  0  0  0  0  0
  1  2  1  0
  1  5  1  0
  2  3  1  0
  2  6  1  0
  3  4  3  0
  4  7  1  0
M  RAD  1   2   2
M  END
>  <reaction>  (2) 
rxn_1072

>  <mol_properties>  (2) 
{"1": {"label": "acceptor", "atom_type": "Cs"}}

>  <type>  (2) 
r2

$$$$

     RDKit          3D

  8  7  0  0  0  0  0  0  0  0999 V2000
   -0.7014    1.0753    1.5530 S   0  0  0  0  0  0  0  0  0  0  0  0
   -0.3105   -0.4583    0.6462 C   0  0  0  0  0  0  0  0  0  0  0  0
    0.0935   -0.2424   -0.7319 C   0  0  0  0  0  0  0  0  0  0  0  0
    0.4431   -0.0604   -1.8621 C   0  0  0  0  0  0  0  0  0  0  0  0
    0.4994    1.6466    1.3970 H   0  0  0  0  0  0  0  0  0  0  0  0
   -1.2277   -1.0477    0.6819 H   0  0  0  0  0  0  0  0  0  0  0  0
    0.4563   -1.0151    1.1841 H   0  0  0  0  0  0  0  0  0  0  0  0
    0.7474    0.1020   -2.8681 H   0  0  0  0  0  0  0  0  0  0  0  0
  1  2  1  0
  1  5  1  0
  2  3  1  0
  2  6  1  0
  2  7  1  0
  3  4  3  0
  4  8  1  0
M  END
>  <reaction>  (3) 
rxn_1072

>  <mol_properties>  (3) 
{"1": {"label": "acceptor", "atom_type": "Cs"}, "7": {"label": "a_hydrogen", "atom_type": "H0"}}

>  <type>  (3) 
r2h

$$$$

     RDKit          3D

 19 17  0  0  0  0  0  0  0  0999 V2000
    1.8219    0.8961   -0.1306 S   0  0  0  0  0  0  0  0  0  0  0  0
    0.5294    0.7957    1.0914 C   0  0  0  0  0  3  0  0  0  0  0  0
    0.5297   -0.3238    1.9685 C   0  0  0  0  0  0  0  0  0  0  0  0
    0.4614   -1.3087    2.6541 C   0  0  0  0  0  0  0  0  0  0  0  0
    1.6321   -0.3305   -0.6380 H   0  0  0  0  0  0  0  0  0  0  0  0
    0.4138    1.7601    1.5801 H   0  0  0  0  0  0  0  0  0  0  0  0
    0.4251   -2.1680    3.2794 H   0  0  0  0  0  0  0  0  0  0  0  0
   -0.9259   -1.0046   -2.2306 C   0  0  0  0  0  0  0  0  0  0  0  0
   -1.4461   -0.7928   -1.0165 C   0  0  0  0  0  0  0  0  0  0  0  0
   -1.6962    0.5066   -0.4094 C   0  0  0  0  0  0  0  0  0  0  0  0
   -1.6785    1.7443   -1.2672 C   0  0  0  0  0  0  0  0  0  0  0  0
   -0.6871   -0.1897   -2.9033 H   0  0  0  0  0  0  0  0  0  0  0  0
   -0.7411   -2.0083   -2.5906 H   0  0  0  0  0  0  0  0  0  0  0  0
   -1.6631   -1.6537   -0.3909 H   0  0  0  0  0  0  0  0  0  0  0  0
   -0.6366    0.6636    0.3872 H   0  0  0  0  0  0  0  0  0  0  0  0
   -2.4852    0.4876    0.3412 H   0  0  0  0  0  0  0  0  0  0  0  0
   -2.4499    1.6993   -2.0416 H   0  0  0  0  0  0  0  0  0  0  0  0
   -0.7137    1.8674   -1.7640 H   0  0  0  0  0  0  0  0  0  0  0  0
   -1.8579    2.6352   -0.6647 H   0  0  0  0  0  0  0  0  0  0  0  0
  1  2  1  0
  1  5  1  0
  2  3  1  0
  2  6  1  0
  3  4  3  0
  4  7  1  0
  8  9  2  3
  8 12  1  0
  8 13  1  0
  9 10  1  0
  9 14  1  0
 10 11  1  0
 10 15  1  0
 10 16  1  0
 11 17  1  0
 11 18  1  0
 11 19  1  0
M  RAD  1   2   2
M  END
>  <reaction>  (4) 
rxn_1072

>  <mol_properties>  (4) 
{"0": {"label": "*4", "atom_type": "S2s"}, "1": {"label": "*3", "atom_type": "Cs"}, "8": {"label": "*0", "atom_type": "Cd"}, "9": {"label": "*1", "atom_type": "Cs"}, "14": {"label": "*2", "atom_type": "H0"}}

>  <type>  (4) 
ts

$$$$

     RDKit          3D

 19 17  0  0  0  0  0  0  0  0999 V2000
    1.4307    1.4370    0.6635 S   0  0  0  0  0  0  0  0  0  0  0  0
    0.4462   -0.0555    1.0244 C   0  0  0  0  0  0  0  0  0  0  0  0
    1.2094   -1.1352    1.6249 C   0  0  0  0  0  0  0  0  0  0  0  0
    1.8385   -2.0251    2.1199 C   0  0  0  0  0  0  0  0  0  0  0  0
    1.8369    1.6507    1.9213 H   0  0  0  0  0  0  0  0  0  0  0  0
   -0.3957    0.2083    1.6639 H   0  0  0  0  0  0  0  0  0  0  0  0
    2.3975   -2.8158    2.5597 H   0  0  0  0  0  0  0  0  0  0  0  0
   -1.6360   -1.0972   -2.7815 C   0  0  0  0  0  0  0  0  0  0  0  0
   -1.6360   -1.0972   -1.4572 C   0  0  0  0  0  0  0  0  0  0  0  0
   -1.6360    0.1073   -0.5637 C   0  0  0  0  0  3  0  0  0  0  0  0
   -1.6360    1.4530   -1.2714 C   0  0  0  0  0  0  0  0  0  0  0  0
   -1.6360   -0.1803   -3.3590 H   0  0  0  0  0  0  0  0  0  0  0  0
   -1.6360   -2.0245   -3.3402 H   0  0  0  0  0  0  0  0  0  0  0  0
   -1.6360   -2.0529   -0.9390 H   0  0  0  0  0  0  0  0  0  0  0  0
   -0.5927    0.0257    0.2320 H   0  0  0  0  0  0  0  0  0  0  0  0
   -2.5054    0.0393    0.0994 H   0  0  0  0  0  0  0  0  0  0  0  0
   -2.5184    1.5681   -1.9039 H   0  0  0  0  0  0  0  0  0  0  0  0
   -0.7535    1.5681   -1.9039 H   0  0  0  0  0  0  0  0  0  0  0  0
   -1.6360    2.2674   -0.5461 H   0  0  0  0  0  0  0  0  0  0  0  0
  1  2  1  0
  1  5  1  0
  2  3  1  0
  2  6  1  0
  2 15  1  0
  3  4  3  0
  4  7  1  0
  8  9  2  3
  8 12  1  0
  8 13  1  0
  9 10  1  0
  9 14  1  0
 10 11  1  0
 10 16  1  0
 11 17  1  0
 11 18  1  0
 11 19  1  0
M  RAD  1  10   2
M  END
>  <reaction>  (5) 
rxn_1072

>  <mol_properties>  (5) 
{"0": {"label": "*4", "atom_type": "S2s"}, "1": {"label": "*3", "atom_type": "Cs"}, "8": {"label": "*0", "atom_type": "Cd"}, "9": {"label": "*1", "atom_type": "Cs"}, "14": {"label": "*2", "atom_type": "H0"}}

>  <type>  (5) 
unop_1

>  <geom_source>  (5) 
Heuristics

$$$$

     RDKit          3D

 19 17  0  0  0  0  0  0  0  0999 V2000
    1.8551   -0.5504   -0.0001 S   0  0  0  0  0  0  0  0  0  0  0  0
    0.6009    0.3612    0.9608 C   0  0  0  0  0  0  0  0  0  0  0  0
    0.5352   -0.0227    2.3598 C   0  0  0  0  0  0  0  0  0  0  0  0
    0.4811   -0.3391    3.5129 C   0  0  0  0  0  0  0  0  0  0  0  0
    2.9045   -0.1839    0.7462 H   0  0  0  0  0  0  0  0  0  0  0  0
    0.7823    1.4321    0.8748 H   0  0  0  0  0  0  0  0  0  0  0  0
    0.4330   -0.6202    4.5375 H   0  0  0  0  0  0  0  0  0  0  0  0
   -1.4813   -0.6805   -2.8452 C   0  0  0  0  0  0  0  0  0  0  0  0
   -1.4813   -0.6805   -1.5208 C   0  0  0  0  0  0  0  0  0  0  0  0
   -1.4813    0.5240   -0.6274 C   0  0  0  0  0  3  0  0  0  0  0  0
   -1.4813    1.8697   -1.3351 C   0  0  0  0  0  0  0  0  0  0  0  0
   -1.4813    0.2364   -3.4226 H   0  0  0  0  0  0  0  0  0  0  0  0
   -1.4813   -1.6079   -3.4039 H   0  0  0  0  0  0  0  0  0  0  0  0
   -1.4813   -1.6363   -1.0027 H   0  0  0  0  0  0  0  0  0  0  0  0
   -0.4380    0.4424    0.1684 H   0  0  0  0  0  0  0  0  0  0  0  0
   -2.3507    0.4560    0.0357 H   0  0  0  0  0  0  0  0  0  0  0  0
   -2.3637    1.9847   -1.9675 H   0  0  0  0  0  0  0  0  0  0  0  0
   -0.5988    1.9847   -1.9675 H   0  0  0  0  0  0  0  0  0  0  0  0
   -1.4813    2.6841   -0.6098 H   0  0  0  0  0  0  0  0  0  0  0  0
  1  2  1  0
  1  5  1  0
  2  3  1  0
  2  6  1  0
  2 15  1  0
  3  4  3  0
  4  7  1  0
  8  9  2  3
  8 12  1  0
  8 13  1  0
  9 10  1  0
  9 14  1  0
 10 11  1  0
 10 16  1  0
 11 17  1  0
 11 18  1  0
 11 19  1  0
M  RAD  1  10   2
M  END
>  <reaction>  (6) 
rxn_1072

>  <mol_properties>  (6) 
{"0": {"label": "*4", "atom_type": "S2s"}, "1": {"label": "*3", "atom_type": "Cs"}, "8": {"label": "*0", "atom_type": "Cd"}, "9": {"label": "*1", "atom_type": "Cs"}, "14": {"label": "*2", "atom_type": "H0"}}

>  <type>  (6) 
unop_2

>  <geom_source>  (6) 
Heuristics

$$$$

     RDKit          3D

 19 17  0  0  0  0  0  0  0  0999 V2000
    0.9364    1.5728    1.3790 S   0  0  0  0  0  0  0  0  0  0  0  0
    0.4742   -0.1570    1.0307 C   0  0  0  0  0  0  0  0  0  0  0  0
    1.6032   -1.0683    0.9676 C   0  0  0  0  0  0  0  0  0  0  0  0
    2.5336   -1.8195    0.9156 C   0  0  0  0  0  0  0  0  0  0  0  0
    1.5437    1.3286    2.5469 H   0  0  0  0  0  0  0  0  0  0  0  0
   -0.2428   -0.5005    1.7758 H   0  0  0  0  0  0  0  0  0  0  0  0
    3.3604   -2.4869    0.8695 H   0  0  0  0  0  0  0  0  0  0  0  0
   -1.6079   -1.1987   -2.7753 C   0  0  0  0  0  0  0  0  0  0  0  0
   -1.6079   -1.1987   -1.4509 C   0  0  0  0  0  0  0  0  0  0  0  0
   -1.6079    0.0058   -0.5575 C   0  0  0  0  0  3  0  0  0  0  0  0
   -1.6079    1.3516   -1.2652 C   0  0  0  0  0  0  0  0  0  0  0  0
   -1.6079   -0.2818   -3.3527 H   0  0  0  0  0  0  0  0  0  0  0  0
   -1.6079   -2.1260   -3.3340 H   0  0  0  0  0  0  0  0  0  0  0  0
   -1.6079   -2.1544   -0.9328 H   0  0  0  0  0  0  0  0  0  0  0  0
   -0.5646   -0.0757    0.2383 H   0  0  0  0  0  0  0  0  0  0  0  0
   -2.4773   -0.0621    0.1056 H   0  0  0  0  0  0  0  0  0  0  0  0
   -2.4903    1.4666   -1.8976 H   0  0  0  0  0  0  0  0  0  0  0  0
   -0.7255    1.4666   -1.8976 H   0  0  0  0  0  0  0  0  0  0  0  0
   -1.6079    2.1659   -0.5399 H   0  0  0  0  0  0  0  0  0  0  0  0
  1  2  1  0
  1  5  1  0
  2  3  1  0
  2  6  1  0
  2 15  1  0
  3  4  3  0
  4  7  1  0
  8  9  2  3
  8 12  1  0
  8 13  1  0
  9 10  1  0
  9 14  1  0
 10 11  1  0
 10 16  1  0
 11 17  1  0
 11 18  1  0
 11 19  1  0
M  RAD  1  10   2
M  END
>  <reaction>  (7) 
rxn_1072

>  <mol_properties>  (7) 
{"0": {"label": "*4", "atom_type": "S2s"}, "1": {"label": "*3", "atom_type": "Cs"}, "8": {"label": "*0", "atom_type": "Cd"}, "9": {"label": "*1", "atom_type": "Cs"}, "14": {"label": "*2", "atom_type": "H0"}}

>  <type>  (7) 
unop_3

>  <geom_source>  (7) 
Heuristics

$$$$

     RDKit          3D

 19 17  0  0  0  0  0  0  0  0999 V2000
    0.9030   -1.4605    1.6204 S   0  0  0  0  0  0  0  0  0  0  0  0
    1.1412    0.0903    0.6902 C   0  0  0  0  0  0  0  0  0  0  0  0
    0.5311    1.2518    1.3130 C   0  0  0  0  0  0  0  0  0  0  0  0
    0.0283    2.2090    1.8263 C   0  0  0  0  0  0  0  0  0  0  0  0
    1.4852   -1.0426    2.7513 H   0  0  0  0  0  0  0  0  0  0  0  0
    2.2058    0.2641    0.5365 H   0  0  0  0  0  0  0  0  0  0  0  0
   -0.4184    3.0596    2.2823 H   0  0  0  0  0  0  0  0  0  0  0  0
   -0.9409   -0.9514   -3.1157 C   0  0  0  0  0  0  0  0  0  0  0  0
   -0.9409   -0.9514   -1.7914 C   0  0  0  0  0  0  0  0  0  0  0  0
   -0.9409    0.2531   -0.8979 C   0  0  0  0  0  3  0  0  0  0  0  0
   -0.9409    1.5988   -1.6056 C   0  0  0  0  0  0  0  0  0  0  0  0
   -0.9409   -0.0345   -3.6932 H   0  0  0  0  0  0  0  0  0  0  0  0
   -0.9409   -1.8788   -3.6744 H   0  0  0  0  0  0  0  0  0  0  0  0
   -0.9409   -1.9071   -1.2732 H   0  0  0  0  0  0  0  0  0  0  0  0
    0.1023    0.1715   -0.1022 H   0  0  0  0  0  0  0  0  0  0  0  0
   -1.8103    0.1851   -0.2348 H   0  0  0  0  0  0  0  0  0  0  0  0
   -1.8234    1.7138   -2.2381 H   0  0  0  0  0  0  0  0  0  0  0  0
   -0.0585    1.7138   -2.2381 H   0  0  0  0  0  0  0  0  0  0  0  0
   -0.9409    2.4132   -0.8803 H   0  0  0  0  0  0  0  0  0  0  0  0
  1  2  1  0
  1  5  1  0
  2  3  1  0
  2  6  1  0
  2 15  1  0
  3  4  3  0
  4  7  1  0
  8  9  2  3
  8 12  1  0
  8 13  1  0
  9 10  1  0
  9 14  1  0
 10 11  1  0
 10 16  1  0
 11 17  1  0
 11 18  1  0
 11 19  1  0
M  RAD  1  10   2
M  END
>  <reaction>  (8) 
rxn_1072

>  <mol_properties>  (8) 
{"0": {"label": "*4", "atom_type": "S2s"}, "1": {"label": "*3", "atom_type": "Cs"}, "8": {"label": "*0", "atom_type": "Cd"}, "9": {"label": "*1", "atom_type": "Cs"}, "14": {"label": "*2", "atom_type": "H0"}}

>  <type>  (8) 
unop_4

>  <geom_source>  (8) 
Heuristics

$$$$

     RDKit          3D

 19 17  0  0  0  0  0  0  0  0999 V2000
    0.4973    1.1732    2.1023 S   0  0  0  0  0  0  0  0  0  0  0  0
    0.5814   -0.3226    1.0618 C   0  0  0  0  0  0  0  0  0  0  0  0
    1.8007   -0.4302    0.2804 C   0  0  0  0  0  0  0  0  0  0  0  0
    2.8057   -0.5190   -0.3637 C   0  0  0  0  0  0  0  0  0  0  0  0
    1.6097    0.9245    2.8045 H   0  0  0  0  0  0  0  0  0  0  0  0
    0.4566   -1.2080    1.6845 H   0  0  0  0  0  0  0  0  0  0  0  0
    3.6986   -0.5978   -0.9359 H   0  0  0  0  0  0  0  0  0  0  0  0
   -1.5008   -1.3643   -2.7441 C   0  0  0  0  0  0  0  0  0  0  0  0
   -1.5008   -1.3643   -1.4198 C   0  0  0  0  0  0  0  0  0  0  0  0
   -1.5008   -0.1598   -0.5263 C   0  0  0  0  0  3  0  0  0  0  0  0
   -1.5008    1.1860   -1.2340 C   0  0  0  0  0  0  0  0  0  0  0  0
   -1.5008   -0.4474   -3.3215 H   0  0  0  0  0  0  0  0  0  0  0  0
   -1.5008   -2.2916   -3.3028 H   0  0  0  0  0  0  0  0  0  0  0  0
   -1.5008   -2.3200   -0.9016 H   0  0  0  0  0  0  0  0  0  0  0  0
   -0.4575   -0.2413    0.2695 H   0  0  0  0  0  0  0  0  0  0  0  0
   -2.3702   -0.2277    0.1368 H   0  0  0  0  0  0  0  0  0  0  0  0
   -2.3832    1.3010   -1.8664 H   0  0  0  0  0  0  0  0  0  0  0  0
   -0.6183    1.3010   -1.8664 H   0  0  0  0  0  0  0  0  0  0  0  0
   -1.5008    2.0003   -0.5087 H   0  0  0  0  0  0  0  0  0  0  0  0
  1  2  1  0
  1  5  1  0
  2  3  1  0
  2  6  1  0
  2 15  1  0
  3  4  3  0
  4  7  1  0
  8  9  2  3
  8 12  1  0
  8 13  1  0
  9 10  1  0
  9 14  1  0
 10 11  1  0
 10 16  1  0
 11 17  1  0
 11 18  1  0
 11 19  1  0
M  RAD  1  10   2
M  END
>  <reaction>  (9) 
rxn_1072

>  <mol_properties>  (9) 
{"0": {"label": "*4", "atom_type": "S2s"}, "1": {"label": "*3", "atom_type": "Cs"}, "8": {"label": "*0", "atom_type": "Cd"}, "9": {"label": "*1", "atom_type": "Cs"}, "14": {"label": "*2", "atom_type": "H0"}}

>  <type>  (9) 
unop_5

>  <geom_source>  (9) 
Heuristics

$$$$

     RDKit          3D

 19 17  0  0  0  0  0  0  0  0999 V2000
    0.5504   -1.0567    2.1930 S   0  0  0  0  0  0  0  0  0  0  0  0
    1.1471   -0.1509    0.7265 C   0  0  0  0  0  0  0  0  0  0  0  0
    0.8378    1.2679    0.7428 C   0  0  0  0  0  0  0  0  0  0  0  0
    0.5829    2.4374    0.7563 C   0  0  0  0  0  0  0  0  0  0  0  0
    1.2237   -0.3321    3.0953 H   0  0  0  0  0  0  0  0  0  0  0  0
    2.2213   -0.2984    0.6183 H   0  0  0  0  0  0  0  0  0  0  0  0
    0.3564    3.4764    0.7682 H   0  0  0  0  0  0  0  0  0  0  0  0
   -0.9350   -1.1926   -3.0794 C   0  0  0  0  0  0  0  0  0  0  0  0
   -0.9350   -1.1926   -1.7551 C   0  0  0  0  0  0  0  0  0  0  0  0
   -0.9350    0.0119   -0.8616 C   0  0  0  0  0  3  0  0  0  0  0  0
   -0.9350    1.3577   -1.5693 C   0  0  0  0  0  0  0  0  0  0  0  0
   -0.9350   -0.2757   -3.6569 H   0  0  0  0  0  0  0  0  0  0  0  0
   -0.9350   -2.1199   -3.6381 H   0  0  0  0  0  0  0  0  0  0  0  0
   -0.9350   -2.1483   -1.2369 H   0  0  0  0  0  0  0  0  0  0  0  0
    0.1083   -0.0697   -0.0659 H   0  0  0  0  0  0  0  0  0  0  0  0
   -1.8044   -0.0561   -0.1985 H   0  0  0  0  0  0  0  0  0  0  0  0
   -1.8174    1.4727   -2.2017 H   0  0  0  0  0  0  0  0  0  0  0  0
   -0.0525    1.4727   -2.2017 H   0  0  0  0  0  0  0  0  0  0  0  0
   -0.9350    2.1720   -0.8440 H   0  0  0  0  0  0  0  0  0  0  0  0
  1  2  1  0
  1  5  1  0
  2  3  1  0
  2  6  1  0
  2 15  1  0
  3  4  3  0
  4  7  1  0
  8  9  2  3
  8 12  1  0
  8 13  1  0
  9 10  1  0
  9 14  1  0
 10 11  1  0
 10 16  1  0
 11 17  1  0
 11 18  1  0
 11 19  1  0
M  RAD  1  10   2
M  END
>  <reaction>  (10) 
rxn_1072

>  <mol_properties>  (10) 
{"0": {"label": "*4", "atom_type": "S2s"}, "1": {"label": "*3", "atom_type": "Cs"}, "8": {"label": "*0", "atom_type": "Cd"}, "9": {"label": "*1", "atom_type": "Cs"}, "14": {"label": "*2", "atom_type": "H0"}}

>  <type>  (10) 
unop_6

>  <geom_source>  (10) 
Heuristics

$$$$

     RDKit          3D

 19 17  0  0  0  0  0  0  0  0999 V2000
    0.3444   -0.3778    2.5219 S   0  0  0  0  0  0  0  0  0  0  0  0
    1.0399   -0.3520    0.8359 C   0  0  0  0  0  0  0  0  0  0  0  0
    1.1890    0.9811    0.2793 C   0  0  0  0  0  0  0  0  0  0  0  0
    1.3120    2.0798   -0.1795 C   0  0  0  0  0  0  0  0  0  0  0  0
    1.2975    0.3762    3.0838 H   0  0  0  0  0  0  0  0  0  0  0  0
    1.9984   -0.8700    0.8283 H   0  0  0  0  0  0  0  0  0  0  0  0
    1.4213    3.0560   -0.5871 H   0  0  0  0  0  0  0  0  0  0  0  0
   -1.0423   -1.3937   -2.9701 C   0  0  0  0  0  0  0  0  0  0  0  0
   -1.0423   -1.3937   -1.6457 C   0  0  0  0  0  0  0  0  0  0  0  0
   -1.0423   -0.1892   -0.7523 C   0  0  0  0  0  3  0  0  0  0  0  0
   -1.0423    1.1566   -1.4600 C   0  0  0  0  0  0  0  0  0  0  0  0
   -1.0423   -0.4768   -3.5475 H   0  0  0  0  0  0  0  0  0  0  0  0
   -1.0423   -2.3210   -3.5288 H   0  0  0  0  0  0  0  0  0  0  0  0
   -1.0423   -2.3494   -1.1276 H   0  0  0  0  0  0  0  0  0  0  0  0
    0.0010   -0.2707    0.0435 H   0  0  0  0  0  0  0  0  0  0  0  0
   -1.9117   -0.2571   -0.0892 H   0  0  0  0  0  0  0  0  0  0  0  0
   -1.9247    1.2716   -2.0924 H   0  0  0  0  0  0  0  0  0  0  0  0
   -0.1598    1.2716   -2.0924 H   0  0  0  0  0  0  0  0  0  0  0  0
   -1.0423    1.9709   -0.7347 H   0  0  0  0  0  0  0  0  0  0  0  0
  1  2  1  0
  1  5  1  0
  2  3  1  0
  2  6  1  0
  2 15  1  0
  3  4  3  0
  4  7  1  0
  8  9  2  3
  8 12  1  0
  8 13  1  0
  9 10  1  0
  9 14  1  0
 10 11  1  0
 10 16  1  0
 11 17  1  0
 11 18  1  0
 11 19  1  0
M  RAD  1  10   2
M  END
>  <reaction>  (11) 
rxn_1072

>  <mol_properties>  (11) 
{"0": {"label": "*4", "atom_type": "S2s"}, "1": {"label": "*3", "atom_type": "Cs"}, "8": {"label": "*0", "atom_type": "Cd"}, "9": {"label": "*1", "atom_type": "Cs"}, "14": {"label": "*2", "atom_type": "H0"}}

>  <type>  (11) 
unop_7

>  <geom_source>  (11) 
Heuristics

$$$$

     RDKit          3D

 19 17  0  0  0  0  0  0  0  0999 V2000
    1.7799    0.9067    0.1478 S   0  0  0  0  0  0  0  0  0  0  0  0
    0.4368    0.0593    1.0449 C   0  0  0  0  0  0  0  0  0  0  0  0
    0.8996   -0.8600    2.0696 C   0  0  0  0  0  0  0  0  0  0  0  0
    1.2810   -1.6176    2.9141 C   0  0  0  0  0  0  0  0  0  0  0  0
    2.3355    1.4779    1.2237 H   0  0  0  0  0  0  0  0  0  0  0  0
   -0.2343    0.7987    1.4811 H   0  0  0  0  0  0  0  0  0  0  0  0
    1.6199   -2.2907    3.6645 H   0  0  0  0  0  0  0  0  0  0  0  0
   -1.6453   -0.9824   -2.7610 C   0  0  0  0  0  0  0  0  0  0  0  0
   -1.6453   -0.9824   -1.4367 C   0  0  0  0  0  0  0  0  0  0  0  0
   -1.6453    0.2220   -0.5432 C   0  0  0  0  0  3  0  0  0  0  0  0
   -1.6453    1.5678   -1.2509 C   0  0  0  0  0  0  0  0  0  0  0  0
   -1.6453   -0.0655   -3.3385 H   0  0  0  0  0  0  0  0  0  0  0  0
   -1.6453   -1.9098   -3.3197 H   0  0  0  0  0  0  0  0  0  0  0  0
   -1.6453   -1.9382   -0.9185 H   0  0  0  0  0  0  0  0  0  0  0  0
   -0.6021    0.1405    0.2525 H   0  0  0  0  0  0  0  0  0  0  0  0
   -2.5147    0.1541    0.1199 H   0  0  0  0  0  0  0  0  0  0  0  0
   -2.5278    1.6828   -1.8833 H   0  0  0  0  0  0  0  0  0  0  0  0
   -0.7629    1.6828   -1.8833 H   0  0  0  0  0  0  0  0  0  0  0  0
   -1.6453    2.3822   -0.5256 H   0  0  0  0  0  0  0  0  0  0  0  0
  1  2  1  0
  1  5  1  0
  2  3  1  0
  2  6  1  0
  2 15  1  0
  3  4  3  0
  4  7  1  0
  8  9  2  3
  8 12  1  0
  8 13  1  0
  9 10  1  0
  9 14  1  0
 10 11  1  0
 10 16  1  0
 11 17  1  0
 11 18  1  0
 11 19  1  0
M  RAD  1  10   2
M  END
>  <reaction>  (12) 
rxn_1072

>  <mol_properties>  (12) 
{"0": {"label": "*4", "atom_type": "S2s"}, "1": {"label": "*3", "atom_type": "Cs"}, "8": {"label": "*0", "atom_type": "Cd"}, "9": {"label": "*1", "atom_type": "Cs"}, "14": {"label": "*2", "atom_type": "H0"}}

>  <type>  (12) 
unop_8

>  <geom_source>  (12) 
Heuristics

$$$$

     RDKit          3D

 19 17  0  0  0  0  0  0  0  0999 V2000
    1.3046   -1.4855    0.9516 S   0  0  0  0  0  0  0  0  0  0  0  0
    1.0203    0.3026    0.7307 C   0  0  0  0  0  0  0  0  0  0  0  0
    0.3580    0.9385    1.8558 C   0  0  0  0  0  0  0  0  0  0  0  0
   -0.1879    1.4626    2.7832 C   0  0  0  0  0  0  0  0  0  0  0  0
    2.0393   -1.3792    2.0658 H   0  0  0  0  0  0  0  0  0  0  0  0
    1.9675    0.8001    0.5242 H   0  0  0  0  0  0  0  0  0  0  0  0
   -0.6730    1.9283    3.6072 H   0  0  0  0  0  0  0  0  0  0  0  0
   -1.0618   -0.7391   -3.0753 C   0  0  0  0  0  0  0  0  0  0  0  0
   -1.0618   -0.7391   -1.7509 C   0  0  0  0  0  0  0  0  0  0  0  0
   -1.0618    0.4654   -0.8575 C   0  0  0  0  0  3  0  0  0  0  0  0
   -1.0618    1.8112   -1.5652 C   0  0  0  0  0  0  0  0  0  0  0  0
   -1.0618    0.1778   -3.6527 H   0  0  0  0  0  0  0  0  0  0  0  0
   -1.0618   -1.6664   -3.6340 H   0  0  0  0  0  0  0  0  0  0  0  0
   -1.0618   -1.6948   -1.2328 H   0  0  0  0  0  0  0  0  0  0  0  0
   -0.0185    0.3839   -0.0617 H   0  0  0  0  0  0  0  0  0  0  0  0
   -1.9312    0.3975   -0.1944 H   0  0  0  0  0  0  0  0  0  0  0  0
   -1.9443    1.9262   -2.1976 H   0  0  0  0  0  0  0  0  0  0  0  0
   -0.1794    1.9262   -2.1976 H   0  0  0  0  0  0  0  0  0  0  0  0
   -1.0618    2.6255   -0.8399 H   0  0  0  0  0  0  0  0  0  0  0  0
  1  2  1  0
  1  5  1  0
  2  3  1  0
  2  6  1  0
  2 15  1  0
  3  4  3  0
  4  7  1  0
  8  9  2  3
  8 12  1  0
  8 13  1  0
  9 10  1  0
  9 14  1  0
 10 11  1  0
 10 16  1  0
 11 17  1  0
 11 18  1  0
 11 19  1  0
M  RAD  1  10   2
M  END
>  <reaction>  (13) 
rxn_1072

>  <mol_properties>  (13) 
{"0": {"label": "*4", "atom_type": "S2s"}, "1": {"label": "*3", "atom_type": "Cs"}, "8": {"label": "*0", "atom_type": "Cd"}, "9": {"label": "*1", "atom_type": "Cs"}, "14": {"label": "*2", "atom_type": "H0"}}

>  <type>  (13) 
unop_9

>  <geom_source>  (13) 
Heuristics

$$$$

     RDKit          3D

 19 17  0  0  0  0  0  0  0  0999 V2000
    1.9172    0.1812   -0.0809 S   0  0  0  0  0  0  0  0  0  0  0  0
    0.4754    0.2137    1.0358 C   0  0  0  0  0  0  0  0  0  0  0  0
    0.6963   -0.4572    2.3047 C   0  0  0  0  0  0  0  0  0  0  0  0
    0.8784   -1.0102    3.3505 C   0  0  0  0  0  0  0  0  0  0  0  0
    2.7625    0.7969    0.7552 H   0  0  0  0  0  0  0  0  0  0  0  0
    0.1689    1.2453    1.2065 H   0  0  0  0  0  0  0  0  0  0  0  0
    1.0402   -1.5015    4.2798 H   0  0  0  0  0  0  0  0  0  0  0  0
   -1.6067   -0.8280   -2.7701 C   0  0  0  0  0  0  0  0  0  0  0  0
   -1.6067   -0.8280   -1.4458 C   0  0  0  0  0  0  0  0  0  0  0  0
   -1.6067    0.3765   -0.5523 C   0  0  0  0  0  3  0  0  0  0  0  0
   -1.6067    1.7223   -1.2600 C   0  0  0  0  0  0  0  0  0  0  0  0
   -1.6067    0.0889   -3.3475 H   0  0  0  0  0  0  0  0  0  0  0  0
   -1.6067   -1.7553   -3.3288 H   0  0  0  0  0  0  0  0  0  0  0  0
   -1.6067   -1.7837   -0.9276 H   0  0  0  0  0  0  0  0  0  0  0  0
   -0.5635    0.2949    0.2435 H   0  0  0  0  0  0  0  0  0  0  0  0
   -2.4761    0.3085    0.1108 H   0  0  0  0  0  0  0  0  0  0  0  0
   -2.4892    1.8373   -1.8924 H   0  0  0  0  0  0  0  0  0  0  0  0
   -0.7243    1.8373   -1.8924 H   0  0  0  0  0  0  0  0  0  0  0  0
   -1.6067    2.5366   -0.5347 H   0  0  0  0  0  0  0  0  0  0  0  0
  1  2  1  0
  1  5  1  0
  2  3  1  0
  2  6  1  0
  2 15  1  0
  3  4  3  0
  4  7  1  0
  8  9  2  3
  8 12  1  0
  8 13  1  0
  9 10  1  0
  9 14  1  0
 10 11  1  0
 10 16  1  0
 11 17  1  0
 11 18  1  0
 11 19  1  0
M  RAD  1  10   2
M  END
>  <reaction>  (14) 
rxn_1072

>  <mol_properties>  (14) 
{"0": {"label": "*4", "atom_type": "S2s"}, "1": {"label": "*3", "atom_type": "Cs"}, "8": {"label": "*0", "atom_type": "Cd"}, "9": {"label": "*1", "atom_type": "Cs"}, "14": {"label": "*2", "atom_type": "H0"}}

>  <type>  (14) 
unop_10

>  <geom_source>  (14) 
Heuristics

$$$$

     RDKit          3D

 19 17  0  0  0  0  0  0  0  0999 V2000
    0.3183    0.4196    2.5138 S   0  0  0  0  0  0  0  0  0  0  0  0
    0.8261   -0.4335    0.9836 C   0  0  0  0  0  0  0  0  0  0  0  0
    1.5526    0.4098    0.0509 C   0  0  0  0  0  0  0  0  0  0  0  0
    2.1514    1.1049   -0.7179 C   0  0  0  0  0  0  0  0  0  0  0  0
    1.5509    0.7733    2.8988 H   0  0  0  0  0  0  0  0  0  0  0  0
    1.4204   -1.3116    1.2351 H   0  0  0  0  0  0  0  0  0  0  0  0
    2.6834    1.7224   -1.4010 H   0  0  0  0  0  0  0  0  0  0  0  0
   -1.2560   -1.4752   -2.8223 C   0  0  0  0  0  0  0  0  0  0  0  0
   -1.2560   -1.4752   -1.4980 C   0  0  0  0  0  0  0  0  0  0  0  0
   -1.2560   -0.2707   -0.6045 C   0  0  0  0  0  3  0  0  0  0  0  0
   -1.2560    1.0750   -1.3122 C   0  0  0  0  0  0  0  0  0  0  0  0
   -1.2560   -0.5583   -3.3997 H   0  0  0  0  0  0  0  0  0  0  0  0
   -1.2560   -2.4026   -3.3810 H   0  0  0  0  0  0  0  0  0  0  0  0
   -1.2560   -2.4310   -0.9798 H   0  0  0  0  0  0  0  0  0  0  0  0
   -0.2127   -0.3523    0.1913 H   0  0  0  0  0  0  0  0  0  0  0  0
   -2.1254   -0.3387    0.0586 H   0  0  0  0  0  0  0  0  0  0  0  0
   -2.1384    1.1900   -1.9446 H   0  0  0  0  0  0  0  0  0  0  0  0
   -0.3735    1.1900   -1.9446 H   0  0  0  0  0  0  0  0  0  0  0  0
   -1.2560    1.8894   -0.5869 H   0  0  0  0  0  0  0  0  0  0  0  0
  1  2  1  0
  1  5  1  0
  2  3  1  0
  2  6  1  0
  2 15  1  0
  3  4  3  0
  4  7  1  0
  8  9  2  3
  8 12  1  0
  8 13  1  0
  9 10  1  0
  9 14  1  0
 10 11  1  0
 10 16  1  0
 11 17  1  0
 11 18  1  0
 11 19  1  0
M  RAD  1  10   2
M  END
>  <reaction>  (15) 
rxn_1072

>  <mol_properties>  (15) 
{"0": {"label": "*4", "atom_type": "S2s"}, "1": {"label": "*3", "atom_type": "Cs"}, "8": {"label": "*0", "atom_type": "Cd"}, "9": {"label": "*1", "atom_type": "Cs"}, "14": {"label": "*2", "atom_type": "H0"}}

>  <type>  (15) 
unop_11

>  <geom_source>  (15) 
Heuristics

$$$$

     RDKit          3D

 19 17  0  0  0  0  0  0  0  0999 V2000
    1.6408   -1.1453    0.3654 S   0  0  0  0  0  0  0  0  0  0  0  0
    0.8103    0.4088    0.8366 C   0  0  0  0  0  0  0  0  0  0  0  0
    0.3867    0.4542    2.2249 C   0  0  0  0  0  0  0  0  0  0  0  0
    0.0375    0.4917    3.3692 C   0  0  0  0  0  0  0  0  0  0  0  0
    2.6287   -1.0608    1.2652 H   0  0  0  0  0  0  0  0  0  0  0  0
    1.4634    1.2529    0.6169 H   0  0  0  0  0  0  0  0  0  0  0  0
   -0.2728    0.5250    4.3859 H   0  0  0  0  0  0  0  0  0  0  0  0
   -1.2718   -0.6329   -2.9693 C   0  0  0  0  0  0  0  0  0  0  0  0
   -1.2718   -0.6329   -1.6450 C   0  0  0  0  0  0  0  0  0  0  0  0
   -1.2718    0.5716   -0.7516 C   0  0  0  0  0  3  0  0  0  0  0  0
   -1.2718    1.9173   -1.4593 C   0  0  0  0  0  0  0  0  0  0  0  0
   -1.2718    0.2840   -3.5468 H   0  0  0  0  0  0  0  0  0  0  0  0
   -1.2718   -1.5603   -3.5280 H   0  0  0  0  0  0  0  0  0  0  0  0
   -1.2718   -1.5886   -1.1268 H   0  0  0  0  0  0  0  0  0  0  0  0
   -0.2285    0.4900    0.0442 H   0  0  0  0  0  0  0  0  0  0  0  0
   -2.1412    0.5036   -0.0884 H   0  0  0  0  0  0  0  0  0  0  0  0
   -2.1542    2.0323   -2.0917 H   0  0  0  0  0  0  0  0  0  0  0  0
   -0.3893    2.0323   -2.0917 H   0  0  0  0  0  0  0  0  0  0  0  0
   -1.2718    2.7317   -0.7340 H   0  0  0  0  0  0  0  0  0  0  0  0
  1  2  1  0
  1  5  1  0
  2  3  1  0
  2  6  1  0
  2 15  1  0
  3  4  3  0
  4  7  1  0
  8  9  2  3
  8 12  1  0
  8 13  1  0
  9 10  1  0
  9 14  1  0
 10 11  1  0
 10 16  1  0
 11 17  1  0
 11 18  1  0
 11 19  1  0
M  RAD  1  10   2
M  END
>  <reaction>  (16) 
rxn_1072

>  <mol_properties>  (16) 
{"0": {"label": "*4", "atom_type": "S2s"}, "1": {"label": "*3", "atom_type": "Cs"}, "8": {"label": "*0", "atom_type": "Cd"}, "9": {"label": "*1", "atom_type": "Cs"}, "14": {"label": "*2", "atom_type": "H0"}}

>  <type>  (16) 
unop_12

>  <geom_source>  (16) 
Heuristics

$$$$

     RDKit          3D

 19 17  0  0  0  0  0  0  0  0999 V2000
    2.0765   -1.9403    1.2959 S   0  0  0  0  0  0  0  0  0  0  0  0
   -2.0446   -1.1804   -0.2997 C   0  0  0  0  0  0  0  0  0  0  0  0
    1.5202   -1.0636   -0.1943 C   0  0  0  0  0  0  0  0  0  0  0  0
   -0.9405   -0.1528   -0.5029 C   0  0  0  0  0  3  0  0  0  0  0  0
   -1.4050    1.2163   -0.1148 C   0  0  0  0  0  0  0  0  0  0  0  0
   -0.8444    1.8576    0.9108 C   0  0  0  0  0  0  0  0  0  0  0  0
    2.3659    0.1092   -0.4248 C   0  0  0  0  0  0  0  0  0  0  0  0
    3.0613    1.0754   -0.6152 C   0  0  0  0  0  0  0  0  0  0  0  0
    1.5912   -1.7440   -1.0677 H   0  0  0  0  0  0  0  0  0  0  0  0
    0.2561   -0.6773   -0.0394 H   0  0  0  0  0  0  0  0  0  0  0  0
   -1.6653   -2.1858   -0.5769 H   0  0  0  0  0  0  0  0  0  0  0  0
   -2.3561   -1.1997    0.7663 H   0  0  0  0  0  0  0  0  0  0  0  0
   -2.9213   -0.9382   -0.9379 H   0  0  0  0  0  0  0  0  0  0  0  0
   -0.6135   -0.1490   -1.5644 H   0  0  0  0  0  0  0  0  0  0  0  0
   -2.2114    1.6873   -0.6695 H   0  0  0  0  0  0  0  0  0  0  0  0
   -1.1911    2.8481    1.1868 H   0  0  0  0  0  0  0  0  0  0  0  0
   -0.0400    1.4023    1.4809 H   0  0  0  0  0  0  0  0  0  0  0  0
    1.6903   -0.8885    2.1491 H   0  0  0  0  0  0  0  0  0  0  0  0
    3.6718    1.9235   -0.7822 H   0  0  0  0  0  0  0  0  0  0  0  0
  1  3  1  0
  1 18  1  0
  2  4  1  0
  2 11  1  0
  2 12  1  0
  2 13  1  0
  3  7  1  0
  3  9  1  0
  3 10  1  0
  4  5  1  0
  4 14  1  0
  5  6  2  3
  5 15  1  0
  6 16  1  0
  6 17  1  0
  7  8  3  0
  8 19  1  0
M  RAD  1   4   2
M  END
>  <reaction>  (17) 
rxn_1072

>  <mol_properties>  (17) 
{"0": {"label": "*4", "atom_type": "S2s"}, "1": {"label": "*3", "atom_type": "Cs"}, "8": {"label": "*0", "atom_type": "Cd"}, "9": {"label": "*1", "atom_type": "Cs"}, "14": {"label": "*2", "atom_type": "H0"}}

>  <type>  (17) 
unop_13

>  <geom_source>  (17) 
AutoTST

$$$$
