
     RDKit          3D

  9  8  0  0  0  0  0  0  0  0999 V2000
    1.1303   -0.2933   -0.7510 C   0  0  0  0  0  0  0  0  0  0  0  0
    0.2866    0.4560   -0.0588 C   0  0  0  0  0  0  0  0  0  0  0  0
   -0.9719   -0.0331    0.5823 C   0  0  0  0  0  0  0  0  0  0  0  0
    2.0274    0.1230   -1.1916 H   0  0  0  0  0  0  0  0  0  0  0  0
    0.9532   -1.3530   -0.9023 H   0  0  0  0  0  0  0  0  0  0  0  0
    0.5065    1.5132    0.0659 H   0  0  0  0  0  0  0  0  0  0  0  0
   -0.9526    0.1426    1.6610 H   0  0  0  0  0  0  0  0  0  0  0  0
   -1.1182   -1.1002    0.4106 H   0  0  0  0  0  0  0  0  0  0  0  0
   -1.8412    0.5010    0.1901 H   0  0  0  0  0  0  0  0  0  0  0  0
  1  2  2  3
  1  4  1  0
  1  5  1  0
  2  3  1  0
  2  6  1  0
  3  7  1  0
  3  8  1  0
  3  9  1  0
M  END
>  <reaction>  (1) 
rxn_1616

>  <mol_properties>  (1) 
{"1": {"label": "donator", "atom_type": "Cd"}, "5": {"label": "d_hydrogen", "atom_type": "H0"}}

>  <type>  (1) 
r1h

$$$$

     RDKit          3D

  8  7  0  0  0  0  0  0  0  0999 V2000
   -2.2129    0.4855    0.7390 C   0  0  0  0  0  0  0  0  0  0  0  0
   -1.2226    0.0526    0.1974 C   0  0  0  0  0  0  0  0  0  0  0  0
   -0.1006   -0.4575   -0.4419 C   0  0  0  0  0  3  0  0  0  0  0  0
    1.1960   -0.1737   -0.0342 C   0  0  0  0  0  0  0  0  0  0  0  0
    2.3329    0.0603    0.3036 C   0  0  0  0  0  0  0  0  0  0  0  0
   -3.0803    0.8696    1.2198 H   0  0  0  0  0  0  0  0  0  0  0  0
   -0.2433   -1.1067   -1.2980 H   0  0  0  0  0  0  0  0  0  0  0  0
    3.3308    0.2700    0.6058 H   0  0  0  0  0  0  0  0  0  0  0  0
  1  2  3  0
  1  6  1  0
  2  3  1  0
  3  4  1  0
  3  7  1  0
  4  5  3  0
  5  8  1  0
M  RAD  1   3   2
M  END
>  <reaction>  (2) 
rxn_1616

>  <mol_properties>  (2) 
{"2": {"label": "acceptor", "atom_type": "Cs"}}

>  <type>  (2) 
r2

$$$$

     RDKit          3D

  9  8  0  0  0  0  0  0  0  0999 V2000
   -2.1022   -0.6873    0.3932 C   0  0  0  0  0  0  0  0  0  0  0  0
   -1.2072   -0.1086   -0.1482 C   0  0  0  0  0  0  0  0  0  0  0  0
   -0.1242    0.6105   -0.8193 C   0  0  0  0  0  0  0  0  0  0  0  0
    1.2067    0.1106   -0.4741 C   0  0  0  0  0  0  0  0  0  0  0  0
    2.3005   -0.2875   -0.2012 C   0  0  0  0  0  0  0  0  0  0  0  0
   -2.8942   -1.2059    0.8778 H   0  0  0  0  0  0  0  0  0  0  0  0
   -0.1862    1.6723   -0.5649 H   0  0  0  0  0  0  0  0  0  0  0  0
   -0.2641    0.5418   -1.9017 H   0  0  0  0  0  0  0  0  0  0  0  0
    3.2709   -0.6459    0.0455 H   0  0  0  0  0  0  0  0  0  0  0  0
  1  2  3  0
  1  6  1  0
  2  3  1  0
  3  4  1  0
  3  7  1  0
  3  8  1  0
  4  5  3  0
  5  9  1  0
M  END
>  <reaction>  (3) 
rxn_1616

>  <mol_properties>  (3) 
{"2": {"label": "acceptor", "atom_type": "Cs"}, "8": {"label": "a_hydrogen", "atom_type": "H0"}}

>  <type>  (3) 
r2h

$$$$

     RDKit          3D

 17 15  0  0  0  0  0  0  0  0999 V2000
   -1.6952   -0.9214    2.1014 C   0  0  0  0  0  0  0  0  0  0  0  0
   -0.9024   -1.0198    1.2082 C   0  0  0  0  0  0  0  0  0  0  0  0
    0.0231   -1.0839    0.1026 C   0  0  0  0  0  0  0  0  0  0  0  0
    1.4229   -1.0828    0.4538 C   0  0  0  0  0  0  0  0  0  0  0  0
    2.5926   -1.0376    0.7103 C   0  0  0  0  0  0  0  0  0  0  0  0
   -2.3919   -0.8513    2.9016 H   0  0  0  0  0  0  0  0  0  0  0  0
   -0.2251   -1.8847   -0.5954 H   0  0  0  0  0  0  0  0  0  0  0  0
    3.6287   -1.0144    0.9483 H   0  0  0  0  0  0  0  0  0  0  0  0
   -0.7656    1.1399   -2.5142 C   0  0  0  0  0  0  0  0  0  0  0  0
   -0.3604    1.2301   -1.2726 C   0  0  0  0  0  3  0  0  0  0  0  0
   -0.0305    2.3290   -0.3473 C   0  0  0  0  0  0  0  0  0  0  0  0
   -0.9467    0.1838   -2.9926 H   0  0  0  0  0  0  0  0  0  0  0  0
   -0.9373    2.0305   -3.1178 H   0  0  0  0  0  0  0  0  0  0  0  0
   -0.1681   -0.0566   -0.5725 H   0  0  0  0  0  0  0  0  0  0  0  0
   -0.6702    2.2910    0.5370 H   0  0  0  0  0  0  0  0  0  0  0  0
   -0.1618    3.3011   -0.8332 H   0  0  0  0  0  0  0  0  0  0  0  0
    1.0036    2.2457   -0.0060 H   0  0  0  0  0  0  0  0  0  0  0  0
  1  2  3  0
  1  6  1  0
  2  3  1  0
  3  4  1  0
  3  7  1  0
  3 14  1  0
  4  5  3  0
  5  8  1  0
  9 10  2  3
  9 12  1  0
  9 13  1  0
 10 11  1  0
 11 15  1  0
 11 16  1  0
 11 17  1  0
M  RAD  1  10   2
M  END
>  <reaction>  (4) 
rxn_1616

>  <mol_properties>  (4) 
{"1": {"label": "*0", "atom_type": "Ct"}, "2": {"label": "*1", "atom_type": "Cs"}, "8": {"label": "*4", "atom_type": "Cd"}, "9": {"label": "*3", "atom_type": "Cd"}, "13": {"label": "*2", "atom_type": "H0"}}

>  <type>  (4) 
ts

$$$$

     RDKit          3D

 17 15  0  0  0  0  0  0  0  0999 V2000
    1.9804   -0.7772    1.8769 C   0  0  0  0  0  0  0  0  0  0  0  0
    1.0025   -0.7050    1.1930 C   0  0  0  0  0  0  0  0  0  0  0  0
   -0.1942   -0.6166    0.3561 C   0  0  0  0  0  3  0  0  0  0  0  0
   -0.8097   -1.9155    0.0831 C   0  0  0  0  0  0  0  0  0  0  0  0
   -1.3126   -2.9768   -0.1399 C   0  0  0  0  0  0  0  0  0  0  0  0
    2.8503   -0.8414    2.4853 H   0  0  0  0  0  0  0  0  0  0  0  0
   -0.9266    0.0325    0.8440 H   0  0  0  0  0  0  0  0  0  0  0  0
   -1.7600   -3.9210   -0.3384 H   0  0  0  0  0  0  0  0  0  0  0  0
   -0.1942    1.6766   -2.2279 C   0  0  0  0  0  0  0  0  0  0  0  0
   -0.1942    1.6766   -0.9042 C   0  0  0  0  0  0  0  0  0  0  0  0
   -0.1942    2.8988   -0.0437 C   0  0  0  0  0  0  0  0  0  0  0  0
   -0.1942    0.7539   -2.7944 H   0  0  0  0  0  0  0  0  0  0  0  0
   -0.1942    2.6022   -2.7939 H   0  0  0  0  0  0  0  0  0  0  0  0
   -0.1942    0.5334   -0.2760 H   0  0  0  0  0  0  0  0  0  0  0  0
   -1.0719    2.9159    0.6076 H   0  0  0  0  0  0  0  0  0  0  0  0
   -0.1942    3.8092   -0.6443 H   0  0  0  0  0  0  0  0  0  0  0  0
    0.6836    2.9159    0.6076 H   0  0  0  0  0  0  0  0  0  0  0  0
  1  2  3  0
  1  6  1  0
  2  3  1  0
  3  4  1  0
  3  7  1  0
  4  5  3  0
  5  8  1  0
  9 10  2  3
  9 12  1  0
  9 13  1  0
 10 11  1  0
 10 14  1  0
 11 15  1  0
 11 16  1  0
 11 17  1  0
M  RAD  1   3   2
M  END
>  <reaction>  (5) 
rxn_1616

>  <mol_properties>  (5) 
{"1": {"label": "*0", "atom_type": "Ct"}, "2": {"label": "*1", "atom_type": "Cs"}, "8": {"label": "*4", "atom_type": "Cd"}, "9": {"label": "*3", "atom_type": "Cd"}, "13": {"label": "*2", "atom_type": "H0"}}

>  <type>  (5) 
unop_1

>  <geom_source>  (5) 
Heuristics

$$$$

     RDKit          3D

 17 15  0  0  0  0  0  0  0  0999 V2000
    1.4213   -2.3807   -0.8866 C   0  0  0  0  0  0  0  0  0  0  0  0
    0.8567   -1.5656   -0.2187 C   0  0  0  0  0  0  0  0  0  0  0  0
    0.1658   -0.5681    0.5987 C   0  0  0  0  0  3  0  0  0  0  0  0
   -1.0232   -1.0909    1.2719 C   0  0  0  0  0  0  0  0  0  0  0  0
   -1.9949   -1.5182    1.8220 C   0  0  0  0  0  0  0  0  0  0  0  0
    1.9235   -3.1058   -1.4807 H   0  0  0  0  0  0  0  0  0  0  0  0
    0.8589   -0.1749    1.3476 H   0  0  0  0  0  0  0  0  0  0  0  0
   -2.8592   -1.8982    2.3114 H   0  0  0  0  0  0  0  0  0  0  0  0
    0.1658    1.7251   -1.9853 C   0  0  0  0  0  0  0  0  0  0  0  0
    0.1658    1.7251   -0.6616 C   0  0  0  0  0  0  0  0  0  0  0  0
    0.1658    2.9473    0.1989 C   0  0  0  0  0  0  0  0  0  0  0  0
    0.1658    0.8024   -2.5518 H   0  0  0  0  0  0  0  0  0  0  0  0
    0.1658    2.6507   -2.5513 H   0  0  0  0  0  0  0  0  0  0  0  0
    0.1658    0.5820   -0.0334 H   0  0  0  0  0  0  0  0  0  0  0  0
   -0.7119    2.9644    0.8501 H   0  0  0  0  0  0  0  0  0  0  0  0
    0.1658    3.8578   -0.4017 H   0  0  0  0  0  0  0  0  0  0  0  0
    1.0435    2.9644    0.8501 H   0  0  0  0  0  0  0  0  0  0  0  0
  1  2  3  0
  1  6  1  0
  2  3  1  0
  3  4  1  0
  3  7  1  0
  4  5  3  0
  5  8  1  0
  9 10  2  3
  9 12  1  0
  9 13  1  0
 10 11  1  0
 10 14  1  0
 11 15  1  0
 11 16  1  0
 11 17  1  0
M  RAD  1   3   2
M  END
>  <reaction>  (6) 
rxn_1616

>  <mol_properties>  (6) 
{"1": {"label": "*0", "atom_type": "Ct"}, "2": {"label": "*1", "atom_type": "Cs"}, "8": {"label": "*4", "atom_type": "Cd"}, "9": {"label": "*3", "atom_type": "Cd"}, "13": {"label": "*2", "atom_type": "H0"}}

>  <type>  (6) 
unop_2

>  <geom_source>  (6) 
Heuristics

$$$$

     RDKit          3D

 17 15  0  0  0  0  0  0  0  0999 V2000
    0.9837   -0.3998    2.6345 C   0  0  0  0  0  0  0  0  0  0  0  0
    0.4191   -0.5267    1.5884 C   0  0  0  0  0  0  0  0  0  0  0  0
   -0.2718   -0.6819    0.3082 C   0  0  0  0  0  3  0  0  0  0  0  0
   -0.1481   -2.0244   -0.2599 C   0  0  0  0  0  0  0  0  0  0  0  0
   -0.0470   -3.1214   -0.7242 C   0  0  0  0  0  0  0  0  0  0  0  0
    1.4859   -0.2870    3.5651 H   0  0  0  0  0  0  0  0  0  0  0  0
   -1.3310   -0.4440    0.4405 H   0  0  0  0  0  0  0  0  0  0  0  0
    0.0429   -4.0973   -1.1371 H   0  0  0  0  0  0  0  0  0  0  0  0
   -0.2718    1.6113   -2.2758 C   0  0  0  0  0  0  0  0  0  0  0  0
   -0.2718    1.6113   -0.9520 C   0  0  0  0  0  0  0  0  0  0  0  0
   -0.2718    2.8335   -0.0915 C   0  0  0  0  0  0  0  0  0  0  0  0
   -0.2718    0.6886   -2.8423 H   0  0  0  0  0  0  0  0  0  0  0  0
   -0.2718    2.5369   -2.8418 H   0  0  0  0  0  0  0  0  0  0  0  0
   -0.2718    0.4682   -0.3238 H   0  0  0  0  0  0  0  0  0  0  0  0
   -1.1495    2.8506    0.5597 H   0  0  0  0  0  0  0  0  0  0  0  0
   -0.2718    3.7440   -0.6921 H   0  0  0  0  0  0  0  0  0  0  0  0
    0.6059    2.8506    0.5597 H   0  0  0  0  0  0  0  0  0  0  0  0
  1  2  3  0
  1  6  1  0
  2  3  1  0
  3  4  1  0
  3  7  1  0
  4  5  3  0
  5  8  1  0
  9 10  2  3
  9 12  1  0
  9 13  1  0
 10 11  1  0
 10 14  1  0
 11 15  1  0
 11 16  1  0
 11 17  1  0
M  RAD  1   3   2
M  END
>  <reaction>  (7) 
rxn_1616

>  <mol_properties>  (7) 
{"1": {"label": "*0", "atom_type": "Ct"}, "2": {"label": "*1", "atom_type": "Cs"}, "8": {"label": "*4", "atom_type": "Cd"}, "9": {"label": "*3", "atom_type": "Cd"}, "13": {"label": "*2", "atom_type": "H0"}}

>  <type>  (7) 
unop_3

>  <geom_source>  (7) 
Heuristics

$$$$

     RDKit          3D

 17 15  0  0  0  0  0  0  0  0999 V2000
   -1.7011   -2.4885   -0.4018 C   0  0  0  0  0  0  0  0  0  0  0  0
   -0.7232   -1.8725   -0.0961 C   0  0  0  0  0  0  0  0  0  0  0  0
    0.4735   -1.1186    0.2780 C   0  0  0  0  0  3  0  0  0  0  0  0
    0.2796   -0.2644    1.4497 C   0  0  0  0  0  0  0  0  0  0  0  0
    0.1211    0.4337    2.4072 C   0  0  0  0  0  0  0  0  0  0  0  0
   -2.5710   -3.0366   -0.6737 H   0  0  0  0  0  0  0  0  0  0  0  0
    1.2915   -1.8174    0.4743 H   0  0  0  0  0  0  0  0  0  0  0  0
   -0.0199    1.0547    3.2590 H   0  0  0  0  0  0  0  0  0  0  0  0
    0.4735    1.1746   -2.3060 C   0  0  0  0  0  0  0  0  0  0  0  0
    0.4735    1.1746   -0.9823 C   0  0  0  0  0  0  0  0  0  0  0  0
    0.4735    2.3968   -0.1218 C   0  0  0  0  0  0  0  0  0  0  0  0
    0.4735    0.2519   -2.8725 H   0  0  0  0  0  0  0  0  0  0  0  0
    0.4735    2.1002   -2.8720 H   0  0  0  0  0  0  0  0  0  0  0  0
    0.4735    0.0314   -0.3540 H   0  0  0  0  0  0  0  0  0  0  0  0
   -0.4042    2.4139    0.5295 H   0  0  0  0  0  0  0  0  0  0  0  0
    0.4735    3.3072   -0.7224 H   0  0  0  0  0  0  0  0  0  0  0  0
    1.3512    2.4139    0.5295 H   0  0  0  0  0  0  0  0  0  0  0  0
  1  2  3  0
  1  6  1  0
  2  3  1  0
  3  4  1  0
  3  7  1  0
  4  5  3  0
  5  8  1  0
  9 10  2  3
  9 12  1  0
  9 13  1  0
 10 11  1  0
 10 14  1  0
 11 15  1  0
 11 16  1  0
 11 17  1  0
M  RAD  1   3   2
M  END
>  <reaction>  (8) 
rxn_1616

>  <mol_properties>  (8) 
{"1": {"label": "*0", "atom_type": "Ct"}, "2": {"label": "*1", "atom_type": "Cs"}, "8": {"label": "*4", "atom_type": "Cd"}, "9": {"label": "*3", "atom_type": "Cd"}, "13": {"label": "*2", "atom_type": "H0"}}

>  <type>  (8) 
unop_4

>  <geom_source>  (8) 
Heuristics

$$$$

     RDKit          3D

 17 15  0  0  0  0  0  0  0  0999 V2000
   -0.3854   -0.4500    2.8377 C   0  0  0  0  0  0  0  0  0  0  0  0
   -0.3854   -0.6497    1.6590 C   0  0  0  0  0  0  0  0  0  0  0  0
   -0.3854   -0.8941    0.2166 C   0  0  0  0  0  3  0  0  0  0  0  0
    0.7536   -1.6920   -0.2377 C   0  0  0  0  0  0  0  0  0  0  0  0
    1.6844   -2.3441   -0.6089 C   0  0  0  0  0  0  0  0  0  0  0  0
   -0.3854   -0.2724    3.8863 H   0  0  0  0  0  0  0  0  0  0  0  0
   -1.3132   -1.4015   -0.0618 H   0  0  0  0  0  0  0  0  0  0  0  0
    2.5123   -2.9241   -0.9391 H   0  0  0  0  0  0  0  0  0  0  0  0
   -0.3854    1.3991   -2.3674 C   0  0  0  0  0  0  0  0  0  0  0  0
   -0.3854    1.3991   -1.0437 C   0  0  0  0  0  0  0  0  0  0  0  0
   -0.3854    2.6213   -0.1832 C   0  0  0  0  0  0  0  0  0  0  0  0
   -0.3854    0.4764   -2.9339 H   0  0  0  0  0  0  0  0  0  0  0  0
   -0.3854    2.3247   -2.9334 H   0  0  0  0  0  0  0  0  0  0  0  0
   -0.3854    0.2560   -0.4154 H   0  0  0  0  0  0  0  0  0  0  0  0
   -1.2631    2.6384    0.4681 H   0  0  0  0  0  0  0  0  0  0  0  0
   -0.3854    3.5318   -0.7838 H   0  0  0  0  0  0  0  0  0  0  0  0
    0.4923    2.6384    0.4681 H   0  0  0  0  0  0  0  0  0  0  0  0
  1  2  3  0
  1  6  1  0
  2  3  1  0
  3  4  1  0
  3  7  1  0
  4  5  3  0
  5  8  1  0
  9 10  2  3
  9 12  1  0
  9 13  1  0
 10 11  1  0
 10 14  1  0
 11 15  1  0
 11 16  1  0
 11 17  1  0
M  RAD  1   3   2
M  END
>  <reaction>  (9) 
rxn_1616

>  <mol_properties>  (9) 
{"1": {"label": "*0", "atom_type": "Ct"}, "2": {"label": "*1", "atom_type": "Cs"}, "8": {"label": "*4", "atom_type": "Cd"}, "9": {"label": "*3", "atom_type": "Cd"}, "13": {"label": "*2", "atom_type": "H0"}}

>  <type>  (9) 
unop_5

>  <geom_source>  (9) 
Heuristics

$$$$

     RDKit          3D

 17 15  0  0  0  0  0  0  0  0999 V2000
   -2.2105   -2.0281    0.5495 C   0  0  0  0  0  0  0  0  0  0  0  0
   -1.0813   -1.6840    0.3604 C   0  0  0  0  0  0  0  0  0  0  0  0
    0.3005   -1.2628    0.1290 C   0  0  0  0  0  3  0  0  0  0  0  0
    0.7962   -0.3196    1.1315 C   0  0  0  0  0  0  0  0  0  0  0  0
    1.2013    0.4512    1.9506 C   0  0  0  0  0  0  0  0  0  0  0  0
   -3.2150   -2.3342    0.7178 H   0  0  0  0  0  0  0  0  0  0  0  0
    0.9472   -2.1446    0.1147 H   0  0  0  0  0  0  0  0  0  0  0  0
    1.5617    1.1368    2.6793 H   0  0  0  0  0  0  0  0  0  0  0  0
    0.3005    1.0304   -2.4550 C   0  0  0  0  0  0  0  0  0  0  0  0
    0.3005    1.0304   -1.1312 C   0  0  0  0  0  0  0  0  0  0  0  0
    0.3005    2.2526   -0.2707 C   0  0  0  0  0  0  0  0  0  0  0  0
    0.3005    0.1077   -3.0215 H   0  0  0  0  0  0  0  0  0  0  0  0
    0.3005    1.9560   -3.0210 H   0  0  0  0  0  0  0  0  0  0  0  0
    0.3005   -0.1128   -0.5030 H   0  0  0  0  0  0  0  0  0  0  0  0
   -0.5772    2.2697    0.3805 H   0  0  0  0  0  0  0  0  0  0  0  0
    0.3005    3.1630   -0.8713 H   0  0  0  0  0  0  0  0  0  0  0  0
    1.1782    2.2697    0.3805 H   0  0  0  0  0  0  0  0  0  0  0  0
  1  2  3  0
  1  6  1  0
  2  3  1  0
  3  4  1  0
  3  7  1  0
  4  5  3  0
  5  8  1  0
  9 10  2  3
  9 12  1  0
  9 13  1  0
 10 11  1  0
 10 14  1  0
 11 15  1  0
 11 16  1  0
 11 17  1  0
M  RAD  1   3   2
M  END
>  <reaction>  (10) 
rxn_1616

>  <mol_properties>  (10) 
{"1": {"label": "*0", "atom_type": "Ct"}, "2": {"label": "*1", "atom_type": "Cs"}, "8": {"label": "*4", "atom_type": "Cd"}, "9": {"label": "*3", "atom_type": "Cd"}, "13": {"label": "*2", "atom_type": "H0"}}

>  <type>  (10) 
unop_6

>  <geom_source>  (10) 
Heuristics

$$$$

     RDKit          3D

 17 15  0  0  0  0  0  0  0  0999 V2000
   -2.1430   -1.4660    1.5717 C   0  0  0  0  0  0  0  0  0  0  0  0
   -1.1651   -1.3938    0.8878 C   0  0  0  0  0  0  0  0  0  0  0  0
    0.0316   -1.3054    0.0508 C   0  0  0  0  0  3  0  0  0  0  0  0
    1.1277   -0.5685    0.6800 C   0  0  0  0  0  0  0  0  0  0  0  0
    2.0233    0.0337    1.1942 C   0  0  0  0  0  0  0  0  0  0  0  0
   -3.0129   -1.5302    2.1801 H   0  0  0  0  0  0  0  0  0  0  0  0
    0.3725   -2.3147   -0.1962 H   0  0  0  0  0  0  0  0  0  0  0  0
    2.8201    0.5694    1.6516 H   0  0  0  0  0  0  0  0  0  0  0  0
    0.0315    0.9878   -2.5332 C   0  0  0  0  0  0  0  0  0  0  0  0
    0.0315    0.9878   -1.2094 C   0  0  0  0  0  0  0  0  0  0  0  0
    0.0315    2.2100   -0.3489 C   0  0  0  0  0  0  0  0  0  0  0  0
    0.0315    0.0651   -3.0996 H   0  0  0  0  0  0  0  0  0  0  0  0
    0.0315    1.9134   -3.0992 H   0  0  0  0  0  0  0  0  0  0  0  0
    0.0316   -0.1553   -0.5812 H   0  0  0  0  0  0  0  0  0  0  0  0
   -0.8462    2.2271    0.3023 H   0  0  0  0  0  0  0  0  0  0  0  0
    0.0315    3.1205   -0.9495 H   0  0  0  0  0  0  0  0  0  0  0  0
    0.9093    2.2271    0.3023 H   0  0  0  0  0  0  0  0  0  0  0  0
  1  2  3  0
  1  6  1  0
  2  3  1  0
  3  4  1  0
  3  7  1  0
  4  5  3  0
  5  8  1  0
  9 10  2  3
  9 12  1  0
  9 13  1  0
 10 11  1  0
 10 14  1  0
 11 15  1  0
 11 16  1  0
 11 17  1  0
M  RAD  1   3   2
M  END
>  <reaction>  (11) 
rxn_1616

>  <mol_properties>  (11) 
{"1": {"label": "*0", "atom_type": "Ct"}, "2": {"label": "*1", "atom_type": "Cs"}, "8": {"label": "*4", "atom_type": "Cd"}, "9": {"label": "*3", "atom_type": "Cd"}, "13": {"label": "*2", "atom_type": "H0"}}

>  <type>  (11) 
unop_7

>  <geom_source>  (11) 
Heuristics

$$$$

     RDKit          3D

 17 15  0  0  0  0  0  0  0  0999 V2000
    2.3694   -1.3386    0.8551 C   0  0  0  0  0  0  0  0  0  0  0  0
    1.2403   -0.9945    0.6660 C   0  0  0  0  0  0  0  0  0  0  0  0
   -0.1416   -0.5734    0.4345 C   0  0  0  0  0  3  0  0  0  0  0  0
   -1.1071   -1.6680    0.5339 C   0  0  0  0  0  0  0  0  0  0  0  0
   -1.8961   -2.5625    0.6151 C   0  0  0  0  0  0  0  0  0  0  0  0
    3.3739   -1.6448    1.0233 H   0  0  0  0  0  0  0  0  0  0  0  0
   -0.4055    0.2050    1.1560 H   0  0  0  0  0  0  0  0  0  0  0  0
   -2.5980   -3.3582    0.6874 H   0  0  0  0  0  0  0  0  0  0  0  0
   -0.1416    1.7199   -2.1495 C   0  0  0  0  0  0  0  0  0  0  0  0
   -0.1416    1.7199   -0.8257 C   0  0  0  0  0  0  0  0  0  0  0  0
   -0.1416    2.9420    0.0348 C   0  0  0  0  0  0  0  0  0  0  0  0
   -0.1416    0.7971   -2.7159 H   0  0  0  0  0  0  0  0  0  0  0  0
   -0.1416    2.6455   -2.7155 H   0  0  0  0  0  0  0  0  0  0  0  0
   -0.1416    0.5767   -0.1975 H   0  0  0  0  0  0  0  0  0  0  0  0
   -1.0193    2.9592    0.6860 H   0  0  0  0  0  0  0  0  0  0  0  0
   -0.1416    3.8525   -0.5658 H   0  0  0  0  0  0  0  0  0  0  0  0
    0.7361    2.9592    0.6860 H   0  0  0  0  0  0  0  0  0  0  0  0
  1  2  3  0
  1  6  1  0
  2  3  1  0
  3  4  1  0
  3  7  1  0
  4  5  3  0
  5  8  1  0
  9 10  2  3
  9 12  1  0
  9 13  1  0
 10 11  1  0
 10 14  1  0
 11 15  1  0
 11 16  1  0
 11 17  1  0
M  RAD  1   3   2
M  END
>  <reaction>  (12) 
rxn_1616

>  <mol_properties>  (12) 
{"1": {"label": "*0", "atom_type": "Ct"}, "2": {"label": "*1", "atom_type": "Cs"}, "8": {"label": "*4", "atom_type": "Cd"}, "9": {"label": "*3", "atom_type": "Cd"}, "13": {"label": "*2", "atom_type": "H0"}}

>  <type>  (12) 
unop_8

>  <geom_source>  (12) 
Heuristics

$$$$

     RDKit          3D

 17 15  0  0  0  0  0  0  0  0999 V2000
   -0.7476   -2.7230   -1.0383 C   0  0  0  0  0  0  0  0  0  0  0  0
   -0.1830   -1.9079   -0.3704 C   0  0  0  0  0  0  0  0  0  0  0  0
    0.5079   -0.9104    0.4470 C   0  0  0  0  0  3  0  0  0  0  0  0
   -0.2942   -0.4215    1.5686 C   0  0  0  0  0  0  0  0  0  0  0  0
   -0.9496   -0.0220    2.4851 C   0  0  0  0  0  0  0  0  0  0  0  0
   -1.2499   -3.4481   -1.6324 H   0  0  0  0  0  0  0  0  0  0  0  0
    1.4368   -1.3414    0.8306 H   0  0  0  0  0  0  0  0  0  0  0  0
   -1.5327    0.3335    3.3004 H   0  0  0  0  0  0  0  0  0  0  0  0
    0.5079    1.3828   -2.1370 C   0  0  0  0  0  0  0  0  0  0  0  0
    0.5079    1.3828   -0.8133 C   0  0  0  0  0  0  0  0  0  0  0  0
    0.5079    2.6050    0.0472 C   0  0  0  0  0  0  0  0  0  0  0  0
    0.5079    0.4601   -2.7035 H   0  0  0  0  0  0  0  0  0  0  0  0
    0.5079    2.3084   -2.7030 H   0  0  0  0  0  0  0  0  0  0  0  0
    0.5079    0.2397   -0.1851 H   0  0  0  0  0  0  0  0  0  0  0  0
   -0.3698    2.6221    0.6985 H   0  0  0  0  0  0  0  0  0  0  0  0
    0.5079    3.5154   -0.5534 H   0  0  0  0  0  0  0  0  0  0  0  0
    1.3856    2.6221    0.6985 H   0  0  0  0  0  0  0  0  0  0  0  0
  1  2  3  0
  1  6  1  0
  2  3  1  0
  3  4  1  0
  3  7  1  0
  4  5  3  0
  5  8  1  0
  9 10  2  3
  9 12  1  0
  9 13  1  0
 10 11  1  0
 10 14  1  0
 11 15  1  0
 11 16  1  0
 11 17  1  0
M  RAD  1   3   2
M  END
>  <reaction>  (13) 
rxn_1616

>  <mol_properties>  (13) 
{"1": {"label": "*0", "atom_type": "Ct"}, "2": {"label": "*1", "atom_type": "Cs"}, "8": {"label": "*4", "atom_type": "Cd"}, "9": {"label": "*3", "atom_type": "Cd"}, "13": {"label": "*2", "atom_type": "H0"}}

>  <type>  (13) 
unop_9

>  <geom_source>  (13) 
Heuristics

$$$$

     RDKit          3D

 17 15  0  0  0  0  0  0  0  0999 V2000
    2.1441   -1.9120   -0.1463 C   0  0  0  0  0  0  0  0  0  0  0  0
    1.1663   -1.2960    0.1594 C   0  0  0  0  0  0  0  0  0  0  0  0
   -0.0304   -0.5421    0.5335 C   0  0  0  0  0  3  0  0  0  0  0  0
   -1.1461   -1.3919    0.9500 C   0  0  0  0  0  0  0  0  0  0  0  0
   -2.0577   -2.0863    1.2905 C   0  0  0  0  0  0  0  0  0  0  0  0
    3.0141   -2.4600   -0.4182 H   0  0  0  0  0  0  0  0  0  0  0  0
    0.2184    0.1474    1.3450 H   0  0  0  0  0  0  0  0  0  0  0  0
   -2.8687   -2.7041    1.5933 H   0  0  0  0  0  0  0  0  0  0  0  0
   -0.0305    1.7512   -2.0505 C   0  0  0  0  0  0  0  0  0  0  0  0
   -0.0305    1.7512   -0.7268 C   0  0  0  0  0  0  0  0  0  0  0  0
   -0.0305    2.9733    0.1337 C   0  0  0  0  0  0  0  0  0  0  0  0
   -0.0305    0.8284   -2.6170 H   0  0  0  0  0  0  0  0  0  0  0  0
   -0.0305    2.6768   -2.6165 H   0  0  0  0  0  0  0  0  0  0  0  0
   -0.0304    0.6080   -0.0986 H   0  0  0  0  0  0  0  0  0  0  0  0
   -0.9082    2.9904    0.7850 H   0  0  0  0  0  0  0  0  0  0  0  0
   -0.0305    3.8838   -0.4669 H   0  0  0  0  0  0  0  0  0  0  0  0
    0.8473    2.9904    0.7850 H   0  0  0  0  0  0  0  0  0  0  0  0
  1  2  3  0
  1  6  1  0
  2  3  1  0
  3  4  1  0
  3  7  1  0
  4  5  3  0
  5  8  1  0
  9 10  2  3
  9 12  1  0
  9 13  1  0
 10 11  1  0
 10 14  1  0
 11 15  1  0
 11 16  1  0
 11 17  1  0
M  RAD  1   3   2
M  END
>  <reaction>  (14) 
rxn_1616

>  <mol_properties>  (14) 
{"1": {"label": "*0", "atom_type": "Ct"}, "2": {"label": "*1", "atom_type": "Cs"}, "8": {"label": "*4", "atom_type": "Cd"}, "9": {"label": "*3", "atom_type": "Cd"}, "13": {"label": "*2", "atom_type": "H0"}}

>  <type>  (14) 
unop_10

>  <geom_source>  (14) 
Heuristics

$$$$

     RDKit          3D

 17 15  0  0  0  0  0  0  0  0999 V2000
   -1.5163   -0.9091    2.4088 C   0  0  0  0  0  0  0  0  0  0  0  0
   -0.9517   -1.0360    1.3627 C   0  0  0  0  0  0  0  0  0  0  0  0
   -0.2608   -1.1912    0.0825 C   0  0  0  0  0  3  0  0  0  0  0  0
    1.1897   -1.0284    0.1815 C   0  0  0  0  0  0  0  0  0  0  0  0
    2.3751   -0.8953    0.2623 C   0  0  0  0  0  0  0  0  0  0  0  0
   -2.0185   -0.7963    3.3394 H   0  0  0  0  0  0  0  0  0  0  0  0
   -0.4841   -2.1796   -0.3286 H   0  0  0  0  0  0  0  0  0  0  0  0
    3.4295   -0.7769    0.3343 H   0  0  0  0  0  0  0  0  0  0  0  0
   -0.2608    1.1020   -2.5015 C   0  0  0  0  0  0  0  0  0  0  0  0
   -0.2608    1.1020   -1.1777 C   0  0  0  0  0  0  0  0  0  0  0  0
   -0.2608    2.3242   -0.3172 C   0  0  0  0  0  0  0  0  0  0  0  0
   -0.2608    0.1793   -3.0680 H   0  0  0  0  0  0  0  0  0  0  0  0
   -0.2608    2.0276   -3.0675 H   0  0  0  0  0  0  0  0  0  0  0  0
   -0.2608   -0.0411   -0.5495 H   0  0  0  0  0  0  0  0  0  0  0  0
   -1.1385    2.3413    0.3340 H   0  0  0  0  0  0  0  0  0  0  0  0
   -0.2608    3.2347   -0.9178 H   0  0  0  0  0  0  0  0  0  0  0  0
    0.6169    2.3413    0.3340 H   0  0  0  0  0  0  0  0  0  0  0  0
  1  2  3  0
  1  6  1  0
  2  3  1  0
  3  4  1  0
  3  7  1  0
  4  5  3  0
  5  8  1  0
  9 10  2  3
  9 12  1  0
  9 13  1  0
 10 11  1  0
 10 14  1  0
 11 15  1  0
 11 16  1  0
 11 17  1  0
M  RAD  1   3   2
M  END
>  <reaction>  (15) 
rxn_1616

>  <mol_properties>  (15) 
{"1": {"label": "*0", "atom_type": "Ct"}, "2": {"label": "*1", "atom_type": "Cs"}, "8": {"label": "*4", "atom_type": "Cd"}, "9": {"label": "*3", "atom_type": "Cd"}, "13": {"label": "*2", "atom_type": "H0"}}

>  <type>  (15) 
unop_11

>  <geom_source>  (15) 
Heuristics

$$$$

     RDKit          3D

 17 15  0  0  0  0  0  0  0  0999 V2000
    0.3854   -2.6733   -1.2080 C   0  0  0  0  0  0  0  0  0  0  0  0
    0.3854   -1.7854   -0.4075 C   0  0  0  0  0  0  0  0  0  0  0  0
    0.3854   -0.6987    0.5720 C   0  0  0  0  0  3  0  0  0  0  0  0
   -0.7536   -0.7431    1.4892 C   0  0  0  0  0  0  0  0  0  0  0  0
   -1.6844   -0.7793    2.2386 C   0  0  0  0  0  0  0  0  0  0  0  0
    0.3854   -3.4632   -1.9201 H   0  0  0  0  0  0  0  0  0  0  0  0
    1.3132   -0.7358    1.1496 H   0  0  0  0  0  0  0  0  0  0  0  0
   -2.5123   -0.8115    2.9053 H   0  0  0  0  0  0  0  0  0  0  0  0
    0.3854    1.5945   -2.0120 C   0  0  0  0  0  0  0  0  0  0  0  0
    0.3854    1.5945   -0.6882 C   0  0  0  0  0  0  0  0  0  0  0  0
    0.3854    2.8167    0.1723 C   0  0  0  0  0  0  0  0  0  0  0  0
    0.3854    0.6718   -2.5784 H   0  0  0  0  0  0  0  0  0  0  0  0
    0.3854    2.5201   -2.5780 H   0  0  0  0  0  0  0  0  0  0  0  0
    0.3854    0.4513   -0.0600 H   0  0  0  0  0  0  0  0  0  0  0  0
   -0.4924    2.8338    0.8235 H   0  0  0  0  0  0  0  0  0  0  0  0
    0.3854    3.7271   -0.4283 H   0  0  0  0  0  0  0  0  0  0  0  0
    1.2631    2.8338    0.8235 H   0  0  0  0  0  0  0  0  0  0  0  0
  1  2  3  0
  1  6  1  0
  2  3  1  0
  3  4  1  0
  3  7  1  0
  4  5  3  0
  5  8  1  0
  9 10  2  3
  9 12  1  0
  9 13  1  0
 10 11  1  0
 10 14  1  0
 11 15  1  0
 11 16  1  0
 11 17  1  0
M  RAD  1   3   2
M  END
>  <reaction>  (16) 
rxn_1616

>  <mol_properties>  (16) 
{"1": {"label": "*0", "atom_type": "Ct"}, "2": {"label": "*1", "atom_type": "Cs"}, "8": {"label": "*4", "atom_type": "Cd"}, "9": {"label": "*3", "atom_type": "Cd"}, "13": {"label": "*2", "atom_type": "H0"}}

>  <type>  (16) 
unop_12

>  <geom_source>  (16) 
Heuristics

$$$$

     RDKit          3D

 17 15  0  0  0  0  0  0  0  0999 V2000
    1.1484    0.2018   -0.4343 C   0  0  0  0  0  3  0  0  0  0  0  0
   -2.2778   -0.4768    1.0030 C   0  0  0  0  0  0  0  0  0  0  0  0
   -1.7383    0.1408   -1.3282 C   0  0  0  0  0  0  0  0  0  0  0  0
   -1.4200    0.1750   -0.0337 C   0  0  0  0  0  0  0  0  0  0  0  0
    1.8218   -0.9949    0.0739 C   0  0  0  0  0  0  0  0  0  0  0  0
    1.9124    1.3943   -0.0626 C   0  0  0  0  0  0  0  0  0  0  0  0
    2.3746   -1.9815    0.4918 C   0  0  0  0  0  0  0  0  0  0  0  0
    2.5398    2.3775    0.2428 C   0  0  0  0  0  0  0  0  0  0  0  0
    1.0721    0.1416   -1.5396 H   0  0  0  0  0  0  0  0  0  0  0  0
   -0.1868    0.2852    0.1383 H   0  0  0  0  0  0  0  0  0  0  0  0
   -1.8223   -0.3223    2.0026 H   0  0  0  0  0  0  0  0  0  0  0  0
   -3.2930   -0.0265    0.9946 H   0  0  0  0  0  0  0  0  0  0  0  0
   -2.3529   -1.5668    0.8041 H   0  0  0  0  0  0  0  0  0  0  0  0
   -2.6363   -0.3651   -1.6701 H   0  0  0  0  0  0  0  0  0  0  0  0
   -1.0923    0.6246   -2.0523 H   0  0  0  0  0  0  0  0  0  0  0  0
    2.8599   -2.8474    0.8587 H   0  0  0  0  0  0  0  0  0  0  0  0
    3.0907    3.2405    0.5110 H   0  0  0  0  0  0  0  0  0  0  0  0
  1  5  1  0
  1  6  1  0
  1  9  1  0
  2  4  1  0
  2 11  1  0
  2 12  1  0
  2 13  1  0
  3  4  2  3
  3 14  1  0
  3 15  1  0
  4 10  1  0
  5  7  3  0
  6  8  3  0
  7 16  1  0
  8 17  1  0
M  RAD  1   1   2
M  END
>  <reaction>  (17) 
rxn_1616

>  <mol_properties>  (17) 
{"1": {"label": "*0", "atom_type": "Ct"}, "2": {"label": "*1", "atom_type": "Cs"}, "8": {"label": "*4", "atom_type": "Cd"}, "9": {"label": "*3", "atom_type": "Cd"}, "13": {"label": "*2", "atom_type": "H0"}}

>  <type>  (17) 
unop_13

>  <geom_source>  (17) 
AutoTST

$$$$
