
     RDKit          3D

 15 15  0  0  0  0  0  0  0  0999 V2000
    2.2031   -0.2111   -0.1693 C   0  0  0  0  0  0  0  0  0  0  0  0
    0.7140   -0.0314   -0.0623 C   0  0  0  0  0  0  0  0  0  0  0  0
   -0.0114    0.5491   -1.0982 C   0  0  0  0  0  0  0  0  0  0  0  0
   -1.3882    0.6886   -1.0150 C   0  0  0  0  0  0  0  0  0  0  0  0
   -2.0661    0.2493    0.1118 C   0  0  0  0  0  0  0  0  0  0  0  0
   -1.3551   -0.3278    1.1528 C   0  0  0  0  0  0  0  0  0  0  0  0
    0.0216   -0.4648    1.0642 C   0  0  0  0  0  0  0  0  0  0  0  0
    2.6776   -0.1836    0.8122 H   0  0  0  0  0  0  0  0  0  0  0  0
    2.4446   -1.1749   -0.6249 H   0  0  0  0  0  0  0  0  0  0  0  0
    2.6532    0.5664   -0.7875 H   0  0  0  0  0  0  0  0  0  0  0  0
    0.5104    0.8989   -1.9819 H   0  0  0  0  0  0  0  0  0  0  0  0
   -1.9328    1.1452   -1.8322 H   0  0  0  0  0  0  0  0  0  0  0  0
   -3.1409    0.3597    0.1800 H   0  0  0  0  0  0  0  0  0  0  0  0
   -1.8736   -0.6702    2.0398 H   0  0  0  0  0  0  0  0  0  0  0  0
    0.5695   -0.9141    1.8849 H   0  0  0  0  0  0  0  0  0  0  0  0
  1  2  1  0
  1  8  1  0
  1  9  1  0
  1 10  1  0
  2  3  2  0
  2  7  1  0
  3  4  1  0
  3 11  1  0
  4  5  2  0
  4 12  1  0
  5  6  1  0
  5 13  1  0
  6  7  2  0
  6 14  1  0
  7 15  1  0
M  END
>  <reaction>  (1) 
rxn_1441

>  <mol_properties>  (1) 
{"0": {"label": "donator", "atom_type": "Cs"}, "7": {"label": "d_hydrogen", "atom_type": "H0"}}

>  <type>  (1) 
r1h

$$$$

     RDKit          3D

 12 11  0  0  0  0  0  0  0  0999 V2000
   -2.3791    0.4612   -0.5870 C   0  0  0  0  0  0  0  0  0  0  0  0
   -1.3422   -0.3138   -0.1893 C   0  0  0  0  0  0  0  0  0  0  0  0
   -1.4723   -1.6058    0.3589 C   0  0  0  0  0  3  0  0  0  0  0  0
   -0.3798   -2.3973    0.7671 C   0  0  0  0  0  0  0  0  0  0  0  0
   -0.4849   -3.6397    1.2956 C   0  0  0  0  0  0  0  0  0  0  0  0
   -2.2205    1.4472   -1.0017 H   0  0  0  0  0  0  0  0  0  0  0  0
   -3.4026    0.1153   -0.5011 H   0  0  0  0  0  0  0  0  0  0  0  0
   -0.3330    0.0765   -0.2952 H   0  0  0  0  0  0  0  0  0  0  0  0
   -2.4723   -2.0151    0.4735 H   0  0  0  0  0  0  0  0  0  0  0  0
    0.6117   -1.9687    0.6436 H   0  0  0  0  0  0  0  0  0  0  0  0
    0.3893   -4.2030    1.5920 H   0  0  0  0  0  0  0  0  0  0  0  0
   -1.4516   -4.1084    1.4378 H   0  0  0  0  0  0  0  0  0  0  0  0
  1  2  2  3
  1  6  1  0
  1  7  1  0
  2  3  1  0
  2  8  1  0
  3  4  1  0
  3  9  1  0
  4  5  2  3
  4 10  1  0
  5 11  1  0
  5 12  1  0
M  RAD  1   3   2
M  END
>  <reaction>  (2) 
rxn_1441

>  <mol_properties>  (2) 
{"2": {"label": "acceptor", "atom_type": "Cs"}}

>  <type>  (2) 
r2

$$$$

     RDKit          3D

 13 12  0  0  0  0  0  0  0  0999 V2000
    3.0977   -0.3549   -0.5105 C   0  0  0  0  0  0  0  0  0  0  0  0
    2.0556    0.4221   -0.2627 C   0  0  0  0  0  0  0  0  0  0  0  0
    0.6313   -0.0354   -0.2366 C   0  0  0  0  0  0  0  0  0  0  0  0
   -0.2567    0.6038   -1.2694 C   0  0  0  0  0  0  0  0  0  0  0  0
    0.1459    1.3456   -2.2891 C   0  0  0  0  0  0  0  0  0  0  0  0
    4.1081    0.0344   -0.5074 H   0  0  0  0  0  0  0  0  0  0  0  0
    2.9777   -1.4116   -0.7243 H   0  0  0  0  0  0  0  0  0  0  0  0
    2.2171    1.4781   -0.0618 H   0  0  0  0  0  0  0  0  0  0  0  0
    0.5865   -1.1233   -0.3540 H   0  0  0  0  0  0  0  0  0  0  0  0
    0.2065    0.1743    0.7521 H   0  0  0  0  0  0  0  0  0  0  0  0
   -1.3190    0.4126   -1.1445 H   0  0  0  0  0  0  0  0  0  0  0  0
    1.1948    1.5564   -2.4628 H   0  0  0  0  0  0  0  0  0  0  0  0
   -0.5644    1.7621   -2.9918 H   0  0  0  0  0  0  0  0  0  0  0  0
  1  2  2  3
  1  6  1  0
  1  7  1  0
  2  3  1  0
  2  8  1  0
  3  4  1  0
  3  9  1  0
  3 10  1  0
  4  5  2  3
  4 11  1  0
  5 12  1  0
  5 13  1  0
M  END
>  <reaction>  (3) 
rxn_1441

>  <mol_properties>  (3) 
{"2": {"label": "acceptor", "atom_type": "Cs"}, "12": {"label": "a_hydrogen", "atom_type": "H0"}}

>  <type>  (3) 
r2h

$$$$

     RDKit          3D

 27 26  0  0  0  0  0  0  0  0999 V2000
   -0.8303   -0.4893    4.2906 C   0  0  0  0  0  0  0  0  0  0  0  0
   -0.5102   -1.0554    3.1304 C   0  0  0  0  0  0  0  0  0  0  0  0
   -0.9215   -0.5510    1.8156 C   0  0  0  0  0  0  0  0  0  0  0  0
   -1.1964   -1.4868    0.7146 C   0  0  0  0  0  0  0  0  0  0  0  0
   -1.0288   -2.8078    0.7250 C   0  0  0  0  0  0  0  0  0  0  0  0
   -0.4639   -0.8808    5.2308 H   0  0  0  0  0  0  0  0  0  0  0  0
   -1.4760    0.3810    4.3365 H   0  0  0  0  0  0  0  0  0  0  0  0
    0.1423   -1.9238    3.1371 H   0  0  0  0  0  0  0  0  0  0  0  0
   -1.6473    0.2614    1.8724 H   0  0  0  0  0  0  0  0  0  0  0  0
   -1.5352   -1.0181   -0.2049 H   0  0  0  0  0  0  0  0  0  0  0  0
   -1.2290   -3.3972   -0.1602 H   0  0  0  0  0  0  0  0  0  0  0  0
   -0.7088   -3.3468    1.6083 H   0  0  0  0  0  0  0  0  0  0  0  0
    1.1896    0.8309    0.8188 C   0  0  0  0  0  0  0  0  0  0  0  0
    0.8925    0.9104   -0.5984 C   0  0  0  0  0  0  0  0  0  0  0  0
    0.1473    1.9757   -1.1207 C   0  0  0  0  0  3  0  0  0  0  0  0
   -0.2027    2.0117   -2.4580 C   0  0  0  0  0  0  0  0  0  0  0  0
    0.1785    0.9826   -3.3094 C   0  0  0  0  0  0  0  0  0  0  0  0
    0.9152   -0.0824   -2.8081 C   0  0  0  0  0  0  0  0  0  0  0  0
    1.2655   -0.1204   -1.4709 C   0  0  0  0  0  0  0  0  0  0  0  0
    0.0999    0.1163    1.3707 H   0  0  0  0  0  0  0  0  0  0  0  0
    1.9975    0.1695    1.1180 H   0  0  0  0  0  0  0  0  0  0  0  0
    1.1363    1.7526    1.3903 H   0  0  0  0  0  0  0  0  0  0  0  0
   -0.1542    2.7822   -0.4620 H   0  0  0  0  0  0  0  0  0  0  0  0
   -0.7753    2.8471   -2.8415 H   0  0  0  0  0  0  0  0  0  0  0  0
   -0.0952    1.0117   -4.3562 H   0  0  0  0  0  0  0  0  0  0  0  0
    1.2166   -0.8887   -3.4652 H   0  0  0  0  0  0  0  0  0  0  0  0
    1.8313   -0.9596   -1.0838 H   0  0  0  0  0  0  0  0  0  0  0  0
  1  2  2  3
  1  6  1  0
  1  7  1  0
  2  3  1  0
  2  8  1  0
  3  4  1  0
  3  9  1  0
  3 20  1  0
  4  5  2  3
  4 10  1  0
  5 11  1  0
  5 12  1  0
 13 14  2  3
 13 21  1  0
 13 22  1  0
 14 15  1  0
 14 19  1  0
 15 16  1  0
 15 23  1  0
 16 17  2  0
 16 24  1  0
 17 18  1  0
 17 25  1  0
 18 19  2  0
 18 26  1  0
 19 27  1  0
M  RAD  1  15   2
M  END
>  <reaction>  (4) 
rxn_1441

>  <mol_properties>  (4) 
{"1": {"label": "*0", "atom_type": "Cd"}, "2": {"label": "*1", "atom_type": "Cs"}, "12": {"label": "*3", "atom_type": "Cd"}, "13": {"label": "*4", "atom_type": "Cd"}, "19": {"label": "*2", "atom_type": "H0"}}

>  <type>  (4) 
ts

$$$$

     RDKit          3D

 27 26  0  0  0  0  0  0  0  0999 V2000
    0.6113   -1.3843    3.8553 C   0  0  0  0  0  0  0  0  0  0  0  0
    0.3207   -1.6516    2.5923 C   0  0  0  0  0  0  0  0  0  0  0  0
   -0.6558   -0.8862    1.7560 C   0  0  0  0  0  3  0  0  0  0  0  0
   -1.8362   -1.6846    1.2733 C   0  0  0  0  0  0  0  0  0  0  0  0
   -2.1755   -2.8964    1.6837 C   0  0  0  0  0  0  0  0  0  0  0  0
    1.3349   -1.9715    4.4066 H   0  0  0  0  0  0  0  0  0  0  0  0
    0.1359   -0.5651    4.3843 H   0  0  0  0  0  0  0  0  0  0  0  0
    0.8123   -2.4869    2.1001 H   0  0  0  0  0  0  0  0  0  0  0  0
   -1.0194   -0.0147    2.3105 H   0  0  0  0  0  0  0  0  0  0  0  0
   -2.4517   -1.1900    0.5268 H   0  0  0  0  0  0  0  0  0  0  0  0
   -3.0493   -3.3967    1.2862 H   0  0  0  0  0  0  0  0  0  0  0  0
   -1.6003   -3.4271    2.4336 H   0  0  0  0  0  0  0  0  0  0  0  0
    0.5271    1.2529    0.8013 C   0  0  0  0  0  0  0  0  0  0  0  0
    0.5271    1.2529   -0.7024 C   0  0  0  0  0  0  0  0  0  0  0  0
    0.5271    2.4472   -1.4164 C   0  0  0  0  0  0  0  0  0  0  0  0
    0.5575    2.4506   -2.8024 C   0  0  0  0  0  0  0  0  0  0  0  0
    0.5871    1.2536   -3.5015 C   0  0  0  0  0  0  0  0  0  0  0  0
    0.5839    0.0562   -2.8024 C   0  0  0  0  0  0  0  0  0  0  0  0
    0.5534    0.0589   -1.4164 C   0  0  0  0  0  0  0  0  0  0  0  0
   -0.0628    0.1862    1.2774 H   0  0  0  0  0  0  0  0  0  0  0  0
    1.5493    1.2641    1.1881 H   0  0  0  0  0  0  0  0  0  0  0  0
    0.0161    2.1308    1.1981 H   0  0  0  0  0  0  0  0  0  0  0  0
    0.5005    3.3883   -0.8786 H   0  0  0  0  0  0  0  0  0  0  0  0
    0.5549    3.3918   -3.3382 H   0  0  0  0  0  0  0  0  0  0  0  0
    0.6082    1.2538   -4.5838 H   0  0  0  0  0  0  0  0  0  0  0  0
    0.6021   -0.8849   -3.3382 H   0  0  0  0  0  0  0  0  0  0  0  0
    0.5476   -0.8826   -0.8786 H   0  0  0  0  0  0  0  0  0  0  0  0
  1  2  2  3
  1  6  1  0
  1  7  1  0
  2  3  1  0
  2  8  1  0
  3  4  1  0
  3  9  1  0
  4  5  2  3
  4 10  1  0
  5 11  1  0
  5 12  1  0
 13 14  1  0
 13 20  1  0
 13 21  1  0
 13 22  1  0
 14 15  2  0
 14 19  1  0
 15 16  1  0
 15 23  1  0
 16 17  2  0
 16 24  1  0
 17 18  1  0
 17 25  1  0
 18 19  2  0
 18 26  1  0
 19 27  1  0
M  RAD  1   3   2
M  END
>  <reaction>  (5) 
rxn_1441

>  <mol_properties>  (5) 
{"1": {"label": "*0", "atom_type": "Cd"}, "2": {"label": "*1", "atom_type": "Cs"}, "12": {"label": "*3", "atom_type": "Cd"}, "13": {"label": "*4", "atom_type": "Cd"}, "19": {"label": "*2", "atom_type": "H0"}}

>  <type>  (5) 
unop_1

>  <geom_source>  (5) 
Heuristics

$$$$

     RDKit          3D

 27 26  0  0  0  0  0  0  0  0999 V2000
    0.5556   -3.0083    1.2022 C   0  0  0  0  0  0  0  0  0  0  0  0
   -0.3056   -2.0150    1.0518 C   0  0  0  0  0  0  0  0  0  0  0  0
   -0.4889   -0.8850    2.0153 C   0  0  0  0  0  3  0  0  0  0  0  0
   -1.8557   -0.8018    2.6387 C   0  0  0  0  0  0  0  0  0  0  0  0
   -2.7996   -1.7272    2.5695 C   0  0  0  0  0  0  0  0  0  0  0  0
    0.6477   -3.7950    0.4639 H   0  0  0  0  0  0  0  0  0  0  0  0
    1.2028   -3.0696    2.0707 H   0  0  0  0  0  0  0  0  0  0  0  0
   -0.9430   -1.9942    0.1715 H   0  0  0  0  0  0  0  0  0  0  0  0
    0.2611   -0.9475    2.8108 H   0  0  0  0  0  0  0  0  0  0  0  0
   -2.0516    0.1091    3.1978 H   0  0  0  0  0  0  0  0  0  0  0  0
   -3.7562   -1.5872    3.0565 H   0  0  0  0  0  0  0  0  0  0  0  0
   -2.6493   -2.6570    2.0331 H   0  0  0  0  0  0  0  0  0  0  0  0
    0.6940    1.2541    1.0606 C   0  0  0  0  0  0  0  0  0  0  0  0
    0.6940    1.2541   -0.4431 C   0  0  0  0  0  0  0  0  0  0  0  0
    0.6940    2.4484   -1.1572 C   0  0  0  0  0  0  0  0  0  0  0  0
    0.7244    2.4517   -2.5432 C   0  0  0  0  0  0  0  0  0  0  0  0
    0.7540    1.2547   -3.2422 C   0  0  0  0  0  0  0  0  0  0  0  0
    0.7509    0.0574   -2.5432 C   0  0  0  0  0  0  0  0  0  0  0  0
    0.7203    0.0600   -1.1572 C   0  0  0  0  0  0  0  0  0  0  0  0
    0.1041    0.1873    1.5367 H   0  0  0  0  0  0  0  0  0  0  0  0
    1.7162    1.2653    1.4474 H   0  0  0  0  0  0  0  0  0  0  0  0
    0.1830    2.1320    1.4573 H   0  0  0  0  0  0  0  0  0  0  0  0
    0.6674    3.3895   -0.6194 H   0  0  0  0  0  0  0  0  0  0  0  0
    0.7218    3.3929   -3.0789 H   0  0  0  0  0  0  0  0  0  0  0  0
    0.7751    1.2550   -4.3246 H   0  0  0  0  0  0  0  0  0  0  0  0
    0.7690   -0.8837   -3.0789 H   0  0  0  0  0  0  0  0  0  0  0  0
    0.7145   -0.8814   -0.6194 H   0  0  0  0  0  0  0  0  0  0  0  0
  1  2  2  3
  1  6  1  0
  1  7  1  0
  2  3  1  0
  2  8  1  0
  3  4  1  0
  3  9  1  0
  4  5  2  3
  4 10  1  0
  5 11  1  0
  5 12  1  0
 13 14  1  0
 13 20  1  0
 13 21  1  0
 13 22  1  0
 14 15  2  0
 14 19  1  0
 15 16  1  0
 15 23  1  0
 16 17  2  0
 16 24  1  0
 17 18  1  0
 17 25  1  0
 18 19  2  0
 18 26  1  0
 19 27  1  0
M  RAD  1   3   2
M  END
>  <reaction>  (6) 
rxn_1441

>  <mol_properties>  (6) 
{"1": {"label": "*0", "atom_type": "Cd"}, "2": {"label": "*1", "atom_type": "Cs"}, "12": {"label": "*3", "atom_type": "Cd"}, "13": {"label": "*4", "atom_type": "Cd"}, "19": {"label": "*2", "atom_type": "H0"}}

>  <type>  (6) 
unop_2

>  <geom_source>  (6) 
Heuristics

$$$$

     RDKit          3D

 27 26  0  0  0  0  0  0  0  0999 V2000
   -0.4998   -0.8553    4.2293 C   0  0  0  0  0  0  0  0  0  0  0  0
   -0.0451   -1.2510    3.0513 C   0  0  0  0  0  0  0  0  0  0  0  0
   -0.6597   -0.9009    1.7327 C   0  0  0  0  0  3  0  0  0  0  0  0
   -1.1680   -2.0750    0.9410 C   0  0  0  0  0  0  0  0  0  0  0  0
   -1.3018   -3.3141    1.3869 C   0  0  0  0  0  0  0  0  0  0  0  0
   -0.0052   -1.1358    5.1508 H   0  0  0  0  0  0  0  0  0  0  0  0
   -1.3844   -0.2333    4.3147 H   0  0  0  0  0  0  0  0  0  0  0  0
    0.8395   -1.8812    3.0084 H   0  0  0  0  0  0  0  0  0  0  0  0
   -1.4797   -0.1902    1.8801 H   0  0  0  0  0  0  0  0  0  0  0  0
   -1.4516   -1.8508   -0.0836 H   0  0  0  0  0  0  0  0  0  0  0  0
   -1.6845   -4.0997    0.7479 H   0  0  0  0  0  0  0  0  0  0  0  0
   -1.0428   -3.5862    2.4037 H   0  0  0  0  0  0  0  0  0  0  0  0
    0.5232    1.2382    0.7781 C   0  0  0  0  0  0  0  0  0  0  0  0
    0.5232    1.2382   -0.7257 C   0  0  0  0  0  0  0  0  0  0  0  0
    0.5232    2.4325   -1.4397 C   0  0  0  0  0  0  0  0  0  0  0  0
    0.5536    2.4358   -2.8257 C   0  0  0  0  0  0  0  0  0  0  0  0
    0.5832    1.2388   -3.5247 C   0  0  0  0  0  0  0  0  0  0  0  0
    0.5800    0.0415   -2.8257 C   0  0  0  0  0  0  0  0  0  0  0  0
    0.5495    0.0441   -1.4397 C   0  0  0  0  0  0  0  0  0  0  0  0
   -0.0667    0.1714    1.2541 H   0  0  0  0  0  0  0  0  0  0  0  0
    1.5454    1.2494    1.1648 H   0  0  0  0  0  0  0  0  0  0  0  0
    0.0122    2.1161    1.1748 H   0  0  0  0  0  0  0  0  0  0  0  0
    0.4966    3.3736   -0.9019 H   0  0  0  0  0  0  0  0  0  0  0  0
    0.5510    3.3771   -3.3614 H   0  0  0  0  0  0  0  0  0  0  0  0
    0.6043    1.2391   -4.6071 H   0  0  0  0  0  0  0  0  0  0  0  0
    0.5982   -0.8996   -3.3614 H   0  0  0  0  0  0  0  0  0  0  0  0
    0.5437   -0.8973   -0.9019 H   0  0  0  0  0  0  0  0  0  0  0  0
  1  2  2  3
  1  6  1  0
  1  7  1  0
  2  3  1  0
  2  8  1  0
  3  4  1  0
  3  9  1  0
  4  5  2  3
  4 10  1  0
  5 11  1  0
  5 12  1  0
 13 14  1  0
 13 20  1  0
 13 21  1  0
 13 22  1  0
 14 15  2  0
 14 19  1  0
 15 16  1  0
 15 23  1  0
 16 17  2  0
 16 24  1  0
 17 18  1  0
 17 25  1  0
 18 19  2  0
 18 26  1  0
 19 27  1  0
M  RAD  1   3   2
M  END
>  <reaction>  (7) 
rxn_1441

>  <mol_properties>  (7) 
{"1": {"label": "*0", "atom_type": "Cd"}, "2": {"label": "*1", "atom_type": "Cs"}, "12": {"label": "*3", "atom_type": "Cd"}, "13": {"label": "*4", "atom_type": "Cd"}, "19": {"label": "*2", "atom_type": "H0"}}

>  <type>  (7) 
unop_3

>  <geom_source>  (7) 
Heuristics

$$$$

     RDKit          3D

 27 26  0  0  0  0  0  0  0  0999 V2000
   -2.4805   -2.4184    1.1172 C   0  0  0  0  0  0  0  0  0  0  0  0
   -1.7595   -1.3216    1.2855 C   0  0  0  0  0  0  0  0  0  0  0  0
   -0.3430   -1.2915    1.7668 C   0  0  0  0  0  3  0  0  0  0  0  0
   -0.1332   -0.5659    3.0680 C   0  0  0  0  0  0  0  0  0  0  0  0
   -1.0848   -0.1540    3.8908 C   0  0  0  0  0  0  0  0  0  0  0  0
   -3.5008   -2.3759    0.7573 H   0  0  0  0  0  0  0  0  0  0  0  0
   -2.0745   -3.4011    1.3321 H   0  0  0  0  0  0  0  0  0  0  0  0
   -2.2057   -0.3547    1.0674 H   0  0  0  0  0  0  0  0  0  0  0  0
    0.0399   -2.3128    1.8639 H   0  0  0  0  0  0  0  0  0  0  0  0
    0.9053   -0.3872    3.3328 H   0  0  0  0  0  0  0  0  0  0  0  0
   -0.8426    0.3563    4.8144 H   0  0  0  0  0  0  0  0  0  0  0  0
   -2.1347   -0.3176    3.6770 H   0  0  0  0  0  0  0  0  0  0  0  0
    0.8398    0.8476    0.8121 C   0  0  0  0  0  0  0  0  0  0  0  0
    0.8398    0.8476   -0.6916 C   0  0  0  0  0  0  0  0  0  0  0  0
    0.8398    2.0419   -1.4057 C   0  0  0  0  0  0  0  0  0  0  0  0
    0.8703    2.0453   -2.7917 C   0  0  0  0  0  0  0  0  0  0  0  0
    0.8998    0.8483   -3.4907 C   0  0  0  0  0  0  0  0  0  0  0  0
    0.8967   -0.3491   -2.7917 C   0  0  0  0  0  0  0  0  0  0  0  0
    0.8662   -0.3464   -1.4057 C   0  0  0  0  0  0  0  0  0  0  0  0
    0.2500   -0.2191    1.2882 H   0  0  0  0  0  0  0  0  0  0  0  0
    1.8621    0.8589    1.1989 H   0  0  0  0  0  0  0  0  0  0  0  0
    0.3288    1.7255    1.2088 H   0  0  0  0  0  0  0  0  0  0  0  0
    0.8132    2.9830   -0.8678 H   0  0  0  0  0  0  0  0  0  0  0  0
    0.8676    2.9865   -3.3274 H   0  0  0  0  0  0  0  0  0  0  0  0
    0.9210    0.8485   -4.5730 H   0  0  0  0  0  0  0  0  0  0  0  0
    0.9148   -1.2901   -3.3274 H   0  0  0  0  0  0  0  0  0  0  0  0
    0.8603   -1.2879   -0.8678 H   0  0  0  0  0  0  0  0  0  0  0  0
  1  2  2  3
  1  6  1  0
  1  7  1  0
  2  3  1  0
  2  8  1  0
  3  4  1  0
  3  9  1  0
  4  5  2  3
  4 10  1  0
  5 11  1  0
  5 12  1  0
 13 14  1  0
 13 20  1  0
 13 21  1  0
 13 22  1  0
 14 15  2  0
 14 19  1  0
 15 16  1  0
 15 23  1  0
 16 17  2  0
 16 24  1  0
 17 18  1  0
 17 25  1  0
 18 19  2  0
 18 26  1  0
 19 27  1  0
M  RAD  1   3   2
M  END
>  <reaction>  (8) 
rxn_1441

>  <mol_properties>  (8) 
{"1": {"label": "*0", "atom_type": "Cd"}, "2": {"label": "*1", "atom_type": "Cs"}, "12": {"label": "*3", "atom_type": "Cd"}, "13": {"label": "*4", "atom_type": "Cd"}, "19": {"label": "*2", "atom_type": "H0"}}

>  <type>  (8) 
unop_4

>  <geom_source>  (8) 
Heuristics

$$$$

     RDKit          3D

 27 26  0  0  0  0  0  0  0  0999 V2000
   -1.7938   -0.8998    3.9640 C   0  0  0  0  0  0  0  0  0  0  0  0
   -0.7254   -0.8872    3.1834 C   0  0  0  0  0  0  0  0  0  0  0  0
   -0.7544   -0.9397    1.6884 C   0  0  0  0  0  3  0  0  0  0  0  0
   -0.0892   -2.1471    1.0856 C   0  0  0  0  0  0  0  0  0  0  0  0
    0.3147   -3.2221    1.7439 C   0  0  0  0  0  0  0  0  0  0  0  0
   -1.7082   -0.8513    5.0424 H   0  0  0  0  0  0  0  0  0  0  0  0
   -2.7955   -0.9573    3.5515 H   0  0  0  0  0  0  0  0  0  0  0  0
    0.2617   -0.8377    3.6359 H   0  0  0  0  0  0  0  0  0  0  0  0
   -1.7891   -0.8900    1.3332 H   0  0  0  0  0  0  0  0  0  0  0  0
    0.0496   -2.1063    0.0087 H   0  0  0  0  0  0  0  0  0  0  0  0
    0.7796   -4.0520    1.2270 H   0  0  0  0  0  0  0  0  0  0  0  0
    0.1894   -3.3155    2.8165 H   0  0  0  0  0  0  0  0  0  0  0  0
    0.4285    1.1994    0.7337 C   0  0  0  0  0  0  0  0  0  0  0  0
    0.4285    1.1994   -0.7700 C   0  0  0  0  0  0  0  0  0  0  0  0
    0.4285    2.3937   -1.4841 C   0  0  0  0  0  0  0  0  0  0  0  0
    0.4589    2.3970   -2.8701 C   0  0  0  0  0  0  0  0  0  0  0  0
    0.4884    1.2000   -3.5691 C   0  0  0  0  0  0  0  0  0  0  0  0
    0.4853    0.0027   -2.8701 C   0  0  0  0  0  0  0  0  0  0  0  0
    0.4548    0.0053   -1.4841 C   0  0  0  0  0  0  0  0  0  0  0  0
   -0.1614    0.1327    1.2098 H   0  0  0  0  0  0  0  0  0  0  0  0
    1.4507    1.2106    1.1205 H   0  0  0  0  0  0  0  0  0  0  0  0
   -0.0826    2.0773    1.1304 H   0  0  0  0  0  0  0  0  0  0  0  0
    0.4018    3.3348   -0.9463 H   0  0  0  0  0  0  0  0  0  0  0  0
    0.4563    3.3383   -3.4058 H   0  0  0  0  0  0  0  0  0  0  0  0
    0.5096    1.2003   -4.6515 H   0  0  0  0  0  0  0  0  0  0  0  0
    0.5034   -0.9384   -3.4058 H   0  0  0  0  0  0  0  0  0  0  0  0
    0.4489   -0.9361   -0.9463 H   0  0  0  0  0  0  0  0  0  0  0  0
  1  2  2  3
  1  6  1  0
  1  7  1  0
  2  3  1  0
  2  8  1  0
  3  4  1  0
  3  9  1  0
  4  5  2  3
  4 10  1  0
  5 11  1  0
  5 12  1  0
 13 14  1  0
 13 20  1  0
 13 21  1  0
 13 22  1  0
 14 15  2  0
 14 19  1  0
 15 16  1  0
 15 23  1  0
 16 17  2  0
 16 24  1  0
 17 18  1  0
 17 25  1  0
 18 19  2  0
 18 26  1  0
 19 27  1  0
M  RAD  1   3   2
M  END
>  <reaction>  (9) 
rxn_1441

>  <mol_properties>  (9) 
{"1": {"label": "*0", "atom_type": "Cd"}, "2": {"label": "*1", "atom_type": "Cs"}, "12": {"label": "*3", "atom_type": "Cd"}, "13": {"label": "*4", "atom_type": "Cd"}, "19": {"label": "*2", "atom_type": "H0"}}

>  <type>  (9) 
unop_5

>  <geom_source>  (9) 
Heuristics

$$$$

     RDKit          3D

 27 26  0  0  0  0  0  0  0  0999 V2000
   -2.8845   -1.9526    1.8996 C   0  0  0  0  0  0  0  0  0  0  0  0
   -1.9362   -1.0342    1.8076 C   0  0  0  0  0  0  0  0  0  0  0  0
   -0.4785   -1.3209    1.6301 C   0  0  0  0  0  3  0  0  0  0  0  0
    0.4004   -0.8460    2.7552 C   0  0  0  0  0  0  0  0  0  0  0  0
   -0.0139   -0.4047    3.9323 C   0  0  0  0  0  0  0  0  0  0  0  0
   -3.9259   -1.6815    2.0196 H   0  0  0  0  0  0  0  0  0  0  0  0
   -2.6529   -3.0115    1.8562 H   0  0  0  0  0  0  0  0  0  0  0  0
   -2.2081    0.0167    1.8645 H   0  0  0  0  0  0  0  0  0  0  0  0
   -0.3241   -2.3958    1.4883 H   0  0  0  0  0  0  0  0  0  0  0  0
    1.4675   -0.8905    2.5555 H   0  0  0  0  0  0  0  0  0  0  0  0
    0.6913   -0.0882    4.6902 H   0  0  0  0  0  0  0  0  0  0  0  0
   -1.0669   -0.3511    4.1837 H   0  0  0  0  0  0  0  0  0  0  0  0
    0.7044    0.8182    0.6754 C   0  0  0  0  0  0  0  0  0  0  0  0
    0.7044    0.8182   -0.8283 C   0  0  0  0  0  0  0  0  0  0  0  0
    0.7044    2.0125   -1.5424 C   0  0  0  0  0  0  0  0  0  0  0  0
    0.7349    2.0158   -2.9283 C   0  0  0  0  0  0  0  0  0  0  0  0
    0.7644    0.8188   -3.6274 C   0  0  0  0  0  0  0  0  0  0  0  0
    0.7613   -0.3785   -2.9283 C   0  0  0  0  0  0  0  0  0  0  0  0
    0.7307   -0.3759   -1.5424 C   0  0  0  0  0  0  0  0  0  0  0  0
    0.1145   -0.2486    1.1515 H   0  0  0  0  0  0  0  0  0  0  0  0
    1.7266    0.8294    1.0622 H   0  0  0  0  0  0  0  0  0  0  0  0
    0.1934    1.6961    1.0722 H   0  0  0  0  0  0  0  0  0  0  0  0
    0.6778    2.9536   -1.0045 H   0  0  0  0  0  0  0  0  0  0  0  0
    0.7322    2.9570   -3.4641 H   0  0  0  0  0  0  0  0  0  0  0  0
    0.7856    0.8191   -4.7097 H   0  0  0  0  0  0  0  0  0  0  0  0
    0.7794   -1.3196   -3.4641 H   0  0  0  0  0  0  0  0  0  0  0  0
    0.7249   -1.3173   -1.0045 H   0  0  0  0  0  0  0  0  0  0  0  0
  1  2  2  3
  1  6  1  0
  1  7  1  0
  2  3  1  0
  2  8  1  0
  3  4  1  0
  3  9  1  0
  4  5  2  3
  4 10  1  0
  5 11  1  0
  5 12  1  0
 13 14  1  0
 13 20  1  0
 13 21  1  0
 13 22  1  0
 14 15  2  0
 14 19  1  0
 15 16  1  0
 15 23  1  0
 16 17  2  0
 16 24  1  0
 17 18  1  0
 17 25  1  0
 18 19  2  0
 18 26  1  0
 19 27  1  0
M  RAD  1   3   2
M  END
>  <reaction>  (10) 
rxn_1441

>  <mol_properties>  (10) 
{"1": {"label": "*0", "atom_type": "Cd"}, "2": {"label": "*1", "atom_type": "Cs"}, "12": {"label": "*3", "atom_type": "Cd"}, "13": {"label": "*4", "atom_type": "Cd"}, "19": {"label": "*2", "atom_type": "H0"}}

>  <type>  (10) 
unop_6

>  <geom_source>  (10) 
Heuristics

$$$$

     RDKit          3D

 27 26  0  0  0  0  0  0  0  0999 V2000
   -2.8436   -1.6112    2.7124 C   0  0  0  0  0  0  0  0  0  0  0  0
   -1.8190   -0.8360    2.3957 C   0  0  0  0  0  0  0  0  0  0  0  0
   -0.6516   -1.2562    1.5594 C   0  0  0  0  0  3  0  0  0  0  0  0
    0.6768   -1.2195    2.2650 C   0  0  0  0  0  0  0  0  0  0  0  0
    0.8622   -1.0570    3.5655 C   0  0  0  0  0  0  0  0  0  0  0  0
   -3.6649   -1.2460    3.3162 H   0  0  0  0  0  0  0  0  0  0  0  0
   -2.8991   -2.6412    2.3767 H   0  0  0  0  0  0  0  0  0  0  0  0
   -1.7963    0.1882    2.7592 H   0  0  0  0  0  0  0  0  0  0  0  0
   -0.8175   -2.2650    1.1669 H   0  0  0  0  0  0  0  0  0  0  0  0
    1.5429   -1.3506    1.6221 H   0  0  0  0  0  0  0  0  0  0  0  0
    1.8574   -1.0506    3.9916 H   0  0  0  0  0  0  0  0  0  0  0  0
    0.0307   -0.9328    4.2497 H   0  0  0  0  0  0  0  0  0  0  0  0
    0.5313    0.8829    0.6047 C   0  0  0  0  0  0  0  0  0  0  0  0
    0.5313    0.8829   -0.8990 C   0  0  0  0  0  0  0  0  0  0  0  0
    0.5313    2.0772   -1.6130 C   0  0  0  0  0  0  0  0  0  0  0  0
    0.5617    2.0806   -2.9990 C   0  0  0  0  0  0  0  0  0  0  0  0
    0.5913    0.8836   -3.6981 C   0  0  0  0  0  0  0  0  0  0  0  0
    0.5881   -0.3138   -2.9990 C   0  0  0  0  0  0  0  0  0  0  0  0
    0.5576   -0.3111   -1.6130 C   0  0  0  0  0  0  0  0  0  0  0  0
   -0.0586   -0.1838    1.0808 H   0  0  0  0  0  0  0  0  0  0  0  0
    1.5535    0.8942    0.9915 H   0  0  0  0  0  0  0  0  0  0  0  0
    0.0203    1.7608    1.0015 H   0  0  0  0  0  0  0  0  0  0  0  0
    0.5047    3.0183   -1.0752 H   0  0  0  0  0  0  0  0  0  0  0  0
    0.5591    3.0218   -3.5348 H   0  0  0  0  0  0  0  0  0  0  0  0
    0.6124    0.8838   -4.7804 H   0  0  0  0  0  0  0  0  0  0  0  0
    0.6063   -1.2548   -3.5348 H   0  0  0  0  0  0  0  0  0  0  0  0
    0.5518   -1.2526   -1.0752 H   0  0  0  0  0  0  0  0  0  0  0  0
  1  2  2  3
  1  6  1  0
  1  7  1  0
  2  3  1  0
  2  8  1  0
  3  4  1  0
  3  9  1  0
  4  5  2  3
  4 10  1  0
  5 11  1  0
  5 12  1  0
 13 14  1  0
 13 20  1  0
 13 21  1  0
 13 22  1  0
 14 15  2  0
 14 19  1  0
 15 16  1  0
 15 23  1  0
 16 17  2  0
 16 24  1  0
 17 18  1  0
 17 25  1  0
 18 19  2  0
 18 26  1  0
 19 27  1  0
M  RAD  1   3   2
M  END
>  <reaction>  (11) 
rxn_1441

>  <mol_properties>  (11) 
{"1": {"label": "*0", "atom_type": "Cd"}, "2": {"label": "*1", "atom_type": "Cs"}, "12": {"label": "*3", "atom_type": "Cd"}, "13": {"label": "*4", "atom_type": "Cd"}, "19": {"label": "*2", "atom_type": "H0"}}

>  <type>  (11) 
unop_7

>  <geom_source>  (11) 
Heuristics

$$$$

     RDKit          3D

 27 26  0  0  0  0  0  0  0  0999 V2000
    1.1661   -2.0508    3.0448 C   0  0  0  0  0  0  0  0  0  0  0  0
    0.3566   -1.9337    2.0046 C   0  0  0  0  0  0  0  0  0  0  0  0
   -0.6612   -0.8515    1.8271 C   0  0  0  0  0  3  0  0  0  0  0  0
   -2.0864   -1.3292    1.7614 C   0  0  0  0  0  0  0  0  0  0  0  0
   -2.5112   -2.5499    2.0468 C   0  0  0  0  0  0  0  0  0  0  0  0
    1.8893   -2.8539    3.1122 H   0  0  0  0  0  0  0  0  0  0  0  0
    1.1359   -1.3448    3.8678 H   0  0  0  0  0  0  0  0  0  0  0  0
    0.4119   -2.6671    1.2042 H   0  0  0  0  0  0  0  0  0  0  0  0
   -0.5696   -0.1170    2.6342 H   0  0  0  0  0  0  0  0  0  0  0  0
   -2.8100   -0.5775    1.4580 H   0  0  0  0  0  0  0  0  0  0  0  0
   -3.5608   -2.8063    1.9794 H   0  0  0  0  0  0  0  0  0  0  0  0
   -1.8307   -3.3317    2.3640 H   0  0  0  0  0  0  0  0  0  0  0  0
    0.5217    1.2876    0.8724 C   0  0  0  0  0  0  0  0  0  0  0  0
    0.5217    1.2876   -0.6313 C   0  0  0  0  0  0  0  0  0  0  0  0
    0.5217    2.4819   -1.3454 C   0  0  0  0  0  0  0  0  0  0  0  0
    0.5521    2.4853   -2.7314 C   0  0  0  0  0  0  0  0  0  0  0  0
    0.5817    1.2883   -3.4304 C   0  0  0  0  0  0  0  0  0  0  0  0
    0.5785    0.0909   -2.7314 C   0  0  0  0  0  0  0  0  0  0  0  0
    0.5480    0.0936   -1.3454 C   0  0  0  0  0  0  0  0  0  0  0  0
   -0.0682    0.2209    1.3485 H   0  0  0  0  0  0  0  0  0  0  0  0
    1.5439    1.2989    1.2592 H   0  0  0  0  0  0  0  0  0  0  0  0
    0.0106    2.1655    1.2692 H   0  0  0  0  0  0  0  0  0  0  0  0
    0.4951    3.4230   -0.8075 H   0  0  0  0  0  0  0  0  0  0  0  0
    0.5495    3.4265   -3.2671 H   0  0  0  0  0  0  0  0  0  0  0  0
    0.6028    1.2885   -4.5127 H   0  0  0  0  0  0  0  0  0  0  0  0
    0.5966   -0.8501   -3.2671 H   0  0  0  0  0  0  0  0  0  0  0  0
    0.5422   -0.8479   -0.8075 H   0  0  0  0  0  0  0  0  0  0  0  0
  1  2  2  3
  1  6  1  0
  1  7  1  0
  2  3  1  0
  2  8  1  0
  3  4  1  0
  3  9  1  0
  4  5  2  3
  4 10  1  0
  5 11  1  0
  5 12  1  0
 13 14  1  0
 13 20  1  0
 13 21  1  0
 13 22  1  0
 14 15  2  0
 14 19  1  0
 15 16  1  0
 15 23  1  0
 16 17  2  0
 16 24  1  0
 17 18  1  0
 17 25  1  0
 18 19  2  0
 18 26  1  0
 19 27  1  0
M  RAD  1   3   2
M  END
>  <reaction>  (12) 
rxn_1441

>  <mol_properties>  (12) 
{"1": {"label": "*0", "atom_type": "Cd"}, "2": {"label": "*1", "atom_type": "Cs"}, "12": {"label": "*3", "atom_type": "Cd"}, "13": {"label": "*4", "atom_type": "Cd"}, "19": {"label": "*2", "atom_type": "H0"}}

>  <type>  (12) 
unop_8

>  <geom_source>  (12) 
Heuristics

$$$$

     RDKit          3D

 27 26  0  0  0  0  0  0  0  0999 V2000
   -1.6002   -2.8803    0.6332 C   0  0  0  0  0  0  0  0  0  0  0  0
   -1.3484   -1.6214    0.9539 C   0  0  0  0  0  0  0  0  0  0  0  0
   -0.2939   -1.1759    1.9174 C   0  0  0  0  0  3  0  0  0  0  0  0
   -0.8120   -0.4555    3.1325 C   0  0  0  0  0  0  0  0  0  0  0  0
   -2.0791   -0.3735    3.5063 C   0  0  0  0  0  0  0  0  0  0  0  0
   -2.3735   -3.1397   -0.0790 H   0  0  0  0  0  0  0  0  0  0  0  0
   -1.0392   -3.6990    1.0712 H   0  0  0  0  0  0  0  0  0  0  0  0
   -1.9390   -0.8299    0.4996 H   0  0  0  0  0  0  0  0  0  0  0  0
    0.3026   -2.0352    2.2414 H   0  0  0  0  0  0  0  0  0  0  0  0
   -0.0510    0.0227    3.7431 H   0  0  0  0  0  0  0  0  0  0  0  0
   -2.3636    0.1616    4.4034 H   0  0  0  0  0  0  0  0  0  0  0  0
   -2.8738   -0.8420    2.9372 H   0  0  0  0  0  0  0  0  0  0  0  0
    0.8890    0.9632    0.9627 C   0  0  0  0  0  0  0  0  0  0  0  0
    0.8890    0.9632   -0.5410 C   0  0  0  0  0  0  0  0  0  0  0  0
    0.8890    2.1575   -1.2551 C   0  0  0  0  0  0  0  0  0  0  0  0
    0.9194    2.1609   -2.6410 C   0  0  0  0  0  0  0  0  0  0  0  0
    0.9489    0.9639   -3.3401 C   0  0  0  0  0  0  0  0  0  0  0  0
    0.9458   -0.2335   -2.6410 C   0  0  0  0  0  0  0  0  0  0  0  0
    0.9153   -0.2308   -1.2551 C   0  0  0  0  0  0  0  0  0  0  0  0
    0.2991   -0.1035    1.4388 H   0  0  0  0  0  0  0  0  0  0  0  0
    1.9112    0.9745    1.3495 H   0  0  0  0  0  0  0  0  0  0  0  0
    0.3779    1.8411    1.3595 H   0  0  0  0  0  0  0  0  0  0  0  0
    0.8623    3.0986   -0.7172 H   0  0  0  0  0  0  0  0  0  0  0  0
    0.9168    3.1021   -3.1768 H   0  0  0  0  0  0  0  0  0  0  0  0
    0.9701    0.9641   -4.4224 H   0  0  0  0  0  0  0  0  0  0  0  0
    0.9639   -1.1745   -3.1768 H   0  0  0  0  0  0  0  0  0  0  0  0
    0.9094   -1.1723   -0.7172 H   0  0  0  0  0  0  0  0  0  0  0  0
  1  2  2  3
  1  6  1  0
  1  7  1  0
  2  3  1  0
  2  8  1  0
  3  4  1  0
  3  9  1  0
  4  5  2  3
  4 10  1  0
  5 11  1  0
  5 12  1  0
 13 14  1  0
 13 20  1  0
 13 21  1  0
 13 22  1  0
 14 15  2  0
 14 19  1  0
 15 16  1  0
 15 23  1  0
 16 17  2  0
 16 24  1  0
 17 18  1  0
 17 25  1  0
 18 19  2  0
 18 26  1  0
 19 27  1  0
M  RAD  1   3   2
M  END
>  <reaction>  (13) 
rxn_1441

>  <mol_properties>  (13) 
{"1": {"label": "*0", "atom_type": "Cd"}, "2": {"label": "*1", "atom_type": "Cs"}, "12": {"label": "*3", "atom_type": "Cd"}, "13": {"label": "*4", "atom_type": "Cd"}, "19": {"label": "*2", "atom_type": "H0"}}

>  <type>  (13) 
unop_9

>  <geom_source>  (13) 
Heuristics

$$$$

     RDKit          3D

 27 26  0  0  0  0  0  0  0  0999 V2000
    1.1341   -2.6254    2.0753 C   0  0  0  0  0  0  0  0  0  0  0  0
    0.1185   -2.0519    1.4504 C   0  0  0  0  0  0  0  0  0  0  0  0
   -0.6090   -0.8362    1.9316 C   0  0  0  0  0  3  0  0  0  0  0  0
   -2.0665   -1.0516    2.2367 C   0  0  0  0  0  0  0  0  0  0  0  0
   -2.6801   -2.2219    2.3133 C   0  0  0  0  0  0  0  0  0  0  0  0
    1.6261   -3.5014    1.6715 H   0  0  0  0  0  0  0  0  0  0  0  0
    1.5124   -2.2374    3.0151 H   0  0  0  0  0  0  0  0  0  0  0  0
   -0.2369   -2.4766    0.5150 H   0  0  0  0  0  0  0  0  0  0  0  0
   -0.1153   -0.4342    2.8226 H   0  0  0  0  0  0  0  0  0  0  0  0
   -2.6381   -0.1448    2.4146 H   0  0  0  0  0  0  0  0  0  0  0  0
   -3.7354   -2.2853    2.5465 H   0  0  0  0  0  0  0  0  0  0  0  0
   -2.1520   -3.1551    2.1546 H   0  0  0  0  0  0  0  0  0  0  0  0
    0.5739    1.3029    0.9769 C   0  0  0  0  0  0  0  0  0  0  0  0
    0.5739    1.3029   -0.5268 C   0  0  0  0  0  0  0  0  0  0  0  0
    0.5739    2.4972   -1.2409 C   0  0  0  0  0  0  0  0  0  0  0  0
    0.6044    2.5005   -2.6268 C   0  0  0  0  0  0  0  0  0  0  0  0
    0.6339    1.3035   -3.3259 C   0  0  0  0  0  0  0  0  0  0  0  0
    0.6308    0.1062   -2.6268 C   0  0  0  0  0  0  0  0  0  0  0  0
    0.6002    0.1088   -1.2409 C   0  0  0  0  0  0  0  0  0  0  0  0
   -0.0160    0.2361    1.4530 H   0  0  0  0  0  0  0  0  0  0  0  0
    1.5961    1.3141    1.3637 H   0  0  0  0  0  0  0  0  0  0  0  0
    0.0629    2.1808    1.3737 H   0  0  0  0  0  0  0  0  0  0  0  0
    0.5473    3.4383   -0.7030 H   0  0  0  0  0  0  0  0  0  0  0  0
    0.6017    3.4418   -3.1626 H   0  0  0  0  0  0  0  0  0  0  0  0
    0.6550    1.3038   -4.4082 H   0  0  0  0  0  0  0  0  0  0  0  0
    0.6489   -0.8349   -3.1626 H   0  0  0  0  0  0  0  0  0  0  0  0
    0.5944   -0.8326   -0.7030 H   0  0  0  0  0  0  0  0  0  0  0  0
  1  2  2  3
  1  6  1  0
  1  7  1  0
  2  3  1  0
  2  8  1  0
  3  4  1  0
  3  9  1  0
  4  5  2  3
  4 10  1  0
  5 11  1  0
  5 12  1  0
 13 14  1  0
 13 20  1  0
 13 21  1  0
 13 22  1  0
 14 15  2  0
 14 19  1  0
 15 16  1  0
 15 23  1  0
 16 17  2  0
 16 24  1  0
 17 18  1  0
 17 25  1  0
 18 19  2  0
 18 26  1  0
 19 27  1  0
M  RAD  1   3   2
M  END
>  <reaction>  (14) 
rxn_1441

>  <mol_properties>  (14) 
{"1": {"label": "*0", "atom_type": "Cd"}, "2": {"label": "*1", "atom_type": "Cs"}, "12": {"label": "*3", "atom_type": "Cd"}, "13": {"label": "*4", "atom_type": "Cd"}, "19": {"label": "*2", "atom_type": "H0"}}

>  <type>  (14) 
unop_10

>  <geom_source>  (14) 
Heuristics

$$$$

     RDKit          3D

 27 26  0  0  0  0  0  0  0  0999 V2000
   -2.5093   -1.3213    3.3859 C   0  0  0  0  0  0  0  0  0  0  0  0
   -1.4064   -0.7695    2.9062 C   0  0  0  0  0  0  0  0  0  0  0  0
   -0.7831   -1.1039    1.5876 C   0  0  0  0  0  3  0  0  0  0  0  0
    0.6020   -1.6852    1.6729 C   0  0  0  0  0  0  0  0  0  0  0  0
    1.2036   -2.1027    2.7756 C   0  0  0  0  0  0  0  0  0  0  0  0
   -2.9167   -1.0306    4.3461 H   0  0  0  0  0  0  0  0  0  0  0  0
   -3.0469   -2.0844    2.8333 H   0  0  0  0  0  0  0  0  0  0  0  0
   -0.8916   -0.0144    3.4947 H   0  0  0  0  0  0  0  0  0  0  0  0
   -1.4262   -1.7979    1.0362 H   0  0  0  0  0  0  0  0  0  0  0  0
    1.1265   -1.7650    0.7246 H   0  0  0  0  0  0  0  0  0  0  0  0
    2.2035   -2.5163    2.7443 H   0  0  0  0  0  0  0  0  0  0  0  0
    0.7188   -2.0541    3.7438 H   0  0  0  0  0  0  0  0  0  0  0  0
    0.3997    1.0351    0.6330 C   0  0  0  0  0  0  0  0  0  0  0  0
    0.3997    1.0351   -0.8707 C   0  0  0  0  0  0  0  0  0  0  0  0
    0.3997    2.2295   -1.5848 C   0  0  0  0  0  0  0  0  0  0  0  0
    0.4302    2.2328   -2.9708 C   0  0  0  0  0  0  0  0  0  0  0  0
    0.4597    1.0358   -3.6698 C   0  0  0  0  0  0  0  0  0  0  0  0
    0.4566   -0.1616   -2.9708 C   0  0  0  0  0  0  0  0  0  0  0  0
    0.4261   -0.1589   -1.5848 C   0  0  0  0  0  0  0  0  0  0  0  0
   -0.1901   -0.0316    1.1091 H   0  0  0  0  0  0  0  0  0  0  0  0
    1.4220    1.0464    1.0197 H   0  0  0  0  0  0  0  0  0  0  0  0
   -0.1113    1.9130    1.0297 H   0  0  0  0  0  0  0  0  0  0  0  0
    0.3731    3.1706   -1.0470 H   0  0  0  0  0  0  0  0  0  0  0  0
    0.4275    3.1740   -3.5065 H   0  0  0  0  0  0  0  0  0  0  0  0
    0.4809    1.0360   -4.7522 H   0  0  0  0  0  0  0  0  0  0  0  0
    0.4747   -1.1026   -3.5065 H   0  0  0  0  0  0  0  0  0  0  0  0
    0.4202   -1.1004   -1.0470 H   0  0  0  0  0  0  0  0  0  0  0  0
  1  2  2  3
  1  6  1  0
  1  7  1  0
  2  3  1  0
  2  8  1  0
  3  4  1  0
  3  9  1  0
  4  5  2  3
  4 10  1  0
  5 11  1  0
  5 12  1  0
 13 14  1  0
 13 20  1  0
 13 21  1  0
 13 22  1  0
 14 15  2  0
 14 19  1  0
 15 16  1  0
 15 23  1  0
 16 17  2  0
 16 24  1  0
 17 18  1  0
 17 25  1  0
 18 19  2  0
 18 26  1  0
 19 27  1  0
M  RAD  1   3   2
M  END
>  <reaction>  (15) 
rxn_1441

>  <mol_properties>  (15) 
{"1": {"label": "*0", "atom_type": "Cd"}, "2": {"label": "*1", "atom_type": "Cs"}, "12": {"label": "*3", "atom_type": "Cd"}, "13": {"label": "*4", "atom_type": "Cd"}, "19": {"label": "*2", "atom_type": "H0"}}

>  <type>  (15) 
unop_11

>  <geom_source>  (15) 
Heuristics

$$$$

     RDKit          3D

 27 26  0  0  0  0  0  0  0  0999 V2000
   -0.4547   -3.1148    0.6602 C   0  0  0  0  0  0  0  0  0  0  0  0
   -0.8237   -1.8625    0.8763 C   0  0  0  0  0  0  0  0  0  0  0  0
   -0.3547   -1.0144    2.0163 C   0  0  0  0  0  3  0  0  0  0  0  0
   -1.4392   -0.5652    2.9575 C   0  0  0  0  0  0  0  0  0  0  0  0
   -2.6849   -1.0124    2.9785 C   0  0  0  0  0  0  0  0  0  0  0  0
   -0.8236   -3.6754   -0.1896 H   0  0  0  0  0  0  0  0  0  0  0  0
    0.2329   -3.6252    1.3261 H   0  0  0  0  0  0  0  0  0  0  0  0
   -1.5217   -1.3892    0.1905 H   0  0  0  0  0  0  0  0  0  0  0  0
    0.4126   -1.5478    2.5873 H   0  0  0  0  0  0  0  0  0  0  0  0
   -1.1384    0.1889    3.6796 H   0  0  0  0  0  0  0  0  0  0  0  0
   -3.4012   -0.6372    3.6983 H   0  0  0  0  0  0  0  0  0  0  0  0
   -3.0308   -1.7714    2.2863 H   0  0  0  0  0  0  0  0  0  0  0  0
    0.8282    1.1247    1.0616 C   0  0  0  0  0  0  0  0  0  0  0  0
    0.8282    1.1247   -0.4421 C   0  0  0  0  0  0  0  0  0  0  0  0
    0.8282    2.3190   -1.1562 C   0  0  0  0  0  0  0  0  0  0  0  0
    0.8586    2.3223   -2.5422 C   0  0  0  0  0  0  0  0  0  0  0  0
    0.8882    1.1253   -3.2412 C   0  0  0  0  0  0  0  0  0  0  0  0
    0.8850   -0.0720   -2.5422 C   0  0  0  0  0  0  0  0  0  0  0  0
    0.8545   -0.0694   -1.1562 C   0  0  0  0  0  0  0  0  0  0  0  0
    0.2383    0.0579    1.5377 H   0  0  0  0  0  0  0  0  0  0  0  0
    1.8504    1.1359    1.4484 H   0  0  0  0  0  0  0  0  0  0  0  0
    0.3172    2.0026    1.4583 H   0  0  0  0  0  0  0  0  0  0  0  0
    0.8016    3.2601   -0.6184 H   0  0  0  0  0  0  0  0  0  0  0  0
    0.8560    3.2636   -3.0779 H   0  0  0  0  0  0  0  0  0  0  0  0
    0.9093    1.1256   -4.3236 H   0  0  0  0  0  0  0  0  0  0  0  0
    0.9032   -1.0131   -3.0779 H   0  0  0  0  0  0  0  0  0  0  0  0
    0.8487   -1.0108   -0.6184 H   0  0  0  0  0  0  0  0  0  0  0  0
  1  2  2  3
  1  6  1  0
  1  7  1  0
  2  3  1  0
  2  8  1  0
  3  4  1  0
  3  9  1  0
  4  5  2  3
  4 10  1  0
  5 11  1  0
  5 12  1  0
 13 14  1  0
 13 20  1  0
 13 21  1  0
 13 22  1  0
 14 15  2  0
 14 19  1  0
 15 16  1  0
 15 23  1  0
 16 17  2  0
 16 24  1  0
 17 18  1  0
 17 25  1  0
 18 19  2  0
 18 26  1  0
 19 27  1  0
M  RAD  1   3   2
M  END
>  <reaction>  (16) 
rxn_1441

>  <mol_properties>  (16) 
{"1": {"label": "*0", "atom_type": "Cd"}, "2": {"label": "*1", "atom_type": "Cs"}, "12": {"label": "*3", "atom_type": "Cd"}, "13": {"label": "*4", "atom_type": "Cd"}, "19": {"label": "*2", "atom_type": "H0"}}

>  <type>  (16) 
unop_12

>  <geom_source>  (16) 
Heuristics

$$$$

     RDKit          3D

 27 26  0  0  0  0  0  0  0  0999 V2000
   -1.7069    0.4199    0.0577 C   0  0  0  0  0  3  0  0  0  0  0  0
    1.6128    0.1268   -0.7761 C   0  0  0  0  0  0  0  0  0  0  0  0
   -1.8298   -1.0619    0.2680 C   0  0  0  0  0  0  0  0  0  0  0  0
   -3.0002    1.0005   -0.4377 C   0  0  0  0  0  0  0  0  0  0  0  0
    2.8309   -0.1568   -1.4119 C   0  0  0  0  0  0  0  0  0  0  0  0
    1.5558    0.1840    0.6230 C   0  0  0  0  0  0  0  0  0  0  0  0
    3.9829   -0.3812   -0.6508 C   0  0  0  0  0  0  0  0  0  0  0  0
    3.9223   -0.3233    0.7450 C   0  0  0  0  0  0  0  0  0  0  0  0
    2.7095   -0.0409    1.3814 C   0  0  0  0  0  0  0  0  0  0  0  0
    0.3779    0.3677   -1.5797 C   0  0  0  0  0  0  0  0  0  0  0  0
   -2.3664   -1.5759    1.3784 C   0  0  0  0  0  0  0  0  0  0  0  0
   -4.0017    1.3056    0.3924 C   0  0  0  0  0  0  0  0  0  0  0  0
   -1.3681    0.9300    0.9863 H   0  0  0  0  0  0  0  0  0  0  0  0
   -0.6963    0.6448   -0.9611 H   0  0  0  0  0  0  0  0  0  0  0  0
   -1.4637   -1.7314   -0.5041 H   0  0  0  0  0  0  0  0  0  0  0  0
   -3.1176    1.1829   -1.5013 H   0  0  0  0  0  0  0  0  0  0  0  0
    2.8869   -0.2035   -2.4925 H   0  0  0  0  0  0  0  0  0  0  0  0
    4.9219   -0.5998   -1.1426 H   0  0  0  0  0  0  0  0  0  0  0  0
    0.6209    0.4020    1.1246 H   0  0  0  0  0  0  0  0  0  0  0  0
    4.8142   -0.4971    1.3330 H   0  0  0  0  0  0  0  0  0  0  0  0
    2.6636    0.0037    2.4619 H   0  0  0  0  0  0  0  0  0  0  0  0
   -2.4376   -2.6520    1.4984 H   0  0  0  0  0  0  0  0  0  0  0  0
   -2.7304   -0.9339    2.1742 H   0  0  0  0  0  0  0  0  0  0  0  0
   -3.9112    1.1468    1.4623 H   0  0  0  0  0  0  0  0  0  0  0  0
   -4.9221    1.7259    0.0003 H   0  0  0  0  0  0  0  0  0  0  0  0
    0.1344   -0.5299   -2.1860 H   0  0  0  0  0  0  0  0  0  0  0  0
    0.5182    1.2469   -2.2431 H   0  0  0  0  0  0  0  0  0  0  0  0
  1  3  1  0
  1  4  1  0
  1 13  1  0
  2 10  1  0
  2  5  2  0
  2  6  1  0
  3 11  2  3
  3 15  1  0
  4 12  2  3
  4 16  1  0
  5  7  1  0
  5 17  1  0
  6  9  2  0
  6 19  1  0
  7  8  2  0
  7 18  1  0
  8  9  1  0
  8 20  1  0
  9 21  1  0
 10 14  1  0
 10 26  1  0
 10 27  1  0
 11 22  1  0
 11 23  1  0
 12 24  1  0
 12 25  1  0
M  RAD  1   1   2
M  END
>  <reaction>  (17) 
rxn_1441

>  <mol_properties>  (17) 
{"1": {"label": "*0", "atom_type": "Cd"}, "2": {"label": "*1", "atom_type": "Cs"}, "12": {"label": "*3", "atom_type": "Cd"}, "13": {"label": "*4", "atom_type": "Cd"}, "19": {"label": "*2", "atom_type": "H0"}}

>  <type>  (17) 
unop_13

>  <geom_source>  (17) 
AutoTST

$$$$

     RDKit          3D

 27 26  0  0  0  0  0  0  0  0999 V2000
    0.5556   -3.0083    1.2022 C   0  0  0  0  0  0  0  0  0  0  0  0
   -0.3056   -2.0150    1.0518 C   0  0  0  0  0  0  0  0  0  0  0  0
   -0.4889   -0.8850    2.0153 C   0  0  0  0  0  3  0  0  0  0  0  0
   -1.8557   -0.8018    2.6387 C   0  0  0  0  0  0  0  0  0  0  0  0
   -2.7996   -1.7272    2.5695 C   0  0  0  0  0  0  0  0  0  0  0  0
    0.6477   -3.7950    0.4639 H   0  0  0  0  0  0  0  0  0  0  0  0
    1.2028   -3.0696    2.0707 H   0  0  0  0  0  0  0  0  0  0  0  0
   -0.9430   -1.9942    0.1715 H   0  0  0  0  0  0  0  0  0  0  0  0
    0.2611   -0.9475    2.8108 H   0  0  0  0  0  0  0  0  0  0  0  0
   -2.0516    0.1091    3.1978 H   0  0  0  0  0  0  0  0  0  0  0  0
   -3.7562   -1.5872    3.0565 H   0  0  0  0  0  0  0  0  0  0  0  0
   -2.6493   -2.6570    2.0331 H   0  0  0  0  0  0  0  0  0  0  0  0
    0.6940    1.2541    1.0606 C   0  0  0  0  0  0  0  0  0  0  0  0
    0.6940    1.2541   -0.4431 C   0  0  0  0  0  0  0  0  0  0  0  0
    0.6940    2.4484   -1.1572 C   0  0  0  0  0  0  0  0  0  0  0  0
    0.7245    2.4517   -2.5432 C   0  0  0  0  0  0  0  0  0  0  0  0
    0.7540    1.2547   -3.2422 C   0  0  0  0  0  0  0  0  0  0  0  0
    0.7509    0.0573   -2.5432 C   0  0  0  0  0  0  0  0  0  0  0  0
    0.7203    0.0600   -1.1572 C   0  0  0  0  0  0  0  0  0  0  0  0
    0.1041    0.1873    1.5367 H   0  0  0  0  0  0  0  0  0  0  0  0
    1.7162    1.2653    1.4474 H   0  0  0  0  0  0  0  0  0  0  0  0
    0.1830    2.1319    1.4573 H   0  0  0  0  0  0  0  0  0  0  0  0
    0.6674    3.3895   -0.6194 H   0  0  0  0  0  0  0  0  0  0  0  0
    0.7218    3.3929   -3.0789 H   0  0  0  0  0  0  0  0  0  0  0  0
    0.7751    1.2550   -4.3246 H   0  0  0  0  0  0  0  0  0  0  0  0
    0.7690   -0.8837   -3.0789 H   0  0  0  0  0  0  0  0  0  0  0  0
    0.7145   -0.8814   -0.6194 H   0  0  0  0  0  0  0  0  0  0  0  0
  1  2  2  3
  1  6  1  0
  1  7  1  0
  2  3  1  0
  2  8  1  0
  3  4  1  0
  3  9  1  0
  4  5  2  3
  4 10  1  0
  5 11  1  0
  5 12  1  0
 13 14  1  0
 13 20  1  0
 13 21  1  0
 13 22  1  0
 14 15  2  0
 14 19  1  0
 15 16  1  0
 15 23  1  0
 16 17  2  0
 16 24  1  0
 17 18  1  0
 17 25  1  0
 18 19  2  0
 18 26  1  0
 19 27  1  0
M  RAD  1   3   2
M  END
>  <reaction>  (18) 
rxn_1441

>  <mol_properties>  (18) 
{"1": {"label": "*0", "atom_type": "Cd"}, "2": {"label": "*1", "atom_type": "Cs"}, "12": {"label": "*3", "atom_type": "Cd"}, "13": {"label": "*4", "atom_type": "Cd"}, "19": {"label": "*2", "atom_type": "H0"}}

>  <type>  (18) 
unop_14

>  <geom_source>  (18) 
gaussian_log

$$$$
