
     RDKit          3D

  7  6  0  0  0  0  0  0  0  0999 V2000
    1.6964   -0.0938    0.0583 C   0  0  0  0  0  0  0  0  0  0  0  0
    0.5019   -0.0278    0.0173 C   0  0  0  0  0  0  0  0  0  0  0  0
   -0.9505    0.0525   -0.0327 C   0  0  0  0  0  0  0  0  0  0  0  0
    2.7574   -0.1524    0.0947 H   0  0  0  0  0  0  0  0  0  0  0  0
   -1.2692    0.9972   -0.4754 H   0  0  0  0  0  0  0  0  0  0  0  0
   -1.3749   -0.0147    0.9700 H   0  0  0  0  0  0  0  0  0  0  0  0
   -1.3610   -0.7611   -0.6323 H   0  0  0  0  0  0  0  0  0  0  0  0
  1  2  3  0
  1  4  1  0
  2  3  1  0
  3  5  1  0
  3  6  1  0
  3  7  1  0
M  END
>  <reaction>  (1) 
rxn_1242

>  <mol_properties>  (1) 
{"2": {"label": "donator", "atom_type": "Cs"}, "4": {"label": "d_hydrogen", "atom_type": "H0"}}

>  <type>  (1) 
r1h

$$$$

     RDKit          3D

  7  6  0  0  0  0  0  0  0  0999 V2000
   -1.3496    0.0255    0.0758 C   0  0  0  0  0  0  0  0  0  0  0  0
   -0.0636   -0.0704   -0.0033 C   0  0  0  0  0  0  0  0  0  0  0  0
    1.2597   -0.1602   -0.0839 C   0  0  0  0  0  0  0  0  0  0  0  0
    2.2616    1.2090   -0.0064 S   0  0  0  0  0  1  0  0  0  0  0  0
   -1.8547   -0.0180    1.0345 H   0  0  0  0  0  0  0  0  0  0  0  0
   -1.9552    0.1601   -0.8138 H   0  0  0  0  0  0  0  0  0  0  0  0
    1.7017   -1.1460   -0.2029 H   0  0  0  0  0  0  0  0  0  0  0  0
  1  2  2  0
  1  5  1  0
  1  6  1  0
  2  3  2  0
  3  4  1  0
  3  7  1  0
M  RAD  1   4   2
M  END
>  <reaction>  (2) 
rxn_1242

>  <mol_properties>  (2) 
{"1": {"label": "acceptor", "atom_type": "Cd"}}

>  <type>  (2) 
r2

$$$$

     RDKit          3D

  8  7  0  0  0  0  0  0  0  0999 V2000
   -1.1617    0.0338    0.5053 C   0  0  0  0  0  0  0  0  0  0  0  0
   -0.1023    0.4503   -0.1863 C   0  0  0  0  0  0  0  0  0  0  0  0
    1.0978   -0.3557   -0.3104 C   0  0  0  0  0  0  0  0  0  0  0  0
    2.4251    0.0667   -1.1256 S   0  0  0  0  0  0  0  0  0  0  0  0
   -1.1653   -0.9292    1.0039 H   0  0  0  0  0  0  0  0  0  0  0  0
   -2.0546    0.6389    0.5948 H   0  0  0  0  0  0  0  0  0  0  0  0
   -0.0991    1.4132   -0.6847 H   0  0  0  0  0  0  0  0  0  0  0  0
    1.0601   -1.3180    0.2032 H   0  0  0  0  0  0  0  0  0  0  0  0
  1  2  2  3
  1  5  1  0
  1  6  1  0
  2  3  1  0
  2  7  1  0
  3  4  2  0
  3  8  1  0
M  END
>  <reaction>  (3) 
rxn_1242

>  <mol_properties>  (3) 
{"0": {"label": "a_hydrogen", "atom_type": "H0"}, "2": {"label": "acceptor", "atom_type": "Cd"}}

>  <type>  (3) 
r2h

$$$$

     RDKit          3D

 14 12  0  0  0  0  0  0  0  0999 V2000
   -0.0319   -1.1742   -3.4690 C   0  0  0  0  0  0  0  0  0  0  0  0
   -0.1502   -1.3144   -2.2800 C   0  0  0  0  0  0  0  0  0  0  0  0
   -0.2784   -1.4184   -0.8717 C   0  0  0  0  0  0  0  0  0  0  0  0
    0.0712   -1.0749   -4.5229 H   0  0  0  0  0  0  0  0  0  0  0  0
   -0.1594   -0.1924   -0.3790 H   0  0  0  0  0  0  0  0  0  0  0  0
    0.5346   -1.9276   -0.3615 H   0  0  0  0  0  0  0  0  0  0  0  0
   -1.2623   -1.7088   -0.5123 H   0  0  0  0  0  0  0  0  0  0  0  0
    0.2644    1.8739   -0.9550 C   0  0  0  0  0  0  0  0  0  0  0  0
    0.0534    1.0488    0.0472 C   0  0  0  0  0  0  0  0  0  0  0  0
    0.0610    1.1135    1.4689 C   0  0  0  0  0  0  0  0  0  0  0  0
    0.9100    0.1184    2.4369 S   0  0  0  0  0  1  0  0  0  0  0  0
    0.6013    2.8940   -0.7972 H   0  0  0  0  0  0  0  0  0  0  0  0
    0.1445    1.5391   -1.9800 H   0  0  0  0  0  0  0  0  0  0  0  0
   -0.6094    1.8526    1.9114 H   0  0  0  0  0  0  0  0  0  0  0  0
  1  2  3  0
  1  4  1  0
  2  3  1  0
  3  5  1  0
  3  6  1  0
  3  7  1  0
  8  9  2  0
  8 12  1  0
  8 13  1  0
  9 10  2  0
 10 11  1  0
 10 14  1  0
M  RAD  1  11   2
M  END
>  <reaction>  (4) 
rxn_1242

>  <mol_properties>  (4) 
{"1": {"label": "*0", "atom_type": "Ct"}, "2": {"label": "*1", "atom_type": "Cs"}, "4": {"label": "*2", "atom_type": "H0"}, "8": {"label": "*3", "atom_type": "Cdd"}, "9": {"label": "*4", "atom_type": "Cd"}}

>  <type>  (4) 
ts

$$$$

     RDKit          3D

 14 12  0  0  0  0  0  0  0  0999 V2000
   -0.9375   -1.5047   -2.7620 C   0  0  0  0  0  0  0  0  0  0  0  0
   -0.9375   -1.5047   -1.5650 C   0  0  0  0  0  0  0  0  0  0  0  0
   -0.9375   -1.5047   -0.1096 C   0  0  0  0  0  3  0  0  0  0  0  0
   -0.9375   -1.5047   -3.8253 H   0  0  0  0  0  0  0  0  0  0  0  0
   -0.8260   -0.2851    0.3528 H   0  0  0  0  0  0  0  0  0  0  0  0
   -0.1038   -2.0933    0.2758 H   0  0  0  0  0  0  0  0  0  0  0  0
   -1.8641   -1.9324    0.2758 H   0  0  0  0  0  0  0  0  0  0  0  0
   -1.6567    1.4603    1.5892 C   0  0  0  0  0  0  0  0  0  0  0  0
   -0.7152    0.9270    0.8125 C   0  0  0  0  0  0  0  0  0  0  0  0
    0.6962    1.0446    1.1275 C   0  0  0  0  0  0  0  0  0  0  0  0
    1.9027    0.4327    0.2473 S   0  0  0  0  0  0  0  0  0  0  0  0
   -1.4005    2.0051    2.4910 H   0  0  0  0  0  0  0  0  0  0  0  0
   -2.7083    1.3697    1.3497 H   0  0  0  0  0  0  0  0  0  0  0  0
    0.9185    1.5987    2.0412 H   0  0  0  0  0  0  0  0  0  0  0  0
  1  2  3  0
  1  4  1  0
  2  3  1  0
  3  6  1  0
  3  7  1  0
  5  9  1  0
  8  9  2  3
  8 12  1  0
  8 13  1  0
  9 10  1  0
 10 11  2  0
 10 14  1  0
M  RAD  1   3   2
M  END
>  <reaction>  (5) 
rxn_1242

>  <mol_properties>  (5) 
{"1": {"label": "*0", "atom_type": "Ct"}, "2": {"label": "*1", "atom_type": "Cs"}, "4": {"label": "*2", "atom_type": "H0"}, "8": {"label": "*3", "atom_type": "Cdd"}, "9": {"label": "*4", "atom_type": "Cd"}}

>  <type>  (5) 
unop_1

>  <geom_source>  (5) 
Heuristics

$$$$

     RDKit          3D

 14 12  0  0  0  0  0  0  0  0999 V2000
   -0.3716   -1.3918   -3.5208 C   0  0  0  0  0  0  0  0  0  0  0  0
   -0.3716   -1.3918   -2.3237 C   0  0  0  0  0  0  0  0  0  0  0  0
   -0.3716   -1.3918   -0.8683 C   0  0  0  0  0  3  0  0  0  0  0  0
   -0.3716   -1.3918   -4.5841 H   0  0  0  0  0  0  0  0  0  0  0  0
   -0.2602   -0.1722   -0.4059 H   0  0  0  0  0  0  0  0  0  0  0  0
    0.4621   -1.9803   -0.4829 H   0  0  0  0  0  0  0  0  0  0  0  0
   -1.2982   -1.8195   -0.4829 H   0  0  0  0  0  0  0  0  0  0  0  0
   -0.6258    2.0825   -0.6247 C   0  0  0  0  0  0  0  0  0  0  0  0
   -0.1494    1.0400    0.0537 C   0  0  0  0  0  0  0  0  0  0  0  0
    0.1664    1.1244    1.4674 C   0  0  0  0  0  0  0  0  0  0  0  0
    0.7460   -0.0832    2.3676 S   0  0  0  0  0  0  0  0  0  0  0  0
   -0.7960    3.0383   -0.1417 H   0  0  0  0  0  0  0  0  0  0  0  0
   -0.8599    2.0142   -1.6792 H   0  0  0  0  0  0  0  0  0  0  0  0
   -0.0165    2.0999    1.9216 H   0  0  0  0  0  0  0  0  0  0  0  0
  1  2  3  0
  1  4  1  0
  2  3  1  0
  3  6  1  0
  3  7  1  0
  5  9  1  0
  8  9  2  3
  8 12  1  0
  8 13  1  0
  9 10  1  0
 10 11  2  0
 10 14  1  0
M  RAD  1   3   2
M  END
>  <reaction>  (6) 
rxn_1242

>  <mol_properties>  (6) 
{"1": {"label": "*0", "atom_type": "Ct"}, "2": {"label": "*1", "atom_type": "Cs"}, "4": {"label": "*2", "atom_type": "H0"}, "8": {"label": "*3", "atom_type": "Cdd"}, "9": {"label": "*4", "atom_type": "Cd"}}

>  <type>  (6) 
unop_2

>  <geom_source>  (6) 
Heuristics

$$$$

     RDKit          3D

 14 12  0  0  0  0  0  0  0  0999 V2000
   -0.8019   -1.7177   -2.3581 C   0  0  0  0  0  0  0  0  0  0  0  0
   -0.8019   -1.7177   -1.1611 C   0  0  0  0  0  0  0  0  0  0  0  0
   -0.8019   -1.7177    0.2943 C   0  0  0  0  0  3  0  0  0  0  0  0
   -0.8019   -1.7177   -3.4214 H   0  0  0  0  0  0  0  0  0  0  0  0
   -0.6905   -0.4981    0.7567 H   0  0  0  0  0  0  0  0  0  0  0  0
    0.0318   -2.3063    0.6797 H   0  0  0  0  0  0  0  0  0  0  0  0
   -1.7285   -2.1454    0.6797 H   0  0  0  0  0  0  0  0  0  0  0  0
   -1.1195    1.0627    2.3830 C   0  0  0  0  0  0  0  0  0  0  0  0
   -0.5797    0.7140    1.2164 C   0  0  0  0  0  0  0  0  0  0  0  0
    0.6986    1.2398    0.7751 C   0  0  0  0  0  0  0  0  0  0  0  0
    1.4269    0.8747   -0.6181 S   0  0  0  0  0  0  0  0  0  0  0  0
   -0.6197    1.7568    3.0495 H   0  0  0  0  0  0  0  0  0  0  0  0
   -2.0734    0.6675    2.7075 H   0  0  0  0  0  0  0  0  0  0  0  0
    1.1739    1.9351    1.4695 H   0  0  0  0  0  0  0  0  0  0  0  0
  1  2  3  0
  1  4  1  0
  2  3  1  0
  3  6  1  0
  3  7  1  0
  5  9  1  0
  8  9  2  3
  8 12  1  0
  8 13  1  0
  9 10  1  0
 10 11  2  0
 10 14  1  0
M  RAD  1   3   2
M  END
>  <reaction>  (7) 
rxn_1242

>  <mol_properties>  (7) 
{"1": {"label": "*0", "atom_type": "Ct"}, "2": {"label": "*1", "atom_type": "Cs"}, "4": {"label": "*2", "atom_type": "H0"}, "8": {"label": "*3", "atom_type": "Cdd"}, "9": {"label": "*4", "atom_type": "Cd"}}

>  <type>  (7) 
unop_3

>  <geom_source>  (7) 
Heuristics

$$$$

     RDKit          3D

 14 12  0  0  0  0  0  0  0  0999 V2000
    0.3665   -1.4597   -3.3813 C   0  0  0  0  0  0  0  0  0  0  0  0
    0.3665   -1.4597   -2.1842 C   0  0  0  0  0  0  0  0  0  0  0  0
    0.3665   -1.4597   -0.7288 C   0  0  0  0  0  3  0  0  0  0  0  0
    0.3665   -1.4597   -4.4445 H   0  0  0  0  0  0  0  0  0  0  0  0
    0.4780   -0.2401   -0.2664 H   0  0  0  0  0  0  0  0  0  0  0  0
    1.2002   -2.0483   -0.3434 H   0  0  0  0  0  0  0  0  0  0  0  0
   -0.5601   -1.8874   -0.3434 H   0  0  0  0  0  0  0  0  0  0  0  0
    1.6480    1.7263   -0.0953 C   0  0  0  0  0  0  0  0  0  0  0  0
    0.5888    0.9720    0.1932 C   0  0  0  0  0  0  0  0  0  0  0  0
   -0.1109    1.0845    1.4594 C   0  0  0  0  0  0  0  0  0  0  0  0
   -1.3990    0.2147    1.8940 S   0  0  0  0  0  0  0  0  0  0  0  0
    2.0280    2.4566    0.6105 H   0  0  0  0  0  0  0  0  0  0  0  0
    2.1663    1.6385   -1.0413 H   0  0  0  0  0  0  0  0  0  0  0  0
    0.2978    1.8284    2.1457 H   0  0  0  0  0  0  0  0  0  0  0  0
  1  2  3  0
  1  4  1  0
  2  3  1  0
  3  6  1  0
  3  7  1  0
  5  9  1  0
  8  9  2  3
  8 12  1  0
  8 13  1  0
  9 10  1  0
 10 11  2  0
 10 14  1  0
M  RAD  1   3   2
M  END
>  <reaction>  (8) 
rxn_1242

>  <mol_properties>  (8) 
{"1": {"label": "*0", "atom_type": "Ct"}, "2": {"label": "*1", "atom_type": "Cs"}, "4": {"label": "*2", "atom_type": "H0"}, "8": {"label": "*3", "atom_type": "Cdd"}, "9": {"label": "*4", "atom_type": "Cd"}}

>  <type>  (8) 
unop_4

>  <geom_source>  (8) 
Heuristics

$$$$

     RDKit          3D

 14 12  0  0  0  0  0  0  0  0999 V2000
   -0.1803   -1.9726   -2.0966 C   0  0  0  0  0  0  0  0  0  0  0  0
   -0.1803   -1.9726   -0.8996 C   0  0  0  0  0  0  0  0  0  0  0  0
   -0.1803   -1.9726    0.5558 C   0  0  0  0  0  3  0  0  0  0  0  0
   -0.1803   -1.9726   -3.1599 H   0  0  0  0  0  0  0  0  0  0  0  0
   -0.0688   -0.7530    1.0182 H   0  0  0  0  0  0  0  0  0  0  0  0
    0.6534   -2.5612    0.9412 H   0  0  0  0  0  0  0  0  0  0  0  0
   -1.1069   -2.4003    0.9412 H   0  0  0  0  0  0  0  0  0  0  0  0
    0.0642    0.7023    2.7872 C   0  0  0  0  0  0  0  0  0  0  0  0
    0.0420    0.4591    1.4779 C   0  0  0  0  0  0  0  0  0  0  0  0
    0.1394    1.5249    0.4981 C   0  0  0  0  0  0  0  0  0  0  0  0
    0.1211    1.3246   -1.1033 S   0  0  0  0  0  0  0  0  0  0  0  0
    0.1565    1.7124    3.1706 H   0  0  0  0  0  0  0  0  0  0  0  0
   -0.0088   -0.0964    3.5140 H   0  0  0  0  0  0  0  0  0  0  0  0
    0.2311    2.5282    0.9181 H   0  0  0  0  0  0  0  0  0  0  0  0
  1  2  3  0
  1  4  1  0
  2  3  1  0
  3  6  1  0
  3  7  1  0
  5  9  1  0
  8  9  2  3
  8 12  1  0
  8 13  1  0
  9 10  1  0
 10 11  2  0
 10 14  1  0
M  RAD  1   3   2
M  END
>  <reaction>  (9) 
rxn_1242

>  <mol_properties>  (9) 
{"1": {"label": "*0", "atom_type": "Ct"}, "2": {"label": "*1", "atom_type": "Cs"}, "4": {"label": "*2", "atom_type": "H0"}, "8": {"label": "*3", "atom_type": "Cdd"}, "9": {"label": "*4", "atom_type": "Cd"}}

>  <type>  (9) 
unop_5

>  <geom_source>  (9) 
Heuristics

$$$$

     RDKit          3D

 14 12  0  0  0  0  0  0  0  0999 V2000
    0.5749   -1.5270   -3.1220 C   0  0  0  0  0  0  0  0  0  0  0  0
    0.5749   -1.5270   -1.9249 C   0  0  0  0  0  0  0  0  0  0  0  0
    0.5749   -1.5270   -0.4695 C   0  0  0  0  0  3  0  0  0  0  0  0
    0.5749   -1.5270   -4.1852 H   0  0  0  0  0  0  0  0  0  0  0  0
    0.6863   -0.3075   -0.0071 H   0  0  0  0  0  0  0  0  0  0  0  0
    1.4086   -2.1156   -0.0841 H   0  0  0  0  0  0  0  0  0  0  0  0
   -0.3517   -1.9547   -0.0841 H   0  0  0  0  0  0  0  0  0  0  0  0
    1.9899    1.4448    0.6966 C   0  0  0  0  0  0  0  0  0  0  0  0
    0.7971    0.9047    0.4525 C   0  0  0  0  0  0  0  0  0  0  0  0
   -0.3227    1.0768    1.3590 C   0  0  0  0  0  0  0  0  0  0  0  0
   -1.7992    0.4611    1.1452 S   0  0  0  0  0  0  0  0  0  0  0  0
    2.1682    2.0366    1.5876 H   0  0  0  0  0  0  0  0  0  0  0  0
    2.8221    1.3134    0.0172 H   0  0  0  0  0  0  0  0  0  0  0  0
   -0.1087    1.6774    2.2449 H   0  0  0  0  0  0  0  0  0  0  0  0
  1  2  3  0
  1  4  1  0
  2  3  1  0
  3  6  1  0
  3  7  1  0
  5  9  1  0
  8  9  2  3
  8 12  1  0
  8 13  1  0
  9 10  1  0
 10 11  2  0
 10 14  1  0
M  RAD  1   3   2
M  END
>  <reaction>  (10) 
rxn_1242

>  <mol_properties>  (10) 
{"1": {"label": "*0", "atom_type": "Ct"}, "2": {"label": "*1", "atom_type": "Cs"}, "4": {"label": "*2", "atom_type": "H0"}, "8": {"label": "*3", "atom_type": "Cdd"}, "9": {"label": "*4", "atom_type": "Cd"}}

>  <type>  (10) 
unop_6

>  <geom_source>  (10) 
Heuristics

$$$$

     RDKit          3D

 14 12  0  0  0  0  0  0  0  0999 V2000
    0.6492   -1.6497   -2.7620 C   0  0  0  0  0  0  0  0  0  0  0  0
    0.6492   -1.6497   -1.5650 C   0  0  0  0  0  0  0  0  0  0  0  0
    0.6492   -1.6497   -0.1096 C   0  0  0  0  0  3  0  0  0  0  0  0
    0.6492   -1.6497   -3.8253 H   0  0  0  0  0  0  0  0  0  0  0  0
    0.7606   -0.4301    0.3528 H   0  0  0  0  0  0  0  0  0  0  0  0
    1.4829   -2.2383    0.2758 H   0  0  0  0  0  0  0  0  0  0  0  0
   -0.2774   -2.0774    0.2758 H   0  0  0  0  0  0  0  0  0  0  0  0
    1.8940    1.1357    1.5892 C   0  0  0  0  0  0  0  0  0  0  0  0
    0.8714    0.7820    0.8125 C   0  0  0  0  0  0  0  0  0  0  0  0
   -0.4953    1.1535    1.1275 C   0  0  0  0  0  0  0  0  0  0  0  0
   -1.7928    0.7704    0.2473 S   0  0  0  0  0  0  0  0  0  0  0  0
    1.7407    1.7180    2.4910 H   0  0  0  0  0  0  0  0  0  0  0  0
    2.9117    0.8561    1.3497 H   0  0  0  0  0  0  0  0  0  0  0  0
   -0.6135    1.7387    2.0412 H   0  0  0  0  0  0  0  0  0  0  0  0
  1  2  3  0
  1  4  1  0
  2  3  1  0
  3  6  1  0
  3  7  1  0
  5  9  1  0
  8  9  2  3
  8 12  1  0
  8 13  1  0
  9 10  1  0
 10 11  2  0
 10 14  1  0
M  RAD  1   3   2
M  END
>  <reaction>  (11) 
rxn_1242

>  <mol_properties>  (11) 
{"1": {"label": "*0", "atom_type": "Ct"}, "2": {"label": "*1", "atom_type": "Cs"}, "4": {"label": "*2", "atom_type": "H0"}, "8": {"label": "*3", "atom_type": "Cdd"}, "9": {"label": "*4", "atom_type": "Cd"}}

>  <type>  (11) 
unop_7

>  <geom_source>  (11) 
Heuristics

$$$$

     RDKit          3D

 14 12  0  0  0  0  0  0  0  0999 V2000
   -0.8422   -1.3975   -3.1220 C   0  0  0  0  0  0  0  0  0  0  0  0
   -0.8422   -1.3975   -1.9249 C   0  0  0  0  0  0  0  0  0  0  0  0
   -0.8422   -1.3975   -0.4695 C   0  0  0  0  0  3  0  0  0  0  0  0
   -0.8422   -1.3975   -4.1852 H   0  0  0  0  0  0  0  0  0  0  0  0
   -0.7307   -0.1780   -0.0071 H   0  0  0  0  0  0  0  0  0  0  0  0
   -0.0085   -1.9861   -0.0841 H   0  0  0  0  0  0  0  0  0  0  0  0
   -1.7688   -1.8252   -0.0841 H   0  0  0  0  0  0  0  0  0  0  0  0
   -1.6951    1.7816    0.6966 C   0  0  0  0  0  0  0  0  0  0  0  0
   -0.6199    1.0342    0.4525 C   0  0  0  0  0  0  0  0  0  0  0  0
    0.5126    1.0004    1.3590 C   0  0  0  0  0  0  0  0  0  0  0  0
    1.8530    0.1273    1.1452 S   0  0  0  0  0  0  0  0  0  0  0  0
   -1.7631    2.3959    1.5876 H   0  0  0  0  0  0  0  0  0  0  0  0
   -2.5372    1.8032    0.0172 H   0  0  0  0  0  0  0  0  0  0  0  0
    0.4109    1.6299    2.2449 H   0  0  0  0  0  0  0  0  0  0  0  0
  1  2  3  0
  1  4  1  0
  2  3  1  0
  3  6  1  0
  3  7  1  0
  5  9  1  0
  8  9  2  3
  8 12  1  0
  8 13  1  0
  9 10  1  0
 10 11  2  0
 10 14  1  0
M  RAD  1   3   2
M  END
>  <reaction>  (12) 
rxn_1242

>  <mol_properties>  (12) 
{"1": {"label": "*0", "atom_type": "Ct"}, "2": {"label": "*1", "atom_type": "Cs"}, "4": {"label": "*2", "atom_type": "H0"}, "8": {"label": "*3", "atom_type": "Cdd"}, "9": {"label": "*4", "atom_type": "Cd"}}

>  <type>  (12) 
unop_8

>  <geom_source>  (12) 
Heuristics

$$$$

     RDKit          3D

 14 12  0  0  0  0  0  0  0  0999 V2000
    0.1132   -1.4361   -3.5208 C   0  0  0  0  0  0  0  0  0  0  0  0
    0.1132   -1.4361   -2.3237 C   0  0  0  0  0  0  0  0  0  0  0  0
    0.1132   -1.4361   -0.8683 C   0  0  0  0  0  3  0  0  0  0  0  0
    0.1132   -1.4361   -4.5841 H   0  0  0  0  0  0  0  0  0  0  0  0
    0.2247   -0.2165   -0.4059 H   0  0  0  0  0  0  0  0  0  0  0  0
    0.9469   -2.0246   -0.4829 H   0  0  0  0  0  0  0  0  0  0  0  0
   -0.8134   -1.8638   -0.4829 H   0  0  0  0  0  0  0  0  0  0  0  0
    0.9930    1.9345   -0.6247 C   0  0  0  0  0  0  0  0  0  0  0  0
    0.3354    0.9957    0.0537 C   0  0  0  0  0  0  0  0  0  0  0  0
    0.0401    1.1360    1.4674 C   0  0  0  0  0  0  0  0  0  0  0  0
   -0.7487    0.0534    2.3676 S   0  0  0  0  0  0  0  0  0  0  0  0
    1.3335    2.8436   -0.1417 H   0  0  0  0  0  0  0  0  0  0  0  0
    1.2107    1.8250   -1.6792 H   0  0  0  0  0  0  0  0  0  0  0  0
    0.3969    2.0621    1.9216 H   0  0  0  0  0  0  0  0  0  0  0  0
  1  2  3  0
  1  4  1  0
  2  3  1  0
  3  6  1  0
  3  7  1  0
  5  9  1  0
  8  9  2  3
  8 12  1  0
  8 13  1  0
  9 10  1  0
 10 11  2  0
 10 14  1  0
M  RAD  1   3   2
M  END
>  <reaction>  (13) 
rxn_1242

>  <mol_properties>  (13) 
{"1": {"label": "*0", "atom_type": "Ct"}, "2": {"label": "*1", "atom_type": "Cs"}, "4": {"label": "*2", "atom_type": "H0"}, "8": {"label": "*3", "atom_type": "Cdd"}, "9": {"label": "*4", "atom_type": "Cd"}}

>  <type>  (13) 
unop_9

>  <geom_source>  (13) 
Heuristics

$$$$

     RDKit          3D

 14 12  0  0  0  0  0  0  0  0999 V2000
   -0.6251   -1.3691   -3.3813 C   0  0  0  0  0  0  0  0  0  0  0  0
   -0.6251   -1.3691   -2.1842 C   0  0  0  0  0  0  0  0  0  0  0  0
   -0.6251   -1.3691   -0.7288 C   0  0  0  0  0  3  0  0  0  0  0  0
   -0.6251   -1.3691   -4.4445 H   0  0  0  0  0  0  0  0  0  0  0  0
   -0.5136   -0.1495   -0.2664 H   0  0  0  0  0  0  0  0  0  0  0  0
    0.2086   -1.9577   -0.3434 H   0  0  0  0  0  0  0  0  0  0  0  0
   -1.5517   -1.7968   -0.3434 H   0  0  0  0  0  0  0  0  0  0  0  0
   -1.3077    1.9965   -0.0953 C   0  0  0  0  0  0  0  0  0  0  0  0
   -0.4028    1.0627    0.1932 C   0  0  0  0  0  0  0  0  0  0  0  0
    0.3056    1.0464    1.4594 C   0  0  0  0  0  0  0  0  0  0  0  0
    1.4148   -0.0425    1.8940 S   0  0  0  0  0  0  0  0  0  0  0  0
   -1.5491    2.7835    0.6105 H   0  0  0  0  0  0  0  0  0  0  0  0
   -1.8334    2.0040   -1.0413 H   0  0  0  0  0  0  0  0  0  0  0  0
    0.0386    1.8521    2.1457 H   0  0  0  0  0  0  0  0  0  0  0  0
  1  2  3  0
  1  4  1  0
  2  3  1  0
  3  6  1  0
  3  7  1  0
  5  9  1  0
  8  9  2  3
  8 12  1  0
  8 13  1  0
  9 10  1  0
 10 11  2  0
 10 14  1  0
M  RAD  1   3   2
M  END
>  <reaction>  (14) 
rxn_1242

>  <mol_properties>  (14) 
{"1": {"label": "*0", "atom_type": "Ct"}, "2": {"label": "*1", "atom_type": "Cs"}, "4": {"label": "*2", "atom_type": "H0"}, "8": {"label": "*3", "atom_type": "Cdd"}, "9": {"label": "*4", "atom_type": "Cd"}}

>  <type>  (14) 
unop_10

>  <geom_source>  (14) 
Heuristics

$$$$

     RDKit          3D

 14 12  0  0  0  0  0  0  0  0999 V2000
    0.4773   -1.8346   -2.3581 C   0  0  0  0  0  0  0  0  0  0  0  0
    0.4773   -1.8346   -1.1611 C   0  0  0  0  0  0  0  0  0  0  0  0
    0.4773   -1.8346    0.2943 C   0  0  0  0  0  3  0  0  0  0  0  0
    0.4773   -1.8346   -3.4214 H   0  0  0  0  0  0  0  0  0  0  0  0
    0.5887   -0.6150    0.7567 H   0  0  0  0  0  0  0  0  0  0  0  0
    1.3110   -2.4232    0.6797 H   0  0  0  0  0  0  0  0  0  0  0  0
   -0.4493   -2.2623    0.6797 H   0  0  0  0  0  0  0  0  0  0  0  0
    1.2936    0.8421    2.3830 C   0  0  0  0  0  0  0  0  0  0  0  0
    0.6995    0.5971    1.2164 C   0  0  0  0  0  0  0  0  0  0  0  0
   -0.4623    1.3459    0.7751 C   0  0  0  0  0  0  0  0  0  0  0  0
   -1.2447    1.1188   -0.6181 S   0  0  0  0  0  0  0  0  0  0  0  0
    0.9278    1.6154    3.0495 H   0  0  0  0  0  0  0  0  0  0  0  0
    2.1601    0.2806    2.7075 H   0  0  0  0  0  0  0  0  0  0  0  0
   -0.8037    2.1158    1.4695 H   0  0  0  0  0  0  0  0  0  0  0  0
  1  2  3  0
  1  4  1  0
  2  3  1  0
  3  6  1  0
  3  7  1  0
  5  9  1  0
  8  9  2  3
  8 12  1  0
  8 13  1  0
  9 10  1  0
 10 11  2  0
 10 14  1  0
M  RAD  1   3   2
M  END
>  <reaction>  (15) 
rxn_1242

>  <mol_properties>  (15) 
{"1": {"label": "*0", "atom_type": "Ct"}, "2": {"label": "*1", "atom_type": "Cs"}, "4": {"label": "*2", "atom_type": "H0"}, "8": {"label": "*3", "atom_type": "Cdd"}, "9": {"label": "*4", "atom_type": "Cd"}}

>  <type>  (15) 
unop_11

>  <geom_source>  (15) 
Heuristics

$$$$

     RDKit          3D

 14 12  0  0  0  0  0  0  0  0999 V2000
   -0.1300   -1.4220   -3.5610 C   0  0  0  0  0  0  0  0  0  0  0  0
   -0.1300   -1.4220   -2.3639 C   0  0  0  0  0  0  0  0  0  0  0  0
   -0.1300   -1.4220   -0.9085 C   0  0  0  0  0  3  0  0  0  0  0  0
   -0.1300   -1.4220   -4.6242 H   0  0  0  0  0  0  0  0  0  0  0  0
   -0.0185   -0.2024   -0.4461 H   0  0  0  0  0  0  0  0  0  0  0  0
    0.7038   -2.0106   -0.5231 H   0  0  0  0  0  0  0  0  0  0  0  0
   -1.0566   -1.8497   -0.5231 H   0  0  0  0  0  0  0  0  0  0  0  0
    0.1877    2.0541   -0.8076 C   0  0  0  0  0  0  0  0  0  0  0  0
    0.0923    1.0097    0.0135 C   0  0  0  0  0  0  0  0  0  0  0  0
    0.1064    1.1646    1.4561 C   0  0  0  0  0  0  0  0  0  0  0  0
   -0.0036   -0.0397    2.5249 S   0  0  0  0  0  0  0  0  0  0  0  0
    0.2801    3.0645   -0.4249 H   0  0  0  0  0  0  0  0  0  0  0  0
    0.1767    1.9331   -1.8831 H   0  0  0  0  0  0  0  0  0  0  0  0
    0.2005    2.1939    1.8069 H   0  0  0  0  0  0  0  0  0  0  0  0
  1  2  3  0
  1  4  1  0
  2  3  1  0
  3  6  1  0
  3  7  1  0
  5  9  1  0
  8  9  2  3
  8 12  1  0
  8 13  1  0
  9 10  1  0
 10 11  2  0
 10 14  1  0
M  RAD  1   3   2
M  END
>  <reaction>  (16) 
rxn_1242

>  <mol_properties>  (16) 
{"1": {"label": "*0", "atom_type": "Ct"}, "2": {"label": "*1", "atom_type": "Cs"}, "4": {"label": "*2", "atom_type": "H0"}, "8": {"label": "*3", "atom_type": "Cdd"}, "9": {"label": "*4", "atom_type": "Cd"}}

>  <type>  (16) 
unop_12

>  <geom_source>  (16) 
Heuristics

$$$$

     RDKit          3D

 14 12  0  0  0  0  0  0  0  0999 V2000
   -2.7931    1.8109   -1.4654 S   0  0  0  0  0  0  0  0  0  0  0  0
   -1.1776    0.1518    0.0033 C   0  0  0  0  0  0  0  0  0  0  0  0
   -1.4362    0.9217   -1.2277 C   0  0  0  0  0  0  0  0  0  0  0  0
   -2.0150    0.1020    1.0387 C   0  0  0  0  0  0  0  0  0  0  0  0
    1.1663   -0.7843   -0.5451 C   0  0  0  0  0  3  0  0  0  0  0  0
    2.2378   -0.4920    0.4072 C   0  0  0  0  0  0  0  0  0  0  0  0
    3.1205   -0.2511    1.1920 C   0  0  0  0  0  0  0  0  0  0  0  0
   -0.0964   -0.4970    0.0747 H   0  0  0  0  0  0  0  0  0  0  0  0
   -0.6931    0.8985   -2.0133 H   0  0  0  0  0  0  0  0  0  0  0  0
   -1.7535   -0.4864    1.9080 H   0  0  0  0  0  0  0  0  0  0  0  0
   -2.9569    0.6339    1.0421 H   0  0  0  0  0  0  0  0  0  0  0  0
    1.2340   -1.8446   -0.8648 H   0  0  0  0  0  0  0  0  0  0  0  0
    1.2677   -0.1239   -1.4308 H   0  0  0  0  0  0  0  0  0  0  0  0
    3.8955   -0.0396    1.8810 H   0  0  0  0  0  0  0  0  0  0  0  0
  1  3  2  0
  2  4  2  3
  2  3  1  0
  2  8  1  0
  3  9  1  0
  4 10  1  0
  4 11  1  0
  5  6  1  0
  5 12  1  0
  5 13  1  0
  6  7  3  0
  7 14  1  0
M  RAD  1   5   2
M  END
>  <reaction>  (17) 
rxn_1242

>  <mol_properties>  (17) 
{"1": {"label": "*0", "atom_type": "Ct"}, "2": {"label": "*1", "atom_type": "Cs"}, "4": {"label": "*2", "atom_type": "H0"}, "8": {"label": "*3", "atom_type": "Cdd"}, "9": {"label": "*4", "atom_type": "Cd"}}

>  <type>  (17) 
unop_13

>  <geom_source>  (17) 
AutoTST

$$$$
