
     RDKit          3D

  2  1  0  0  0  0  0  0  0  0999 V2000
    0.0000    0.0000    0.3721 H   0  0  0  0  0  0  0  0  0  0  0  0
    0.0000    0.0000   -0.3721 H   0  0  0  0  0  0  0  0  0  0  0  0
  1  2  1  0
M  END
>  <reaction>  (1) 
rxn_793

>  <mol_properties>  (1) 
{"0": {"label": "donator", "atom_type": "H0"}, "1": {"label": "d_hydrogen", "atom_type": "H0"}}

>  <type>  (1) 
r1h

$$$$

     RDKit          3D

 15 14  0  0  0  0  0  0  0  0999 V2000
    2.4381    0.5770   -0.2356 C   0  0  0  0  0  0  0  0  0  0  0  0
    1.4430   -0.3367   -0.1409 C   0  0  0  0  0  0  0  0  0  0  0  0
    0.0521   -0.0957   -0.0045 C   0  0  0  0  0  3  0  0  0  0  0  0
   -0.5167    1.2867    0.0548 C   0  0  0  0  0  0  0  0  0  0  0  0
   -0.8226   -1.2147    0.0778 C   0  0  0  0  0  0  0  0  0  0  0  0
   -2.1666   -1.1669    0.2092 C   0  0  0  0  0  0  0  0  0  0  0  0
    3.4666    0.2585   -0.3369 H   0  0  0  0  0  0  0  0  0  0  0  0
    2.2594    1.6438   -0.2152 H   0  0  0  0  0  0  0  0  0  0  0  0
    1.7306   -1.3845   -0.1719 H   0  0  0  0  0  0  0  0  0  0  0  0
   -1.2300    1.4469   -0.7583 H   0  0  0  0  0  0  0  0  0  0  0  0
    0.2481    2.0557   -0.0178 H   0  0  0  0  0  0  0  0  0  0  0  0
   -1.0592    1.4421    0.9914 H   0  0  0  0  0  0  0  0  0  0  0  0
   -0.3519   -2.1929    0.0292 H   0  0  0  0  0  0  0  0  0  0  0  0
   -2.7080   -0.2310    0.2646 H   0  0  0  0  0  0  0  0  0  0  0  0
   -2.7513   -2.0751    0.2638 H   0  0  0  0  0  0  0  0  0  0  0  0
  1  2  2  3
  1  7  1  0
  1  8  1  0
  2  3  1  0
  2  9  1  0
  3  4  1  0
  3  5  1  0
  4 10  1  0
  4 11  1  0
  4 12  1  0
  5  6  2  3
  5 13  1  0
  6 14  1  0
  6 15  1  0
M  RAD  1   3   2
M  END
>  <reaction>  (2) 
rxn_793

>  <mol_properties>  (2) 
{"2": {"label": "acceptor", "atom_type": "Cs"}}

>  <type>  (2) 
r2

$$$$

     RDKit          3D

 16 15  0  0  0  0  0  0  0  0999 V2000
    1.7961   -0.3807    1.6176 C   0  0  0  0  0  0  0  0  0  0  0  0
    0.8562   -0.8708    0.8256 C   0  0  0  0  0  0  0  0  0  0  0  0
    0.0895   -0.0826   -0.2048 C   0  0  0  0  0  0  0  0  0  0  0  0
   -1.4061   -0.1111    0.0982 C   0  0  0  0  0  0  0  0  0  0  0  0
    0.4476   -0.5902   -1.5797 C   0  0  0  0  0  0  0  0  0  0  0  0
   -0.3793   -1.1113   -2.4728 C   0  0  0  0  0  0  0  0  0  0  0  0
    2.3110   -1.0032    2.3386 H   0  0  0  0  0  0  0  0  0  0  0  0
    2.0846    0.6643    1.5737 H   0  0  0  0  0  0  0  0  0  0  0  0
    0.5921   -1.9241    0.8925 H   0  0  0  0  0  0  0  0  0  0  0  0
    0.4358    0.9557   -0.1462 H   0  0  0  0  0  0  0  0  0  0  0  0
   -1.5968    0.3080    1.0865 H   0  0  0  0  0  0  0  0  0  0  0  0
   -1.9674    0.4693   -0.6359 H   0  0  0  0  0  0  0  0  0  0  0  0
   -1.7902   -1.1338    0.0883 H   0  0  0  0  0  0  0  0  0  0  0  0
    1.5049   -0.5197   -1.8214 H   0  0  0  0  0  0  0  0  0  0  0  0
   -1.4421   -1.2131   -2.2889 H   0  0  0  0  0  0  0  0  0  0  0  0
   -0.0162   -1.4558   -3.4328 H   0  0  0  0  0  0  0  0  0  0  0  0
  1  2  2  3
  1  7  1  0
  1  8  1  0
  2  3  1  0
  2  9  1  0
  3  4  1  0
  3  5  1  0
  3 10  1  0
  4 11  1  0
  4 12  1  0
  4 13  1  0
  5  6  2  3
  5 14  1  0
  6 15  1  0
  6 16  1  0
M  END
>  <reaction>  (3) 
rxn_793

>  <mol_properties>  (3) 
{"0": {"label": "a_hydrogen", "atom_type": "H0"}, "3": {"label": "acceptor", "atom_type": "Cs"}}

>  <type>  (3) 
r2h

$$$$

     RDKit          3D

 17 15  0  0  0  0  0  0  0  0999 V2000
   -0.3574   -0.1679   -2.5628 H   0  0  0  0  0 15  0  0  0  0  0  0
   -0.2347   -0.1407   -1.4533 H   0  0  0  0  0  0  0  0  0  0  0  0
   -0.1022    2.3530   -0.7539 C   0  0  0  0  0  0  0  0  0  0  0  0
   -0.2747    1.3545    0.0967 C   0  0  0  0  0  0  0  0  0  0  0  0
   -0.2282   -0.1048   -0.2450 C   0  0  0  0  0  0  0  0  0  0  0  0
   -1.4808   -0.8464    0.1815 C   0  0  0  0  0  0  0  0  0  0  0  0
    1.0665   -0.7274    0.1503 C   0  0  0  0  0  0  0  0  0  0  0  0
    1.2210   -1.8747    0.7989 C   0  0  0  0  0  0  0  0  0  0  0  0
   -0.1407    3.3840   -0.4263 H   0  0  0  0  0  0  0  0  0  0  0  0
    0.0798    2.1738   -1.8077 H   0  0  0  0  0  0  0  0  0  0  0  0
   -0.4614    1.5721    1.1474 H   0  0  0  0  0  0  0  0  0  0  0  0
   -1.4715   -1.8761   -0.1781 H   0  0  0  0  0  0  0  0  0  0  0  0
   -2.3657   -0.3523   -0.2200 H   0  0  0  0  0  0  0  0  0  0  0  0
   -1.5680   -0.8665    1.2712 H   0  0  0  0  0  0  0  0  0  0  0  0
    1.9475   -0.1624   -0.1406 H   0  0  0  0  0  0  0  0  0  0  0  0
    0.3796   -2.4758    1.1214 H   0  0  0  0  0  0  0  0  0  0  0  0
    2.2083   -2.2505    1.0349 H   0  0  0  0  0  0  0  0  0  0  0  0
  2  5  1  0
  3  4  2  3
  3  9  1  0
  3 10  1  0
  4  5  1  0
  4 11  1  0
  5  6  1  0
  5  7  1  0
  6 12  1  0
  6 13  1  0
  6 14  1  0
  7  8  2  3
  7 15  1  0
  8 16  1  0
  8 17  1  0
M  END
>  <reaction>  (4) 
rxn_793

>  <mol_properties>  (4) 
{"0": {"label": "*1", "atom_type": "H0"}, "1": {"label": "*2", "atom_type": "H0"}, "3": {"label": "*4", "atom_type": "Cd"}, "4": {"label": "*3", "atom_type": "Cs"}}

>  <type>  (4) 
ts

$$$$

     RDKit          3D

 17 15  0  0  0  0  0  0  0  0999 V2000
   -0.2175   -0.1278   -2.5552 H   0  0  0  0  0 15  0  0  0  0  0  0
   -0.2175   -0.1278   -1.6622 H   0  0  0  0  0  0  0  0  0  0  0  0
   -0.1860    2.3614   -0.7013 C   0  0  0  0  0  0  0  0  0  0  0  0
   -0.2175    1.3106    0.1023 C   0  0  0  0  0  0  0  0  0  0  0  0
   -0.2175   -0.1278   -0.3469 C   0  0  0  0  0  0  0  0  0  0  0  0
   -1.4761   -0.8431    0.1365 C   0  0  0  0  0  0  0  0  0  0  0  0
    1.0686   -0.7815    0.0944 C   0  0  0  0  0  0  0  0  0  0  0  0
    1.1919   -1.8272    0.8971 C   0  0  0  0  0  0  0  0  0  0  0  0
   -0.1873    3.3721   -0.3129 H   0  0  0  0  0  0  0  0  0  0  0  0
   -0.1587    2.2480   -1.7800 H   0  0  0  0  0  0  0  0  0  0  0  0
   -0.2415    1.4584    1.1799 H   0  0  0  0  0  0  0  0  0  0  0  0
   -1.4905   -1.8822   -0.1967 H   0  0  0  0  0  0  0  0  0  0  0  0
   -2.3640   -0.3448   -0.2532 H   0  0  0  0  0  0  0  0  0  0  0  0
   -1.5390   -0.8353    1.2271 H   0  0  0  0  0  0  0  0  0  0  0  0
    1.9671   -0.3086   -0.2936 H   0  0  0  0  0  0  0  0  0  0  0  0
    0.3349   -2.3380    1.3194 H   0  0  0  0  0  0  0  0  0  0  0  0
    2.1680   -2.2147    1.1601 H   0  0  0  0  0  0  0  0  0  0  0  0
  2  5  1  0
  3  4  2  3
  3  9  1  0
  3 10  1  0
  4  5  1  0
  4 11  1  0
  5  6  1  0
  5  7  1  0
  6 12  1  0
  6 13  1  0
  6 14  1  0
  7  8  2  3
  7 15  1  0
  8 16  1  0
  8 17  1  0
M  END
>  <reaction>  (5) 
rxn_793

>  <mol_properties>  (5) 
{"0": {"label": "*1", "atom_type": "H0"}, "1": {"label": "*2", "atom_type": "H0"}, "3": {"label": "*4", "atom_type": "Cd"}, "4": {"label": "*3", "atom_type": "Cs"}}

>  <type>  (5) 
unop_1

>  <geom_source>  (5) 
Heuristics

$$$$

     RDKit          3D

 17 15  0  0  0  0  0  0  0  0999 V2000
   -0.2422    0.0977    0.3223 C   0  0  0  0  0  0  0  0  0  0  0  0
   -0.4860    1.3708   -0.4994 C   0  0  0  0  0  0  0  0  0  0  0  0
    1.0953    0.1518    1.0275 C   0  0  0  0  0  0  0  0  0  0  0  0
   -0.3539   -1.1397   -0.5407 C   0  0  0  0  0  0  0  0  0  0  0  0
    2.2591    0.2349    0.3710 C   0  0  0  0  0  0  0  0  0  0  0  0
   -1.5318   -1.5600   -1.0136 C   0  0  0  0  0  0  0  0  0  0  0  0
   -0.9548    0.0480    1.0404 H   0  0  0  0  0  0  0  0  0  0  0  0
    0.2266    1.4378   -1.3490 H   0  0  0  0  0  0  0  0  0  0  0  0
   -0.3653    2.2700    0.1424 H   0  0  0  0  0  0  0  0  0  0  0  0
   -1.5199    1.3751   -0.9059 H   0  0  0  0  0  0  0  0  0  0  0  0
    1.1127    0.1225    2.1135 H   0  0  0  0  0  0  0  0  0  0  0  0
    0.5352   -1.7160   -0.7829 H   0  0  0  0  0  0  0  0  0  0  0  0
    2.2923    0.2612   -0.7135 H   0  0  0  0  0  0  0  0  0  0  0  0
    3.1919    0.2718    0.9241 H   0  0  0  0  0  0  0  0  0  0  0  0
   -1.5831   -2.4533   -1.6276 H   0  0  0  0  0  0  0  0  0  0  0  0
   -2.4482   -1.0221   -0.7906 H   0  0  0  0  0  0  0  0  0  0  0  0
   -1.2280    0.2492    2.2820 H   0  0  0  0  0 15  0  0  0  0  0  0
  1  2  1  0
  1  3  1  0
  1  4  1  0
  1  7  1  0
  2  8  1  0
  2  9  1  0
  2 10  1  0
  3  5  2  3
  3 11  1  0
  4  6  2  3
  4 12  1  0
  5 13  1  0
  5 14  1  0
  6 15  1  0
  6 16  1  0
M  END
>  <reaction>  (6) 
rxn_793

>  <mol_properties>  (6) 
{"0": {"label": "*1", "atom_type": "H0"}, "1": {"label": "*2", "atom_type": "H0"}, "3": {"label": "*4", "atom_type": "Cd"}, "4": {"label": "*3", "atom_type": "Cs"}}

>  <type>  (6) 
unop_2

>  <geom_source>  (6) 
AutoTST

$$$$

     RDKit          3D

 17 15  0  0  0  0  0  0  0  0999 V2000
    0.3574   -0.7380   -1.6309 C   0  0  0  0  0  0  0  0  0  0  0  0
   -0.0940   -0.4476   -0.2001 C   0  0  0  0  0  0  0  0  0  0  0  0
    1.0626   -0.2711    0.7491 C   0  0  0  0  0  0  0  0  0  0  0  0
   -1.0444    0.7130   -0.1405 C   0  0  0  0  0  0  0  0  0  0  0  0
    1.9534    0.7196    0.6264 C   0  0  0  0  0  0  0  0  0  0  0  0
   -2.2631    0.5641    0.3793 C   0  0  0  0  0  0  0  0  0  0  0  0
    0.8908    0.1348   -2.0644 H   0  0  0  0  0  0  0  0  0  0  0  0
    1.0328   -1.6194   -1.6418 H   0  0  0  0  0  0  0  0  0  0  0  0
   -0.5266   -0.9689   -2.2621 H   0  0  0  0  0  0  0  0  0  0  0  0
    1.1651   -0.9750    1.5686 H   0  0  0  0  0  0  0  0  0  0  0  0
   -0.7346    1.6856   -0.5123 H   0  0  0  0  0  0  0  0  0  0  0  0
    2.7676    0.8075    1.3382 H   0  0  0  0  0  0  0  0  0  0  0  0
    1.8773    1.4470   -0.1757 H   0  0  0  0  0  0  0  0  0  0  0  0
   -2.9416    1.4098    0.4240 H   0  0  0  0  0  0  0  0  0  0  0  0
   -2.5921   -0.3974    0.7624 H   0  0  0  0  0  0  0  0  0  0  0  0
   -0.3758   -1.1534    1.8629 H   0  0  0  0  0 15  0  0  0  0  0  0
   -0.5349   -0.9105    0.9169 H   0  0  0  0  0  0  0  0  0  0  0  0
  1  2  1  0
  1  7  1  0
  1  8  1  0
  1  9  1  0
  2  3  1  0
  2  4  1  0
  2 17  1  0
  3  5  2  3
  3 10  1  0
  4  6  2  3
  4 11  1  0
  5 12  1  0
  5 13  1  0
  6 14  1  0
  6 15  1  0
M  END
>  <reaction>  (7) 
rxn_793

>  <mol_properties>  (7) 
{"0": {"label": "*1", "atom_type": "H0"}, "1": {"label": "*2", "atom_type": "H0"}, "3": {"label": "*4", "atom_type": "Cd"}, "4": {"label": "*3", "atom_type": "Cs"}}

>  <type>  (7) 
unop_3

>  <geom_source>  (7) 
gaussian_log

$$$$
