
     RDKit          3D

 12 11  0  0  0  0  0  0  0  0999 V2000
    1.2394   -0.3763   -0.3020 C   0  0  0  0  0  0  0  0  0  0  0  0
    0.1007    0.3024    0.4464 C   0  0  0  0  0  0  0  0  0  0  0  0
   -0.1187    2.0399   -0.0725 S   0  0  0  0  0  0  0  0  0  0  0  0
   -1.1974   -0.4877    0.3552 C   0  0  0  0  0  0  0  0  0  0  0  0
    2.1681    0.1850   -0.2048 H   0  0  0  0  0  0  0  0  0  0  0  0
    1.0030   -0.4604   -1.3656 H   0  0  0  0  0  0  0  0  0  0  0  0
    1.3993   -1.3856    0.0859 H   0  0  0  0  0  0  0  0  0  0  0  0
    0.3797    0.4050    1.4982 H   0  0  0  0  0  0  0  0  0  0  0  0
   -0.4500    1.7774   -1.3452 H   0  0  0  0  0  0  0  0  0  0  0  0
   -1.0545   -1.4977    0.7478 H   0  0  0  0  0  0  0  0  0  0  0  0
   -1.5206   -0.5758   -0.6849 H   0  0  0  0  0  0  0  0  0  0  0  0
   -1.9957   -0.0054    0.9183 H   0  0  0  0  0  0  0  0  0  0  0  0
  1  2  1  0
  1  5  1  0
  1  6  1  0
  1  7  1  0
  2  4  1  0
  2  3  1  0
  2  8  1  0
  3  9  1  0
  4 10  1  0
  4 11  1  0
  4 12  1  0
M  END
>  <reaction>  (1) 
rxn_1938

>  <mol_properties>  (1) 
{"1": {"label": "donator", "atom_type": "Cs"}, "7": {"label": "d_hydrogen", "atom_type": "H0"}}

>  <type>  (1) 
r1h

$$$$

     RDKit          3D

 12 11  0  0  0  0  0  0  0  0999 V2000
   -0.9951    0.1196   -0.8321 C   0  0  0  0  0  0  0  0  0  0  0  0
   -0.3760    0.2571    0.5231 C   0  0  0  0  0  3  0  0  0  0  0  0
    0.9330   -0.1537    0.7810 C   0  0  0  0  0  0  0  0  0  0  0  0
    1.5987   -0.1880    1.9734 C   0  0  0  0  0  0  0  0  0  0  0  0
   -1.4483    0.9449    1.7152 S   0  0  0  0  0  0  0  0  0  0  0  0
   -1.9164   -0.4696   -0.7936 H   0  0  0  0  0  0  0  0  0  0  0  0
   -1.2565    1.0958   -1.2506 H   0  0  0  0  0  0  0  0  0  0  0  0
   -0.3088   -0.3780   -1.5170 H   0  0  0  0  0  0  0  0  0  0  0  0
    1.4783   -0.4898   -0.0971 H   0  0  0  0  0  0  0  0  0  0  0  0
    2.6278   -0.5153    2.0142 H   0  0  0  0  0  0  0  0  0  0  0  0
    1.1316    0.0690    2.9151 H   0  0  0  0  0  0  0  0  0  0  0  0
   -0.5306    1.3052    2.6211 H   0  0  0  0  0  0  0  0  0  0  0  0
  1  2  1  0
  1  6  1  0
  1  7  1  0
  1  8  1  0
  2  3  1  0
  2  5  1  0
  3  4  2  3
  3  9  1  0
  4 10  1  0
  4 11  1  0
  5 12  1  0
M  RAD  1   2   2
M  END
>  <reaction>  (2) 
rxn_1938

>  <mol_properties>  (2) 
{"1": {"label": "acceptor", "atom_type": "Cs"}}

>  <type>  (2) 
r2

$$$$

     RDKit          3D

 13 12  0  0  0  0  0  0  0  0999 V2000
   -1.1828    0.8269   -0.1645 C   0  0  0  0  0  0  0  0  0  0  0  0
   -0.4827   -0.4584   -0.5736 C   0  0  1  0  0  0  0  0  0  0  0  0
   -0.9759   -1.7030    0.1030 C   0  0  0  0  0  0  0  0  0  0  0  0
   -2.0084   -1.7831    0.9287 C   0  0  0  0  0  0  0  0  0  0  0  0
   -0.4908   -0.7025   -2.3913 S   0  0  0  0  0  0  0  0  0  0  0  0
   -1.0941    0.9860    0.9125 H   0  0  0  0  0  0  0  0  0  0  0  0
   -0.7405    1.6784   -0.6793 H   0  0  0  0  0  0  0  0  0  0  0  0
   -2.2437    0.7943   -0.4195 H   0  0  0  0  0  0  0  0  0  0  0  0
    0.5870   -0.3637   -0.3637 H   0  0  0  0  0  0  0  0  0  0  0  0
   -0.4209   -2.6026   -0.1443 H   0  0  0  0  0  0  0  0  0  0  0  0
   -2.2982   -2.7315    1.3623 H   0  0  0  0  0  0  0  0  0  0  0  0
   -2.5999   -0.9190    1.2055 H   0  0  0  0  0  0  0  0  0  0  0  0
   -1.8040   -0.9489   -2.4971 H   0  0  0  0  0  0  0  0  0  0  0  0
  1  2  1  0
  1  6  1  0
  1  7  1  0
  1  8  1  0
  2  3  1  0
  2  5  1  0
  2  9  1  1
  3  4  2  3
  3 10  1  0
  4 11  1  0
  4 12  1  0
  5 13  1  0
M  END
>  <reaction>  (3) 
rxn_1938

>  <mol_properties>  (3) 
{"1": {"label": "acceptor", "atom_type": "Cs"}, "12": {"label": "a_hydrogen", "atom_type": "H0"}}

>  <type>  (3) 
r2h

$$$$

     RDKit          3D

 24 22  0  0  0  0  0  0  0  0999 V2000
   -1.7193    1.2055    1.2550 C   0  0  0  0  0  0  0  0  0  0  0  0
   -1.1153    0.1152    0.4039 C   0  0  1  0  0  0  0  0  0  0  0  0
   -0.4138   -0.9772    1.0866 C   0  0  0  0  0  0  0  0  0  0  0  0
   -0.0688   -1.0003    2.3754 C   0  0  0  0  0  0  0  0  0  0  0  0
   -2.1271   -0.4180   -0.9890 S   0  0  0  0  0  0  0  0  0  0  0  0
   -2.5014    0.8072    1.9088 H   0  0  0  0  0  0  0  0  0  0  0  0
   -0.9548    1.6715    1.8808 H   0  0  0  0  0  0  0  0  0  0  0  0
   -2.1625    1.9773    0.6272 H   0  0  0  0  0  0  0  0  0  0  0  0
   -0.1363   -1.8149    0.4539 H   0  0  0  0  0  0  0  0  0  0  0  0
    0.4775   -1.8394    2.7862 H   0  0  0  0  0  0  0  0  0  0  0  0
   -0.3250   -0.1997    3.0579 H   0  0  0  0  0  0  0  0  0  0  0  0
   -3.0485   -1.1077   -0.2968 H   0  0  0  0  0  0  0  0  0  0  0  0
    1.5388    0.3253   -1.6587 C   0  0  0  0  0  0  0  0  0  0  0  0
    0.8912    1.4178   -0.8478 C   0  0  0  0  0  3  0  0  0  0  0  0
    1.8634    2.0682    0.4958 S   0  0  0  0  0  0  0  0  0  0  0  0
    0.2369    2.5208   -1.6409 C   0  0  0  0  0  0  0  0  0  0  0  0
    1.8729   -0.4965   -1.0225 H   0  0  0  0  0  0  0  0  0  0  0  0
    2.4077    0.7043   -2.2055 H   0  0  0  0  0  0  0  0  0  0  0  0
    0.8253   -0.0763   -2.3819 H   0  0  0  0  0  0  0  0  0  0  0  0
   -0.1447    0.7540   -0.2378 H   0  0  0  0  0  0  0  0  0  0  0  0
    2.2552    0.8882    0.9963 H   0  0  0  0  0  0  0  0  0  0  0  0
   -0.4991    2.0964   -2.3264 H   0  0  0  0  0  0  0  0  0  0  0  0
    0.9725    3.0708   -2.2375 H   0  0  0  0  0  0  0  0  0  0  0  0
   -0.2740    3.2332   -0.9917 H   0  0  0  0  0  0  0  0  0  0  0  0
  1  2  1  0
  1  6  1  0
  1  7  1  0
  1  8  1  0
  2  3  1  0
  2  5  1  0
  2 20  1  6
  3  4  2  3
  3  9  1  0
  4 10  1  0
  4 11  1  0
  5 12  1  0
 13 14  1  0
 13 17  1  0
 13 18  1  0
 13 19  1  0
 14 16  1  0
 14 15  1  0
 15 21  1  0
 16 22  1  0
 16 23  1  0
 16 24  1  0
M  RAD  1  14   2
M  END
>  <reaction>  (4) 
rxn_1938

>  <mol_properties>  (4) 
{"1": {"label": "*1", "atom_type": "Cs"}, "4": {"label": "*0", "atom_type": "S2s"}, "13": {"label": "*3", "atom_type": "Cs"}, "14": {"label": "*4", "atom_type": "S2s"}, "19": {"label": "*2", "atom_type": "H0"}}

>  <type>  (4) 
ts

$$$$

     RDKit          3D

 24 22  0  0  0  0  0  0  0  0999 V2000
   -0.6100   -1.8270    0.9946 C   0  0  0  0  0  0  0  0  0  0  0  0
   -1.0412   -0.6362    0.1546 C   0  0  0  0  0  3  0  0  0  0  0  0
   -2.4406   -0.7001   -0.3817 C   0  0  0  0  0  0  0  0  0  0  0  0
   -3.3374   -1.6353   -0.1072 C   0  0  0  0  0  0  0  0  0  0  0  0
   -0.7906    0.9556    1.0305 S   0  0  0  0  0  0  0  0  0  0  0  0
   -1.2282   -1.9205    1.8893 H   0  0  0  0  0  0  0  0  0  0  0  0
   -0.6958   -2.7524    0.4206 H   0  0  0  0  0  0  0  0  0  0  0  0
    0.4247   -1.7099    1.3129 H   0  0  0  0  0  0  0  0  0  0  0  0
   -2.7116    0.1212   -1.0378 H   0  0  0  0  0  0  0  0  0  0  0  0
   -4.3309   -1.5921   -0.5345 H   0  0  0  0  0  0  0  0  0  0  0  0
   -3.1226   -2.4733    0.5445 H   0  0  0  0  0  0  0  0  0  0  0  0
   -1.7607    0.7744    1.9375 H   0  0  0  0  0  0  0  0  0  0  0  0
    1.0958    0.6283   -2.2183 C   0  0  0  0  0  0  0  0  0  0  0  0
    1.0958    0.6283   -0.6959 C   0  0  0  0  0  0  0  0  0  0  0  0
    2.4510   -0.3880   -0.0124 S   0  0  0  0  0  0  0  0  0  0  0  0
    1.0958    2.0383   -0.1219 C   0  0  0  0  0  0  0  0  0  0  0  0
    1.0673   -0.3860   -2.6149 H   0  0  0  0  0  0  0  0  0  0  0  0
    1.9943    1.1180   -2.6018 H   0  0  0  0  0  0  0  0  0  0  0  0
    0.2289    1.1757   -2.5971 H   0  0  0  0  0  0  0  0  0  0  0  0
    0.0280   -0.0036   -0.2709 H   0  0  0  0  0  0  0  0  0  0  0  0
    3.4569    0.3478   -0.5073 H   0  0  0  0  0  0  0  0  0  0  0  0
    0.2289    2.5956   -0.4861 H   0  0  0  0  0  0  0  0  0  0  0  0
    1.9943    2.5782   -0.4309 H   0  0  0  0  0  0  0  0  0  0  0  0
    1.0673    2.0233    0.9670 H   0  0  0  0  0  0  0  0  0  0  0  0
  1  2  1  0
  1  6  1  0
  1  7  1  0
  1  8  1  0
  2  3  1  0
  2  5  1  0
  3  4  2  3
  3  9  1  0
  4 10  1  0
  4 11  1  0
  5 12  1  0
 13 14  1  0
 13 17  1  0
 13 18  1  0
 13 19  1  0
 14 16  1  0
 14 15  1  0
 14 20  1  0
 15 21  1  0
 16 22  1  0
 16 23  1  0
 16 24  1  0
M  RAD  1   2   2
M  END
>  <reaction>  (5) 
rxn_1938

>  <mol_properties>  (5) 
{"1": {"label": "*1", "atom_type": "Cs"}, "4": {"label": "*0", "atom_type": "S2s"}, "13": {"label": "*3", "atom_type": "Cs"}, "14": {"label": "*4", "atom_type": "S2s"}, "19": {"label": "*2", "atom_type": "H0"}}

>  <type>  (5) 
unop_1

>  <geom_source>  (5) 
Heuristics

$$$$

     RDKit          3D

 24 22  0  0  0  0  0  0  0  0999 V2000
   -1.5221   -1.4477   -0.9273 C   0  0  0  0  0  0  0  0  0  0  0  0
   -1.1380   -0.3857    0.0896 C   0  0  0  0  0  3  0  0  0  0  0  0
   -2.2840    0.3674    0.6974 C   0  0  0  0  0  0  0  0  0  0  0  0
   -3.5701    0.1203    0.4995 C   0  0  0  0  0  0  0  0  0  0  0  0
   -0.0685   -1.0562    1.4202 S   0  0  0  0  0  0  0  0  0  0  0  0
   -2.1327   -2.2276   -0.4687 H   0  0  0  0  0  0  0  0  0  0  0  0
   -2.0912   -1.0051   -1.7478 H   0  0  0  0  0  0  0  0  0  0  0  0
   -0.6299   -1.9184   -1.3373 H   0  0  0  0  0  0  0  0  0  0  0  0
   -1.9931    1.1702    1.3677 H   0  0  0  0  0  0  0  0  0  0  0  0
   -4.3300    0.7129    0.9924 H   0  0  0  0  0  0  0  0  0  0  0  0
   -3.9162   -0.6710   -0.1541 H   0  0  0  0  0  0  0  0  0  0  0  0
   -1.0172   -1.8004    2.0055 H   0  0  0  0  0  0  0  0  0  0  0  0
    0.9990    0.8788   -2.2833 C   0  0  0  0  0  0  0  0  0  0  0  0
    0.9990    0.8788   -0.7609 C   0  0  0  0  0  0  0  0  0  0  0  0
    2.3541   -0.1375   -0.0774 S   0  0  0  0  0  0  0  0  0  0  0  0
    0.9990    2.2888   -0.1869 C   0  0  0  0  0  0  0  0  0  0  0  0
    0.9705   -0.1355   -2.6799 H   0  0  0  0  0  0  0  0  0  0  0  0
    1.8974    1.3685   -2.6668 H   0  0  0  0  0  0  0  0  0  0  0  0
    0.1321    1.4262   -2.6621 H   0  0  0  0  0  0  0  0  0  0  0  0
   -0.0689    0.2469   -0.3359 H   0  0  0  0  0  0  0  0  0  0  0  0
    3.3600    0.5983   -0.5723 H   0  0  0  0  0  0  0  0  0  0  0  0
    0.1321    2.8461   -0.5511 H   0  0  0  0  0  0  0  0  0  0  0  0
    1.8974    2.8287   -0.4959 H   0  0  0  0  0  0  0  0  0  0  0  0
    0.9705    2.2738    0.9020 H   0  0  0  0  0  0  0  0  0  0  0  0
  1  2  1  0
  1  6  1  0
  1  7  1  0
  1  8  1  0
  2  3  1  0
  2  5  1  0
  3  4  2  3
  3  9  1  0
  4 10  1  0
  4 11  1  0
  5 12  1  0
 13 14  1  0
 13 17  1  0
 13 18  1  0
 13 19  1  0
 14 16  1  0
 14 15  1  0
 14 20  1  0
 15 21  1  0
 16 22  1  0
 16 23  1  0
 16 24  1  0
M  RAD  1   2   2
M  END
>  <reaction>  (6) 
rxn_1938

>  <mol_properties>  (6) 
{"1": {"label": "*1", "atom_type": "Cs"}, "4": {"label": "*0", "atom_type": "S2s"}, "13": {"label": "*3", "atom_type": "Cs"}, "14": {"label": "*4", "atom_type": "S2s"}, "19": {"label": "*2", "atom_type": "H0"}}

>  <type>  (6) 
unop_2

>  <geom_source>  (6) 
Heuristics

$$$$

     RDKit          3D

 24 22  0  0  0  0  0  0  0  0999 V2000
   -0.6515   -1.2483    1.6328 C   0  0  0  0  0  0  0  0  0  0  0  0
   -0.9614   -0.5969    0.2952 C   0  0  0  0  0  3  0  0  0  0  0  0
   -1.9645   -1.3189   -0.5549 C   0  0  0  0  0  0  0  0  0  0  0  0
   -2.6553   -2.3923   -0.2016 C   0  0  0  0  0  0  0  0  0  0  0  0
   -1.4617    1.1580    0.4795 S   0  0  0  0  0  0  0  0  0  0  0  0
   -1.5419   -1.2947    2.2625 H   0  0  0  0  0  0  0  0  0  0  0  0
   -0.2814   -2.2657    1.4873 H   0  0  0  0  0  0  0  0  0  0  0  0
    0.1061   -0.6755    2.1654 H   0  0  0  0  0  0  0  0  0  0  0  0
   -2.1236   -0.8825   -1.5360 H   0  0  0  0  0  0  0  0  0  0  0  0
   -3.3686   -2.8401   -0.8814 H   0  0  0  0  0  0  0  0  0  0  0  0
   -2.5402   -2.8652    0.7660 H   0  0  0  0  0  0  0  0  0  0  0  0
   -2.6480    0.9097    1.0517 H   0  0  0  0  0  0  0  0  0  0  0  0
    1.1756    0.6676   -2.0776 C   0  0  0  0  0  0  0  0  0  0  0  0
    1.1756    0.6676   -0.5553 C   0  0  0  0  0  0  0  0  0  0  0  0
    2.5307   -0.3487    0.1283 S   0  0  0  0  0  0  0  0  0  0  0  0
    1.1756    2.0776    0.0187 C   0  0  0  0  0  0  0  0  0  0  0  0
    1.1470   -0.3467   -2.4743 H   0  0  0  0  0  0  0  0  0  0  0  0
    2.0740    1.1573   -2.4612 H   0  0  0  0  0  0  0  0  0  0  0  0
    0.3086    1.2150   -2.4565 H   0  0  0  0  0  0  0  0  0  0  0  0
    0.1077    0.0357   -0.1303 H   0  0  0  0  0  0  0  0  0  0  0  0
    3.5366    0.3871   -0.3666 H   0  0  0  0  0  0  0  0  0  0  0  0
    0.3086    2.6349   -0.3455 H   0  0  0  0  0  0  0  0  0  0  0  0
    2.0740    2.6175   -0.2903 H   0  0  0  0  0  0  0  0  0  0  0  0
    1.1470    2.0626    1.1077 H   0  0  0  0  0  0  0  0  0  0  0  0
  1  2  1  0
  1  6  1  0
  1  7  1  0
  1  8  1  0
  2  3  1  0
  2  5  1  0
  3  4  2  3
  3  9  1  0
  4 10  1  0
  4 11  1  0
  5 12  1  0
 13 14  1  0
 13 17  1  0
 13 18  1  0
 13 19  1  0
 14 16  1  0
 14 15  1  0
 14 20  1  0
 15 21  1  0
 16 22  1  0
 16 23  1  0
 16 24  1  0
M  RAD  1   2   2
M  END
>  <reaction>  (7) 
rxn_1938

>  <mol_properties>  (7) 
{"1": {"label": "*1", "atom_type": "Cs"}, "4": {"label": "*0", "atom_type": "S2s"}, "13": {"label": "*3", "atom_type": "Cs"}, "14": {"label": "*4", "atom_type": "S2s"}, "19": {"label": "*2", "atom_type": "H0"}}

>  <type>  (7) 
unop_3

>  <geom_source>  (7) 
Heuristics

$$$$

     RDKit          3D

 24 22  0  0  0  0  0  0  0  0999 V2000
   -2.3744    0.3336   -0.4266 C   0  0  0  0  0  0  0  0  0  0  0  0
   -1.1375   -0.3803    0.0927 C   0  0  0  0  0  3  0  0  0  0  0  0
   -0.6295    0.0966    1.4210 C   0  0  0  0  0  0  0  0  0  0  0  0
   -1.2128    0.9943    2.2008 C   0  0  0  0  0  0  0  0  0  0  0  0
   -1.3562   -2.2008    0.1359 S   0  0  0  0  0  0  0  0  0  0  0  0
   -3.2227    0.1878    0.2447 H   0  0  0  0  0  0  0  0  0  0  0  0
   -2.1888    1.4064   -0.5162 H   0  0  0  0  0  0  0  0  0  0  0  0
   -2.6514   -0.0542   -1.4057 H   0  0  0  0  0  0  0  0  0  0  0  0
    0.2941   -0.3718    1.7468 H   0  0  0  0  0  0  0  0  0  0  0  0
   -0.7757    1.2689    3.1521 H   0  0  0  0  0  0  0  0  0  0  0  0
   -2.1371    1.4885    1.9277 H   0  0  0  0  0  0  0  0  0  0  0  0
   -2.2399   -2.2152    1.1436 H   0  0  0  0  0  0  0  0  0  0  0  0
    0.9995    0.8842   -2.2801 C   0  0  0  0  0  0  0  0  0  0  0  0
    0.9995    0.8842   -0.7578 C   0  0  0  0  0  0  0  0  0  0  0  0
    2.3547   -0.1321   -0.0742 S   0  0  0  0  0  0  0  0  0  0  0  0
    0.9995    2.2941   -0.1838 C   0  0  0  0  0  0  0  0  0  0  0  0
    0.9710   -0.1301   -2.6768 H   0  0  0  0  0  0  0  0  0  0  0  0
    1.8979    1.3739   -2.6637 H   0  0  0  0  0  0  0  0  0  0  0  0
    0.1326    1.4316   -2.6590 H   0  0  0  0  0  0  0  0  0  0  0  0
   -0.0684    0.2523   -0.3328 H   0  0  0  0  0  0  0  0  0  0  0  0
    3.3605    0.6037   -0.5692 H   0  0  0  0  0  0  0  0  0  0  0  0
    0.1326    2.8514   -0.5480 H   0  0  0  0  0  0  0  0  0  0  0  0
    1.8979    2.8341   -0.4928 H   0  0  0  0  0  0  0  0  0  0  0  0
    0.9710    2.2791    0.9051 H   0  0  0  0  0  0  0  0  0  0  0  0
  1  2  1  0
  1  6  1  0
  1  7  1  0
  1  8  1  0
  2  3  1  0
  2  5  1  0
  3  4  2  3
  3  9  1  0
  4 10  1  0
  4 11  1  0
  5 12  1  0
 13 14  1  0
 13 17  1  0
 13 18  1  0
 13 19  1  0
 14 16  1  0
 14 15  1  0
 14 20  1  0
 15 21  1  0
 16 22  1  0
 16 23  1  0
 16 24  1  0
M  RAD  1   2   2
M  END
>  <reaction>  (8) 
rxn_1938

>  <mol_properties>  (8) 
{"1": {"label": "*1", "atom_type": "Cs"}, "4": {"label": "*0", "atom_type": "S2s"}, "13": {"label": "*3", "atom_type": "Cs"}, "14": {"label": "*4", "atom_type": "S2s"}, "19": {"label": "*2", "atom_type": "H0"}}

>  <type>  (8) 
unop_4

>  <geom_source>  (8) 
Heuristics

$$$$

     RDKit          3D

 24 22  0  0  0  0  0  0  0  0999 V2000
   -0.9795   -0.3959    1.9174 C   0  0  0  0  0  0  0  0  0  0  0  0
   -0.9773   -0.3946    0.3977 C   0  0  0  0  0  3  0  0  0  0  0  0
   -0.9974   -1.7489   -0.2468 C   0  0  0  0  0  0  0  0  0  0  0  0
   -1.1147   -2.9086    0.3821 C   0  0  0  0  0  0  0  0  0  0  0  0
   -2.3268    0.6362   -0.2954 S   0  0  0  0  0  0  0  0  0  0  0  0
   -1.8883   -0.8573    2.3082 H   0  0  0  0  0  0  0  0  0  0  0  0
   -0.1209   -0.9511    2.3017 H   0  0  0  0  0  0  0  0  0  0  0  0
   -0.9318    0.6239    2.2961 H   0  0  0  0  0  0  0  0  0  0  0  0
   -0.9237   -1.7356   -1.3298 H   0  0  0  0  0  0  0  0  0  0  0  0
   -1.1307   -3.8390   -0.1706 H   0  0  0  0  0  0  0  0  0  0  0  0
   -1.1969   -2.9798    1.4598 H   0  0  0  0  0  0  0  0  0  0  0  0
   -3.3292   -0.1749    0.0706 H   0  0  0  0  0  0  0  0  0  0  0  0
    1.1597    0.8699   -1.9751 C   0  0  0  0  0  0  0  0  0  0  0  0
    1.1597    0.8699   -0.4528 C   0  0  0  0  0  0  0  0  0  0  0  0
    2.5149   -0.1464    0.2308 S   0  0  0  0  0  0  0  0  0  0  0  0
    1.1597    2.2799    0.1212 C   0  0  0  0  0  0  0  0  0  0  0  0
    1.1312   -0.1443   -2.3718 H   0  0  0  0  0  0  0  0  0  0  0  0
    2.0581    1.3596   -2.3587 H   0  0  0  0  0  0  0  0  0  0  0  0
    0.2928    1.4173   -2.3540 H   0  0  0  0  0  0  0  0  0  0  0  0
    0.0918    0.2380   -0.0278 H   0  0  0  0  0  0  0  0  0  0  0  0
    3.5208    0.5894   -0.2641 H   0  0  0  0  0  0  0  0  0  0  0  0
    0.2928    2.8372   -0.2430 H   0  0  0  0  0  0  0  0  0  0  0  0
    2.0581    2.8198   -0.1878 H   0  0  0  0  0  0  0  0  0  0  0  0
    1.1312    2.2649    1.2102 H   0  0  0  0  0  0  0  0  0  0  0  0
  1  2  1  0
  1  6  1  0
  1  7  1  0
  1  8  1  0
  2  3  1  0
  2  5  1  0
  3  4  2  3
  3  9  1  0
  4 10  1  0
  4 11  1  0
  5 12  1  0
 13 14  1  0
 13 17  1  0
 13 18  1  0
 13 19  1  0
 14 16  1  0
 14 15  1  0
 14 20  1  0
 15 21  1  0
 16 22  1  0
 16 23  1  0
 16 24  1  0
M  RAD  1   2   2
M  END
>  <reaction>  (9) 
rxn_1938

>  <mol_properties>  (9) 
{"1": {"label": "*1", "atom_type": "Cs"}, "4": {"label": "*0", "atom_type": "S2s"}, "13": {"label": "*3", "atom_type": "Cs"}, "14": {"label": "*4", "atom_type": "S2s"}, "19": {"label": "*2", "atom_type": "H0"}}

>  <type>  (9) 
unop_5

>  <geom_source>  (9) 
Heuristics

$$$$

     RDKit          3D

 24 22  0  0  0  0  0  0  0  0999 V2000
   -2.3221    0.6796    0.2742 C   0  0  0  0  0  0  0  0  0  0  0  0
   -1.1875   -0.3186    0.1138 C   0  0  0  0  0  3  0  0  0  0  0  0
   -0.2277   -0.3920    1.2642 C   0  0  0  0  0  0  0  0  0  0  0  0
   -0.3428    0.2514    2.4162 C   0  0  0  0  0  0  0  0  0  0  0  0
   -1.7976   -2.0015   -0.2860 S   0  0  0  0  0  0  0  0  0  0  0  0
   -2.9546    0.4214    1.1255 H   0  0  0  0  0  0  0  0  0  0  0  0
   -1.9280    1.6859    0.4329 H   0  0  0  0  0  0  0  0  0  0  0  0
   -2.9471    0.6876   -0.6174 H   0  0  0  0  0  0  0  0  0  0  0  0
    0.6167   -1.0559    1.1073 H   0  0  0  0  0  0  0  0  0  0  0  0
    0.3973    0.1272    3.1961 H   0  0  0  0  0  0  0  0  0  0  0  0
   -1.1671    0.9214    2.6280 H   0  0  0  0  0  0  0  0  0  0  0  0
   -2.3374   -2.2476    0.9159 H   0  0  0  0  0  0  0  0  0  0  0  0
    0.9495    0.9459   -2.2590 C   0  0  0  0  0  0  0  0  0  0  0  0
    0.9495    0.9459   -0.7367 C   0  0  0  0  0  0  0  0  0  0  0  0
    2.3047   -0.0704   -0.0531 S   0  0  0  0  0  0  0  0  0  0  0  0
    0.9495    2.3559   -0.1627 C   0  0  0  0  0  0  0  0  0  0  0  0
    0.9210   -0.0684   -2.6557 H   0  0  0  0  0  0  0  0  0  0  0  0
    1.8480    1.4356   -2.6426 H   0  0  0  0  0  0  0  0  0  0  0  0
    0.0826    1.4933   -2.6379 H   0  0  0  0  0  0  0  0  0  0  0  0
   -0.1183    0.3140   -0.3117 H   0  0  0  0  0  0  0  0  0  0  0  0
    3.3106    0.6654   -0.5480 H   0  0  0  0  0  0  0  0  0  0  0  0
    0.0826    2.9131   -0.5269 H   0  0  0  0  0  0  0  0  0  0  0  0
    1.8480    2.8958   -0.4717 H   0  0  0  0  0  0  0  0  0  0  0  0
    0.9210    2.3408    0.9263 H   0  0  0  0  0  0  0  0  0  0  0  0
  1  2  1  0
  1  6  1  0
  1  7  1  0
  1  8  1  0
  2  3  1  0
  2  5  1  0
  3  4  2  3
  3  9  1  0
  4 10  1  0
  4 11  1  0
  5 12  1  0
 13 14  1  0
 13 17  1  0
 13 18  1  0
 13 19  1  0
 14 16  1  0
 14 15  1  0
 14 20  1  0
 15 21  1  0
 16 22  1  0
 16 23  1  0
 16 24  1  0
M  RAD  1   2   2
M  END
>  <reaction>  (10) 
rxn_1938

>  <mol_properties>  (10) 
{"1": {"label": "*1", "atom_type": "Cs"}, "4": {"label": "*0", "atom_type": "S2s"}, "13": {"label": "*3", "atom_type": "Cs"}, "14": {"label": "*4", "atom_type": "S2s"}, "19": {"label": "*2", "atom_type": "H0"}}

>  <type>  (10) 
unop_6

>  <geom_source>  (10) 
Heuristics

$$$$

     RDKit          3D

 24 22  0  0  0  0  0  0  0  0999 V2000
   -2.0322    0.7040    1.0380 C   0  0  0  0  0  0  0  0  0  0  0  0
   -1.1960   -0.2471    0.1980 C   0  0  0  0  0  3  0  0  0  0  0  0
   -0.0602   -0.9120    0.9176 C   0  0  0  0  0  0  0  0  0  0  0  0
    0.2035   -0.8166    2.2121 C   0  0  0  0  0  0  0  0  0  0  0  0
   -2.2221   -1.5173   -0.6373 S   0  0  0  0  0  0  0  0  0  0  0  0
   -2.5179    0.1770    1.8614 H   0  0  0  0  0  0  0  0  0  0  0  0
   -1.4071    1.4948    1.4588 H   0  0  0  0  0  0  0  0  0  0  0  0
   -2.8095    1.1624    0.4287 H   0  0  0  0  0  0  0  0  0  0  0  0
    0.5715   -1.5328    0.2899 H   0  0  0  0  0  0  0  0  0  0  0  0
    1.0430   -1.3440    2.6464 H   0  0  0  0  0  0  0  0  0  0  0  0
   -0.3963   -0.2160    2.8848 H   0  0  0  0  0  0  0  0  0  0  0  0
   -2.5450   -2.1941    0.4736 H   0  0  0  0  0  0  0  0  0  0  0  0
    0.9410    1.0174   -2.1748 C   0  0  0  0  0  0  0  0  0  0  0  0
    0.9410    1.0174   -0.6525 C   0  0  0  0  0  0  0  0  0  0  0  0
    2.2962    0.0011    0.0311 S   0  0  0  0  0  0  0  0  0  0  0  0
    0.9410    2.4274   -0.0785 C   0  0  0  0  0  0  0  0  0  0  0  0
    0.9125    0.0032   -2.5715 H   0  0  0  0  0  0  0  0  0  0  0  0
    1.8395    1.5071   -2.5584 H   0  0  0  0  0  0  0  0  0  0  0  0
    0.0741    1.5648   -2.5537 H   0  0  0  0  0  0  0  0  0  0  0  0
   -0.1269    0.3855   -0.2275 H   0  0  0  0  0  0  0  0  0  0  0  0
    3.3021    0.7369   -0.4638 H   0  0  0  0  0  0  0  0  0  0  0  0
    0.0741    2.9847   -0.4427 H   0  0  0  0  0  0  0  0  0  0  0  0
    1.8395    2.9673   -0.3875 H   0  0  0  0  0  0  0  0  0  0  0  0
    0.9125    2.4124    1.0105 H   0  0  0  0  0  0  0  0  0  0  0  0
  1  2  1  0
  1  6  1  0
  1  7  1  0
  1  8  1  0
  2  3  1  0
  2  5  1  0
  3  4  2  3
  3  9  1  0
  4 10  1  0
  4 11  1  0
  5 12  1  0
 13 14  1  0
 13 17  1  0
 13 18  1  0
 13 19  1  0
 14 16  1  0
 14 15  1  0
 14 20  1  0
 15 21  1  0
 16 22  1  0
 16 23  1  0
 16 24  1  0
M  RAD  1   2   2
M  END
>  <reaction>  (11) 
rxn_1938

>  <mol_properties>  (11) 
{"1": {"label": "*1", "atom_type": "Cs"}, "4": {"label": "*0", "atom_type": "S2s"}, "13": {"label": "*3", "atom_type": "Cs"}, "14": {"label": "*4", "atom_type": "S2s"}, "19": {"label": "*2", "atom_type": "H0"}}

>  <type>  (11) 
unop_7

>  <geom_source>  (11) 
Heuristics

$$$$

     RDKit          3D

 24 22  0  0  0  0  0  0  0  0999 V2000
   -0.7881   -2.0406    0.2306 C   0  0  0  0  0  0  0  0  0  0  0  0
   -1.1169   -0.5656    0.0703 C   0  0  0  0  0  3  0  0  0  0  0  0
   -2.5771   -0.2400   -0.0376 C   0  0  0  0  0  0  0  0  0  0  0  0
   -3.5776   -1.0981    0.0923 C   0  0  0  0  0  0  0  0  0  0  0  0
   -0.3539    0.4604    1.3852 S   0  0  0  0  0  0  0  0  0  0  0  0
   -1.2131   -2.4394    1.1535 H   0  0  0  0  0  0  0  0  0  0  0  0
   -1.1879   -2.6160   -0.6074 H   0  0  0  0  0  0  0  0  0  0  0  0
    0.2905   -2.1853    0.2685 H   0  0  0  0  0  0  0  0  0  0  0  0
   -2.7946    0.8072   -0.2230 H   0  0  0  0  0  0  0  0  0  0  0  0
   -4.6049   -0.7676    0.0089 H   0  0  0  0  0  0  0  0  0  0  0  0
   -3.4183   -2.1524    0.2830 H   0  0  0  0  0  0  0  0  0  0  0  0
   -1.1311    0.0163    2.3828 H   0  0  0  0  0  0  0  0  0  0  0  0
    1.0201    0.6989   -2.3026 C   0  0  0  0  0  0  0  0  0  0  0  0
    1.0201    0.6989   -0.7802 C   0  0  0  0  0  0  0  0  0  0  0  0
    2.3752   -0.3174   -0.0967 S   0  0  0  0  0  0  0  0  0  0  0  0
    1.0201    2.1089   -0.2062 C   0  0  0  0  0  0  0  0  0  0  0  0
    0.9916   -0.3154   -2.6992 H   0  0  0  0  0  0  0  0  0  0  0  0
    1.9185    1.1886   -2.6861 H   0  0  0  0  0  0  0  0  0  0  0  0
    0.1532    1.2463   -2.6814 H   0  0  0  0  0  0  0  0  0  0  0  0
   -0.0478    0.0670   -0.3552 H   0  0  0  0  0  0  0  0  0  0  0  0
    3.3811    0.4184   -0.5916 H   0  0  0  0  0  0  0  0  0  0  0  0
    0.1532    2.6661   -0.5704 H   0  0  0  0  0  0  0  0  0  0  0  0
    1.9185    2.6488   -0.5152 H   0  0  0  0  0  0  0  0  0  0  0  0
    0.9916    2.0938    0.8827 H   0  0  0  0  0  0  0  0  0  0  0  0
  1  2  1  0
  1  6  1  0
  1  7  1  0
  1  8  1  0
  2  3  1  0
  2  5  1  0
  3  4  2  3
  3  9  1  0
  4 10  1  0
  4 11  1  0
  5 12  1  0
 13 14  1  0
 13 17  1  0
 13 18  1  0
 13 19  1  0
 14 16  1  0
 14 15  1  0
 14 20  1  0
 15 21  1  0
 16 22  1  0
 16 23  1  0
 16 24  1  0
M  RAD  1   2   2
M  END
>  <reaction>  (12) 
rxn_1938

>  <mol_properties>  (12) 
{"1": {"label": "*1", "atom_type": "Cs"}, "4": {"label": "*0", "atom_type": "S2s"}, "13": {"label": "*3", "atom_type": "Cs"}, "14": {"label": "*4", "atom_type": "S2s"}, "19": {"label": "*2", "atom_type": "H0"}}

>  <type>  (12) 
unop_8

>  <geom_source>  (12) 
Heuristics

$$$$

     RDKit          3D

 24 22  0  0  0  0  0  0  0  0999 V2000
   -2.2111   -0.2198   -0.9056 C   0  0  0  0  0  0  0  0  0  0  0  0
   -1.0953   -0.3943    0.1112 C   0  0  0  0  0  3  0  0  0  0  0  0
   -1.2107    0.4516    1.3445 C   0  0  0  0  0  0  0  0  0  0  0  0
   -2.2282    1.2408    1.6548 C   0  0  0  0  0  0  0  0  0  0  0  0
   -0.8632   -2.1497    0.5894 S   0  0  0  0  0  0  0  0  0  0  0  0
   -3.1759   -0.5055   -0.4826 H   0  0  0  0  0  0  0  0  0  0  0  0
   -2.2743    0.8212   -1.2307 H   0  0  0  0  0  0  0  0  0  0  0  0
   -2.0289   -0.8459   -1.7777 H   0  0  0  0  0  0  0  0  0  0  0  0
   -0.3720    0.3703    2.0290 H   0  0  0  0  0  0  0  0  0  0  0  0
   -2.2280    1.8077    2.5767 H   0  0  0  0  0  0  0  0  0  0  0  0
   -3.0921    1.3554    1.0116 H   0  0  0  0  0  0  0  0  0  0  0  0
   -2.0085   -2.2639    1.2763 H   0  0  0  0  0  0  0  0  0  0  0  0
    1.0417    0.8702   -2.2616 C   0  0  0  0  0  0  0  0  0  0  0  0
    1.0417    0.8702   -0.7393 C   0  0  0  0  0  0  0  0  0  0  0  0
    2.3968   -0.1461   -0.0557 S   0  0  0  0  0  0  0  0  0  0  0  0
    1.0417    2.2802   -0.1653 C   0  0  0  0  0  0  0  0  0  0  0  0
    1.0131   -0.1441   -2.6583 H   0  0  0  0  0  0  0  0  0  0  0  0
    1.9401    1.3599   -2.6452 H   0  0  0  0  0  0  0  0  0  0  0  0
    0.1748    1.4176   -2.6405 H   0  0  0  0  0  0  0  0  0  0  0  0
   -0.0262    0.2383   -0.3143 H   0  0  0  0  0  0  0  0  0  0  0  0
    3.4027    0.5897   -0.5506 H   0  0  0  0  0  0  0  0  0  0  0  0
    0.1748    2.8374   -0.5295 H   0  0  0  0  0  0  0  0  0  0  0  0
    1.9401    2.8201   -0.4743 H   0  0  0  0  0  0  0  0  0  0  0  0
    1.0131    2.2651    0.9237 H   0  0  0  0  0  0  0  0  0  0  0  0
  1  2  1  0
  1  6  1  0
  1  7  1  0
  1  8  1  0
  2  3  1  0
  2  5  1  0
  3  4  2  3
  3  9  1  0
  4 10  1  0
  4 11  1  0
  5 12  1  0
 13 14  1  0
 13 17  1  0
 13 18  1  0
 13 19  1  0
 14 16  1  0
 14 15  1  0
 14 20  1  0
 15 21  1  0
 16 22  1  0
 16 23  1  0
 16 24  1  0
M  RAD  1   2   2
M  END
>  <reaction>  (13) 
rxn_1938

>  <mol_properties>  (13) 
{"1": {"label": "*1", "atom_type": "Cs"}, "4": {"label": "*0", "atom_type": "S2s"}, "13": {"label": "*3", "atom_type": "Cs"}, "14": {"label": "*4", "atom_type": "S2s"}, "19": {"label": "*2", "atom_type": "H0"}}

>  <type>  (13) 
unop_9

>  <geom_source>  (13) 
Heuristics

$$$$

     RDKit          3D

 24 22  0  0  0  0  0  0  0  0999 V2000
   -1.1224   -1.8892   -0.4631 C   0  0  0  0  0  0  0  0  0  0  0  0
   -1.1528   -0.4613    0.0563 C   0  0  0  0  0  3  0  0  0  0  0  0
   -2.5187    0.0942    0.3317 C   0  0  0  0  0  0  0  0  0  0  0  0
   -3.6602   -0.5733    0.2562 C   0  0  0  0  0  0  0  0  0  0  0  0
   -0.0897   -0.2397    1.5343 S   0  0  0  0  0  0  0  0  0  0  0  0
   -1.5431   -2.5818    0.2682 H   0  0  0  0  0  0  0  0  0  0  0  0
   -1.6995   -1.9738   -1.3866 H   0  0  0  0  0  0  0  0  0  0  0  0
   -0.0973   -2.1962   -0.6643 H   0  0  0  0  0  0  0  0  0  0  0  0
   -2.5306    1.1368    0.6336 H   0  0  0  0  0  0  0  0  0  0  0  0
   -4.6008   -0.0893    0.4852 H   0  0  0  0  0  0  0  0  0  0  0  0
   -3.7059   -1.6157   -0.0345 H   0  0  0  0  0  0  0  0  0  0  0  0
   -0.8570   -0.9522    2.3710 H   0  0  0  0  0  0  0  0  0  0  0  0
    0.9842    0.8032   -2.3166 C   0  0  0  0  0  0  0  0  0  0  0  0
    0.9842    0.8032   -0.7942 C   0  0  0  0  0  0  0  0  0  0  0  0
    2.3393   -0.2131   -0.1107 S   0  0  0  0  0  0  0  0  0  0  0  0
    0.9842    2.2132   -0.2202 C   0  0  0  0  0  0  0  0  0  0  0  0
    0.9556   -0.2111   -2.7132 H   0  0  0  0  0  0  0  0  0  0  0  0
    1.8826    1.2929   -2.7001 H   0  0  0  0  0  0  0  0  0  0  0  0
    0.1172    1.3506   -2.6954 H   0  0  0  0  0  0  0  0  0  0  0  0
   -0.0837    0.1713   -0.3692 H   0  0  0  0  0  0  0  0  0  0  0  0
    3.3452    0.5227   -0.6056 H   0  0  0  0  0  0  0  0  0  0  0  0
    0.1173    2.7705   -0.5844 H   0  0  0  0  0  0  0  0  0  0  0  0
    1.8826    2.7531   -0.5292 H   0  0  0  0  0  0  0  0  0  0  0  0
    0.9556    2.1982    0.8687 H   0  0  0  0  0  0  0  0  0  0  0  0
  1  2  1  0
  1  6  1  0
  1  7  1  0
  1  8  1  0
  2  3  1  0
  2  5  1  0
  3  4  2  3
  3  9  1  0
  4 10  1  0
  4 11  1  0
  5 12  1  0
 13 14  1  0
 13 17  1  0
 13 18  1  0
 13 19  1  0
 14 16  1  0
 14 15  1  0
 14 20  1  0
 15 21  1  0
 16 22  1  0
 16 23  1  0
 16 24  1  0
M  RAD  1   2   2
M  END
>  <reaction>  (14) 
rxn_1938

>  <mol_properties>  (14) 
{"1": {"label": "*1", "atom_type": "Cs"}, "4": {"label": "*0", "atom_type": "S2s"}, "13": {"label": "*3", "atom_type": "Cs"}, "14": {"label": "*4", "atom_type": "S2s"}, "19": {"label": "*2", "atom_type": "H0"}}

>  <type>  (14) 
unop_10

>  <geom_source>  (14) 
Heuristics

$$$$

     RDKit          3D

 24 22  0  0  0  0  0  0  0  0999 V2000
   -1.5400    0.3475    1.6648 C   0  0  0  0  0  0  0  0  0  0  0  0
   -1.1183   -0.2378    0.3273 C   0  0  0  0  0  3  0  0  0  0  0  0
   -0.2272   -1.4419    0.4041 C   0  0  0  0  0  0  0  0  0  0  0  0
    0.1294   -2.0770    1.5104 C   0  0  0  0  0  0  0  0  0  0  0  0
   -2.5554   -0.6045   -0.7516 S   0  0  0  0  0  0  0  0  0  0  0  0
   -2.1235   -0.3724    2.2418 H   0  0  0  0  0  0  0  0  0  0  0  0
   -0.6641    0.6289    2.2537 H   0  0  0  0  0  0  0  0  0  0  0  0
   -2.1557    1.2326    1.5127 H   0  0  0  0  0  0  0  0  0  0  0  0
    0.1242   -1.8067   -0.5560 H   0  0  0  0  0  0  0  0  0  0  0  0
    0.7703   -2.9481    1.4665 H   0  0  0  0  0  0  0  0  0  0  0  0
   -0.1961   -1.7597    2.4935 H   0  0  0  0  0  0  0  0  0  0  0  0
   -3.0183   -1.6340   -0.0289 H   0  0  0  0  0  0  0  0  0  0  0  0
    1.0187    1.0267   -2.0456 C   0  0  0  0  0  0  0  0  0  0  0  0
    1.0187    1.0267   -0.5232 C   0  0  0  0  0  0  0  0  0  0  0  0
    2.3739    0.0104    0.1604 S   0  0  0  0  0  0  0  0  0  0  0  0
    1.0187    2.4367    0.0508 C   0  0  0  0  0  0  0  0  0  0  0  0
    0.9902    0.0125   -2.4422 H   0  0  0  0  0  0  0  0  0  0  0  0
    1.9171    1.5165   -2.4291 H   0  0  0  0  0  0  0  0  0  0  0  0
    0.1518    1.5742   -2.4244 H   0  0  0  0  0  0  0  0  0  0  0  0
   -0.0492    0.3948   -0.0982 H   0  0  0  0  0  0  0  0  0  0  0  0
    3.3798    0.7463   -0.3346 H   0  0  0  0  0  0  0  0  0  0  0  0
    0.1518    2.9940   -0.3134 H   0  0  0  0  0  0  0  0  0  0  0  0
    1.9171    2.9766   -0.2582 H   0  0  0  0  0  0  0  0  0  0  0  0
    0.9902    2.4217    1.1397 H   0  0  0  0  0  0  0  0  0  0  0  0
  1  2  1  0
  1  6  1  0
  1  7  1  0
  1  8  1  0
  2  3  1  0
  2  5  1  0
  3  4  2  3
  3  9  1  0
  4 10  1  0
  4 11  1  0
  5 12  1  0
 13 14  1  0
 13 17  1  0
 13 18  1  0
 13 19  1  0
 14 16  1  0
 14 15  1  0
 14 20  1  0
 15 21  1  0
 16 22  1  0
 16 23  1  0
 16 24  1  0
M  RAD  1   2   2
M  END
>  <reaction>  (15) 
rxn_1938

>  <mol_properties>  (15) 
{"1": {"label": "*1", "atom_type": "Cs"}, "4": {"label": "*0", "atom_type": "S2s"}, "13": {"label": "*3", "atom_type": "Cs"}, "14": {"label": "*4", "atom_type": "S2s"}, "19": {"label": "*2", "atom_type": "H0"}}

>  <type>  (15) 
unop_11

>  <geom_source>  (15) 
Heuristics

$$$$

     RDKit          3D

 24 22  0  0  0  0  0  0  0  0999 V2000
   -1.9036   -0.8498   -1.0795 C   0  0  0  0  0  0  0  0  0  0  0  0
   -1.1000   -0.3743    0.1194 C   0  0  0  0  0  3  0  0  0  0  0  0
   -1.8289    0.5368    1.0621 C   0  0  0  0  0  0  0  0  0  0  0  0
   -3.1088    0.8698    0.9892 C   0  0  0  0  0  0  0  0  0  0  0  0
   -0.3654   -1.7689    1.0573 S   0  0  0  0  0  0  0  0  0  0  0  0
   -2.7679   -1.4376   -0.7647 H   0  0  0  0  0  0  0  0  0  0  0  0
   -2.2622    0.0013   -1.6629 H   0  0  0  0  0  0  0  0  0  0  0  0
   -1.2879   -1.4771   -1.7223 H   0  0  0  0  0  0  0  0  0  0  0  0
   -1.2231    0.9257    1.8746 H   0  0  0  0  0  0  0  0  0  0  0  0
   -3.5523    1.5283    1.7248 H   0  0  0  0  0  0  0  0  0  0  0  0
   -3.7600    0.5070    0.2034 H   0  0  0  0  0  0  0  0  0  0  0  0
   -1.5213   -2.2349    1.5502 H   0  0  0  0  0  0  0  0  0  0  0  0
    1.0370    0.8902   -2.2534 C   0  0  0  0  0  0  0  0  0  0  0  0
    1.0370    0.8902   -0.7311 C   0  0  0  0  0  0  0  0  0  0  0  0
    2.3921   -0.1261   -0.0475 S   0  0  0  0  0  0  0  0  0  0  0  0
    1.0370    2.3002   -0.1571 C   0  0  0  0  0  0  0  0  0  0  0  0
    1.0084   -0.1241   -2.6501 H   0  0  0  0  0  0  0  0  0  0  0  0
    1.9354    1.3799   -2.6370 H   0  0  0  0  0  0  0  0  0  0  0  0
    0.1700    1.4376   -2.6323 H   0  0  0  0  0  0  0  0  0  0  0  0
   -0.0309    0.2583   -0.3061 H   0  0  0  0  0  0  0  0  0  0  0  0
    3.3980    0.6097   -0.5424 H   0  0  0  0  0  0  0  0  0  0  0  0
    0.1700    2.8575   -0.5213 H   0  0  0  0  0  0  0  0  0  0  0  0
    1.9354    2.8401   -0.4660 H   0  0  0  0  0  0  0  0  0  0  0  0
    1.0084    2.2852    0.9319 H   0  0  0  0  0  0  0  0  0  0  0  0
  1  2  1  0
  1  6  1  0
  1  7  1  0
  1  8  1  0
  2  3  1  0
  2  5  1  0
  3  4  2  3
  3  9  1  0
  4 10  1  0
  4 11  1  0
  5 12  1  0
 13 14  1  0
 13 17  1  0
 13 18  1  0
 13 19  1  0
 14 16  1  0
 14 15  1  0
 14 20  1  0
 15 21  1  0
 16 22  1  0
 16 23  1  0
 16 24  1  0
M  RAD  1   2   2
M  END
>  <reaction>  (16) 
rxn_1938

>  <mol_properties>  (16) 
{"1": {"label": "*1", "atom_type": "Cs"}, "4": {"label": "*0", "atom_type": "S2s"}, "13": {"label": "*3", "atom_type": "Cs"}, "14": {"label": "*4", "atom_type": "S2s"}, "19": {"label": "*2", "atom_type": "H0"}}

>  <type>  (16) 
unop_12

>  <geom_source>  (16) 
Heuristics

$$$$

     RDKit          3D

 24 22  0  0  0  0  0  0  0  0999 V2000
    0.9721   -0.2567    1.9444 S   0  0  0  0  0  0  0  0  0  0  0  0
   -2.1686   -0.8880   -1.9975 S   0  0  0  0  0  0  0  0  0  0  0  0
    0.9783    0.1467    0.1650 C   0  0  0  0  0  0  0  0  0  0  0  0
    1.6758   -0.9538   -0.6349 C   0  0  0  0  0  0  0  0  0  0  0  0
   -2.0373   -1.2421    0.7328 C   0  0  0  0  0  0  0  0  0  0  0  0
   -1.8631    1.1178   -0.1410 C   0  0  0  0  0  0  0  0  0  0  0  0
   -1.5117   -0.3465   -0.3864 C   0  0  0  0  0  3  0  0  0  0  0  0
    1.6166    1.4922   -0.0693 C   0  0  0  0  0  0  0  0  0  0  0  0
    2.8817    1.7629    0.2721 C   0  0  0  0  0  0  0  0  0  0  0  0
   -0.2882    0.2149   -0.2439 H   0  0  0  0  0  0  0  0  0  0  0  0
    2.7195   -1.0994   -0.2842 H   0  0  0  0  0  0  0  0  0  0  0  0
    1.1242   -1.9101   -0.5173 H   0  0  0  0  0  0  0  0  0  0  0  0
    1.6880   -0.6899   -1.7138 H   0  0  0  0  0  0  0  0  0  0  0  0
   -1.7313   -2.2930    0.5482 H   0  0  0  0  0  0  0  0  0  0  0  0
   -1.6100   -0.9225    1.7066 H   0  0  0  0  0  0  0  0  0  0  0  0
   -3.1460   -1.1909    0.7862 H   0  0  0  0  0  0  0  0  0  0  0  0
   -2.9653    1.2561   -0.1114 H   0  0  0  0  0  0  0  0  0  0  0  0
   -1.4406    1.7447   -0.9539 H   0  0  0  0  0  0  0  0  0  0  0  0
   -1.4267    1.4564    0.8222 H   0  0  0  0  0  0  0  0  0  0  0  0
    1.0205    2.2726   -0.5321 H   0  0  0  0  0  0  0  0  0  0  0  0
    3.2952    2.7481    0.0830 H   0  0  0  0  0  0  0  0  0  0  0  0
    3.5097    1.0130    0.7428 H   0  0  0  0  0  0  0  0  0  0  0  0
    0.1149   -1.3600    1.7703 H   0  0  0  0  0  0  0  0  0  0  0  0
   -1.4076   -2.0722   -1.9877 H   0  0  0  0  0  0  0  0  0  0  0  0
  1  3  1  0
  1 23  1  0
  2  7  1  0
  2 24  1  0
  3  4  1  0
  3  8  1  0
  3 10  1  0
  4 11  1  0
  4 12  1  0
  4 13  1  0
  5  7  1  0
  5 14  1  0
  5 15  1  0
  5 16  1  0
  6  7  1  0
  6 17  1  0
  6 18  1  0
  6 19  1  0
  8  9  2  3
  8 20  1  0
  9 21  1  0
  9 22  1  0
M  RAD  1   7   2
M  END
>  <reaction>  (17) 
rxn_1938

>  <mol_properties>  (17) 
{"1": {"label": "*1", "atom_type": "Cs"}, "4": {"label": "*0", "atom_type": "S2s"}, "13": {"label": "*3", "atom_type": "Cs"}, "14": {"label": "*4", "atom_type": "S2s"}, "19": {"label": "*2", "atom_type": "H0"}}

>  <type>  (17) 
unop_13

>  <geom_source>  (17) 
AutoTST

$$$$
