
     RDKit          3D

  7  6  0  0  0  0  0  0  0  0999 V2000
   -1.0240    0.8044   -0.4204 O   0  0  0  0  0  0  0  0  0  0  0  0
   -0.3365   -0.3409    0.0003 C   0  0  0  0  0  0  0  0  0  0  0  0
    1.1270   -0.1767   -0.0328 C   0  0  0  0  0  0  0  0  0  0  0  0
    2.2637   -0.0259   -0.0358 N   0  0  0  0  0  0  0  0  0  0  0  0
   -0.8050    1.5374    0.1584 H   0  0  0  0  0  0  0  0  0  0  0  0
   -0.6168   -0.6523    1.0127 H   0  0  0  0  0  0  0  0  0  0  0  0
   -0.6084   -1.1459   -0.6824 H   0  0  0  0  0  0  0  0  0  0  0  0
  1  2  1  0
  1  5  1  0
  2  3  1  0
  2  6  1  0
  2  7  1  0
  3  4  3  0
M  END
>  <reaction>  (1) 
rxn_3161

>  <mol_properties>  (1) 
{"1": {"label": "donator", "atom_type": "Cs"}, "5": {"label": "d_hydrogen", "atom_type": "H0"}}

>  <type>  (1) 
r1h

$$$$

     RDKit          3D

  6  6  0  0  0  0  0  0  0  0999 V2000
    1.9594    0.0134   -0.3734 N   0  0  0  0  0  2  0  0  0  0  0  0
    0.7437    0.0051   -0.0788 C   0  0  0  0  0  0  0  0  0  0  0  0
   -0.0745    1.0868    0.0233 O   0  0  0  0  0  0  0  0  0  0  0  0
   -1.3223    0.5972    0.3682 N   0  0  0  0  0  0  0  0  0  0  0  0
   -1.2899   -0.6150    0.4676 N   0  0  0  0  0  0  0  0  0  0  0  0
   -0.0165   -1.0874    0.2015 O   0  0  0  0  0  0  0  0  0  0  0  0
  1  2  2  0
  2  3  1  0
  2  6  1  0
  3  4  1  0
  4  5  2  0
  5  6  1  0
M  RAD  1   1   2
M  END
>  <reaction>  (2) 
rxn_3161

>  <mol_properties>  (2) 
{"0": {"label": "acceptor", "atom_type": "N3d"}}

>  <type>  (2) 
r2

$$$$

     RDKit          3D

  7  7  0  0  0  0  0  0  0  0999 V2000
    1.6064   -0.4313    0.1905 N   0  0  0  0  0  0  0  0  0  0  0  0
    0.3982   -0.1725    0.0701 C   0  0  0  0  0  0  0  0  0  0  0  0
   -0.6051   -1.0481    0.3497 O   0  0  0  0  0  0  0  0  0  0  0  0
   -1.7906   -0.4044    0.0958 N   0  0  0  0  0  0  0  0  0  0  0  0
   -1.5819    0.7348   -0.2956 N   0  0  0  0  0  0  0  0  0  0  0  0
   -0.2229    0.9708   -0.3436 O   0  0  0  0  0  0  0  0  0  0  0  0
    2.1958    0.3506   -0.0669 H   0  0  0  0  0  0  0  0  0  0  0  0
  1  2  2  3
  1  7  1  0
  2  3  1  0
  2  6  1  0
  3  4  1  0
  4  5  2  0
  5  6  1  0
M  END
>  <reaction>  (3) 
rxn_3161

>  <mol_properties>  (3) 
{"0": {"label": "acceptor", "atom_type": "N3d"}, "6": {"label": "a_hydrogen", "atom_type": "H0"}}

>  <type>  (3) 
r2h

$$$$

     RDKit          3D

 13 12  0  0  0  0  0  0  0  0999 V2000
    0.3583   -0.9715    1.2502 N   0  0  0  0  0  2  0  0  0  0  0  0
   -0.5911   -0.9359    0.4407 C   0  0  0  0  0  0  0  0  0  0  0  0
   -1.7278   -1.6834    0.5271 O   0  0  0  0  0  0  0  0  0  0  0  0
   -2.5144   -1.3456   -0.5510 N   0  0  0  0  0  0  0  0  0  0  0  0
   -1.9637   -0.5023   -1.2370 N   0  0  0  0  0  0  0  0  0  0  0  0
   -0.7336   -0.1788   -0.6882 O   0  0  0  0  0  0  0  0  0  0  0  0
    2.2880    0.5446   -1.0372 O   0  0  0  0  0  0  0  0  0  0  0  0
    2.0359    0.8188    0.2877 C   0  0  0  0  0  0  0  0  0  0  0  0
    1.3817    2.0922    0.5451 C   0  0  0  0  0  0  0  0  0  0  0  0
    0.8090    3.0694    0.7334 N   0  0  0  0  0  0  0  0  0  0  0  0
    1.5127    0.7523   -1.5660 H   0  0  0  0  0  0  0  0  0  0  0  0
    1.2981   -0.0320    0.7916 H   0  0  0  0  0  0  0  0  0  0  0  0
    2.9521    0.7054    0.8651 H   0  0  0  0  0  0  0  0  0  0  0  0
  1  2  2  0
  2  3  1  0
  2  6  1  0
  3  4  1  0
  4  5  2  0
  5  6  1  0
  7  8  1  0
  7 11  1  0
  8  9  1  0
  8 12  1  0
  8 13  1  0
  9 10  3  0
M  RAD  1   1   2
M  END
>  <reaction>  (4) 
rxn_3161

>  <mol_properties>  (4) 
{"0": {"label": "*3", "atom_type": "N3d"}, "1": {"label": "*4", "atom_type": "Cd"}, "7": {"label": "*1", "atom_type": "Cs"}, "8": {"label": "*0", "atom_type": "Ct"}, "11": {"label": "*2", "atom_type": "H0"}}

>  <type>  (4) 
ts

$$$$

     RDKit          3D

 13 12  0  0  0  0  0  0  0  0999 V2000
   -1.1012    0.0878   -0.3188 N   0  0  0  0  0  0  0  0  0  0  0  0
   -0.7495   -0.8668    0.3929 C   0  0  0  0  0  0  0  0  0  0  0  0
   -1.3129   -1.1777    1.5918 O   0  0  0  0  0  0  0  0  0  0  0  0
   -0.6622   -2.2866    2.0728 N   0  0  0  0  0  0  0  0  0  0  0  0
    0.2057   -2.6446    1.2898 N   0  0  0  0  0  0  0  0  0  0  0  0
    0.2236   -1.8038    0.1955 O   0  0  0  0  0  0  0  0  0  0  0  0
    0.8689    1.3417   -2.6917 O   0  0  0  0  0  0  0  0  0  0  0  0
    0.8689    1.3417   -1.2912 C   0  0  0  0  0  0  0  0  0  0  0  0
    0.8689    2.6982   -0.7170 C   0  0  0  0  0  0  0  0  0  0  0  0
    0.8398    3.7592   -0.2833 N   0  0  0  0  0  2  0  0  0  0  0  0
    0.0811    1.7871   -3.0098 H   0  0  0  0  0  0  0  0  0  0  0  0
   -0.1550    0.6900   -0.7858 H   0  0  0  0  0  0  0  0  0  0  0  0
    1.7779    0.8321   -0.9715 H   0  0  0  0  0  0  0  0  0  0  0  0
  1  2  2  3
  1 12  1  0
  2  3  1  0
  2  6  1  0
  3  4  1  0
  4  5  2  0
  5  6  1  0
  7  8  1  0
  7 11  1  0
  8  9  2  0
  8 13  1  0
  9 10  2  0
M  RAD  1  10   2
M  END
>  <reaction>  (5) 
rxn_3161

>  <mol_properties>  (5) 
{"0": {"label": "*3", "atom_type": "N3d"}, "1": {"label": "*4", "atom_type": "Cd"}, "7": {"label": "*1", "atom_type": "Cs"}, "8": {"label": "*0", "atom_type": "Ct"}, "11": {"label": "*2", "atom_type": "H0"}}

>  <type>  (5) 
unop_1

>  <geom_source>  (5) 
Heuristics

$$$$

     RDKit          3D

 13 12  0  0  0  0  0  0  0  0999 V2000
   -0.3845    0.0783    1.1050 N   0  0  0  0  0  0  0  0  0  0  0  0
   -0.7670   -0.8455    0.3691 C   0  0  0  0  0  0  0  0  0  0  0  0
   -1.5343   -1.8895    0.7848 O   0  0  0  0  0  0  0  0  0  0  0  0
   -1.7489   -2.6969   -0.3043 N   0  0  0  0  0  0  0  0  0  0  0  0
   -1.1947   -2.2368   -1.2920 N   0  0  0  0  0  0  0  0  0  0  0  0
   -0.5471   -1.0638   -0.9605 O   0  0  0  0  0  0  0  0  0  0  0  0
    1.5856    1.3322   -1.2680 O   0  0  0  0  0  0  0  0  0  0  0  0
    1.5856    1.3322    0.1325 C   0  0  0  0  0  0  0  0  0  0  0  0
    1.5856    2.6887    0.7067 C   0  0  0  0  0  0  0  0  0  0  0  0
    1.5565    3.7497    1.1405 N   0  0  0  0  0  2  0  0  0  0  0  0
    0.7978    1.7776   -1.5860 H   0  0  0  0  0  0  0  0  0  0  0  0
    0.5617    0.6805    0.6380 H   0  0  0  0  0  0  0  0  0  0  0  0
    2.4946    0.8227    0.4523 H   0  0  0  0  0  0  0  0  0  0  0  0
  1  2  2  3
  1 12  1  0
  2  3  1  0
  2  6  1  0
  3  4  1  0
  4  5  2  0
  5  6  1  0
  7  8  1  0
  7 11  1  0
  8  9  2  0
  8 13  1  0
  9 10  2  0
M  RAD  1  10   2
M  END
>  <reaction>  (6) 
rxn_3161

>  <mol_properties>  (6) 
{"0": {"label": "*3", "atom_type": "N3d"}, "1": {"label": "*4", "atom_type": "Cd"}, "7": {"label": "*1", "atom_type": "Cs"}, "8": {"label": "*0", "atom_type": "Ct"}, "11": {"label": "*2", "atom_type": "H0"}}

>  <type>  (6) 
unop_2

>  <geom_source>  (6) 
Heuristics

$$$$

     RDKit          3D

 13 12  0  0  0  0  0  0  0  0999 V2000
   -1.0052   -0.3436   -0.6890 N   0  0  0  0  0  0  0  0  0  0  0  0
   -0.7429   -0.8570    0.4105 C   0  0  0  0  0  0  0  0  0  0  0  0
   -1.6462   -1.0222    1.4146 O   0  0  0  0  0  0  0  0  0  0  0  0
   -0.9882   -1.6192    2.4609 N   0  0  0  0  0  0  0  0  0  0  0  0
    0.1836   -1.8140    2.1721 N   0  0  0  0  0  0  0  0  0  0  0  0
    0.4305   -1.3627    0.8913 O   0  0  0  0  0  0  0  0  0  0  0  0
    0.9649    0.9103   -3.0620 O   0  0  0  0  0  0  0  0  0  0  0  0
    0.9649    0.9103   -1.6615 C   0  0  0  0  0  0  0  0  0  0  0  0
    0.9649    2.2668   -1.0873 C   0  0  0  0  0  0  0  0  0  0  0  0
    0.9358    3.3278   -0.6535 N   0  0  0  0  0  2  0  0  0  0  0  0
    0.1771    1.3557   -3.3800 H   0  0  0  0  0  0  0  0  0  0  0  0
   -0.0590    0.2586   -1.1561 H   0  0  0  0  0  0  0  0  0  0  0  0
    1.8739    0.4008   -1.3417 H   0  0  0  0  0  0  0  0  0  0  0  0
  1  2  2  3
  1 12  1  0
  2  3  1  0
  2  6  1  0
  3  4  1  0
  4  5  2  0
  5  6  1  0
  7  8  1  0
  7 11  1  0
  8  9  2  0
  8 13  1  0
  9 10  2  0
M  RAD  1  10   2
M  END
>  <reaction>  (7) 
rxn_3161

>  <mol_properties>  (7) 
{"0": {"label": "*3", "atom_type": "N3d"}, "1": {"label": "*4", "atom_type": "Cd"}, "7": {"label": "*1", "atom_type": "Cs"}, "8": {"label": "*0", "atom_type": "Ct"}, "11": {"label": "*2", "atom_type": "H0"}}

>  <type>  (7) 
unop_3

>  <geom_source>  (7) 
Heuristics

$$$$

     RDKit          3D

 13 12  0  0  0  0  0  0  0  0999 V2000
    0.3087   -1.3164    0.7193 N   0  0  0  0  0  0  0  0  0  0  0  0
   -0.7795   -0.8306    0.3712 C   0  0  0  0  0  0  0  0  0  0  0  0
   -1.8956   -0.8134    1.1494 O   0  0  0  0  0  0  0  0  0  0  0  0
   -2.8874   -0.1987    0.4265 N   0  0  0  0  0  0  0  0  0  0  0  0
   -2.4688    0.1367   -0.6720 N   0  0  0  0  0  0  0  0  0  0  0  0
   -1.1421   -0.2230   -0.7964 O   0  0  0  0  0  0  0  0  0  0  0  0
    2.2788   -0.0625   -1.6537 O   0  0  0  0  0  0  0  0  0  0  0  0
    2.2788   -0.0625   -0.2532 C   0  0  0  0  0  0  0  0  0  0  0  0
    2.2788    1.2940    0.3210 C   0  0  0  0  0  0  0  0  0  0  0  0
    2.2497    2.3550    0.7548 N   0  0  0  0  0  2  0  0  0  0  0  0
    1.4910    0.3829   -1.9718 H   0  0  0  0  0  0  0  0  0  0  0  0
    1.2548   -0.7142    0.2522 H   0  0  0  0  0  0  0  0  0  0  0  0
    3.1878   -0.5720    0.0666 H   0  0  0  0  0  0  0  0  0  0  0  0
  1  2  2  3
  1 12  1  0
  2  3  1  0
  2  6  1  0
  3  4  1  0
  4  5  2  0
  5  6  1  0
  7  8  1  0
  7 11  1  0
  8  9  2  0
  8 13  1  0
  9 10  2  0
M  RAD  1  10   2
M  END
>  <reaction>  (8) 
rxn_3161

>  <mol_properties>  (8) 
{"0": {"label": "*3", "atom_type": "N3d"}, "1": {"label": "*4", "atom_type": "Cd"}, "7": {"label": "*1", "atom_type": "Cs"}, "8": {"label": "*0", "atom_type": "Ct"}, "11": {"label": "*2", "atom_type": "H0"}}

>  <type>  (8) 
unop_4

>  <geom_source>  (8) 
Heuristics

$$$$

     RDKit          3D

 13 12  0  0  0  0  0  0  0  0999 V2000
   -0.7539   -0.8311   -0.8200 N   0  0  0  0  0  0  0  0  0  0  0  0
   -0.7499   -0.8286    0.4214 C   0  0  0  0  0  0  0  0  0  0  0  0
   -1.6957   -1.4306    1.1925 O   0  0  0  0  0  0  0  0  0  0  0  0
   -1.3525   -1.2122    2.5035 N   0  0  0  0  0  0  0  0  0  0  0  0
   -0.3228   -0.5568    2.5712 N   0  0  0  0  0  0  0  0  0  0  0  0
    0.1315   -0.2677    1.3004 O   0  0  0  0  0  0  0  0  0  0  0  0
    1.2163    0.4227   -3.1930 O   0  0  0  0  0  0  0  0  0  0  0  0
    1.2163    0.4227   -1.7925 C   0  0  0  0  0  0  0  0  0  0  0  0
    1.2163    1.7793   -1.2183 C   0  0  0  0  0  0  0  0  0  0  0  0
    1.1871    2.8403   -0.7846 N   0  0  0  0  0  2  0  0  0  0  0  0
    0.4285    0.8682   -3.5111 H   0  0  0  0  0  0  0  0  0  0  0  0
    0.1923   -0.2289   -1.2871 H   0  0  0  0  0  0  0  0  0  0  0  0
    2.1252   -0.0868   -1.4727 H   0  0  0  0  0  0  0  0  0  0  0  0
  1  2  2  3
  1 12  1  0
  2  3  1  0
  2  6  1  0
  3  4  1  0
  4  5  2  0
  5  6  1  0
  7  8  1  0
  7 11  1  0
  8  9  2  0
  8 13  1  0
  9 10  2  0
M  RAD  1  10   2
M  END
>  <reaction>  (9) 
rxn_3161

>  <mol_properties>  (9) 
{"0": {"label": "*3", "atom_type": "N3d"}, "1": {"label": "*4", "atom_type": "Cd"}, "7": {"label": "*1", "atom_type": "Cs"}, "8": {"label": "*0", "atom_type": "Ct"}, "11": {"label": "*2", "atom_type": "H0"}}

>  <type>  (9) 
unop_5

>  <geom_source>  (9) 
Heuristics

$$$$

     RDKit          3D

 13 12  0  0  0  0  0  0  0  0999 V2000
    0.1995   -1.5550    0.1971 N   0  0  0  0  0  0  0  0  0  0  0  0
   -0.7851   -0.8210    0.3789 C   0  0  0  0  0  0  0  0  0  0  0  0
   -1.5837   -0.8680    1.4796 O   0  0  0  0  0  0  0  0  0  0  0  0
   -2.5566    0.0869    1.3185 N   0  0  0  0  0  0  0  0  0  0  0  0
   -2.4071    0.6728    0.2561 N   0  0  0  0  0  0  0  0  0  0  0  0
   -1.3088    0.1645   -0.4074 O   0  0  0  0  0  0  0  0  0  0  0  0
    2.1697   -0.3011   -2.1758 O   0  0  0  0  0  0  0  0  0  0  0  0
    2.1697   -0.3011   -0.7753 C   0  0  0  0  0  0  0  0  0  0  0  0
    2.1697    1.0554   -0.2011 C   0  0  0  0  0  0  0  0  0  0  0  0
    2.1405    2.1164    0.2326 N   0  0  0  0  0  2  0  0  0  0  0  0
    1.3819    0.1443   -2.4939 H   0  0  0  0  0  0  0  0  0  0  0  0
    1.1457   -0.9528   -0.2699 H   0  0  0  0  0  0  0  0  0  0  0  0
    3.0786   -0.8106   -0.4556 H   0  0  0  0  0  0  0  0  0  0  0  0
  1  2  2  3
  1 12  1  0
  2  3  1  0
  2  6  1  0
  3  4  1  0
  4  5  2  0
  5  6  1  0
  7  8  1  0
  7 11  1  0
  8  9  2  0
  8 13  1  0
  9 10  2  0
M  RAD  1  10   2
M  END
>  <reaction>  (10) 
rxn_3161

>  <mol_properties>  (10) 
{"0": {"label": "*3", "atom_type": "N3d"}, "1": {"label": "*4", "atom_type": "Cd"}, "7": {"label": "*1", "atom_type": "Cs"}, "8": {"label": "*0", "atom_type": "Ct"}, "11": {"label": "*2", "atom_type": "H0"}}

>  <type>  (10) 
unop_6

>  <geom_source>  (10) 
Heuristics

$$$$

     RDKit          3D

 13 12  0  0  0  0  0  0  0  0999 V2000
   -0.0685   -1.5349   -0.3188 N   0  0  0  0  0  0  0  0  0  0  0  0
   -0.7844   -0.8121    0.3929 C   0  0  0  0  0  0  0  0  0  0  0  0
   -1.3046   -1.1908    1.5918 O   0  0  0  0  0  0  0  0  0  0  0  0
   -2.0336   -0.1318    2.0728 N   0  0  0  0  0  0  0  0  0  0  0  0
   -1.9905    0.8060    1.2898 N   0  0  0  0  0  0  0  0  0  0  0  0
   -1.2211    0.4662    0.1955 O   0  0  0  0  0  0  0  0  0  0  0  0
    1.9017   -0.2810   -2.6917 O   0  0  0  0  0  0  0  0  0  0  0  0
    1.9017   -0.2810   -1.2912 C   0  0  0  0  0  0  0  0  0  0  0  0
    1.9017    1.0755   -0.7170 C   0  0  0  0  0  0  0  0  0  0  0  0
    1.8726    2.1365   -0.2833 N   0  0  0  0  0  2  0  0  0  0  0  0
    1.1139    0.1644   -3.0098 H   0  0  0  0  0  0  0  0  0  0  0  0
    0.8777   -0.9327   -0.7858 H   0  0  0  0  0  0  0  0  0  0  0  0
    2.8106   -0.7905   -0.9715 H   0  0  0  0  0  0  0  0  0  0  0  0
  1  2  2  3
  1 12  1  0
  2  3  1  0
  2  6  1  0
  3  4  1  0
  4  5  2  0
  5  6  1  0
  7  8  1  0
  7 11  1  0
  8  9  2  0
  8 13  1  0
  9 10  2  0
M  RAD  1  10   2
M  END
>  <reaction>  (11) 
rxn_3161

>  <mol_properties>  (11) 
{"0": {"label": "*3", "atom_type": "N3d"}, "1": {"label": "*4", "atom_type": "Cd"}, "7": {"label": "*1", "atom_type": "Cs"}, "8": {"label": "*0", "atom_type": "Ct"}, "11": {"label": "*2", "atom_type": "H0"}}

>  <type>  (11) 
unop_7

>  <geom_source>  (11) 
Heuristics

$$$$

     RDKit          3D

 13 12  0  0  0  0  0  0  0  0999 V2000
   -1.0060    0.3391    0.1971 N   0  0  0  0  0  0  0  0  0  0  0  0
   -0.7579   -0.8637    0.3789 C   0  0  0  0  0  0  0  0  0  0  0  0
   -1.1386   -1.5673    1.4796 O   0  0  0  0  0  0  0  0  0  0  0  0
   -0.6855   -2.8530    1.3185 N   0  0  0  0  0  0  0  0  0  0  0  0
   -0.0914   -2.9657    0.2561 N   0  0  0  0  0  0  0  0  0  0  0  0
   -0.0869   -1.7555   -0.4074 O   0  0  0  0  0  0  0  0  0  0  0  0
    0.9642    1.5930   -2.1758 O   0  0  0  0  0  0  0  0  0  0  0  0
    0.9642    1.5930   -0.7753 C   0  0  0  0  0  0  0  0  0  0  0  0
    0.9642    2.9495   -0.2011 C   0  0  0  0  0  0  0  0  0  0  0  0
    0.9351    4.0105    0.2326 N   0  0  0  0  0  2  0  0  0  0  0  0
    0.1764    2.0384   -2.4939 H   0  0  0  0  0  0  0  0  0  0  0  0
   -0.0598    0.9413   -0.2699 H   0  0  0  0  0  0  0  0  0  0  0  0
    1.8731    1.0834   -0.4556 H   0  0  0  0  0  0  0  0  0  0  0  0
  1  2  2  3
  1 12  1  0
  2  3  1  0
  2  6  1  0
  3  4  1  0
  4  5  2  0
  5  6  1  0
  7  8  1  0
  7 11  1  0
  8  9  2  0
  8 13  1  0
  9 10  2  0
M  RAD  1  10   2
M  END
>  <reaction>  (12) 
rxn_3161

>  <mol_properties>  (12) 
{"0": {"label": "*3", "atom_type": "N3d"}, "1": {"label": "*4", "atom_type": "Cd"}, "7": {"label": "*1", "atom_type": "Cs"}, "8": {"label": "*0", "atom_type": "Ct"}, "11": {"label": "*2", "atom_type": "H0"}}

>  <type>  (12) 
unop_8

>  <geom_source>  (12) 
Heuristics

$$$$

     RDKit          3D

 13 12  0  0  0  0  0  0  0  0999 V2000
    0.2264   -0.8816    1.1050 N   0  0  0  0  0  0  0  0  0  0  0  0
   -0.7724   -0.8370    0.3691 C   0  0  0  0  0  0  0  0  0  0  0  0
   -2.0431   -1.0900    0.7848 O   0  0  0  0  0  0  0  0  0  0  0  0
   -2.8655   -0.9425   -0.3043 N   0  0  0  0  0  0  0  0  0  0  0  0
   -2.2139   -0.6353   -1.2920 N   0  0  0  0  0  0  0  0  0  0  0  0
   -0.8771   -0.5453   -0.9605 O   0  0  0  0  0  0  0  0  0  0  0  0
    2.1966    0.3723   -1.2680 O   0  0  0  0  0  0  0  0  0  0  0  0
    2.1966    0.3723    0.1325 C   0  0  0  0  0  0  0  0  0  0  0  0
    2.1966    1.7288    0.7067 C   0  0  0  0  0  0  0  0  0  0  0  0
    2.1674    2.7898    1.1405 N   0  0  0  0  0  2  0  0  0  0  0  0
    1.4088    0.8177   -1.5860 H   0  0  0  0  0  0  0  0  0  0  0  0
    1.1726   -0.2794    0.6380 H   0  0  0  0  0  0  0  0  0  0  0  0
    3.1055   -0.1372    0.4523 H   0  0  0  0  0  0  0  0  0  0  0  0
  1  2  2  3
  1 12  1  0
  2  3  1  0
  2  6  1  0
  3  4  1  0
  4  5  2  0
  5  6  1  0
  7  8  1  0
  7 11  1  0
  8  9  2  0
  8 13  1  0
  9 10  2  0
M  RAD  1  10   2
M  END
>  <reaction>  (13) 
rxn_3161

>  <mol_properties>  (13) 
{"0": {"label": "*3", "atom_type": "N3d"}, "1": {"label": "*4", "atom_type": "Cd"}, "7": {"label": "*1", "atom_type": "Cs"}, "8": {"label": "*0", "atom_type": "Ct"}, "11": {"label": "*2", "atom_type": "H0"}}

>  <type>  (13) 
unop_9

>  <geom_source>  (13) 
Heuristics

$$$$

     RDKit          3D

 13 12  0  0  0  0  0  0  0  0999 V2000
   -0.7436    0.3369    0.7193 N   0  0  0  0  0  0  0  0  0  0  0  0
   -0.7642   -0.8546    0.3712 C   0  0  0  0  0  0  0  0  0  0  0  0
   -1.2212   -1.8729    1.1494 O   0  0  0  0  0  0  0  0  0  0  0  0
   -1.0843   -3.0317    0.4265 N   0  0  0  0  0  0  0  0  0  0  0  0
   -0.6032   -2.7945   -0.6720 N   0  0  0  0  0  0  0  0  0  0  0  0
   -0.3674   -1.4403   -0.7964 O   0  0  0  0  0  0  0  0  0  0  0  0
    1.2265    1.5908   -1.6537 O   0  0  0  0  0  0  0  0  0  0  0  0
    1.2265    1.5908   -0.2532 C   0  0  0  0  0  0  0  0  0  0  0  0
    1.2265    2.9473    0.3210 C   0  0  0  0  0  0  0  0  0  0  0  0
    1.1974    4.0083    0.7548 N   0  0  0  0  0  2  0  0  0  0  0  0
    0.4388    2.0362   -1.9718 H   0  0  0  0  0  0  0  0  0  0  0  0
    0.2026    0.9391    0.2522 H   0  0  0  0  0  0  0  0  0  0  0  0
    2.1355    1.0813    0.0666 H   0  0  0  0  0  0  0  0  0  0  0  0
  1  2  2  3
  1 12  1  0
  2  3  1  0
  2  6  1  0
  3  4  1  0
  4  5  2  0
  5  6  1  0
  7  8  1  0
  7 11  1  0
  8  9  2  0
  8 13  1  0
  9 10  2  0
M  RAD  1  10   2
M  END
>  <reaction>  (14) 
rxn_3161

>  <mol_properties>  (14) 
{"0": {"label": "*3", "atom_type": "N3d"}, "1": {"label": "*4", "atom_type": "Cd"}, "7": {"label": "*1", "atom_type": "Cs"}, "8": {"label": "*0", "atom_type": "Ct"}, "11": {"label": "*2", "atom_type": "H0"}}

>  <type>  (14) 
unop_10

>  <geom_source>  (14) 
Heuristics

$$$$

     RDKit          3D

 13 12  0  0  0  0  0  0  0  0999 V2000
   -0.4186   -1.2653   -0.6890 N   0  0  0  0  0  0  0  0  0  0  0  0
   -0.7726   -0.8103    0.4105 C   0  0  0  0  0  0  0  0  0  0  0  0
   -1.3048   -1.5587    1.4146 O   0  0  0  0  0  0  0  0  0  0  0  0
   -1.5670   -0.7097    2.4609 N   0  0  0  0  0  0  0  0  0  0  0  0
   -1.2473    0.4343    2.1721 N   0  0  0  0  0  0  0  0  0  0  0  0
   -0.7340    0.4669    0.8913 O   0  0  0  0  0  0  0  0  0  0  0  0
    1.5515   -0.0114   -3.0620 O   0  0  0  0  0  0  0  0  0  0  0  0
    1.5515   -0.0114   -1.6615 C   0  0  0  0  0  0  0  0  0  0  0  0
    1.5515    1.3451   -1.0873 C   0  0  0  0  0  0  0  0  0  0  0  0
    1.5224    2.4061   -0.6535 N   0  0  0  0  0  2  0  0  0  0  0  0
    0.7637    0.4340   -3.3800 H   0  0  0  0  0  0  0  0  0  0  0  0
    0.5276   -0.6631   -1.1561 H   0  0  0  0  0  0  0  0  0  0  0  0
    2.4605   -0.5209   -1.3417 H   0  0  0  0  0  0  0  0  0  0  0  0
  1  2  2  3
  1 12  1  0
  2  3  1  0
  2  6  1  0
  3  4  1  0
  4  5  2  0
  5  6  1  0
  7  8  1  0
  7 11  1  0
  8  9  2  0
  8 13  1  0
  9 10  2  0
M  RAD  1  10   2
M  END
>  <reaction>  (15) 
rxn_3161

>  <mol_properties>  (15) 
{"0": {"label": "*3", "atom_type": "N3d"}, "1": {"label": "*4", "atom_type": "Cd"}, "7": {"label": "*1", "atom_type": "Cs"}, "8": {"label": "*0", "atom_type": "Ct"}, "11": {"label": "*2", "atom_type": "H0"}}

>  <type>  (15) 
unop_11

>  <geom_source>  (15) 
Heuristics

$$$$

     RDKit          3D

 13 12  0  0  0  0  0  0  0  0999 V2000
   -0.0277   -0.3690    1.2470 N   0  0  0  0  0  0  0  0  0  0  0  0
   -0.7682   -0.8403    0.3691 C   0  0  0  0  0  0  0  0  0  0  0  0
   -1.8962   -1.5582    0.6217 O   0  0  0  0  0  0  0  0  0  0  0  0
   -2.4395   -1.9039   -0.5905 N   0  0  0  0  0  0  0  0  0  0  0  0
   -1.7546   -1.4681   -1.5045 N   0  0  0  0  0  0  0  0  0  0  0  0
   -0.6737   -0.7801   -0.9915 O   0  0  0  0  0  0  0  0  0  0  0  0
    1.9424    0.8849   -1.1259 O   0  0  0  0  0  0  0  0  0  0  0  0
    1.9424    0.8849    0.2746 C   0  0  0  0  0  0  0  0  0  0  0  0
    1.9424    2.2414    0.8488 C   0  0  0  0  0  0  0  0  0  0  0  0
    1.9133    3.3024    1.2825 N   0  0  0  0  0  2  0  0  0  0  0  0
    1.1546    1.3303   -1.4440 H   0  0  0  0  0  0  0  0  0  0  0  0
    0.9185    0.2332    0.7800 H   0  0  0  0  0  0  0  0  0  0  0  0
    2.8514    0.3754    0.5943 H   0  0  0  0  0  0  0  0  0  0  0  0
  1  2  2  3
  1 12  1  0
  2  3  1  0
  2  6  1  0
  3  4  1  0
  4  5  2  0
  5  6  1  0
  7  8  1  0
  7 11  1  0
  8  9  2  0
  8 13  1  0
  9 10  2  0
M  RAD  1  10   2
M  END
>  <reaction>  (16) 
rxn_3161

>  <mol_properties>  (16) 
{"0": {"label": "*3", "atom_type": "N3d"}, "1": {"label": "*4", "atom_type": "Cd"}, "7": {"label": "*1", "atom_type": "Cs"}, "8": {"label": "*0", "atom_type": "Ct"}, "11": {"label": "*2", "atom_type": "H0"}}

>  <type>  (16) 
unop_12

>  <geom_source>  (16) 
Heuristics

$$$$

     RDKit          3D

 13 12  0  0  0  0  0  0  0  0999 V2000
   -0.3845    0.0783    1.1050 N   0  0  0  0  0  0  0  0  0  0  0  0
   -0.7670   -0.8455    0.3691 C   0  0  0  0  0  0  0  0  0  0  0  0
   -1.5343   -1.8895    0.7848 O   0  0  0  0  0  0  0  0  0  0  0  0
   -1.7489   -2.6969   -0.3043 N   0  0  0  0  0  0  0  0  0  0  0  0
   -1.1947   -2.2368   -1.2920 N   0  0  0  0  0  0  0  0  0  0  0  0
   -0.5471   -1.0638   -0.9606 O   0  0  0  0  0  0  0  0  0  0  0  0
    1.5856    1.3322   -1.2680 O   0  0  0  0  0  0  0  0  0  0  0  0
    1.5856    1.3322    0.1325 C   0  0  0  0  0  0  0  0  0  0  0  0
    1.5856    2.6887    0.7067 C   0  0  0  0  0  0  0  0  0  0  0  0
    1.5565    3.7497    1.1405 N   0  0  0  0  0  2  0  0  0  0  0  0
    0.7978    1.7776   -1.5860 H   0  0  0  0  0  0  0  0  0  0  0  0
    0.5617    0.6805    0.6380 H   0  0  0  0  0  0  0  0  0  0  0  0
    2.4946    0.8227    0.4523 H   0  0  0  0  0  0  0  0  0  0  0  0
  1  2  2  3
  1 12  1  0
  2  3  1  0
  2  6  1  0
  3  4  1  0
  4  5  2  0
  5  6  1  0
  7  8  1  0
  7 11  1  0
  8  9  2  0
  8 13  1  0
  9 10  2  0
M  RAD  1  10   2
M  END
>  <reaction>  (17) 
rxn_3161

>  <mol_properties>  (17) 
{"0": {"label": "*3", "atom_type": "N3d"}, "1": {"label": "*4", "atom_type": "Cd"}, "7": {"label": "*1", "atom_type": "Cs"}, "8": {"label": "*0", "atom_type": "Ct"}, "11": {"label": "*2", "atom_type": "H0"}}

>  <type>  (17) 
unop_13

>  <geom_source>  (17) 
gaussian_log

$$$$
