
     RDKit          3D

 10  9  0  0  0  0  0  0  0  0999 V2000
    2.0861   -0.0291   -0.2114 C   0  0  0  0  0  0  0  0  0  0  0  0
    0.8590   -0.0801    0.2151 C   0  0  0  0  0  0  0  0  0  0  0  0
   -0.3701   -0.1299    0.6360 C   0  0  0  0  0  0  0  0  0  0  0  0
   -1.5792    0.1084   -0.2228 C   0  0  0  0  0  0  0  0  0  0  0  0
    2.6495    0.8968   -0.1902 H   0  0  0  0  0  0  0  0  0  0  0  0
    2.5830   -0.9114   -0.5982 H   0  0  0  0  0  0  0  0  0  0  0  0
   -0.5397   -0.3602    1.6844 H   0  0  0  0  0  0  0  0  0  0  0  0
   -2.2286   -0.7700   -0.2248 H   0  0  0  0  0  0  0  0  0  0  0  0
   -1.2946    0.3298   -1.2505 H   0  0  0  0  0  0  0  0  0  0  0  0
   -2.1655    0.9457    0.1623 H   0  0  0  0  0  0  0  0  0  0  0  0
  1  2  2  0
  1  5  1  0
  1  6  1  0
  2  3  2  0
  3  4  1  0
  3  7  1  0
  4  8  1  0
  4  9  1  0
  4 10  1  0
M  END
>  <reaction>  (1) 
rxn_251

>  <mol_properties>  (1) 
{"0": {"label": "donator", "atom_type": "Cd"}, "4": {"label": "d_hydrogen", "atom_type": "H0"}}

>  <type>  (1) 
r1h

$$$$

     RDKit          3D

  4  3  0  0  0  0  0  0  0  0999 V2000
    0.0000    0.0000    0.0000 C   0  0  0  0  0  3  0  0  0  0  0  0
    1.0638   -0.1747    0.0540 H   0  0  0  0  0  0  0  0  0  0  0  0
   -0.6833   -0.8351   -0.0280 H   0  0  0  0  0  0  0  0  0  0  0  0
   -0.3805    1.0098   -0.0260 H   0  0  0  0  0  0  0  0  0  0  0  0
  1  2  1  0
  1  3  1  0
  1  4  1  0
M  RAD  1   1   2
M  END
>  <reaction>  (2) 
rxn_251

>  <mol_properties>  (2) 
{"0": {"label": "acceptor", "atom_type": "Cs"}}

>  <type>  (2) 
r2

$$$$

     RDKit          3D

  5  4  0  0  0  0  0  0  0  0999 V2000
    0.0000    0.0000    0.0000 C   0  0  0  0  0  0  0  0  0  0  0  0
   -0.6486   -0.7720   -0.4113 H   0  0  0  0  0  0  0  0  0  0  0  0
   -0.3482    0.9787   -0.3267 H   0  0  0  0  0  0  0  0  0  0  0  0
   -0.0223   -0.0487    1.0876 H   0  0  0  0  0  0  0  0  0  0  0  0
    1.0191   -0.1580   -0.3496 H   0  0  0  0  0  0  0  0  0  0  0  0
  1  2  1  0
  1  3  1  0
  1  4  1  0
  1  5  1  0
M  END
>  <reaction>  (3) 
rxn_251

>  <mol_properties>  (3) 
{"0": {"label": "a_hydrogen", "atom_type": "H0"}, "1": {"label": "acceptor", "atom_type": "Cs"}}

>  <type>  (3) 
r2h

$$$$

     RDKit          3D

 14 12  0  0  0  0  0  0  0  0999 V2000
    0.5667    0.6865    1.0408 C   0  0  0  0  0  0  0  0  0  0  0  0
    0.5274   -0.3022    0.2271 C   0  0  0  0  0  0  0  0  0  0  0  0
    0.3970   -1.2966   -0.6183 C   0  0  0  0  0  0  0  0  0  0  0  0
    0.4983   -1.1630   -2.1088 C   0  0  0  0  0  0  0  0  0  0  0  0
   -0.5335    1.2762    1.3218 H   0  0  0  0  0  0  0  0  0  0  0  0
    1.4219    1.1111    1.5474 H   0  0  0  0  0  0  0  0  0  0  0  0
    0.2198   -2.2893   -0.2145 H   0  0  0  0  0  0  0  0  0  0  0  0
    1.3141   -1.7769   -2.4985 H   0  0  0  0  0  0  0  0  0  0  0  0
    0.6749   -0.1287   -2.4006 H   0  0  0  0  0  0  0  0  0  0  0  0
   -0.4215   -1.5062   -2.5893 H   0  0  0  0  0  0  0  0  0  0  0  0
   -1.7420    1.9118    1.6223 C   0  0  0  0  0  3  0  0  0  0  0  0
   -1.5984    2.9345    1.2892 H   0  0  0  0  0  0  0  0  0  0  0  0
   -1.8470    1.7964    2.6961 H   0  0  0  0  0  0  0  0  0  0  0  0
   -2.4553    1.3420    1.0355 H   0  0  0  0  0  0  0  0  0  0  0  0
  1  2  2  0
  1  5  1  0
  1  6  1  0
  2  3  2  0
  3  4  1  0
  3  7  1  0
  4  8  1  0
  4  9  1  0
  4 10  1  0
 11 12  1  0
 11 13  1  0
 11 14  1  0
M  RAD  1  11   2
M  END
>  <reaction>  (4) 
rxn_251

>  <mol_properties>  (4) 
{"0": {"label": "*1", "atom_type": "Cd"}, "1": {"label": "*0", "atom_type": "Cdd"}, "4": {"label": "*2", "atom_type": "H0"}, "10": {"label": "*3", "atom_type": "Cs"}, "11": {"label": "*4", "atom_type": "H0"}}

>  <type>  (4) 
ts

$$$$

     RDKit          3D

 14 12  0  0  0  0  0  0  0  0999 V2000
    0.4942    0.7972    0.8806 C   0  0  0  0  0  0  0  0  0  0  0  0
    0.4942   -0.2713    0.1398 C   0  0  0  0  0  0  0  0  0  0  0  0
    0.4942   -1.3397   -0.6009 C   0  0  0  0  0  0  0  0  0  0  0  0
    0.4942   -1.3397   -2.1030 C   0  0  0  0  0  0  0  0  0  0  0  0
   -0.6187    1.3497    1.2656 H   0  0  0  0  0  0  0  0  0  0  0  0
    1.4216    1.2576    1.2015 H   0  0  0  0  0  0  0  0  0  0  0  0
    0.5030   -2.3048   -0.1014 H   0  0  0  0  0  0  0  0  0  0  0  0
    1.3741   -1.8604   -2.4875 H   0  0  0  0  0  0  0  0  0  0  0  0
    0.4942   -0.3243   -2.4966 H   0  0  0  0  0  0  0  0  0  0  0  0
   -0.3858   -1.8604   -2.4875 H   0  0  0  0  0  0  0  0  0  0  0  0
   -1.7367    1.9047    1.6524 C   0  0  0  0  0  3  0  0  0  0  0  0
   -1.7802    1.9135    2.7405 H   0  0  0  0  0  0  0  0  0  0  0  0
   -2.7429    2.0038    1.2482 H   0  0  0  0  0  0  0  0  0  0  0  0
   -1.1220    2.7880    1.4860 H   0  0  0  0  0  0  0  0  0  0  0  0
  1  2  2  0
  1  5  1  0
  1  6  1  0
  2  3  2  0
  3  4  1  0
  3  7  1  0
  4  8  1  0
  4  9  1  0
  4 10  1  0
 11 12  1  0
 11 13  1  0
 11 14  1  0
M  RAD  1  11   2
M  END
>  <reaction>  (5) 
rxn_251

>  <mol_properties>  (5) 
{"0": {"label": "*1", "atom_type": "Cd"}, "1": {"label": "*0", "atom_type": "Cdd"}, "4": {"label": "*2", "atom_type": "H0"}, "10": {"label": "*3", "atom_type": "Cs"}, "11": {"label": "*4", "atom_type": "H0"}}

>  <type>  (5) 
unop_1

>  <geom_source>  (5) 
Heuristics

$$$$

     RDKit          3D

 14 12  0  0  0  0  0  0  0  0999 V2000
    0.4937    0.8038    0.8845 C   0  0  0  0  0  0  0  0  0  0  0  0
    0.4937   -0.2647    0.1437 C   0  0  0  0  0  0  0  0  0  0  0  0
    0.4937   -1.3331   -0.5970 C   0  0  0  0  0  0  0  0  0  0  0  0
    0.4937   -1.3331   -2.0991 C   0  0  0  0  0  0  0  0  0  0  0  0
   -0.6192    1.3563    1.2695 H   0  0  0  0  0  0  0  0  0  0  0  0
    1.4212    1.2642    1.2053 H   0  0  0  0  0  0  0  0  0  0  0  0
    0.5026   -2.2982   -0.0976 H   0  0  0  0  0  0  0  0  0  0  0  0
    1.3737   -1.8538   -2.4837 H   0  0  0  0  0  0  0  0  0  0  0  0
    0.4937   -0.3177   -2.4928 H   0  0  0  0  0  0  0  0  0  0  0  0
   -0.3862   -1.8538   -2.4837 H   0  0  0  0  0  0  0  0  0  0  0  0
   -1.7371    1.9113    1.6563 C   0  0  0  0  0  3  0  0  0  0  0  0
   -2.5072    1.1475    1.7528 H   0  0  0  0  0  0  0  0  0  0  0  0
   -2.1616    2.7975    1.1869 H   0  0  0  0  0  0  0  0  0  0  0  0
   -0.9492    2.3269    2.2826 H   0  0  0  0  0  0  0  0  0  0  0  0
  1  2  2  0
  1  5  1  0
  1  6  1  0
  2  3  2  0
  3  4  1  0
  3  7  1  0
  4  8  1  0
  4  9  1  0
  4 10  1  0
 11 12  1  0
 11 13  1  0
 11 14  1  0
M  RAD  1  11   2
M  END
>  <reaction>  (6) 
rxn_251

>  <mol_properties>  (6) 
{"0": {"label": "*1", "atom_type": "Cd"}, "1": {"label": "*0", "atom_type": "Cdd"}, "4": {"label": "*2", "atom_type": "H0"}, "10": {"label": "*3", "atom_type": "Cs"}, "11": {"label": "*4", "atom_type": "H0"}}

>  <type>  (6) 
unop_2

>  <geom_source>  (6) 
Heuristics

$$$$

     RDKit          3D

 14 12  0  0  0  0  0  0  0  0999 V2000
    0.4973    0.7963    0.8825 C   0  0  0  0  0  0  0  0  0  0  0  0
    0.4973   -0.2722    0.1418 C   0  0  0  0  0  0  0  0  0  0  0  0
    0.4973   -1.3406   -0.5989 C   0  0  0  0  0  0  0  0  0  0  0  0
    0.4973   -1.3406   -2.1010 C   0  0  0  0  0  0  0  0  0  0  0  0
   -0.6156    1.3488    1.2676 H   0  0  0  0  0  0  0  0  0  0  0  0
    1.4247    1.2567    1.2034 H   0  0  0  0  0  0  0  0  0  0  0  0
    0.5062   -2.3057   -0.0995 H   0  0  0  0  0  0  0  0  0  0  0  0
    1.3773   -1.8613   -2.4856 H   0  0  0  0  0  0  0  0  0  0  0  0
    0.4973   -0.3252   -2.4947 H   0  0  0  0  0  0  0  0  0  0  0  0
   -0.3827   -1.8613   -2.4856 H   0  0  0  0  0  0  0  0  0  0  0  0
   -1.7336    1.9038    1.6544 C   0  0  0  0  0  3  0  0  0  0  0  0
   -1.5830    2.3911    2.6165 H   0  0  0  0  0  0  0  0  0  0  0  0
   -2.7561    1.5349    1.5903 H   0  0  0  0  0  0  0  0  0  0  0  0
   -1.5132    2.8391    1.1420 H   0  0  0  0  0  0  0  0  0  0  0  0
  1  2  2  0
  1  5  1  0
  1  6  1  0
  2  3  2  0
  3  4  1  0
  3  7  1  0
  4  8  1  0
  4  9  1  0
  4 10  1  0
 11 12  1  0
 11 13  1  0
 11 14  1  0
M  RAD  1  11   2
M  END
>  <reaction>  (7) 
rxn_251

>  <mol_properties>  (7) 
{"0": {"label": "*1", "atom_type": "Cd"}, "1": {"label": "*0", "atom_type": "Cdd"}, "4": {"label": "*2", "atom_type": "H0"}, "10": {"label": "*3", "atom_type": "Cs"}, "11": {"label": "*4", "atom_type": "H0"}}

>  <type>  (7) 
unop_3

>  <geom_source>  (7) 
Heuristics

$$$$

     RDKit          3D

 14 12  0  0  0  0  0  0  0  0999 V2000
    0.4922    0.8009    0.8830 C   0  0  0  0  0  0  0  0  0  0  0  0
    0.4922   -0.2676    0.1422 C   0  0  0  0  0  0  0  0  0  0  0  0
    0.4922   -1.3360   -0.5985 C   0  0  0  0  0  0  0  0  0  0  0  0
    0.4922   -1.3360   -2.1006 C   0  0  0  0  0  0  0  0  0  0  0  0
   -0.6207    1.3534    1.2680 H   0  0  0  0  0  0  0  0  0  0  0  0
    1.4197    1.2614    1.2039 H   0  0  0  0  0  0  0  0  0  0  0  0
    0.5011   -2.3011   -0.0990 H   0  0  0  0  0  0  0  0  0  0  0  0
    1.3722   -1.8567   -2.4851 H   0  0  0  0  0  0  0  0  0  0  0  0
    0.4922   -0.3205   -2.4942 H   0  0  0  0  0  0  0  0  0  0  0  0
   -0.3877   -1.8567   -2.4851 H   0  0  0  0  0  0  0  0  0  0  0  0
   -1.7386    1.9085    1.6548 C   0  0  0  0  0  3  0  0  0  0  0  0
   -2.3163    2.2080    0.7817 H   0  0  0  0  0  0  0  0  0  0  0  0
   -1.0640    2.7150    1.9380 H   0  0  0  0  0  0  0  0  0  0  0  0
   -2.1385    1.5380    2.5975 H   0  0  0  0  0  0  0  0  0  0  0  0
  1  2  2  0
  1  5  1  0
  1  6  1  0
  2  3  2  0
  3  4  1  0
  3  7  1  0
  4  8  1  0
  4  9  1  0
  4 10  1  0
 11 12  1  0
 11 13  1  0
 11 14  1  0
M  RAD  1  11   2
M  END
>  <reaction>  (8) 
rxn_251

>  <mol_properties>  (8) 
{"0": {"label": "*1", "atom_type": "Cd"}, "1": {"label": "*0", "atom_type": "Cdd"}, "4": {"label": "*2", "atom_type": "H0"}, "10": {"label": "*3", "atom_type": "Cs"}, "11": {"label": "*4", "atom_type": "H0"}}

>  <type>  (8) 
unop_4

>  <geom_source>  (8) 
Heuristics

$$$$

     RDKit          3D

 14 12  0  0  0  0  0  0  0  0999 V2000
    0.5008    0.7994    0.8804 C   0  0  0  0  0  0  0  0  0  0  0  0
    0.5008   -0.2691    0.1396 C   0  0  0  0  0  0  0  0  0  0  0  0
    0.5008   -1.3376   -0.6011 C   0  0  0  0  0  0  0  0  0  0  0  0
    0.5008   -1.3376   -2.1032 C   0  0  0  0  0  0  0  0  0  0  0  0
   -0.6121    1.3519    1.2654 H   0  0  0  0  0  0  0  0  0  0  0  0
    1.4282    1.2598    1.2012 H   0  0  0  0  0  0  0  0  0  0  0  0
    0.5096   -2.3027   -0.1017 H   0  0  0  0  0  0  0  0  0  0  0  0
    1.3808   -1.8582   -2.4878 H   0  0  0  0  0  0  0  0  0  0  0  0
    0.5008   -0.3221   -2.4969 H   0  0  0  0  0  0  0  0  0  0  0  0
   -0.3792   -1.8582   -2.4878 H   0  0  0  0  0  0  0  0  0  0  0  0
   -1.7301    1.9069    1.6522 C   0  0  0  0  0  3  0  0  0  0  0  0
   -1.5091    2.7834    2.2594 H   0  0  0  0  0  0  0  0  0  0  0  0
   -2.3051    1.1934    2.2404 H   0  0  0  0  0  0  0  0  0  0  0  0
   -2.2642    2.5865    0.9899 H   0  0  0  0  0  0  0  0  0  0  0  0
  1  2  2  0
  1  5  1  0
  1  6  1  0
  2  3  2  0
  3  4  1  0
  3  7  1  0
  4  8  1  0
  4  9  1  0
  4 10  1  0
 11 12  1  0
 11 13  1  0
 11 14  1  0
M  RAD  1  11   2
M  END
>  <reaction>  (9) 
rxn_251

>  <mol_properties>  (9) 
{"0": {"label": "*1", "atom_type": "Cd"}, "1": {"label": "*0", "atom_type": "Cdd"}, "4": {"label": "*2", "atom_type": "H0"}, "10": {"label": "*3", "atom_type": "Cs"}, "11": {"label": "*4", "atom_type": "H0"}}

>  <type>  (9) 
unop_5

>  <geom_source>  (9) 
Heuristics

$$$$

     RDKit          3D

 14 12  0  0  0  0  0  0  0  0999 V2000
    0.4933    0.7997    0.8804 C   0  0  0  0  0  0  0  0  0  0  0  0
    0.4933   -0.2689    0.1396 C   0  0  0  0  0  0  0  0  0  0  0  0
    0.4933   -1.3373   -0.6011 C   0  0  0  0  0  0  0  0  0  0  0  0
    0.4933   -1.3373   -2.1032 C   0  0  0  0  0  0  0  0  0  0  0  0
   -0.6196    1.3522    1.2654 H   0  0  0  0  0  0  0  0  0  0  0  0
    1.4208    1.2601    1.2012 H   0  0  0  0  0  0  0  0  0  0  0  0
    0.5022   -2.3024   -0.1017 H   0  0  0  0  0  0  0  0  0  0  0  0
    1.3733   -1.8579   -2.4877 H   0  0  0  0  0  0  0  0  0  0  0  0
    0.4933   -0.3218   -2.4969 H   0  0  0  0  0  0  0  0  0  0  0  0
   -0.3867   -1.8579   -2.4877 H   0  0  0  0  0  0  0  0  0  0  0  0
   -1.7375    1.9072    1.6522 C   0  0  0  0  0  3  0  0  0  0  0  0
   -2.0496    2.6463    0.9159 H   0  0  0  0  0  0  0  0  0  0  0  0
   -0.9782    2.3400    2.3017 H   0  0  0  0  0  0  0  0  0  0  0  0
   -2.5627    1.5584    2.2714 H   0  0  0  0  0  0  0  0  0  0  0  0
  1  2  2  0
  1  5  1  0
  1  6  1  0
  2  3  2  0
  3  4  1  0
  3  7  1  0
  4  8  1  0
  4  9  1  0
  4 10  1  0
 11 12  1  0
 11 13  1  0
 11 14  1  0
M  RAD  1  11   2
M  END
>  <reaction>  (10) 
rxn_251

>  <mol_properties>  (10) 
{"0": {"label": "*1", "atom_type": "Cd"}, "1": {"label": "*0", "atom_type": "Cdd"}, "4": {"label": "*2", "atom_type": "H0"}, "10": {"label": "*3", "atom_type": "Cs"}, "11": {"label": "*4", "atom_type": "H0"}}

>  <type>  (10) 
unop_6

>  <geom_source>  (10) 
Heuristics

$$$$

     RDKit          3D

 14 12  0  0  0  0  0  0  0  0999 V2000
    0.4949    0.7997    0.8775 C   0  0  0  0  0  0  0  0  0  0  0  0
    0.4949   -0.2688    0.1368 C   0  0  0  0  0  0  0  0  0  0  0  0
    0.4949   -1.3373   -0.6039 C   0  0  0  0  0  0  0  0  0  0  0  0
    0.4949   -1.3373   -2.1060 C   0  0  0  0  0  0  0  0  0  0  0  0
   -0.6180    1.3522    1.2626 H   0  0  0  0  0  0  0  0  0  0  0  0
    1.4223    1.2601    1.1984 H   0  0  0  0  0  0  0  0  0  0  0  0
    0.5038   -2.3023   -0.1045 H   0  0  0  0  0  0  0  0  0  0  0  0
    1.3749   -1.8579   -2.4906 H   0  0  0  0  0  0  0  0  0  0  0  0
    0.4949   -0.3218   -2.4997 H   0  0  0  0  0  0  0  0  0  0  0  0
   -0.3851   -1.8579   -2.4906 H   0  0  0  0  0  0  0  0  0  0  0  0
   -1.7360    1.9072    1.6494 C   0  0  0  0  0  3  0  0  0  0  0  0
   -1.7821    2.9291    1.2760 H   0  0  0  0  0  0  0  0  0  0  0  0
   -1.1203    1.8762    2.5470 H   0  0  0  0  0  0  0  0  0  0  0  0
   -2.7924    1.7376    1.8515 H   0  0  0  0  0  0  0  0  0  0  0  0
  1  2  2  0
  1  5  1  0
  1  6  1  0
  2  3  2  0
  3  4  1  0
  3  7  1  0
  4  8  1  0
  4  9  1  0
  4 10  1  0
 11 12  1  0
 11 13  1  0
 11 14  1  0
M  RAD  1  11   2
M  END
>  <reaction>  (11) 
rxn_251

>  <mol_properties>  (11) 
{"0": {"label": "*1", "atom_type": "Cd"}, "1": {"label": "*0", "atom_type": "Cdd"}, "4": {"label": "*2", "atom_type": "H0"}, "10": {"label": "*3", "atom_type": "Cs"}, "11": {"label": "*4", "atom_type": "H0"}}

>  <type>  (11) 
unop_7

>  <geom_source>  (11) 
Heuristics

$$$$

     RDKit          3D

 14 12  0  0  0  0  0  0  0  0999 V2000
    0.4937    0.8003    0.8797 C   0  0  0  0  0  0  0  0  0  0  0  0
    0.4937   -0.2683    0.1390 C   0  0  0  0  0  0  0  0  0  0  0  0
    0.4937   -1.3367   -0.6017 C   0  0  0  0  0  0  0  0  0  0  0  0
    0.4937   -1.3367   -2.1038 C   0  0  0  0  0  0  0  0  0  0  0  0
   -0.6193    1.3528    1.2648 H   0  0  0  0  0  0  0  0  0  0  0  0
    1.4211    1.2607    1.2006 H   0  0  0  0  0  0  0  0  0  0  0  0
    0.5025   -2.3018   -0.1023 H   0  0  0  0  0  0  0  0  0  0  0  0
    1.3736   -1.8573   -2.4884 H   0  0  0  0  0  0  0  0  0  0  0  0
    0.4937   -0.3212   -2.4975 H   0  0  0  0  0  0  0  0  0  0  0  0
   -0.3863   -1.8573   -2.4884 H   0  0  0  0  0  0  0  0  0  0  0  0
   -1.7372    1.9078    1.6516 C   0  0  0  0  0  3  0  0  0  0  0  0
   -2.0462    1.4770    2.6028 H   0  0  0  0  0  0  0  0  0  0  0  0
   -2.5981    2.3594    1.1609 H   0  0  0  0  0  0  0  0  0  0  0  0
   -0.9675    2.6693    1.7670 H   0  0  0  0  0  0  0  0  0  0  0  0
  1  2  2  0
  1  5  1  0
  1  6  1  0
  2  3  2  0
  3  4  1  0
  3  7  1  0
  4  8  1  0
  4  9  1  0
  4 10  1  0
 11 12  1  0
 11 13  1  0
 11 14  1  0
M  RAD  1  11   2
M  END
>  <reaction>  (12) 
rxn_251

>  <mol_properties>  (12) 
{"0": {"label": "*1", "atom_type": "Cd"}, "1": {"label": "*0", "atom_type": "Cdd"}, "4": {"label": "*2", "atom_type": "H0"}, "10": {"label": "*3", "atom_type": "Cs"}, "11": {"label": "*4", "atom_type": "H0"}}

>  <type>  (12) 
unop_8

>  <geom_source>  (12) 
Heuristics

$$$$

     RDKit          3D

 14 12  0  0  0  0  0  0  0  0999 V2000
    0.4916    0.8023    0.8851 C   0  0  0  0  0  0  0  0  0  0  0  0
    0.4916   -0.2662    0.1443 C   0  0  0  0  0  0  0  0  0  0  0  0
    0.4916   -1.3346   -0.5964 C   0  0  0  0  0  0  0  0  0  0  0  0
    0.4916   -1.3346   -2.0985 C   0  0  0  0  0  0  0  0  0  0  0  0
   -0.6213    1.3548    1.2701 H   0  0  0  0  0  0  0  0  0  0  0  0
    1.4190    1.2628    1.2060 H   0  0  0  0  0  0  0  0  0  0  0  0
    0.5004   -2.2997   -0.0970 H   0  0  0  0  0  0  0  0  0  0  0  0
    1.3715   -1.8553   -2.4830 H   0  0  0  0  0  0  0  0  0  0  0  0
    0.4916   -0.3191   -2.4922 H   0  0  0  0  0  0  0  0  0  0  0  0
   -0.3884   -1.8553   -2.4830 H   0  0  0  0  0  0  0  0  0  0  0  0
   -1.7393    1.9099    1.6569 C   0  0  0  0  0  3  0  0  0  0  0  0
   -2.5109    1.7310    0.9097 H   0  0  0  0  0  0  0  0  0  0  0  0
   -1.3612    2.9256    1.5522 H   0  0  0  0  0  0  0  0  0  0  0  0
   -1.6027    1.7123    2.7190 H   0  0  0  0  0  0  0  0  0  0  0  0
  1  2  2  0
  1  5  1  0
  1  6  1  0
  2  3  2  0
  3  4  1  0
  3  7  1  0
  4  8  1  0
  4  9  1  0
  4 10  1  0
 11 12  1  0
 11 13  1  0
 11 14  1  0
M  RAD  1  11   2
M  END
>  <reaction>  (13) 
rxn_251

>  <mol_properties>  (13) 
{"0": {"label": "*1", "atom_type": "Cd"}, "1": {"label": "*0", "atom_type": "Cdd"}, "4": {"label": "*2", "atom_type": "H0"}, "10": {"label": "*3", "atom_type": "Cs"}, "11": {"label": "*4", "atom_type": "H0"}}

>  <type>  (13) 
unop_9

>  <geom_source>  (13) 
Heuristics

$$$$

     RDKit          3D

 14 12  0  0  0  0  0  0  0  0999 V2000
    0.4941    0.8029    0.8815 C   0  0  0  0  0  0  0  0  0  0  0  0
    0.4941   -0.2656    0.1407 C   0  0  0  0  0  0  0  0  0  0  0  0
    0.4941   -1.3341   -0.6000 C   0  0  0  0  0  0  0  0  0  0  0  0
    0.4941   -1.3341   -2.1021 C   0  0  0  0  0  0  0  0  0  0  0  0
   -0.6188    1.3554    1.2665 H   0  0  0  0  0  0  0  0  0  0  0  0
    1.4215    1.2633    1.2023 H   0  0  0  0  0  0  0  0  0  0  0  0
    0.5030   -2.2991   -0.1006 H   0  0  0  0  0  0  0  0  0  0  0  0
    1.3741   -1.8547   -2.4866 H   0  0  0  0  0  0  0  0  0  0  0  0
    0.4941   -0.3186   -2.4958 H   0  0  0  0  0  0  0  0  0  0  0  0
   -0.3859   -1.8547   -2.4866 H   0  0  0  0  0  0  0  0  0  0  0  0
   -1.7368    1.9104    1.6533 C   0  0  0  0  0  3  0  0  0  0  0  0
   -2.3117    1.1969    2.2416 H   0  0  0  0  0  0  0  0  0  0  0  0
   -2.4152    2.6077    1.1641 H   0  0  0  0  0  0  0  0  0  0  0  0
   -0.9148    2.5285    2.0112 H   0  0  0  0  0  0  0  0  0  0  0  0
  1  2  2  0
  1  5  1  0
  1  6  1  0
  2  3  2  0
  3  4  1  0
  3  7  1  0
  4  8  1  0
  4  9  1  0
  4 10  1  0
 11 12  1  0
 11 13  1  0
 11 14  1  0
M  RAD  1  11   2
M  END
>  <reaction>  (14) 
rxn_251

>  <mol_properties>  (14) 
{"0": {"label": "*1", "atom_type": "Cd"}, "1": {"label": "*0", "atom_type": "Cdd"}, "4": {"label": "*2", "atom_type": "H0"}, "10": {"label": "*3", "atom_type": "Cs"}, "11": {"label": "*4", "atom_type": "H0"}}

>  <type>  (14) 
unop_10

>  <geom_source>  (14) 
Heuristics

$$$$

     RDKit          3D

 14 12  0  0  0  0  0  0  0  0999 V2000
    0.4982    0.8008    0.8766 C   0  0  0  0  0  0  0  0  0  0  0  0
    0.4982   -0.2677    0.1358 C   0  0  0  0  0  0  0  0  0  0  0  0
    0.4982   -1.3361   -0.6049 C   0  0  0  0  0  0  0  0  0  0  0  0
    0.4982   -1.3361   -2.1070 C   0  0  0  0  0  0  0  0  0  0  0  0
   -0.6148    1.3533    1.2616 H   0  0  0  0  0  0  0  0  0  0  0  0
    1.4256    1.2612    1.1975 H   0  0  0  0  0  0  0  0  0  0  0  0
    0.5070   -2.3012   -0.1054 H   0  0  0  0  0  0  0  0  0  0  0  0
    1.3781   -1.8568   -2.4915 H   0  0  0  0  0  0  0  0  0  0  0  0
    0.4982   -0.3207   -2.5007 H   0  0  0  0  0  0  0  0  0  0  0  0
   -0.3818   -1.8568   -2.4915 H   0  0  0  0  0  0  0  0  0  0  0  0
   -1.7327    1.9083    1.6484 C   0  0  0  0  0  3  0  0  0  0  0  0
   -1.5837    2.9805    1.7668 H   0  0  0  0  0  0  0  0  0  0  0  0
   -1.5510    1.4094    2.5991 H   0  0  0  0  0  0  0  0  0  0  0  0
   -2.7718    2.0796    1.3714 H   0  0  0  0  0  0  0  0  0  0  0  0
  1  2  2  0
  1  5  1  0
  1  6  1  0
  2  3  2  0
  3  4  1  0
  3  7  1  0
  4  8  1  0
  4  9  1  0
  4 10  1  0
 11 12  1  0
 11 13  1  0
 11 14  1  0
M  RAD  1  11   2
M  END
>  <reaction>  (15) 
rxn_251

>  <mol_properties>  (15) 
{"0": {"label": "*1", "atom_type": "Cd"}, "1": {"label": "*0", "atom_type": "Cdd"}, "4": {"label": "*2", "atom_type": "H0"}, "10": {"label": "*3", "atom_type": "Cs"}, "11": {"label": "*4", "atom_type": "H0"}}

>  <type>  (15) 
unop_11

>  <geom_source>  (15) 
Heuristics

$$$$

     RDKit          3D

 14 12  0  0  0  0  0  0  0  0999 V2000
    0.4923    0.8033    0.8860 C   0  0  0  0  0  0  0  0  0  0  0  0
    0.4923   -0.2652    0.1452 C   0  0  0  0  0  0  0  0  0  0  0  0
    0.4923   -1.3336   -0.5955 C   0  0  0  0  0  0  0  0  0  0  0  0
    0.4923   -1.3336   -2.0976 C   0  0  0  0  0  0  0  0  0  0  0  0
   -0.6206    1.3558    1.2710 H   0  0  0  0  0  0  0  0  0  0  0  0
    1.4197    1.2638    1.2069 H   0  0  0  0  0  0  0  0  0  0  0  0
    0.5012   -2.2987   -0.0961 H   0  0  0  0  0  0  0  0  0  0  0  0
    1.3723   -1.8543   -2.4821 H   0  0  0  0  0  0  0  0  0  0  0  0
    0.4923   -0.3181   -2.4913 H   0  0  0  0  0  0  0  0  0  0  0  0
   -0.3877   -1.8543   -2.4821 H   0  0  0  0  0  0  0  0  0  0  0  0
   -1.7386    1.9109    1.6578 C   0  0  0  0  0  3  0  0  0  0  0  0
   -2.5806    1.3427    1.2655 H   0  0  0  0  0  0  0  0  0  0  0  0
   -1.7847    2.9328    1.2845 H   0  0  0  0  0  0  0  0  0  0  0  0
   -1.1583    2.0278    2.5718 H   0  0  0  0  0  0  0  0  0  0  0  0
  1  2  2  0
  1  5  1  0
  1  6  1  0
  2  3  2  0
  3  4  1  0
  3  7  1  0
  4  8  1  0
  4  9  1  0
  4 10  1  0
 11 12  1  0
 11 13  1  0
 11 14  1  0
M  RAD  1  11   2
M  END
>  <reaction>  (16) 
rxn_251

>  <mol_properties>  (16) 
{"0": {"label": "*1", "atom_type": "Cd"}, "1": {"label": "*0", "atom_type": "Cdd"}, "4": {"label": "*2", "atom_type": "H0"}, "10": {"label": "*3", "atom_type": "Cs"}, "11": {"label": "*4", "atom_type": "H0"}}

>  <type>  (16) 
unop_12

>  <geom_source>  (16) 
Heuristics

$$$$

     RDKit          3D

 14 12  0  0  0  0  0  0  0  0999 V2000
   -2.7155    0.1123    0.0879 C   0  0  0  0  0  0  0  0  0  0  0  0
    2.7646    0.1320    0.4053 C   0  0  0  0  0  0  0  0  0  0  0  0
   -1.4020    0.6577   -0.3707 C   0  0  0  0  0  3  0  0  0  0  0  0
   -0.3646   -0.1193   -0.5264 C   0  0  0  0  0  0  0  0  0  0  0  0
    0.6702   -0.8950   -0.6816 C   0  0  0  0  0  0  0  0  0  0  0  0
   -3.4870    0.3182   -0.6829 H   0  0  0  0  0  0  0  0  0  0  0  0
   -2.6663   -0.9850    0.2618 H   0  0  0  0  0  0  0  0  0  0  0  0
   -3.0093    0.6118    1.0344 H   0  0  0  0  0  0  0  0  0  0  0  0
    2.3551    0.4043    1.3997 H   0  0  0  0  0  0  0  0  0  0  0  0
    2.9054    1.0505   -0.2008 H   0  0  0  0  0  0  0  0  0  0  0  0
    3.7409   -0.3789    0.5346 H   0  0  0  0  0  0  0  0  0  0  0  0
    1.9294   -0.6706   -0.2061 H   0  0  0  0  0  0  0  0  0  0  0  0
   -1.3080    1.7155   -0.5777 H   0  0  0  0  0  0  0  0  0  0  0  0
    0.5870   -1.9537   -0.4774 H   0  0  0  0  0  0  0  0  0  0  0  0
  1  3  1  0
  1  6  1  0
  1  7  1  0
  1  8  1  0
  2  9  1  0
  2 10  1  0
  2 11  1  0
  2 12  1  0
  3  4  1  0
  3 13  1  0
  4  5  3  0
  5 14  1  0
M  RAD  1   3   2
M  END
>  <reaction>  (17) 
rxn_251

>  <mol_properties>  (17) 
{"0": {"label": "*1", "atom_type": "Cd"}, "1": {"label": "*0", "atom_type": "Cdd"}, "4": {"label": "*2", "atom_type": "H0"}, "10": {"label": "*3", "atom_type": "Cs"}, "11": {"label": "*4", "atom_type": "H0"}}

>  <type>  (17) 
unop_13

>  <geom_source>  (17) 
AutoTST

$$$$
