
     RDKit          3D

  9  8  0  0  0  0  0  0  0  0999 V2000
    1.1303   -0.2933   -0.7510 C   0  0  0  0  0  0  0  0  0  0  0  0
    0.2866    0.4560   -0.0588 C   0  0  0  0  0  0  0  0  0  0  0  0
   -0.9719   -0.0331    0.5823 C   0  0  0  0  0  0  0  0  0  0  0  0
    2.0274    0.1230   -1.1916 H   0  0  0  0  0  0  0  0  0  0  0  0
    0.9532   -1.3530   -0.9023 H   0  0  0  0  0  0  0  0  0  0  0  0
    0.5065    1.5132    0.0659 H   0  0  0  0  0  0  0  0  0  0  0  0
   -0.9526    0.1426    1.6610 H   0  0  0  0  0  0  0  0  0  0  0  0
   -1.1182   -1.1002    0.4106 H   0  0  0  0  0  0  0  0  0  0  0  0
   -1.8412    0.5010    0.1901 H   0  0  0  0  0  0  0  0  0  0  0  0
  1  2  2  3
  1  4  1  0
  1  5  1  0
  2  3  1  0
  2  6  1  0
  3  7  1  0
  3  8  1  0
  3  9  1  0
M  END
>  <reaction>  (1) 
rxn_1016

>  <mol_properties>  (1) 
{"2": {"label": "donator", "atom_type": "Cs"}, "6": {"label": "d_hydrogen", "atom_type": "H0"}}

>  <type>  (1) 
r1h

$$$$

     RDKit          3D

  7  6  0  0  0  0  0  0  0  0999 V2000
    1.3003    0.7433    2.1278 C   0  0  0  0  0  0  0  0  0  0  0  0
    0.5759    0.3292    1.2319 C   0  0  0  0  0  0  0  0  0  0  0  0
   -0.2057   -0.1176    0.2652 C   0  0  0  0  0  3  0  0  0  0  0  0
   -0.9747   -0.5572   -0.6858 C   0  0  0  0  0  0  0  0  0  0  0  0
    1.9294    1.1030    2.9059 H   0  0  0  0  0  0  0  0  0  0  0  0
   -1.9977   -0.8727   -0.4931 H   0  0  0  0  0  0  0  0  0  0  0  0
   -0.6275   -0.6280   -1.7142 H   0  0  0  0  0  0  0  0  0  0  0  0
  1  2  3  0
  1  5  1  0
  2  3  1  0
  3  4  2  3
  4  6  1  0
  4  7  1  0
M  RAD  1   3   2
M  END
>  <reaction>  (2) 
rxn_1016

>  <mol_properties>  (2) 
{"2": {"label": "acceptor", "atom_type": "Cd"}}

>  <type>  (2) 
r2

$$$$

     RDKit          3D

  8  7  0  0  0  0  0  0  0  0999 V2000
    1.9029    0.9046   -0.2050 C   0  0  0  0  0  0  0  0  0  0  0  0
    0.8517    0.4283    0.1217 C   0  0  0  0  0  0  0  0  0  0  0  0
   -0.3908   -0.1311    0.5404 C   0  0  0  0  0  0  0  0  0  0  0  0
   -1.2847   -0.6576   -0.2899 C   0  0  0  0  0  0  0  0  0  0  0  0
    2.8335    1.3255   -0.5014 H   0  0  0  0  0  0  0  0  0  0  0  0
   -0.5867   -0.1096    1.6074 H   0  0  0  0  0  0  0  0  0  0  0  0
   -2.2126   -1.0686    0.0850 H   0  0  0  0  0  0  0  0  0  0  0  0
   -1.1134   -0.6914   -1.3582 H   0  0  0  0  0  0  0  0  0  0  0  0
  1  2  3  0
  1  5  1  0
  2  3  1  0
  3  4  2  3
  3  6  1  0
  4  7  1  0
  4  8  1  0
M  END
>  <reaction>  (3) 
rxn_1016

>  <mol_properties>  (3) 
{"2": {"label": "acceptor", "atom_type": "Cd"}, "7": {"label": "a_hydrogen", "atom_type": "H0"}}

>  <type>  (3) 
r2h

$$$$

     RDKit          3D

 16 14  0  0  0  0  0  0  0  0999 V2000
   -1.3807   -1.1276    2.9573 C   0  0  0  0  0  0  0  0  0  0  0  0
   -1.1891   -0.5037    1.9437 C   0  0  0  0  0  0  0  0  0  0  0  0
   -0.8564    0.1429    0.7593 C   0  0  0  0  0  3  0  0  0  0  0  0
   -1.4018    1.1057    0.0444 C   0  0  0  0  0  0  0  0  0  0  0  0
   -1.5727   -1.6633    3.8557 H   0  0  0  0  0  0  0  0  0  0  0  0
   -2.3280    1.5888    0.3416 H   0  0  0  0  0  0  0  0  0  0  0  0
   -0.9290    1.4448   -0.8716 H   0  0  0  0  0  0  0  0  0  0  0  0
    1.9415    1.0991   -2.1439 C   0  0  0  0  0  0  0  0  0  0  0  0
    1.3646   -0.0485   -1.7825 C   0  0  0  0  0  0  0  0  0  0  0  0
    1.4202   -0.6234   -0.4412 C   0  0  0  0  0  0  0  0  0  0  0  0
    1.8427    1.4898   -3.1483 H   0  0  0  0  0  0  0  0  0  0  0  0
    2.5374    1.6752   -1.4445 H   0  0  0  0  0  0  0  0  0  0  0  0
    0.7755   -0.5893   -2.5179 H   0  0  0  0  0  0  0  0  0  0  0  0
    0.3379   -0.3152    0.1624 H   0  0  0  0  0  0  0  0  0  0  0  0
    2.1859   -0.2033    0.2083 H   0  0  0  0  0  0  0  0  0  0  0  0
    1.3902   -1.7100   -0.3976 H   0  0  0  0  0  0  0  0  0  0  0  0
  1  2  3  0
  1  5  1  0
  2  3  1  0
  3  4  2  3
  4  6  1  0
  4  7  1  0
  8  9  2  3
  8 11  1  0
  8 12  1  0
  9 10  1  0
  9 13  1  0
 10 14  1  0
 10 15  1  0
 10 16  1  0
M  RAD  1   3   2
M  END
>  <reaction>  (4) 
rxn_1016

>  <mol_properties>  (4) 
{"1": {"label": "*4", "atom_type": "Ct"}, "2": {"label": "*3", "atom_type": "Cd"}, "8": {"label": "*0", "atom_type": "Cd"}, "9": {"label": "*1", "atom_type": "Cs"}, "13": {"label": "*2", "atom_type": "H0"}}

>  <type>  (4) 
ts

$$$$

     RDKit          3D

 16 14  0  0  0  0  0  0  0  0999 V2000
   -0.4027    0.2648    3.2690 C   0  0  0  0  0  0  0  0  0  0  0  0
   -0.6421    0.2682    2.0938 C   0  0  0  0  0  0  0  0  0  0  0  0
   -0.9037    0.2506    0.6926 C   0  0  0  0  0  0  0  0  0  0  0  0
   -1.8344    0.9929    0.1023 C   0  0  0  0  0  0  0  0  0  0  0  0
   -0.1905    0.2618    4.3111 H   0  0  0  0  0  0  0  0  0  0  0  0
   -2.4615    1.6696    0.6685 H   0  0  0  0  0  0  0  0  0  0  0  0
   -1.9890    0.9383   -0.9671 H   0  0  0  0  0  0  0  0  0  0  0  0
    1.1951   -1.0125   -3.0489 C   0  0  0  0  0  0  0  0  0  0  0  0
    1.1951   -1.0125   -1.7251 C   0  0  0  0  0  0  0  0  0  0  0  0
    1.1951    0.2097   -0.8646 C   0  0  0  0  0  3  0  0  0  0  0  0
    1.1951   -1.9352   -3.6153 H   0  0  0  0  0  0  0  0  0  0  0  0
    1.1951   -0.0869   -3.6149 H   0  0  0  0  0  0  0  0  0  0  0  0
    1.1951   -1.9651   -1.2016 H   0  0  0  0  0  0  0  0  0  0  0  0
    0.1418    0.2303   -0.0831 H   0  0  0  0  0  0  0  0  0  0  0  0
    1.1951    1.1202   -1.4652 H   0  0  0  0  0  0  0  0  0  0  0  0
    2.0728    0.2268   -0.2134 H   0  0  0  0  0  0  0  0  0  0  0  0
  1  2  3  0
  1  5  1  0
  2  3  1  0
  3  4  2  3
  3 14  1  0
  4  6  1  0
  4  7  1  0
  8  9  2  3
  8 11  1  0
  8 12  1  0
  9 10  1  0
  9 13  1  0
 10 15  1  0
 10 16  1  0
M  RAD  1  10   2
M  END
>  <reaction>  (5) 
rxn_1016

>  <mol_properties>  (5) 
{"1": {"label": "*4", "atom_type": "Ct"}, "2": {"label": "*3", "atom_type": "Cd"}, "8": {"label": "*0", "atom_type": "Cd"}, "9": {"label": "*1", "atom_type": "Cs"}, "13": {"label": "*2", "atom_type": "H0"}}

>  <type>  (5) 
unop_1

>  <geom_source>  (5) 
Heuristics

$$$$

     RDKit          3D

 16 14  0  0  0  0  0  0  0  0999 V2000
   -1.6322   -1.6576    1.5987 C   0  0  0  0  0  0  0  0  0  0  0  0
   -1.2138   -0.5767    1.2903 C   0  0  0  0  0  0  0  0  0  0  0  0
   -0.7005    0.6946    0.8997 C   0  0  0  0  0  0  0  0  0  0  0  0
   -0.9847    1.8329    1.5235 C   0  0  0  0  0  0  0  0  0  0  0  0
   -2.0032   -2.6160    1.8723 H   0  0  0  0  0  0  0  0  0  0  0  0
   -1.6392    1.8576    2.3853 H   0  0  0  0  0  0  0  0  0  0  0  0
   -0.5654    2.7700    1.1820 H   0  0  0  0  0  0  0  0  0  0  0  0
    1.3983   -0.5685   -2.8418 C   0  0  0  0  0  0  0  0  0  0  0  0
    1.3983   -0.5685   -1.5180 C   0  0  0  0  0  0  0  0  0  0  0  0
    1.3983    0.6536   -0.6575 C   0  0  0  0  0  3  0  0  0  0  0  0
    1.3983   -1.4913   -3.4082 H   0  0  0  0  0  0  0  0  0  0  0  0
    1.3983    0.3571   -3.4078 H   0  0  0  0  0  0  0  0  0  0  0  0
    1.3983   -1.5212   -0.9945 H   0  0  0  0  0  0  0  0  0  0  0  0
    0.3450    0.6742    0.1240 H   0  0  0  0  0  0  0  0  0  0  0  0
    1.3983    1.5641   -1.2581 H   0  0  0  0  0  0  0  0  0  0  0  0
    2.2760    0.6707   -0.0063 H   0  0  0  0  0  0  0  0  0  0  0  0
  1  2  3  0
  1  5  1  0
  2  3  1  0
  3  4  2  3
  3 14  1  0
  4  6  1  0
  4  7  1  0
  8  9  2  3
  8 11  1  0
  8 12  1  0
  9 10  1  0
  9 13  1  0
 10 15  1  0
 10 16  1  0
M  RAD  1  10   2
M  END
>  <reaction>  (6) 
rxn_1016

>  <mol_properties>  (6) 
{"1": {"label": "*4", "atom_type": "Ct"}, "2": {"label": "*3", "atom_type": "Cd"}, "8": {"label": "*0", "atom_type": "Cd"}, "9": {"label": "*1", "atom_type": "Cs"}, "13": {"label": "*2", "atom_type": "H0"}}

>  <type>  (6) 
unop_2

>  <geom_source>  (6) 
Heuristics

$$$$

     RDKit          3D

 16 14  0  0  0  0  0  0  0  0999 V2000
   -0.5033    1.3218    3.0740 C   0  0  0  0  0  0  0  0  0  0  0  0
   -0.6678    0.7768    2.0183 C   0  0  0  0  0  0  0  0  0  0  0  0
   -0.8329    0.1197    0.7641 C   0  0  0  0  0  0  0  0  0  0  0  0
   -1.9748    0.0930    0.0852 C   0  0  0  0  0  0  0  0  0  0  0  0
   -0.3575    1.8051    4.0100 H   0  0  0  0  0  0  0  0  0  0  0  0
   -2.8659    0.5818    0.4576 H   0  0  0  0  0  0  0  0  0  0  0  0
   -2.0419   -0.4223   -0.8638 H   0  0  0  0  0  0  0  0  0  0  0  0
    1.2659   -1.1434   -2.9774 C   0  0  0  0  0  0  0  0  0  0  0  0
    1.2659   -1.1434   -1.6536 C   0  0  0  0  0  0  0  0  0  0  0  0
    1.2659    0.0788   -0.7931 C   0  0  0  0  0  3  0  0  0  0  0  0
    1.2659   -2.0661   -3.5439 H   0  0  0  0  0  0  0  0  0  0  0  0
    1.2659   -0.2178   -3.5434 H   0  0  0  0  0  0  0  0  0  0  0  0
    1.2659   -2.0960   -1.1301 H   0  0  0  0  0  0  0  0  0  0  0  0
    0.2127    0.0993   -0.0117 H   0  0  0  0  0  0  0  0  0  0  0  0
    1.2659    0.9892   -1.3937 H   0  0  0  0  0  0  0  0  0  0  0  0
    2.1436    0.0959   -0.1419 H   0  0  0  0  0  0  0  0  0  0  0  0
  1  2  3  0
  1  5  1  0
  2  3  1  0
  3  4  2  3
  3 14  1  0
  4  6  1  0
  4  7  1  0
  8  9  2  3
  8 11  1  0
  8 12  1  0
  9 10  1  0
  9 13  1  0
 10 15  1  0
 10 16  1  0
M  RAD  1  10   2
M  END
>  <reaction>  (7) 
rxn_1016

>  <mol_properties>  (7) 
{"1": {"label": "*4", "atom_type": "Ct"}, "2": {"label": "*3", "atom_type": "Cd"}, "8": {"label": "*0", "atom_type": "Cd"}, "9": {"label": "*1", "atom_type": "Cs"}, "13": {"label": "*2", "atom_type": "H0"}}

>  <type>  (7) 
unop_3

>  <geom_source>  (7) 
Heuristics

$$$$

     RDKit          3D

 16 14  0  0  0  0  0  0  0  0999 V2000
   -2.8055    0.2685   -0.0024 C   0  0  0  0  0  0  0  0  0  0  0  0
   -1.7515    0.2813    0.5698 C   0  0  0  0  0  0  0  0  0  0  0  0
   -0.4861    0.2793    1.2263 C   0  0  0  0  0  0  0  0  0  0  0  0
   -0.2531    0.8770    2.3900 C   0  0  0  0  0  0  0  0  0  0  0  0
   -3.7401    0.2571   -0.5097 H   0  0  0  0  0  0  0  0  0  0  0  0
   -1.0325    1.4124    2.9170 H   0  0  0  0  0  0  0  0  0  0  0  0
    0.7291    0.8426    2.8423 H   0  0  0  0  0  0  0  0  0  0  0  0
    1.6127   -0.9838   -2.5152 C   0  0  0  0  0  0  0  0  0  0  0  0
    1.6127   -0.9838   -1.1914 C   0  0  0  0  0  0  0  0  0  0  0  0
    1.6127    0.2384   -0.3309 C   0  0  0  0  0  3  0  0  0  0  0  0
    1.6127   -1.9065   -3.0816 H   0  0  0  0  0  0  0  0  0  0  0  0
    1.6127   -0.0582   -3.0812 H   0  0  0  0  0  0  0  0  0  0  0  0
    1.6127   -1.9364   -0.6679 H   0  0  0  0  0  0  0  0  0  0  0  0
    0.5594    0.2589    0.4506 H   0  0  0  0  0  0  0  0  0  0  0  0
    1.6127    1.1489   -0.9315 H   0  0  0  0  0  0  0  0  0  0  0  0
    2.4904    0.2555    0.3203 H   0  0  0  0  0  0  0  0  0  0  0  0
  1  2  3  0
  1  5  1  0
  2  3  1  0
  3  4  2  3
  3 14  1  0
  4  6  1  0
  4  7  1  0
  8  9  2  3
  8 11  1  0
  8 12  1  0
  9 10  1  0
  9 13  1  0
 10 15  1  0
 10 16  1  0
M  RAD  1  10   2
M  END
>  <reaction>  (8) 
rxn_1016

>  <mol_properties>  (8) 
{"1": {"label": "*4", "atom_type": "Ct"}, "2": {"label": "*3", "atom_type": "Cd"}, "8": {"label": "*0", "atom_type": "Cd"}, "9": {"label": "*1", "atom_type": "Cs"}, "13": {"label": "*2", "atom_type": "H0"}}

>  <type>  (8) 
unop_4

>  <geom_source>  (8) 
Heuristics

$$$$

     RDKit          3D

 16 14  0  0  0  0  0  0  0  0999 V2000
   -0.9448    2.1646    2.4104 C   0  0  0  0  0  0  0  0  0  0  0  0
   -0.8750    1.2101    1.6875 C   0  0  0  0  0  0  0  0  0  0  0  0
   -0.7648    0.0870    0.8165 C   0  0  0  0  0  0  0  0  0  0  0  0
   -1.6508   -0.9020    0.7654 C   0  0  0  0  0  0  0  0  0  0  0  0
   -1.0067    3.0110    3.0513 H   0  0  0  0  0  0  0  0  0  0  0  0
   -2.5281   -0.9088    1.3994 H   0  0  0  0  0  0  0  0  0  0  0  0
   -1.5154   -1.7308    0.0833 H   0  0  0  0  0  0  0  0  0  0  0  0
    1.3340   -1.1761   -2.9250 C   0  0  0  0  0  0  0  0  0  0  0  0
    1.3340   -1.1761   -1.6012 C   0  0  0  0  0  0  0  0  0  0  0  0
    1.3340    0.0461   -0.7407 C   0  0  0  0  0  3  0  0  0  0  0  0
    1.3340   -2.0988   -3.4914 H   0  0  0  0  0  0  0  0  0  0  0  0
    1.3340   -0.2505   -3.4910 H   0  0  0  0  0  0  0  0  0  0  0  0
    1.3340   -2.1287   -1.0777 H   0  0  0  0  0  0  0  0  0  0  0  0
    0.2807    0.0666    0.0408 H   0  0  0  0  0  0  0  0  0  0  0  0
    1.3340    0.9565   -1.3413 H   0  0  0  0  0  0  0  0  0  0  0  0
    2.2117    0.0632   -0.0895 H   0  0  0  0  0  0  0  0  0  0  0  0
  1  2  3  0
  1  5  1  0
  2  3  1  0
  3  4  2  3
  3 14  1  0
  4  6  1  0
  4  7  1  0
  8  9  2  3
  8 11  1  0
  8 12  1  0
  9 10  1  0
  9 13  1  0
 10 15  1  0
 10 16  1  0
M  RAD  1  10   2
M  END
>  <reaction>  (9) 
rxn_1016

>  <mol_properties>  (9) 
{"1": {"label": "*4", "atom_type": "Ct"}, "2": {"label": "*3", "atom_type": "Cd"}, "8": {"label": "*0", "atom_type": "Cd"}, "9": {"label": "*1", "atom_type": "Cs"}, "13": {"label": "*2", "atom_type": "H0"}}

>  <type>  (9) 
unop_5

>  <geom_source>  (9) 
Heuristics

$$$$

     RDKit          3D

 16 14  0  0  0  0  0  0  0  0999 V2000
   -2.6813    1.2764    0.1651 C   0  0  0  0  0  0  0  0  0  0  0  0
   -1.7126    0.7461    0.6329 C   0  0  0  0  0  0  0  0  0  0  0  0
   -0.5553    0.1025    1.1607 C   0  0  0  0  0  0  0  0  0  0  0  0
   -0.1509    0.2200    2.4210 C   0  0  0  0  0  0  0  0  0  0  0  0
   -3.5402    1.7467   -0.2497 H   0  0  0  0  0  0  0  0  0  0  0  0
   -0.6928    0.8270    3.1348 H   0  0  0  0  0  0  0  0  0  0  0  0
    0.7370   -0.2926    2.7667 H   0  0  0  0  0  0  0  0  0  0  0  0
    1.5435   -1.1606   -2.5807 C   0  0  0  0  0  0  0  0  0  0  0  0
    1.5435   -1.1606   -1.2570 C   0  0  0  0  0  0  0  0  0  0  0  0
    1.5435    0.0616   -0.3965 C   0  0  0  0  0  3  0  0  0  0  0  0
    1.5435   -2.0833   -3.1472 H   0  0  0  0  0  0  0  0  0  0  0  0
    1.5435   -0.2350   -3.1468 H   0  0  0  0  0  0  0  0  0  0  0  0
    1.5435   -2.1132   -0.7335 H   0  0  0  0  0  0  0  0  0  0  0  0
    0.4903    0.0821    0.3850 H   0  0  0  0  0  0  0  0  0  0  0  0
    1.5435    0.9721   -0.9971 H   0  0  0  0  0  0  0  0  0  0  0  0
    2.4212    0.0787    0.2547 H   0  0  0  0  0  0  0  0  0  0  0  0
  1  2  3  0
  1  5  1  0
  2  3  1  0
  3  4  2  3
  3 14  1  0
  4  6  1  0
  4  7  1  0
  8  9  2  3
  8 11  1  0
  8 12  1  0
  9 10  1  0
  9 13  1  0
 10 15  1  0
 10 16  1  0
M  RAD  1  10   2
M  END
>  <reaction>  (10) 
rxn_1016

>  <mol_properties>  (10) 
{"1": {"label": "*4", "atom_type": "Ct"}, "2": {"label": "*3", "atom_type": "Cd"}, "8": {"label": "*0", "atom_type": "Cd"}, "9": {"label": "*1", "atom_type": "Cs"}, "13": {"label": "*2", "atom_type": "H0"}}

>  <type>  (10) 
unop_6

>  <geom_source>  (10) 
Heuristics

$$$$

     RDKit          3D

 16 14  0  0  0  0  0  0  0  0999 V2000
   -2.2653    2.0657    0.7113 C   0  0  0  0  0  0  0  0  0  0  0  0
   -1.5328    1.1294    0.8706 C   0  0  0  0  0  0  0  0  0  0  0  0
   -0.6591    0.0141    1.0285 C   0  0  0  0  0  0  0  0  0  0  0  0
   -0.3026   -0.4882    2.2059 C   0  0  0  0  0  0  0  0  0  0  0  0
   -2.9148    2.8958    0.5700 H   0  0  0  0  0  0  0  0  0  0  0  0
   -0.6659   -0.0665    3.1343 H   0  0  0  0  0  0  0  0  0  0  0  0
    0.3649   -1.3376    2.2653 H   0  0  0  0  0  0  0  0  0  0  0  0
    1.4397   -1.2490   -2.7130 C   0  0  0  0  0  0  0  0  0  0  0  0
    1.4397   -1.2490   -1.3892 C   0  0  0  0  0  0  0  0  0  0  0  0
    1.4397   -0.0268   -0.5287 C   0  0  0  0  0  3  0  0  0  0  0  0
    1.4397   -2.1717   -3.2794 H   0  0  0  0  0  0  0  0  0  0  0  0
    1.4397   -0.3234   -3.2790 H   0  0  0  0  0  0  0  0  0  0  0  0
    1.4397   -2.2016   -0.8657 H   0  0  0  0  0  0  0  0  0  0  0  0
    0.3864   -0.0063    0.2528 H   0  0  0  0  0  0  0  0  0  0  0  0
    1.4397    0.8837   -1.1293 H   0  0  0  0  0  0  0  0  0  0  0  0
    2.3174   -0.0097    0.1225 H   0  0  0  0  0  0  0  0  0  0  0  0
  1  2  3  0
  1  5  1  0
  2  3  1  0
  3  4  2  3
  3 14  1  0
  4  6  1  0
  4  7  1  0
  8  9  2  3
  8 11  1  0
  8 12  1  0
  9 10  1  0
  9 13  1  0
 10 15  1  0
 10 16  1  0
M  RAD  1  10   2
M  END
>  <reaction>  (11) 
rxn_1016

>  <mol_properties>  (11) 
{"1": {"label": "*4", "atom_type": "Ct"}, "2": {"label": "*3", "atom_type": "Cd"}, "8": {"label": "*0", "atom_type": "Cd"}, "9": {"label": "*1", "atom_type": "Cs"}, "13": {"label": "*2", "atom_type": "H0"}}

>  <type>  (11) 
unop_7

>  <geom_source>  (11) 
Heuristics

$$$$

     RDKit          3D

 16 14  0  0  0  0  0  0  0  0999 V2000
   -0.6078   -0.7284    3.0125 C   0  0  0  0  0  0  0  0  0  0  0  0
   -0.7509   -0.1837    1.9535 C   0  0  0  0  0  0  0  0  0  0  0  0
   -0.9045    0.4402    0.6811 C   0  0  0  0  0  0  0  0  0  0  0  0
   -1.5584    1.5808    0.4882 C   0  0  0  0  0  0  0  0  0  0  0  0
   -0.4808   -1.2113    3.9515 H   0  0  0  0  0  0  0  0  0  0  0  0
   -2.0225    2.1126    1.3089 H   0  0  0  0  0  0  0  0  0  0  0  0
   -1.6432    2.0088   -0.5019 H   0  0  0  0  0  0  0  0  0  0  0  0
    1.1943   -0.8229   -3.0604 C   0  0  0  0  0  0  0  0  0  0  0  0
    1.1943   -0.8229   -1.7366 C   0  0  0  0  0  0  0  0  0  0  0  0
    1.1943    0.3993   -0.8761 C   0  0  0  0  0  3  0  0  0  0  0  0
    1.1943   -1.7456   -3.6269 H   0  0  0  0  0  0  0  0  0  0  0  0
    1.1943    0.1027   -3.6264 H   0  0  0  0  0  0  0  0  0  0  0  0
    1.1943   -1.7755   -1.2131 H   0  0  0  0  0  0  0  0  0  0  0  0
    0.1410    0.4198   -0.0946 H   0  0  0  0  0  0  0  0  0  0  0  0
    1.1943    1.3097   -1.4767 H   0  0  0  0  0  0  0  0  0  0  0  0
    2.0720    0.4164   -0.2249 H   0  0  0  0  0  0  0  0  0  0  0  0
  1  2  3  0
  1  5  1  0
  2  3  1  0
  3  4  2  3
  3 14  1  0
  4  6  1  0
  4  7  1  0
  8  9  2  3
  8 11  1  0
  8 12  1  0
  9 10  1  0
  9 13  1  0
 10 15  1  0
 10 16  1  0
M  RAD  1  10   2
M  END
>  <reaction>  (12) 
rxn_1016

>  <mol_properties>  (12) 
{"1": {"label": "*4", "atom_type": "Ct"}, "2": {"label": "*3", "atom_type": "Cd"}, "8": {"label": "*0", "atom_type": "Cd"}, "9": {"label": "*1", "atom_type": "Cs"}, "13": {"label": "*2", "atom_type": "H0"}}

>  <type>  (12) 
unop_8

>  <geom_source>  (12) 
Heuristics

$$$$

     RDKit          3D

 16 14  0  0  0  0  0  0  0  0999 V2000
   -2.6235   -0.6992    0.2376 C   0  0  0  0  0  0  0  0  0  0  0  0
   -1.6553   -0.1499    0.6841 C   0  0  0  0  0  0  0  0  0  0  0  0
   -0.4865    0.4876    1.1936 C   0  0  0  0  0  0  0  0  0  0  0  0
   -0.4941    1.3586    2.1972 C   0  0  0  0  0  0  0  0  0  0  0  0
   -3.4819   -1.1863   -0.1583 H   0  0  0  0  0  0  0  0  0  0  0  0
   -1.4131    1.6390    2.6958 H   0  0  0  0  0  0  0  0  0  0  0  0
    0.4254    1.8120    2.5427 H   0  0  0  0  0  0  0  0  0  0  0  0
    1.6123   -0.7755   -2.5478 C   0  0  0  0  0  0  0  0  0  0  0  0
    1.6123   -0.7755   -1.2241 C   0  0  0  0  0  0  0  0  0  0  0  0
    1.6123    0.4467   -0.3636 C   0  0  0  0  0  3  0  0  0  0  0  0
    1.6123   -1.6982   -3.1143 H   0  0  0  0  0  0  0  0  0  0  0  0
    1.6123    0.1501   -3.1138 H   0  0  0  0  0  0  0  0  0  0  0  0
    1.6123   -1.7281   -0.7006 H   0  0  0  0  0  0  0  0  0  0  0  0
    0.5591    0.4672    0.4179 H   0  0  0  0  0  0  0  0  0  0  0  0
    1.6123    1.3571   -0.9642 H   0  0  0  0  0  0  0  0  0  0  0  0
    2.4900    0.4638    0.2877 H   0  0  0  0  0  0  0  0  0  0  0  0
  1  2  3  0
  1  5  1  0
  2  3  1  0
  3  4  2  3
  3 14  1  0
  4  6  1  0
  4  7  1  0
  8  9  2  3
  8 11  1  0
  8 12  1  0
  9 10  1  0
  9 13  1  0
 10 15  1  0
 10 16  1  0
M  RAD  1  10   2
M  END
>  <reaction>  (13) 
rxn_1016

>  <mol_properties>  (13) 
{"1": {"label": "*4", "atom_type": "Ct"}, "2": {"label": "*3", "atom_type": "Cd"}, "8": {"label": "*0", "atom_type": "Cd"}, "9": {"label": "*1", "atom_type": "Cs"}, "13": {"label": "*2", "atom_type": "H0"}}

>  <type>  (13) 
unop_9

>  <geom_source>  (13) 
Heuristics

$$$$

     RDKit          3D

 16 14  0  0  0  0  0  0  0  0999 V2000
   -1.0568   -1.4224    2.3991 C   0  0  0  0  0  0  0  0  0  0  0  0
   -0.9593   -0.4846    1.6577 C   0  0  0  0  0  0  0  0  0  0  0  0
   -0.8292    0.6111    0.7551 C   0  0  0  0  0  0  0  0  0  0  0  0
   -1.2523    1.8430    1.0180 C   0  0  0  0  0  0  0  0  0  0  0  0
   -1.1432   -2.2538    3.0565 H   0  0  0  0  0  0  0  0  0  0  0  0
   -1.7315    2.0883    1.9571 H   0  0  0  0  0  0  0  0  0  0  0  0
   -1.1267    2.6369    0.2938 H   0  0  0  0  0  0  0  0  0  0  0  0
    1.2695   -0.6520   -2.9863 C   0  0  0  0  0  0  0  0  0  0  0  0
    1.2695   -0.6520   -1.6626 C   0  0  0  0  0  0  0  0  0  0  0  0
    1.2695    0.5702   -0.8021 C   0  0  0  0  0  3  0  0  0  0  0  0
    1.2695   -1.5748   -3.5528 H   0  0  0  0  0  0  0  0  0  0  0  0
    1.2695    0.2736   -3.5523 H   0  0  0  0  0  0  0  0  0  0  0  0
    1.2695   -1.6047   -1.1391 H   0  0  0  0  0  0  0  0  0  0  0  0
    0.2163    0.5907   -0.0206 H   0  0  0  0  0  0  0  0  0  0  0  0
    1.2695    1.4806   -1.4027 H   0  0  0  0  0  0  0  0  0  0  0  0
    2.1472    0.5873   -0.1509 H   0  0  0  0  0  0  0  0  0  0  0  0
  1  2  3  0
  1  5  1  0
  2  3  1  0
  3  4  2  3
  3 14  1  0
  4  6  1  0
  4  7  1  0
  8  9  2  3
  8 11  1  0
  8 12  1  0
  9 10  1  0
  9 13  1  0
 10 15  1  0
 10 16  1  0
M  RAD  1  10   2
M  END
>  <reaction>  (14) 
rxn_1016

>  <mol_properties>  (14) 
{"1": {"label": "*4", "atom_type": "Ct"}, "2": {"label": "*3", "atom_type": "Cd"}, "8": {"label": "*0", "atom_type": "Cd"}, "9": {"label": "*1", "atom_type": "Cs"}, "13": {"label": "*2", "atom_type": "H0"}}

>  <type>  (14) 
unop_10

>  <geom_source>  (14) 
Heuristics

$$$$

     RDKit          3D

 16 14  0  0  0  0  0  0  0  0999 V2000
   -1.6380    2.4189    1.5158 C   0  0  0  0  0  0  0  0  0  0  0  0
   -1.2334    1.3236    1.2416 C   0  0  0  0  0  0  0  0  0  0  0  0
   -0.7430    0.0328    0.8875 C   0  0  0  0  0  0  0  0  0  0  0  0
   -0.8127   -1.0307    1.6811 C   0  0  0  0  0  0  0  0  0  0  0  0
   -1.9968    3.3901    1.7589 H   0  0  0  0  0  0  0  0  0  0  0  0
   -1.2576   -0.9733    2.6662 H   0  0  0  0  0  0  0  0  0  0  0  0
   -0.4232   -1.9873    1.3590 H   0  0  0  0  0  0  0  0  0  0  0  0
    1.3558   -1.2303   -2.8540 C   0  0  0  0  0  0  0  0  0  0  0  0
    1.3558   -1.2303   -1.5302 C   0  0  0  0  0  0  0  0  0  0  0  0
    1.3558   -0.0081   -0.6697 C   0  0  0  0  0  3  0  0  0  0  0  0
    1.3558   -2.1530   -3.4204 H   0  0  0  0  0  0  0  0  0  0  0  0
    1.3558   -0.3047   -3.4200 H   0  0  0  0  0  0  0  0  0  0  0  0
    1.3558   -2.1829   -1.0067 H   0  0  0  0  0  0  0  0  0  0  0  0
    0.3026    0.0124    0.1118 H   0  0  0  0  0  0  0  0  0  0  0  0
    1.3558    0.9023   -1.2703 H   0  0  0  0  0  0  0  0  0  0  0  0
    2.2335    0.0090   -0.0185 H   0  0  0  0  0  0  0  0  0  0  0  0
  1  2  3  0
  1  5  1  0
  2  3  1  0
  3  4  2  3
  3 14  1  0
  4  6  1  0
  4  7  1  0
  8  9  2  3
  8 11  1  0
  8 12  1  0
  9 10  1  0
  9 13  1  0
 10 15  1  0
 10 16  1  0
M  RAD  1  10   2
M  END
>  <reaction>  (15) 
rxn_1016

>  <mol_properties>  (15) 
{"1": {"label": "*4", "atom_type": "Ct"}, "2": {"label": "*3", "atom_type": "Cd"}, "8": {"label": "*0", "atom_type": "Cd"}, "9": {"label": "*1", "atom_type": "Cs"}, "13": {"label": "*2", "atom_type": "H0"}}

>  <type>  (15) 
unop_11

>  <geom_source>  (15) 
Heuristics

$$$$

     RDKit          3D

 16 14  0  0  0  0  0  0  0  0999 V2000
   -2.1966   -1.3935    0.8167 C   0  0  0  0  0  0  0  0  0  0  0  0
   -1.4607   -0.4547    0.9418 C   0  0  0  0  0  0  0  0  0  0  0  0
   -0.5671    0.6488    1.0681 C   0  0  0  0  0  0  0  0  0  0  0  0
   -0.7500    1.6586    1.9122 C   0  0  0  0  0  0  0  0  0  0  0  0
   -2.8491   -2.2259    0.7058 H   0  0  0  0  0  0  0  0  0  0  0  0
   -1.6105    1.6994    2.5676 H   0  0  0  0  0  0  0  0  0  0  0  0
   -0.0372    2.4709    1.9651 H   0  0  0  0  0  0  0  0  0  0  0  0
    1.5316   -0.6143   -2.6733 C   0  0  0  0  0  0  0  0  0  0  0  0
    1.5316   -0.6143   -1.3496 C   0  0  0  0  0  0  0  0  0  0  0  0
    1.5316    0.6079   -0.4891 C   0  0  0  0  0  3  0  0  0  0  0  0
    1.5316   -1.5370   -3.2398 H   0  0  0  0  0  0  0  0  0  0  0  0
    1.5316    0.3113   -3.2393 H   0  0  0  0  0  0  0  0  0  0  0  0
    1.5316   -1.5669   -0.8261 H   0  0  0  0  0  0  0  0  0  0  0  0
    0.4784    0.6284    0.2924 H   0  0  0  0  0  0  0  0  0  0  0  0
    1.5316    1.5183   -1.0897 H   0  0  0  0  0  0  0  0  0  0  0  0
    2.4094    0.6250    0.1621 H   0  0  0  0  0  0  0  0  0  0  0  0
  1  2  3  0
  1  5  1  0
  2  3  1  0
  3  4  2  3
  3 14  1  0
  4  6  1  0
  4  7  1  0
  8  9  2  3
  8 11  1  0
  8 12  1  0
  9 10  1  0
  9 13  1  0
 10 15  1  0
 10 16  1  0
M  RAD  1  10   2
M  END
>  <reaction>  (16) 
rxn_1016

>  <mol_properties>  (16) 
{"1": {"label": "*4", "atom_type": "Ct"}, "2": {"label": "*3", "atom_type": "Cd"}, "8": {"label": "*0", "atom_type": "Cd"}, "9": {"label": "*1", "atom_type": "Cs"}, "13": {"label": "*2", "atom_type": "H0"}}

>  <type>  (16) 
unop_12

>  <geom_source>  (16) 
Heuristics

$$$$

     RDKit          3D

 16 14  0  0  0  0  0  0  0  0999 V2000
    1.6903   -0.3164   -0.2399 C   0  0  0  0  0  0  0  0  0  0  0  0
   -1.2870   -0.2828    0.2737 C   0  0  0  0  0  0  0  0  0  0  0  0
    0.8396    0.7439   -0.8626 C   0  0  0  0  0  0  0  0  0  0  0  0
    2.9818   -0.1032    0.0214 C   0  0  0  0  0  3  0  0  0  0  0  0
   -1.4950   -1.5555    0.5902 C   0  0  0  0  0  0  0  0  0  0  0  0
   -2.3774    0.6535    0.2277 C   0  0  0  0  0  0  0  0  0  0  0  0
   -3.2908    1.4394    0.1888 C   0  0  0  0  0  0  0  0  0  0  0  0
    1.2434   -1.2752    0.0019 H   0  0  0  0  0  0  0  0  0  0  0  0
   -0.1305    0.1107    0.0118 H   0  0  0  0  0  0  0  0  0  0  0  0
   -0.6623   -2.2454    0.6197 H   0  0  0  0  0  0  0  0  0  0  0  0
   -2.4886   -1.9207    0.8214 H   0  0  0  0  0  0  0  0  0  0  0  0
    3.5809   -0.8868    0.4738 H   0  0  0  0  0  0  0  0  0  0  0  0
    3.4486    0.8490   -0.2127 H   0  0  0  0  0  0  0  0  0  0  0  0
    0.8014    1.6405   -0.2085 H   0  0  0  0  0  0  0  0  0  0  0  0
    1.2382    1.0200   -1.8616 H   0  0  0  0  0  0  0  0  0  0  0  0
   -4.0927    2.1292    0.1547 H   0  0  0  0  0  0  0  0  0  0  0  0
  1  3  2  3
  1  4  1  0
  1  8  1  0
  2  5  2  3
  2  6  1  0
  2  9  1  0
  3 14  1  0
  3 15  1  0
  4 12  1  0
  4 13  1  0
  5 10  1  0
  5 11  1  0
  6  7  3  0
  7 16  1  0
M  RAD  1   4   2
M  END
>  <reaction>  (17) 
rxn_1016

>  <mol_properties>  (17) 
{"1": {"label": "*4", "atom_type": "Ct"}, "2": {"label": "*3", "atom_type": "Cd"}, "8": {"label": "*0", "atom_type": "Cd"}, "9": {"label": "*1", "atom_type": "Cs"}, "13": {"label": "*2", "atom_type": "H0"}}

>  <type>  (17) 
unop_13

>  <geom_source>  (17) 
AutoTST

$$$$

     RDKit          3D

 16 14  0  0  0  0  0  0  0  0999 V2000
   -1.6322   -1.6576    1.5987 C   0  0  0  0  0  0  0  0  0  0  0  0
   -1.2138   -0.5767    1.2903 C   0  0  0  0  0  0  0  0  0  0  0  0
   -0.7005    0.6946    0.8997 C   0  0  0  0  0  0  0  0  0  0  0  0
   -0.9847    1.8329    1.5235 C   0  0  0  0  0  0  0  0  0  0  0  0
   -2.0032   -2.6160    1.8723 H   0  0  0  0  0  0  0  0  0  0  0  0
   -1.6392    1.8576    2.3853 H   0  0  0  0  0  0  0  0  0  0  0  0
   -0.5654    2.7700    1.1820 H   0  0  0  0  0  0  0  0  0  0  0  0
    1.3983   -0.5685   -2.8418 C   0  0  0  0  0  0  0  0  0  0  0  0
    1.3983   -0.5685   -1.5180 C   0  0  0  0  0  0  0  0  0  0  0  0
    1.3983    0.6536   -0.6575 C   0  0  0  0  0  3  0  0  0  0  0  0
    1.3983   -1.4913   -3.4082 H   0  0  0  0  0  0  0  0  0  0  0  0
    1.3983    0.3570   -3.4078 H   0  0  0  0  0  0  0  0  0  0  0  0
    1.3983   -1.5212   -0.9945 H   0  0  0  0  0  0  0  0  0  0  0  0
    0.3450    0.6742    0.1240 H   0  0  0  0  0  0  0  0  0  0  0  0
    1.3983    1.5641   -1.2581 H   0  0  0  0  0  0  0  0  0  0  0  0
    2.2760    0.6707   -0.0063 H   0  0  0  0  0  0  0  0  0  0  0  0
  1  2  3  0
  1  5  1  0
  2  3  1  0
  3  4  2  3
  3 14  1  0
  4  6  1  0
  4  7  1  0
  8  9  2  3
  8 11  1  0
  8 12  1  0
  9 10  1  0
  9 13  1  0
 10 15  1  0
 10 16  1  0
M  RAD  1  10   2
M  END
>  <reaction>  (18) 
rxn_1016

>  <mol_properties>  (18) 
{"1": {"label": "*4", "atom_type": "Ct"}, "2": {"label": "*3", "atom_type": "Cd"}, "8": {"label": "*0", "atom_type": "Cd"}, "9": {"label": "*1", "atom_type": "Cs"}, "13": {"label": "*2", "atom_type": "H0"}}

>  <type>  (18) 
unop_14

>  <geom_source>  (18) 
gaussian_log

$$$$
