
     RDKit          3D

 15 15  0  0  0  0  0  0  0  0999 V2000
    2.2031   -0.2111   -0.1693 C   0  0  0  0  0  0  0  0  0  0  0  0
    0.7140   -0.0314   -0.0623 C   0  0  0  0  0  0  0  0  0  0  0  0
   -0.0114    0.5491   -1.0982 C   0  0  0  0  0  0  0  0  0  0  0  0
   -1.3882    0.6886   -1.0150 C   0  0  0  0  0  0  0  0  0  0  0  0
   -2.0661    0.2493    0.1118 C   0  0  0  0  0  0  0  0  0  0  0  0
   -1.3551   -0.3278    1.1528 C   0  0  0  0  0  0  0  0  0  0  0  0
    0.0216   -0.4648    1.0642 C   0  0  0  0  0  0  0  0  0  0  0  0
    2.6776   -0.1836    0.8122 H   0  0  0  0  0  0  0  0  0  0  0  0
    2.4446   -1.1749   -0.6249 H   0  0  0  0  0  0  0  0  0  0  0  0
    2.6532    0.5664   -0.7875 H   0  0  0  0  0  0  0  0  0  0  0  0
    0.5104    0.8989   -1.9819 H   0  0  0  0  0  0  0  0  0  0  0  0
   -1.9328    1.1452   -1.8322 H   0  0  0  0  0  0  0  0  0  0  0  0
   -3.1409    0.3597    0.1800 H   0  0  0  0  0  0  0  0  0  0  0  0
   -1.8736   -0.6702    2.0398 H   0  0  0  0  0  0  0  0  0  0  0  0
    0.5695   -0.9141    1.8849 H   0  0  0  0  0  0  0  0  0  0  0  0
  1  2  1  0
  1  8  1  0
  1  9  1  0
  1 10  1  0
  2  3  2  0
  2  7  1  0
  3  4  1  0
  3 11  1  0
  4  5  2  0
  4 12  1  0
  5  6  1  0
  5 13  1  0
  6  7  2  0
  6 14  1  0
  7 15  1  0
M  END
>  <reaction>  (1) 
rxn_1454

>  <mol_properties>  (1) 
{"0": {"label": "donator", "atom_type": "Cs"}, "7": {"label": "d_hydrogen", "atom_type": "H0"}}

>  <type>  (1) 
r1h

$$$$

     RDKit          3D

  7  6  0  0  0  0  0  0  0  0999 V2000
    1.3002    0.7433    2.1279 C   0  0  0  0  0  0  0  0  0  0  0  0
    0.5758    0.3292    1.2319 C   0  0  0  0  0  0  0  0  0  0  0  0
   -0.2057   -0.1176    0.2652 C   0  0  0  0  0  3  0  0  0  0  0  0
   -0.9747   -0.5572   -0.6858 C   0  0  0  0  0  0  0  0  0  0  0  0
    1.9293    1.1030    2.9059 H   0  0  0  0  0  0  0  0  0  0  0  0
   -1.9977   -0.8727   -0.4932 H   0  0  0  0  0  0  0  0  0  0  0  0
   -0.6274   -0.6280   -1.7143 H   0  0  0  0  0  0  0  0  0  0  0  0
  1  2  3  0
  1  5  1  0
  2  3  1  0
  3  4  2  3
  4  6  1  0
  4  7  1  0
M  RAD  1   3   2
M  END
>  <reaction>  (2) 
rxn_1454

>  <mol_properties>  (2) 
{"2": {"label": "acceptor", "atom_type": "Cd"}}

>  <type>  (2) 
r2

$$$$

     RDKit          3D

  8  7  0  0  0  0  0  0  0  0999 V2000
    1.9029    0.9046   -0.2050 C   0  0  0  0  0  0  0  0  0  0  0  0
    0.8517    0.4283    0.1217 C   0  0  0  0  0  0  0  0  0  0  0  0
   -0.3908   -0.1311    0.5404 C   0  0  0  0  0  0  0  0  0  0  0  0
   -1.2847   -0.6576   -0.2899 C   0  0  0  0  0  0  0  0  0  0  0  0
    2.8335    1.3255   -0.5014 H   0  0  0  0  0  0  0  0  0  0  0  0
   -0.5867   -0.1096    1.6074 H   0  0  0  0  0  0  0  0  0  0  0  0
   -2.2126   -1.0686    0.0850 H   0  0  0  0  0  0  0  0  0  0  0  0
   -1.1134   -0.6914   -1.3582 H   0  0  0  0  0  0  0  0  0  0  0  0
  1  2  3  0
  1  5  1  0
  2  3  1  0
  3  4  2  3
  3  6  1  0
  4  7  1  0
  4  8  1  0
M  END
>  <reaction>  (3) 
rxn_1454

>  <mol_properties>  (3) 
{"2": {"label": "acceptor", "atom_type": "Cd"}, "7": {"label": "a_hydrogen", "atom_type": "H0"}}

>  <type>  (3) 
r2h

$$$$

     RDKit          3D

 22 21  0  0  0  0  0  0  0  0999 V2000
   -0.6936   -1.5206    4.4371 C   0  0  0  0  0  0  0  0  0  0  0  0
   -0.8330   -1.2887    3.2624 C   0  0  0  0  0  0  0  0  0  0  0  0
   -0.8799   -0.9534    1.9131 C   0  0  0  0  0  3  0  0  0  0  0  0
   -1.7254   -1.2047    0.9335 C   0  0  0  0  0  0  0  0  0  0  0  0
   -0.5942   -1.7394    5.4730 H   0  0  0  0  0  0  0  0  0  0  0  0
   -2.6237   -1.7948    1.0902 H   0  0  0  0  0  0  0  0  0  0  0  0
   -1.5434   -0.8241   -0.0661 H   0  0  0  0  0  0  0  0  0  0  0  0
    1.1247    0.5324    0.9366 C   0  0  0  0  0  0  0  0  0  0  0  0
    0.7686    0.6966   -0.4775 C   0  0  0  0  0  0  0  0  0  0  0  0
   -0.0445    1.7543   -0.8943 C   0  0  0  0  0  0  0  0  0  0  0  0
   -0.4373    1.8716   -2.2162 C   0  0  0  0  0  0  0  0  0  0  0  0
   -0.0284    0.9320   -3.1525 C   0  0  0  0  0  0  0  0  0  0  0  0
    0.7796   -0.1240   -2.7544 C   0  0  0  0  0  0  0  0  0  0  0  0
    1.1722   -0.2409   -1.4323 C   0  0  0  0  0  0  0  0  0  0  0  0
    0.1990   -0.1776    1.4760 H   0  0  0  0  0  0  0  0  0  0  0  0
    2.0161   -0.0611    1.1260 H   0  0  0  0  0  0  0  0  0  0  0  0
    1.0993    1.4425    1.5315 H   0  0  0  0  0  0  0  0  0  0  0  0
   -0.3715    2.4883   -0.1670 H   0  0  0  0  0  0  0  0  0  0  0  0
   -1.0653    2.7001   -2.5189 H   0  0  0  0  0  0  0  0  0  0  0  0
   -0.3352    1.0238   -4.1865 H   0  0  0  0  0  0  0  0  0  0  0  0
    1.1055   -0.8598   -3.4789 H   0  0  0  0  0  0  0  0  0  0  0  0
    1.7988   -1.0708   -1.1268 H   0  0  0  0  0  0  0  0  0  0  0  0
  1  2  3  0
  1  5  1  0
  2  3  1  0
  3  4  2  3
  4  6  1  0
  4  7  1  0
  8  9  1  0
  8 15  1  0
  8 16  1  0
  8 17  1  0
  9 10  2  0
  9 14  1  0
 10 11  1  0
 10 18  1  0
 11 12  2  0
 11 19  1  0
 12 13  1  0
 12 20  1  0
 13 14  2  0
 13 21  1  0
 14 22  1  0
M  RAD  1   3   2
M  END
>  <reaction>  (4) 
rxn_1454

>  <mol_properties>  (4) 
{"1": {"label": "*4", "atom_type": "Ct"}, "2": {"label": "*3", "atom_type": "Cd"}, "7": {"label": "*1", "atom_type": "Cs"}, "8": {"label": "*0", "atom_type": "Cd"}, "14": {"label": "*2", "atom_type": "H0"}}

>  <type>  (4) 
ts

$$$$

     RDKit          3D

 22 21  0  0  0  0  0  0  0  0999 V2000
    0.6481   -2.7336    3.4481 C   0  0  0  0  0  0  0  0  0  0  0  0
   -0.0470   -2.0279    2.7719 C   0  0  0  0  0  0  0  0  0  0  0  0
   -0.8491   -1.1854    1.9478 C   0  0  0  0  0  0  0  0  0  0  0  0
   -2.1106   -0.8670    2.2178 C   0  0  0  0  0  0  0  0  0  0  0  0
    1.2645   -3.3594    4.0477 H   0  0  0  0  0  0  0  0  0  0  0  0
   -2.6114   -1.2401    3.1019 H   0  0  0  0  0  0  0  0  0  0  0  0
   -2.6720   -0.2221    1.5549 H   0  0  0  0  0  0  0  0  0  0  0  0
    0.3277    0.9426    0.9981 C   0  0  0  0  0  0  0  0  0  0  0  0
    0.3277    0.9426   -0.5057 C   0  0  0  0  0  0  0  0  0  0  0  0
    0.3277    2.1370   -1.2197 C   0  0  0  0  0  3  0  0  0  0  0  0
    0.3582    2.1403   -2.6057 C   0  0  0  0  0  0  0  0  0  0  0  0
    0.3877    0.9433   -3.3047 C   0  0  0  0  0  0  0  0  0  0  0  0
    0.3846   -0.2541   -2.6057 C   0  0  0  0  0  0  0  0  0  0  0  0
    0.3541   -0.2514   -1.2197 C   0  0  0  0  0  0  0  0  0  0  0  0
   -0.2622   -0.1241    1.4741 H   0  0  0  0  0  0  0  0  0  0  0  0
    1.3499    0.9539    1.3848 H   0  0  0  0  0  0  0  0  0  0  0  0
   -0.1833    1.8205    1.3948 H   0  0  0  0  0  0  0  0  0  0  0  0
    0.3011    3.0781   -0.6819 H   0  0  0  0  0  0  0  0  0  0  0  0
    0.3555    3.0815   -3.1414 H   0  0  0  0  0  0  0  0  0  0  0  0
    0.4089    0.9435   -4.3871 H   0  0  0  0  0  0  0  0  0  0  0  0
    0.4027   -1.1951   -3.1414 H   0  0  0  0  0  0  0  0  0  0  0  0
    0.3482   -1.1929   -0.6819 H   0  0  0  0  0  0  0  0  0  0  0  0
  1  2  3  0
  1  5  1  0
  2  3  1  0
  3  4  2  3
  3 15  1  0
  4  6  1  0
  4  7  1  0
  8  9  2  3
  8 16  1  0
  8 17  1  0
  9 10  1  0
  9 14  1  0
 10 11  1  0
 10 18  1  0
 11 12  2  0
 11 19  1  0
 12 13  1  0
 12 20  1  0
 13 14  2  0
 13 21  1  0
 14 22  1  0
M  RAD  1  10   2
M  END
>  <reaction>  (5) 
rxn_1454

>  <mol_properties>  (5) 
{"1": {"label": "*4", "atom_type": "Ct"}, "2": {"label": "*3", "atom_type": "Cd"}, "7": {"label": "*1", "atom_type": "Cs"}, "8": {"label": "*0", "atom_type": "Cd"}, "14": {"label": "*2", "atom_type": "H0"}}

>  <type>  (5) 
unop_1

>  <geom_source>  (5) 
Heuristics

$$$$

     RDKit          3D

 22 21  0  0  0  0  0  0  0  0999 V2000
   -0.6016   -3.2121    0.7548 C   0  0  0  0  0  0  0  0  0  0  0  0
   -0.6784   -2.2407    1.4541 C   0  0  0  0  0  0  0  0  0  0  0  0
   -0.7619   -1.0680    2.2602 C   0  0  0  0  0  0  0  0  0  0  0  0
   -1.0753   -1.0762    3.5515 C   0  0  0  0  0  0  0  0  0  0  0  0
   -0.5334   -4.0735    0.1348 H   0  0  0  0  0  0  0  0  0  0  0  0
   -1.2900   -1.9986    4.0757 H   0  0  0  0  0  0  0  0  0  0  0  0
   -1.1238   -0.1535    4.1145 H   0  0  0  0  0  0  0  0  0  0  0  0
    0.4149    1.0601    1.3105 C   0  0  0  0  0  0  0  0  0  0  0  0
    0.4149    1.0601   -0.1933 C   0  0  0  0  0  0  0  0  0  0  0  0
    0.4149    2.2544   -0.9073 C   0  0  0  0  0  3  0  0  0  0  0  0
    0.4453    2.2577   -2.2933 C   0  0  0  0  0  0  0  0  0  0  0  0
    0.4748    1.0607   -2.9923 C   0  0  0  0  0  0  0  0  0  0  0  0
    0.4717   -0.1366   -2.2933 C   0  0  0  0  0  0  0  0  0  0  0  0
    0.4412   -0.1340   -0.9073 C   0  0  0  0  0  0  0  0  0  0  0  0
   -0.1750   -0.0067    1.7866 H   0  0  0  0  0  0  0  0  0  0  0  0
    1.4371    1.0713    1.6972 H   0  0  0  0  0  0  0  0  0  0  0  0
   -0.0962    1.9380    1.7072 H   0  0  0  0  0  0  0  0  0  0  0  0
    0.3882    3.1955   -0.3695 H   0  0  0  0  0  0  0  0  0  0  0  0
    0.4427    3.1990   -2.8290 H   0  0  0  0  0  0  0  0  0  0  0  0
    0.4960    1.0610   -4.0747 H   0  0  0  0  0  0  0  0  0  0  0  0
    0.4898   -1.0777   -2.8290 H   0  0  0  0  0  0  0  0  0  0  0  0
    0.4353   -1.0754   -0.3695 H   0  0  0  0  0  0  0  0  0  0  0  0
  1  2  3  0
  1  5  1  0
  2  3  1  0
  3  4  2  3
  3 15  1  0
  4  6  1  0
  4  7  1  0
  8  9  2  3
  8 16  1  0
  8 17  1  0
  9 10  1  0
  9 14  1  0
 10 11  1  0
 10 18  1  0
 11 12  2  0
 11 19  1  0
 12 13  1  0
 12 20  1  0
 13 14  2  0
 13 21  1  0
 14 22  1  0
M  RAD  1  10   2
M  END
>  <reaction>  (6) 
rxn_1454

>  <mol_properties>  (6) 
{"1": {"label": "*4", "atom_type": "Ct"}, "2": {"label": "*3", "atom_type": "Cd"}, "7": {"label": "*1", "atom_type": "Cs"}, "8": {"label": "*0", "atom_type": "Cd"}, "14": {"label": "*2", "atom_type": "H0"}}

>  <type>  (6) 
unop_2

>  <geom_source>  (6) 
Heuristics

$$$$

     RDKit          3D

 22 21  0  0  0  0  0  0  0  0999 V2000
    0.1321   -2.0874    4.2205 C   0  0  0  0  0  0  0  0  0  0  0  0
   -0.2913   -1.7039    3.1659 C   0  0  0  0  0  0  0  0  0  0  0  0
   -0.7656   -1.2377    1.9050 C   0  0  0  0  0  0  0  0  0  0  0  0
   -2.0255   -1.3507    1.4983 C   0  0  0  0  0  0  0  0  0  0  0  0
    0.5076   -2.4275    5.1555 H   0  0  0  0  0  0  0  0  0  0  0  0
   -2.7808   -1.8154    2.1191 H   0  0  0  0  0  0  0  0  0  0  0  0
   -2.3292   -0.9778    0.5291 H   0  0  0  0  0  0  0  0  0  0  0  0
    0.4112    0.8904    0.9552 C   0  0  0  0  0  0  0  0  0  0  0  0
    0.4112    0.8904   -0.5485 C   0  0  0  0  0  0  0  0  0  0  0  0
    0.4112    2.0847   -1.2625 C   0  0  0  0  0  3  0  0  0  0  0  0
    0.4417    2.0881   -2.6485 C   0  0  0  0  0  0  0  0  0  0  0  0
    0.4712    0.8911   -3.3476 C   0  0  0  0  0  0  0  0  0  0  0  0
    0.4681   -0.3063   -2.6485 C   0  0  0  0  0  0  0  0  0  0  0  0
    0.4376   -0.3036   -1.2625 C   0  0  0  0  0  0  0  0  0  0  0  0
   -0.1787   -0.1763    1.4313 H   0  0  0  0  0  0  0  0  0  0  0  0
    1.4335    0.9016    1.3420 H   0  0  0  0  0  0  0  0  0  0  0  0
   -0.0998    1.7683    1.3520 H   0  0  0  0  0  0  0  0  0  0  0  0
    0.3846    3.0258   -0.7247 H   0  0  0  0  0  0  0  0  0  0  0  0
    0.4390    3.0293   -3.1842 H   0  0  0  0  0  0  0  0  0  0  0  0
    0.4924    0.8913   -4.4299 H   0  0  0  0  0  0  0  0  0  0  0  0
    0.4862   -1.2474   -3.1842 H   0  0  0  0  0  0  0  0  0  0  0  0
    0.4317   -1.2451   -0.7247 H   0  0  0  0  0  0  0  0  0  0  0  0
  1  2  3  0
  1  5  1  0
  2  3  1  0
  3  4  2  3
  3 15  1  0
  4  6  1  0
  4  7  1  0
  8  9  2  3
  8 16  1  0
  8 17  1  0
  9 10  1  0
  9 14  1  0
 10 11  1  0
 10 18  1  0
 11 12  2  0
 11 19  1  0
 12 13  1  0
 12 20  1  0
 13 14  2  0
 13 21  1  0
 14 22  1  0
M  RAD  1  10   2
M  END
>  <reaction>  (7) 
rxn_1454

>  <mol_properties>  (7) 
{"1": {"label": "*4", "atom_type": "Ct"}, "2": {"label": "*3", "atom_type": "Cd"}, "7": {"label": "*1", "atom_type": "Cs"}, "8": {"label": "*0", "atom_type": "Cd"}, "14": {"label": "*2", "atom_type": "H0"}}

>  <type>  (7) 
unop_3

>  <geom_source>  (7) 
Heuristics

$$$$

     RDKit          3D

 22 21  0  0  0  0  0  0  0  0999 V2000
   -2.9852   -1.5957    1.4586 C   0  0  0  0  0  0  0  0  0  0  0  0
   -1.8414   -1.4591    1.7928 C   0  0  0  0  0  0  0  0  0  0  0  0
   -0.4759   -1.2827    2.1621 C   0  0  0  0  0  0  0  0  0  0  0  0
    0.0364   -1.6810    3.3217 C   0  0  0  0  0  0  0  0  0  0  0  0
   -3.9993   -1.7167    1.1623 H   0  0  0  0  0  0  0  0  0  0  0  0
   -0.5715   -2.1744    4.0691 H   0  0  0  0  0  0  0  0  0  0  0  0
    1.0821   -1.5203    3.5483 H   0  0  0  0  0  0  0  0  0  0  0  0
    0.7009    0.8454    1.2124 C   0  0  0  0  0  0  0  0  0  0  0  0
    0.7009    0.8454   -0.2914 C   0  0  0  0  0  0  0  0  0  0  0  0
    0.7009    2.0397   -1.0054 C   0  0  0  0  0  3  0  0  0  0  0  0
    0.7313    2.0431   -2.3914 C   0  0  0  0  0  0  0  0  0  0  0  0
    0.7609    0.8461   -3.0904 C   0  0  0  0  0  0  0  0  0  0  0  0
    0.7577   -0.3513   -2.3914 C   0  0  0  0  0  0  0  0  0  0  0  0
    0.7272   -0.3486   -1.0054 C   0  0  0  0  0  0  0  0  0  0  0  0
    0.1110   -0.2213    1.6884 H   0  0  0  0  0  0  0  0  0  0  0  0
    1.7231    0.8567    1.5991 H   0  0  0  0  0  0  0  0  0  0  0  0
    0.1899    1.7233    1.6091 H   0  0  0  0  0  0  0  0  0  0  0  0
    0.6743    2.9808   -0.4676 H   0  0  0  0  0  0  0  0  0  0  0  0
    0.7287    2.9843   -2.9271 H   0  0  0  0  0  0  0  0  0  0  0  0
    0.7820    0.8463   -4.1728 H   0  0  0  0  0  0  0  0  0  0  0  0
    0.7758   -1.2923   -2.9271 H   0  0  0  0  0  0  0  0  0  0  0  0
    0.7214   -1.2901   -0.4676 H   0  0  0  0  0  0  0  0  0  0  0  0
  1  2  3  0
  1  5  1  0
  2  3  1  0
  3  4  2  3
  3 15  1  0
  4  6  1  0
  4  7  1  0
  8  9  2  3
  8 16  1  0
  8 17  1  0
  9 10  1  0
  9 14  1  0
 10 11  1  0
 10 18  1  0
 11 12  2  0
 11 19  1  0
 12 13  1  0
 12 20  1  0
 13 14  2  0
 13 21  1  0
 14 22  1  0
M  RAD  1  10   2
M  END
>  <reaction>  (8) 
rxn_1454

>  <mol_properties>  (8) 
{"1": {"label": "*4", "atom_type": "Ct"}, "2": {"label": "*3", "atom_type": "Cd"}, "7": {"label": "*1", "atom_type": "Cs"}, "8": {"label": "*0", "atom_type": "Cd"}, "14": {"label": "*2", "atom_type": "H0"}}

>  <type>  (8) 
unop_4

>  <geom_source>  (8) 
Heuristics

$$$$

     RDKit          3D

 22 21  0  0  0  0  0  0  0  0999 V2000
   -0.7976   -1.4137    4.5252 C   0  0  0  0  0  0  0  0  0  0  0  0
   -0.7632   -1.3516    3.3279 C   0  0  0  0  0  0  0  0  0  0  0  0
   -0.7071   -1.2500    1.9071 C   0  0  0  0  0  0  0  0  0  0  0  0
   -1.2096   -2.1587    1.0779 C   0  0  0  0  0  0  0  0  0  0  0  0
   -0.8280   -1.4687    5.5868 H   0  0  0  0  0  0  0  0  0  0  0  0
   -1.7022   -3.0495    1.4460 H   0  0  0  0  0  0  0  0  0  0  0  0
   -1.1378   -2.0288    0.0062 H   0  0  0  0  0  0  0  0  0  0  0  0
    0.4697    0.8781    0.9573 C   0  0  0  0  0  0  0  0  0  0  0  0
    0.4697    0.8781   -0.5464 C   0  0  0  0  0  0  0  0  0  0  0  0
    0.4697    2.0724   -1.2605 C   0  0  0  0  0  3  0  0  0  0  0  0
    0.5002    2.0758   -2.6464 C   0  0  0  0  0  0  0  0  0  0  0  0
    0.5297    0.8787   -3.3455 C   0  0  0  0  0  0  0  0  0  0  0  0
    0.5266   -0.3186   -2.6464 C   0  0  0  0  0  0  0  0  0  0  0  0
    0.4960   -0.3159   -1.2605 C   0  0  0  0  0  0  0  0  0  0  0  0
   -0.1202   -0.1886    1.4334 H   0  0  0  0  0  0  0  0  0  0  0  0
    1.4919    0.8893    1.3441 H   0  0  0  0  0  0  0  0  0  0  0  0
   -0.0413    1.7560    1.3541 H   0  0  0  0  0  0  0  0  0  0  0  0
    0.4431    3.0135   -0.7226 H   0  0  0  0  0  0  0  0  0  0  0  0
    0.4975    3.0170   -3.1822 H   0  0  0  0  0  0  0  0  0  0  0  0
    0.5509    0.8790   -4.4278 H   0  0  0  0  0  0  0  0  0  0  0  0
    0.5447   -1.2597   -3.1822 H   0  0  0  0  0  0  0  0  0  0  0  0
    0.4902   -1.2574   -0.7226 H   0  0  0  0  0  0  0  0  0  0  0  0
  1  2  3  0
  1  5  1  0
  2  3  1  0
  3  4  2  3
  3 15  1  0
  4  6  1  0
  4  7  1  0
  8  9  2  3
  8 16  1  0
  8 17  1  0
  9 10  1  0
  9 14  1  0
 10 11  1  0
 10 18  1  0
 11 12  2  0
 11 19  1  0
 12 13  1  0
 12 20  1  0
 13 14  2  0
 13 21  1  0
 14 22  1  0
M  RAD  1  10   2
M  END
>  <reaction>  (9) 
rxn_1454

>  <mol_properties>  (9) 
{"1": {"label": "*4", "atom_type": "Ct"}, "2": {"label": "*3", "atom_type": "Cd"}, "7": {"label": "*1", "atom_type": "Cs"}, "8": {"label": "*0", "atom_type": "Cd"}, "14": {"label": "*2", "atom_type": "H0"}}

>  <type>  (9) 
unop_5

>  <geom_source>  (9) 
Heuristics

$$$$

     RDKit          3D

 22 21  0  0  0  0  0  0  0  0999 V2000
   -3.0851   -1.1161    2.4398 C   0  0  0  0  0  0  0  0  0  0  0  0
   -1.9023   -1.2227    2.2714 C   0  0  0  0  0  0  0  0  0  0  0  0
   -0.4994   -1.3333    2.0440 C   0  0  0  0  0  0  0  0  0  0  0  0
    0.3388   -1.9546    2.8668 C   0  0  0  0  0  0  0  0  0  0  0  0
   -4.1337   -1.0215    2.5891 H   0  0  0  0  0  0  0  0  0  0  0  0
   -0.0073   -2.4233    3.7791 H   0  0  0  0  0  0  0  0  0  0  0  0
    1.3960   -2.0074    2.6427 H   0  0  0  0  0  0  0  0  0  0  0  0
    0.6774    0.7948    1.0942 C   0  0  0  0  0  0  0  0  0  0  0  0
    0.6774    0.7948   -0.4095 C   0  0  0  0  0  0  0  0  0  0  0  0
    0.6774    1.9891   -1.1235 C   0  0  0  0  0  3  0  0  0  0  0  0
    0.7078    1.9925   -2.5095 C   0  0  0  0  0  0  0  0  0  0  0  0
    0.7373    0.7954   -3.2086 C   0  0  0  0  0  0  0  0  0  0  0  0
    0.7342   -0.4019   -2.5095 C   0  0  0  0  0  0  0  0  0  0  0  0
    0.7037   -0.3992   -1.1235 C   0  0  0  0  0  0  0  0  0  0  0  0
    0.0875   -0.2719    1.5703 H   0  0  0  0  0  0  0  0  0  0  0  0
    1.6996    0.8060    1.4810 H   0  0  0  0  0  0  0  0  0  0  0  0
    0.1663    1.6727    1.4910 H   0  0  0  0  0  0  0  0  0  0  0  0
    0.6507    2.9302   -0.5857 H   0  0  0  0  0  0  0  0  0  0  0  0
    0.7052    2.9337   -3.0452 H   0  0  0  0  0  0  0  0  0  0  0  0
    0.7585    0.7957   -4.2909 H   0  0  0  0  0  0  0  0  0  0  0  0
    0.7523   -1.3430   -3.0452 H   0  0  0  0  0  0  0  0  0  0  0  0
    0.6978   -1.3407   -0.5857 H   0  0  0  0  0  0  0  0  0  0  0  0
  1  2  3  0
  1  5  1  0
  2  3  1  0
  3  4  2  3
  3 15  1  0
  4  6  1  0
  4  7  1  0
  8  9  2  3
  8 16  1  0
  8 17  1  0
  9 10  1  0
  9 14  1  0
 10 11  1  0
 10 18  1  0
 11 12  2  0
 11 19  1  0
 12 13  1  0
 12 20  1  0
 13 14  2  0
 13 21  1  0
 14 22  1  0
M  RAD  1  10   2
M  END
>  <reaction>  (10) 
rxn_1454

>  <mol_properties>  (10) 
{"1": {"label": "*4", "atom_type": "Ct"}, "2": {"label": "*3", "atom_type": "Cd"}, "7": {"label": "*1", "atom_type": "Cs"}, "8": {"label": "*0", "atom_type": "Cd"}, "14": {"label": "*2", "atom_type": "H0"}}

>  <type>  (10) 
unop_6

>  <geom_source>  (10) 
Heuristics

$$$$

     RDKit          3D

 22 21  0  0  0  0  0  0  0  0999 V2000
   -2.6841   -0.8909    3.4481 C   0  0  0  0  0  0  0  0  0  0  0  0
   -1.7168   -1.1045    2.7719 C   0  0  0  0  0  0  0  0  0  0  0  0
   -0.5769   -1.3359    1.9478 C   0  0  0  0  0  0  0  0  0  0  0  0
    0.3634   -2.2351    2.2178 C   0  0  0  0  0  0  0  0  0  0  0  0
   -3.5418   -0.7016    4.0477 H   0  0  0  0  0  0  0  0  0  0  0  0
    0.3138   -2.8577    3.1019 H   0  0  0  0  0  0  0  0  0  0  0  0
    1.2082   -2.3677    1.5549 H   0  0  0  0  0  0  0  0  0  0  0  0
    0.5999    0.7921    0.9981 C   0  0  0  0  0  0  0  0  0  0  0  0
    0.5999    0.7921   -0.5057 C   0  0  0  0  0  0  0  0  0  0  0  0
    0.5999    1.9865   -1.2197 C   0  0  0  0  0  3  0  0  0  0  0  0
    0.6303    1.9898   -2.6057 C   0  0  0  0  0  0  0  0  0  0  0  0
    0.6599    0.7928   -3.3047 C   0  0  0  0  0  0  0  0  0  0  0  0
    0.6567   -0.4046   -2.6057 C   0  0  0  0  0  0  0  0  0  0  0  0
    0.6262   -0.4019   -1.2197 C   0  0  0  0  0  0  0  0  0  0  0  0
    0.0100   -0.2746    1.4741 H   0  0  0  0  0  0  0  0  0  0  0  0
    1.6221    0.8034    1.3848 H   0  0  0  0  0  0  0  0  0  0  0  0
    0.0889    1.6700    1.3948 H   0  0  0  0  0  0  0  0  0  0  0  0
    0.5733    2.9276   -0.6819 H   0  0  0  0  0  0  0  0  0  0  0  0
    0.6277    2.9310   -3.1414 H   0  0  0  0  0  0  0  0  0  0  0  0
    0.6810    0.7930   -4.3871 H   0  0  0  0  0  0  0  0  0  0  0  0
    0.6748   -1.3456   -3.1414 H   0  0  0  0  0  0  0  0  0  0  0  0
    0.6204   -1.3434   -0.6819 H   0  0  0  0  0  0  0  0  0  0  0  0
  1  2  3  0
  1  5  1  0
  2  3  1  0
  3  4  2  3
  3 15  1  0
  4  6  1  0
  4  7  1  0
  8  9  2  3
  8 16  1  0
  8 17  1  0
  9 10  1  0
  9 14  1  0
 10 11  1  0
 10 18  1  0
 11 12  2  0
 11 19  1  0
 12 13  1  0
 12 20  1  0
 13 14  2  0
 13 21  1  0
 14 22  1  0
M  RAD  1  10   2
M  END
>  <reaction>  (11) 
rxn_1454

>  <mol_properties>  (11) 
{"1": {"label": "*4", "atom_type": "Ct"}, "2": {"label": "*3", "atom_type": "Cd"}, "7": {"label": "*1", "atom_type": "Cs"}, "8": {"label": "*0", "atom_type": "Cd"}, "14": {"label": "*2", "atom_type": "H0"}}

>  <type>  (11) 
unop_7

>  <geom_source>  (11) 
Heuristics

$$$$

     RDKit          3D

 22 21  0  0  0  0  0  0  0  0999 V2000
    0.6706   -3.1929    2.4398 C   0  0  0  0  0  0  0  0  0  0  0  0
   -0.0485   -2.2479    2.2714 C   0  0  0  0  0  0  0  0  0  0  0  0
   -0.8880   -1.1184    2.0440 C   0  0  0  0  0  0  0  0  0  0  0  0
   -1.8599   -0.7388    2.8668 C   0  0  0  0  0  0  0  0  0  0  0  0
    1.3082   -4.0308    2.5891 H   0  0  0  0  0  0  0  0  0  0  0  0
   -2.0729   -1.2811    3.7791 H   0  0  0  0  0  0  0  0  0  0  0  0
   -2.4667    0.1285    2.6427 H   0  0  0  0  0  0  0  0  0  0  0  0
    0.2888    1.0097    1.0942 C   0  0  0  0  0  0  0  0  0  0  0  0
    0.2888    1.0097   -0.4095 C   0  0  0  0  0  0  0  0  0  0  0  0
    0.2888    2.2040   -1.1235 C   0  0  0  0  0  3  0  0  0  0  0  0
    0.3192    2.2073   -2.5095 C   0  0  0  0  0  0  0  0  0  0  0  0
    0.3488    1.0103   -3.2086 C   0  0  0  0  0  0  0  0  0  0  0  0
    0.3456   -0.1870   -2.5095 C   0  0  0  0  0  0  0  0  0  0  0  0
    0.3151   -0.1844   -1.1235 C   0  0  0  0  0  0  0  0  0  0  0  0
   -0.3011   -0.0570    1.5703 H   0  0  0  0  0  0  0  0  0  0  0  0
    1.3110    1.0209    1.4810 H   0  0  0  0  0  0  0  0  0  0  0  0
   -0.2223    1.8876    1.4910 H   0  0  0  0  0  0  0  0  0  0  0  0
    0.2621    3.1451   -0.5857 H   0  0  0  0  0  0  0  0  0  0  0  0
    0.3166    3.1486   -3.0452 H   0  0  0  0  0  0  0  0  0  0  0  0
    0.3699    1.0106   -4.2909 H   0  0  0  0  0  0  0  0  0  0  0  0
    0.3637   -1.1281   -3.0452 H   0  0  0  0  0  0  0  0  0  0  0  0
    0.3092   -1.1258   -0.5857 H   0  0  0  0  0  0  0  0  0  0  0  0
  1  2  3  0
  1  5  1  0
  2  3  1  0
  3  4  2  3
  3 15  1  0
  4  6  1  0
  4  7  1  0
  8  9  2  3
  8 16  1  0
  8 17  1  0
  9 10  1  0
  9 14  1  0
 10 11  1  0
 10 18  1  0
 11 12  2  0
 11 19  1  0
 12 13  1  0
 12 20  1  0
 13 14  2  0
 13 21  1  0
 14 22  1  0
M  RAD  1  10   2
M  END
>  <reaction>  (12) 
rxn_1454

>  <mol_properties>  (12) 
{"1": {"label": "*4", "atom_type": "Ct"}, "2": {"label": "*3", "atom_type": "Cd"}, "7": {"label": "*1", "atom_type": "Cs"}, "8": {"label": "*0", "atom_type": "Cd"}, "14": {"label": "*2", "atom_type": "H0"}}

>  <type>  (12) 
unop_8

>  <geom_source>  (12) 
Heuristics

$$$$

     RDKit          3D

 22 21  0  0  0  0  0  0  0  0999 V2000
   -2.4251   -2.2038    0.7548 C   0  0  0  0  0  0  0  0  0  0  0  0
   -1.5614   -1.7524    1.4541 C   0  0  0  0  0  0  0  0  0  0  0  0
   -0.5238   -1.1997    2.2602 C   0  0  0  0  0  0  0  0  0  0  0  0
   -0.3641   -1.4695    3.5515 C   0  0  0  0  0  0  0  0  0  0  0  0
   -3.1908   -2.6040    0.1348 H   0  0  0  0  0  0  0  0  0  0  0  0
   -1.0312   -2.1417    4.0757 H   0  0  0  0  0  0  0  0  0  0  0  0
    0.4431   -1.0200    4.1145 H   0  0  0  0  0  0  0  0  0  0  0  0
    0.6530    0.9284    1.3105 C   0  0  0  0  0  0  0  0  0  0  0  0
    0.6530    0.9284   -0.1933 C   0  0  0  0  0  0  0  0  0  0  0  0
    0.6530    2.1227   -0.9073 C   0  0  0  0  0  3  0  0  0  0  0  0
    0.6835    2.1260   -2.2933 C   0  0  0  0  0  0  0  0  0  0  0  0
    0.7130    0.9290   -2.9923 C   0  0  0  0  0  0  0  0  0  0  0  0
    0.7099   -0.2683   -2.2933 C   0  0  0  0  0  0  0  0  0  0  0  0
    0.6793   -0.2657   -0.9073 C   0  0  0  0  0  0  0  0  0  0  0  0
    0.0631   -0.1383    1.7866 H   0  0  0  0  0  0  0  0  0  0  0  0
    1.6752    0.9396    1.6972 H   0  0  0  0  0  0  0  0  0  0  0  0
    0.1420    1.8063    1.7072 H   0  0  0  0  0  0  0  0  0  0  0  0
    0.6264    3.0638   -0.3695 H   0  0  0  0  0  0  0  0  0  0  0  0
    0.6808    3.0673   -2.8290 H   0  0  0  0  0  0  0  0  0  0  0  0
    0.7341    0.9293   -4.0747 H   0  0  0  0  0  0  0  0  0  0  0  0
    0.7280   -1.2094   -2.8290 H   0  0  0  0  0  0  0  0  0  0  0  0
    0.6735   -1.2071   -0.3695 H   0  0  0  0  0  0  0  0  0  0  0  0
  1  2  3  0
  1  5  1  0
  2  3  1  0
  3  4  2  3
  3 15  1  0
  4  6  1  0
  4  7  1  0
  8  9  2  3
  8 16  1  0
  8 17  1  0
  9 10  1  0
  9 14  1  0
 10 11  1  0
 10 18  1  0
 11 12  2  0
 11 19  1  0
 12 13  1  0
 12 20  1  0
 13 14  2  0
 13 21  1  0
 14 22  1  0
M  RAD  1  10   2
M  END
>  <reaction>  (13) 
rxn_1454

>  <mol_properties>  (13) 
{"1": {"label": "*4", "atom_type": "Ct"}, "2": {"label": "*3", "atom_type": "Cd"}, "7": {"label": "*1", "atom_type": "Cs"}, "8": {"label": "*0", "atom_type": "Cd"}, "14": {"label": "*2", "atom_type": "H0"}}

>  <type>  (13) 
unop_9

>  <geom_source>  (13) 
Heuristics

$$$$

     RDKit          3D

 22 21  0  0  0  0  0  0  0  0999 V2000
    0.2113   -3.3633    1.4586 C   0  0  0  0  0  0  0  0  0  0  0  0
   -0.2812   -2.3219    1.7928 C   0  0  0  0  0  0  0  0  0  0  0  0
   -0.8577   -1.0716    2.1621 C   0  0  0  0  0  0  0  0  0  0  0  0
   -1.4674   -0.8494    3.3217 C   0  0  0  0  0  0  0  0  0  0  0  0
    0.6479   -4.2866    1.1623 H   0  0  0  0  0  0  0  0  0  0  0  0
   -1.5621   -1.6266    4.0691 H   0  0  0  0  0  0  0  0  0  0  0  0
   -1.8872    0.1216    3.5483 H   0  0  0  0  0  0  0  0  0  0  0  0
    0.3191    1.0565    1.2124 C   0  0  0  0  0  0  0  0  0  0  0  0
    0.3191    1.0565   -0.2914 C   0  0  0  0  0  0  0  0  0  0  0  0
    0.3191    2.2508   -1.0054 C   0  0  0  0  0  3  0  0  0  0  0  0
    0.3496    2.2542   -2.3914 C   0  0  0  0  0  0  0  0  0  0  0  0
    0.3791    1.0572   -3.0904 C   0  0  0  0  0  0  0  0  0  0  0  0
    0.3760   -0.1402   -2.3914 C   0  0  0  0  0  0  0  0  0  0  0  0
    0.3455   -0.1375   -1.0054 C   0  0  0  0  0  0  0  0  0  0  0  0
   -0.2708   -0.0102    1.6884 H   0  0  0  0  0  0  0  0  0  0  0  0
    1.3414    1.0678    1.5991 H   0  0  0  0  0  0  0  0  0  0  0  0
   -0.1919    1.9344    1.6091 H   0  0  0  0  0  0  0  0  0  0  0  0
    0.2925    3.1919   -0.4676 H   0  0  0  0  0  0  0  0  0  0  0  0
    0.3469    3.1954   -2.9271 H   0  0  0  0  0  0  0  0  0  0  0  0
    0.4003    1.0574   -4.1728 H   0  0  0  0  0  0  0  0  0  0  0  0
    0.3941   -1.0812   -2.9271 H   0  0  0  0  0  0  0  0  0  0  0  0
    0.3396   -1.0790   -0.4676 H   0  0  0  0  0  0  0  0  0  0  0  0
  1  2  3  0
  1  5  1  0
  2  3  1  0
  3  4  2  3
  3 15  1  0
  4  6  1  0
  4  7  1  0
  8  9  2  3
  8 16  1  0
  8 17  1  0
  9 10  1  0
  9 14  1  0
 10 11  1  0
 10 18  1  0
 11 12  2  0
 11 19  1  0
 12 13  1  0
 12 20  1  0
 13 14  2  0
 13 21  1  0
 14 22  1  0
M  RAD  1  10   2
M  END
>  <reaction>  (14) 
rxn_1454

>  <mol_properties>  (14) 
{"1": {"label": "*4", "atom_type": "Ct"}, "2": {"label": "*3", "atom_type": "Cd"}, "7": {"label": "*1", "atom_type": "Cs"}, "8": {"label": "*0", "atom_type": "Cd"}, "14": {"label": "*2", "atom_type": "H0"}}

>  <type>  (14) 
unop_10

>  <geom_source>  (14) 
Heuristics

$$$$

     RDKit          3D

 22 21  0  0  0  0  0  0  0  0999 V2000
   -1.8625   -0.9844    4.2205 C   0  0  0  0  0  0  0  0  0  0  0  0
   -1.3125   -1.1392    3.1659 C   0  0  0  0  0  0  0  0  0  0  0  0
   -0.6656   -1.2930    1.9050 C   0  0  0  0  0  0  0  0  0  0  0  0
   -0.0914   -2.4202    1.4983 C   0  0  0  0  0  0  0  0  0  0  0  0
   -2.3502   -0.8472    5.1555 H   0  0  0  0  0  0  0  0  0  0  0  0
   -0.0835   -3.3070    2.1191 H   0  0  0  0  0  0  0  0  0  0  0  0
    0.3858   -2.4792    0.5291 H   0  0  0  0  0  0  0  0  0  0  0  0
    0.5112    0.8351    0.9552 C   0  0  0  0  0  0  0  0  0  0  0  0
    0.5112    0.8351   -0.5485 C   0  0  0  0  0  0  0  0  0  0  0  0
    0.5112    2.0294   -1.2625 C   0  0  0  0  0  3  0  0  0  0  0  0
    0.5417    2.0328   -2.6485 C   0  0  0  0  0  0  0  0  0  0  0  0
    0.5712    0.8358   -3.3476 C   0  0  0  0  0  0  0  0  0  0  0  0
    0.5681   -0.3616   -2.6485 C   0  0  0  0  0  0  0  0  0  0  0  0
    0.5376   -0.3589   -1.2625 C   0  0  0  0  0  0  0  0  0  0  0  0
   -0.0787   -0.2316    1.4313 H   0  0  0  0  0  0  0  0  0  0  0  0
    1.5334    0.8463    1.3420 H   0  0  0  0  0  0  0  0  0  0  0  0
    0.0002    1.7130    1.3520 H   0  0  0  0  0  0  0  0  0  0  0  0
    0.4846    2.9705   -0.7247 H   0  0  0  0  0  0  0  0  0  0  0  0
    0.5390    2.9740   -3.1842 H   0  0  0  0  0  0  0  0  0  0  0  0
    0.5924    0.8360   -4.4299 H   0  0  0  0  0  0  0  0  0  0  0  0
    0.5862   -1.3027   -3.1842 H   0  0  0  0  0  0  0  0  0  0  0  0
    0.5317   -1.3004   -0.7247 H   0  0  0  0  0  0  0  0  0  0  0  0
  1  2  3  0
  1  5  1  0
  2  3  1  0
  3  4  2  3
  3 15  1  0
  4  6  1  0
  4  7  1  0
  8  9  2  3
  8 16  1  0
  8 17  1  0
  9 10  1  0
  9 14  1  0
 10 11  1  0
 10 18  1  0
 11 12  2  0
 11 19  1  0
 12 13  1  0
 12 20  1  0
 13 14  2  0
 13 21  1  0
 14 22  1  0
M  RAD  1  10   2
M  END
>  <reaction>  (15) 
rxn_1454

>  <mol_properties>  (15) 
{"1": {"label": "*4", "atom_type": "Ct"}, "2": {"label": "*3", "atom_type": "Cd"}, "7": {"label": "*1", "atom_type": "Cs"}, "8": {"label": "*0", "atom_type": "Cd"}, "14": {"label": "*2", "atom_type": "H0"}}

>  <type>  (15) 
unop_11

>  <geom_source>  (15) 
Heuristics

$$$$

     RDKit          3D

 22 21  0  0  0  0  0  0  0  0999 V2000
   -1.5582   -2.7892    0.5005 C   0  0  0  0  0  0  0  0  0  0  0  0
   -1.1403   -2.0334    1.3327 C   0  0  0  0  0  0  0  0  0  0  0  0
   -0.6330   -1.1161    2.2988 C   0  0  0  0  0  0  0  0  0  0  0  0
   -0.7306   -1.2925    3.6122 C   0  0  0  0  0  0  0  0  0  0  0  0
   -1.9288   -3.4594   -0.2375 H   0  0  0  0  0  0  0  0  0  0  0  0
   -1.2135   -2.1658    4.0314 H   0  0  0  0  0  0  0  0  0  0  0  0
   -0.3263   -0.5614    4.2997 H   0  0  0  0  0  0  0  0  0  0  0  0
    0.5437    1.0120    1.3490 C   0  0  0  0  0  0  0  0  0  0  0  0
    0.5437    1.0120   -0.1547 C   0  0  0  0  0  0  0  0  0  0  0  0
    0.5437    2.2063   -0.8687 C   0  0  0  0  0  3  0  0  0  0  0  0
    0.5742    2.2096   -2.2547 C   0  0  0  0  0  0  0  0  0  0  0  0
    0.6037    1.0126   -2.9538 C   0  0  0  0  0  0  0  0  0  0  0  0
    0.6006   -0.1847   -2.2547 C   0  0  0  0  0  0  0  0  0  0  0  0
    0.5701   -0.1821   -0.8687 C   0  0  0  0  0  0  0  0  0  0  0  0
   -0.0461   -0.0548    1.8251 H   0  0  0  0  0  0  0  0  0  0  0  0
    1.5660    1.0232    1.7358 H   0  0  0  0  0  0  0  0  0  0  0  0
    0.0327    1.8899    1.7458 H   0  0  0  0  0  0  0  0  0  0  0  0
    0.5171    3.1474   -0.3309 H   0  0  0  0  0  0  0  0  0  0  0  0
    0.5715    3.1508   -2.7904 H   0  0  0  0  0  0  0  0  0  0  0  0
    0.6249    1.0129   -4.0361 H   0  0  0  0  0  0  0  0  0  0  0  0
    0.6187   -1.1258   -2.7905 H   0  0  0  0  0  0  0  0  0  0  0  0
    0.5642   -1.1235   -0.3309 H   0  0  0  0  0  0  0  0  0  0  0  0
  1  2  3  0
  1  5  1  0
  2  3  1  0
  3  4  2  3
  3 15  1  0
  4  6  1  0
  4  7  1  0
  8  9  2  3
  8 16  1  0
  8 17  1  0
  9 10  1  0
  9 14  1  0
 10 11  1  0
 10 18  1  0
 11 12  2  0
 11 19  1  0
 12 13  1  0
 12 20  1  0
 13 14  2  0
 13 21  1  0
 14 22  1  0
M  RAD  1  10   2
M  END
>  <reaction>  (16) 
rxn_1454

>  <mol_properties>  (16) 
{"1": {"label": "*4", "atom_type": "Ct"}, "2": {"label": "*3", "atom_type": "Cd"}, "7": {"label": "*1", "atom_type": "Cs"}, "8": {"label": "*0", "atom_type": "Cd"}, "14": {"label": "*2", "atom_type": "H0"}}

>  <type>  (16) 
unop_12

>  <geom_source>  (16) 
Heuristics

$$$$

     RDKit          3D

 22 21  0  0  0  0  0  0  0  0999 V2000
   -0.9852    0.1570    0.4865 C   0  0  0  0  0  0  0  0  0  0  0  0
   -1.4829   -0.4766   -0.6601 C   0  0  0  0  0  3  0  0  0  0  0  0
   -1.8691    0.8050    1.3626 C   0  0  0  0  0  0  0  0  0  0  0  0
   -2.8556   -0.4623   -0.9290 C   0  0  0  0  0  0  0  0  0  0  0  0
   -3.7342    0.1843   -0.0541 C   0  0  0  0  0  0  0  0  0  0  0  0
   -3.2411    0.8176    1.0910 C   0  0  0  0  0  0  0  0  0  0  0  0
    2.6919   -0.5836   -0.3957 C   0  0  0  0  0  0  0  0  0  0  0  0
    0.4809    0.1381    0.7677 C   0  0  0  0  0  0  0  0  0  0  0  0
    3.2981   -1.7606   -0.2944 C   0  0  0  0  0  0  0  0  0  0  0  0
    3.3896    0.5637   -0.9103 C   0  0  0  0  0  0  0  0  0  0  0  0
    3.9735    1.5262   -1.3415 C   0  0  0  0  0  0  0  0  0  0  0  0
   -0.8099   -0.9799   -1.3435 H   0  0  0  0  0  0  0  0  0  0  0  0
   -3.2382   -0.9522   -1.8151 H   0  0  0  0  0  0  0  0  0  0  0  0
   -1.4957    1.2980    2.2518 H   0  0  0  0  0  0  0  0  0  0  0  0
   -4.7961    0.1946   -0.2633 H   0  0  0  0  0  0  0  0  0  0  0  0
   -3.9218    1.3178    1.7677 H   0  0  0  0  0  0  0  0  0  0  0  0
    1.4643   -0.4636   -0.0297 H   0  0  0  0  0  0  0  0  0  0  0  0
    4.3311   -1.8873   -0.5959 H   0  0  0  0  0  0  0  0  0  0  0  0
    2.7565   -2.6121    0.0952 H   0  0  0  0  0  0  0  0  0  0  0  0
    0.6787   -0.3697    1.7351 H   0  0  0  0  0  0  0  0  0  0  0  0
    0.8789    1.1743    0.7950 H   0  0  0  0  0  0  0  0  0  0  0  0
    4.4862    2.3711   -1.7201 H   0  0  0  0  0  0  0  0  0  0  0  0
  1  8  2  3
  1  2  1  0
  1  3  1  0
  2  4  1  0
  2 12  1  0
  3  6  2  0
  3 14  1  0
  4  5  2  0
  4 13  1  0
  5  6  1  0
  5 15  1  0
  6 16  1  0
  7  9  2  3
  7 10  1  0
  7 17  1  0
  8 20  1  0
  8 21  1  0
  9 18  1  0
  9 19  1  0
 10 11  3  0
 11 22  1  0
M  RAD  1   2   2
M  END
>  <reaction>  (17) 
rxn_1454

>  <mol_properties>  (17) 
{"1": {"label": "*4", "atom_type": "Ct"}, "2": {"label": "*3", "atom_type": "Cd"}, "7": {"label": "*1", "atom_type": "Cs"}, "8": {"label": "*0", "atom_type": "Cd"}, "14": {"label": "*2", "atom_type": "H0"}}

>  <type>  (17) 
unop_13

>  <geom_source>  (17) 
AutoTST

$$$$

     RDKit          3D

 22 21  0  0  0  0  0  0  0  0999 V2000
   -0.6016   -3.2121    0.7548 C   0  0  0  0  0  0  0  0  0  0  0  0
   -0.6784   -2.2407    1.4541 C   0  0  0  0  0  0  0  0  0  0  0  0
   -0.7619   -1.0680    2.2602 C   0  0  0  0  0  0  0  0  0  0  0  0
   -1.0753   -1.0762    3.5515 C   0  0  0  0  0  0  0  0  0  0  0  0
   -0.5334   -4.0735    0.1348 H   0  0  0  0  0  0  0  0  0  0  0  0
   -1.2900   -1.9986    4.0757 H   0  0  0  0  0  0  0  0  0  0  0  0
   -1.1238   -0.1535    4.1145 H   0  0  0  0  0  0  0  0  0  0  0  0
    0.4149    1.0601    1.3105 C   0  0  0  0  0  0  0  0  0  0  0  0
    0.4149    1.0601   -0.1933 C   0  0  0  0  0  0  0  0  0  0  0  0
    0.4149    2.2544   -0.9073 C   0  0  0  0  0  3  0  0  0  0  0  0
    0.4453    2.2577   -2.2933 C   0  0  0  0  0  0  0  0  0  0  0  0
    0.4748    1.0607   -2.9923 C   0  0  0  0  0  0  0  0  0  0  0  0
    0.4717   -0.1366   -2.2933 C   0  0  0  0  0  0  0  0  0  0  0  0
    0.4412   -0.1340   -0.9073 C   0  0  0  0  0  0  0  0  0  0  0  0
   -0.1750   -0.0066    1.7866 H   0  0  0  0  0  0  0  0  0  0  0  0
    1.4371    1.0713    1.6972 H   0  0  0  0  0  0  0  0  0  0  0  0
   -0.0962    1.9380    1.7072 H   0  0  0  0  0  0  0  0  0  0  0  0
    0.3882    3.1955   -0.3695 H   0  0  0  0  0  0  0  0  0  0  0  0
    0.4427    3.1989   -2.8290 H   0  0  0  0  0  0  0  0  0  0  0  0
    0.4960    1.0610   -4.0747 H   0  0  0  0  0  0  0  0  0  0  0  0
    0.4898   -1.0777   -2.8290 H   0  0  0  0  0  0  0  0  0  0  0  0
    0.4353   -1.0754   -0.3695 H   0  0  0  0  0  0  0  0  0  0  0  0
  1  2  3  0
  1  5  1  0
  2  3  1  0
  3  4  2  3
  3 15  1  0
  4  6  1  0
  4  7  1  0
  8  9  2  3
  8 16  1  0
  8 17  1  0
  9 10  1  0
  9 14  1  0
 10 11  1  0
 10 18  1  0
 11 12  2  0
 11 19  1  0
 12 13  1  0
 12 20  1  0
 13 14  2  0
 13 21  1  0
 14 22  1  0
M  RAD  1  10   2
M  END
>  <reaction>  (18) 
rxn_1454

>  <mol_properties>  (18) 
{"1": {"label": "*4", "atom_type": "Ct"}, "2": {"label": "*3", "atom_type": "Cd"}, "7": {"label": "*1", "atom_type": "Cs"}, "8": {"label": "*0", "atom_type": "Cd"}, "14": {"label": "*2", "atom_type": "H0"}}

>  <type>  (18) 
unop_14

>  <geom_source>  (18) 
gaussian_log

$$$$
