
     RDKit          3D

  2  1  0  0  0  0  0  0  0  0999 V2000
    0.0000    0.0000    0.3721 H   0  0  0  0  0  0  0  0  0  0  0  0
    0.0000    0.0000   -0.3721 H   0  0  0  0  0  0  0  0  0  0  0  0
  1  2  1  0
M  END
>  <reaction>  (1) 
rxn_825

>  <mol_properties>  (1) 
{"0": {"label": "donator", "atom_type": "H0"}, "1": {"label": "d_hydrogen", "atom_type": "H0"}}

>  <type>  (1) 
r1h

$$$$

     RDKit          3D

  7  6  0  0  0  0  0  0  0  0999 V2000
   -0.6904   -0.9066   -0.0346 C   0  0  0  0  0  0  0  0  0  0  0  0
    0.1413    0.0254   -0.6161 C   0  0  0  0  0  0  0  0  0  0  0  0
    0.4603    0.1105   -1.9267 C   0  0  0  0  0  3  0  0  0  0  0  0
    0.8318    0.2180   -3.4201 S   0  0  0  0  0  0  0  0  0  0  0  0
   -0.8731   -0.8770    1.0287 H   0  0  0  0  0  0  0  0  0  0  0  0
   -1.1718   -1.6767   -0.6199 H   0  0  0  0  0  0  0  0  0  0  0  0
    0.6090    0.7866    0.0044 H   0  0  0  0  0  0  0  0  0  0  0  0
  1  2  2  3
  1  5  1  0
  1  6  1  0
  2  3  1  0
  2  7  1  0
  3  4  2  0
M  RAD  1   3   2
M  END
>  <reaction>  (2) 
rxn_825

>  <mol_properties>  (2) 
{"2": {"label": "acceptor", "atom_type": "CS"}}

>  <type>  (2) 
r2

$$$$

     RDKit          3D

  8  7  0  0  0  0  0  0  0  0999 V2000
   -1.1617    0.0338    0.5053 C   0  0  0  0  0  0  0  0  0  0  0  0
   -0.1023    0.4503   -0.1863 C   0  0  0  0  0  0  0  0  0  0  0  0
    1.0978   -0.3557   -0.3104 C   0  0  0  0  0  0  0  0  0  0  0  0
    2.4251    0.0667   -1.1256 S   0  0  0  0  0  0  0  0  0  0  0  0
   -1.1653   -0.9292    1.0039 H   0  0  0  0  0  0  0  0  0  0  0  0
   -2.0546    0.6389    0.5948 H   0  0  0  0  0  0  0  0  0  0  0  0
   -0.0991    1.4132   -0.6847 H   0  0  0  0  0  0  0  0  0  0  0  0
    1.0601   -1.3180    0.2032 H   0  0  0  0  0  0  0  0  0  0  0  0
  1  2  2  3
  1  5  1  0
  1  6  1  0
  2  3  1  0
  2  7  1  0
  3  4  2  0
  3  8  1  0
M  END
>  <reaction>  (3) 
rxn_825

>  <mol_properties>  (3) 
{"0": {"label": "a_hydrogen", "atom_type": "H0"}, "3": {"label": "acceptor", "atom_type": "CS"}}

>  <type>  (3) 
r2h

$$$$

     RDKit          3D

  9  7  0  0  0  0  0  0  0  0999 V2000
   -0.0000    0.0361   -2.6501 H   0  0  0  0  0 15  0  0  0  0  0  0
   -0.0000   -0.0826   -1.5888 H   0  0  0  0  0  0  0  0  0  0  0  0
   -0.0000    2.2991   -0.5397 C   0  0  0  0  0  0  0  0  0  0  0  0
   -0.0000    1.2070    0.2227 C   0  0  0  0  0  0  0  0  0  0  0  0
    0.0000   -0.1242   -0.3453 C   0  0  0  0  0  0  0  0  0  0  0  0
    0.0000   -1.5409    0.3794 S   0  0  0  0  0  0  0  0  0  0  0  0
   -0.0000    3.2891   -0.1026 H   0  0  0  0  0  0  0  0  0  0  0  0
   -0.0000    2.2299   -1.6211 H   0  0  0  0  0  0  0  0  0  0  0  0
    0.0000    1.2787    1.3058 H   0  0  0  0  0  0  0  0  0  0  0  0
  2  5  1  0
  3  4  2  3
  3  7  1  0
  3  8  1  0
  4  5  1  0
  4  9  1  0
  5  6  2  0
M  END
>  <reaction>  (4) 
rxn_825

>  <mol_properties>  (4) 
{"0": {"label": "*1", "atom_type": "H0"}, "1": {"label": "*2", "atom_type": "H0"}, "4": {"label": "*3", "atom_type": "CS"}, "5": {"label": "*4", "atom_type": "S2d"}}

>  <type>  (4) 
ts

$$$$

     RDKit          3D

  9  7  0  0  0  0  0  0  0  0999 V2000
   -0.0000   -0.1013   -2.5979 H   0  0  0  0  0 15  0  0  0  0  0  0
   -0.0000   -0.1013   -1.7049 H   0  0  0  0  0  0  0  0  0  0  0  0
   -0.0000    2.3295   -0.5135 C   0  0  0  0  0  0  0  0  0  0  0  0
   -0.0000    1.2149    0.2157 C   0  0  0  0  0  0  0  0  0  0  0  0
   -0.0000   -0.1013   -0.3951 C   0  0  0  0  0  0  0  0  0  0  0  0
    0.0000   -1.5019    0.4068 S   0  0  0  0  0  0  0  0  0  0  0  0
   -0.0000    3.3089   -0.0529 H   0  0  0  0  0  0  0  0  0  0  0  0
   -0.0000    2.2930   -1.5973 H   0  0  0  0  0  0  0  0  0  0  0  0
   -0.0000    1.2517    1.2993 H   0  0  0  0  0  0  0  0  0  0  0  0
  2  5  1  0
  3  4  2  3
  3  7  1  0
  3  8  1  0
  4  5  1  0
  4  9  1  0
  5  6  2  0
M  END
>  <reaction>  (5) 
rxn_825

>  <mol_properties>  (5) 
{"0": {"label": "*1", "atom_type": "H0"}, "1": {"label": "*2", "atom_type": "H0"}, "4": {"label": "*3", "atom_type": "CS"}, "5": {"label": "*4", "atom_type": "S2d"}}

>  <type>  (5) 
unop_1

>  <geom_source>  (5) 
Heuristics

$$$$

     RDKit          3D

  9  7  0  0  0  0  0  0  0  0999 V2000
    0.2434    1.9061    0.9151 S   0  0  0  0  0  0  0  0  0  0  0  0
   -0.1115   -0.6027   -0.1348 C   0  0  0  0  0  0  0  0  0  0  0  0
   -1.2387   -0.8244    0.5418 C   0  0  0  0  0  0  0  0  0  0  0  0
    0.6724    0.6439   -0.0397 C   0  0  0  0  0  0  0  0  0  0  0  0
    0.2545   -1.3798   -0.7943 H   0  0  0  0  0  0  0  0  0  0  0  0
   -1.7607   -1.7648    0.4214 H   0  0  0  0  0  0  0  0  0  0  0  0
   -1.6573   -0.0896    1.2163 H   0  0  0  0  0  0  0  0  0  0  0  0
    1.4976    0.7238   -0.5778 H   0  0  0  0  0  0  0  0  0  0  0  0
    2.1003    1.3875   -1.5480 H   0  0  0  0  0 15  0  0  0  0  0  0
  1  4  2  0
  2  3  2  3
  2  4  1  0
  2  5  1  0
  3  6  1  0
  3  7  1  0
  4  8  1  0
M  END
>  <reaction>  (6) 
rxn_825

>  <mol_properties>  (6) 
{"0": {"label": "*1", "atom_type": "H0"}, "1": {"label": "*2", "atom_type": "H0"}, "4": {"label": "*3", "atom_type": "CS"}, "5": {"label": "*4", "atom_type": "S2d"}}

>  <type>  (6) 
unop_2

>  <geom_source>  (6) 
AutoTST

$$$$
