
     RDKit          3D

  7  6  0  0  0  0  0  0  0  0999 V2000
   -0.6468   -0.0443   -0.0231 C   0  0  0  0  0  0  0  0  0  0  0  0
    0.8470    0.0371    0.0688 C   0  0  0  0  0  0  0  0  0  0  0  0
    1.4866   -0.2280    1.0479 O   0  0  0  0  0  0  0  0  0  0  0  0
   -1.0466    0.9363   -0.2943 H   0  0  0  0  0  0  0  0  0  0  0  0
   -0.9229   -0.7318   -0.8269 H   0  0  0  0  0  0  0  0  0  0  0  0
   -1.0759   -0.3772    0.9198 H   0  0  0  0  0  0  0  0  0  0  0  0
    1.3584    0.3712   -0.8589 H   0  0  0  0  0  0  0  0  0  0  0  0
  1  2  1  0
  1  4  1  0
  1  5  1  0
  1  6  1  0
  2  3  2  0
  2  7  1  0
M  END
>  <reaction>  (1) 
rxn_327

>  <mol_properties>  (1) 
{"0": {"label": "donator", "atom_type": "Cs"}, "3": {"label": "d_hydrogen", "atom_type": "H0"}}

>  <type>  (1) 
r1h

$$$$

     RDKit          3D

  2  1  0  0  0  0  0  0  0  0999 V2000
    0.0000    0.0000    0.4855 O   0  0  0  0  0  1  0  0  0  0  0  0
    0.0000    0.0000   -0.4855 H   0  0  0  0  0  0  0  0  0  0  0  0
  1  2  1  0
M  RAD  1   1   2
M  END
>  <reaction>  (2) 
rxn_327

>  <mol_properties>  (2) 
{"0": {"label": "acceptor", "atom_type": "O2s"}}

>  <type>  (2) 
r2

$$$$

     RDKit          3D

  3  2  0  0  0  0  0  0  0  0999 V2000
   -0.0003    0.3867    0.0000 O   0  0  0  0  0  0  0  0  0  0  0  0
   -0.7617   -0.1940    0.0000 H   0  0  0  0  0  0  0  0  0  0  0  0
    0.7620   -0.1927    0.0000 H   0  0  0  0  0  0  0  0  0  0  0  0
  1  2  1  0
  1  3  1  0
M  END
>  <reaction>  (3) 
rxn_327

>  <mol_properties>  (3) 
{"0": {"label": "acceptor", "atom_type": "O2s"}, "2": {"label": "a_hydrogen", "atom_type": "H0"}}

>  <type>  (3) 
r2h

$$$$

     RDKit          3D

  9  7  0  0  0  0  0  0  0  0999 V2000
   -1.6311    0.6797    1.3647 O   0  0  0  0  0  1  0  0  0  0  0  0
   -1.8748   -0.0930    0.8297 H   0  0  0  0  0  0  0  0  0  0  0  0
    0.6664    0.5382    0.4796 C   0  0  0  0  0  0  0  0  0  0  0  0
    0.5064   -0.6469   -0.4128 C   0  0  0  0  0  0  0  0  0  0  0  0
   -0.5118   -1.2648   -0.5639 O   0  0  0  0  0  0  0  0  0  0  0  0
   -0.4309    0.7572    1.0232 H   0  0  0  0  0  0  0  0  0  0  0  0
    1.3827    0.3578    1.2820 H   0  0  0  0  0  0  0  0  0  0  0  0
    0.9267    1.4409   -0.0746 H   0  0  0  0  0  0  0  0  0  0  0  0
    1.4240   -0.9466   -0.9605 H   0  0  0  0  0  0  0  0  0  0  0  0
  1  2  1  0
  3  4  1  0
  3  6  1  0
  3  7  1  0
  3  8  1  0
  4  5  2  0
  4  9  1  0
M  RAD  1   1   2
M  END
>  <reaction>  (4) 
rxn_327

>  <mol_properties>  (4) 
{"0": {"label": "*3", "atom_type": "O2s"}, "1": {"label": "*4", "atom_type": "H0"}, "2": {"label": "*1", "atom_type": "Cs"}, "3": {"label": "*0", "atom_type": "CO"}, "5": {"label": "*2", "atom_type": "H0"}}

>  <type>  (4) 
ts

$$$$

     RDKit          3D

  9  7  0  0  0  0  0  0  0  0999 V2000
   -1.4282    0.5684    1.7406 O   0  0  0  0  0  0  0  0  0  0  0  0
   -1.0828    0.5820    2.6336 H   0  0  0  0  0  0  0  0  0  0  0  0
    0.5477    0.5937    0.2739 C   0  0  0  0  0  0  0  0  0  0  0  0
    0.5477   -0.6382   -0.5799 C   0  0  0  0  0  0  0  0  0  0  0  0
    0.5477   -0.6382   -1.7790 O   0  0  0  0  0  1  0  0  0  0  0  0
   -0.5056    0.5802    1.0557 H   0  0  0  0  0  0  0  0  0  0  0  0
    1.4254    0.5824    0.9254 H   0  0  0  0  0  0  0  0  0  0  0  0
    0.5477    1.4916   -0.3407 H   0  0  0  0  0  0  0  0  0  0  0  0
    0.5477   -1.5982   -0.0212 H   0  0  0  0  0  0  0  0  0  0  0  0
  1  2  1  0
  1  6  1  0
  3  4  2  3
  3  7  1  0
  3  8  1  0
  4  5  1  0
  4  9  1  0
M  RAD  1   5   2
M  END
>  <reaction>  (5) 
rxn_327

>  <mol_properties>  (5) 
{"0": {"label": "*3", "atom_type": "O2s"}, "1": {"label": "*4", "atom_type": "H0"}, "2": {"label": "*1", "atom_type": "Cs"}, "3": {"label": "*0", "atom_type": "CO"}, "5": {"label": "*2", "atom_type": "H0"}}

>  <type>  (5) 
unop_1

>  <geom_source>  (5) 
Heuristics

$$$$

     RDKit          3D

  9  7  0  0  0  0  0  0  0  0999 V2000
   -1.4194    0.5839    1.7527 O   0  0  0  0  0  0  0  0  0  0  0  0
   -1.6067   -0.3416    1.9119 H   0  0  0  0  0  0  0  0  0  0  0  0
    0.5565    0.6092    0.2860 C   0  0  0  0  0  0  0  0  0  0  0  0
    0.5565   -0.6227   -0.5677 C   0  0  0  0  0  0  0  0  0  0  0  0
    0.5565   -0.6227   -1.7669 O   0  0  0  0  0  1  0  0  0  0  0  0
   -0.4968    0.5957    1.0678 H   0  0  0  0  0  0  0  0  0  0  0  0
    1.4342    0.5979    0.9376 H   0  0  0  0  0  0  0  0  0  0  0  0
    0.5565    1.5071   -0.3286 H   0  0  0  0  0  0  0  0  0  0  0  0
    0.5565   -1.5827   -0.0091 H   0  0  0  0  0  0  0  0  0  0  0  0
  1  2  1  0
  1  6  1  0
  3  4  2  3
  3  7  1  0
  3  8  1  0
  4  5  1  0
  4  9  1  0
M  RAD  1   5   2
M  END
>  <reaction>  (6) 
rxn_327

>  <mol_properties>  (6) 
{"0": {"label": "*3", "atom_type": "O2s"}, "1": {"label": "*4", "atom_type": "H0"}, "2": {"label": "*1", "atom_type": "Cs"}, "3": {"label": "*0", "atom_type": "CO"}, "5": {"label": "*2", "atom_type": "H0"}}

>  <type>  (6) 
unop_2

>  <geom_source>  (6) 
Heuristics

$$$$

     RDKit          3D

  9  7  0  0  0  0  0  0  0  0999 V2000
   -1.4268    0.5608    1.7423 O   0  0  0  0  0  0  0  0  0  0  0  0
   -1.1638    1.0336    2.5323 H   0  0  0  0  0  0  0  0  0  0  0  0
    0.5490    0.5861    0.2756 C   0  0  0  0  0  0  0  0  0  0  0  0
    0.5490   -0.6458   -0.5781 C   0  0  0  0  0  0  0  0  0  0  0  0
    0.5490   -0.6458   -1.7773 O   0  0  0  0  0  1  0  0  0  0  0  0
   -0.5042    0.5726    1.0574 H   0  0  0  0  0  0  0  0  0  0  0  0
    1.4267    0.5748    0.9272 H   0  0  0  0  0  0  0  0  0  0  0  0
    0.5491    1.4840   -0.3390 H   0  0  0  0  0  0  0  0  0  0  0  0
    0.5490   -1.6058   -0.0195 H   0  0  0  0  0  0  0  0  0  0  0  0
  1  2  1  0
  1  6  1  0
  3  4  2  3
  3  7  1  0
  3  8  1  0
  4  5  1  0
  4  9  1  0
M  RAD  1   5   2
M  END
>  <reaction>  (7) 
rxn_327

>  <mol_properties>  (7) 
{"0": {"label": "*3", "atom_type": "O2s"}, "1": {"label": "*4", "atom_type": "H0"}, "2": {"label": "*1", "atom_type": "Cs"}, "3": {"label": "*0", "atom_type": "CO"}, "5": {"label": "*2", "atom_type": "H0"}}

>  <type>  (7) 
unop_3

>  <geom_source>  (7) 
Heuristics

$$$$

     RDKit          3D

  9  7  0  0  0  0  0  0  0  0999 V2000
   -1.4100    0.5689    1.7651 O   0  0  0  0  0  0  0  0  0  0  0  0
   -2.1646    0.5500    1.1758 H   0  0  0  0  0  0  0  0  0  0  0  0
    0.5658    0.5943    0.2983 C   0  0  0  0  0  0  0  0  0  0  0  0
    0.5658   -0.6377   -0.5554 C   0  0  0  0  0  0  0  0  0  0  0  0
    0.5658   -0.6377   -1.7545 O   0  0  0  0  0  1  0  0  0  0  0  0
   -0.4874    0.5807    1.0802 H   0  0  0  0  0  0  0  0  0  0  0  0
    1.4435    0.5830    0.9499 H   0  0  0  0  0  0  0  0  0  0  0  0
    0.5659    1.4921   -0.3162 H   0  0  0  0  0  0  0  0  0  0  0  0
    0.5658   -1.5977    0.0032 H   0  0  0  0  0  0  0  0  0  0  0  0
  1  2  1  0
  1  6  1  0
  3  4  2  3
  3  7  1  0
  3  8  1  0
  4  5  1  0
  4  9  1  0
M  RAD  1   5   2
M  END
>  <reaction>  (8) 
rxn_327

>  <mol_properties>  (8) 
{"0": {"label": "*3", "atom_type": "O2s"}, "1": {"label": "*4", "atom_type": "H0"}, "2": {"label": "*1", "atom_type": "Cs"}, "3": {"label": "*0", "atom_type": "CO"}, "5": {"label": "*2", "atom_type": "H0"}}

>  <type>  (8) 
unop_4

>  <geom_source>  (8) 
Heuristics

$$$$

     RDKit          3D

  9  7  0  0  0  0  0  0  0  0999 V2000
   -1.4234    0.5553    1.7468 O   0  0  0  0  0  0  0  0  0  0  0  0
   -1.3680    1.3600    2.2629 H   0  0  0  0  0  0  0  0  0  0  0  0
    0.5525    0.5807    0.2801 C   0  0  0  0  0  0  0  0  0  0  0  0
    0.5525   -0.6513   -0.5736 C   0  0  0  0  0  0  0  0  0  0  0  0
    0.5525   -0.6513   -1.7728 O   0  0  0  0  0  1  0  0  0  0  0  0
   -0.5008    0.5671    1.0620 H   0  0  0  0  0  0  0  0  0  0  0  0
    1.4302    0.5694    0.9317 H   0  0  0  0  0  0  0  0  0  0  0  0
    0.5525    1.4785   -0.3345 H   0  0  0  0  0  0  0  0  0  0  0  0
    0.5525   -1.6113   -0.0150 H   0  0  0  0  0  0  0  0  0  0  0  0
  1  2  1  0
  1  6  1  0
  3  4  2  3
  3  7  1  0
  3  8  1  0
  4  5  1  0
  4  9  1  0
M  RAD  1   5   2
M  END
>  <reaction>  (9) 
rxn_327

>  <mol_properties>  (9) 
{"0": {"label": "*3", "atom_type": "O2s"}, "1": {"label": "*4", "atom_type": "H0"}, "2": {"label": "*1", "atom_type": "Cs"}, "3": {"label": "*0", "atom_type": "CO"}, "5": {"label": "*2", "atom_type": "H0"}}

>  <type>  (9) 
unop_5

>  <geom_source>  (9) 
Heuristics

$$$$

     RDKit          3D

  9  7  0  0  0  0  0  0  0  0999 V2000
   -1.4111    0.5612    1.7635 O   0  0  0  0  0  0  0  0  0  0  0  0
   -2.1006    1.0060    1.2698 H   0  0  0  0  0  0  0  0  0  0  0  0
    0.5648    0.5866    0.2968 C   0  0  0  0  0  0  0  0  0  0  0  0
    0.5648   -0.6453   -0.5570 C   0  0  0  0  0  0  0  0  0  0  0  0
    0.5648   -0.6453   -1.7561 O   0  0  0  0  0  1  0  0  0  0  0  0
   -0.4885    0.5731    1.0786 H   0  0  0  0  0  0  0  0  0  0  0  0
    1.4425    0.5753    0.9483 H   0  0  0  0  0  0  0  0  0  0  0  0
    0.5648    1.4845   -0.3178 H   0  0  0  0  0  0  0  0  0  0  0  0
    0.5648   -1.6053    0.0017 H   0  0  0  0  0  0  0  0  0  0  0  0
  1  2  1  0
  1  6  1  0
  3  4  2  3
  3  7  1  0
  3  8  1  0
  4  5  1  0
  4  9  1  0
M  RAD  1   5   2
M  END
>  <reaction>  (10) 
rxn_327

>  <mol_properties>  (10) 
{"0": {"label": "*3", "atom_type": "O2s"}, "1": {"label": "*4", "atom_type": "H0"}, "2": {"label": "*1", "atom_type": "Cs"}, "3": {"label": "*0", "atom_type": "CO"}, "5": {"label": "*2", "atom_type": "H0"}}

>  <type>  (10) 
unop_6

>  <geom_source>  (10) 
Heuristics

$$$$

     RDKit          3D

  9  7  0  0  0  0  0  0  0  0999 V2000
   -1.4143    0.5556    1.7591 O   0  0  0  0  0  0  0  0  0  0  0  0
   -1.9089    1.3440    1.5340 H   0  0  0  0  0  0  0  0  0  0  0  0
    0.5615    0.5809    0.2923 C   0  0  0  0  0  0  0  0  0  0  0  0
    0.5615   -0.6510   -0.5614 C   0  0  0  0  0  0  0  0  0  0  0  0
    0.5615   -0.6510   -1.7605 O   0  0  0  0  0  1  0  0  0  0  0  0
   -0.4917    0.5674    1.0742 H   0  0  0  0  0  0  0  0  0  0  0  0
    1.4392    0.5696    0.9439 H   0  0  0  0  0  0  0  0  0  0  0  0
    0.5616    1.4788   -0.3222 H   0  0  0  0  0  0  0  0  0  0  0  0
    0.5615   -1.6110   -0.0028 H   0  0  0  0  0  0  0  0  0  0  0  0
  1  2  1  0
  1  6  1  0
  3  4  2  3
  3  7  1  0
  3  8  1  0
  4  5  1  0
  4  9  1  0
M  RAD  1   5   2
M  END
>  <reaction>  (11) 
rxn_327

>  <mol_properties>  (11) 
{"0": {"label": "*3", "atom_type": "O2s"}, "1": {"label": "*4", "atom_type": "H0"}, "2": {"label": "*1", "atom_type": "Cs"}, "3": {"label": "*0", "atom_type": "CO"}, "5": {"label": "*2", "atom_type": "H0"}}

>  <type>  (11) 
unop_7

>  <geom_source>  (11) 
Heuristics

$$$$

     RDKit          3D

  9  7  0  0  0  0  0  0  0  0999 V2000
   -1.4271    0.5760    1.7422 O   0  0  0  0  0  0  0  0  0  0  0  0
   -1.1468    0.1260    2.5396 H   0  0  0  0  0  0  0  0  0  0  0  0
    0.5488    0.6014    0.2754 C   0  0  0  0  0  0  0  0  0  0  0  0
    0.5488   -0.6305   -0.5783 C   0  0  0  0  0  0  0  0  0  0  0  0
    0.5488   -0.6305   -1.7774 O   0  0  0  0  0  1  0  0  0  0  0  0
   -0.5045    0.5879    1.0573 H   0  0  0  0  0  0  0  0  0  0  0  0
    1.4264    0.5901    0.9270 H   0  0  0  0  0  0  0  0  0  0  0  0
    0.5488    1.4993   -0.3391 H   0  0  0  0  0  0  0  0  0  0  0  0
    0.5487   -1.5906   -0.0197 H   0  0  0  0  0  0  0  0  0  0  0  0
  1  2  1  0
  1  6  1  0
  3  4  2  3
  3  7  1  0
  3  8  1  0
  4  5  1  0
  4  9  1  0
M  RAD  1   5   2
M  END
>  <reaction>  (12) 
rxn_327

>  <mol_properties>  (12) 
{"0": {"label": "*3", "atom_type": "O2s"}, "1": {"label": "*4", "atom_type": "H0"}, "2": {"label": "*1", "atom_type": "Cs"}, "3": {"label": "*0", "atom_type": "CO"}, "5": {"label": "*2", "atom_type": "H0"}}

>  <type>  (12) 
unop_8

>  <geom_source>  (12) 
Heuristics

$$$$

     RDKit          3D

  9  7  0  0  0  0  0  0  0  0999 V2000
   -1.4114    0.5765    1.7634 O   0  0  0  0  0  0  0  0  0  0  0  0
   -2.0836    0.0983    1.2771 H   0  0  0  0  0  0  0  0  0  0  0  0
    0.5645    0.6018    0.2966 C   0  0  0  0  0  0  0  0  0  0  0  0
    0.5645   -0.6301   -0.5571 C   0  0  0  0  0  0  0  0  0  0  0  0
    0.5645   -0.6301   -1.7562 O   0  0  0  0  0  1  0  0  0  0  0  0
   -0.4888    0.5883    1.0785 H   0  0  0  0  0  0  0  0  0  0  0  0
    1.4422    0.5905    0.9482 H   0  0  0  0  0  0  0  0  0  0  0  0
    0.5645    1.4997   -0.3179 H   0  0  0  0  0  0  0  0  0  0  0  0
    0.5645   -1.5901    0.0015 H   0  0  0  0  0  0  0  0  0  0  0  0
  1  2  1  0
  1  6  1  0
  3  4  2  3
  3  7  1  0
  3  8  1  0
  4  5  1  0
  4  9  1  0
M  RAD  1   5   2
M  END
>  <reaction>  (13) 
rxn_327

>  <mol_properties>  (13) 
{"0": {"label": "*3", "atom_type": "O2s"}, "1": {"label": "*4", "atom_type": "H0"}, "2": {"label": "*1", "atom_type": "Cs"}, "3": {"label": "*0", "atom_type": "CO"}, "5": {"label": "*2", "atom_type": "H0"}}

>  <type>  (13) 
unop_9

>  <geom_source>  (13) 
Heuristics

$$$$

     RDKit          3D

  9  7  0  0  0  0  0  0  0  0999 V2000
   -1.4239    0.5817    1.7466 O   0  0  0  0  0  0  0  0  0  0  0  0
   -1.3385   -0.2120    2.2754 H   0  0  0  0  0  0  0  0  0  0  0  0
    0.5520    0.6070    0.2799 C   0  0  0  0  0  0  0  0  0  0  0  0
    0.5520   -0.6249   -0.5738 C   0  0  0  0  0  0  0  0  0  0  0  0
    0.5520   -0.6249   -1.7730 O   0  0  0  0  0  1  0  0  0  0  0  0
   -0.5013    0.5935    1.0617 H   0  0  0  0  0  0  0  0  0  0  0  0
    1.4297    0.5958    0.9315 H   0  0  0  0  0  0  0  0  0  0  0  0
    0.5520    1.5049   -0.3347 H   0  0  0  0  0  0  0  0  0  0  0  0
    0.5520   -1.5849   -0.0152 H   0  0  0  0  0  0  0  0  0  0  0  0
  1  2  1  0
  1  6  1  0
  3  4  2  3
  3  7  1  0
  3  8  1  0
  4  5  1  0
  4  9  1  0
M  RAD  1   5   2
M  END
>  <reaction>  (14) 
rxn_327

>  <mol_properties>  (14) 
{"0": {"label": "*3", "atom_type": "O2s"}, "1": {"label": "*4", "atom_type": "H0"}, "2": {"label": "*1", "atom_type": "Cs"}, "3": {"label": "*0", "atom_type": "CO"}, "5": {"label": "*2", "atom_type": "H0"}}

>  <type>  (14) 
unop_10

>  <geom_source>  (14) 
Heuristics

$$$$

     RDKit          3D

  9  7  0  0  0  0  0  0  0  0999 V2000
   -1.4188    0.5534    1.7530 O   0  0  0  0  0  0  0  0  0  0  0  0
   -1.6407    1.4736    1.8974 H   0  0  0  0  0  0  0  0  0  0  0  0
    0.5570    0.5787    0.2862 C   0  0  0  0  0  0  0  0  0  0  0  0
    0.5570   -0.6532   -0.5675 C   0  0  0  0  0  0  0  0  0  0  0  0
    0.5570   -0.6532   -1.7666 O   0  0  0  0  0  1  0  0  0  0  0  0
   -0.4962    0.5652    1.0681 H   0  0  0  0  0  0  0  0  0  0  0  0
    1.4347    0.5675    0.9378 H   0  0  0  0  0  0  0  0  0  0  0  0
    0.5571    1.4766   -0.3283 H   0  0  0  0  0  0  0  0  0  0  0  0
    0.5570   -1.6132   -0.0089 H   0  0  0  0  0  0  0  0  0  0  0  0
  1  2  1  0
  1  6  1  0
  3  4  2  3
  3  7  1  0
  3  8  1  0
  4  5  1  0
  4  9  1  0
M  RAD  1   5   2
M  END
>  <reaction>  (15) 
rxn_327

>  <mol_properties>  (15) 
{"0": {"label": "*3", "atom_type": "O2s"}, "1": {"label": "*4", "atom_type": "H0"}, "2": {"label": "*1", "atom_type": "Cs"}, "3": {"label": "*0", "atom_type": "CO"}, "5": {"label": "*2", "atom_type": "H0"}}

>  <type>  (15) 
unop_11

>  <geom_source>  (15) 
Heuristics

$$$$

     RDKit          3D

  9  7  0  0  0  0  0  0  0  0999 V2000
   -1.4148    0.5820    1.7589 O   0  0  0  0  0  0  0  0  0  0  0  0
   -1.8794   -0.2280    1.5465 H   0  0  0  0  0  0  0  0  0  0  0  0
    0.5611    0.6073    0.2921 C   0  0  0  0  0  0  0  0  0  0  0  0
    0.5611   -0.6246   -0.5616 C   0  0  0  0  0  0  0  0  0  0  0  0
    0.5611   -0.6246   -1.7608 O   0  0  0  0  0  1  0  0  0  0  0  0
   -0.4922    0.5938    1.0740 H   0  0  0  0  0  0  0  0  0  0  0  0
    1.4387    0.5960    0.9437 H   0  0  0  0  0  0  0  0  0  0  0  0
    0.5611    1.5052   -0.3224 H   0  0  0  0  0  0  0  0  0  0  0  0
    0.5611   -1.5846   -0.0030 H   0  0  0  0  0  0  0  0  0  0  0  0
  1  2  1  0
  1  6  1  0
  3  4  2  3
  3  7  1  0
  3  8  1  0
  4  5  1  0
  4  9  1  0
M  RAD  1   5   2
M  END
>  <reaction>  (16) 
rxn_327

>  <mol_properties>  (16) 
{"0": {"label": "*3", "atom_type": "O2s"}, "1": {"label": "*4", "atom_type": "H0"}, "2": {"label": "*1", "atom_type": "Cs"}, "3": {"label": "*0", "atom_type": "CO"}, "5": {"label": "*2", "atom_type": "H0"}}

>  <type>  (16) 
unop_12

>  <geom_source>  (16) 
Heuristics

$$$$

     RDKit          3D

  9  7  0  0  0  0  0  0  0  0999 V2000
    2.0364   -0.3664    0.0468 O   0  0  0  0  0  0  0  0  0  0  0  0
   -1.2393   -1.5239    0.2935 O   0  0  0  0  0  1  0  0  0  0  0  0
   -0.2146    0.5624   -0.0520 C   0  0  0  0  0  0  0  0  0  0  0  0
   -1.3637   -0.3110    0.3179 C   0  0  0  0  0  0  0  0  0  0  0  0
   -2.3113    0.1300    0.6091 H   0  0  0  0  0  0  0  0  0  0  0  0
   -0.4901    1.1921   -0.9233 H   0  0  0  0  0  0  0  0  0  0  0  0
    0.0512    1.2128    0.8069 H   0  0  0  0  0  0  0  0  0  0  0  0
    2.4897   -0.8758   -0.6713 H   0  0  0  0  0  0  0  0  0  0  0  0
    1.0418   -0.0202   -0.4276 H   0  0  0  0  0  0  0  0  0  0  0  0
  1  8  1  0
  1  9  1  0
  2  4  1  0
  3  4  2  3
  3  6  1  0
  3  7  1  0
  4  5  1  0
M  RAD  1   2   2
M  END
>  <reaction>  (17) 
rxn_327

>  <mol_properties>  (17) 
{"0": {"label": "*3", "atom_type": "O2s"}, "1": {"label": "*4", "atom_type": "H0"}, "2": {"label": "*1", "atom_type": "Cs"}, "3": {"label": "*0", "atom_type": "CO"}, "5": {"label": "*2", "atom_type": "H0"}}

>  <type>  (17) 
unop_13

>  <geom_source>  (17) 
AutoTST

$$$$
