
     RDKit          3D

 15 14  0  0  0  0  0  0  0  0999 V2000
    2.1256    0.4849   -0.6284 C   0  0  0  0  0  0  0  0  0  0  0  0
    1.1128    0.2141    0.1794 C   0  0  0  0  0  0  0  0  0  0  0  0
   -0.3017   -0.0425   -0.2513 C   0  0  0  0  0  0  0  0  0  0  0  0
   -1.2427    1.0075    0.3423 C   0  0  0  0  0  0  0  0  0  0  0  0
   -0.7381   -1.4526    0.1504 C   0  0  0  0  0  0  0  0  0  0  0  0
    3.1243    0.6602   -0.2486 H   0  0  0  0  0  0  0  0  0  0  0  0
    1.9908    0.5411   -1.7036 H   0  0  0  0  0  0  0  0  0  0  0  0
    1.2888    0.1665    1.2533 H   0  0  0  0  0  0  0  0  0  0  0  0
   -0.3426    0.0343   -1.3424 H   0  0  0  0  0  0  0  0  0  0  0  0
   -0.9570    2.0133    0.0315 H   0  0  0  0  0  0  0  0  0  0  0  0
   -1.2189    0.9728    1.4350 H   0  0  0  0  0  0  0  0  0  0  0  0
   -2.2723    0.8287    0.0254 H   0  0  0  0  0  0  0  0  0  0  0  0
   -0.6964   -1.5744    1.2363 H   0  0  0  0  0  0  0  0  0  0  0  0
   -0.0911   -2.2079   -0.2978 H   0  0  0  0  0  0  0  0  0  0  0  0
   -1.7646   -1.6461   -0.1677 H   0  0  0  0  0  0  0  0  0  0  0  0
  1  2  2  3
  1  6  1  0
  1  7  1  0
  2  3  1  0
  2  8  1  0
  3  4  1  0
  3  5  1  0
  3  9  1  0
  4 10  1  0
  4 11  1  0
  4 12  1  0
  5 13  1  0
  5 14  1  0
  5 15  1  0
M  END
>  <reaction>  (1) 
rxn_1091

>  <mol_properties>  (1) 
{"2": {"label": "donator", "atom_type": "Cs"}, "8": {"label": "d_hydrogen", "atom_type": "H0"}}

>  <type>  (1) 
r1h

$$$$

     RDKit          3D

  9  8  0  0  0  0  0  0  0  0999 V2000
    2.3038   -0.0269    0.1590 C   0  0  0  0  0  0  0  0  0  0  0  0
    1.1426    0.1377   -0.1648 C   0  0  0  0  0  0  0  0  0  0  0  0
   -0.1694    0.3175   -0.5203 C   0  0  0  0  0  3  0  0  0  0  0  0
   -1.3163   -0.1910    0.2856 C   0  0  0  0  0  0  0  0  0  0  0  0
    3.3199   -0.1683    0.4378 H   0  0  0  0  0  0  0  0  0  0  0  0
   -0.3786    0.8584   -1.4360 H   0  0  0  0  0  0  0  0  0  0  0  0
   -1.9694    0.6309    0.5951 H   0  0  0  0  0  0  0  0  0  0  0  0
   -1.9325   -0.8770   -0.3039 H   0  0  0  0  0  0  0  0  0  0  0  0
   -0.9753   -0.7144    1.1774 H   0  0  0  0  0  0  0  0  0  0  0  0
  1  2  3  0
  1  5  1  0
  2  3  1  0
  3  4  1  0
  3  6  1  0
  4  7  1  0
  4  8  1  0
  4  9  1  0
M  RAD  1   3   2
M  END
>  <reaction>  (2) 
rxn_1091

>  <mol_properties>  (2) 
{"2": {"label": "acceptor", "atom_type": "Cs"}}

>  <type>  (2) 
r2

$$$$

     RDKit          3D

 10  9  0  0  0  0  0  0  0  0999 V2000
    2.2738    0.0217   -0.0992 C   0  0  0  0  0  0  0  0  0  0  0  0
    1.1083    0.2960   -0.0695 C   0  0  0  0  0  0  0  0  0  0  0  0
   -0.3173    0.6046   -0.0227 C   0  0  0  0  0  0  0  0  0  0  0  0
   -1.1561   -0.5495    0.5292 C   0  0  0  0  0  0  0  0  0  0  0  0
    3.3097   -0.2166   -0.1277 H   0  0  0  0  0  0  0  0  0  0  0  0
   -0.6542    0.8617   -1.0302 H   0  0  0  0  0  0  0  0  0  0  0  0
   -0.4633    1.4978    0.5900 H   0  0  0  0  0  0  0  0  0  0  0  0
   -0.8485   -0.7997    1.5447 H   0  0  0  0  0  0  0  0  0  0  0  0
   -2.2115   -0.2752    0.5459 H   0  0  0  0  0  0  0  0  0  0  0  0
   -1.0409   -1.4407   -0.0879 H   0  0  0  0  0  0  0  0  0  0  0  0
  1  2  3  0
  1  5  1  0
  2  3  1  0
  3  4  1  0
  3  6  1  0
  3  7  1  0
  4  8  1  0
  4  9  1  0
  4 10  1  0
M  END
>  <reaction>  (3) 
rxn_1091

>  <mol_properties>  (3) 
{"2": {"label": "acceptor", "atom_type": "Cs"}, "9": {"label": "a_hydrogen", "atom_type": "H0"}}

>  <type>  (3) 
r2h

$$$$

     RDKit          3D

 24 22  0  0  0  0  0  0  0  0999 V2000
   -0.4668    3.0243    1.2542 C   0  0  0  0  0  0  0  0  0  0  0  0
   -0.3399    2.2864    0.3105 C   0  0  0  0  0  0  0  0  0  0  0  0
   -0.1704    1.3614   -0.7531 C   0  0  0  0  0  3  0  0  0  0  0  0
    1.1584    1.3431   -1.4708 C   0  0  0  0  0  0  0  0  0  0  0  0
   -0.5839    3.6939    2.0716 H   0  0  0  0  0  0  0  0  0  0  0  0
   -1.0389    1.2850   -1.4056 H   0  0  0  0  0  0  0  0  0  0  0  0
    1.2438    0.4438   -2.0829 H   0  0  0  0  0  0  0  0  0  0  0  0
    1.2694    2.2131   -2.1233 H   0  0  0  0  0  0  0  0  0  0  0  0
    1.9826    1.3538   -0.7569 H   0  0  0  0  0  0  0  0  0  0  0  0
    1.0366   -2.6874   -0.9573 C   0  0  0  0  0  0  0  0  0  0  0  0
   -0.0648   -2.0334   -0.5850 C   0  0  0  0  0  0  0  0  0  0  0  0
   -0.1786   -1.0323    0.4810 C   0  0  0  0  0  0  0  0  0  0  0  0
    1.0131   -0.8421    1.3876 C   0  0  0  0  0  0  0  0  0  0  0  0
   -1.5107   -1.0104    1.1992 C   0  0  0  0  0  0  0  0  0  0  0  0
    1.0148   -3.3892   -1.7808 H   0  0  0  0  0  0  0  0  0  0  0  0
    1.9856   -2.5563   -0.4521 H   0  0  0  0  0  0  0  0  0  0  0  0
   -0.9841   -2.2278   -1.1334 H   0  0  0  0  0  0  0  0  0  0  0  0
   -0.2168    0.1094   -0.1627 H   0  0  0  0  0  0  0  0  0  0  0  0
    1.9336   -0.6905    0.8220 H   0  0  0  0  0  0  0  0  0  0  0  0
    1.1559   -1.7147    2.0331 H   0  0  0  0  0  0  0  0  0  0  0  0
    0.8654    0.0312    2.0251 H   0  0  0  0  0  0  0  0  0  0  0  0
   -1.5865   -1.8449    1.9038 H   0  0  0  0  0  0  0  0  0  0  0  0
   -2.3426   -1.0900    0.4967 H   0  0  0  0  0  0  0  0  0  0  0  0
   -1.6284   -0.0828    1.7630 H   0  0  0  0  0  0  0  0  0  0  0  0
  1  2  3  0
  1  5  1  0
  2  3  1  0
  3  4  1  0
  3  6  1  0
  4  7  1  0
  4  8  1  0
  4  9  1  0
 10 11  2  3
 10 15  1  0
 10 16  1  0
 11 12  1  0
 11 17  1  0
 12 13  1  0
 12 14  1  0
 12 18  1  0
 13 19  1  0
 13 20  1  0
 13 21  1  0
 14 22  1  0
 14 23  1  0
 14 24  1  0
M  RAD  1   3   2
M  END
>  <reaction>  (4) 
rxn_1091

>  <mol_properties>  (4) 
{"1": {"label": "*4", "atom_type": "Ct"}, "2": {"label": "*3", "atom_type": "Cs"}, "10": {"label": "*0", "atom_type": "Cd"}, "11": {"label": "*1", "atom_type": "Cs"}, "17": {"label": "*2", "atom_type": "H0"}}

>  <type>  (4) 
ts

$$$$

     RDKit          3D

 24 22  0  0  0  0  0  0  0  0999 V2000
   -1.9645    2.6292   -0.4350 C   0  0  0  0  0  0  0  0  0  0  0  0
   -0.9932    1.9728   -0.6803 C   0  0  0  0  0  0  0  0  0  0  0  0
    0.2037    1.1851   -0.9575 C   0  0  0  0  0  0  0  0  0  0  0  0
    1.3465    1.4803    0.0157 C   0  0  0  0  0  0  0  0  0  0  0  0
   -2.8268    3.2120   -0.2172 H   0  0  0  0  0  0  0  0  0  0  0  0
    0.5259    1.3850   -1.9825 H   0  0  0  0  0  0  0  0  0  0  0  0
    2.2175    0.8712   -0.2286 H   0  0  0  0  0  0  0  0  0  0  0  0
    1.6349    2.5304   -0.0341 H   0  0  0  0  0  0  0  0  0  0  0  0
    1.0478    1.2602    1.0407 H   0  0  0  0  0  0  0  0  0  0  0  0
    0.2037   -2.1476   -1.5933 C   0  0  0  0  0  0  0  0  0  0  0  0
    0.2037   -2.1476   -0.2698 C   0  0  0  0  0  0  0  0  0  0  0  0
    0.2037   -0.9262    0.6022 C   0  0  0  0  0  3  0  0  0  0  0  0
    1.4630   -0.8858    1.4699 C   0  0  0  0  0  0  0  0  0  0  0  0
   -1.0556   -0.8858    1.4699 C   0  0  0  0  0  0  0  0  0  0  0  0
    0.2037   -3.0693   -2.1616 H   0  0  0  0  0  0  0  0  0  0  0  0
    0.2037   -1.2210   -2.1579 H   0  0  0  0  0  0  0  0  0  0  0  0
    0.2037   -3.0989    0.2607 H   0  0  0  0  0  0  0  0  0  0  0  0
    0.2037    0.1302   -0.1782 H   0  0  0  0  0  0  0  0  0  0  0  0
    2.3645   -0.8799    0.8557 H   0  0  0  0  0  0  0  0  0  0  0  0
    1.5076   -1.7596    2.1257 H   0  0  0  0  0  0  0  0  0  0  0  0
    1.4705    0.0054    2.1009 H   0  0  0  0  0  0  0  0  0  0  0  0
   -1.1002   -1.7596    2.1257 H   0  0  0  0  0  0  0  0  0  0  0  0
   -1.9572   -0.8799    0.8557 H   0  0  0  0  0  0  0  0  0  0  0  0
   -1.0632    0.0054    2.1009 H   0  0  0  0  0  0  0  0  0  0  0  0
  1  2  3  0
  1  5  1  0
  2  3  1  0
  3  4  1  0
  3  6  1  0
  3 18  1  0
  4  7  1  0
  4  8  1  0
  4  9  1  0
 10 11  2  3
 10 15  1  0
 10 16  1  0
 11 12  1  0
 11 17  1  0
 12 13  1  0
 12 14  1  0
 13 19  1  0
 13 20  1  0
 13 21  1  0
 14 22  1  0
 14 23  1  0
 14 24  1  0
M  RAD  1  12   2
M  END
>  <reaction>  (5) 
rxn_1091

>  <mol_properties>  (5) 
{"1": {"label": "*4", "atom_type": "Ct"}, "2": {"label": "*3", "atom_type": "Cs"}, "10": {"label": "*0", "atom_type": "Cd"}, "11": {"label": "*1", "atom_type": "Cs"}, "17": {"label": "*2", "atom_type": "H0"}}

>  <type>  (5) 
unop_1

>  <geom_source>  (5) 
Heuristics

$$$$

     RDKit          3D

 24 22  0  0  0  0  0  0  0  0999 V2000
   -0.9689    0.8454   -2.7618 C   0  0  0  0  0  0  0  0  0  0  0  0
   -0.3833    1.1077   -1.7505 C   0  0  0  0  0  0  0  0  0  0  0  0
    0.3077    1.4418   -0.5092 C   0  0  0  0  0  0  0  0  0  0  0  0
   -0.5415    2.3008    0.4296 C   0  0  0  0  0  0  0  0  0  0  0  0
   -1.4887    0.6126   -3.6597 H   0  0  0  0  0  0  0  0  0  0  0  0
    1.2364    1.9634   -0.7538 H   0  0  0  0  0  0  0  0  0  0  0  0
    0.0132    2.5254    1.3414 H   0  0  0  0  0  0  0  0  0  0  0  0
   -0.8148    3.2415   -0.0487 H   0  0  0  0  0  0  0  0  0  0  0  0
   -1.4600    1.7816    0.7035 H   0  0  0  0  0  0  0  0  0  0  0  0
    0.3077   -1.8909   -1.1450 C   0  0  0  0  0  0  0  0  0  0  0  0
    0.3077   -1.8909    0.1785 C   0  0  0  0  0  0  0  0  0  0  0  0
    0.3077   -0.6695    1.0505 C   0  0  0  0  0  3  0  0  0  0  0  0
    1.5670   -0.6291    1.9182 C   0  0  0  0  0  0  0  0  0  0  0  0
   -0.9516   -0.6291    1.9182 C   0  0  0  0  0  0  0  0  0  0  0  0
    0.3077   -2.8126   -1.7133 H   0  0  0  0  0  0  0  0  0  0  0  0
    0.3077   -0.9643   -1.7096 H   0  0  0  0  0  0  0  0  0  0  0  0
    0.3077   -2.8422    0.7091 H   0  0  0  0  0  0  0  0  0  0  0  0
    0.3077    0.3869    0.2701 H   0  0  0  0  0  0  0  0  0  0  0  0
    2.4686   -0.6232    1.3040 H   0  0  0  0  0  0  0  0  0  0  0  0
    1.6116   -1.5029    2.5740 H   0  0  0  0  0  0  0  0  0  0  0  0
    1.5746    0.2621    2.5492 H   0  0  0  0  0  0  0  0  0  0  0  0
   -0.9962   -1.5029    2.5740 H   0  0  0  0  0  0  0  0  0  0  0  0
   -1.8531   -0.6232    1.3040 H   0  0  0  0  0  0  0  0  0  0  0  0
   -0.9591    0.2621    2.5492 H   0  0  0  0  0  0  0  0  0  0  0  0
  1  2  3  0
  1  5  1  0
  2  3  1  0
  3  4  1  0
  3  6  1  0
  3 18  1  0
  4  7  1  0
  4  8  1  0
  4  9  1  0
 10 11  2  3
 10 15  1  0
 10 16  1  0
 11 12  1  0
 11 17  1  0
 12 13  1  0
 12 14  1  0
 13 19  1  0
 13 20  1  0
 13 21  1  0
 14 22  1  0
 14 23  1  0
 14 24  1  0
M  RAD  1  12   2
M  END
>  <reaction>  (6) 
rxn_1091

>  <mol_properties>  (6) 
{"1": {"label": "*4", "atom_type": "Ct"}, "2": {"label": "*3", "atom_type": "Cs"}, "10": {"label": "*0", "atom_type": "Cd"}, "11": {"label": "*1", "atom_type": "Cs"}, "17": {"label": "*2", "atom_type": "H0"}}

>  <type>  (6) 
unop_2

>  <geom_source>  (6) 
Heuristics

$$$$

     RDKit          3D

 24 22  0  0  0  0  0  0  0  0999 V2000
   -1.2281    3.1189    0.2766 C   0  0  0  0  0  0  0  0  0  0  0  0
   -0.6814    2.2179   -0.2924 C   0  0  0  0  0  0  0  0  0  0  0  0
    0.0097    1.1296   -0.9765 C   0  0  0  0  0  0  0  0  0  0  0  0
    1.5264    1.1754   -0.7824 C   0  0  0  0  0  0  0  0  0  0  0  0
   -1.7134    3.9188    0.7818 H   0  0  0  0  0  0  0  0  0  0  0  0
   -0.2313    1.1753   -2.0416 H   0  0  0  0  0  0  0  0  0  0  0  0
    1.9999    0.3462   -1.3093 H   0  0  0  0  0  0  0  0  0  0  0  0
    1.9373    2.1087   -1.1676 H   0  0  0  0  0  0  0  0  0  0  0  0
    1.7830    1.1041    0.2747 H   0  0  0  0  0  0  0  0  0  0  0  0
    0.0097   -2.2030   -1.6123 C   0  0  0  0  0  0  0  0  0  0  0  0
    0.0097   -2.2030   -0.2888 C   0  0  0  0  0  0  0  0  0  0  0  0
    0.0097   -0.9816    0.5832 C   0  0  0  0  0  3  0  0  0  0  0  0
    1.2690   -0.9412    1.4508 C   0  0  0  0  0  0  0  0  0  0  0  0
   -1.2497   -0.9412    1.4508 C   0  0  0  0  0  0  0  0  0  0  0  0
    0.0097   -3.1247   -2.1806 H   0  0  0  0  0  0  0  0  0  0  0  0
    0.0097   -1.2765   -2.1769 H   0  0  0  0  0  0  0  0  0  0  0  0
    0.0097   -3.1543    0.2417 H   0  0  0  0  0  0  0  0  0  0  0  0
    0.0097    0.0748   -0.1973 H   0  0  0  0  0  0  0  0  0  0  0  0
    2.1705   -0.9353    0.8367 H   0  0  0  0  0  0  0  0  0  0  0  0
    1.3135   -1.8150    2.1066 H   0  0  0  0  0  0  0  0  0  0  0  0
    1.2765   -0.0500    2.0818 H   0  0  0  0  0  0  0  0  0  0  0  0
   -1.2942   -1.8150    2.1066 H   0  0  0  0  0  0  0  0  0  0  0  0
   -2.1512   -0.9353    0.8367 H   0  0  0  0  0  0  0  0  0  0  0  0
   -1.2572   -0.0500    2.0818 H   0  0  0  0  0  0  0  0  0  0  0  0
  1  2  3  0
  1  5  1  0
  2  3  1  0
  3  4  1  0
  3  6  1  0
  3 18  1  0
  4  7  1  0
  4  8  1  0
  4  9  1  0
 10 11  2  3
 10 15  1  0
 10 16  1  0
 11 12  1  0
 11 17  1  0
 12 13  1  0
 12 14  1  0
 13 19  1  0
 13 20  1  0
 13 21  1  0
 14 22  1  0
 14 23  1  0
 14 24  1  0
M  RAD  1  12   2
M  END
>  <reaction>  (7) 
rxn_1091

>  <mol_properties>  (7) 
{"1": {"label": "*4", "atom_type": "Ct"}, "2": {"label": "*3", "atom_type": "Cs"}, "10": {"label": "*0", "atom_type": "Cd"}, "11": {"label": "*1", "atom_type": "Cs"}, "17": {"label": "*2", "atom_type": "H0"}}

>  <type>  (7) 
unop_3

>  <geom_source>  (7) 
Heuristics

$$$$

     RDKit          3D

 24 22  0  0  0  0  0  0  0  0999 V2000
    1.9605    1.3151   -1.9693 C   0  0  0  0  0  0  0  0  0  0  0  0
    0.9893    1.3300   -1.2686 C   0  0  0  0  0  0  0  0  0  0  0  0
   -0.2076    1.3635   -0.4342 C   0  0  0  0  0  0  0  0  0  0  0  0
   -1.3563    2.1438   -1.0761 C   0  0  0  0  0  0  0  0  0  0  0  0
    2.8227    1.3019   -2.5915 H   0  0  0  0  0  0  0  0  0  0  0  0
    0.0498    1.8060    0.5314 H   0  0  0  0  0  0  0  0  0  0  0  0
   -2.2271    2.1425   -0.4195 H   0  0  0  0  0  0  0  0  0  0  0  0
   -1.0652    3.1779   -1.2611 H   0  0  0  0  0  0  0  0  0  0  0  0
   -1.6418    1.6975   -2.0288 H   0  0  0  0  0  0  0  0  0  0  0  0
   -0.2076   -1.9691   -1.0700 C   0  0  0  0  0  0  0  0  0  0  0  0
   -0.2076   -1.9691    0.2535 C   0  0  0  0  0  0  0  0  0  0  0  0
   -0.2076   -0.7477    1.1255 C   0  0  0  0  0  3  0  0  0  0  0  0
    1.0517   -0.7073    1.9932 C   0  0  0  0  0  0  0  0  0  0  0  0
   -1.4670   -0.7073    1.9932 C   0  0  0  0  0  0  0  0  0  0  0  0
   -0.2076   -2.8908   -1.6383 H   0  0  0  0  0  0  0  0  0  0  0  0
   -0.2076   -1.0426   -1.6346 H   0  0  0  0  0  0  0  0  0  0  0  0
   -0.2076   -2.9204    0.7840 H   0  0  0  0  0  0  0  0  0  0  0  0
   -0.2076    0.3087    0.3451 H   0  0  0  0  0  0  0  0  0  0  0  0
    1.9532   -0.7014    1.3790 H   0  0  0  0  0  0  0  0  0  0  0  0
    1.0962   -1.5811    2.6490 H   0  0  0  0  0  0  0  0  0  0  0  0
    1.0592    0.1839    2.6242 H   0  0  0  0  0  0  0  0  0  0  0  0
   -1.5115   -1.5811    2.6490 H   0  0  0  0  0  0  0  0  0  0  0  0
   -2.3685   -0.7014    1.3790 H   0  0  0  0  0  0  0  0  0  0  0  0
   -1.4745    0.1839    2.6242 H   0  0  0  0  0  0  0  0  0  0  0  0
  1  2  3  0
  1  5  1  0
  2  3  1  0
  3  4  1  0
  3  6  1  0
  3 18  1  0
  4  7  1  0
  4  8  1  0
  4  9  1  0
 10 11  2  3
 10 15  1  0
 10 16  1  0
 11 12  1  0
 11 17  1  0
 12 13  1  0
 12 14  1  0
 13 19  1  0
 13 20  1  0
 13 21  1  0
 14 22  1  0
 14 23  1  0
 14 24  1  0
M  RAD  1  12   2
M  END
>  <reaction>  (8) 
rxn_1091

>  <mol_properties>  (8) 
{"1": {"label": "*4", "atom_type": "Ct"}, "2": {"label": "*3", "atom_type": "Cs"}, "10": {"label": "*0", "atom_type": "Cd"}, "11": {"label": "*1", "atom_type": "Cs"}, "17": {"label": "*2", "atom_type": "H0"}}

>  <type>  (8) 
unop_4

>  <geom_source>  (8) 
Heuristics

$$$$

     RDKit          3D

 24 22  0  0  0  0  0  0  0  0999 V2000
   -0.1279    3.2997    0.6312 C   0  0  0  0  0  0  0  0  0  0  0  0
   -0.1475    2.3094   -0.0422 C   0  0  0  0  0  0  0  0  0  0  0  0
   -0.1475    1.1111   -0.8752 C   0  0  0  0  0  0  0  0  0  0  0  0
    1.0454    1.0535   -1.8312 C   0  0  0  0  0  0  0  0  0  0  0  0
   -0.1105    4.1789    1.2290 H   0  0  0  0  0  0  0  0  0  0  0  0
   -1.0813    1.0775   -1.4420 H   0  0  0  0  0  0  0  0  0  0  0  0
    1.0045    0.1441   -2.4319 H   0  0  0  0  0  0  0  0  0  0  0  0
    1.0437    1.9116   -2.5036 H   0  0  0  0  0  0  0  0  0  0  0  0
    1.9847    1.0596   -1.2780 H   0  0  0  0  0  0  0  0  0  0  0  0
   -0.1475   -2.2215   -1.5110 C   0  0  0  0  0  0  0  0  0  0  0  0
   -0.1475   -2.2215   -0.1875 C   0  0  0  0  0  0  0  0  0  0  0  0
   -0.1475   -1.0001    0.6845 C   0  0  0  0  0  3  0  0  0  0  0  0
    1.1118   -0.9597    1.5522 C   0  0  0  0  0  0  0  0  0  0  0  0
   -1.4068   -0.9597    1.5522 C   0  0  0  0  0  0  0  0  0  0  0  0
   -0.1475   -3.1432   -2.0793 H   0  0  0  0  0  0  0  0  0  0  0  0
   -0.1475   -1.2950   -2.0756 H   0  0  0  0  0  0  0  0  0  0  0  0
   -0.1475   -3.1728    0.3430 H   0  0  0  0  0  0  0  0  0  0  0  0
   -0.1475    0.0562   -0.0959 H   0  0  0  0  0  0  0  0  0  0  0  0
    2.0134   -0.9538    0.9380 H   0  0  0  0  0  0  0  0  0  0  0  0
    1.1564   -1.8335    2.2080 H   0  0  0  0  0  0  0  0  0  0  0  0
    1.1194   -0.0685    2.1832 H   0  0  0  0  0  0  0  0  0  0  0  0
   -1.4514   -1.8335    2.2080 H   0  0  0  0  0  0  0  0  0  0  0  0
   -2.3083   -0.9538    0.9380 H   0  0  0  0  0  0  0  0  0  0  0  0
   -1.4143   -0.0685    2.1832 H   0  0  0  0  0  0  0  0  0  0  0  0
  1  2  3  0
  1  5  1  0
  2  3  1  0
  3  4  1  0
  3  6  1  0
  3 18  1  0
  4  7  1  0
  4  8  1  0
  4  9  1  0
 10 11  2  3
 10 15  1  0
 10 16  1  0
 11 12  1  0
 11 17  1  0
 12 13  1  0
 12 14  1  0
 13 19  1  0
 13 20  1  0
 13 21  1  0
 14 22  1  0
 14 23  1  0
 14 24  1  0
M  RAD  1  12   2
M  END
>  <reaction>  (9) 
rxn_1091

>  <mol_properties>  (9) 
{"1": {"label": "*4", "atom_type": "Ct"}, "2": {"label": "*3", "atom_type": "Cs"}, "10": {"label": "*0", "atom_type": "Cd"}, "11": {"label": "*1", "atom_type": "Cs"}, "17": {"label": "*2", "atom_type": "H0"}}

>  <type>  (9) 
unop_5

>  <geom_source>  (9) 
Heuristics

$$$$

     RDKit          3D

 24 22  0  0  0  0  0  0  0  0999 V2000
    2.2301    1.9661   -1.0777 C   0  0  0  0  0  0  0  0  0  0  0  0
    1.1031    1.6444   -0.8307 C   0  0  0  0  0  0  0  0  0  0  0  0
   -0.2790    1.2673   -0.5521 C   0  0  0  0  0  0  0  0  0  0  0  0
   -1.2690    1.8583   -1.5575 C   0  0  0  0  0  0  0  0  0  0  0  0
    3.2306    2.2516   -1.2969 H   0  0  0  0  0  0  0  0  0  0  0  0
   -0.5350    1.5937    0.4590 H   0  0  0  0  0  0  0  0  0  0  0  0
   -2.2861    1.5512   -1.3111 H   0  0  0  0  0  0  0  0  0  0  0  0
   -1.2256    2.9475   -1.5481 H   0  0  0  0  0  0  0  0  0  0  0  0
   -1.0417    1.5197   -2.5684 H   0  0  0  0  0  0  0  0  0  0  0  0
   -0.2790   -2.0653   -1.1879 C   0  0  0  0  0  0  0  0  0  0  0  0
   -0.2790   -2.0653    0.1356 C   0  0  0  0  0  0  0  0  0  0  0  0
   -0.2790   -0.8439    1.0076 C   0  0  0  0  0  3  0  0  0  0  0  0
    0.9803   -0.8035    1.8753 C   0  0  0  0  0  0  0  0  0  0  0  0
   -1.5383   -0.8035    1.8753 C   0  0  0  0  0  0  0  0  0  0  0  0
   -0.2790   -2.9870   -1.7562 H   0  0  0  0  0  0  0  0  0  0  0  0
   -0.2790   -1.1388   -1.7525 H   0  0  0  0  0  0  0  0  0  0  0  0
   -0.2790   -3.0166    0.6661 H   0  0  0  0  0  0  0  0  0  0  0  0
   -0.2790    0.2125    0.2272 H   0  0  0  0  0  0  0  0  0  0  0  0
    1.8819   -0.7976    1.2611 H   0  0  0  0  0  0  0  0  0  0  0  0
    1.0249   -1.6773    2.5311 H   0  0  0  0  0  0  0  0  0  0  0  0
    0.9879    0.0877    2.5063 H   0  0  0  0  0  0  0  0  0  0  0  0
   -1.5829   -1.6773    2.5311 H   0  0  0  0  0  0  0  0  0  0  0  0
   -2.4398   -0.7976    1.2611 H   0  0  0  0  0  0  0  0  0  0  0  0
   -1.5458    0.0877    2.5063 H   0  0  0  0  0  0  0  0  0  0  0  0
  1  2  3  0
  1  5  1  0
  2  3  1  0
  3  4  1  0
  3  6  1  0
  3 18  1  0
  4  7  1  0
  4  8  1  0
  4  9  1  0
 10 11  2  3
 10 15  1  0
 10 16  1  0
 11 12  1  0
 11 17  1  0
 12 13  1  0
 12 14  1  0
 13 19  1  0
 13 20  1  0
 13 21  1  0
 14 22  1  0
 14 23  1  0
 14 24  1  0
M  RAD  1  12   2
M  END
>  <reaction>  (10) 
rxn_1091

>  <mol_properties>  (10) 
{"1": {"label": "*4", "atom_type": "Ct"}, "2": {"label": "*3", "atom_type": "Cs"}, "10": {"label": "*0", "atom_type": "Cd"}, "11": {"label": "*1", "atom_type": "Cs"}, "17": {"label": "*2", "atom_type": "H0"}}

>  <type>  (10) 
unop_6

>  <geom_source>  (10) 
Heuristics

$$$$

     RDKit          3D

 24 22  0  0  0  0  0  0  0  0999 V2000
    1.9092    2.6254   -0.1853 C   0  0  0  0  0  0  0  0  0  0  0  0
    0.9294    1.9684   -0.3924 C   0  0  0  0  0  0  0  0  0  0  0  0
   -0.2675    1.1807   -0.6696 C   0  0  0  0  0  0  0  0  0  0  0  0
   -0.8941    1.5113   -2.0254 C   0  0  0  0  0  0  0  0  0  0  0  0
    2.7790    3.2087   -0.0015 H   0  0  0  0  0  0  0  0  0  0  0  0
   -0.9938    1.3529    0.1286 H   0  0  0  0  0  0  0  0  0  0  0  0
   -1.7828    0.9009   -2.1897 H   0  0  0  0  0  0  0  0  0  0  0  0
   -1.1832    2.5614   -2.0718 H   0  0  0  0  0  0  0  0  0  0  0  0
   -0.1890    1.3190   -2.8343 H   0  0  0  0  0  0  0  0  0  0  0  0
   -0.2675   -2.1520   -1.3054 C   0  0  0  0  0  0  0  0  0  0  0  0
   -0.2675   -2.1520    0.0181 C   0  0  0  0  0  0  0  0  0  0  0  0
   -0.2675   -0.9306    0.8901 C   0  0  0  0  0  3  0  0  0  0  0  0
    0.9918   -0.8901    1.7578 C   0  0  0  0  0  0  0  0  0  0  0  0
   -1.5268   -0.8901    1.7578 C   0  0  0  0  0  0  0  0  0  0  0  0
   -0.2675   -3.0737   -1.8737 H   0  0  0  0  0  0  0  0  0  0  0  0
   -0.2675   -1.2254   -1.8700 H   0  0  0  0  0  0  0  0  0  0  0  0
   -0.2675   -3.1033    0.5486 H   0  0  0  0  0  0  0  0  0  0  0  0
   -0.2675    0.1258    0.1097 H   0  0  0  0  0  0  0  0  0  0  0  0
    1.8934   -0.8842    1.1436 H   0  0  0  0  0  0  0  0  0  0  0  0
    1.0364   -1.7640    2.4136 H   0  0  0  0  0  0  0  0  0  0  0  0
    0.9994    0.0011    2.3888 H   0  0  0  0  0  0  0  0  0  0  0  0
   -1.5714   -1.7640    2.4136 H   0  0  0  0  0  0  0  0  0  0  0  0
   -2.4283   -0.8842    1.1436 H   0  0  0  0  0  0  0  0  0  0  0  0
   -1.5343    0.0011    2.3888 H   0  0  0  0  0  0  0  0  0  0  0  0
  1  2  3  0
  1  5  1  0
  2  3  1  0
  3  4  1  0
  3  6  1  0
  3 18  1  0
  4  7  1  0
  4  8  1  0
  4  9  1  0
 10 11  2  3
 10 15  1  0
 10 16  1  0
 11 12  1  0
 11 17  1  0
 12 13  1  0
 12 14  1  0
 13 19  1  0
 13 20  1  0
 13 21  1  0
 14 22  1  0
 14 23  1  0
 14 24  1  0
M  RAD  1  12   2
M  END
>  <reaction>  (11) 
rxn_1091

>  <mol_properties>  (11) 
{"1": {"label": "*4", "atom_type": "Ct"}, "2": {"label": "*3", "atom_type": "Cs"}, "10": {"label": "*0", "atom_type": "Cd"}, "11": {"label": "*1", "atom_type": "Cs"}, "17": {"label": "*2", "atom_type": "H0"}}

>  <type>  (11) 
unop_7

>  <geom_source>  (11) 
Heuristics

$$$$

     RDKit          3D

 24 22  0  0  0  0  0  0  0  0999 V2000
   -2.1785    1.9699   -1.3281 C   0  0  0  0  0  0  0  0  0  0  0  0
   -1.0437    1.6488   -1.1196 C   0  0  0  0  0  0  0  0  0  0  0  0
    0.3384    1.2717   -0.8410 C   0  0  0  0  0  0  0  0  0  0  0  0
    0.8478    1.8272    0.4903 C   0  0  0  0  0  0  0  0  0  0  0  0
   -3.1861    2.2549   -1.5133 H   0  0  0  0  0  0  0  0  0  0  0  0
    0.9707    1.6259   -1.6590 H   0  0  0  0  0  0  0  0  0  0  0  0
    1.8814    1.5214    0.6565 H   0  0  0  0  0  0  0  0  0  0  0  0
    0.8050    2.9165    0.4962 H   0  0  0  0  0  0  0  0  0  0  0  0
    0.2420    1.4607    1.3191 H   0  0  0  0  0  0  0  0  0  0  0  0
    0.3384   -2.0609   -1.4768 C   0  0  0  0  0  0  0  0  0  0  0  0
    0.3384   -2.0609   -0.1533 C   0  0  0  0  0  0  0  0  0  0  0  0
    0.3384   -0.8395    0.7187 C   0  0  0  0  0  3  0  0  0  0  0  0
    1.5977   -0.7991    1.5864 C   0  0  0  0  0  0  0  0  0  0  0  0
   -0.9209   -0.7991    1.5864 C   0  0  0  0  0  0  0  0  0  0  0  0
    0.3384   -2.9826   -2.0450 H   0  0  0  0  0  0  0  0  0  0  0  0
    0.3384   -1.1344   -2.0413 H   0  0  0  0  0  0  0  0  0  0  0  0
    0.3384   -3.0122    0.3773 H   0  0  0  0  0  0  0  0  0  0  0  0
    0.3384    0.2169   -0.0617 H   0  0  0  0  0  0  0  0  0  0  0  0
    2.4992   -0.7932    0.9722 H   0  0  0  0  0  0  0  0  0  0  0  0
    1.6423   -1.6729    2.2422 H   0  0  0  0  0  0  0  0  0  0  0  0
    1.6052    0.0921    2.2174 H   0  0  0  0  0  0  0  0  0  0  0  0
   -0.9655   -1.6729    2.2422 H   0  0  0  0  0  0  0  0  0  0  0  0
   -1.8225   -0.7932    0.9722 H   0  0  0  0  0  0  0  0  0  0  0  0
   -0.9284    0.0921    2.2174 H   0  0  0  0  0  0  0  0  0  0  0  0
  1  2  3  0
  1  5  1  0
  2  3  1  0
  3  4  1  0
  3  6  1  0
  3 18  1  0
  4  7  1  0
  4  8  1  0
  4  9  1  0
 10 11  2  3
 10 15  1  0
 10 16  1  0
 11 12  1  0
 11 17  1  0
 12 13  1  0
 12 14  1  0
 13 19  1  0
 13 20  1  0
 13 21  1  0
 14 22  1  0
 14 23  1  0
 14 24  1  0
M  RAD  1  12   2
M  END
>  <reaction>  (12) 
rxn_1091

>  <mol_properties>  (12) 
{"1": {"label": "*4", "atom_type": "Ct"}, "2": {"label": "*3", "atom_type": "Cs"}, "10": {"label": "*0", "atom_type": "Cd"}, "11": {"label": "*1", "atom_type": "Cs"}, "17": {"label": "*2", "atom_type": "H0"}}

>  <type>  (12) 
unop_8

>  <geom_source>  (12) 
Heuristics

$$$$

     RDKit          3D

 24 22  0  0  0  0  0  0  0  0999 V2000
    1.1921    0.8435   -2.6370 C   0  0  0  0  0  0  0  0  0  0  0  0
    0.6408    1.1055   -1.6065 C   0  0  0  0  0  0  0  0  0  0  0  0
   -0.0503    1.4396   -0.3653 C   0  0  0  0  0  0  0  0  0  0  0  0
   -1.2835    2.3162   -0.5906 C   0  0  0  0  0  0  0  0  0  0  0  0
    1.6816    0.6109   -3.5519 H   0  0  0  0  0  0  0  0  0  0  0  0
    0.6512    1.9474    0.3014 H   0  0  0  0  0  0  0  0  0  0  0  0
   -1.7668    2.5402    0.3611 H   0  0  0  0  0  0  0  0  0  0  0  0
   -1.0072    3.2569   -1.0671 H   0  0  0  0  0  0  0  0  0  0  0  0
   -2.0047    1.8110   -1.2333 H   0  0  0  0  0  0  0  0  0  0  0  0
   -0.0503   -1.8931   -1.0011 C   0  0  0  0  0  0  0  0  0  0  0  0
   -0.0503   -1.8931    0.3224 C   0  0  0  0  0  0  0  0  0  0  0  0
   -0.0503   -0.6717    1.1945 C   0  0  0  0  0  3  0  0  0  0  0  0
    1.2090   -0.6312    2.0621 C   0  0  0  0  0  0  0  0  0  0  0  0
   -1.3096   -0.6312    2.0621 C   0  0  0  0  0  0  0  0  0  0  0  0
   -0.0503   -2.8148   -1.5693 H   0  0  0  0  0  0  0  0  0  0  0  0
   -0.0503   -0.9665   -1.5656 H   0  0  0  0  0  0  0  0  0  0  0  0
   -0.0503   -2.8444    0.8530 H   0  0  0  0  0  0  0  0  0  0  0  0
   -0.0503    0.3847    0.4140 H   0  0  0  0  0  0  0  0  0  0  0  0
    2.1106   -0.6254    1.4479 H   0  0  0  0  0  0  0  0  0  0  0  0
    1.2536   -1.5051    2.7179 H   0  0  0  0  0  0  0  0  0  0  0  0
    1.2166    0.2600    2.6931 H   0  0  0  0  0  0  0  0  0  0  0  0
   -1.3542   -1.5051    2.7179 H   0  0  0  0  0  0  0  0  0  0  0  0
   -2.2111   -0.6253    1.4479 H   0  0  0  0  0  0  0  0  0  0  0  0
   -1.3171    0.2600    2.6931 H   0  0  0  0  0  0  0  0  0  0  0  0
  1  2  3  0
  1  5  1  0
  2  3  1  0
  3  4  1  0
  3  6  1  0
  3 18  1  0
  4  7  1  0
  4  8  1  0
  4  9  1  0
 10 11  2  3
 10 15  1  0
 10 16  1  0
 11 12  1  0
 11 17  1  0
 12 13  1  0
 12 14  1  0
 13 19  1  0
 13 20  1  0
 13 21  1  0
 14 22  1  0
 14 23  1  0
 14 24  1  0
M  RAD  1  12   2
M  END
>  <reaction>  (13) 
rxn_1091

>  <mol_properties>  (13) 
{"1": {"label": "*4", "atom_type": "Ct"}, "2": {"label": "*3", "atom_type": "Cs"}, "10": {"label": "*0", "atom_type": "Cd"}, "11": {"label": "*1", "atom_type": "Cs"}, "17": {"label": "*2", "atom_type": "H0"}}

>  <type>  (13) 
unop_9

>  <geom_source>  (13) 
Heuristics

$$$$

     RDKit          3D

 24 22  0  0  0  0  0  0  0  0999 V2000
   -1.8143    1.3183   -2.1792 C   0  0  0  0  0  0  0  0  0  0  0  0
   -0.8207    1.3337   -1.5106 C   0  0  0  0  0  0  0  0  0  0  0  0
    0.3762    1.3672   -0.6762 C   0  0  0  0  0  0  0  0  0  0  0  0
    0.1612    2.1178    0.6393 C   0  0  0  0  0  0  0  0  0  0  0  0
   -2.6964    1.3046   -2.7728 H   0  0  0  0  0  0  0  0  0  0  0  0
    1.1864    1.8329   -1.2429 H   0  0  0  0  0  0  0  0  0  0  0  0
    1.0788    2.1175    1.2288 H   0  0  0  0  0  0  0  0  0  0  0  0
   -0.1280    3.1519    0.4515 H   0  0  0  0  0  0  0  0  0  0  0  0
   -0.6271    1.6481    1.2279 H   0  0  0  0  0  0  0  0  0  0  0  0
    0.3762   -1.9655   -1.3120 C   0  0  0  0  0  0  0  0  0  0  0  0
    0.3762   -1.9655    0.0115 C   0  0  0  0  0  0  0  0  0  0  0  0
    0.3762   -0.7441    0.8835 C   0  0  0  0  0  3  0  0  0  0  0  0
    1.6355   -0.7036    1.7512 C   0  0  0  0  0  0  0  0  0  0  0  0
   -0.8831   -0.7036    1.7512 C   0  0  0  0  0  0  0  0  0  0  0  0
    0.3762   -2.8872   -1.8803 H   0  0  0  0  0  0  0  0  0  0  0  0
    0.3762   -1.0389   -1.8766 H   0  0  0  0  0  0  0  0  0  0  0  0
    0.3762   -2.9168    0.5420 H   0  0  0  0  0  0  0  0  0  0  0  0
    0.3762    0.3123    0.1031 H   0  0  0  0  0  0  0  0  0  0  0  0
    2.5371   -0.6977    1.1370 H   0  0  0  0  0  0  0  0  0  0  0  0
    1.6801   -1.5775    2.4070 H   0  0  0  0  0  0  0  0  0  0  0  0
    1.6431    0.1876    2.3822 H   0  0  0  0  0  0  0  0  0  0  0  0
   -0.9277   -1.5775    2.4070 H   0  0  0  0  0  0  0  0  0  0  0  0
   -1.7846   -0.6977    1.1370 H   0  0  0  0  0  0  0  0  0  0  0  0
   -0.8906    0.1876    2.3822 H   0  0  0  0  0  0  0  0  0  0  0  0
  1  2  3  0
  1  5  1  0
  2  3  1  0
  3  4  1  0
  3  6  1  0
  3 18  1  0
  4  7  1  0
  4  8  1  0
  4  9  1  0
 10 11  2  3
 10 15  1  0
 10 16  1  0
 11 12  1  0
 11 17  1  0
 12 13  1  0
 12 14  1  0
 13 19  1  0
 13 20  1  0
 13 21  1  0
 14 22  1  0
 14 23  1  0
 14 24  1  0
M  RAD  1  12   2
M  END
>  <reaction>  (14) 
rxn_1091

>  <mol_properties>  (14) 
{"1": {"label": "*4", "atom_type": "Ct"}, "2": {"label": "*3", "atom_type": "Cs"}, "10": {"label": "*0", "atom_type": "Cd"}, "11": {"label": "*1", "atom_type": "Cs"}, "17": {"label": "*2", "atom_type": "H0"}}

>  <type>  (14) 
unop_10

>  <geom_source>  (14) 
Heuristics

$$$$

     RDKit          3D

 24 22  0  0  0  0  0  0  0  0999 V2000
    1.0504    3.1161    0.4605 C   0  0  0  0  0  0  0  0  0  0  0  0
    0.4765    2.2147   -0.0803 C   0  0  0  0  0  0  0  0  0  0  0  0
   -0.2146    1.1264   -0.7644 C   0  0  0  0  0  0  0  0  0  0  0  0
   -0.0737    1.1983   -2.2860 C   0  0  0  0  0  0  0  0  0  0  0  0
    1.5599    3.9164    0.9407 H   0  0  0  0  0  0  0  0  0  0  0  0
   -1.2712    1.1517   -0.4863 H   0  0  0  0  0  0  0  0  0  0  0  0
   -0.6041    0.3681   -2.7541 H   0  0  0  0  0  0  0  0  0  0  0  0
   -0.4871    2.1315   -2.6688 H   0  0  0  0  0  0  0  0  0  0  0  0
    0.9748    1.1474   -2.5800 H   0  0  0  0  0  0  0  0  0  0  0  0
   -0.2146   -2.2062   -1.4002 C   0  0  0  0  0  0  0  0  0  0  0  0
   -0.2146   -2.2062   -0.0767 C   0  0  0  0  0  0  0  0  0  0  0  0
   -0.2146   -0.9848    0.7953 C   0  0  0  0  0  3  0  0  0  0  0  0
    1.0447   -0.9444    1.6630 C   0  0  0  0  0  0  0  0  0  0  0  0
   -1.4739   -0.9444    1.6630 C   0  0  0  0  0  0  0  0  0  0  0  0
   -0.2146   -3.1279   -1.9685 H   0  0  0  0  0  0  0  0  0  0  0  0
   -0.2146   -1.2797   -1.9648 H   0  0  0  0  0  0  0  0  0  0  0  0
   -0.2146   -3.1575    0.4538 H   0  0  0  0  0  0  0  0  0  0  0  0
   -0.2146    0.0716    0.0149 H   0  0  0  0  0  0  0  0  0  0  0  0
    1.9463   -0.9385    1.0488 H   0  0  0  0  0  0  0  0  0  0  0  0
    1.0893   -1.8182    2.3188 H   0  0  0  0  0  0  0  0  0  0  0  0
    1.0523   -0.0532    2.2939 H   0  0  0  0  0  0  0  0  0  0  0  0
   -1.5185   -1.8182    2.3188 H   0  0  0  0  0  0  0  0  0  0  0  0
   -2.3754   -0.9385    1.0488 H   0  0  0  0  0  0  0  0  0  0  0  0
   -1.4814   -0.0532    2.2939 H   0  0  0  0  0  0  0  0  0  0  0  0
  1  2  3  0
  1  5  1  0
  2  3  1  0
  3  4  1  0
  3  6  1  0
  3 18  1  0
  4  7  1  0
  4  8  1  0
  4  9  1  0
 10 11  2  3
 10 15  1  0
 10 16  1  0
 11 12  1  0
 11 17  1  0
 12 13  1  0
 12 14  1  0
 13 19  1  0
 13 20  1  0
 13 21  1  0
 14 22  1  0
 14 23  1  0
 14 24  1  0
M  RAD  1  12   2
M  END
>  <reaction>  (15) 
rxn_1091

>  <mol_properties>  (15) 
{"1": {"label": "*4", "atom_type": "Ct"}, "2": {"label": "*3", "atom_type": "Cs"}, "10": {"label": "*0", "atom_type": "Cd"}, "11": {"label": "*1", "atom_type": "Cs"}, "17": {"label": "*2", "atom_type": "H0"}}

>  <type>  (15) 
unop_11

>  <geom_source>  (15) 
Heuristics

$$$$

     RDKit          3D

 24 22  0  0  0  0  0  0  0  0999 V2000
    0.1279    0.6726   -2.9249 C   0  0  0  0  0  0  0  0  0  0  0  0
    0.1475    1.0252   -1.7805 C   0  0  0  0  0  0  0  0  0  0  0  0
    0.1475    1.4694   -0.3903 C   0  0  0  0  0  0  0  0  0  0  0  0
   -1.0454    2.3662   -0.0543 C   0  0  0  0  0  0  0  0  0  0  0  0
    0.1105    0.3595   -3.9409 H   0  0  0  0  0  0  0  0  0  0  0  0
    1.0813    2.0013   -0.1916 H   0  0  0  0  0  0  0  0  0  0  0  0
   -1.0045    2.6732    0.9914 H   0  0  0  0  0  0  0  0  0  0  0  0
   -1.0437    3.2610   -0.6769 H   0  0  0  0  0  0  0  0  0  0  0  0
   -1.9847    1.8392   -0.2227 H   0  0  0  0  0  0  0  0  0  0  0  0
    0.1475   -1.8633   -1.0261 C   0  0  0  0  0  0  0  0  0  0  0  0
    0.1475   -1.8633    0.2974 C   0  0  0  0  0  0  0  0  0  0  0  0
    0.1475   -0.6419    1.1695 C   0  0  0  0  0  3  0  0  0  0  0  0
    1.4068   -0.6014    2.0371 C   0  0  0  0  0  0  0  0  0  0  0  0
   -1.1118   -0.6014    2.0371 C   0  0  0  0  0  0  0  0  0  0  0  0
    0.1475   -2.7850   -1.5943 H   0  0  0  0  0  0  0  0  0  0  0  0
    0.1475   -0.9367   -1.5906 H   0  0  0  0  0  0  0  0  0  0  0  0
    0.1475   -2.8146    0.8280 H   0  0  0  0  0  0  0  0  0  0  0  0
    0.1475    0.4145    0.3890 H   0  0  0  0  0  0  0  0  0  0  0  0
    2.3083   -0.5956    1.4229 H   0  0  0  0  0  0  0  0  0  0  0  0
    1.4514   -1.4753    2.6929 H   0  0  0  0  0  0  0  0  0  0  0  0
    1.4143    0.2898    2.6681 H   0  0  0  0  0  0  0  0  0  0  0  0
   -1.1564   -1.4753    2.6929 H   0  0  0  0  0  0  0  0  0  0  0  0
   -2.0134   -0.5955    1.4229 H   0  0  0  0  0  0  0  0  0  0  0  0
   -1.1194    0.2898    2.6681 H   0  0  0  0  0  0  0  0  0  0  0  0
  1  2  3  0
  1  5  1  0
  2  3  1  0
  3  4  1  0
  3  6  1  0
  3 18  1  0
  4  7  1  0
  4  8  1  0
  4  9  1  0
 10 11  2  3
 10 15  1  0
 10 16  1  0
 11 12  1  0
 11 17  1  0
 12 13  1  0
 12 14  1  0
 13 19  1  0
 13 20  1  0
 13 21  1  0
 14 22  1  0
 14 23  1  0
 14 24  1  0
M  RAD  1  12   2
M  END
>  <reaction>  (16) 
rxn_1091

>  <mol_properties>  (16) 
{"1": {"label": "*4", "atom_type": "Ct"}, "2": {"label": "*3", "atom_type": "Cs"}, "10": {"label": "*0", "atom_type": "Cd"}, "11": {"label": "*1", "atom_type": "Cs"}, "17": {"label": "*2", "atom_type": "H0"}}

>  <type>  (16) 
unop_12

>  <geom_source>  (16) 
Heuristics

$$$$

     RDKit          3D

 24 22  0  0  0  0  0  0  0  0999 V2000
    1.5265   -0.4056    0.1084 C   0  0  0  0  0  3  0  0  0  0  0  0
    1.9304   -0.8923   -1.2765 C   0  0  0  0  0  0  0  0  0  0  0  0
   -0.7094   -0.1373    1.7409 C   0  0  0  0  0  0  0  0  0  0  0  0
   -2.1240   -1.2800   -0.0119 C   0  0  0  0  0  0  0  0  0  0  0  0
   -1.0667   -0.2066    0.2556 C   0  0  0  0  0  0  0  0  0  0  0  0
   -1.5121    1.1355   -0.2621 C   0  0  0  0  0  0  0  0  0  0  0  0
   -1.4643    1.4170   -1.5660 C   0  0  0  0  0  0  0  0  0  0  0  0
    2.3955    0.6934    0.5429 C   0  0  0  0  0  0  0  0  0  0  0  0
    3.1090    1.5969    0.9008 C   0  0  0  0  0  0  0  0  0  0  0  0
    1.6048   -1.2411    0.8357 H   0  0  0  0  0  0  0  0  0  0  0  0
    0.2344    0.0327    0.0748 H   0  0  0  0  0  0  0  0  0  0  0  0
    2.9769   -1.2661   -1.2666 H   0  0  0  0  0  0  0  0  0  0  0  0
    1.2590   -1.7204   -1.5858 H   0  0  0  0  0  0  0  0  0  0  0  0
    1.8396   -0.0676   -2.0155 H   0  0  0  0  0  0  0  0  0  0  0  0
   -0.3209   -1.1197    2.0827 H   0  0  0  0  0  0  0  0  0  0  0  0
    0.0834    0.6234    1.9030 H   0  0  0  0  0  0  0  0  0  0  0  0
   -1.6010    0.1315    2.3478 H   0  0  0  0  0  0  0  0  0  0  0  0
   -2.3201   -1.3595   -1.1019 H   0  0  0  0  0  0  0  0  0  0  0  0
   -1.7604   -2.2669    0.3443 H   0  0  0  0  0  0  0  0  0  0  0  0
   -3.0732   -1.0325    0.5104 H   0  0  0  0  0  0  0  0  0  0  0  0
   -1.8530    1.9007    0.4304 H   0  0  0  0  0  0  0  0  0  0  0  0
   -1.7769    2.3929   -1.9229 H   0  0  0  0  0  0  0  0  0  0  0  0
   -1.1127    0.6814   -2.2833 H   0  0  0  0  0  0  0  0  0  0  0  0
    3.7354    2.3900    1.2148 H   0  0  0  0  0  0  0  0  0  0  0  0
  1  2  1  0
  1  8  1  0
  1 10  1  0
  2 12  1  0
  2 13  1  0
  2 14  1  0
  3  5  1  0
  3 15  1  0
  3 16  1  0
  3 17  1  0
  4  5  1  0
  4 18  1  0
  4 19  1  0
  4 20  1  0
  5  6  1  0
  5 11  1  0
  6  7  2  3
  6 21  1  0
  7 22  1  0
  7 23  1  0
  8  9  3  0
  9 24  1  0
M  RAD  1   1   2
M  END
>  <reaction>  (17) 
rxn_1091

>  <mol_properties>  (17) 
{"1": {"label": "*4", "atom_type": "Ct"}, "2": {"label": "*3", "atom_type": "Cs"}, "10": {"label": "*0", "atom_type": "Cd"}, "11": {"label": "*1", "atom_type": "Cs"}, "17": {"label": "*2", "atom_type": "H0"}}

>  <type>  (17) 
unop_13

>  <geom_source>  (17) 
AutoTST

$$$$

     RDKit          3D

 24 22  0  0  0  0  0  0  0  0999 V2000
   -0.9689    0.8454   -2.7618 C   0  0  0  0  0  0  0  0  0  0  0  0
   -0.3833    1.1077   -1.7505 C   0  0  0  0  0  0  0  0  0  0  0  0
    0.3077    1.4418   -0.5092 C   0  0  0  0  0  0  0  0  0  0  0  0
   -0.5415    2.3007    0.4296 C   0  0  0  0  0  0  0  0  0  0  0  0
   -1.4887    0.6126   -3.6597 H   0  0  0  0  0  0  0  0  0  0  0  0
    1.2364    1.9634   -0.7538 H   0  0  0  0  0  0  0  0  0  0  0  0
    0.0132    2.5254    1.3414 H   0  0  0  0  0  0  0  0  0  0  0  0
   -0.8148    3.2415   -0.0487 H   0  0  0  0  0  0  0  0  0  0  0  0
   -1.4600    1.7816    0.7035 H   0  0  0  0  0  0  0  0  0  0  0  0
    0.3077   -1.8909   -1.1450 C   0  0  0  0  0  0  0  0  0  0  0  0
    0.3077   -1.8909    0.1785 C   0  0  0  0  0  0  0  0  0  0  0  0
    0.3077   -0.6695    1.0505 C   0  0  0  0  0  3  0  0  0  0  0  0
    1.5670   -0.6291    1.9182 C   0  0  0  0  0  0  0  0  0  0  0  0
   -0.9516   -0.6291    1.9182 C   0  0  0  0  0  0  0  0  0  0  0  0
    0.3077   -2.8126   -1.7133 H   0  0  0  0  0  0  0  0  0  0  0  0
    0.3077   -0.9643   -1.7096 H   0  0  0  0  0  0  0  0  0  0  0  0
    0.3077   -2.8422    0.7090 H   0  0  0  0  0  0  0  0  0  0  0  0
    0.3077    0.3869    0.2701 H   0  0  0  0  0  0  0  0  0  0  0  0
    2.4686   -0.6232    1.3040 H   0  0  0  0  0  0  0  0  0  0  0  0
    1.6116   -1.5029    2.5740 H   0  0  0  0  0  0  0  0  0  0  0  0
    1.5746    0.2621    2.5492 H   0  0  0  0  0  0  0  0  0  0  0  0
   -0.9962   -1.5029    2.5740 H   0  0  0  0  0  0  0  0  0  0  0  0
   -1.8531   -0.6232    1.3040 H   0  0  0  0  0  0  0  0  0  0  0  0
   -0.9591    0.2621    2.5492 H   0  0  0  0  0  0  0  0  0  0  0  0
  1  2  3  0
  1  5  1  0
  2  3  1  0
  3  4  1  0
  3  6  1  0
  3 18  1  0
  4  7  1  0
  4  8  1  0
  4  9  1  0
 10 11  2  3
 10 15  1  0
 10 16  1  0
 11 12  1  0
 11 17  1  0
 12 13  1  0
 12 14  1  0
 13 19  1  0
 13 20  1  0
 13 21  1  0
 14 22  1  0
 14 23  1  0
 14 24  1  0
M  RAD  1  12   2
M  END
>  <reaction>  (18) 
rxn_1091

>  <mol_properties>  (18) 
{"1": {"label": "*4", "atom_type": "Ct"}, "2": {"label": "*3", "atom_type": "Cs"}, "10": {"label": "*0", "atom_type": "Cd"}, "11": {"label": "*1", "atom_type": "Cs"}, "17": {"label": "*2", "atom_type": "H0"}}

>  <type>  (18) 
unop_14

>  <geom_source>  (18) 
gaussian_log

$$$$
