
     RDKit          3D

 15 14  0  0  0  0  0  0  0  0999 V2000
    2.1256    0.4849   -0.6284 C   0  0  0  0  0  0  0  0  0  0  0  0
    1.1128    0.2141    0.1794 C   0  0  0  0  0  0  0  0  0  0  0  0
   -0.3017   -0.0425   -0.2513 C   0  0  0  0  0  0  0  0  0  0  0  0
   -1.2427    1.0075    0.3423 C   0  0  0  0  0  0  0  0  0  0  0  0
   -0.7381   -1.4526    0.1504 C   0  0  0  0  0  0  0  0  0  0  0  0
    3.1243    0.6602   -0.2486 H   0  0  0  0  0  0  0  0  0  0  0  0
    1.9908    0.5411   -1.7036 H   0  0  0  0  0  0  0  0  0  0  0  0
    1.2888    0.1665    1.2533 H   0  0  0  0  0  0  0  0  0  0  0  0
   -0.3426    0.0343   -1.3424 H   0  0  0  0  0  0  0  0  0  0  0  0
   -0.9570    2.0133    0.0315 H   0  0  0  0  0  0  0  0  0  0  0  0
   -1.2189    0.9728    1.4350 H   0  0  0  0  0  0  0  0  0  0  0  0
   -2.2723    0.8287    0.0254 H   0  0  0  0  0  0  0  0  0  0  0  0
   -0.6964   -1.5744    1.2363 H   0  0  0  0  0  0  0  0  0  0  0  0
   -0.0911   -2.2079   -0.2978 H   0  0  0  0  0  0  0  0  0  0  0  0
   -1.7646   -1.6461   -0.1677 H   0  0  0  0  0  0  0  0  0  0  0  0
  1  2  2  3
  1  6  1  0
  1  7  1  0
  2  3  1  0
  2  8  1  0
  3  4  1  0
  3  5  1  0
  3  9  1  0
  4 10  1  0
  4 11  1  0
  4 12  1  0
  5 13  1  0
  5 14  1  0
  5 15  1  0
M  END
>  <reaction>  (1) 
rxn_1110

>  <mol_properties>  (1) 
{"2": {"label": "donator", "atom_type": "Cs"}, "8": {"label": "d_hydrogen", "atom_type": "H0"}}

>  <type>  (1) 
r1h

$$$$

     RDKit          3D

  7  6  0  0  0  0  0  0  0  0999 V2000
    1.3002    0.7433    2.1279 C   0  0  0  0  0  0  0  0  0  0  0  0
    0.5758    0.3292    1.2319 C   0  0  0  0  0  0  0  0  0  0  0  0
   -0.2057   -0.1176    0.2652 C   0  0  0  0  0  3  0  0  0  0  0  0
   -0.9747   -0.5572   -0.6858 C   0  0  0  0  0  0  0  0  0  0  0  0
    1.9293    1.1030    2.9059 H   0  0  0  0  0  0  0  0  0  0  0  0
   -1.9977   -0.8727   -0.4932 H   0  0  0  0  0  0  0  0  0  0  0  0
   -0.6274   -0.6280   -1.7143 H   0  0  0  0  0  0  0  0  0  0  0  0
  1  2  3  0
  1  5  1  0
  2  3  1  0
  3  4  2  3
  4  6  1  0
  4  7  1  0
M  RAD  1   3   2
M  END
>  <reaction>  (2) 
rxn_1110

>  <mol_properties>  (2) 
{"2": {"label": "acceptor", "atom_type": "Cd"}}

>  <type>  (2) 
r2

$$$$

     RDKit          3D

  8  7  0  0  0  0  0  0  0  0999 V2000
    1.9029    0.9046   -0.2050 C   0  0  0  0  0  0  0  0  0  0  0  0
    0.8517    0.4283    0.1217 C   0  0  0  0  0  0  0  0  0  0  0  0
   -0.3908   -0.1311    0.5404 C   0  0  0  0  0  0  0  0  0  0  0  0
   -1.2847   -0.6576   -0.2899 C   0  0  0  0  0  0  0  0  0  0  0  0
    2.8335    1.3255   -0.5014 H   0  0  0  0  0  0  0  0  0  0  0  0
   -0.5867   -0.1096    1.6074 H   0  0  0  0  0  0  0  0  0  0  0  0
   -2.2126   -1.0686    0.0850 H   0  0  0  0  0  0  0  0  0  0  0  0
   -1.1134   -0.6914   -1.3582 H   0  0  0  0  0  0  0  0  0  0  0  0
  1  2  3  0
  1  5  1  0
  2  3  1  0
  3  4  2  3
  3  6  1  0
  4  7  1  0
  4  8  1  0
M  END
>  <reaction>  (3) 
rxn_1110

>  <mol_properties>  (3) 
{"2": {"label": "acceptor", "atom_type": "Cd"}, "7": {"label": "a_hydrogen", "atom_type": "H0"}}

>  <type>  (3) 
r2h

$$$$

     RDKit          3D

 22 20  0  0  0  0  0  0  0  0999 V2000
   -1.0074    3.3216    0.8012 C   0  0  0  0  0  0  0  0  0  0  0  0
   -0.4320    2.5149    0.1120 C   0  0  0  0  0  0  0  0  0  0  0  0
    0.2042    1.4920   -0.5724 C   0  0  0  0  0  3  0  0  0  0  0  0
    0.8021    1.3594   -1.7381 C   0  0  0  0  0  0  0  0  0  0  0  0
   -1.5092    4.0547    1.3856 H   0  0  0  0  0  0  0  0  0  0  0  0
    0.8906    2.1862   -2.4375 H   0  0  0  0  0  0  0  0  0  0  0  0
    1.2258    0.4051   -2.0339 H   0  0  0  0  0  0  0  0  0  0  0  0
    0.9608   -2.6925   -0.7635 C   0  0  0  0  0  0  0  0  0  0  0  0
    1.1809   -1.6895    0.0834 C   0  0  0  0  0  0  0  0  0  0  0  0
    0.1610   -0.8592    0.7549 C   0  0  0  0  0  0  0  0  0  0  0  0
    0.5218   -0.4732    2.1770 C   0  0  0  0  0  0  0  0  0  0  0  0
   -1.2800   -1.2864    0.5869 C   0  0  0  0  0  0  0  0  0  0  0  0
    1.7844   -3.2278   -1.2181 H   0  0  0  0  0  0  0  0  0  0  0  0
   -0.0382   -3.0201   -1.0240 H   0  0  0  0  0  0  0  0  0  0  0  0
    2.2108   -1.4196    0.3063 H   0  0  0  0  0  0  0  0  0  0  0  0
    0.2158    0.2308    0.1538 H   0  0  0  0  0  0  0  0  0  0  0  0
    1.5505   -0.1140    2.2411 H   0  0  0  0  0  0  0  0  0  0  0  0
    0.4214   -1.3318    2.8477 H   0  0  0  0  0  0  0  0  0  0  0  0
   -0.1365    0.3182    2.5401 H   0  0  0  0  0  0  0  0  0  0  0  0
   -1.4610   -2.2488    1.0752 H   0  0  0  0  0  0  0  0  0  0  0  0
   -1.5511   -1.3830   -0.4654 H   0  0  0  0  0  0  0  0  0  0  0  0
   -1.9466   -0.5488    1.0362 H   0  0  0  0  0  0  0  0  0  0  0  0
  1  2  3  0
  1  5  1  0
  2  3  1  0
  3  4  2  3
  4  6  1  0
  4  7  1  0
  8  9  2  3
  8 13  1  0
  8 14  1  0
  9 10  1  0
  9 15  1  0
 10 11  1  0
 10 12  1  0
 10 16  1  0
 11 17  1  0
 11 18  1  0
 11 19  1  0
 12 20  1  0
 12 21  1  0
 12 22  1  0
M  RAD  1   3   2
M  END
>  <reaction>  (4) 
rxn_1110

>  <mol_properties>  (4) 
{"1": {"label": "*4", "atom_type": "Ct"}, "2": {"label": "*3", "atom_type": "Cd"}, "8": {"label": "*0", "atom_type": "Cd"}, "9": {"label": "*1", "atom_type": "Cs"}, "15": {"label": "*2", "atom_type": "H0"}}

>  <type>  (4) 
ts

$$$$

     RDKit          3D

 22 20  0  0  0  0  0  0  0  0999 V2000
   -1.8757    2.7689   -0.5271 C   0  0  0  0  0  0  0  0  0  0  0  0
   -0.9258    2.0469   -0.6496 C   0  0  0  0  0  0  0  0  0  0  0  0
    0.1837    1.1636   -0.7935 C   0  0  0  0  0  0  0  0  0  0  0  0
    1.4418    1.5688   -0.9304 C   0  0  0  0  0  0  0  0  0  0  0  0
   -2.7179    3.4091   -0.4184 H   0  0  0  0  0  0  0  0  0  0  0  0
    1.6996    2.6201   -0.9404 H   0  0  0  0  0  0  0  0  0  0  0  0
    2.2452    0.8519   -1.0360 H   0  0  0  0  0  0  0  0  0  0  0  0
    0.1837   -2.1615   -1.4349 C   0  0  0  0  0  0  0  0  0  0  0  0
    0.1837   -2.1615   -0.1114 C   0  0  0  0  0  0  0  0  0  0  0  0
    0.1837   -0.9401    0.7606 C   0  0  0  0  0  3  0  0  0  0  0  0
    1.4430   -0.8997    1.6283 C   0  0  0  0  0  0  0  0  0  0  0  0
   -1.0756   -0.8997    1.6283 C   0  0  0  0  0  0  0  0  0  0  0  0
    0.1837   -3.0832   -2.0032 H   0  0  0  0  0  0  0  0  0  0  0  0
    0.1837   -1.2349   -1.9995 H   0  0  0  0  0  0  0  0  0  0  0  0
    0.1837   -3.1128    0.4191 H   0  0  0  0  0  0  0  0  0  0  0  0
    0.1837    0.1163   -0.0198 H   0  0  0  0  0  0  0  0  0  0  0  0
    2.3446   -0.8938    1.0141 H   0  0  0  0  0  0  0  0  0  0  0  0
    1.4876   -1.7735    2.2841 H   0  0  0  0  0  0  0  0  0  0  0  0
    1.4506   -0.0085    2.2593 H   0  0  0  0  0  0  0  0  0  0  0  0
   -1.1202   -1.7735    2.2841 H   0  0  0  0  0  0  0  0  0  0  0  0
   -1.9771   -0.8938    1.0141 H   0  0  0  0  0  0  0  0  0  0  0  0
   -1.0831   -0.0085    2.2593 H   0  0  0  0  0  0  0  0  0  0  0  0
  1  2  3  0
  1  5  1  0
  2  3  1  0
  3  4  2  3
  3 16  1  0
  4  6  1  0
  4  7  1  0
  8  9  2  3
  8 13  1  0
  8 14  1  0
  9 10  1  0
  9 15  1  0
 10 11  1  0
 10 12  1  0
 11 17  1  0
 11 18  1  0
 11 19  1  0
 12 20  1  0
 12 21  1  0
 12 22  1  0
M  RAD  1  10   2
M  END
>  <reaction>  (5) 
rxn_1110

>  <mol_properties>  (5) 
{"1": {"label": "*4", "atom_type": "Ct"}, "2": {"label": "*3", "atom_type": "Cd"}, "8": {"label": "*0", "atom_type": "Cd"}, "9": {"label": "*1", "atom_type": "Cs"}, "15": {"label": "*2", "atom_type": "H0"}}

>  <type>  (5) 
unop_1

>  <geom_source>  (5) 
Heuristics

$$$$

     RDKit          3D

 22 20  0  0  0  0  0  0  0  0999 V2000
   -1.0172    1.0696   -2.7762 C   0  0  0  0  0  0  0  0  0  0  0  0
   -0.4798    1.2280   -1.7156 C   0  0  0  0  0  0  0  0  0  0  0  0
    0.1608    1.3846   -0.4518 C   0  0  0  0  0  0  0  0  0  0  0  0
    0.4310    2.5618    0.1021 C   0  0  0  0  0  0  0  0  0  0  0  0
   -1.4936    0.9293   -3.7165 H   0  0  0  0  0  0  0  0  0  0  0  0
    0.1725    3.4910   -0.3894 H   0  0  0  0  0  0  0  0  0  0  0  0
    0.9200    2.6202    1.0655 H   0  0  0  0  0  0  0  0  0  0  0  0
    0.1608   -1.9404   -1.0933 C   0  0  0  0  0  0  0  0  0  0  0  0
    0.1608   -1.9404    0.2302 C   0  0  0  0  0  0  0  0  0  0  0  0
    0.1608   -0.7191    1.1023 C   0  0  0  0  0  3  0  0  0  0  0  0
    1.4201   -0.6786    1.9699 C   0  0  0  0  0  0  0  0  0  0  0  0
   -1.0985   -0.6786    1.9699 C   0  0  0  0  0  0  0  0  0  0  0  0
    0.1608   -2.8622   -1.6615 H   0  0  0  0  0  0  0  0  0  0  0  0
    0.1608   -1.0139   -1.6578 H   0  0  0  0  0  0  0  0  0  0  0  0
    0.1608   -2.8917    0.7608 H   0  0  0  0  0  0  0  0  0  0  0  0
    0.1608    0.3373    0.3218 H   0  0  0  0  0  0  0  0  0  0  0  0
    2.3216   -0.6727    1.3558 H   0  0  0  0  0  0  0  0  0  0  0  0
    1.4647   -1.5525    2.6257 H   0  0  0  0  0  0  0  0  0  0  0  0
    1.4276    0.2126    2.6009 H   0  0  0  0  0  0  0  0  0  0  0  0
   -1.1431   -1.5525    2.6257 H   0  0  0  0  0  0  0  0  0  0  0  0
   -2.0001   -0.6727    1.3558 H   0  0  0  0  0  0  0  0  0  0  0  0
   -1.1061    0.2126    2.6009 H   0  0  0  0  0  0  0  0  0  0  0  0
  1  2  3  0
  1  5  1  0
  2  3  1  0
  3  4  2  3
  3 16  1  0
  4  6  1  0
  4  7  1  0
  8  9  2  3
  8 13  1  0
  8 14  1  0
  9 10  1  0
  9 15  1  0
 10 11  1  0
 10 12  1  0
 11 17  1  0
 11 18  1  0
 11 19  1  0
 12 20  1  0
 12 21  1  0
 12 22  1  0
M  RAD  1  10   2
M  END
>  <reaction>  (6) 
rxn_1110

>  <mol_properties>  (6) 
{"1": {"label": "*4", "atom_type": "Ct"}, "2": {"label": "*3", "atom_type": "Cd"}, "8": {"label": "*0", "atom_type": "Cd"}, "9": {"label": "*1", "atom_type": "Cs"}, "15": {"label": "*2", "atom_type": "H0"}}

>  <type>  (6) 
unop_2

>  <geom_source>  (6) 
Heuristics

$$$$

     RDKit          3D

 22 20  0  0  0  0  0  0  0  0999 V2000
   -1.1293    3.2480    0.1468 C   0  0  0  0  0  0  0  0  0  0  0  0
   -0.5731    2.2861   -0.3047 C   0  0  0  0  0  0  0  0  0  0  0  0
    0.0675    1.1241   -0.8258 C   0  0  0  0  0  0  0  0  0  0  0  0
    1.1155    1.1577   -1.6421 C   0  0  0  0  0  0  0  0  0  0  0  0
   -1.6224    4.1009    0.5472 H   0  0  0  0  0  0  0  0  0  0  0  0
    1.5515    2.0945   -1.9645 H   0  0  0  0  0  0  0  0  0  0  0  0
    1.5616    0.2421   -2.0070 H   0  0  0  0  0  0  0  0  0  0  0  0
    0.0675   -2.2009   -1.4672 C   0  0  0  0  0  0  0  0  0  0  0  0
    0.0675   -2.2009   -0.1437 C   0  0  0  0  0  0  0  0  0  0  0  0
    0.0675   -0.9796    0.7283 C   0  0  0  0  0  3  0  0  0  0  0  0
    1.3268   -0.9391    1.5960 C   0  0  0  0  0  0  0  0  0  0  0  0
   -1.1918   -0.9391    1.5960 C   0  0  0  0  0  0  0  0  0  0  0  0
    0.0675   -3.1227   -2.0355 H   0  0  0  0  0  0  0  0  0  0  0  0
    0.0675   -1.2744   -2.0318 H   0  0  0  0  0  0  0  0  0  0  0  0
    0.0675   -3.1522    0.3868 H   0  0  0  0  0  0  0  0  0  0  0  0
    0.0675    0.0768   -0.0521 H   0  0  0  0  0  0  0  0  0  0  0  0
    2.2284   -0.9332    0.9818 H   0  0  0  0  0  0  0  0  0  0  0  0
    1.3714   -1.8130    2.2518 H   0  0  0  0  0  0  0  0  0  0  0  0
    1.3343   -0.0479    2.2270 H   0  0  0  0  0  0  0  0  0  0  0  0
   -1.2364   -1.8130    2.2518 H   0  0  0  0  0  0  0  0  0  0  0  0
   -2.0934   -0.9332    0.9818 H   0  0  0  0  0  0  0  0  0  0  0  0
   -1.1993   -0.0479    2.2270 H   0  0  0  0  0  0  0  0  0  0  0  0
  1  2  3  0
  1  5  1  0
  2  3  1  0
  3  4  2  3
  3 16  1  0
  4  6  1  0
  4  7  1  0
  8  9  2  3
  8 13  1  0
  8 14  1  0
  9 10  1  0
  9 15  1  0
 10 11  1  0
 10 12  1  0
 11 17  1  0
 11 18  1  0
 11 19  1  0
 12 20  1  0
 12 21  1  0
 12 22  1  0
M  RAD  1  10   2
M  END
>  <reaction>  (7) 
rxn_1110

>  <mol_properties>  (7) 
{"1": {"label": "*4", "atom_type": "Ct"}, "2": {"label": "*3", "atom_type": "Cd"}, "8": {"label": "*0", "atom_type": "Cd"}, "9": {"label": "*1", "atom_type": "Cs"}, "15": {"label": "*2", "atom_type": "H0"}}

>  <type>  (7) 
unop_3

>  <geom_source>  (7) 
Heuristics

$$$$

     RDKit          3D

 22 20  0  0  0  0  0  0  0  0999 V2000
    1.7867    1.5157   -2.1972 C   0  0  0  0  0  0  0  0  0  0  0  0
    0.8518    1.4397   -1.4497 C   0  0  0  0  0  0  0  0  0  0  0  0
   -0.2577    1.3176   -0.5631 C   0  0  0  0  0  0  0  0  0  0  0  0
   -0.8988    2.3524   -0.0301 C   0  0  0  0  0  0  0  0  0  0  0  0
    2.6156    1.5831   -2.8600 H   0  0  0  0  0  0  0  0  0  0  0  0
   -0.6056    3.3717   -0.2460 H   0  0  0  0  0  0  0  0  0  0  0  0
   -1.7361    2.1995    0.6378 H   0  0  0  0  0  0  0  0  0  0  0  0
   -0.2577   -2.0074   -1.2045 C   0  0  0  0  0  0  0  0  0  0  0  0
   -0.2577   -2.0074    0.1190 C   0  0  0  0  0  0  0  0  0  0  0  0
   -0.2577   -0.7860    0.9910 C   0  0  0  0  0  3  0  0  0  0  0  0
    1.0016   -0.7456    1.8587 C   0  0  0  0  0  0  0  0  0  0  0  0
   -1.5170   -0.7456    1.8587 C   0  0  0  0  0  0  0  0  0  0  0  0
   -0.2577   -2.9291   -1.7728 H   0  0  0  0  0  0  0  0  0  0  0  0
   -0.2577   -1.0808   -1.7691 H   0  0  0  0  0  0  0  0  0  0  0  0
   -0.2577   -2.9587    0.6495 H   0  0  0  0  0  0  0  0  0  0  0  0
   -0.2577    0.2704    0.2106 H   0  0  0  0  0  0  0  0  0  0  0  0
    1.9031   -0.7397    1.2445 H   0  0  0  0  0  0  0  0  0  0  0  0
    1.0462   -1.6194    2.5145 H   0  0  0  0  0  0  0  0  0  0  0  0
    1.0091    0.1456    2.4897 H   0  0  0  0  0  0  0  0  0  0  0  0
   -1.5616   -1.6194    2.5145 H   0  0  0  0  0  0  0  0  0  0  0  0
   -2.4186   -0.7397    1.2445 H   0  0  0  0  0  0  0  0  0  0  0  0
   -1.5246    0.1456    2.4897 H   0  0  0  0  0  0  0  0  0  0  0  0
  1  2  3  0
  1  5  1  0
  2  3  1  0
  3  4  2  3
  3 16  1  0
  4  6  1  0
  4  7  1  0
  8  9  2  3
  8 13  1  0
  8 14  1  0
  9 10  1  0
  9 15  1  0
 10 11  1  0
 10 12  1  0
 11 17  1  0
 11 18  1  0
 11 19  1  0
 12 20  1  0
 12 21  1  0
 12 22  1  0
M  RAD  1  10   2
M  END
>  <reaction>  (8) 
rxn_1110

>  <mol_properties>  (8) 
{"1": {"label": "*4", "atom_type": "Ct"}, "2": {"label": "*3", "atom_type": "Cd"}, "8": {"label": "*0", "atom_type": "Cd"}, "9": {"label": "*1", "atom_type": "Cs"}, "15": {"label": "*2", "atom_type": "H0"}}

>  <type>  (8) 
unop_4

>  <geom_source>  (8) 
Heuristics

$$$$

     RDKit          3D

 22 20  0  0  0  0  0  0  0  0999 V2000
    0.0000    3.4300    0.4304 C   0  0  0  0  0  0  0  0  0  0  0  0
    0.0000    2.3791   -0.1478 C   0  0  0  0  0  0  0  0  0  0  0  0
    0.0000    1.1151   -0.8069 C   0  0  0  0  0  0  0  0  0  0  0  0
    0.0000    0.9670   -2.1274 C   0  0  0  0  0  0  0  0  0  0  0  0
    0.0000    4.3617    0.9430 H   0  0  0  0  0  0  0  0  0  0  0  0
    0.0000    1.8211   -2.7925 H   0  0  0  0  0  0  0  0  0  0  0  0
    0.0000   -0.0188   -2.5732 H   0  0  0  0  0  0  0  0  0  0  0  0
   -0.0000   -2.2099   -1.4483 C   0  0  0  0  0  0  0  0  0  0  0  0
   -0.0000   -2.2099   -0.1248 C   0  0  0  0  0  0  0  0  0  0  0  0
   -0.0000   -0.9885    0.7472 C   0  0  0  0  0  3  0  0  0  0  0  0
    1.2593   -0.9481    1.6148 C   0  0  0  0  0  0  0  0  0  0  0  0
   -1.2593   -0.9481    1.6148 C   0  0  0  0  0  0  0  0  0  0  0  0
   -0.0000   -3.1316   -2.0166 H   0  0  0  0  0  0  0  0  0  0  0  0
   -0.0000   -1.2834   -2.0129 H   0  0  0  0  0  0  0  0  0  0  0  0
   -0.0000   -3.1612    0.4057 H   0  0  0  0  0  0  0  0  0  0  0  0
   -0.0000    0.0679   -0.0333 H   0  0  0  0  0  0  0  0  0  0  0  0
    2.1609   -0.9422    1.0007 H   0  0  0  0  0  0  0  0  0  0  0  0
    1.3039   -1.8219    2.2706 H   0  0  0  0  0  0  0  0  0  0  0  0
    1.2668   -0.0569    2.2458 H   0  0  0  0  0  0  0  0  0  0  0  0
   -1.3039   -1.8219    2.2706 H   0  0  0  0  0  0  0  0  0  0  0  0
   -2.1609   -0.9422    1.0007 H   0  0  0  0  0  0  0  0  0  0  0  0
   -1.2668   -0.0569    2.2458 H   0  0  0  0  0  0  0  0  0  0  0  0
  1  2  3  0
  1  5  1  0
  2  3  1  0
  3  4  2  3
  3 16  1  0
  4  6  1  0
  4  7  1  0
  8  9  2  3
  8 13  1  0
  8 14  1  0
  9 10  1  0
  9 15  1  0
 10 11  1  0
 10 12  1  0
 11 17  1  0
 11 18  1  0
 11 19  1  0
 12 20  1  0
 12 21  1  0
 12 22  1  0
M  RAD  1  10   2
M  END
>  <reaction>  (9) 
rxn_1110

>  <mol_properties>  (9) 
{"1": {"label": "*4", "atom_type": "Ct"}, "2": {"label": "*3", "atom_type": "Cd"}, "8": {"label": "*0", "atom_type": "Cd"}, "9": {"label": "*1", "atom_type": "Cs"}, "15": {"label": "*2", "atom_type": "H0"}}

>  <type>  (9) 
unop_5

>  <geom_source>  (9) 
Heuristics

$$$$

     RDKit          3D

 22 20  0  0  0  0  0  0  0  0999 V2000
    2.1055    2.1351   -1.3800 C   0  0  0  0  0  0  0  0  0  0  0  0
    1.0189    1.7373   -1.0645 C   0  0  0  0  0  0  0  0  0  0  0  0
   -0.2623    1.2346   -0.6931 C   0  0  0  0  0  0  0  0  0  0  0  0
   -1.2966    2.0044   -0.3714 C   0  0  0  0  0  0  0  0  0  0  0  0
    3.0690    2.4879   -1.6597 H   0  0  0  0  0  0  0  0  0  0  0  0
   -1.2205    3.0842   -0.3739 H   0  0  0  0  0  0  0  0  0  0  0  0
   -2.2472    1.5668   -0.0970 H   0  0  0  0  0  0  0  0  0  0  0  0
   -0.2623   -2.0904   -1.3345 C   0  0  0  0  0  0  0  0  0  0  0  0
   -0.2623   -2.0904   -0.0110 C   0  0  0  0  0  0  0  0  0  0  0  0
   -0.2623   -0.8690    0.8610 C   0  0  0  0  0  3  0  0  0  0  0  0
    0.9970   -0.8286    1.7287 C   0  0  0  0  0  0  0  0  0  0  0  0
   -1.5216   -0.8286    1.7287 C   0  0  0  0  0  0  0  0  0  0  0  0
   -0.2623   -3.0121   -1.9028 H   0  0  0  0  0  0  0  0  0  0  0  0
   -0.2623   -1.1638   -1.8991 H   0  0  0  0  0  0  0  0  0  0  0  0
   -0.2623   -3.0417    0.5195 H   0  0  0  0  0  0  0  0  0  0  0  0
   -0.2623    0.1874    0.0806 H   0  0  0  0  0  0  0  0  0  0  0  0
    1.8985   -0.8227    1.1145 H   0  0  0  0  0  0  0  0  0  0  0  0
    1.0416   -1.7024    2.3845 H   0  0  0  0  0  0  0  0  0  0  0  0
    1.0045    0.0626    2.3596 H   0  0  0  0  0  0  0  0  0  0  0  0
   -1.5662   -1.7024    2.3845 H   0  0  0  0  0  0  0  0  0  0  0  0
   -2.4232   -0.8227    1.1145 H   0  0  0  0  0  0  0  0  0  0  0  0
   -1.5292    0.0626    2.3596 H   0  0  0  0  0  0  0  0  0  0  0  0
  1  2  3  0
  1  5  1  0
  2  3  1  0
  3  4  2  3
  3 16  1  0
  4  6  1  0
  4  7  1  0
  8  9  2  3
  8 13  1  0
  8 14  1  0
  9 10  1  0
  9 15  1  0
 10 11  1  0
 10 12  1  0
 11 17  1  0
 11 18  1  0
 11 19  1  0
 12 20  1  0
 12 21  1  0
 12 22  1  0
M  RAD  1  10   2
M  END
>  <reaction>  (10) 
rxn_1110

>  <mol_properties>  (10) 
{"1": {"label": "*4", "atom_type": "Ct"}, "2": {"label": "*3", "atom_type": "Cd"}, "8": {"label": "*0", "atom_type": "Cd"}, "9": {"label": "*1", "atom_type": "Cs"}, "15": {"label": "*2", "atom_type": "H0"}}

>  <type>  (10) 
unop_6

>  <geom_source>  (10) 
Heuristics

$$$$

     RDKit          3D

 22 20  0  0  0  0  0  0  0  0999 V2000
    1.8757    2.7689   -0.5271 C   0  0  0  0  0  0  0  0  0  0  0  0
    0.9258    2.0469   -0.6496 C   0  0  0  0  0  0  0  0  0  0  0  0
   -0.1837    1.1636   -0.7935 C   0  0  0  0  0  0  0  0  0  0  0  0
   -1.4418    1.5688   -0.9304 C   0  0  0  0  0  0  0  0  0  0  0  0
    2.7179    3.4091   -0.4184 H   0  0  0  0  0  0  0  0  0  0  0  0
   -1.6996    2.6201   -0.9404 H   0  0  0  0  0  0  0  0  0  0  0  0
   -2.2452    0.8519   -1.0360 H   0  0  0  0  0  0  0  0  0  0  0  0
   -0.1837   -2.1615   -1.4349 C   0  0  0  0  0  0  0  0  0  0  0  0
   -0.1837   -2.1615   -0.1114 C   0  0  0  0  0  0  0  0  0  0  0  0
   -0.1837   -0.9401    0.7606 C   0  0  0  0  0  3  0  0  0  0  0  0
    1.0756   -0.8997    1.6283 C   0  0  0  0  0  0  0  0  0  0  0  0
   -1.4430   -0.8997    1.6283 C   0  0  0  0  0  0  0  0  0  0  0  0
   -0.1837   -3.0832   -2.0032 H   0  0  0  0  0  0  0  0  0  0  0  0
   -0.1837   -1.2349   -1.9995 H   0  0  0  0  0  0  0  0  0  0  0  0
   -0.1837   -3.1128    0.4191 H   0  0  0  0  0  0  0  0  0  0  0  0
   -0.1837    0.1163   -0.0198 H   0  0  0  0  0  0  0  0  0  0  0  0
    1.9771   -0.8938    1.0141 H   0  0  0  0  0  0  0  0  0  0  0  0
    1.1202   -1.7735    2.2841 H   0  0  0  0  0  0  0  0  0  0  0  0
    1.0831   -0.0085    2.2593 H   0  0  0  0  0  0  0  0  0  0  0  0
   -1.4876   -1.7735    2.2841 H   0  0  0  0  0  0  0  0  0  0  0  0
   -2.3446   -0.8938    1.0141 H   0  0  0  0  0  0  0  0  0  0  0  0
   -1.4506   -0.0085    2.2593 H   0  0  0  0  0  0  0  0  0  0  0  0
  1  2  3  0
  1  5  1  0
  2  3  1  0
  3  4  2  3
  3 16  1  0
  4  6  1  0
  4  7  1  0
  8  9  2  3
  8 13  1  0
  8 14  1  0
  9 10  1  0
  9 15  1  0
 10 11  1  0
 10 12  1  0
 11 17  1  0
 11 18  1  0
 11 19  1  0
 12 20  1  0
 12 21  1  0
 12 22  1  0
M  RAD  1  10   2
M  END
>  <reaction>  (11) 
rxn_1110

>  <mol_properties>  (11) 
{"1": {"label": "*4", "atom_type": "Ct"}, "2": {"label": "*3", "atom_type": "Cd"}, "8": {"label": "*0", "atom_type": "Cd"}, "9": {"label": "*1", "atom_type": "Cs"}, "15": {"label": "*2", "atom_type": "H0"}}

>  <type>  (11) 
unop_7

>  <geom_source>  (11) 
Heuristics

$$$$

     RDKit          3D

 22 20  0  0  0  0  0  0  0  0999 V2000
   -2.1055    2.1351   -1.3800 C   0  0  0  0  0  0  0  0  0  0  0  0
   -1.0189    1.7373   -1.0645 C   0  0  0  0  0  0  0  0  0  0  0  0
    0.2623    1.2346   -0.6931 C   0  0  0  0  0  0  0  0  0  0  0  0
    1.2966    2.0044   -0.3714 C   0  0  0  0  0  0  0  0  0  0  0  0
   -3.0690    2.4879   -1.6597 H   0  0  0  0  0  0  0  0  0  0  0  0
    1.2205    3.0842   -0.3738 H   0  0  0  0  0  0  0  0  0  0  0  0
    2.2472    1.5668   -0.0970 H   0  0  0  0  0  0  0  0  0  0  0  0
    0.2623   -2.0904   -1.3345 C   0  0  0  0  0  0  0  0  0  0  0  0
    0.2623   -2.0904   -0.0110 C   0  0  0  0  0  0  0  0  0  0  0  0
    0.2623   -0.8690    0.8610 C   0  0  0  0  0  3  0  0  0  0  0  0
    1.5216   -0.8286    1.7287 C   0  0  0  0  0  0  0  0  0  0  0  0
   -0.9970   -0.8286    1.7287 C   0  0  0  0  0  0  0  0  0  0  0  0
    0.2623   -3.0121   -1.9028 H   0  0  0  0  0  0  0  0  0  0  0  0
    0.2623   -1.1638   -1.8991 H   0  0  0  0  0  0  0  0  0  0  0  0
    0.2623   -3.0417    0.5195 H   0  0  0  0  0  0  0  0  0  0  0  0
    0.2623    0.1874    0.0806 H   0  0  0  0  0  0  0  0  0  0  0  0
    2.4232   -0.8227    1.1145 H   0  0  0  0  0  0  0  0  0  0  0  0
    1.5662   -1.7024    2.3845 H   0  0  0  0  0  0  0  0  0  0  0  0
    1.5292    0.0626    2.3596 H   0  0  0  0  0  0  0  0  0  0  0  0
   -1.0416   -1.7024    2.3845 H   0  0  0  0  0  0  0  0  0  0  0  0
   -1.8985   -0.8227    1.1145 H   0  0  0  0  0  0  0  0  0  0  0  0
   -1.0045    0.0626    2.3596 H   0  0  0  0  0  0  0  0  0  0  0  0
  1  2  3  0
  1  5  1  0
  2  3  1  0
  3  4  2  3
  3 16  1  0
  4  6  1  0
  4  7  1  0
  8  9  2  3
  8 13  1  0
  8 14  1  0
  9 10  1  0
  9 15  1  0
 10 11  1  0
 10 12  1  0
 11 17  1  0
 11 18  1  0
 11 19  1  0
 12 20  1  0
 12 21  1  0
 12 22  1  0
M  RAD  1  10   2
M  END
>  <reaction>  (12) 
rxn_1110

>  <mol_properties>  (12) 
{"1": {"label": "*4", "atom_type": "Ct"}, "2": {"label": "*3", "atom_type": "Cd"}, "8": {"label": "*0", "atom_type": "Cd"}, "9": {"label": "*1", "atom_type": "Cs"}, "15": {"label": "*2", "atom_type": "H0"}}

>  <type>  (12) 
unop_8

>  <geom_source>  (12) 
Heuristics

$$$$

     RDKit          3D

 22 20  0  0  0  0  0  0  0  0999 V2000
    1.0172    1.0696   -2.7762 C   0  0  0  0  0  0  0  0  0  0  0  0
    0.4798    1.2280   -1.7156 C   0  0  0  0  0  0  0  0  0  0  0  0
   -0.1608    1.3846   -0.4518 C   0  0  0  0  0  0  0  0  0  0  0  0
   -0.4310    2.5618    0.1021 C   0  0  0  0  0  0  0  0  0  0  0  0
    1.4936    0.9293   -3.7165 H   0  0  0  0  0  0  0  0  0  0  0  0
   -0.1725    3.4910   -0.3894 H   0  0  0  0  0  0  0  0  0  0  0  0
   -0.9200    2.6202    1.0655 H   0  0  0  0  0  0  0  0  0  0  0  0
   -0.1608   -1.9404   -1.0933 C   0  0  0  0  0  0  0  0  0  0  0  0
   -0.1608   -1.9404    0.2302 C   0  0  0  0  0  0  0  0  0  0  0  0
   -0.1608   -0.7191    1.1023 C   0  0  0  0  0  3  0  0  0  0  0  0
    1.0985   -0.6786    1.9699 C   0  0  0  0  0  0  0  0  0  0  0  0
   -1.4201   -0.6786    1.9699 C   0  0  0  0  0  0  0  0  0  0  0  0
   -0.1608   -2.8622   -1.6615 H   0  0  0  0  0  0  0  0  0  0  0  0
   -0.1608   -1.0139   -1.6578 H   0  0  0  0  0  0  0  0  0  0  0  0
   -0.1608   -2.8917    0.7608 H   0  0  0  0  0  0  0  0  0  0  0  0
   -0.1608    0.3373    0.3218 H   0  0  0  0  0  0  0  0  0  0  0  0
    2.0001   -0.6727    1.3558 H   0  0  0  0  0  0  0  0  0  0  0  0
    1.1431   -1.5525    2.6257 H   0  0  0  0  0  0  0  0  0  0  0  0
    1.1061    0.2126    2.6009 H   0  0  0  0  0  0  0  0  0  0  0  0
   -1.4647   -1.5525    2.6257 H   0  0  0  0  0  0  0  0  0  0  0  0
   -2.3216   -0.6727    1.3558 H   0  0  0  0  0  0  0  0  0  0  0  0
   -1.4276    0.2126    2.6009 H   0  0  0  0  0  0  0  0  0  0  0  0
  1  2  3  0
  1  5  1  0
  2  3  1  0
  3  4  2  3
  3 16  1  0
  4  6  1  0
  4  7  1  0
  8  9  2  3
  8 13  1  0
  8 14  1  0
  9 10  1  0
  9 15  1  0
 10 11  1  0
 10 12  1  0
 11 17  1  0
 11 18  1  0
 11 19  1  0
 12 20  1  0
 12 21  1  0
 12 22  1  0
M  RAD  1  10   2
M  END
>  <reaction>  (13) 
rxn_1110

>  <mol_properties>  (13) 
{"1": {"label": "*4", "atom_type": "Ct"}, "2": {"label": "*3", "atom_type": "Cd"}, "8": {"label": "*0", "atom_type": "Cd"}, "9": {"label": "*1", "atom_type": "Cs"}, "15": {"label": "*2", "atom_type": "H0"}}

>  <type>  (13) 
unop_9

>  <geom_source>  (13) 
Heuristics

$$$$

     RDKit          3D

 22 20  0  0  0  0  0  0  0  0999 V2000
   -1.7867    1.5157   -2.1972 C   0  0  0  0  0  0  0  0  0  0  0  0
   -0.8518    1.4397   -1.4497 C   0  0  0  0  0  0  0  0  0  0  0  0
    0.2577    1.3176   -0.5631 C   0  0  0  0  0  0  0  0  0  0  0  0
    0.8988    2.3524   -0.0301 C   0  0  0  0  0  0  0  0  0  0  0  0
   -2.6156    1.5831   -2.8600 H   0  0  0  0  0  0  0  0  0  0  0  0
    0.6056    3.3717   -0.2460 H   0  0  0  0  0  0  0  0  0  0  0  0
    1.7361    2.1995    0.6378 H   0  0  0  0  0  0  0  0  0  0  0  0
    0.2577   -2.0074   -1.2045 C   0  0  0  0  0  0  0  0  0  0  0  0
    0.2577   -2.0074    0.1190 C   0  0  0  0  0  0  0  0  0  0  0  0
    0.2577   -0.7860    0.9910 C   0  0  0  0  0  3  0  0  0  0  0  0
    1.5170   -0.7456    1.8587 C   0  0  0  0  0  0  0  0  0  0  0  0
   -1.0016   -0.7456    1.8587 C   0  0  0  0  0  0  0  0  0  0  0  0
    0.2577   -2.9291   -1.7728 H   0  0  0  0  0  0  0  0  0  0  0  0
    0.2577   -1.0808   -1.7691 H   0  0  0  0  0  0  0  0  0  0  0  0
    0.2577   -2.9587    0.6495 H   0  0  0  0  0  0  0  0  0  0  0  0
    0.2577    0.2704    0.2106 H   0  0  0  0  0  0  0  0  0  0  0  0
    2.4186   -0.7397    1.2445 H   0  0  0  0  0  0  0  0  0  0  0  0
    1.5616   -1.6194    2.5145 H   0  0  0  0  0  0  0  0  0  0  0  0
    1.5246    0.1456    2.4897 H   0  0  0  0  0  0  0  0  0  0  0  0
   -1.0462   -1.6194    2.5145 H   0  0  0  0  0  0  0  0  0  0  0  0
   -1.9031   -0.7397    1.2445 H   0  0  0  0  0  0  0  0  0  0  0  0
   -1.0091    0.1456    2.4897 H   0  0  0  0  0  0  0  0  0  0  0  0
  1  2  3  0
  1  5  1  0
  2  3  1  0
  3  4  2  3
  3 16  1  0
  4  6  1  0
  4  7  1  0
  8  9  2  3
  8 13  1  0
  8 14  1  0
  9 10  1  0
  9 15  1  0
 10 11  1  0
 10 12  1  0
 11 17  1  0
 11 18  1  0
 11 19  1  0
 12 20  1  0
 12 21  1  0
 12 22  1  0
M  RAD  1  10   2
M  END
>  <reaction>  (14) 
rxn_1110

>  <mol_properties>  (14) 
{"1": {"label": "*4", "atom_type": "Ct"}, "2": {"label": "*3", "atom_type": "Cd"}, "8": {"label": "*0", "atom_type": "Cd"}, "9": {"label": "*1", "atom_type": "Cs"}, "15": {"label": "*2", "atom_type": "H0"}}

>  <type>  (14) 
unop_10

>  <geom_source>  (14) 
Heuristics

$$$$

     RDKit          3D

 22 20  0  0  0  0  0  0  0  0999 V2000
    1.1293    3.2480    0.1468 C   0  0  0  0  0  0  0  0  0  0  0  0
    0.5731    2.2861   -0.3047 C   0  0  0  0  0  0  0  0  0  0  0  0
   -0.0675    1.1241   -0.8258 C   0  0  0  0  0  0  0  0  0  0  0  0
   -1.1155    1.1577   -1.6421 C   0  0  0  0  0  0  0  0  0  0  0  0
    1.6224    4.1009    0.5472 H   0  0  0  0  0  0  0  0  0  0  0  0
   -1.5515    2.0945   -1.9645 H   0  0  0  0  0  0  0  0  0  0  0  0
   -1.5616    0.2421   -2.0070 H   0  0  0  0  0  0  0  0  0  0  0  0
   -0.0675   -2.2009   -1.4672 C   0  0  0  0  0  0  0  0  0  0  0  0
   -0.0675   -2.2009   -0.1437 C   0  0  0  0  0  0  0  0  0  0  0  0
   -0.0675   -0.9796    0.7283 C   0  0  0  0  0  3  0  0  0  0  0  0
    1.1918   -0.9391    1.5960 C   0  0  0  0  0  0  0  0  0  0  0  0
   -1.3268   -0.9391    1.5960 C   0  0  0  0  0  0  0  0  0  0  0  0
   -0.0675   -3.1227   -2.0355 H   0  0  0  0  0  0  0  0  0  0  0  0
   -0.0675   -1.2744   -2.0318 H   0  0  0  0  0  0  0  0  0  0  0  0
   -0.0675   -3.1522    0.3868 H   0  0  0  0  0  0  0  0  0  0  0  0
   -0.0675    0.0768   -0.0521 H   0  0  0  0  0  0  0  0  0  0  0  0
    2.0934   -0.9332    0.9818 H   0  0  0  0  0  0  0  0  0  0  0  0
    1.2364   -1.8130    2.2518 H   0  0  0  0  0  0  0  0  0  0  0  0
    1.1993   -0.0479    2.2270 H   0  0  0  0  0  0  0  0  0  0  0  0
   -1.3714   -1.8130    2.2518 H   0  0  0  0  0  0  0  0  0  0  0  0
   -2.2284   -0.9332    0.9818 H   0  0  0  0  0  0  0  0  0  0  0  0
   -1.3343   -0.0479    2.2270 H   0  0  0  0  0  0  0  0  0  0  0  0
  1  2  3  0
  1  5  1  0
  2  3  1  0
  3  4  2  3
  3 16  1  0
  4  6  1  0
  4  7  1  0
  8  9  2  3
  8 13  1  0
  8 14  1  0
  9 10  1  0
  9 15  1  0
 10 11  1  0
 10 12  1  0
 11 17  1  0
 11 18  1  0
 11 19  1  0
 12 20  1  0
 12 21  1  0
 12 22  1  0
M  RAD  1  10   2
M  END
>  <reaction>  (15) 
rxn_1110

>  <mol_properties>  (15) 
{"1": {"label": "*4", "atom_type": "Ct"}, "2": {"label": "*3", "atom_type": "Cd"}, "8": {"label": "*0", "atom_type": "Cd"}, "9": {"label": "*1", "atom_type": "Cs"}, "15": {"label": "*2", "atom_type": "H0"}}

>  <type>  (15) 
unop_11

>  <geom_source>  (15) 
Heuristics

$$$$

     RDKit          3D

 22 20  0  0  0  0  0  0  0  0999 V2000
    0.0000    0.9079   -2.9835 C   0  0  0  0  0  0  0  0  0  0  0  0
    0.0000    1.1518   -1.8091 C   0  0  0  0  0  0  0  0  0  0  0  0
    0.0000    1.4104   -0.4073 C   0  0  0  0  0  0  0  0  0  0  0  0
    0.0000    2.6291    0.1223 C   0  0  0  0  0  0  0  0  0  0  0  0
    0.0000    0.6917   -4.0248 H   0  0  0  0  0  0  0  0  0  0  0  0
    0.0000    3.5157   -0.4986 H   0  0  0  0  0  0  0  0  0  0  0  0
    0.0000    2.7654    1.1956 H   0  0  0  0  0  0  0  0  0  0  0  0
   -0.0000   -1.9147   -1.0487 C   0  0  0  0  0  0  0  0  0  0  0  0
   -0.0000   -1.9147    0.2748 C   0  0  0  0  0  0  0  0  0  0  0  0
   -0.0000   -0.6933    1.1468 C   0  0  0  0  0  3  0  0  0  0  0  0
    1.2593   -0.6528    2.0145 C   0  0  0  0  0  0  0  0  0  0  0  0
   -1.2593   -0.6528    2.0145 C   0  0  0  0  0  0  0  0  0  0  0  0
   -0.0000   -2.8364   -1.6170 H   0  0  0  0  0  0  0  0  0  0  0  0
   -0.0000   -0.9881   -1.6133 H   0  0  0  0  0  0  0  0  0  0  0  0
   -0.0000   -2.8660    0.8053 H   0  0  0  0  0  0  0  0  0  0  0  0
    0.0000    0.3631    0.3664 H   0  0  0  0  0  0  0  0  0  0  0  0
    2.1609   -0.6469    1.4003 H   0  0  0  0  0  0  0  0  0  0  0  0
    1.3039   -1.5267    2.6703 H   0  0  0  0  0  0  0  0  0  0  0  0
    1.2668    0.2384    2.6455 H   0  0  0  0  0  0  0  0  0  0  0  0
   -1.3039   -1.5267    2.6703 H   0  0  0  0  0  0  0  0  0  0  0  0
   -2.1609   -0.6469    1.4003 H   0  0  0  0  0  0  0  0  0  0  0  0
   -1.2668    0.2384    2.6455 H   0  0  0  0  0  0  0  0  0  0  0  0
  1  2  3  0
  1  5  1  0
  2  3  1  0
  3  4  2  3
  3 16  1  0
  4  6  1  0
  4  7  1  0
  8  9  2  3
  8 13  1  0
  8 14  1  0
  9 10  1  0
  9 15  1  0
 10 11  1  0
 10 12  1  0
 11 17  1  0
 11 18  1  0
 11 19  1  0
 12 20  1  0
 12 21  1  0
 12 22  1  0
M  RAD  1  10   2
M  END
>  <reaction>  (16) 
rxn_1110

>  <mol_properties>  (16) 
{"1": {"label": "*4", "atom_type": "Ct"}, "2": {"label": "*3", "atom_type": "Cd"}, "8": {"label": "*0", "atom_type": "Cd"}, "9": {"label": "*1", "atom_type": "Cs"}, "15": {"label": "*2", "atom_type": "H0"}}

>  <type>  (16) 
unop_12

>  <geom_source>  (16) 
Heuristics

$$$$

     RDKit          3D

 22 20  0  0  0  0  0  0  0  0999 V2000
   -0.9720   -1.5373   -0.6389 C   0  0  0  0  0  0  0  0  0  0  0  0
   -0.6396    0.8417   -1.4264 C   0  0  0  0  0  0  0  0  0  0  0  0
   -0.8678   -0.0709   -0.2223 C   0  0  0  0  0  3  0  0  0  0  0  0
   -2.0868    0.3530    0.5441 C   0  0  0  0  0  0  0  0  0  0  0  0
    1.6175   -0.1615    0.5011 C   0  0  0  0  0  0  0  0  0  0  0  0
   -1.9841    0.7578    1.8103 C   0  0  0  0  0  0  0  0  0  0  0  0
    2.1628   -1.1278    1.2306 C   0  0  0  0  0  0  0  0  0  0  0  0
    2.4378    0.7304   -0.2733 C   0  0  0  0  0  0  0  0  0  0  0  0
    3.1245    1.4786   -0.9228 C   0  0  0  0  0  0  0  0  0  0  0  0
   -0.0410   -1.8501   -1.1569 H   0  0  0  0  0  0  0  0  0  0  0  0
   -1.0997   -2.1767    0.2602 H   0  0  0  0  0  0  0  0  0  0  0  0
   -1.8363   -1.6921   -1.3204 H   0  0  0  0  0  0  0  0  0  0  0  0
   -1.4916    0.7754   -2.1372 H   0  0  0  0  0  0  0  0  0  0  0  0
    0.2942    0.5488   -1.9509 H   0  0  0  0  0  0  0  0  0  0  0  0
   -0.5310    1.8936   -1.0870 H   0  0  0  0  0  0  0  0  0  0  0  0
   -3.0614    0.3304    0.0643 H   0  0  0  0  0  0  0  0  0  0  0  0
    0.3717   -0.0212    0.4842 H   0  0  0  0  0  0  0  0  0  0  0  0
    1.5295   -1.7891    1.8067 H   0  0  0  0  0  0  0  0  0  0  0  0
    3.2366   -1.2692    1.2615 H   0  0  0  0  0  0  0  0  0  0  0  0
   -2.8707    1.0625    2.3568 H   0  0  0  0  0  0  0  0  0  0  0  0
   -1.0200    0.7882    2.3093 H   0  0  0  0  0  0  0  0  0  0  0  0
    3.7274    2.1354   -1.4930 H   0  0  0  0  0  0  0  0  0  0  0  0
  1  3  1  0
  1 10  1  0
  1 11  1  0
  1 12  1  0
  2  3  1  0
  2 13  1  0
  2 14  1  0
  2 15  1  0
  3  4  1  0
  4  6  2  3
  4 16  1  0
  5  7  2  3
  5  8  1  0
  5 17  1  0
  6 20  1  0
  6 21  1  0
  7 18  1  0
  7 19  1  0
  8  9  3  0
  9 22  1  0
M  RAD  1   3   2
M  END
>  <reaction>  (17) 
rxn_1110

>  <mol_properties>  (17) 
{"1": {"label": "*4", "atom_type": "Ct"}, "2": {"label": "*3", "atom_type": "Cd"}, "8": {"label": "*0", "atom_type": "Cd"}, "9": {"label": "*1", "atom_type": "Cs"}, "15": {"label": "*2", "atom_type": "H0"}}

>  <type>  (17) 
unop_13

>  <geom_source>  (17) 
AutoTST

$$$$
