
     RDKit          3D

  7  6  0  0  0  0  0  0  0  0999 V2000
    1.6964   -0.0938    0.0583 C   0  0  0  0  0  0  0  0  0  0  0  0
    0.5019   -0.0278    0.0173 C   0  0  0  0  0  0  0  0  0  0  0  0
   -0.9505    0.0525   -0.0327 C   0  0  0  0  0  0  0  0  0  0  0  0
    2.7574   -0.1524    0.0947 H   0  0  0  0  0  0  0  0  0  0  0  0
   -1.2692    0.9972   -0.4754 H   0  0  0  0  0  0  0  0  0  0  0  0
   -1.3749   -0.0147    0.9700 H   0  0  0  0  0  0  0  0  0  0  0  0
   -1.3610   -0.7611   -0.6323 H   0  0  0  0  0  0  0  0  0  0  0  0
  1  2  3  0
  1  4  1  0
  2  3  1  0
  3  5  1  0
  3  6  1  0
  3  7  1  0
M  END
>  <reaction>  (1) 
rxn_1253

>  <mol_properties>  (1) 
{"2": {"label": "donator", "atom_type": "Cs"}, "4": {"label": "d_hydrogen", "atom_type": "H0"}}

>  <type>  (1) 
r1h

$$$$

     RDKit          3D

  6  5  0  0  0  0  0  0  0  0999 V2000
   -0.5036    0.1196    0.0353 C   0  0  0  0  0  0  0  0  0  0  0  0
    0.9526    0.1121    0.2227 C   0  0  0  0  0  3  0  0  0  0  0  0
    2.2066   -0.6670   -0.2771 S   0  0  0  0  0  0  0  0  0  0  0  0
   -0.8527   -0.6450   -0.6655 H   0  0  0  0  0  0  0  0  0  0  0  0
   -0.8134    1.1060   -0.3189 H   0  0  0  0  0  0  0  0  0  0  0  0
   -0.9894   -0.0257    1.0035 H   0  0  0  0  0  0  0  0  0  0  0  0
  1  2  1  0
  1  4  1  0
  1  5  1  0
  1  6  1  0
  2  3  2  0
M  RAD  1   2   2
M  END
>  <reaction>  (2) 
rxn_1253

>  <mol_properties>  (2) 
{"1": {"label": "acceptor", "atom_type": "CS"}}

>  <type>  (2) 
r2

$$$$

     RDKit          3D

  7  6  0  0  0  0  0  0  0  0999 V2000
   -0.6782    0.0507    0.0301 C   0  0  0  0  0  0  0  0  0  0  0  0
    0.8092    0.0996    0.0213 C   0  0  0  0  0  0  0  0  0  0  0  0
    1.7473    0.7521    1.1507 S   0  0  0  0  0  0  0  0  0  0  0  0
   -1.0667    0.5456   -0.8653 H   0  0  0  0  0  0  0  0  0  0  0  0
   -1.0112   -0.9904   -0.0239 H   0  0  0  0  0  0  0  0  0  0  0  0
   -1.0920    0.5225    0.9188 H   0  0  0  0  0  0  0  0  0  0  0  0
    1.2740   -0.3620   -0.8520 H   0  0  0  0  0  0  0  0  0  0  0  0
  1  2  1  0
  1  4  1  0
  1  5  1  0
  1  6  1  0
  2  3  2  0
  2  7  1  0
M  END
>  <reaction>  (3) 
rxn_1253

>  <mol_properties>  (3) 
{"0": {"label": "a_hydrogen", "atom_type": "H0"}, "2": {"label": "acceptor", "atom_type": "CS"}}

>  <type>  (3) 
r2h

$$$$

     RDKit          3D

 13 11  0  0  0  0  0  0  0  0999 V2000
   -1.0483   -1.1558   -2.6844 C   0  0  0  0  0  0  0  0  0  0  0  0
   -0.5575   -1.4439   -1.6234 C   0  0  0  0  0  0  0  0  0  0  0  0
    0.0020   -1.7101   -0.3474 C   0  0  0  0  0  3  0  0  0  0  0  0
   -1.4742   -0.9302   -3.6321 H   0  0  0  0  0  0  0  0  0  0  0  0
   -0.1570   -0.5848    0.4216 H   0  0  0  0  0  0  0  0  0  0  0  0
    1.0821   -1.8341   -0.3296 H   0  0  0  0  0  0  0  0  0  0  0  0
   -0.5207   -2.4598    0.2417 H   0  0  0  0  0  0  0  0  0  0  0  0
   -1.1628    1.4593    0.2726 C   0  0  0  0  0  0  0  0  0  0  0  0
   -0.3457    0.5466    1.1008 C   0  0  0  0  0  0  0  0  0  0  0  0
    0.2967    0.6923    2.5398 S   0  0  0  0  0  0  0  0  0  0  0  0
   -1.3510    2.4137    0.7641 H   0  0  0  0  0  0  0  0  0  0  0  0
   -2.1093    0.9685    0.0289 H   0  0  0  0  0  0  0  0  0  0  0  0
   -0.6571    1.6205   -0.6836 H   0  0  0  0  0  0  0  0  0  0  0  0
  1  2  3  0
  1  4  1  0
  2  3  1  0
  3  6  1  0
  3  7  1  0
  5  9  1  0
  8  9  1  0
  8 11  1  0
  8 12  1  0
  8 13  1  0
  9 10  2  0
M  RAD  1   3   2
M  END
>  <reaction>  (4) 
rxn_1253

>  <mol_properties>  (4) 
{"1": {"label": "*4", "atom_type": "Ct"}, "2": {"label": "*3", "atom_type": "Cs"}, "4": {"label": "*2", "atom_type": "H0"}, "8": {"label": "*1", "atom_type": "CS"}, "9": {"label": "*0", "atom_type": "S2d"}}

>  <type>  (4) 
ts

$$$$

     RDKit          3D

 13 11  0  0  0  0  0  0  0  0999 V2000
   -0.4548   -1.6158   -2.9033 C   0  0  0  0  0  0  0  0  0  0  0  0
   -0.4548   -1.6158   -1.7063 C   0  0  0  0  0  0  0  0  0  0  0  0
   -0.4548   -1.6158   -0.2509 C   0  0  0  0  0  0  0  0  0  0  0  0
   -0.4548   -1.6158   -3.9666 H   0  0  0  0  0  0  0  0  0  0  0  0
   -0.3434   -0.3963    0.2116 H   0  0  0  0  0  0  0  0  0  0  0  0
    0.3789   -2.2044    0.1345 H   0  0  0  0  0  0  0  0  0  0  0  0
   -1.3814   -2.0435    0.1345 H   0  0  0  0  0  0  0  0  0  0  0  0
   -1.3677    1.2700    1.5261 C   0  0  0  0  0  0  0  0  0  0  0  0
   -0.2318    0.8242    0.6743 C   0  0  0  0  0  3  0  0  0  0  0  0
    1.3275    1.1009    0.9450 S   0  0  0  0  0  0  0  0  0  0  0  0
   -1.0256    1.8298    2.3940 H   0  0  0  0  0  0  0  0  0  0  0  0
   -1.9450    0.3996    1.8527 H   0  0  0  0  0  0  0  0  0  0  0  0
   -2.0498    1.8880    0.9339 H   0  0  0  0  0  0  0  0  0  0  0  0
  1  2  3  0
  1  4  1  0
  2  3  1  0
  3  5  1  0
  3  6  1  0
  3  7  1  0
  8  9  1  0
  8 11  1  0
  8 12  1  0
  8 13  1  0
  9 10  2  0
M  RAD  1   9   2
M  END
>  <reaction>  (5) 
rxn_1253

>  <mol_properties>  (5) 
{"1": {"label": "*4", "atom_type": "Ct"}, "2": {"label": "*3", "atom_type": "Cs"}, "4": {"label": "*2", "atom_type": "H0"}, "8": {"label": "*1", "atom_type": "CS"}, "9": {"label": "*0", "atom_type": "S2d"}}

>  <type>  (5) 
unop_1

>  <geom_source>  (5) 
Heuristics

$$$$

     RDKit          3D

 13 11  0  0  0  0  0  0  0  0999 V2000
   -0.1566   -1.6721   -3.0431 C   0  0  0  0  0  0  0  0  0  0  0  0
   -0.1566   -1.6721   -1.8461 C   0  0  0  0  0  0  0  0  0  0  0  0
   -0.1566   -1.6721   -0.3907 C   0  0  0  0  0  0  0  0  0  0  0  0
   -0.1566   -1.6721   -4.1064 H   0  0  0  0  0  0  0  0  0  0  0  0
   -0.0451   -0.4525    0.0718 H   0  0  0  0  0  0  0  0  0  0  0  0
    0.6771   -2.2607   -0.0053 H   0  0  0  0  0  0  0  0  0  0  0  0
   -1.0832   -2.0998   -0.0053 H   0  0  0  0  0  0  0  0  0  0  0  0
   -0.5169    1.8189   -0.3428 C   0  0  0  0  0  0  0  0  0  0  0  0
    0.0664    0.7680    0.5345 C   0  0  0  0  0  3  0  0  0  0  0  0
    0.4274    0.9204    2.0927 S   0  0  0  0  0  0  0  0  0  0  0  0
   -0.6845    2.7481    0.1976 H   0  0  0  0  0  0  0  0  0  0  0  0
   -1.4615    1.4619   -0.7647 H   0  0  0  0  0  0  0  0  0  0  0  0
    0.1505    2.0007   -1.1909 H   0  0  0  0  0  0  0  0  0  0  0  0
  1  2  3  0
  1  4  1  0
  2  3  1  0
  3  5  1  0
  3  6  1  0
  3  7  1  0
  8  9  1  0
  8 11  1  0
  8 12  1  0
  8 13  1  0
  9 10  2  0
M  RAD  1   9   2
M  END
>  <reaction>  (6) 
rxn_1253

>  <mol_properties>  (6) 
{"1": {"label": "*4", "atom_type": "Ct"}, "2": {"label": "*3", "atom_type": "Cs"}, "4": {"label": "*2", "atom_type": "H0"}, "8": {"label": "*1", "atom_type": "CS"}, "9": {"label": "*0", "atom_type": "S2d"}}

>  <type>  (6) 
unop_2

>  <geom_source>  (6) 
Heuristics

$$$$

     RDKit          3D

 13 11  0  0  0  0  0  0  0  0999 V2000
   -0.4520   -1.7314   -2.7134 C   0  0  0  0  0  0  0  0  0  0  0  0
   -0.4520   -1.7314   -1.5164 C   0  0  0  0  0  0  0  0  0  0  0  0
   -0.4520   -1.7314   -0.0610 C   0  0  0  0  0  0  0  0  0  0  0  0
   -0.4520   -1.7314   -3.7767 H   0  0  0  0  0  0  0  0  0  0  0  0
   -0.3405   -0.5118    0.4015 H   0  0  0  0  0  0  0  0  0  0  0  0
    0.3817   -2.3200    0.3244 H   0  0  0  0  0  0  0  0  0  0  0  0
   -1.3786   -2.1591    0.3244 H   0  0  0  0  0  0  0  0  0  0  0  0
   -0.8876    0.9352    2.1793 C   0  0  0  0  0  0  0  0  0  0  0  0
   -0.2290    0.7086    0.8642 C   0  0  0  0  0  3  0  0  0  0  0  0
    1.0859    1.4522    0.3168 S   0  0  0  0  0  0  0  0  0  0  0  0
   -0.3685    1.6905    2.7655 H   0  0  0  0  0  0  0  0  0  0  0  0
   -0.9238   -0.0051    2.7382 H   0  0  0  0  0  0  0  0  0  0  0  0
   -1.9266    1.2404    2.0214 H   0  0  0  0  0  0  0  0  0  0  0  0
  1  2  3  0
  1  4  1  0
  2  3  1  0
  3  5  1  0
  3  6  1  0
  3  7  1  0
  8  9  1  0
  8 11  1  0
  8 12  1  0
  8 13  1  0
  9 10  2  0
M  RAD  1   9   2
M  END
>  <reaction>  (7) 
rxn_1253

>  <mol_properties>  (7) 
{"1": {"label": "*4", "atom_type": "Ct"}, "2": {"label": "*3", "atom_type": "Cs"}, "4": {"label": "*2", "atom_type": "H0"}, "8": {"label": "*1", "atom_type": "CS"}, "9": {"label": "*0", "atom_type": "S2d"}}

>  <type>  (7) 
unop_3

>  <geom_source>  (7) 
Heuristics

$$$$

     RDKit          3D

 13 11  0  0  0  0  0  0  0  0999 V2000
   -0.0754   -1.6315   -3.0608 C   0  0  0  0  0  0  0  0  0  0  0  0
   -0.0754   -1.6315   -1.8638 C   0  0  0  0  0  0  0  0  0  0  0  0
   -0.0754   -1.6315   -0.4084 C   0  0  0  0  0  0  0  0  0  0  0  0
   -0.0754   -1.6315   -4.1241 H   0  0  0  0  0  0  0  0  0  0  0  0
    0.0360   -0.4119    0.0541 H   0  0  0  0  0  0  0  0  0  0  0  0
    0.7583   -2.2201   -0.0230 H   0  0  0  0  0  0  0  0  0  0  0  0
   -1.0020   -2.0592   -0.0230 H   0  0  0  0  0  0  0  0  0  0  0  0
    1.3890    1.5171    0.1028 C   0  0  0  0  0  0  0  0  0  0  0  0
    0.1476    0.8086    0.5168 C   0  0  0  0  0  3  0  0  0  0  0  0
   -0.6441    1.0041    1.9012 S   0  0  0  0  0  0  0  0  0  0  0  0
    1.7277    2.2160    0.8647 H   0  0  0  0  0  0  0  0  0  0  0  0
    1.2106    2.0519   -0.8352 H   0  0  0  0  0  0  0  0  0  0  0  0
    2.1769    0.7862   -0.1039 H   0  0  0  0  0  0  0  0  0  0  0  0
  1  2  3  0
  1  4  1  0
  2  3  1  0
  3  5  1  0
  3  6  1  0
  3  7  1  0
  8  9  1  0
  8 11  1  0
  8 12  1  0
  8 13  1  0
  9 10  2  0
M  RAD  1   9   2
M  END
>  <reaction>  (8) 
rxn_1253

>  <mol_properties>  (8) 
{"1": {"label": "*4", "atom_type": "Ct"}, "2": {"label": "*3", "atom_type": "Cs"}, "4": {"label": "*2", "atom_type": "H0"}, "8": {"label": "*1", "atom_type": "CS"}, "9": {"label": "*0", "atom_type": "S2d"}}

>  <type>  (8) 
unop_4

>  <geom_source>  (8) 
Heuristics

$$$$

     RDKit          3D

 13 11  0  0  0  0  0  0  0  0999 V2000
   -0.1705   -1.8652   -2.5821 C   0  0  0  0  0  0  0  0  0  0  0  0
   -0.1705   -1.8652   -1.3851 C   0  0  0  0  0  0  0  0  0  0  0  0
   -0.1705   -1.8652    0.0704 C   0  0  0  0  0  0  0  0  0  0  0  0
   -0.1705   -1.8652   -3.6454 H   0  0  0  0  0  0  0  0  0  0  0  0
   -0.0590   -0.6457    0.5328 H   0  0  0  0  0  0  0  0  0  0  0  0
    0.6632   -2.4538    0.4557 H   0  0  0  0  0  0  0  0  0  0  0  0
   -1.0971   -2.2929    0.4557 H   0  0  0  0  0  0  0  0  0  0  0  0
    0.0618    0.6760    2.4802 C   0  0  0  0  0  0  0  0  0  0  0  0
    0.0525    0.5748    0.9955 C   0  0  0  0  0  3  0  0  0  0  0  0
    0.1641    1.7956   -0.0430 S   0  0  0  0  0  0  0  0  0  0  0  0
    0.1560    1.7073    2.8136 H   0  0  0  0  0  0  0  0  0  0  0  0
    0.8872    0.0811    2.8833 H   0  0  0  0  0  0  0  0  0  0  0  0
   -0.8578    0.2406    2.8833 H   0  0  0  0  0  0  0  0  0  0  0  0
  1  2  3  0
  1  4  1  0
  2  3  1  0
  3  5  1  0
  3  6  1  0
  3  7  1  0
  8  9  1  0
  8 11  1  0
  8 12  1  0
  8 13  1  0
  9 10  2  0
M  RAD  1   9   2
M  END
>  <reaction>  (9) 
rxn_1253

>  <mol_properties>  (9) 
{"1": {"label": "*4", "atom_type": "Ct"}, "2": {"label": "*3", "atom_type": "Cs"}, "4": {"label": "*2", "atom_type": "H0"}, "8": {"label": "*1", "atom_type": "CS"}, "9": {"label": "*0", "atom_type": "S2d"}}

>  <type>  (9) 
unop_5

>  <geom_source>  (9) 
Heuristics

$$$$

     RDKit          3D

 13 11  0  0  0  0  0  0  0  0999 V2000
    0.0493   -1.6226   -3.0237 C   0  0  0  0  0  0  0  0  0  0  0  0
    0.0493   -1.6226   -1.8266 C   0  0  0  0  0  0  0  0  0  0  0  0
    0.0493   -1.6226   -0.3712 C   0  0  0  0  0  0  0  0  0  0  0  0
    0.0493   -1.6226   -4.0869 H   0  0  0  0  0  0  0  0  0  0  0  0
    0.1607   -0.4030    0.0912 H   0  0  0  0  0  0  0  0  0  0  0  0
    0.8830   -2.2112    0.0142 H   0  0  0  0  0  0  0  0  0  0  0  0
   -0.8773   -2.0503    0.0142 H   0  0  0  0  0  0  0  0  0  0  0  0
    1.6725    1.2715    0.7728 C   0  0  0  0  0  0  0  0  0  0  0  0
    0.2723    0.8174    0.5540 C   0  0  0  0  0  3  0  0  0  0  0  0
   -0.9848    1.1111    1.5105 S   0  0  0  0  0  0  0  0  0  0  0  0
    1.7701    1.8508    1.6885 H   0  0  0  0  0  0  0  0  0  0  0  0
    2.0008    1.8725   -0.0808 H   0  0  0  0  0  0  0  0  0  0  0  0
    2.3376    0.4033    0.8128 H   0  0  0  0  0  0  0  0  0  0  0  0
  1  2  3  0
  1  4  1  0
  2  3  1  0
  3  5  1  0
  3  6  1  0
  3  7  1  0
  8  9  1  0
  8 11  1  0
  8 12  1  0
  8 13  1  0
  9 10  2  0
M  RAD  1   9   2
M  END
>  <reaction>  (10) 
rxn_1253

>  <mol_properties>  (10) 
{"1": {"label": "*4", "atom_type": "Ct"}, "2": {"label": "*3", "atom_type": "Cs"}, "4": {"label": "*2", "atom_type": "H0"}, "8": {"label": "*1", "atom_type": "CS"}, "9": {"label": "*0", "atom_type": "S2d"}}

>  <type>  (10) 
unop_6

>  <geom_source>  (10) 
Heuristics

$$$$

     RDKit          3D

 13 11  0  0  0  0  0  0  0  0999 V2000
    0.1544   -1.6715   -2.9033 C   0  0  0  0  0  0  0  0  0  0  0  0
    0.1544   -1.6715   -1.7063 C   0  0  0  0  0  0  0  0  0  0  0  0
    0.1544   -1.6715   -0.2509 C   0  0  0  0  0  0  0  0  0  0  0  0
    0.1544   -1.6715   -3.9666 H   0  0  0  0  0  0  0  0  0  0  0  0
    0.2659   -0.4519    0.2116 H   0  0  0  0  0  0  0  0  0  0  0  0
    0.9881   -2.2601    0.1345 H   0  0  0  0  0  0  0  0  0  0  0  0
   -0.7722   -2.0992    0.1345 H   0  0  0  0  0  0  0  0  0  0  0  0
    1.5753    1.0011    1.5261 C   0  0  0  0  0  0  0  0  0  0  0  0
    0.3774    0.7685    0.6743 C   0  0  0  0  0  3  0  0  0  0  0  0
   -1.1060    1.3233    0.9450 S   0  0  0  0  0  0  0  0  0  0  0  0
    1.3403    1.6136    2.3940 H   0  0  0  0  0  0  0  0  0  0  0  0
    2.3580    1.4852    0.9339 H   0  0  0  0  0  0  0  0  0  0  0  0
    1.9853    0.0404    1.8526 H   0  0  0  0  0  0  0  0  0  0  0  0
  1  2  3  0
  1  4  1  0
  2  3  1  0
  3  5  1  0
  3  6  1  0
  3  7  1  0
  8  9  1  0
  8 11  1  0
  8 12  1  0
  8 13  1  0
  9 10  2  0
M  RAD  1   9   2
M  END
>  <reaction>  (11) 
rxn_1253

>  <mol_properties>  (11) 
{"1": {"label": "*4", "atom_type": "Ct"}, "2": {"label": "*3", "atom_type": "Cs"}, "4": {"label": "*2", "atom_type": "H0"}, "8": {"label": "*1", "atom_type": "CS"}, "9": {"label": "*0", "atom_type": "S2d"}}

>  <type>  (11) 
unop_7

>  <geom_source>  (11) 
Heuristics

$$$$

     RDKit          3D

 13 11  0  0  0  0  0  0  0  0999 V2000
   -0.3426   -1.5868   -3.0237 C   0  0  0  0  0  0  0  0  0  0  0  0
   -0.3426   -1.5868   -1.8266 C   0  0  0  0  0  0  0  0  0  0  0  0
   -0.3426   -1.5868   -0.3712 C   0  0  0  0  0  0  0  0  0  0  0  0
   -0.3426   -1.5868   -4.0869 H   0  0  0  0  0  0  0  0  0  0  0  0
   -0.2311   -0.3672    0.0912 H   0  0  0  0  0  0  0  0  0  0  0  0
    0.4911   -2.1754    0.0142 H   0  0  0  0  0  0  0  0  0  0  0  0
   -1.2692   -2.0145    0.0142 H   0  0  0  0  0  0  0  0  0  0  0  0
   -1.4143    1.5536    0.7728 C   0  0  0  0  0  0  0  0  0  0  0  0
   -0.1196    0.8532    0.5540 C   0  0  0  0  0  3  0  0  0  0  0  0
    1.1699    0.9142    1.5105 S   0  0  0  0  0  0  0  0  0  0  0  0
   -1.4053    2.1410    1.6885 H   0  0  0  0  0  0  0  0  0  0  0  0
   -2.2257    0.8204    0.8129 H   0  0  0  0  0  0  0  0  0  0  0  0
   -1.6282    2.2042   -0.0808 H   0  0  0  0  0  0  0  0  0  0  0  0
  1  2  3  0
  1  4  1  0
  2  3  1  0
  3  5  1  0
  3  6  1  0
  3  7  1  0
  8  9  1  0
  8 11  1  0
  8 12  1  0
  8 13  1  0
  9 10  2  0
M  RAD  1   9   2
M  END
>  <reaction>  (12) 
rxn_1253

>  <mol_properties>  (12) 
{"1": {"label": "*4", "atom_type": "Ct"}, "2": {"label": "*3", "atom_type": "Cs"}, "4": {"label": "*2", "atom_type": "H0"}, "8": {"label": "*1", "atom_type": "CS"}, "9": {"label": "*0", "atom_type": "S2d"}}

>  <type>  (12) 
unop_8

>  <geom_source>  (12) 
Heuristics

$$$$

     RDKit          3D

 13 11  0  0  0  0  0  0  0  0999 V2000
   -0.1491   -1.6728   -3.0431 C   0  0  0  0  0  0  0  0  0  0  0  0
   -0.1491   -1.6728   -1.8461 C   0  0  0  0  0  0  0  0  0  0  0  0
   -0.1491   -1.6728   -0.3907 C   0  0  0  0  0  0  0  0  0  0  0  0
   -0.1491   -1.6728   -4.1064 H   0  0  0  0  0  0  0  0  0  0  0  0
   -0.0376   -0.4532    0.0718 H   0  0  0  0  0  0  0  0  0  0  0  0
    0.6846   -2.2613   -0.0053 H   0  0  0  0  0  0  0  0  0  0  0  0
   -1.0757   -2.1005   -0.0053 H   0  0  0  0  0  0  0  0  0  0  0  0
    0.8380    1.6951   -0.3428 C   0  0  0  0  0  0  0  0  0  0  0  0
    0.0739    0.7673    0.5345 C   0  0  0  0  0  3  0  0  0  0  0  0
   -0.2535    0.9827    2.0927 S   0  0  0  0  0  0  0  0  0  0  0  0
    1.1714    2.5785    0.1976 H   0  0  0  0  0  0  0  0  0  0  0  0
    0.2146    1.9948   -1.1909 H   0  0  0  0  0  0  0  0  0  0  0  0
    1.7023    1.1727   -0.7647 H   0  0  0  0  0  0  0  0  0  0  0  0
  1  2  3  0
  1  4  1  0
  2  3  1  0
  3  5  1  0
  3  6  1  0
  3  7  1  0
  8  9  1  0
  8 11  1  0
  8 12  1  0
  8 13  1  0
  9 10  2  0
M  RAD  1   9   2
M  END
>  <reaction>  (13) 
rxn_1253

>  <mol_properties>  (13) 
{"1": {"label": "*4", "atom_type": "Ct"}, "2": {"label": "*3", "atom_type": "Cs"}, "4": {"label": "*2", "atom_type": "H0"}, "8": {"label": "*1", "atom_type": "CS"}, "9": {"label": "*0", "atom_type": "S2d"}}

>  <type>  (13) 
unop_9

>  <geom_source>  (13) 
Heuristics

$$$$

     RDKit          3D

 13 11  0  0  0  0  0  0  0  0999 V2000
   -0.2216   -1.6181   -3.0608 C   0  0  0  0  0  0  0  0  0  0  0  0
   -0.2216   -1.6181   -1.8638 C   0  0  0  0  0  0  0  0  0  0  0  0
   -0.2216   -1.6181   -0.4084 C   0  0  0  0  0  0  0  0  0  0  0  0
   -0.2216   -1.6181   -4.1241 H   0  0  0  0  0  0  0  0  0  0  0  0
   -0.1101   -0.3986    0.0541 H   0  0  0  0  0  0  0  0  0  0  0  0
    0.6122   -2.2067   -0.0230 H   0  0  0  0  0  0  0  0  0  0  0  0
   -1.1481   -2.0458   -0.0230 H   0  0  0  0  0  0  0  0  0  0  0  0
   -1.0910    1.7437    0.1028 C   0  0  0  0  0  0  0  0  0  0  0  0
    0.0014    0.8219    0.5168 C   0  0  0  0  0  3  0  0  0  0  0  0
    0.8154    0.8707    1.9012 S   0  0  0  0  0  0  0  0  0  0  0  0
   -1.2973    2.4925    0.8647 H   0  0  0  0  0  0  0  0  0  0  0  0
   -1.9983    1.1678   -0.1038 H   0  0  0  0  0  0  0  0  0  0  0  0
   -0.8186    2.2373   -0.8353 H   0  0  0  0  0  0  0  0  0  0  0  0
  1  2  3  0
  1  4  1  0
  2  3  1  0
  3  5  1  0
  3  6  1  0
  3  7  1  0
  8  9  1  0
  8 11  1  0
  8 12  1  0
  8 13  1  0
  9 10  2  0
M  RAD  1   9   2
M  END
>  <reaction>  (14) 
rxn_1253

>  <mol_properties>  (14) 
{"1": {"label": "*4", "atom_type": "Ct"}, "2": {"label": "*3", "atom_type": "Cs"}, "4": {"label": "*2", "atom_type": "H0"}, "8": {"label": "*1", "atom_type": "CS"}, "9": {"label": "*0", "atom_type": "S2d"}}

>  <type>  (14) 
unop_10

>  <geom_source>  (14) 
Heuristics

$$$$

     RDKit          3D

 13 11  0  0  0  0  0  0  0  0999 V2000
    0.1306   -1.7847   -2.7134 C   0  0  0  0  0  0  0  0  0  0  0  0
    0.1306   -1.7847   -1.5164 C   0  0  0  0  0  0  0  0  0  0  0  0
    0.1306   -1.7847   -0.0610 C   0  0  0  0  0  0  0  0  0  0  0  0
    0.1306   -1.7847   -3.7767 H   0  0  0  0  0  0  0  0  0  0  0  0
    0.2421   -0.5651    0.4015 H   0  0  0  0  0  0  0  0  0  0  0  0
    0.9643   -2.3732    0.3244 H   0  0  0  0  0  0  0  0  0  0  0  0
   -0.7960   -2.2124    0.3244 H   0  0  0  0  0  0  0  0  0  0  0  0
    1.0424    0.7588    2.1793 C   0  0  0  0  0  0  0  0  0  0  0  0
    0.3536    0.6554    0.8642 C   0  0  0  0  0  3  0  0  0  0  0  0
   -0.8046    1.6250    0.3168 S   0  0  0  0  0  0  0  0  0  0  0  0
    0.6688    1.5957    2.7656 H   0  0  0  0  0  0  0  0  0  0  0  0
    2.1196    0.8706    2.0214 H   0  0  0  0  0  0  0  0  0  0  0  0
    0.9076   -0.1724    2.7382 H   0  0  0  0  0  0  0  0  0  0  0  0
  1  2  3  0
  1  4  1  0
  2  3  1  0
  3  5  1  0
  3  6  1  0
  3  7  1  0
  8  9  1  0
  8 11  1  0
  8 12  1  0
  8 13  1  0
  9 10  2  0
M  RAD  1   9   2
M  END
>  <reaction>  (15) 
rxn_1253

>  <mol_properties>  (15) 
{"1": {"label": "*4", "atom_type": "Ct"}, "2": {"label": "*3", "atom_type": "Cs"}, "4": {"label": "*2", "atom_type": "H0"}, "8": {"label": "*1", "atom_type": "CS"}, "9": {"label": "*0", "atom_type": "S2d"}}

>  <type>  (15) 
unop_11

>  <geom_source>  (15) 
Heuristics

$$$$

     RDKit          3D

 13 11  0  0  0  0  0  0  0  0999 V2000
   -0.1552   -1.6982   -3.0263 C   0  0  0  0  0  0  0  0  0  0  0  0
   -0.1552   -1.6982   -1.8292 C   0  0  0  0  0  0  0  0  0  0  0  0
   -0.1552   -1.6982   -0.3738 C   0  0  0  0  0  0  0  0  0  0  0  0
   -0.1552   -1.6982   -4.0896 H   0  0  0  0  0  0  0  0  0  0  0  0
   -0.0437   -0.4786    0.0886 H   0  0  0  0  0  0  0  0  0  0  0  0
    0.6785   -2.2868    0.0115 H   0  0  0  0  0  0  0  0  0  0  0  0
   -1.0818   -2.1259    0.0115 H   0  0  0  0  0  0  0  0  0  0  0  0
    0.1641    1.7950   -0.4956 C   0  0  0  0  0  0  0  0  0  0  0  0
    0.0678    0.7418    0.5514 C   0  0  0  0  0  3  0  0  0  0  0  0
    0.0890    0.9743    2.1410 S   0  0  0  0  0  0  0  0  0  0  0  0
    0.2548    2.7884   -0.0612 H   0  0  0  0  0  0  0  0  0  0  0  0
   -0.7195    1.7535   -1.1400 H   0  0  0  0  0  0  0  0  0  0  0  0
    1.0255    1.5940   -1.1400 H   0  0  0  0  0  0  0  0  0  0  0  0
  1  2  3  0
  1  4  1  0
  2  3  1  0
  3  5  1  0
  3  6  1  0
  3  7  1  0
  8  9  1  0
  8 11  1  0
  8 12  1  0
  8 13  1  0
  9 10  2  0
M  RAD  1   9   2
M  END
>  <reaction>  (16) 
rxn_1253

>  <mol_properties>  (16) 
{"1": {"label": "*4", "atom_type": "Ct"}, "2": {"label": "*3", "atom_type": "Cs"}, "4": {"label": "*2", "atom_type": "H0"}, "8": {"label": "*1", "atom_type": "CS"}, "9": {"label": "*0", "atom_type": "S2d"}}

>  <type>  (16) 
unop_12

>  <geom_source>  (16) 
Heuristics

$$$$

     RDKit          3D

 13 11  0  0  0  0  0  0  0  0999 V2000
   -2.4675   -1.6288    0.1380 S   0  0  0  0  0  0  0  0  0  0  0  0
   -1.7316    0.8066   -0.0166 C   0  0  0  0  0  0  0  0  0  0  0  0
   -1.4202   -0.6465    0.1533 C   0  0  0  0  0  0  0  0  0  0  0  0
    1.1341   -1.1207   -0.1213 C   0  0  0  0  0  3  0  0  0  0  0  0
    1.8494    0.1512   -0.0161 C   0  0  0  0  0  0  0  0  0  0  0  0
    2.4386    1.1993    0.0706 C   0  0  0  0  0  0  0  0  0  0  0  0
   -2.4028    1.1549    0.7975 H   0  0  0  0  0  0  0  0  0  0  0  0
   -2.2167    0.9845   -1.0003 H   0  0  0  0  0  0  0  0  0  0  0  0
   -0.7889    1.3903    0.0256 H   0  0  0  0  0  0  0  0  0  0  0  0
   -0.1575   -1.0351    0.3208 H   0  0  0  0  0  0  0  0  0  0  0  0
    1.2815   -1.5456   -1.1356 H   0  0  0  0  0  0  0  0  0  0  0  0
    1.5256   -1.8296    0.6370 H   0  0  0  0  0  0  0  0  0  0  0  0
    2.9559    2.1194    0.1468 H   0  0  0  0  0  0  0  0  0  0  0  0
  1  3  2  0
  2  3  1  0
  2  7  1  0
  2  8  1  0
  2  9  1  0
  3 10  1  0
  4  5  1  0
  4 11  1  0
  4 12  1  0
  5  6  3  0
  6 13  1  0
M  RAD  1   4   2
M  END
>  <reaction>  (17) 
rxn_1253

>  <mol_properties>  (17) 
{"1": {"label": "*4", "atom_type": "Ct"}, "2": {"label": "*3", "atom_type": "Cs"}, "4": {"label": "*2", "atom_type": "H0"}, "8": {"label": "*1", "atom_type": "CS"}, "9": {"label": "*0", "atom_type": "S2d"}}

>  <type>  (17) 
unop_13

>  <geom_source>  (17) 
AutoTST

$$$$

     RDKit          3D

 13 11  0  0  0  0  0  0  0  0999 V2000
   -0.1566   -1.6721   -3.0431 C   0  0  0  0  0  0  0  0  0  0  0  0
   -0.1566   -1.6721   -1.8461 C   0  0  0  0  0  0  0  0  0  0  0  0
   -0.1566   -1.6721   -0.3907 C   0  0  0  0  0  0  0  0  0  0  0  0
   -0.1566   -1.6721   -4.1064 H   0  0  0  0  0  0  0  0  0  0  0  0
   -0.0451   -0.4525    0.0718 H   0  0  0  0  0  0  0  0  0  0  0  0
    0.6771   -2.2607   -0.0053 H   0  0  0  0  0  0  0  0  0  0  0  0
   -1.0832   -2.0998   -0.0053 H   0  0  0  0  0  0  0  0  0  0  0  0
   -0.5169    1.8189   -0.3428 C   0  0  0  0  0  0  0  0  0  0  0  0
    0.0664    0.7680    0.5345 C   0  0  0  0  0  3  0  0  0  0  0  0
    0.4274    0.9204    2.0927 S   0  0  0  0  0  0  0  0  0  0  0  0
   -0.6845    2.7481    0.1976 H   0  0  0  0  0  0  0  0  0  0  0  0
   -1.4615    1.4619   -0.7647 H   0  0  0  0  0  0  0  0  0  0  0  0
    0.1505    2.0007   -1.1909 H   0  0  0  0  0  0  0  0  0  0  0  0
  1  2  3  0
  1  4  1  0
  2  3  1  0
  3  5  1  0
  3  6  1  0
  3  7  1  0
  8  9  1  0
  8 11  1  0
  8 12  1  0
  8 13  1  0
  9 10  2  0
M  RAD  1   9   2
M  END
>  <reaction>  (18) 
rxn_1253

>  <mol_properties>  (18) 
{"1": {"label": "*4", "atom_type": "Ct"}, "2": {"label": "*3", "atom_type": "Cs"}, "4": {"label": "*2", "atom_type": "H0"}, "8": {"label": "*1", "atom_type": "CS"}, "9": {"label": "*0", "atom_type": "S2d"}}

>  <type>  (18) 
unop_14

>  <geom_source>  (18) 
gaussian_log

$$$$
