
     RDKit          3D

  4  3  0  0  0  0  0  0  0  0999 V2000
    0.5949   -0.3853    0.2659 O   0  0  0  0  0  0  0  0  0  0  0  0
   -0.5918    0.4028    0.2462 O   0  0  0  0  0  0  0  0  0  0  0  0
    1.1865    0.1539   -0.2689 H   0  0  0  0  0  0  0  0  0  0  0  0
   -1.1896   -0.1714   -0.2432 H   0  0  0  0  0  0  0  0  0  0  0  0
  1  2  1  0
  1  3  1  0
  2  4  1  0
M  END
>  <reaction>  (1) 
rxn_398

>  <mol_properties>  (1) 
{"1": {"label": "donator", "atom_type": "O2s"}, "3": {"label": "d_hydrogen", "atom_type": "H0"}}

>  <type>  (1) 
r1h

$$$$

     RDKit          3D

 14 13  0  0  0  0  0  0  0  0999 V2000
   -2.0549    0.2623    0.0650 C   0  0  0  0  0  0  0  0  0  0  0  0
   -0.7130   -0.4576    0.0784 C   0  0  0  0  0  0  0  0  0  0  0  0
   -0.2828   -0.9493    1.4745 C   0  0  0  0  0  0  0  0  0  0  0  0
   -1.1621   -1.9735    2.0965 C   0  0  0  0  0  3  0  0  0  0  0  0
   -2.3417   -1.6116    2.6806 O   0  0  0  0  0  0  0  0  0  0  0  0
   -2.0434    1.1229    0.7405 H   0  0  0  0  0  0  0  0  0  0  0  0
   -2.8644   -0.3995    0.3763 H   0  0  0  0  0  0  0  0  0  0  0  0
   -2.2917    0.6330   -0.9335 H   0  0  0  0  0  0  0  0  0  0  0  0
   -0.7490   -1.3143   -0.6001 H   0  0  0  0  0  0  0  0  0  0  0  0
    0.0643    0.2104   -0.3044 H   0  0  0  0  0  0  0  0  0  0  0  0
   -0.2040   -0.0811    2.1439 H   0  0  0  0  0  0  0  0  0  0  0  0
    0.7250   -1.3665    1.4012 H   0  0  0  0  0  0  0  0  0  0  0  0
   -1.1898   -2.9907    1.7275 H   0  0  0  0  0  0  0  0  0  0  0  0
   -2.3046   -0.6828    2.9200 H   0  0  0  0  0  0  0  0  0  0  0  0
  1  2  1  0
  1  6  1  0
  1  7  1  0
  1  8  1  0
  2  3  1  0
  2  9  1  0
  2 10  1  0
  3  4  1  0
  3 11  1  0
  3 12  1  0
  4  5  1  0
  4 13  1  0
  5 14  1  0
M  RAD  1   4   2
M  END
>  <reaction>  (2) 
rxn_398

>  <mol_properties>  (2) 
{"3": {"label": "acceptor", "atom_type": "Cs"}}

>  <type>  (2) 
r2

$$$$

     RDKit          3D

 15 14  0  0  0  0  0  0  0  0999 V2000
   -2.2618    0.1177   -0.2204 C   0  0  0  0  0  0  0  0  0  0  0  0
   -0.8307    0.6124   -0.3805 C   0  0  0  0  0  0  0  0  0  0  0  0
   -0.4944    1.7618    0.5615 C   0  0  0  0  0  0  0  0  0  0  0  0
    0.9172    2.3011    0.3897 C   0  0  0  0  0  0  0  0  0  0  0  0
    1.1609    2.8330   -0.8989 O   0  0  0  0  0  0  0  0  0  0  0  0
   -2.9781    0.9158   -0.4300 H   0  0  0  0  0  0  0  0  0  0  0  0
   -2.4760   -0.7079   -0.9008 H   0  0  0  0  0  0  0  0  0  0  0  0
   -2.4470   -0.2324    0.7981 H   0  0  0  0  0  0  0  0  0  0  0  0
   -0.6600    0.9333   -1.4104 H   0  0  0  0  0  0  0  0  0  0  0  0
   -0.1335   -0.2114   -0.1978 H   0  0  0  0  0  0  0  0  0  0  0  0
   -0.6152    1.4377    1.6009 H   0  0  0  0  0  0  0  0  0  0  0  0
   -1.2104    2.5804    0.4144 H   0  0  0  0  0  0  0  0  0  0  0  0
    1.6427    1.4942    0.5142 H   0  0  0  0  0  0  0  0  0  0  0  0
    1.1261    3.0513    1.1627 H   0  0  0  0  0  0  0  0  0  0  0  0
    0.5617    3.5677   -1.0406 H   0  0  0  0  0  0  0  0  0  0  0  0
  1  2  1  0
  1  6  1  0
  1  7  1  0
  1  8  1  0
  2  3  1  0
  2  9  1  0
  2 10  1  0
  3  4  1  0
  3 11  1  0
  3 12  1  0
  4  5  1  0
  4 13  1  0
  4 14  1  0
  5 15  1  0
M  END
>  <reaction>  (3) 
rxn_398

>  <mol_properties>  (3) 
{"0": {"label": "a_hydrogen", "atom_type": "H0"}, "4": {"label": "acceptor", "atom_type": "Cs"}}

>  <type>  (3) 
r2h

$$$$

     RDKit          3D

 18 16  0  0  0  0  0  0  0  0999 V2000
    1.1848   -2.0355   -0.1490 O   0  0  0  0  0  0  0  0  0  0  0  0
   -0.1846   -2.0886    0.0775 O   0  0  0  0  0  0  0  0  0  0  0  0
    1.5509   -2.4959    0.6153 H   0  0  0  0  0  0  0  0  0  0  0  0
   -0.4073   -1.0370    0.6728 H   0  0  0  0  0  0  0  0  0  0  0  0
   -0.7380    2.0501   -2.1606 C   0  0  0  0  0  0  0  0  0  0  0  0
   -0.0947    1.1281   -1.1335 C   0  0  0  0  0  0  0  0  0  0  0  0
   -0.8644    1.1075    0.1841 C   0  0  0  0  0  0  0  0  0  0  0  0
   -0.3209    0.1521    1.2201 C   0  0  0  0  0  3  0  0  0  0  0  0
    1.0024    0.2842    1.5663 O   0  0  0  0  0  0  0  0  0  0  0  0
   -0.1699    2.0613   -3.0915 H   0  0  0  0  0  0  0  0  0  0  0  0
   -1.7540    1.7243   -2.3934 H   0  0  0  0  0  0  0  0  0  0  0  0
   -0.7942    3.0760   -1.7894 H   0  0  0  0  0  0  0  0  0  0  0  0
   -0.0341    0.1120   -1.5299 H   0  0  0  0  0  0  0  0  0  0  0  0
    0.9336    1.4622   -0.9593 H   0  0  0  0  0  0  0  0  0  0  0  0
   -1.9053    0.8309   -0.0060 H   0  0  0  0  0  0  0  0  0  0  0  0
   -0.8807    2.1160    0.6171 H   0  0  0  0  0  0  0  0  0  0  0  0
   -0.9146    0.0856    2.1310 H   0  0  0  0  0  0  0  0  0  0  0  0
    1.5344    0.2683    0.7641 H   0  0  0  0  0  0  0  0  0  0  0  0
  1  2  1  0
  1  3  1  0
  2  4  1  0
  5  6  1  0
  5 10  1  0
  5 11  1  0
  5 12  1  0
  6  7  1  0
  6 13  1  0
  6 14  1  0
  7  8  1  0
  7 15  1  0
  7 16  1  0
  8  9  1  0
  8 17  1  0
  9 18  1  0
M  RAD  1   8   2
M  END
>  <reaction>  (4) 
rxn_398

>  <mol_properties>  (4) 
{"0": {"label": "*0", "atom_type": "O2s"}, "1": {"label": "*1", "atom_type": "O2s"}, "3": {"label": "*2", "atom_type": "H0"}, "6": {"label": "*4", "atom_type": "Cs"}, "7": {"label": "*3", "atom_type": "Cs"}}

>  <type>  (4) 
ts

$$$$

     RDKit          3D

 18 16  0  0  0  0  0  0  0  0999 V2000
    0.8835   -2.1799   -1.6386 O   0  0  0  0  0  0  0  0  0  0  0  0
    0.8835   -2.1799   -0.2139 O   0  0  0  0  0  0  0  0  0  0  0  0
    1.7442   -2.5682   -1.8256 H   0  0  0  0  0  0  0  0  0  0  0  0
    0.8835   -1.0468    0.0106 H   0  0  0  0  0  0  0  0  0  0  0  0
   -2.7204    1.5258    1.0408 C   0  0  0  0  0  0  0  0  0  0  0  0
   -1.5083    1.1204    0.2133 C   0  0  0  0  0  0  0  0  0  0  0  0
   -0.3544    0.6097    1.0673 C   0  0  0  0  0  0  0  0  0  0  0  0
    0.8835    0.2389    0.2652 C   0  0  0  0  0  3  0  0  0  0  0  0
    1.4398    1.3303   -0.4434 O   0  0  0  0  0  0  0  0  0  0  0  0
   -3.5339    1.8821    0.4070 H   0  0  0  0  0  0  0  0  0  0  0  0
   -3.0978    0.6843    1.6269 H   0  0  0  0  0  0  0  0  0  0  0  0
   -2.4677    2.3271    1.7395 H   0  0  0  0  0  0  0  0  0  0  0  0
   -1.7934    0.3409   -0.5003 H   0  0  0  0  0  0  0  0  0  0  0  0
   -1.1633    1.9680   -0.3829 H   0  0  0  0  0  0  0  0  0  0  0  0
   -0.6737   -0.2712    1.6348 H   0  0  0  0  0  0  0  0  0  0  0  0
   -0.0836    1.3684    1.8126 H   0  0  0  0  0  0  0  0  0  0  0  0
    1.6332   -0.2150    0.9255 H   0  0  0  0  0  0  0  0  0  0  0  0
    1.7071    1.9974    0.1909 H   0  0  0  0  0  0  0  0  0  0  0  0
  1  2  1  0
  1  3  1  0
  2  4  1  0
  5  6  1  0
  5 10  1  0
  5 11  1  0
  5 12  1  0
  6  7  1  0
  6 13  1  0
  6 14  1  0
  7  8  1  0
  7 15  1  0
  7 16  1  0
  8  9  1  0
  8 17  1  0
  9 18  1  0
M  RAD  1   8   2
M  END
>  <reaction>  (5) 
rxn_398

>  <mol_properties>  (5) 
{"0": {"label": "*0", "atom_type": "O2s"}, "1": {"label": "*1", "atom_type": "O2s"}, "3": {"label": "*2", "atom_type": "H0"}, "6": {"label": "*4", "atom_type": "Cs"}, "7": {"label": "*3", "atom_type": "Cs"}}

>  <type>  (5) 
unop_1

>  <geom_source>  (5) 
Heuristics

$$$$

     RDKit          3D

 18 16  0  0  0  0  0  0  0  0999 V2000
   -0.0177   -2.2104   -0.6455 O   0  0  0  0  0  0  0  0  0  0  0  0
   -0.0177   -2.2104    0.7791 O   0  0  0  0  0  0  0  0  0  0  0  0
    0.8431   -2.5987   -0.8326 H   0  0  0  0  0  0  0  0  0  0  0  0
   -0.0177   -1.0773    1.0036 H   0  0  0  0  0  0  0  0  0  0  0  0
   -0.6385    1.8589   -2.2254 C   0  0  0  0  0  0  0  0  0  0  0  0
    0.0786    1.0673   -1.1403 C   0  0  0  0  0  0  0  0  0  0  0  0
   -0.7323    0.9587    0.1450 C   0  0  0  0  0  0  0  0  0  0  0  0
   -0.0177    0.2084    1.2583 C   0  0  0  0  0  3  0  0  0  0  0  0
    1.1882    0.8267    1.6664 O   0  0  0  0  0  0  0  0  0  0  0  0
   -0.0407    1.9176   -3.1362 H   0  0  0  0  0  0  0  0  0  0  0  0
   -1.5953    1.3983   -2.4831 H   0  0  0  0  0  0  0  0  0  0  0  0
   -0.8428    2.8804   -1.8952 H   0  0  0  0  0  0  0  0  0  0  0  0
    0.3012    0.0597   -1.5055 H   0  0  0  0  0  0  0  0  0  0  0  0
    1.0423    1.5300   -0.9163 H   0  0  0  0  0  0  0  0  0  0  0  0
   -1.6824    0.4521   -0.0569 H   0  0  0  0  0  0  0  0  0  0  0  0
   -0.9944    1.9630    0.5015 H   0  0  0  0  0  0  0  0  0  0  0  0
   -0.6931    0.0781    2.1132 H   0  0  0  0  0  0  0  0  0  0  0  0
    0.9805    1.6989    2.0055 H   0  0  0  0  0  0  0  0  0  0  0  0
  1  2  1  0
  1  3  1  0
  2  4  1  0
  5  6  1  0
  5 10  1  0
  5 11  1  0
  5 12  1  0
  6  7  1  0
  6 13  1  0
  6 14  1  0
  7  8  1  0
  7 15  1  0
  7 16  1  0
  8  9  1  0
  8 17  1  0
  9 18  1  0
M  RAD  1   8   2
M  END
>  <reaction>  (6) 
rxn_398

>  <mol_properties>  (6) 
{"0": {"label": "*0", "atom_type": "O2s"}, "1": {"label": "*1", "atom_type": "O2s"}, "3": {"label": "*2", "atom_type": "H0"}, "6": {"label": "*4", "atom_type": "Cs"}, "7": {"label": "*3", "atom_type": "Cs"}}

>  <type>  (6) 
unop_2

>  <geom_source>  (6) 
Heuristics

$$$$

     RDKit          3D

 18 16  0  0  0  0  0  0  0  0999 V2000
    0.8070   -2.0101   -2.0659 O   0  0  0  0  0  0  0  0  0  0  0  0
    0.8070   -2.0101   -0.6412 O   0  0  0  0  0  0  0  0  0  0  0  0
    1.6678   -2.3984   -2.2529 H   0  0  0  0  0  0  0  0  0  0  0  0
    0.8070   -0.8770   -0.4167 H   0  0  0  0  0  0  0  0  0  0  0  0
   -2.1110    1.0997    2.3385 C   0  0  0  0  0  0  0  0  0  0  0  0
   -1.4213    0.7874    1.0175 C   0  0  0  0  0  0  0  0  0  0  0  0
    0.0924    0.6778    1.1532 C   0  0  0  0  0  0  0  0  0  0  0  0
    0.8070    0.4086   -0.1621 C   0  0  0  0  0  3  0  0  0  0  0  0
    0.6232    1.4342   -1.1198 O   0  0  0  0  0  0  0  0  0  0  0  0
   -3.1931    1.1674    2.2163 H   0  0  0  0  0  0  0  0  0  0  0  0
   -1.9069    0.3263    3.0830 H   0  0  0  0  0  0  0  0  0  0  0  0
   -1.7622    2.0511    2.7475 H   0  0  0  0  0  0  0  0  0  0  0  0
   -1.8100   -0.1520    0.6120 H   0  0  0  0  0  0  0  0  0  0  0  0
   -1.6588    1.5585    0.2814 H   0  0  0  0  0  0  0  0  0  0  0  0
    0.3453   -0.1258    1.8533 H   0  0  0  0  0  0  0  0  0  0  0  0
    0.4906    1.6004    1.5943 H   0  0  0  0  0  0  0  0  0  0  0  0
    1.8754    0.2396    0.0221 H   0  0  0  0  0  0  0  0  0  0  0  0
    0.9869    2.2472   -0.7652 H   0  0  0  0  0  0  0  0  0  0  0  0
  1  2  1  0
  1  3  1  0
  2  4  1  0
  5  6  1  0
  5 10  1  0
  5 11  1  0
  5 12  1  0
  6  7  1  0
  6 13  1  0
  6 14  1  0
  7  8  1  0
  7 15  1  0
  7 16  1  0
  8  9  1  0
  8 17  1  0
  9 18  1  0
M  RAD  1   8   2
M  END
>  <reaction>  (7) 
rxn_398

>  <mol_properties>  (7) 
{"0": {"label": "*0", "atom_type": "O2s"}, "1": {"label": "*1", "atom_type": "O2s"}, "3": {"label": "*2", "atom_type": "H0"}, "6": {"label": "*4", "atom_type": "Cs"}, "7": {"label": "*3", "atom_type": "Cs"}}

>  <type>  (7) 
unop_3

>  <geom_source>  (7) 
Heuristics

$$$$

     RDKit          3D

 18 16  0  0  0  0  0  0  0  0999 V2000
   -1.0338   -1.6860   -1.3596 O   0  0  0  0  0  0  0  0  0  0  0  0
   -1.0338   -1.6860    0.0651 O   0  0  0  0  0  0  0  0  0  0  0  0
   -0.1731   -2.0743   -1.5466 H   0  0  0  0  0  0  0  0  0  0  0  0
   -1.0338   -0.5529    0.2896 H   0  0  0  0  0  0  0  0  0  0  0  0
    2.6099    1.0981   -0.8105 C   0  0  0  0  0  0  0  0  0  0  0  0
    1.3686    0.4180   -0.2493 C   0  0  0  0  0  0  0  0  0  0  0  0
    0.2041    1.3813   -0.0558 C   0  0  0  0  0  0  0  0  0  0  0  0
   -1.0338    0.7327    0.5443 C   0  0  0  0  0  3  0  0  0  0  0  0
   -0.8154    0.1969    1.8358 O   0  0  0  0  0  0  0  0  0  0  0  0
    3.4267    0.3873   -0.9451 H   0  0  0  0  0  0  0  0  0  0  0  0
    2.4040    1.5576   -1.7804 H   0  0  0  0  0  0  0  0  0  0  0  0
    2.9618    1.8863   -0.1405 H   0  0  0  0  0  0  0  0  0  0  0  0
    1.0546   -0.3876   -0.9204 H   0  0  0  0  0  0  0  0  0  0  0  0
    1.6028   -0.0556    0.7066 H   0  0  0  0  0  0  0  0  0  0  0  0
   -0.0727    1.8275   -1.0173 H   0  0  0  0  0  0  0  0  0  0  0  0
    0.5178    2.2147    0.5857 H   0  0  0  0  0  0  0  0  0  0  0  0
   -1.8614    1.4530    0.5602 H   0  0  0  0  0  0  0  0  0  0  0  0
   -0.5633    0.9130    2.4211 H   0  0  0  0  0  0  0  0  0  0  0  0
  1  2  1  0
  1  3  1  0
  2  4  1  0
  5  6  1  0
  5 10  1  0
  5 11  1  0
  5 12  1  0
  6  7  1  0
  6 13  1  0
  6 14  1  0
  7  8  1  0
  7 15  1  0
  7 16  1  0
  8  9  1  0
  8 17  1  0
  9 18  1  0
M  RAD  1   8   2
M  END
>  <reaction>  (8) 
rxn_398

>  <mol_properties>  (8) 
{"0": {"label": "*0", "atom_type": "O2s"}, "1": {"label": "*1", "atom_type": "O2s"}, "3": {"label": "*2", "atom_type": "H0"}, "6": {"label": "*4", "atom_type": "Cs"}, "7": {"label": "*3", "atom_type": "Cs"}}

>  <type>  (8) 
unop_4

>  <geom_source>  (8) 
Heuristics

$$$$

     RDKit          3D

 18 16  0  0  0  0  0  0  0  0999 V2000
    0.4808   -1.7044   -2.4419 O   0  0  0  0  0  0  0  0  0  0  0  0
    0.4808   -1.7044   -1.0172 O   0  0  0  0  0  0  0  0  0  0  0  0
    1.3415   -2.0927   -2.6289 H   0  0  0  0  0  0  0  0  0  0  0  0
    0.4808   -0.5712   -0.7927 H   0  0  0  0  0  0  0  0  0  0  0  0
   -0.6829    0.5559    3.1857 C   0  0  0  0  0  0  0  0  0  0  0  0
   -0.6791    0.2744    1.6893 C   0  0  0  0  0  0  0  0  0  0  0  0
    0.4808    0.9464    0.9650 C   0  0  0  0  0  0  0  0  0  0  0  0
    0.4808    0.7144   -0.5381 C   0  0  0  0  0  3  0  0  0  0  0  0
   -0.6689    1.2277   -1.1843 O   0  0  0  0  0  0  0  0  0  0  0  0
   -1.5184    0.0599    3.6819 H   0  0  0  0  0  0  0  0  0  0  0  0
    0.2397    0.2062    3.6556 H   0  0  0  0  0  0  0  0  0  0  0  0
   -0.7675    1.6274    3.3828 H   0  0  0  0  0  0  0  0  0  0  0  0
   -0.6266   -0.8053    1.5177 H   0  0  0  0  0  0  0  0  0  0  0  0
   -1.6192    0.6083    1.2447 H   0  0  0  0  0  0  0  0  0  0  0  0
    1.4318    0.5831    1.3695 H   0  0  0  0  0  0  0  0  0  0  0  0
    0.4613    2.0262    1.1603 H   0  0  0  0  0  0  0  0  0  0  0  0
    1.3924    1.1357   -0.9802 H   0  0  0  0  0  0  0  0  0  0  0  0
   -0.6939    2.1762   -1.0477 H   0  0  0  0  0  0  0  0  0  0  0  0
  1  2  1  0
  1  3  1  0
  2  4  1  0
  5  6  1  0
  5 10  1  0
  5 11  1  0
  5 12  1  0
  6  7  1  0
  6 13  1  0
  6 14  1  0
  7  8  1  0
  7 15  1  0
  7 16  1  0
  8  9  1  0
  8 17  1  0
  9 18  1  0
M  RAD  1   8   2
M  END
>  <reaction>  (9) 
rxn_398

>  <mol_properties>  (9) 
{"0": {"label": "*0", "atom_type": "O2s"}, "1": {"label": "*1", "atom_type": "O2s"}, "3": {"label": "*2", "atom_type": "H0"}, "6": {"label": "*4", "atom_type": "Cs"}, "7": {"label": "*3", "atom_type": "Cs"}}

>  <type>  (9) 
unop_5

>  <geom_source>  (9) 
Heuristics

$$$$

     RDKit          3D

 18 16  0  0  0  0  0  0  0  0999 V2000
   -0.9958   -1.5501   -1.8313 O   0  0  0  0  0  0  0  0  0  0  0  0
   -0.9958   -1.5501   -0.4067 O   0  0  0  0  0  0  0  0  0  0  0  0
   -0.1351   -1.9384   -2.0184 H   0  0  0  0  0  0  0  0  0  0  0  0
   -0.9958   -0.4170   -0.1822 H   0  0  0  0  0  0  0  0  0  0  0  0
    2.8830    0.8124    0.5167 C   0  0  0  0  0  0  0  0  0  0  0  0
    1.4652    0.2755    0.3753 C   0  0  0  0  0  0  0  0  0  0  0  0
    0.4335    1.3784    0.1735 C   0  0  0  0  0  0  0  0  0  0  0  0
   -0.9958    0.8687    0.0725 C   0  0  0  0  0  3  0  0  0  0  0  0
   -1.4356    0.1988    1.2390 O   0  0  0  0  0  0  0  0  0  0  0  0
    3.6029    0.0041    0.6543 H   0  0  0  0  0  0  0  0  0  0  0  0
    3.1813    1.3778   -0.3695 H   0  0  0  0  0  0  0  0  0  0  0  0
    2.9649    1.4809    1.3772 H   0  0  0  0  0  0  0  0  0  0  0  0
    1.4158   -0.4157   -0.4720 H   0  0  0  0  0  0  0  0  0  0  0  0
    1.1970   -0.3068    1.2596 H   0  0  0  0  0  0  0  0  0  0  0  0
    0.6640    1.9403   -0.7382 H   0  0  0  0  0  0  0  0  0  0  0  0
    0.4987    2.0994    0.9983 H   0  0  0  0  0  0  0  0  0  0  0  0
   -1.6707    1.6980   -0.1739 H   0  0  0  0  0  0  0  0  0  0  0  0
   -1.4105    0.8180    1.9703 H   0  0  0  0  0  0  0  0  0  0  0  0
  1  2  1  0
  1  3  1  0
  2  4  1  0
  5  6  1  0
  5 10  1  0
  5 11  1  0
  5 12  1  0
  6  7  1  0
  6 13  1  0
  6 14  1  0
  7  8  1  0
  7 15  1  0
  7 16  1  0
  8  9  1  0
  8 17  1  0
  9 18  1  0
M  RAD  1   8   2
M  END
>  <reaction>  (10) 
rxn_398

>  <mol_properties>  (10) 
{"0": {"label": "*0", "atom_type": "O2s"}, "1": {"label": "*1", "atom_type": "O2s"}, "3": {"label": "*2", "atom_type": "H0"}, "6": {"label": "*4", "atom_type": "Cs"}, "7": {"label": "*3", "atom_type": "Cs"}}

>  <type>  (10) 
unop_6

>  <geom_source>  (10) 
Heuristics

$$$$

     RDKit          3D

 18 16  0  0  0  0  0  0  0  0999 V2000
   -0.7039   -1.4619   -2.2728 O   0  0  0  0  0  0  0  0  0  0  0  0
   -0.7039   -1.4619   -0.8481 O   0  0  0  0  0  0  0  0  0  0  0  0
    0.1568   -1.8501   -2.4598 H   0  0  0  0  0  0  0  0  0  0  0  0
   -0.7039   -0.3287   -0.6236 H   0  0  0  0  0  0  0  0  0  0  0  0
    2.4339    0.5348    1.9161 C   0  0  0  0  0  0  0  0  0  0  0  0
    1.2233    0.1349    1.0837 C   0  0  0  0  0  0  0  0  0  0  0  0
    0.5339    1.3278    0.4331 C   0  0  0  0  0  0  0  0  0  0  0  0
   -0.7039    0.9569   -0.3689 C   0  0  0  0  0  3  0  0  0  0  0  0
   -1.7206    0.3598    0.4138 O   0  0  0  0  0  0  0  0  0  0  0  0
    2.9129   -0.3361    2.3662 H   0  0  0  0  0  0  0  0  0  0  0  0
    3.1808    1.0482    1.3055 H   0  0  0  0  0  0  0  0  0  0  0  0
    2.1474    1.2118    2.7246 H   0  0  0  0  0  0  0  0  0  0  0  0
    1.5295   -0.5675    0.3020 H   0  0  0  0  0  0  0  0  0  0  0  0
    0.5019   -0.3982    1.7069 H   0  0  0  0  0  0  0  0  0  0  0  0
    1.2341    1.8436   -0.2330 H   0  0  0  0  0  0  0  0  0  0  0  0
    0.2553    2.0578    1.2037 H   0  0  0  0  0  0  0  0  0  0  0  0
   -1.0886    1.8419   -0.8912 H   0  0  0  0  0  0  0  0  0  0  0  0
   -1.9979    0.9903    1.0805 H   0  0  0  0  0  0  0  0  0  0  0  0
  1  2  1  0
  1  3  1  0
  2  4  1  0
  5  6  1  0
  5 10  1  0
  5 11  1  0
  5 12  1  0
  6  7  1  0
  6 13  1  0
  6 14  1  0
  7  8  1  0
  7 15  1  0
  7 16  1  0
  8  9  1  0
  8 17  1  0
  9 18  1  0
M  RAD  1   8   2
M  END
>  <reaction>  (11) 
rxn_398

>  <mol_properties>  (11) 
{"0": {"label": "*0", "atom_type": "O2s"}, "1": {"label": "*1", "atom_type": "O2s"}, "3": {"label": "*2", "atom_type": "H0"}, "6": {"label": "*4", "atom_type": "Cs"}, "7": {"label": "*3", "atom_type": "Cs"}}

>  <type>  (11) 
unop_7

>  <geom_source>  (11) 
Heuristics

$$$$

     RDKit          3D

 18 16  0  0  0  0  0  0  0  0999 V2000
    0.7690   -2.2658   -1.1992 O   0  0  0  0  0  0  0  0  0  0  0  0
    0.7690   -2.2658    0.2254 O   0  0  0  0  0  0  0  0  0  0  0  0
    1.6298   -2.6541   -1.3863 H   0  0  0  0  0  0  0  0  0  0  0  0
    0.7690   -1.1327    0.4499 H   0  0  0  0  0  0  0  0  0  0  0  0
   -2.6086    1.8001   -0.3557 C   0  0  0  0  0  0  0  0  0  0  0  0
   -1.1924    1.2577   -0.4922 C   0  0  0  0  0  0  0  0  0  0  0  0
   -0.6603    0.6627    0.8056 C   0  0  0  0  0  0  0  0  0  0  0  0
    0.7690    0.1530    0.7046 C   0  0  0  0  0  3  0  0  0  0  0  0
    1.7040    1.1661    0.3846 O   0  0  0  0  0  0  0  0  0  0  0  0
   -2.9686    2.2150   -1.2984 H   0  0  0  0  0  0  0  0  0  0  0  0
   -3.3042    1.0151   -0.0491 H   0  0  0  0  0  0  0  0  0  0  0  0
   -2.6541    2.5925    0.3954 H   0  0  0  0  0  0  0  0  0  0  0  0
   -1.1657    0.4897   -1.2717 H   0  0  0  0  0  0  0  0  0  0  0  0
   -0.5193    2.0516   -0.8234 H   0  0  0  0  0  0  0  0  0  0  0  0
   -1.3004   -0.1675    1.1235 H   0  0  0  0  0  0  0  0  0  0  0  0
   -0.7171    1.4123    1.6052 H   0  0  0  0  0  0  0  0  0  0  0  0
    1.0513   -0.3522    1.6368 H   0  0  0  0  0  0  0  0  0  0  0  0
    1.6897    1.8218    1.0837 H   0  0  0  0  0  0  0  0  0  0  0  0
  1  2  1  0
  1  3  1  0
  2  4  1  0
  5  6  1  0
  5 10  1  0
  5 11  1  0
  5 12  1  0
  6  7  1  0
  6 13  1  0
  6 14  1  0
  7  8  1  0
  7 15  1  0
  7 16  1  0
  8  9  1  0
  8 17  1  0
  9 18  1  0
M  RAD  1   8   2
M  END
>  <reaction>  (12) 
rxn_398

>  <mol_properties>  (12) 
{"0": {"label": "*0", "atom_type": "O2s"}, "1": {"label": "*1", "atom_type": "O2s"}, "3": {"label": "*2", "atom_type": "H0"}, "6": {"label": "*4", "atom_type": "Cs"}, "7": {"label": "*3", "atom_type": "Cs"}}

>  <type>  (12) 
unop_8

>  <geom_source>  (12) 
Heuristics

$$$$

     RDKit          3D

 18 16  0  0  0  0  0  0  0  0999 V2000
   -0.8553   -1.8572   -0.9575 O   0  0  0  0  0  0  0  0  0  0  0  0
   -0.8553   -1.8572    0.4672 O   0  0  0  0  0  0  0  0  0  0  0  0
    0.0055   -2.2455   -1.1445 H   0  0  0  0  0  0  0  0  0  0  0  0
   -0.8553   -0.7240    0.6916 H   0  0  0  0  0  0  0  0  0  0  0  0
    1.8048    1.3714   -1.7948 C   0  0  0  0  0  0  0  0  0  0  0  0
    1.0810    0.5826   -0.7121 C   0  0  0  0  0  0  0  0  0  0  0  0
   -0.1406    1.3119   -0.1669 C   0  0  0  0  0  0  0  0  0  0  0  0
   -0.8553    0.5616    0.9463 C   0  0  0  0  0  3  0  0  0  0  0  0
   -0.0464    0.3493    2.0880 O   0  0  0  0  0  0  0  0  0  0  0  0
    2.6712    0.8264   -2.1725 H   0  0  0  0  0  0  0  0  0  0  0  0
    1.1449    1.5773   -2.6412 H   0  0  0  0  0  0  0  0  0  0  0  0
    2.1573    2.3317   -1.4106 H   0  0  0  0  0  0  0  0  0  0  0  0
    0.7665   -0.3871   -1.1108 H   0  0  0  0  0  0  0  0  0  0  0  0
    1.7647    0.3661    0.1116 H   0  0  0  0  0  0  0  0  0  0  0  0
   -0.8571    1.4924   -0.9757 H   0  0  0  0  0  0  0  0  0  0  0  0
    0.1556    2.3022    0.2020 H   0  0  0  0  0  0  0  0  0  0  0  0
   -1.7774    1.0899    1.2195 H   0  0  0  0  0  0  0  0  0  0  0  0
    0.2050    1.2035    2.4431 H   0  0  0  0  0  0  0  0  0  0  0  0
  1  2  1  0
  1  3  1  0
  2  4  1  0
  5  6  1  0
  5 10  1  0
  5 11  1  0
  5 12  1  0
  6  7  1  0
  6 13  1  0
  6 14  1  0
  7  8  1  0
  7 15  1  0
  7 16  1  0
  8  9  1  0
  8 17  1  0
  9 18  1  0
M  RAD  1   8   2
M  END
>  <reaction>  (13) 
rxn_398

>  <mol_properties>  (13) 
{"0": {"label": "*0", "atom_type": "O2s"}, "1": {"label": "*1", "atom_type": "O2s"}, "3": {"label": "*2", "atom_type": "H0"}, "6": {"label": "*4", "atom_type": "Cs"}, "7": {"label": "*3", "atom_type": "Cs"}}

>  <type>  (13) 
unop_9

>  <geom_source>  (13) 
Heuristics

$$$$

     RDKit          3D

 18 16  0  0  0  0  0  0  0  0999 V2000
    0.4496   -2.2826   -0.8327 O   0  0  0  0  0  0  0  0  0  0  0  0
    0.4496   -2.2826    0.5920 O   0  0  0  0  0  0  0  0  0  0  0  0
    1.3103   -2.6709   -1.0197 H   0  0  0  0  0  0  0  0  0  0  0  0
    0.4496   -1.1495    0.8164 H   0  0  0  0  0  0  0  0  0  0  0  0
   -1.8422    1.9214   -1.5377 C   0  0  0  0  0  0  0  0  0  0  0  0
   -0.6053    1.2368   -0.9724 C   0  0  0  0  0  0  0  0  0  0  0  0
   -0.7882    0.7848    0.4711 C   0  0  0  0  0  0  0  0  0  0  0  0
    0.4496    0.1362    1.0711 C   0  0  0  0  0  3  0  0  0  0  0  0
    1.5669    1.0032    1.1236 O   0  0  0  0  0  0  0  0  0  0  0  0
   -1.6882    2.2302   -2.5728 H   0  0  0  0  0  0  0  0  0  0  0  0
   -2.7081    1.2552   -1.5133 H   0  0  0  0  0  0  0  0  0  0  0  0
   -2.0958    2.8129   -0.9588 H   0  0  0  0  0  0  0  0  0  0  0  0
   -0.3523    0.3671   -1.5870 H   0  0  0  0  0  0  0  0  0  0  0  0
    0.2527    1.9102   -1.0296 H   0  0  0  0  0  0  0  0  0  0  0  0
   -1.6164    0.0705    0.5345 H   0  0  0  0  0  0  0  0  0  0  0  0
   -1.0794    1.6419    1.0916 H   0  0  0  0  0  0  0  0  0  0  0  0
    0.2181   -0.2559    2.0695 H   0  0  0  0  0  0  0  0  0  0  0  0
    1.3438    1.7497    1.6821 H   0  0  0  0  0  0  0  0  0  0  0  0
  1  2  1  0
  1  3  1  0
  2  4  1  0
  5  6  1  0
  5 10  1  0
  5 11  1  0
  5 12  1  0
  6  7  1  0
  6 13  1  0
  6 14  1  0
  7  8  1  0
  7 15  1  0
  7 16  1  0
  8  9  1  0
  8 17  1  0
  9 18  1  0
M  RAD  1   8   2
M  END
>  <reaction>  (14) 
rxn_398

>  <mol_properties>  (14) 
{"0": {"label": "*0", "atom_type": "O2s"}, "1": {"label": "*1", "atom_type": "O2s"}, "3": {"label": "*2", "atom_type": "H0"}, "6": {"label": "*4", "atom_type": "Cs"}, "7": {"label": "*3", "atom_type": "Cs"}}

>  <type>  (14) 
unop_10

>  <geom_source>  (14) 
Heuristics

$$$$

     RDKit          3D

 18 16  0  0  0  0  0  0  0  0999 V2000
   -0.1551   -1.4751   -2.5385 O   0  0  0  0  0  0  0  0  0  0  0  0
   -0.1551   -1.4751   -1.1138 O   0  0  0  0  0  0  0  0  0  0  0  0
    0.7057   -1.8634   -2.7255 H   0  0  0  0  0  0  0  0  0  0  0  0
   -0.1551   -0.3420   -0.8893 H   0  0  0  0  0  0  0  0  0  0  0  0
    1.1726    0.3612    2.9908 C   0  0  0  0  0  0  0  0  0  0  0  0
    0.4880    0.0531    1.6661 C   0  0  0  0  0  0  0  0  0  0  0  0
    0.5596    1.2129    0.6806 C   0  0  0  0  0  0  0  0  0  0  0  0
   -0.1551    0.9437   -0.6346 C   0  0  0  0  0  3  0  0  0  0  0  0
   -1.5426    0.7110   -0.4810 O   0  0  0  0  0  0  0  0  0  0  0  0
    1.1128   -0.4855    3.6762 H   0  0  0  0  0  0  0  0  0  0  0  0
    2.2293    0.5975    2.8435 H   0  0  0  0  0  0  0  0  0  0  0  0
    0.7082    1.2200    3.4815 H   0  0  0  0  0  0  0  0  0  0  0  0
    0.9484   -0.8289    1.2099 H   0  0  0  0  0  0  0  0  0  0  0  0
   -0.5592   -0.2047    1.8386 H   0  0  0  0  0  0  0  0  0  0  0  0
    1.6064    1.4501    0.4615 H   0  0  0  0  0  0  0  0  0  0  0  0
    0.1347    2.1142    1.1406 H   0  0  0  0  0  0  0  0  0  0  0  0
    0.0224    1.7723   -1.3316 H   0  0  0  0  0  0  0  0  0  0  0  0
   -1.9404    1.4966   -0.1023 H   0  0  0  0  0  0  0  0  0  0  0  0
  1  2  1  0
  1  3  1  0
  2  4  1  0
  5  6  1  0
  5 10  1  0
  5 11  1  0
  5 12  1  0
  6  7  1  0
  6 13  1  0
  6 14  1  0
  7  8  1  0
  7 15  1  0
  7 16  1  0
  8  9  1  0
  8 17  1  0
  9 18  1  0
M  RAD  1   8   2
M  END
>  <reaction>  (15) 
rxn_398

>  <mol_properties>  (15) 
{"0": {"label": "*0", "atom_type": "O2s"}, "1": {"label": "*1", "atom_type": "O2s"}, "3": {"label": "*2", "atom_type": "H0"}, "6": {"label": "*4", "atom_type": "Cs"}, "7": {"label": "*3", "atom_type": "Cs"}}

>  <type>  (15) 
unop_11

>  <geom_source>  (15) 
Heuristics

$$$$

     RDKit          3D

 18 16  0  0  0  0  0  0  0  0999 V2000
   -0.4970   -2.0501   -0.6967 O   0  0  0  0  0  0  0  0  0  0  0  0
   -0.4970   -2.0501    0.7280 O   0  0  0  0  0  0  0  0  0  0  0  0
    0.3637   -2.4384   -0.8837 H   0  0  0  0  0  0  0  0  0  0  0  0
   -0.4970   -0.9170    0.9525 H   0  0  0  0  0  0  0  0  0  0  0  0
    0.6667    1.6418   -2.2958 C   0  0  0  0  0  0  0  0  0  0  0  0
    0.6629    0.8111   -1.0198 C   0  0  0  0  0  0  0  0  0  0  0  0
   -0.4970    1.1561   -0.0940 C   0  0  0  0  0  0  0  0  0  0  0  0
   -0.4970    0.3687    1.2072 C   0  0  0  0  0  3  0  0  0  0  0  0
    0.6527    0.5969    2.0002 O   0  0  0  0  0  0  0  0  0  0  0  0
    1.5022    1.3724   -2.9436 H   0  0  0  0  0  0  0  0  0  0  0  0
   -0.2559    1.4976   -2.8635 H   0  0  0  0  0  0  0  0  0  0  0  0
    0.7513    2.7075   -2.0695 H   0  0  0  0  0  0  0  0  0  0  0  0
    0.6104   -0.2525   -1.2727 H   0  0  0  0  0  0  0  0  0  0  0  0
    1.6030    0.9502   -0.4814 H   0  0  0  0  0  0  0  0  0  0  0  0
   -1.4480    0.9746   -0.6064 H   0  0  0  0  0  0  0  0  0  0  0  0
   -0.4775    2.2288    0.1372 H   0  0  0  0  0  0  0  0  0  0  0  0
   -1.4086    0.5896    1.7765 H   0  0  0  0  0  0  0  0  0  0  0  0
    0.6776    1.5258    2.2356 H   0  0  0  0  0  0  0  0  0  0  0  0
  1  2  1  0
  1  3  1  0
  2  4  1  0
  5  6  1  0
  5 10  1  0
  5 11  1  0
  5 12  1  0
  6  7  1  0
  6 13  1  0
  6 14  1  0
  7  8  1  0
  7 15  1  0
  7 16  1  0
  8  9  1  0
  8 17  1  0
  9 18  1  0
M  RAD  1   8   2
M  END
>  <reaction>  (16) 
rxn_398

>  <mol_properties>  (16) 
{"0": {"label": "*0", "atom_type": "O2s"}, "1": {"label": "*1", "atom_type": "O2s"}, "3": {"label": "*2", "atom_type": "H0"}, "6": {"label": "*4", "atom_type": "Cs"}, "7": {"label": "*3", "atom_type": "Cs"}}

>  <type>  (16) 
unop_12

>  <geom_source>  (16) 
Heuristics

$$$$

     RDKit          3D

 18 16  0  0  0  0  0  0  0  0999 V2000
   -0.3690   -1.9719   -1.1549 O   0  0  0  0  0  0  0  0  0  0  0  0
    3.1558    1.0090   -0.2817 O   0  0  0  0  0  0  0  0  0  0  0  0
    2.2648    0.1593   -0.7462 O   0  0  0  0  0  1  0  0  0  0  0  0
   -0.4989   -0.7205    0.8983 C   0  0  0  0  0  0  0  0  0  0  0  0
   -1.5459    0.2733    0.3679 C   0  0  0  0  0  0  0  0  0  0  0  0
    0.4012   -1.3031   -0.1956 C   0  0  0  0  0  0  0  0  0  0  0  0
   -0.9265    1.5779   -0.1322 C   0  0  0  0  0  0  0  0  0  0  0  0
    0.1338   -0.2234    1.6653 H   0  0  0  0  0  0  0  0  0  0  0  0
   -1.0302   -1.5584    1.4001 H   0  0  0  0  0  0  0  0  0  0  0  0
   -2.2452    0.5170    1.1969 H   0  0  0  0  0  0  0  0  0  0  0  0
   -2.1442   -0.1909   -0.4455 H   0  0  0  0  0  0  0  0  0  0  0  0
    1.1092   -2.0218    0.2734 H   0  0  0  0  0  0  0  0  0  0  0  0
    1.0520   -0.4277   -0.7174 H   0  0  0  0  0  0  0  0  0  0  0  0
   -0.2716    2.0224    0.6470 H   0  0  0  0  0  0  0  0  0  0  0  0
   -0.3388    1.4046   -1.0571 H   0  0  0  0  0  0  0  0  0  0  0  0
   -1.7342    2.3020   -0.3692 H   0  0  0  0  0  0  0  0  0  0  0  0
    0.2673   -2.2659   -1.8570 H   0  0  0  0  0  0  0  0  0  0  0  0
    2.7204    1.4182    0.5080 H   0  0  0  0  0  0  0  0  0  0  0  0
  1  6  1  0
  1 17  1  0
  2  3  1  0
  2 18  1  0
  4  5  1  0
  4  6  1  0
  4  8  1  0
  4  9  1  0
  5  7  1  0
  5 10  1  0
  5 11  1  0
  6 12  1  0
  6 13  1  0
  7 14  1  0
  7 15  1  0
  7 16  1  0
M  RAD  1   3   2
M  END
>  <reaction>  (17) 
rxn_398

>  <mol_properties>  (17) 
{"0": {"label": "*0", "atom_type": "O2s"}, "1": {"label": "*1", "atom_type": "O2s"}, "3": {"label": "*2", "atom_type": "H0"}, "6": {"label": "*4", "atom_type": "Cs"}, "7": {"label": "*3", "atom_type": "Cs"}}

>  <type>  (17) 
unop_13

>  <geom_source>  (17) 
AutoTST

$$$$
