
     RDKit          3D

 12 11  0  0  0  0  0  0  0  0999 V2000
    1.2394   -0.3763   -0.3020 C   0  0  0  0  0  0  0  0  0  0  0  0
    0.1007    0.3023    0.4464 C   0  0  0  0  0  0  0  0  0  0  0  0
   -0.1187    2.0399   -0.0725 S   0  0  0  0  0  0  0  0  0  0  0  0
   -1.1974   -0.4877    0.3552 C   0  0  0  0  0  0  0  0  0  0  0  0
    2.1681    0.1849   -0.2048 H   0  0  0  0  0  0  0  0  0  0  0  0
    1.0031   -0.4606   -1.3656 H   0  0  0  0  0  0  0  0  0  0  0  0
    1.3994   -1.3856    0.0860 H   0  0  0  0  0  0  0  0  0  0  0  0
    0.3796    0.4050    1.4981 H   0  0  0  0  0  0  0  0  0  0  0  0
   -0.4500    1.7779   -1.3452 H   0  0  0  0  0  0  0  0  0  0  0  0
   -1.0545   -1.4978    0.7479 H   0  0  0  0  0  0  0  0  0  0  0  0
   -1.5206   -0.5759   -0.6849 H   0  0  0  0  0  0  0  0  0  0  0  0
   -1.9957   -0.0054    0.9183 H   0  0  0  0  0  0  0  0  0  0  0  0
  1  2  1  0
  1  5  1  0
  1  6  1  0
  1  7  1  0
  2  4  1  0
  2  3  1  0
  2  8  1  0
  3  9  1  0
  4 10  1  0
  4 11  1  0
  4 12  1  0
M  END
>  <reaction>  (1) 
rxn_1942

>  <mol_properties>  (1) 
{"1": {"label": "donator", "atom_type": "Cs"}, "7": {"label": "d_hydrogen", "atom_type": "H0"}}

>  <type>  (1) 
r1h

$$$$

     RDKit          3D

 10  9  0  0  0  0  0  0  0  0999 V2000
   -1.2648    0.1959    0.8197 C   0  0  0  0  0  0  0  0  0  0  0  0
   -0.2805    0.0995   -0.3030 C   0  0  0  0  0  3  0  0  0  0  0  0
   -0.0444    1.1347   -1.1797 C   0  0  0  0  0  0  0  0  0  0  0  0
    0.1640    2.0467   -1.9525 C   0  0  0  0  0  0  0  0  0  0  0  0
    0.5686   -1.4168   -0.4488 S   0  0  0  0  0  0  0  0  0  0  0  0
   -2.0466   -0.5638    0.7258 H   0  0  0  0  0  0  0  0  0  0  0  0
   -0.7765    0.0454    1.7871 H   0  0  0  0  0  0  0  0  0  0  0  0
   -1.7371    1.1762    0.8222 H   0  0  0  0  0  0  0  0  0  0  0  0
    0.3433    2.8484   -2.6273 H   0  0  0  0  0  0  0  0  0  0  0  0
    1.3075   -1.0953   -1.5176 H   0  0  0  0  0  0  0  0  0  0  0  0
  1  2  1  0
  1  6  1  0
  1  7  1  0
  1  8  1  0
  2  3  1  0
  2  5  1  0
  3  4  3  0
  4  9  1  0
  5 10  1  0
M  RAD  1   2   2
M  END
>  <reaction>  (2) 
rxn_1942

>  <mol_properties>  (2) 
{"1": {"label": "acceptor", "atom_type": "Cs"}}

>  <type>  (2) 
r2

$$$$

     RDKit          3D

 11 10  0  0  0  0  0  0  0  0999 V2000
   -1.2582   -0.5130    0.2160 C   0  0  0  0  0  0  0  0  0  0  0  0
   -0.1109    0.0509   -0.6210 C   0  0  0  0  0  0  0  0  0  0  0  0
    1.1862   -0.2025   -0.0072 C   0  0  0  0  0  0  0  0  0  0  0  0
    2.2351   -0.4206    0.5274 C   0  0  0  0  0  0  0  0  0  0  0  0
   -0.3298    1.8272   -1.0120 S   0  0  0  0  0  0  0  0  0  0  0  0
   -1.2875   -0.0327    1.1945 H   0  0  0  0  0  0  0  0  0  0  0  0
   -2.2088   -0.3391   -0.2866 H   0  0  0  0  0  0  0  0  0  0  0  0
   -1.1220   -1.5854    0.3655 H   0  0  0  0  0  0  0  0  0  0  0  0
   -0.1222   -0.4181   -1.6078 H   0  0  0  0  0  0  0  0  0  0  0  0
    3.1729   -0.6098    0.9920 H   0  0  0  0  0  0  0  0  0  0  0  0
   -0.1942    2.2663    0.2466 H   0  0  0  0  0  0  0  0  0  0  0  0
  1  2  1  0
  1  6  1  0
  1  7  1  0
  1  8  1  0
  2  3  1  0
  2  5  1  0
  2  9  1  0
  3  4  3  0
  4 10  1  0
  5 11  1  0
M  END
>  <reaction>  (3) 
rxn_1942

>  <mol_properties>  (3) 
{"1": {"label": "acceptor", "atom_type": "Cs"}, "10": {"label": "a_hydrogen", "atom_type": "H0"}}

>  <type>  (3) 
r2h

$$$$

     RDKit          3D

 22 20  0  0  0  0  0  0  0  0999 V2000
   -0.8734   -0.2685    2.0883 C   0  0  0  0  0  0  0  0  0  0  0  0
   -1.0089   -0.3460    0.5804 C   0  0  0  0  0  0  0  0  0  0  0  0
   -2.1436    0.3147    0.0164 C   0  0  0  0  0  0  0  0  0  0  0  0
   -3.0499    0.9194   -0.4915 C   0  0  0  0  0  0  0  0  0  0  0  0
   -0.7449   -2.0308   -0.0087 S   0  0  0  0  0  0  0  0  0  0  0  0
   -1.6541   -0.8447    2.5897 H   0  0  0  0  0  0  0  0  0  0  0  0
    0.1015   -0.6489    2.3974 H   0  0  0  0  0  0  0  0  0  0  0  0
   -0.9544    0.7704    2.4087 H   0  0  0  0  0  0  0  0  0  0  0  0
   -3.8687    1.4395   -0.9270 H   0  0  0  0  0  0  0  0  0  0  0  0
   -1.0874   -1.8050   -1.2831 H   0  0  0  0  0  0  0  0  0  0  0  0
    0.9778    0.8757   -1.8110 C   0  0  0  0  0  0  0  0  0  0  0  0
    1.1149    1.0353   -0.3193 C   0  0  0  0  0  3  0  0  0  0  0  0
    2.5433    0.2774    0.4265 S   0  0  0  0  0  0  0  0  0  0  0  0
    0.8840    2.4299    0.2048 C   0  0  0  0  0  0  0  0  0  0  0  0
    1.0610   -0.1707   -2.1092 H   0  0  0  0  0  0  0  0  0  0  0  0
    1.7522    1.4401   -2.3404 H   0  0  0  0  0  0  0  0  0  0  0  0
    0.0019    1.2468   -2.1342 H   0  0  0  0  0  0  0  0  0  0  0  0
    0.0353    0.3258    0.1493 H   0  0  0  0  0  0  0  0  0  0  0  0
    2.4158   -0.9186   -0.1653 H   0  0  0  0  0  0  0  0  0  0  0  0
   -0.1077    2.7734   -0.0972 H   0  0  0  0  0  0  0  0  0  0  0  0
    1.6200    3.1346   -0.1968 H   0  0  0  0  0  0  0  0  0  0  0  0
    0.9412    2.4652    1.2937 H   0  0  0  0  0  0  0  0  0  0  0  0
  1  2  1  0
  1  6  1  0
  1  7  1  0
  1  8  1  0
  2  3  1  0
  2  5  1  0
  2 18  1  0
  3  4  3  0
  4  9  1  0
  5 10  1  0
 11 12  1  0
 11 15  1  0
 11 16  1  0
 11 17  1  0
 12 14  1  0
 12 13  1  0
 13 19  1  0
 14 20  1  0
 14 21  1  0
 14 22  1  0
M  RAD  1  12   2
M  END
>  <reaction>  (4) 
rxn_1942

>  <mol_properties>  (4) 
{"1": {"label": "*1", "atom_type": "Cs"}, "4": {"label": "*0", "atom_type": "S2s"}, "11": {"label": "*3", "atom_type": "Cs"}, "12": {"label": "*4", "atom_type": "S2s"}, "17": {"label": "*2", "atom_type": "H0"}}

>  <type>  (4) 
ts

$$$$

     RDKit          3D

 22 20  0  0  0  0  0  0  0  0999 V2000
   -0.5681   -1.8366    1.1002 C   0  0  0  0  0  0  0  0  0  0  0  0
   -0.9971   -0.6382    0.2549 C   0  0  0  0  0  0  0  0  0  0  0  0
   -0.9665    0.6038    1.0164 C   0  0  0  0  0  0  0  0  0  0  0  0
   -0.9375    1.6051    1.6724 C   0  0  0  0  0  0  0  0  0  0  0  0
   -2.6234   -0.8888   -0.5501 S   0  0  0  0  0  0  0  0  0  0  0  0
   -1.2536   -1.9775    1.9364 H   0  0  0  0  0  0  0  0  0  0  0  0
   -0.5672   -2.7413    0.4936 H   0  0  0  0  0  0  0  0  0  0  0  0
    0.4330   -1.6730    1.5026 H   0  0  0  0  0  0  0  0  0  0  0  0
   -0.9118    2.4944    2.2550 H   0  0  0  0  0  0  0  0  0  0  0  0
   -3.3418   -0.8905    0.5809 H   0  0  0  0  0  0  0  0  0  0  0  0
    1.1384    0.6254   -2.1173 C   0  0  0  0  0  0  0  0  0  0  0  0
    1.1384    0.6254   -0.5950 C   0  0  0  0  0  3  0  0  0  0  0  0
    2.4935   -0.3910    0.0886 S   0  0  0  0  0  0  0  0  0  0  0  0
    1.1384    2.0354   -0.0209 C   0  0  0  0  0  0  0  0  0  0  0  0
    1.1098   -0.3888   -2.5140 H   0  0  0  0  0  0  0  0  0  0  0  0
    2.0369    1.1151   -2.5009 H   0  0  0  0  0  0  0  0  0  0  0  0
    0.2715    1.1728   -2.4961 H   0  0  0  0  0  0  0  0  0  0  0  0
    0.0705   -0.0065   -0.1700 H   0  0  0  0  0  0  0  0  0  0  0  0
    3.4997    0.3445   -0.4060 H   0  0  0  0  0  0  0  0  0  0  0  0
    0.2715    2.5926   -0.3851 H   0  0  0  0  0  0  0  0  0  0  0  0
    2.0369    2.5753   -0.3299 H   0  0  0  0  0  0  0  0  0  0  0  0
    1.1098    2.0203    1.0680 H   0  0  0  0  0  0  0  0  0  0  0  0
  1  2  1  0
  1  6  1  0
  1  7  1  0
  1  8  1  0
  2  3  1  0
  2  5  1  0
  2 18  1  0
  3  4  3  0
  4  9  1  0
  5 10  1  0
 11 12  1  0
 11 15  1  0
 11 16  1  0
 11 17  1  0
 12 14  1  0
 12 13  1  0
 13 19  1  0
 14 20  1  0
 14 21  1  0
 14 22  1  0
M  RAD  1  12   2
M  END
>  <reaction>  (5) 
rxn_1942

>  <mol_properties>  (5) 
{"1": {"label": "*1", "atom_type": "Cs"}, "4": {"label": "*0", "atom_type": "S2s"}, "11": {"label": "*3", "atom_type": "Cs"}, "12": {"label": "*4", "atom_type": "S2s"}, "17": {"label": "*2", "atom_type": "H0"}}

>  <type>  (5) 
unop_1

>  <geom_source>  (5) 
Heuristics

$$$$

     RDKit          3D

 22 20  0  0  0  0  0  0  0  0999 V2000
   -1.4975   -1.5648   -0.9347 C   0  0  0  0  0  0  0  0  0  0  0  0
   -1.1077   -0.4957    0.0850 C   0  0  0  0  0  0  0  0  0  0  0  0
   -0.4145   -1.0657    1.2331 C   0  0  0  0  0  0  0  0  0  0  0  0
    0.1454   -1.5668    2.1653 C   0  0  0  0  0  0  0  0  0  0  0  0
   -2.5305    0.5336    0.6068 S   0  0  0  0  0  0  0  0  0  0  0  0
   -2.1881   -2.2817   -0.4896 H   0  0  0  0  0  0  0  0  0  0  0  0
   -1.9805   -1.1031   -1.7950 H   0  0  0  0  0  0  0  0  0  0  0  0
   -0.6108   -2.1062   -1.2685 H   0  0  0  0  0  0  0  0  0  0  0  0
    0.6427   -2.0120    2.9932 H   0  0  0  0  0  0  0  0  0  0  0  0
   -3.1856   -0.4451    1.2457 H   0  0  0  0  0  0  0  0  0  0  0  0
    1.0278    0.7679   -2.2872 C   0  0  0  0  0  0  0  0  0  0  0  0
    1.0278    0.7679   -0.7648 C   0  0  0  0  0  3  0  0  0  0  0  0
    2.3828   -0.2485   -0.0812 S   0  0  0  0  0  0  0  0  0  0  0  0
    1.0278    2.1779   -0.1908 C   0  0  0  0  0  0  0  0  0  0  0  0
    0.9992   -0.2463   -2.6838 H   0  0  0  0  0  0  0  0  0  0  0  0
    1.9262    1.2576   -2.6708 H   0  0  0  0  0  0  0  0  0  0  0  0
    0.1608    1.3153   -2.6660 H   0  0  0  0  0  0  0  0  0  0  0  0
   -0.0401    0.1360   -0.3399 H   0  0  0  0  0  0  0  0  0  0  0  0
    3.3891    0.4870   -0.5759 H   0  0  0  0  0  0  0  0  0  0  0  0
    0.1608    2.7351   -0.5550 H   0  0  0  0  0  0  0  0  0  0  0  0
    1.9262    2.7178   -0.4997 H   0  0  0  0  0  0  0  0  0  0  0  0
    0.9992    2.1628    0.8982 H   0  0  0  0  0  0  0  0  0  0  0  0
  1  2  1  0
  1  6  1  0
  1  7  1  0
  1  8  1  0
  2  3  1  0
  2  5  1  0
  2 18  1  0
  3  4  3  0
  4  9  1  0
  5 10  1  0
 11 12  1  0
 11 15  1  0
 11 16  1  0
 11 17  1  0
 12 14  1  0
 12 13  1  0
 13 19  1  0
 14 20  1  0
 14 21  1  0
 14 22  1  0
M  RAD  1  12   2
M  END
>  <reaction>  (6) 
rxn_1942

>  <mol_properties>  (6) 
{"1": {"label": "*1", "atom_type": "Cs"}, "4": {"label": "*0", "atom_type": "S2s"}, "11": {"label": "*3", "atom_type": "Cs"}, "12": {"label": "*4", "atom_type": "S2s"}, "17": {"label": "*2", "atom_type": "H0"}}

>  <type>  (6) 
unop_2

>  <geom_source>  (6) 
Heuristics

$$$$

     RDKit          3D

 22 20  0  0  0  0  0  0  0  0999 V2000
   -0.6573   -1.2064    1.7434 C   0  0  0  0  0  0  0  0  0  0  0  0
   -0.9645   -0.5498    0.3984 C   0  0  0  0  0  0  0  0  0  0  0  0
   -1.5320    0.7825    0.5602 C   0  0  0  0  0  0  0  0  0  0  0  0
   -2.0029    1.8706    0.7283 C   0  0  0  0  0  0  0  0  0  0  0  0
   -2.0158   -1.5983   -0.6746 S   0  0  0  0  0  0  0  0  0  0  0  0
   -1.5725   -1.3356    2.3219 H   0  0  0  0  0  0  0  0  0  0  0  0
   -0.2022   -2.1837    1.5876 H   0  0  0  0  0  0  0  0  0  0  0  0
    0.0258   -0.5800    2.3196 H   0  0  0  0  0  0  0  0  0  0  0  0
   -2.4210    2.8369    0.8776 H   0  0  0  0  0  0  0  0  0  0  0  0
   -3.1123   -1.5301    0.0924 H   0  0  0  0  0  0  0  0  0  0  0  0
    1.1710    0.7138   -1.9738 C   0  0  0  0  0  0  0  0  0  0  0  0
    1.1710    0.7138   -0.4515 C   0  0  0  0  0  3  0  0  0  0  0  0
    2.5260   -0.3026    0.2321 S   0  0  0  0  0  0  0  0  0  0  0  0
    1.1710    2.1238    0.1226 C   0  0  0  0  0  0  0  0  0  0  0  0
    1.1424   -0.3005   -2.3705 H   0  0  0  0  0  0  0  0  0  0  0  0
    2.0694    1.2035   -2.3574 H   0  0  0  0  0  0  0  0  0  0  0  0
    0.3040    1.2612   -2.3526 H   0  0  0  0  0  0  0  0  0  0  0  0
    0.1031    0.0819   -0.0265 H   0  0  0  0  0  0  0  0  0  0  0  0
    3.5323    0.4329   -0.2625 H   0  0  0  0  0  0  0  0  0  0  0  0
    0.3040    2.6810   -0.2416 H   0  0  0  0  0  0  0  0  0  0  0  0
    2.0694    2.6637   -0.1864 H   0  0  0  0  0  0  0  0  0  0  0  0
    1.1424    2.1087    1.2115 H   0  0  0  0  0  0  0  0  0  0  0  0
  1  2  1  0
  1  6  1  0
  1  7  1  0
  1  8  1  0
  2  3  1  0
  2  5  1  0
  2 18  1  0
  3  4  3  0
  4  9  1  0
  5 10  1  0
 11 12  1  0
 11 15  1  0
 11 16  1  0
 11 17  1  0
 12 14  1  0
 12 13  1  0
 13 19  1  0
 14 20  1  0
 14 21  1  0
 14 22  1  0
M  RAD  1  12   2
M  END
>  <reaction>  (7) 
rxn_1942

>  <mol_properties>  (7) 
{"1": {"label": "*1", "atom_type": "Cs"}, "4": {"label": "*0", "atom_type": "S2s"}, "11": {"label": "*3", "atom_type": "Cs"}, "12": {"label": "*4", "atom_type": "S2s"}, "17": {"label": "*2", "atom_type": "H0"}}

>  <type>  (7) 
unop_3

>  <geom_source>  (7) 
Heuristics

$$$$

     RDKit          3D

 22 20  0  0  0  0  0  0  0  0999 V2000
   -2.4885    0.2787   -0.4736 C   0  0  0  0  0  0  0  0  0  0  0  0
   -1.2421   -0.4360    0.0464 C   0  0  0  0  0  0  0  0  0  0  0  0
   -1.4778   -1.8588    0.2549 C   0  0  0  0  0  0  0  0  0  0  0  0
   -1.7067   -3.0221    0.4222 C   0  0  0  0  0  0  0  0  0  0  0  0
   -0.5507    0.3540    1.5477 S   0  0  0  0  0  0  0  0  0  0  0  0
   -3.2982    0.2095    0.2535 H   0  0  0  0  0  0  0  0  0  0  0  0
   -2.2695    1.3306   -0.6527 H   0  0  0  0  0  0  0  0  0  0  0  0
   -2.8244   -0.1817   -1.4042 H   0  0  0  0  0  0  0  0  0  0  0  0
   -1.9101   -4.0553    0.5708 H   0  0  0  0  0  0  0  0  0  0  0  0
   -1.5797    0.0538    2.3516 H   0  0  0  0  0  0  0  0  0  0  0  0
    0.8934    0.8276   -2.3258 C   0  0  0  0  0  0  0  0  0  0  0  0
    0.8934    0.8276   -0.8034 C   0  0  0  0  0  3  0  0  0  0  0  0
    2.2484   -0.1888   -0.1198 S   0  0  0  0  0  0  0  0  0  0  0  0
    0.8934    2.2376   -0.2294 C   0  0  0  0  0  0  0  0  0  0  0  0
    0.8648   -0.1866   -2.7224 H   0  0  0  0  0  0  0  0  0  0  0  0
    1.7918    1.3173   -2.7094 H   0  0  0  0  0  0  0  0  0  0  0  0
    0.0264    1.3750   -2.7046 H   0  0  0  0  0  0  0  0  0  0  0  0
   -0.1745    0.1957   -0.3785 H   0  0  0  0  0  0  0  0  0  0  0  0
    3.2547    0.5467   -0.6145 H   0  0  0  0  0  0  0  0  0  0  0  0
    0.0264    2.7948   -0.5936 H   0  0  0  0  0  0  0  0  0  0  0  0
    1.7918    2.7775   -0.5383 H   0  0  0  0  0  0  0  0  0  0  0  0
    0.8648    2.2225    0.8596 H   0  0  0  0  0  0  0  0  0  0  0  0
  1  2  1  0
  1  6  1  0
  1  7  1  0
  1  8  1  0
  2  3  1  0
  2  5  1  0
  2 18  1  0
  3  4  3  0
  4  9  1  0
  5 10  1  0
 11 12  1  0
 11 15  1  0
 11 16  1  0
 11 17  1  0
 12 14  1  0
 12 13  1  0
 13 19  1  0
 14 20  1  0
 14 21  1  0
 14 22  1  0
M  RAD  1  12   2
M  END
>  <reaction>  (8) 
rxn_1942

>  <mol_properties>  (8) 
{"1": {"label": "*1", "atom_type": "Cs"}, "4": {"label": "*0", "atom_type": "S2s"}, "11": {"label": "*3", "atom_type": "Cs"}, "12": {"label": "*4", "atom_type": "S2s"}, "17": {"label": "*2", "atom_type": "H0"}}

>  <type>  (8) 
unop_4

>  <geom_source>  (8) 
Heuristics

$$$$

     RDKit          3D

 22 20  0  0  0  0  0  0  0  0999 V2000
   -1.0595   -0.3351    1.9966 C   0  0  0  0  0  0  0  0  0  0  0  0
   -1.0532   -0.3314    0.4687 C   0  0  0  0  0  0  0  0  0  0  0  0
   -2.2284    0.3339   -0.0788 C   0  0  0  0  0  0  0  0  0  0  0  0
   -3.2089    0.8802   -0.4958 C   0  0  0  0  0  0  0  0  0  0  0  0
   -0.8432   -2.0076   -0.2399 S   0  0  0  0  0  0  0  0  0  0  0  0
   -1.9219   -0.8866    2.3725 H   0  0  0  0  0  0  0  0  0  0  0  0
   -0.1527   -0.8065    2.3735 H   0  0  0  0  0  0  0  0  0  0  0  0
   -1.1163    0.6872    2.3743 H   0  0  0  0  0  0  0  0  0  0  0  0
   -4.0797    1.3654   -0.8661 H   0  0  0  0  0  0  0  0  0  0  0  0
   -2.0222   -2.4866    0.1795 H   0  0  0  0  0  0  0  0  0  0  0  0
    1.0823    0.9322   -1.9035 C   0  0  0  0  0  0  0  0  0  0  0  0
    1.0823    0.9322   -0.3812 C   0  0  0  0  0  3  0  0  0  0  0  0
    2.4373   -0.0842    0.3024 S   0  0  0  0  0  0  0  0  0  0  0  0
    1.0823    2.3422    0.1929 C   0  0  0  0  0  0  0  0  0  0  0  0
    1.0537   -0.0820   -2.3002 H   0  0  0  0  0  0  0  0  0  0  0  0
    1.9807    1.4219   -2.2871 H   0  0  0  0  0  0  0  0  0  0  0  0
    0.2153    1.4796   -2.2823 H   0  0  0  0  0  0  0  0  0  0  0  0
    0.0144    0.3003    0.0438 H   0  0  0  0  0  0  0  0  0  0  0  0
    3.4436    0.6513   -0.1922 H   0  0  0  0  0  0  0  0  0  0  0  0
    0.2153    2.8994   -0.1713 H   0  0  0  0  0  0  0  0  0  0  0  0
    1.9807    2.8821   -0.1161 H   0  0  0  0  0  0  0  0  0  0  0  0
    1.0537    2.3271    1.2818 H   0  0  0  0  0  0  0  0  0  0  0  0
  1  2  1  0
  1  6  1  0
  1  7  1  0
  1  8  1  0
  2  3  1  0
  2  5  1  0
  2 18  1  0
  3  4  3  0
  4  9  1  0
  5 10  1  0
 11 12  1  0
 11 15  1  0
 11 16  1  0
 11 17  1  0
 12 14  1  0
 12 13  1  0
 13 19  1  0
 14 20  1  0
 14 21  1  0
 14 22  1  0
M  RAD  1  12   2
M  END
>  <reaction>  (9) 
rxn_1942

>  <mol_properties>  (9) 
{"1": {"label": "*1", "atom_type": "Cs"}, "4": {"label": "*0", "atom_type": "S2s"}, "11": {"label": "*3", "atom_type": "Cs"}, "12": {"label": "*4", "atom_type": "S2s"}, "17": {"label": "*2", "atom_type": "H0"}}

>  <type>  (9) 
unop_5

>  <geom_source>  (9) 
Heuristics

$$$$

     RDKit          3D

 22 20  0  0  0  0  0  0  0  0999 V2000
   -2.4553    0.6575    0.2520 C   0  0  0  0  0  0  0  0  0  0  0  0
   -1.3117   -0.3426    0.0893 C   0  0  0  0  0  0  0  0  0  0  0  0
   -1.7989   -1.7095   -0.0433 C   0  0  0  0  0  0  0  0  0  0  0  0
   -2.2319   -2.8215   -0.1421 C   0  0  0  0  0  0  0  0  0  0  0  0
   -0.0599   -0.2053    1.4198 S   0  0  0  0  0  0  0  0  0  0  0  0
   -3.0184    0.4474    1.1619 H   0  0  0  0  0  0  0  0  0  0  0  0
   -2.0605    1.6710    0.3123 H   0  0  0  0  0  0  0  0  0  0  0  0
   -3.1382    0.5881   -0.5964 H   0  0  0  0  0  0  0  0  0  0  0  0
   -2.6164   -3.8091   -0.2299 H   0  0  0  0  0  0  0  0  0  0  0  0
   -0.8584   -0.6292    2.4088 H   0  0  0  0  0  0  0  0  0  0  0  0
    0.8238    0.9210   -2.2829 C   0  0  0  0  0  0  0  0  0  0  0  0
    0.8238    0.9210   -0.7605 C   0  0  0  0  0  3  0  0  0  0  0  0
    2.1789   -0.0955   -0.0769 S   0  0  0  0  0  0  0  0  0  0  0  0
    0.8238    2.3309   -0.1865 C   0  0  0  0  0  0  0  0  0  0  0  0
    0.7952   -0.0933   -2.6795 H   0  0  0  0  0  0  0  0  0  0  0  0
    1.7223    1.4107   -2.6665 H   0  0  0  0  0  0  0  0  0  0  0  0
   -0.0431    1.4684   -2.6617 H   0  0  0  0  0  0  0  0  0  0  0  0
   -0.2441    0.2891   -0.3355 H   0  0  0  0  0  0  0  0  0  0  0  0
    3.1851    0.6400   -0.5716 H   0  0  0  0  0  0  0  0  0  0  0  0
   -0.0431    2.8882   -0.5507 H   0  0  0  0  0  0  0  0  0  0  0  0
    1.7223    2.8709   -0.4954 H   0  0  0  0  0  0  0  0  0  0  0  0
    0.7952    2.3159    0.9025 H   0  0  0  0  0  0  0  0  0  0  0  0
  1  2  1  0
  1  6  1  0
  1  7  1  0
  1  8  1  0
  2  3  1  0
  2  5  1  0
  2 18  1  0
  3  4  3  0
  4  9  1  0
  5 10  1  0
 11 12  1  0
 11 15  1  0
 11 16  1  0
 11 17  1  0
 12 14  1  0
 12 13  1  0
 13 19  1  0
 14 20  1  0
 14 21  1  0
 14 22  1  0
M  RAD  1  12   2
M  END
>  <reaction>  (10) 
rxn_1942

>  <mol_properties>  (10) 
{"1": {"label": "*1", "atom_type": "Cs"}, "4": {"label": "*0", "atom_type": "S2s"}, "11": {"label": "*3", "atom_type": "Cs"}, "12": {"label": "*4", "atom_type": "S2s"}, "17": {"label": "*2", "atom_type": "H0"}}

>  <type>  (10) 
unop_6

>  <geom_source>  (10) 
Heuristics

$$$$

     RDKit          3D

 22 21  0  0  0  0  0  0  0  0999 V2000
   -2.1691    0.7078    1.0452 C   0  0  0  0  0  0  0  0  0  0  0  0
   -1.3252   -0.2451    0.1999 C   0  0  0  0  0  0  0  0  0  0  0  0
   -2.1111   -1.3607   -0.3109 C   0  0  0  0  0  0  0  0  0  0  0  0
   -2.7837   -2.2682   -0.7084 C   0  0  0  0  0  0  0  0  0  0  0  0
    0.1723   -0.8294    1.0786 S   0  0  0  0  0  3  0  0  0  0  0  0
   -2.5655    0.1912    1.9200 H   0  0  0  0  0  0  0  0  0  0  0  0
   -1.5622    1.5475    1.3813 H   0  0  0  0  0  0  0  0  0  0  0  0
   -3.0101    1.0839    0.4602 H   0  0  0  0  0  0  0  0  0  0  0  0
   -3.3810   -3.0741   -1.0614 H   0  0  0  0  0  0  0  0  0  0  0  0
   -0.4785   -1.5456    2.0052 H   0  0  0  0  0  0  0  0  0  0  0  0
    0.8103    1.0185   -2.1723 C   0  0  0  0  0  0  0  0  0  0  0  0
    0.8103    1.0185   -0.6499 C   0  0  0  0  0  0  0  0  0  0  0  0
    2.1653    0.0021    0.0337 S   0  0  0  0  0  4  0  0  0  0  0  0
    0.8103    2.4285   -0.0759 C   0  0  0  0  0  0  0  0  0  0  0  0
    0.7817    0.0043   -2.5689 H   0  0  0  0  0  0  0  0  0  0  0  0
    1.7087    1.5082   -2.5559 H   0  0  0  0  0  0  0  0  0  0  0  0
   -0.0566    1.5659   -2.5511 H   0  0  0  0  0  0  0  0  0  0  0  0
   -0.2576    0.3866   -0.2249 H   0  0  0  0  0  0  0  0  0  0  0  0
    3.1716    0.7376   -0.4610 H   0  0  0  0  0  0  0  0  0  0  0  0
   -0.0566    2.9857   -0.4401 H   0  0  0  0  0  0  0  0  0  0  0  0
    1.7087    2.9684   -0.3848 H   0  0  0  0  0  0  0  0  0  0  0  0
    0.7817    2.4134    1.0131 H   0  0  0  0  0  0  0  0  0  0  0  0
  1  2  1  0
  1  6  1  0
  1  7  1  0
  1  8  1  0
  2  3  1  0
  2  5  1  0
  2 18  1  0
  3  4  3  0
  4  9  1  0
  5 13  1  0
  5 10  1  0
 11 12  1  0
 11 15  1  0
 11 16  1  0
 11 17  1  0
 12 14  1  0
 12 13  2  3
 13 19  1  0
 14 20  1  0
 14 21  1  0
 14 22  1  0
M  RAD  1   5   2
M  END
>  <reaction>  (11) 
rxn_1942

>  <mol_properties>  (11) 
{"1": {"label": "*1", "atom_type": "Cs"}, "4": {"label": "*0", "atom_type": "S2s"}, "11": {"label": "*3", "atom_type": "Cs"}, "12": {"label": "*4", "atom_type": "S2s"}, "17": {"label": "*2", "atom_type": "H0"}}

>  <type>  (11) 
unop_7

>  <geom_source>  (11) 
Heuristics

$$$$

     RDKit          3D

 22 20  0  0  0  0  0  0  0  0999 V2000
   -0.7283   -2.0995    0.3070 C   0  0  0  0  0  0  0  0  0  0  0  0
   -1.0545   -0.6156    0.1443 C   0  0  0  0  0  0  0  0  0  0  0  0
   -0.6015    0.1694    1.2853 C   0  0  0  0  0  0  0  0  0  0  0  0
   -0.2233    0.7839    2.2409 C   0  0  0  0  0  0  0  0  0  0  0  0
   -2.8269   -0.3178   -0.2104 S   0  0  0  0  0  0  0  0  0  0  0  0
   -1.2406   -2.5086    1.1783 H   0  0  0  0  0  0  0  0  0  0  0  0
   -1.0469   -2.6518   -0.5762 H   0  0  0  0  0  0  0  0  0  0  0  0
    0.3455   -2.2346    0.4470 H   0  0  0  0  0  0  0  0  0  0  0  0
    0.1125    1.3296    3.0896 H   0  0  0  0  0  0  0  0  0  0  0  0
   -3.2799   -0.7246    0.9831 H   0  0  0  0  0  0  0  0  0  0  0  0
    1.0810    0.6480   -2.2279 C   0  0  0  0  0  0  0  0  0  0  0  0
    1.0810    0.6480   -0.7055 C   0  0  0  0  0  3  0  0  0  0  0  0
    2.4360   -0.3685   -0.0219 S   0  0  0  0  0  0  0  0  0  0  0  0
    1.0810    2.0579   -0.1315 C   0  0  0  0  0  0  0  0  0  0  0  0
    1.0524   -0.3663   -2.6245 H   0  0  0  0  0  0  0  0  0  0  0  0
    1.9794    1.1377   -2.6115 H   0  0  0  0  0  0  0  0  0  0  0  0
    0.2140    1.1954   -2.6067 H   0  0  0  0  0  0  0  0  0  0  0  0
    0.0131    0.0161   -0.2805 H   0  0  0  0  0  0  0  0  0  0  0  0
    3.4423    0.3670   -0.5166 H   0  0  0  0  0  0  0  0  0  0  0  0
    0.2140    2.6152   -0.4957 H   0  0  0  0  0  0  0  0  0  0  0  0
    1.9794    2.5979   -0.4404 H   0  0  0  0  0  0  0  0  0  0  0  0
    1.0524    2.0428    0.9575 H   0  0  0  0  0  0  0  0  0  0  0  0
  1  2  1  0
  1  6  1  0
  1  7  1  0
  1  8  1  0
  2  3  1  0
  2  5  1  0
  2 18  1  0
  3  4  3  0
  4  9  1  0
  5 10  1  0
 11 12  1  0
 11 15  1  0
 11 16  1  0
 11 17  1  0
 12 14  1  0
 12 13  1  0
 13 19  1  0
 14 20  1  0
 14 21  1  0
 14 22  1  0
M  RAD  1  12   2
M  END
>  <reaction>  (12) 
rxn_1942

>  <mol_properties>  (12) 
{"1": {"label": "*1", "atom_type": "Cs"}, "4": {"label": "*0", "atom_type": "S2s"}, "11": {"label": "*3", "atom_type": "Cs"}, "12": {"label": "*4", "atom_type": "S2s"}, "17": {"label": "*2", "atom_type": "H0"}}

>  <type>  (12) 
unop_8

>  <geom_source>  (12) 
Heuristics

$$$$

     RDKit          3D

 22 20  0  0  0  0  0  0  0  0999 V2000
   -2.2868   -0.3111   -0.9620 C   0  0  0  0  0  0  0  0  0  0  0  0
   -1.1621   -0.4840    0.0577 C   0  0  0  0  0  0  0  0  0  0  0  0
   -1.0996   -1.8455    0.5734 C   0  0  0  0  0  0  0  0  0  0  0  0
   -1.0803   -2.9708    0.9821 C   0  0  0  0  0  0  0  0  0  0  0  0
   -1.2470    0.7420    1.4162 S   0  0  0  0  0  0  0  0  0  0  0  0
   -3.2545   -0.5035   -0.4978 H   0  0  0  0  0  0  0  0  0  0  0  0
   -2.2838    0.7052   -1.3539 H   0  0  0  0  0  0  0  0  0  0  0  0
   -2.1574   -1.0142   -1.7865 H   0  0  0  0  0  0  0  0  0  0  0  0
   -1.0632   -3.9703    1.3450 H   0  0  0  0  0  0  0  0  0  0  0  0
   -2.3835    0.2785    1.9536 H   0  0  0  0  0  0  0  0  0  0  0  0
    0.9734    0.7796   -2.3145 C   0  0  0  0  0  0  0  0  0  0  0  0
    0.9734    0.7796   -0.7921 C   0  0  0  0  0  3  0  0  0  0  0  0
    2.3284   -0.2369   -0.1085 S   0  0  0  0  0  0  0  0  0  0  0  0
    0.9734    2.1895   -0.2181 C   0  0  0  0  0  0  0  0  0  0  0  0
    0.9448   -0.2347   -2.7111 H   0  0  0  0  0  0  0  0  0  0  0  0
    1.8718    1.2693   -2.6981 H   0  0  0  0  0  0  0  0  0  0  0  0
    0.1064    1.3270   -2.6933 H   0  0  0  0  0  0  0  0  0  0  0  0
   -0.0945    0.1477   -0.3672 H   0  0  0  0  0  0  0  0  0  0  0  0
    3.3347    0.4986   -0.6032 H   0  0  0  0  0  0  0  0  0  0  0  0
    0.1064    2.7468   -0.5823 H   0  0  0  0  0  0  0  0  0  0  0  0
    1.8718    2.7295   -0.5270 H   0  0  0  0  0  0  0  0  0  0  0  0
    0.9448    2.1745    0.8708 H   0  0  0  0  0  0  0  0  0  0  0  0
  1  2  1  0
  1  6  1  0
  1  7  1  0
  1  8  1  0
  2  3  1  0
  2  5  1  0
  2 18  1  0
  3  4  3  0
  4  9  1  0
  5 10  1  0
 11 12  1  0
 11 15  1  0
 11 16  1  0
 11 17  1  0
 12 14  1  0
 12 13  1  0
 13 19  1  0
 14 20  1  0
 14 21  1  0
 14 22  1  0
M  RAD  1  12   2
M  END
>  <reaction>  (13) 
rxn_1942

>  <mol_properties>  (13) 
{"1": {"label": "*1", "atom_type": "Cs"}, "4": {"label": "*0", "atom_type": "S2s"}, "11": {"label": "*3", "atom_type": "Cs"}, "12": {"label": "*4", "atom_type": "S2s"}, "17": {"label": "*2", "atom_type": "H0"}}

>  <type>  (13) 
unop_9

>  <geom_source>  (13) 
Heuristics

$$$$

     RDKit          3D

 22 20  0  0  0  0  0  0  0  0999 V2000
   -1.0690   -1.9852   -0.4276 C   0  0  0  0  0  0  0  0  0  0  0  0
   -1.0955   -0.5487    0.0924 C   0  0  0  0  0  0  0  0  0  0  0  0
   -0.3994   -0.4179    1.3659 C   0  0  0  0  0  0  0  0  0  0  0  0
    0.1735   -0.3464    2.4149 C   0  0  0  0  0  0  0  0  0  0  0  0
   -2.7917    0.1370    0.1845 S   0  0  0  0  0  0  0  0  0  0  0  0
   -1.5816   -2.6511    0.2672 H   0  0  0  0  0  0  0  0  0  0  0  0
   -1.5651   -2.0421   -1.3956 H   0  0  0  0  0  0  0  0  0  0  0  0
   -0.0381   -2.3277   -0.5318 H   0  0  0  0  0  0  0  0  0  0  0  0
    0.6823   -0.2829    3.3466 H   0  0  0  0  0  0  0  0  0  0  0  0
   -3.2198   -0.6763    1.1594 H   0  0  0  0  0  0  0  0  0  0  0  0
    1.0400    0.7149   -2.2798 C   0  0  0  0  0  0  0  0  0  0  0  0
    1.0400    0.7149   -0.7575 C   0  0  0  0  0  3  0  0  0  0  0  0
    2.3950   -0.3015   -0.0738 S   0  0  0  0  0  0  0  0  0  0  0  0
    1.0400    2.1249   -0.1834 C   0  0  0  0  0  0  0  0  0  0  0  0
    1.0114   -0.2993   -2.6764 H   0  0  0  0  0  0  0  0  0  0  0  0
    1.9384    1.2047   -2.6634 H   0  0  0  0  0  0  0  0  0  0  0  0
    0.1730    1.2624   -2.6586 H   0  0  0  0  0  0  0  0  0  0  0  0
   -0.0279    0.0831   -0.3325 H   0  0  0  0  0  0  0  0  0  0  0  0
    3.4013    0.4340   -0.5685 H   0  0  0  0  0  0  0  0  0  0  0  0
    0.1730    2.6822   -0.5476 H   0  0  0  0  0  0  0  0  0  0  0  0
    1.9384    2.6649   -0.4923 H   0  0  0  0  0  0  0  0  0  0  0  0
    1.0114    2.1098    0.9055 H   0  0  0  0  0  0  0  0  0  0  0  0
  1  2  1  0
  1  6  1  0
  1  7  1  0
  1  8  1  0
  2  3  1  0
  2  5  1  0
  2 18  1  0
  3  4  3  0
  4  9  1  0
  5 10  1  0
 11 12  1  0
 11 15  1  0
 11 16  1  0
 11 17  1  0
 12 14  1  0
 12 13  1  0
 13 19  1  0
 14 20  1  0
 14 21  1  0
 14 22  1  0
M  RAD  1  12   2
M  END
>  <reaction>  (14) 
rxn_1942

>  <mol_properties>  (14) 
{"1": {"label": "*1", "atom_type": "Cs"}, "4": {"label": "*0", "atom_type": "S2s"}, "11": {"label": "*3", "atom_type": "Cs"}, "12": {"label": "*4", "atom_type": "S2s"}, "17": {"label": "*2", "atom_type": "H0"}}

>  <type>  (14) 
unop_10

>  <geom_source>  (14) 
Heuristics

$$$$

     RDKit          3D

 22 20  0  0  0  0  0  0  0  0999 V2000
   -1.6660    0.3790    1.7028 C   0  0  0  0  0  0  0  0  0  0  0  0
   -1.2383   -0.2064    0.3577 C   0  0  0  0  0  0  0  0  0  0  0  0
   -2.3791   -0.6697   -0.4216 C   0  0  0  0  0  0  0  0  0  0  0  0
   -3.3373   -1.0469   -1.0327 C   0  0  0  0  0  0  0  0  0  0  0  0
    0.0299   -1.5170    0.5301 S   0  0  0  0  0  0  0  0  0  0  0  0
   -2.1583   -0.3815    2.3097 H   0  0  0  0  0  0  0  0  0  0  0  0
   -0.7958    0.7479    2.2441 H   0  0  0  0  0  0  0  0  0  0  0  0
   -2.3678    1.2004    1.5486 H   0  0  0  0  0  0  0  0  0  0  0  0
   -4.1882   -1.3819   -1.5754 H   0  0  0  0  0  0  0  0  0  0  0  0
   -0.7650   -2.4024    1.1459 H   0  0  0  0  0  0  0  0  0  0  0  0
    0.8972    1.0572   -2.0145 C   0  0  0  0  0  0  0  0  0  0  0  0
    0.8972    1.0572   -0.4921 C   0  0  0  0  0  3  0  0  0  0  0  0
    2.2522    0.0408    0.1915 S   0  0  0  0  0  0  0  0  0  0  0  0
    0.8972    2.4672    0.0819 C   0  0  0  0  0  0  0  0  0  0  0  0
    0.8686    0.0430   -2.4111 H   0  0  0  0  0  0  0  0  0  0  0  0
    1.7956    1.5469   -2.3981 H   0  0  0  0  0  0  0  0  0  0  0  0
    0.0302    1.6046   -2.3933 H   0  0  0  0  0  0  0  0  0  0  0  0
   -0.1707    0.4253   -0.0671 H   0  0  0  0  0  0  0  0  0  0  0  0
    3.2584    0.7763   -0.3032 H   0  0  0  0  0  0  0  0  0  0  0  0
    0.0302    3.0244   -0.2823 H   0  0  0  0  0  0  0  0  0  0  0  0
    1.7956    3.0071   -0.2270 H   0  0  0  0  0  0  0  0  0  0  0  0
    0.8686    2.4521    1.1709 H   0  0  0  0  0  0  0  0  0  0  0  0
  1  2  1  0
  1  6  1  0
  1  7  1  0
  1  8  1  0
  2  3  1  0
  2  5  1  0
  2 18  1  0
  3  4  3  0
  4  9  1  0
  5 10  1  0
 11 12  1  0
 11 15  1  0
 11 16  1  0
 11 17  1  0
 12 14  1  0
 12 13  1  0
 13 19  1  0
 14 20  1  0
 14 21  1  0
 14 22  1  0
M  RAD  1  12   2
M  END
>  <reaction>  (15) 
rxn_1942

>  <mol_properties>  (15) 
{"1": {"label": "*1", "atom_type": "Cs"}, "4": {"label": "*0", "atom_type": "S2s"}, "11": {"label": "*3", "atom_type": "Cs"}, "12": {"label": "*4", "atom_type": "S2s"}, "17": {"label": "*2", "atom_type": "H0"}}

>  <type>  (15) 
unop_11

>  <geom_source>  (15) 
Heuristics

$$$$

     RDKit          3D

 22 20  0  0  0  0  0  0  0  0999 V2000
   -1.9271   -0.9660   -1.1215 C   0  0  0  0  0  0  0  0  0  0  0  0
   -1.1159   -0.4860    0.0811 C   0  0  0  0  0  0  0  0  0  0  0  0
   -0.6881   -1.5935    0.9260 C   0  0  0  0  0  0  0  0  0  0  0  0
   -0.3589   -2.5253    1.6022 C   0  0  0  0  0  0  0  0  0  0  0  0
   -1.9886    0.7980    1.0534 S   0  0  0  0  0  0  0  0  0  0  0  0
   -2.8390   -1.4644   -0.7913 H   0  0  0  0  0  0  0  0  0  0  0  0
   -2.2003   -0.1197   -1.7506 H   0  0  0  0  0  0  0  0  0  0  0  0
   -1.3429   -1.6762   -1.7091 H   0  0  0  0  0  0  0  0  0  0  0  0
   -0.0666   -3.3528    2.2027 H   0  0  0  0  0  0  0  0  0  0  0  0
   -2.9698   -0.0011    1.4937 H   0  0  0  0  0  0  0  0  0  0  0  0
    1.0196    0.7776   -2.2911 C   0  0  0  0  0  0  0  0  0  0  0  0
    1.0196    0.7776   -0.7688 C   0  0  0  0  0  3  0  0  0  0  0  0
    2.3746   -0.2389   -0.0852 S   0  0  0  0  0  0  0  0  0  0  0  0
    1.0196    2.1875   -0.1947 C   0  0  0  0  0  0  0  0  0  0  0  0
    0.9910   -0.2367   -2.6878 H   0  0  0  0  0  0  0  0  0  0  0  0
    1.9180    1.2673   -2.6747 H   0  0  0  0  0  0  0  0  0  0  0  0
    0.1526    1.3250   -2.6699 H   0  0  0  0  0  0  0  0  0  0  0  0
   -0.0483    0.1457   -0.3438 H   0  0  0  0  0  0  0  0  0  0  0  0
    3.3808    0.4966   -0.5798 H   0  0  0  0  0  0  0  0  0  0  0  0
    0.1526    2.7448   -0.5589 H   0  0  0  0  0  0  0  0  0  0  0  0
    1.9180    2.7275   -0.5037 H   0  0  0  0  0  0  0  0  0  0  0  0
    0.9910    2.1725    0.8942 H   0  0  0  0  0  0  0  0  0  0  0  0
  1  2  1  0
  1  6  1  0
  1  7  1  0
  1  8  1  0
  2  3  1  0
  2  5  1  0
  2 18  1  0
  3  4  3  0
  4  9  1  0
  5 10  1  0
 11 12  1  0
 11 15  1  0
 11 16  1  0
 11 17  1  0
 12 14  1  0
 12 13  1  0
 13 19  1  0
 14 20  1  0
 14 21  1  0
 14 22  1  0
M  RAD  1  12   2
M  END
>  <reaction>  (16) 
rxn_1942

>  <mol_properties>  (16) 
{"1": {"label": "*1", "atom_type": "Cs"}, "4": {"label": "*0", "atom_type": "S2s"}, "11": {"label": "*3", "atom_type": "Cs"}, "12": {"label": "*4", "atom_type": "S2s"}, "17": {"label": "*2", "atom_type": "H0"}}

>  <type>  (16) 
unop_12

>  <geom_source>  (16) 
Heuristics

$$$$

     RDKit          3D

 22 20  0  0  0  0  0  0  0  0999 V2000
    1.2709   -1.6297    1.1982 S   0  0  0  0  0  0  0  0  0  0  0  0
   -1.4083    0.6552    2.0564 S   0  0  0  0  0  0  0  0  0  0  0  0
    1.1986   -0.2649   -0.0069 C   0  0  0  0  0  0  0  0  0  0  0  0
    1.6945   -0.7303   -1.3727 C   0  0  0  0  0  0  0  0  0  0  0  0
   -1.9263    1.1165   -0.6112 C   0  0  0  0  0  0  0  0  0  0  0  0
   -2.0697   -1.2664    0.2036 C   0  0  0  0  0  0  0  0  0  0  0  0
   -1.3419    0.0683    0.3326 C   0  0  0  0  0  3  0  0  0  0  0  0
    2.0026    0.8642    0.4770 C   0  0  0  0  0  0  0  0  0  0  0  0
    2.6622    1.7920    0.8742 C   0  0  0  0  0  0  0  0  0  0  0  0
   -0.0684    0.1321   -0.1212 H   0  0  0  0  0  0  0  0  0  0  0  0
    1.0737   -1.5800   -1.7271 H   0  0  0  0  0  0  0  0  0  0  0  0
    1.6078    0.0959   -2.1104 H   0  0  0  0  0  0  0  0  0  0  0  0
    2.7554   -1.0570   -1.3183 H   0  0  0  0  0  0  0  0  0  0  0  0
   -1.8561    0.7626   -1.6613 H   0  0  0  0  0  0  0  0  0  0  0  0
   -1.3514    2.0621   -0.5249 H   0  0  0  0  0  0  0  0  0  0  0  0
   -2.9911    1.3152   -0.3634 H   0  0  0  0  0  0  0  0  0  0  0  0
   -1.9923   -1.6415   -0.8386 H   0  0  0  0  0  0  0  0  0  0  0  0
   -1.6016   -2.0139    0.8779 H   0  0  0  0  0  0  0  0  0  0  0  0
   -3.1418   -1.1553    0.4733 H   0  0  0  0  0  0  0  0  0  0  0  0
    2.6698   -1.7718    1.1084 H   0  0  0  0  0  0  0  0  0  0  0  0
   -0.4280    1.6401    1.8316 H   0  0  0  0  0  0  0  0  0  0  0  0
    3.2413    2.6063    1.2228 H   0  0  0  0  0  0  0  0  0  0  0  0
  1  3  1  0
  1 20  1  0
  2  7  1  0
  2 21  1  0
  3  4  1  0
  3  8  1  0
  3 10  1  0
  4 11  1  0
  4 12  1  0
  4 13  1  0
  5  7  1  0
  5 14  1  0
  5 15  1  0
  5 16  1  0
  6  7  1  0
  6 17  1  0
  6 18  1  0
  6 19  1  0
  8  9  3  0
  9 22  1  0
M  RAD  1   7   2
M  END
>  <reaction>  (17) 
rxn_1942

>  <mol_properties>  (17) 
{"1": {"label": "*1", "atom_type": "Cs"}, "4": {"label": "*0", "atom_type": "S2s"}, "11": {"label": "*3", "atom_type": "Cs"}, "12": {"label": "*4", "atom_type": "S2s"}, "17": {"label": "*2", "atom_type": "H0"}}

>  <type>  (17) 
unop_13

>  <geom_source>  (17) 
AutoTST

$$$$
