
     RDKit          3D

 13 12  0  0  0  0  0  0  0  0999 V2000
    2.2975   -0.6134    0.7685 C   0  0  0  0  0  0  0  0  0  0  0  0
    1.1676   -0.5248    0.3802 C   0  0  0  0  0  0  0  0  0  0  0  0
   -0.2109   -0.3926   -0.0948 C   0  0  0  0  0  0  0  0  0  0  0  0
   -0.2501    0.2584   -1.4808 C   0  0  0  0  0  0  0  0  0  0  0  0
   -1.0633    0.3831    0.9141 C   0  0  0  0  0  0  0  0  0  0  0  0
    3.2999   -0.6974    1.1133 H   0  0  0  0  0  0  0  0  0  0  0  0
   -0.6209   -1.4038   -0.1814 H   0  0  0  0  0  0  0  0  0  0  0  0
    0.3402   -0.3102   -2.1992 H   0  0  0  0  0  0  0  0  0  0  0  0
    0.1511    1.2724   -1.4369 H   0  0  0  0  0  0  0  0  0  0  0  0
   -1.2791    0.3109   -1.8407 H   0  0  0  0  0  0  0  0  0  0  0  0
   -0.6861    1.4008    1.0287 H   0  0  0  0  0  0  0  0  0  0  0  0
   -1.0492   -0.0971    1.8924 H   0  0  0  0  0  0  0  0  0  0  0  0
   -2.0971    0.4363    0.5680 H   0  0  0  0  0  0  0  0  0  0  0  0
  1  2  3  0
  1  6  1  0
  2  3  1  0
  3  4  1  0
  3  5  1  0
  3  7  1  0
  4  8  1  0
  4  9  1  0
  4 10  1  0
  5 11  1  0
  5 12  1  0
  5 13  1  0
M  END
>  <reaction>  (1) 
rxn_1330

>  <mol_properties>  (1) 
{"2": {"label": "donator", "atom_type": "Cs"}, "6": {"label": "d_hydrogen", "atom_type": "H0"}}

>  <type>  (1) 
r1h

$$$$

     RDKit          3D

  7  6  0  0  0  0  0  0  0  0999 V2000
   -1.3496    0.0255    0.0758 C   0  0  0  0  0  0  0  0  0  0  0  0
   -0.0636   -0.0704   -0.0033 C   0  0  0  0  0  0  0  0  0  0  0  0
    1.2597   -0.1602   -0.0839 C   0  0  0  0  0  0  0  0  0  0  0  0
    2.2616    1.2090   -0.0064 S   0  0  0  0  0  1  0  0  0  0  0  0
   -1.8547   -0.0180    1.0345 H   0  0  0  0  0  0  0  0  0  0  0  0
   -1.9552    0.1601   -0.8138 H   0  0  0  0  0  0  0  0  0  0  0  0
    1.7017   -1.1460   -0.2029 H   0  0  0  0  0  0  0  0  0  0  0  0
  1  2  2  0
  1  5  1  0
  1  6  1  0
  2  3  2  0
  3  4  1  0
  3  7  1  0
M  RAD  1   4   2
M  END
>  <reaction>  (2) 
rxn_1330

>  <mol_properties>  (2) 
{"1": {"label": "acceptor", "atom_type": "Cd"}}

>  <type>  (2) 
r2

$$$$

     RDKit          3D

  8  7  0  0  0  0  0  0  0  0999 V2000
   -1.1617    0.0338    0.5053 C   0  0  0  0  0  0  0  0  0  0  0  0
   -0.1023    0.4503   -0.1863 C   0  0  0  0  0  0  0  0  0  0  0  0
    1.0978   -0.3557   -0.3104 C   0  0  0  0  0  0  0  0  0  0  0  0
    2.4251    0.0667   -1.1256 S   0  0  0  0  0  0  0  0  0  0  0  0
   -1.1653   -0.9292    1.0039 H   0  0  0  0  0  0  0  0  0  0  0  0
   -2.0546    0.6389    0.5948 H   0  0  0  0  0  0  0  0  0  0  0  0
   -0.0991    1.4132   -0.6847 H   0  0  0  0  0  0  0  0  0  0  0  0
    1.0601   -1.3180    0.2032 H   0  0  0  0  0  0  0  0  0  0  0  0
  1  2  2  3
  1  5  1  0
  1  6  1  0
  2  3  1  0
  2  7  1  0
  3  4  2  0
  3  8  1  0
M  END
>  <reaction>  (3) 
rxn_1330

>  <mol_properties>  (3) 
{"0": {"label": "a_hydrogen", "atom_type": "H0"}, "2": {"label": "acceptor", "atom_type": "Cd"}}

>  <type>  (3) 
r2h

$$$$

     RDKit          3D

 20 18  0  0  0  0  0  0  0  0999 V2000
   -0.2671    0.7993   -3.4485 C   0  0  0  0  0  0  0  0  0  0  0  0
   -0.1751    0.9480   -2.2588 C   0  0  0  0  0  0  0  0  0  0  0  0
   -0.0593    1.0830   -0.8416 C   0  0  0  0  0  3  0  0  0  0  0  0
   -1.2691    1.6492   -0.1327 C   0  0  0  0  0  0  0  0  0  0  0  0
    1.2809    1.5778   -0.3421 C   0  0  0  0  0  0  0  0  0  0  0  0
   -0.3512    0.6797   -4.5020 H   0  0  0  0  0  0  0  0  0  0  0  0
   -0.0858   -0.1735   -0.4023 H   0  0  0  0  0  0  0  0  0  0  0  0
   -2.1903    1.1955   -0.4969 H   0  0  0  0  0  0  0  0  0  0  0  0
   -1.3312    2.7286   -0.2952 H   0  0  0  0  0  0  0  0  0  0  0  0
   -1.1877    1.4739    0.9419 H   0  0  0  0  0  0  0  0  0  0  0  0
    1.3880    2.6459   -0.5519 H   0  0  0  0  0  0  0  0  0  0  0  0
    2.1002    1.0492   -0.8274 H   0  0  0  0  0  0  0  0  0  0  0  0
    1.3591    1.4258    0.7351 H   0  0  0  0  0  0  0  0  0  0  0  0
    0.5460   -2.1827   -0.8550 C   0  0  0  0  0  0  0  0  0  0  0  0
    0.0347   -1.4065    0.0713 C   0  0  0  0  0  0  0  0  0  0  0  0
   -0.3952   -1.4595    1.4168 C   0  0  0  0  0  0  0  0  0  0  0  0
    0.4992   -0.9868    2.7039 S   0  0  0  0  0  0  0  0  0  0  0  0
    0.7821   -3.2227   -0.6556 H   0  0  0  0  0  0  0  0  0  0  0  0
    0.7549   -1.7989   -1.8475 H   0  0  0  0  0  0  0  0  0  0  0  0
   -1.4328   -1.7616    1.5678 H   0  0  0  0  0  0  0  0  0  0  0  0
  1  2  3  0
  1  6  1  0
  2  3  1  0
  3  4  1  0
  3  5  1  0
  4  8  1  0
  4  9  1  0
  4 10  1  0
  5 11  1  0
  5 12  1  0
  5 13  1  0
  7 15  1  0
 14 15  2  3
 14 18  1  0
 14 19  1  0
 15 16  1  0
 16 17  2  0
 16 20  1  0
M  RAD  1   3   2
M  END
>  <reaction>  (4) 
rxn_1330

>  <mol_properties>  (4) 
{"1": {"label": "*4", "atom_type": "Ct"}, "2": {"label": "*3", "atom_type": "Cs"}, "6": {"label": "*2", "atom_type": "H0"}, "14": {"label": "*1", "atom_type": "Cd"}, "15": {"label": "*0", "atom_type": "CS"}}

>  <type>  (4) 
ts

$$$$

     RDKit          3D

 20 18  0  0  0  0  0  0  0  0999 V2000
    0.6361    1.1205   -2.8062 C   0  0  0  0  0  0  0  0  0  0  0  0
    0.6361    1.1205   -1.6081 C   0  0  0  0  0  0  0  0  0  0  0  0
    0.6361    1.1445   -0.1443 C   0  0  0  0  0  3  0  0  0  0  0  0
   -0.6300    1.8209    0.3900 C   0  0  0  0  0  0  0  0  0  0  0  0
    1.9022    1.8209    0.3900 C   0  0  0  0  0  0  0  0  0  0  0  0
    0.6361    1.1205   -3.8695 H   0  0  0  0  0  0  0  0  0  0  0  0
    0.6360   -0.1042    0.2636 H   0  0  0  0  0  0  0  0  0  0  0  0
   -1.5271    1.3216    0.0241 H   0  0  0  0  0  0  0  0  0  0  0  0
   -0.6674    2.8645    0.0725 H   0  0  0  0  0  0  0  0  0  0  0  0
   -0.6374    1.7929    1.4811 H   0  0  0  0  0  0  0  0  0  0  0  0
    1.9396    2.8644    0.0725 H   0  0  0  0  0  0  0  0  0  0  0  0
    2.7992    1.3216    0.0241 H   0  0  0  0  0  0  0  0  0  0  0  0
    1.9095    1.7929    1.4811 H   0  0  0  0  0  0  0  0  0  0  0  0
    1.6222   -1.8210    1.4234 C   0  0  0  0  0  0  0  0  0  0  0  0
    0.6360   -1.3410    0.6676 C   0  0  0  0  0  0  0  0  0  0  0  0
   -0.7589   -1.6005    0.9711 C   0  0  0  0  0  0  0  0  0  0  0  0
   -2.0160   -1.0616    0.1145 S   0  0  0  0  0  0  0  0  0  0  0  0
    1.4165   -2.4272    2.2986 H   0  0  0  0  0  0  0  0  0  0  0  0
    2.6611   -1.6245    1.1925 H   0  0  0  0  0  0  0  0  0  0  0  0
   -0.9298   -2.2134    1.8580 H   0  0  0  0  0  0  0  0  0  0  0  0
  1  2  3  0
  1  6  1  0
  2  3  1  0
  3  4  1  0
  3  5  1  0
  4  8  1  0
  4  9  1  0
  4 10  1  0
  5 11  1  0
  5 12  1  0
  5 13  1  0
  7 15  1  0
 14 15  2  3
 14 18  1  0
 14 19  1  0
 15 16  1  0
 16 17  2  0
 16 20  1  0
M  RAD  1   3   2
M  END
>  <reaction>  (5) 
rxn_1330

>  <mol_properties>  (5) 
{"1": {"label": "*4", "atom_type": "Ct"}, "2": {"label": "*3", "atom_type": "Cs"}, "6": {"label": "*2", "atom_type": "H0"}, "14": {"label": "*1", "atom_type": "Cd"}, "15": {"label": "*0", "atom_type": "CS"}}

>  <type>  (5) 
unop_1

>  <geom_source>  (5) 
Heuristics

$$$$

     RDKit          3D

 20 18  0  0  0  0  0  0  0  0999 V2000
    0.1944    1.0172   -3.4173 C   0  0  0  0  0  0  0  0  0  0  0  0
    0.1944    1.0172   -2.2192 C   0  0  0  0  0  0  0  0  0  0  0  0
    0.1944    1.0412   -0.7554 C   0  0  0  0  0  3  0  0  0  0  0  0
   -1.0717    1.7176   -0.2211 C   0  0  0  0  0  0  0  0  0  0  0  0
    1.4605    1.7176   -0.2210 C   0  0  0  0  0  0  0  0  0  0  0  0
    0.1944    1.0172   -4.4806 H   0  0  0  0  0  0  0  0  0  0  0  0
    0.1944   -0.2075   -0.3475 H   0  0  0  0  0  0  0  0  0  0  0  0
   -1.9688    1.2183   -0.5870 H   0  0  0  0  0  0  0  0  0  0  0  0
   -1.1091    2.7611   -0.5386 H   0  0  0  0  0  0  0  0  0  0  0  0
   -1.0791    1.6896    0.8700 H   0  0  0  0  0  0  0  0  0  0  0  0
    1.4979    2.7611   -0.5386 H   0  0  0  0  0  0  0  0  0  0  0  0
    2.3576    1.2183   -0.5870 H   0  0  0  0  0  0  0  0  0  0  0  0
    1.4678    1.6896    0.8700 H   0  0  0  0  0  0  0  0  0  0  0  0
    0.7637   -2.4073   -0.6663 C   0  0  0  0  0  0  0  0  0  0  0  0
    0.1943   -1.4443    0.0565 C   0  0  0  0  0  0  0  0  0  0  0  0
   -0.1125   -1.6210    1.4636 C   0  0  0  0  0  0  0  0  0  0  0  0
   -0.7995   -0.5131    2.4150 S   0  0  0  0  0  0  0  0  0  0  0  0
    1.0201   -3.3646   -0.2262 H   0  0  0  0  0  0  0  0  0  0  0  0
    0.9905   -2.2704   -1.7157 H   0  0  0  0  0  0  0  0  0  0  0  0
    0.1585   -2.5954    1.8741 H   0  0  0  0  0  0  0  0  0  0  0  0
  1  2  3  0
  1  6  1  0
  2  3  1  0
  3  4  1  0
  3  5  1  0
  4  8  1  0
  4  9  1  0
  4 10  1  0
  5 11  1  0
  5 12  1  0
  5 13  1  0
  7 15  1  0
 14 15  2  3
 14 18  1  0
 14 19  1  0
 15 16  1  0
 16 17  2  0
 16 20  1  0
M  RAD  1   3   2
M  END
>  <reaction>  (6) 
rxn_1330

>  <mol_properties>  (6) 
{"1": {"label": "*4", "atom_type": "Ct"}, "2": {"label": "*3", "atom_type": "Cs"}, "6": {"label": "*2", "atom_type": "H0"}, "14": {"label": "*1", "atom_type": "Cd"}, "15": {"label": "*0", "atom_type": "CS"}}

>  <type>  (6) 
unop_2

>  <geom_source>  (6) 
Heuristics

$$$$

     RDKit          3D

 20 18  0  0  0  0  0  0  0  0999 V2000
    0.5128    1.2653   -2.4768 C   0  0  0  0  0  0  0  0  0  0  0  0
    0.5128    1.2653   -1.2787 C   0  0  0  0  0  0  0  0  0  0  0  0
    0.5128    1.2892    0.1851 C   0  0  0  0  0  3  0  0  0  0  0  0
   -0.7533    1.9657    0.7194 C   0  0  0  0  0  0  0  0  0  0  0  0
    1.7789    1.9657    0.7194 C   0  0  0  0  0  0  0  0  0  0  0  0
    0.5128    1.2653   -3.5401 H   0  0  0  0  0  0  0  0  0  0  0  0
    0.5128    0.0406    0.5930 H   0  0  0  0  0  0  0  0  0  0  0  0
   -1.6503    1.4664    0.3535 H   0  0  0  0  0  0  0  0  0  0  0  0
   -0.7906    3.0092    0.4019 H   0  0  0  0  0  0  0  0  0  0  0  0
   -0.7606    1.9377    1.8105 H   0  0  0  0  0  0  0  0  0  0  0  0
    1.8163    3.0092    0.4019 H   0  0  0  0  0  0  0  0  0  0  0  0
    2.6760    1.4663    0.3535 H   0  0  0  0  0  0  0  0  0  0  0  0
    1.7863    1.9377    1.8105 H   0  0  0  0  0  0  0  0  0  0  0  0
    1.0821   -1.5469    2.1489 C   0  0  0  0  0  0  0  0  0  0  0  0
    0.5128   -1.1962    0.9970 C   0  0  0  0  0  0  0  0  0  0  0  0
   -0.7124   -1.8155    0.5272 C   0  0  0  0  0  0  0  0  0  0  0  0
   -1.4709   -1.4553   -0.8511 S   0  0  0  0  0  0  0  0  0  0  0  0
    0.6475   -2.3130    2.7813 H   0  0  0  0  0  0  0  0  0  0  0  0
    1.9961   -1.0817    2.4948 H   0  0  0  0  0  0  0  0  0  0  0  0
   -1.1224   -2.5818    1.1875 H   0  0  0  0  0  0  0  0  0  0  0  0
  1  2  3  0
  1  6  1  0
  2  3  1  0
  3  4  1  0
  3  5  1  0
  4  8  1  0
  4  9  1  0
  4 10  1  0
  5 11  1  0
  5 12  1  0
  5 13  1  0
  7 15  1  0
 14 15  2  3
 14 18  1  0
 14 19  1  0
 15 16  1  0
 16 17  2  0
 16 20  1  0
M  RAD  1   3   2
M  END
>  <reaction>  (7) 
rxn_1330

>  <mol_properties>  (7) 
{"1": {"label": "*4", "atom_type": "Ct"}, "2": {"label": "*3", "atom_type": "Cs"}, "6": {"label": "*2", "atom_type": "H0"}, "14": {"label": "*1", "atom_type": "Cd"}, "15": {"label": "*0", "atom_type": "CS"}}

>  <type>  (7) 
unop_3

>  <geom_source>  (7) 
Heuristics

$$$$

     RDKit          3D

 20 18  0  0  0  0  0  0  0  0999 V2000
   -0.3975    1.0125   -3.3060 C   0  0  0  0  0  0  0  0  0  0  0  0
   -0.3975    1.0125   -2.1079 C   0  0  0  0  0  0  0  0  0  0  0  0
   -0.3975    1.0365   -0.6441 C   0  0  0  0  0  3  0  0  0  0  0  0
   -1.6636    1.7130   -0.1098 C   0  0  0  0  0  0  0  0  0  0  0  0
    0.8686    1.7129   -0.1098 C   0  0  0  0  0  0  0  0  0  0  0  0
   -0.3975    1.0125   -4.3693 H   0  0  0  0  0  0  0  0  0  0  0  0
   -0.3975   -0.2122   -0.2362 H   0  0  0  0  0  0  0  0  0  0  0  0
   -2.5607    1.2137   -0.4757 H   0  0  0  0  0  0  0  0  0  0  0  0
   -1.7009    2.7565   -0.4273 H   0  0  0  0  0  0  0  0  0  0  0  0
   -1.6709    1.6850    0.9813 H   0  0  0  0  0  0  0  0  0  0  0  0
    0.9060    2.7564   -0.4273 H   0  0  0  0  0  0  0  0  0  0  0  0
    1.7657    1.2136   -0.4757 H   0  0  0  0  0  0  0  0  0  0  0  0
    0.8760    1.6849    0.9813 H   0  0  0  0  0  0  0  0  0  0  0  0
   -1.3837   -2.2826   -0.1589 C   0  0  0  0  0  0  0  0  0  0  0  0
   -0.3975   -1.4490    0.1678 C   0  0  0  0  0  0  0  0  0  0  0  0
    0.3095   -1.5546    1.4304 C   0  0  0  0  0  0  0  0  0  0  0  0
    1.5131   -0.5919    1.9092 S   0  0  0  0  0  0  0  0  0  0  0  0
   -1.6957   -3.0755    0.5117 H   0  0  0  0  0  0  0  0  0  0  0  0
   -1.9079   -2.1994   -1.1021 H   0  0  0  0  0  0  0  0  0  0  0  0
   -0.0298   -2.3629    2.0808 H   0  0  0  0  0  0  0  0  0  0  0  0
  1  2  3  0
  1  6  1  0
  2  3  1  0
  3  4  1  0
  3  5  1  0
  4  8  1  0
  4  9  1  0
  4 10  1  0
  5 11  1  0
  5 12  1  0
  5 13  1  0
  7 15  1  0
 14 15  2  3
 14 18  1  0
 14 19  1  0
 15 16  1  0
 16 17  2  0
 16 20  1  0
M  RAD  1   3   2
M  END
>  <reaction>  (8) 
rxn_1330

>  <mol_properties>  (8) 
{"1": {"label": "*4", "atom_type": "Ct"}, "2": {"label": "*3", "atom_type": "Cs"}, "6": {"label": "*2", "atom_type": "H0"}, "14": {"label": "*1", "atom_type": "Cd"}, "15": {"label": "*0", "atom_type": "CS"}}

>  <type>  (8) 
unop_4

>  <geom_source>  (8) 
Heuristics

$$$$

     RDKit          3D

 20 18  0  0  0  0  0  0  0  0999 V2000
    0.0000    1.4132   -2.2611 C   0  0  0  0  0  0  0  0  0  0  0  0
    0.0000    1.4132   -1.0630 C   0  0  0  0  0  0  0  0  0  0  0  0
    0.0000    1.4371    0.4008 C   0  0  0  0  0  3  0  0  0  0  0  0
   -1.2661    2.1136    0.9351 C   0  0  0  0  0  0  0  0  0  0  0  0
    1.2662    2.1136    0.9351 C   0  0  0  0  0  0  0  0  0  0  0  0
    0.0000    1.4132   -3.3244 H   0  0  0  0  0  0  0  0  0  0  0  0
    0.0000    0.1885    0.8087 H   0  0  0  0  0  0  0  0  0  0  0  0
   -2.1631    1.6143    0.5692 H   0  0  0  0  0  0  0  0  0  0  0  0
   -1.3034    3.1571    0.6176 H   0  0  0  0  0  0  0  0  0  0  0  0
   -1.2734    2.0856    2.0262 H   0  0  0  0  0  0  0  0  0  0  0  0
    1.3035    3.1571    0.6176 H   0  0  0  0  0  0  0  0  0  0  0  0
    2.1632    1.6142    0.5692 H   0  0  0  0  0  0  0  0  0  0  0  0
    1.2735    2.0855    2.0262 H   0  0  0  0  0  0  0  0  0  0  0  0
   -0.0000   -1.3516    2.5096 C   0  0  0  0  0  0  0  0  0  0  0  0
   -0.0000   -1.0483    1.2127 C   0  0  0  0  0  0  0  0  0  0  0  0
   -0.0000   -2.0730    0.1854 C   0  0  0  0  0  0  0  0  0  0  0  0
   -0.0000   -1.7996   -1.4052 S   0  0  0  0  0  0  0  0  0  0  0  0
   -0.0000   -2.3822    2.8467 H   0  0  0  0  0  0  0  0  0  0  0  0
   -0.0000   -0.5833    3.2720 H   0  0  0  0  0  0  0  0  0  0  0  0
   -0.0000   -3.0985    0.5593 H   0  0  0  0  0  0  0  0  0  0  0  0
  1  2  3  0
  1  6  1  0
  2  3  1  0
  3  4  1  0
  3  5  1  0
  4  8  1  0
  4  9  1  0
  4 10  1  0
  5 11  1  0
  5 12  1  0
  5 13  1  0
  7 15  1  0
 14 15  2  3
 14 18  1  0
 14 19  1  0
 15 16  1  0
 16 17  2  0
 16 20  1  0
M  RAD  1   3   2
M  END
>  <reaction>  (9) 
rxn_1330

>  <mol_properties>  (9) 
{"1": {"label": "*4", "atom_type": "Ct"}, "2": {"label": "*3", "atom_type": "Cs"}, "6": {"label": "*2", "atom_type": "H0"}, "14": {"label": "*1", "atom_type": "Cd"}, "15": {"label": "*0", "atom_type": "CS"}}

>  <type>  (9) 
unop_5

>  <geom_source>  (9) 
Heuristics

$$$$

     RDKit          3D

 20 18  0  0  0  0  0  0  0  0999 V2000
   -0.5680    1.0415   -3.0975 C   0  0  0  0  0  0  0  0  0  0  0  0
   -0.5680    1.0415   -1.8994 C   0  0  0  0  0  0  0  0  0  0  0  0
   -0.5680    1.0655   -0.4356 C   0  0  0  0  0  3  0  0  0  0  0  0
   -1.8342    1.7419    0.0988 C   0  0  0  0  0  0  0  0  0  0  0  0
    0.6981    1.7419    0.0988 C   0  0  0  0  0  0  0  0  0  0  0  0
   -0.5680    1.0415   -4.1608 H   0  0  0  0  0  0  0  0  0  0  0  0
   -0.5681   -0.1832   -0.0277 H   0  0  0  0  0  0  0  0  0  0  0  0
   -2.7312    1.2426   -0.2671 H   0  0  0  0  0  0  0  0  0  0  0  0
   -1.8715    2.7854   -0.2187 H   0  0  0  0  0  0  0  0  0  0  0  0
   -1.8415    1.7139    1.1898 H   0  0  0  0  0  0  0  0  0  0  0  0
    0.7355    2.7854   -0.2187 H   0  0  0  0  0  0  0  0  0  0  0  0
    1.5951    1.2426   -0.2671 H   0  0  0  0  0  0  0  0  0  0  0  0
    0.7054    1.7139    1.1898 H   0  0  0  0  0  0  0  0  0  0  0  0
   -1.7068   -2.0768    0.5909 C   0  0  0  0  0  0  0  0  0  0  0  0
   -0.5681   -1.4200    0.3763 C   0  0  0  0  0  0  0  0  0  0  0  0
    0.5628   -1.5304    1.2787 C   0  0  0  0  0  0  0  0  0  0  0  0
    1.9771   -0.7740    1.0990 S   0  0  0  0  0  0  0  0  0  0  0  0
   -1.8304   -2.7221    1.4536 H   0  0  0  0  0  0  0  0  0  0  0  0
   -2.5474   -1.9909   -0.0854 H   0  0  0  0  0  0  0  0  0  0  0  0
    0.4043   -2.1875    2.1357 H   0  0  0  0  0  0  0  0  0  0  0  0
  1  2  3  0
  1  6  1  0
  2  3  1  0
  3  4  1  0
  3  5  1  0
  4  8  1  0
  4  9  1  0
  4 10  1  0
  5 11  1  0
  5 12  1  0
  5 13  1  0
  7 15  1  0
 14 15  2  3
 14 18  1  0
 14 19  1  0
 15 16  1  0
 16 17  2  0
 16 20  1  0
M  RAD  1   3   2
M  END
>  <reaction>  (10) 
rxn_1330

>  <mol_properties>  (10) 
{"1": {"label": "*4", "atom_type": "Ct"}, "2": {"label": "*3", "atom_type": "Cs"}, "6": {"label": "*2", "atom_type": "H0"}, "14": {"label": "*1", "atom_type": "Cd"}, "15": {"label": "*0", "atom_type": "CS"}}

>  <type>  (10) 
unop_6

>  <geom_source>  (10) 
Heuristics

$$$$

     RDKit          3D

 20 18  0  0  0  0  0  0  0  0999 V2000
   -0.6360    1.1206   -2.8062 C   0  0  0  0  0  0  0  0  0  0  0  0
   -0.6360    1.1206   -1.6081 C   0  0  0  0  0  0  0  0  0  0  0  0
   -0.6360    1.1445   -0.1443 C   0  0  0  0  0  3  0  0  0  0  0  0
   -1.9021    1.8210    0.3900 C   0  0  0  0  0  0  0  0  0  0  0  0
    0.6301    1.8209    0.3900 C   0  0  0  0  0  0  0  0  0  0  0  0
   -0.6360    1.1206   -3.8695 H   0  0  0  0  0  0  0  0  0  0  0  0
   -0.6361   -0.1042    0.2636 H   0  0  0  0  0  0  0  0  0  0  0  0
   -2.7992    1.3217    0.0241 H   0  0  0  0  0  0  0  0  0  0  0  0
   -1.9395    2.8645    0.0725 H   0  0  0  0  0  0  0  0  0  0  0  0
   -1.9095    1.7930    1.4811 H   0  0  0  0  0  0  0  0  0  0  0  0
    0.6675    2.8644    0.0725 H   0  0  0  0  0  0  0  0  0  0  0  0
    1.5271    1.3216    0.0241 H   0  0  0  0  0  0  0  0  0  0  0  0
    0.6374    1.7929    1.4811 H   0  0  0  0  0  0  0  0  0  0  0  0
   -1.6222   -1.8210    1.4234 C   0  0  0  0  0  0  0  0  0  0  0  0
   -0.6361   -1.3410    0.6676 C   0  0  0  0  0  0  0  0  0  0  0  0
    0.7588   -1.6005    0.9711 C   0  0  0  0  0  0  0  0  0  0  0  0
    2.0160   -1.0616    0.1145 S   0  0  0  0  0  0  0  0  0  0  0  0
   -1.4166   -2.4272    2.2986 H   0  0  0  0  0  0  0  0  0  0  0  0
   -2.6612   -1.6244    1.1925 H   0  0  0  0  0  0  0  0  0  0  0  0
    0.9297   -2.2134    1.8580 H   0  0  0  0  0  0  0  0  0  0  0  0
  1  2  3  0
  1  6  1  0
  2  3  1  0
  3  4  1  0
  3  5  1  0
  4  8  1  0
  4  9  1  0
  4 10  1  0
  5 11  1  0
  5 12  1  0
  5 13  1  0
  7 15  1  0
 14 15  2  3
 14 18  1  0
 14 19  1  0
 15 16  1  0
 16 17  2  0
 16 20  1  0
M  RAD  1   3   2
M  END
>  <reaction>  (11) 
rxn_1330

>  <mol_properties>  (11) 
{"1": {"label": "*4", "atom_type": "Ct"}, "2": {"label": "*3", "atom_type": "Cs"}, "6": {"label": "*2", "atom_type": "H0"}, "14": {"label": "*1", "atom_type": "Cd"}, "15": {"label": "*0", "atom_type": "CS"}}

>  <type>  (11) 
unop_7

>  <geom_source>  (11) 
Heuristics

$$$$

     RDKit          3D

 20 18  0  0  0  0  0  0  0  0999 V2000
    0.5681    1.0415   -3.0975 C   0  0  0  0  0  0  0  0  0  0  0  0
    0.5681    1.0415   -1.8994 C   0  0  0  0  0  0  0  0  0  0  0  0
    0.5681    1.0655   -0.4356 C   0  0  0  0  0  3  0  0  0  0  0  0
   -0.6980    1.7419    0.0988 C   0  0  0  0  0  0  0  0  0  0  0  0
    1.8342    1.7419    0.0988 C   0  0  0  0  0  0  0  0  0  0  0  0
    0.5681    1.0415   -4.1608 H   0  0  0  0  0  0  0  0  0  0  0  0
    0.5681   -0.1832   -0.0277 H   0  0  0  0  0  0  0  0  0  0  0  0
   -1.5951    1.2426   -0.2671 H   0  0  0  0  0  0  0  0  0  0  0  0
   -0.7354    2.7854   -0.2187 H   0  0  0  0  0  0  0  0  0  0  0  0
   -0.7054    1.7139    1.1898 H   0  0  0  0  0  0  0  0  0  0  0  0
    1.8716    2.7854   -0.2187 H   0  0  0  0  0  0  0  0  0  0  0  0
    2.7312    1.2426   -0.2671 H   0  0  0  0  0  0  0  0  0  0  0  0
    1.8415    1.7139    1.1898 H   0  0  0  0  0  0  0  0  0  0  0  0
    1.7067   -2.0768    0.5909 C   0  0  0  0  0  0  0  0  0  0  0  0
    0.5680   -1.4200    0.3763 C   0  0  0  0  0  0  0  0  0  0  0  0
   -0.5628   -1.5304    1.2787 C   0  0  0  0  0  0  0  0  0  0  0  0
   -1.9771   -0.7739    1.0990 S   0  0  0  0  0  0  0  0  0  0  0  0
    1.8303   -2.7221    1.4536 H   0  0  0  0  0  0  0  0  0  0  0  0
    2.5474   -1.9910   -0.0854 H   0  0  0  0  0  0  0  0  0  0  0  0
   -0.4043   -2.1875    2.1357 H   0  0  0  0  0  0  0  0  0  0  0  0
  1  2  3  0
  1  6  1  0
  2  3  1  0
  3  4  1  0
  3  5  1  0
  4  8  1  0
  4  9  1  0
  4 10  1  0
  5 11  1  0
  5 12  1  0
  5 13  1  0
  7 15  1  0
 14 15  2  3
 14 18  1  0
 14 19  1  0
 15 16  1  0
 16 17  2  0
 16 20  1  0
M  RAD  1   3   2
M  END
>  <reaction>  (12) 
rxn_1330

>  <mol_properties>  (12) 
{"1": {"label": "*4", "atom_type": "Ct"}, "2": {"label": "*3", "atom_type": "Cs"}, "6": {"label": "*2", "atom_type": "H0"}, "14": {"label": "*1", "atom_type": "Cd"}, "15": {"label": "*0", "atom_type": "CS"}}

>  <type>  (12) 
unop_8

>  <geom_source>  (12) 
Heuristics

$$$$

     RDKit          3D

 20 18  0  0  0  0  0  0  0  0999 V2000
   -0.1943    1.0172   -3.4173 C   0  0  0  0  0  0  0  0  0  0  0  0
   -0.1943    1.0172   -2.2192 C   0  0  0  0  0  0  0  0  0  0  0  0
   -0.1943    1.0412   -0.7554 C   0  0  0  0  0  3  0  0  0  0  0  0
   -1.4605    1.7176   -0.2211 C   0  0  0  0  0  0  0  0  0  0  0  0
    1.0718    1.7176   -0.2210 C   0  0  0  0  0  0  0  0  0  0  0  0
   -0.1943    1.0172   -4.4806 H   0  0  0  0  0  0  0  0  0  0  0  0
   -0.1944   -0.2075   -0.3475 H   0  0  0  0  0  0  0  0  0  0  0  0
   -2.3575    1.2183   -0.5870 H   0  0  0  0  0  0  0  0  0  0  0  0
   -1.4978    2.7611   -0.5386 H   0  0  0  0  0  0  0  0  0  0  0  0
   -1.4678    1.6896    0.8700 H   0  0  0  0  0  0  0  0  0  0  0  0
    1.1092    2.7611   -0.5386 H   0  0  0  0  0  0  0  0  0  0  0  0
    1.9688    1.2183   -0.5870 H   0  0  0  0  0  0  0  0  0  0  0  0
    1.0791    1.6896    0.8700 H   0  0  0  0  0  0  0  0  0  0  0  0
   -0.7637   -2.4073   -0.6663 C   0  0  0  0  0  0  0  0  0  0  0  0
   -0.1944   -1.4443    0.0565 C   0  0  0  0  0  0  0  0  0  0  0  0
    0.1125   -1.6210    1.4636 C   0  0  0  0  0  0  0  0  0  0  0  0
    0.7995   -0.5131    2.4150 S   0  0  0  0  0  0  0  0  0  0  0  0
   -1.0202   -3.3646   -0.2262 H   0  0  0  0  0  0  0  0  0  0  0  0
   -0.9906   -2.2704   -1.7157 H   0  0  0  0  0  0  0  0  0  0  0  0
   -0.1586   -2.5954    1.8741 H   0  0  0  0  0  0  0  0  0  0  0  0
  1  2  3  0
  1  6  1  0
  2  3  1  0
  3  4  1  0
  3  5  1  0
  4  8  1  0
  4  9  1  0
  4 10  1  0
  5 11  1  0
  5 12  1  0
  5 13  1  0
  7 15  1  0
 14 15  2  3
 14 18  1  0
 14 19  1  0
 15 16  1  0
 16 17  2  0
 16 20  1  0
M  RAD  1   3   2
M  END
>  <reaction>  (13) 
rxn_1330

>  <mol_properties>  (13) 
{"1": {"label": "*4", "atom_type": "Ct"}, "2": {"label": "*3", "atom_type": "Cs"}, "6": {"label": "*2", "atom_type": "H0"}, "14": {"label": "*1", "atom_type": "Cd"}, "15": {"label": "*0", "atom_type": "CS"}}

>  <type>  (13) 
unop_9

>  <geom_source>  (13) 
Heuristics

$$$$

     RDKit          3D

 20 18  0  0  0  0  0  0  0  0999 V2000
    0.3975    1.0125   -3.3060 C   0  0  0  0  0  0  0  0  0  0  0  0
    0.3975    1.0125   -2.1079 C   0  0  0  0  0  0  0  0  0  0  0  0
    0.3975    1.0365   -0.6441 C   0  0  0  0  0  3  0  0  0  0  0  0
   -0.8686    1.7129   -0.1098 C   0  0  0  0  0  0  0  0  0  0  0  0
    1.6637    1.7129   -0.1098 C   0  0  0  0  0  0  0  0  0  0  0  0
    0.3975    1.0125   -4.3693 H   0  0  0  0  0  0  0  0  0  0  0  0
    0.3975   -0.2122   -0.2362 H   0  0  0  0  0  0  0  0  0  0  0  0
   -1.7656    1.2136   -0.4757 H   0  0  0  0  0  0  0  0  0  0  0  0
   -0.9059    2.7565   -0.4273 H   0  0  0  0  0  0  0  0  0  0  0  0
   -0.8759    1.6849    0.9813 H   0  0  0  0  0  0  0  0  0  0  0  0
    1.7010    2.7564   -0.4273 H   0  0  0  0  0  0  0  0  0  0  0  0
    2.5607    1.2136   -0.4757 H   0  0  0  0  0  0  0  0  0  0  0  0
    1.6710    1.6849    0.9813 H   0  0  0  0  0  0  0  0  0  0  0  0
    1.3836   -2.2826   -0.1589 C   0  0  0  0  0  0  0  0  0  0  0  0
    0.3975   -1.4490    0.1678 C   0  0  0  0  0  0  0  0  0  0  0  0
   -0.3095   -1.5546    1.4304 C   0  0  0  0  0  0  0  0  0  0  0  0
   -1.5131   -0.5918    1.9092 S   0  0  0  0  0  0  0  0  0  0  0  0
    1.6956   -3.0756    0.5117 H   0  0  0  0  0  0  0  0  0  0  0  0
    1.9078   -2.1995   -1.1021 H   0  0  0  0  0  0  0  0  0  0  0  0
    0.0297   -2.3629    2.0808 H   0  0  0  0  0  0  0  0  0  0  0  0
  1  2  3  0
  1  6  1  0
  2  3  1  0
  3  4  1  0
  3  5  1  0
  4  8  1  0
  4  9  1  0
  4 10  1  0
  5 11  1  0
  5 12  1  0
  5 13  1  0
  7 15  1  0
 14 15  2  3
 14 18  1  0
 14 19  1  0
 15 16  1  0
 16 17  2  0
 16 20  1  0
M  RAD  1   3   2
M  END
>  <reaction>  (14) 
rxn_1330

>  <mol_properties>  (14) 
{"1": {"label": "*4", "atom_type": "Ct"}, "2": {"label": "*3", "atom_type": "Cs"}, "6": {"label": "*2", "atom_type": "H0"}, "14": {"label": "*1", "atom_type": "Cd"}, "15": {"label": "*0", "atom_type": "CS"}}

>  <type>  (14) 
unop_10

>  <geom_source>  (14) 
Heuristics

$$$$

     RDKit          3D

 20 18  0  0  0  0  0  0  0  0999 V2000
   -0.5128    1.2653   -2.4768 C   0  0  0  0  0  0  0  0  0  0  0  0
   -0.5128    1.2653   -1.2787 C   0  0  0  0  0  0  0  0  0  0  0  0
   -0.5128    1.2892    0.1851 C   0  0  0  0  0  3  0  0  0  0  0  0
   -1.7789    1.9657    0.7194 C   0  0  0  0  0  0  0  0  0  0  0  0
    0.7534    1.9657    0.7194 C   0  0  0  0  0  0  0  0  0  0  0  0
   -0.5128    1.2653   -3.5401 H   0  0  0  0  0  0  0  0  0  0  0  0
   -0.5128    0.0406    0.5929 H   0  0  0  0  0  0  0  0  0  0  0  0
   -2.6759    1.4664    0.3535 H   0  0  0  0  0  0  0  0  0  0  0  0
   -1.8162    3.0092    0.4019 H   0  0  0  0  0  0  0  0  0  0  0  0
   -1.7862    1.9377    1.8105 H   0  0  0  0  0  0  0  0  0  0  0  0
    0.7907    3.0092    0.4019 H   0  0  0  0  0  0  0  0  0  0  0  0
    1.6504    1.4663    0.3535 H   0  0  0  0  0  0  0  0  0  0  0  0
    0.7607    1.9377    1.8105 H   0  0  0  0  0  0  0  0  0  0  0  0
   -1.0822   -1.5468    2.1489 C   0  0  0  0  0  0  0  0  0  0  0  0
   -0.5128   -1.1962    0.9970 C   0  0  0  0  0  0  0  0  0  0  0  0
    0.7123   -1.8155    0.5272 C   0  0  0  0  0  0  0  0  0  0  0  0
    1.4708   -1.4554   -0.8511 S   0  0  0  0  0  0  0  0  0  0  0  0
   -0.6475   -2.3130    2.7813 H   0  0  0  0  0  0  0  0  0  0  0  0
   -1.9961   -1.0817    2.4948 H   0  0  0  0  0  0  0  0  0  0  0  0
    1.1223   -2.5819    1.1875 H   0  0  0  0  0  0  0  0  0  0  0  0
  1  2  3  0
  1  6  1  0
  2  3  1  0
  3  4  1  0
  3  5  1  0
  4  8  1  0
  4  9  1  0
  4 10  1  0
  5 11  1  0
  5 12  1  0
  5 13  1  0
  7 15  1  0
 14 15  2  3
 14 18  1  0
 14 19  1  0
 15 16  1  0
 16 17  2  0
 16 20  1  0
M  RAD  1   3   2
M  END
>  <reaction>  (15) 
rxn_1330

>  <mol_properties>  (15) 
{"1": {"label": "*4", "atom_type": "Ct"}, "2": {"label": "*3", "atom_type": "Cs"}, "6": {"label": "*2", "atom_type": "H0"}, "14": {"label": "*1", "atom_type": "Cd"}, "15": {"label": "*0", "atom_type": "CS"}}

>  <type>  (15) 
unop_11

>  <geom_source>  (15) 
Heuristics

$$$$

     RDKit          3D

 20 18  0  0  0  0  0  0  0  0999 V2000
    0.0000    1.0251   -3.4491 C   0  0  0  0  0  0  0  0  0  0  0  0
    0.0000    1.0251   -2.2510 C   0  0  0  0  0  0  0  0  0  0  0  0
    0.0000    1.0491   -0.7872 C   0  0  0  0  0  3  0  0  0  0  0  0
   -1.2661    1.7255   -0.2528 C   0  0  0  0  0  0  0  0  0  0  0  0
    1.2661    1.7255   -0.2528 C   0  0  0  0  0  0  0  0  0  0  0  0
    0.0000    1.0251   -4.5124 H   0  0  0  0  0  0  0  0  0  0  0  0
   -0.0000   -0.1996   -0.3793 H   0  0  0  0  0  0  0  0  0  0  0  0
   -2.1631    1.2262   -0.6187 H   0  0  0  0  0  0  0  0  0  0  0  0
   -1.3034    2.7690   -0.5703 H   0  0  0  0  0  0  0  0  0  0  0  0
   -1.2734    1.6975    0.8382 H   0  0  0  0  0  0  0  0  0  0  0  0
    1.3035    2.7690   -0.5703 H   0  0  0  0  0  0  0  0  0  0  0  0
    2.1632    1.2262   -0.6187 H   0  0  0  0  0  0  0  0  0  0  0  0
    1.2735    1.6975    0.8382 H   0  0  0  0  0  0  0  0  0  0  0  0
   -0.0000   -2.4468   -0.8431 C   0  0  0  0  0  0  0  0  0  0  0  0
   -0.0000   -1.4364    0.0247 C   0  0  0  0  0  0  0  0  0  0  0  0
   -0.0000   -1.6571    1.4588 C   0  0  0  0  0  0  0  0  0  0  0  0
   -0.0000   -0.4974    2.5812 S   0  0  0  0  0  0  0  0  0  0  0  0
   -0.0001   -3.4777   -0.5068 H   0  0  0  0  0  0  0  0  0  0  0  0
   -0.0000   -2.2767   -1.9120 H   0  0  0  0  0  0  0  0  0  0  0  0
   -0.0000   -2.7055    1.7623 H   0  0  0  0  0  0  0  0  0  0  0  0
  1  2  3  0
  1  6  1  0
  2  3  1  0
  3  4  1  0
  3  5  1  0
  4  8  1  0
  4  9  1  0
  4 10  1  0
  5 11  1  0
  5 12  1  0
  5 13  1  0
  7 15  1  0
 14 15  2  3
 14 18  1  0
 14 19  1  0
 15 16  1  0
 16 17  2  0
 16 20  1  0
M  RAD  1   3   2
M  END
>  <reaction>  (16) 
rxn_1330

>  <mol_properties>  (16) 
{"1": {"label": "*4", "atom_type": "Ct"}, "2": {"label": "*3", "atom_type": "Cs"}, "6": {"label": "*2", "atom_type": "H0"}, "14": {"label": "*1", "atom_type": "Cd"}, "15": {"label": "*0", "atom_type": "CS"}}

>  <type>  (16) 
unop_12

>  <geom_source>  (16) 
Heuristics

$$$$

     RDKit          3D

 20 18  0  0  0  0  0  0  0  0999 V2000
    1.7230   -2.4250   -1.3318 S   0  0  0  0  0  0  0  0  0  0  0  0
   -1.4609    0.0634   -1.7717 C   0  0  0  0  0  0  0  0  0  0  0  0
   -1.1434    1.7674    0.0666 C   0  0  0  0  0  0  0  0  0  0  0  0
   -0.7570    0.3839   -0.4541 C   0  0  0  0  0  3  0  0  0  0  0  0
    1.6151   -0.2842    0.2899 C   0  0  0  0  0  0  0  0  0  0  0  0
    2.2589   -1.5553   -0.0573 C   0  0  0  0  0  0  0  0  0  0  0  0
    2.0331    0.4412    1.3221 C   0  0  0  0  0  0  0  0  0  0  0  0
   -1.0498   -0.6474    0.5526 C   0  0  0  0  0  0  0  0  0  0  0  0
   -1.2890   -1.4932    1.3779 C   0  0  0  0  0  0  0  0  0  0  0  0
   -1.1962    0.8242   -2.5359 H   0  0  0  0  0  0  0  0  0  0  0  0
   -2.5644    0.0537   -1.6371 H   0  0  0  0  0  0  0  0  0  0  0  0
   -1.1319   -0.9298   -2.1451 H   0  0  0  0  0  0  0  0  0  0  0  0
   -2.2350    1.8215    0.2699 H   0  0  0  0  0  0  0  0  0  0  0  0
   -0.8763    2.5412   -0.6837 H   0  0  0  0  0  0  0  0  0  0  0  0
   -0.5882    1.9885    1.0030 H   0  0  0  0  0  0  0  0  0  0  0  0
    0.6656    0.1244   -0.3871 H   0  0  0  0  0  0  0  0  0  0  0  0
    3.0924   -1.9304    0.5236 H   0  0  0  0  0  0  0  0  0  0  0  0
    1.5410    1.3755    1.5573 H   0  0  0  0  0  0  0  0  0  0  0  0
    2.8622    0.1156    1.9385 H   0  0  0  0  0  0  0  0  0  0  0  0
   -1.4992   -2.2355    2.1023 H   0  0  0  0  0  0  0  0  0  0  0  0
  1  6  2  0
  2  4  1  0
  2 10  1  0
  2 11  1  0
  2 12  1  0
  3  4  1  0
  3 13  1  0
  3 14  1  0
  3 15  1  0
  4  8  1  0
  5  7  2  3
  5  6  1  0
  5 16  1  0
  6 17  1  0
  7 18  1  0
  7 19  1  0
  8  9  3  0
  9 20  1  0
M  RAD  1   4   2
M  END
>  <reaction>  (17) 
rxn_1330

>  <mol_properties>  (17) 
{"1": {"label": "*4", "atom_type": "Ct"}, "2": {"label": "*3", "atom_type": "Cs"}, "6": {"label": "*2", "atom_type": "H0"}, "14": {"label": "*1", "atom_type": "Cd"}, "15": {"label": "*0", "atom_type": "CS"}}

>  <type>  (17) 
unop_13

>  <geom_source>  (17) 
AutoTST

$$$$
