
     RDKit          3D

 13 12  0  0  0  0  0  0  0  0999 V2000
    3.0977   -0.3549   -0.5105 C   0  0  0  0  0  0  0  0  0  0  0  0
    2.0556    0.4221   -0.2627 C   0  0  0  0  0  0  0  0  0  0  0  0
    0.6313   -0.0354   -0.2366 C   0  0  0  0  0  0  0  0  0  0  0  0
   -0.2567    0.6038   -1.2694 C   0  0  0  0  0  0  0  0  0  0  0  0
    0.1459    1.3456   -2.2891 C   0  0  0  0  0  0  0  0  0  0  0  0
    4.1081    0.0344   -0.5074 H   0  0  0  0  0  0  0  0  0  0  0  0
    2.9777   -1.4116   -0.7243 H   0  0  0  0  0  0  0  0  0  0  0  0
    2.2171    1.4781   -0.0618 H   0  0  0  0  0  0  0  0  0  0  0  0
    0.5865   -1.1233   -0.3540 H   0  0  0  0  0  0  0  0  0  0  0  0
    0.2065    0.1743    0.7521 H   0  0  0  0  0  0  0  0  0  0  0  0
   -1.3190    0.4126   -1.1445 H   0  0  0  0  0  0  0  0  0  0  0  0
    1.1948    1.5564   -2.4628 H   0  0  0  0  0  0  0  0  0  0  0  0
   -0.5644    1.7621   -2.9918 H   0  0  0  0  0  0  0  0  0  0  0  0
  1  2  2  3
  1  6  1  0
  1  7  1  0
  2  3  1  0
  2  8  1  0
  3  4  1  0
  3  9  1  0
  3 10  1  0
  4  5  2  3
  4 11  1  0
  5 12  1  0
  5 13  1  0
M  END
>  <reaction>  (1) 
rxn_1159

>  <mol_properties>  (1) 
{"2": {"label": "donator", "atom_type": "Cs"}, "8": {"label": "d_hydrogen", "atom_type": "H0"}}

>  <type>  (1) 
r1h

$$$$

     RDKit          3D

 10  9  0  0  0  0  0  0  0  0999 V2000
   -1.3354   -0.2069    0.0525 C   0  0  0  0  0  0  0  0  0  0  0  0
    0.0851    0.2624    0.0266 C   0  0  0  0  0  0  0  0  0  0  0  0
    0.4841    1.3876    0.7359 C   0  0  0  0  0  0  0  0  0  0  0  0
    2.0191    2.0303    0.8057 S   0  0  0  0  0  1  0  0  0  0  0  0
    1.1566   -0.6823   -0.9297 S   0  0  0  0  0  0  0  0  0  0  0  0
   -1.7589   -0.2174   -0.9545 H   0  0  0  0  0  0  0  0  0  0  0  0
   -1.4004   -1.2253    0.4427 H   0  0  0  0  0  0  0  0  0  0  0  0
   -1.9442    0.4442    0.6783 H   0  0  0  0  0  0  0  0  0  0  0  0
   -0.3073    1.8814    1.2951 H   0  0  0  0  0  0  0  0  0  0  0  0
    2.2383    0.0827   -0.6554 H   0  0  0  0  0  0  0  0  0  0  0  0
  1  2  1  0
  1  6  1  0
  1  7  1  0
  1  8  1  0
  2  3  2  3
  2  5  1  0
  3  4  1  0
  3  9  1  0
  5 10  1  0
M  RAD  1   4   2
M  END
>  <reaction>  (2) 
rxn_1159

>  <mol_properties>  (2) 
{"1": {"label": "acceptor", "atom_type": "Cs"}}

>  <type>  (2) 
r2

$$$$

     RDKit          3D

 11 10  0  0  0  0  0  0  0  0999 V2000
   -1.0997   -0.5860   -0.1182 C   0  0  0  0  0  0  0  0  0  0  0  0
    0.0827    0.2961    0.2270 C   0  0  0  0  0  0  0  0  0  0  0  0
    0.1622    1.6171   -0.4774 C   0  0  0  0  0  0  0  0  0  0  0  0
   -0.9879    2.3087   -1.3633 S   0  0  0  0  0  0  0  0  0  0  0  0
    0.2176    0.6619    2.0187 S   0  0  0  0  0  0  0  0  0  0  0  0
   -1.1052   -0.8107   -1.1861 H   0  0  0  0  0  0  0  0  0  0  0  0
   -2.0402   -0.0893    0.1198 H   0  0  0  0  0  0  0  0  0  0  0  0
   -1.0438   -1.5182    0.4423 H   0  0  0  0  0  0  0  0  0  0  0  0
    1.0207   -0.2324    0.0280 H   0  0  0  0  0  0  0  0  0  0  0  0
    1.1091    2.1333   -0.3182 H   0  0  0  0  0  0  0  0  0  0  0  0
   -0.9205    1.3661    2.0994 H   0  0  0  0  0  0  0  0  0  0  0  0
  1  2  1  0
  1  6  1  0
  1  7  1  0
  1  8  1  0
  2  3  1  0
  2  5  1  0
  2  9  1  0
  3  4  2  0
  3 10  1  0
  5 11  1  0
M  END
>  <reaction>  (3) 
rxn_1159

>  <mol_properties>  (3) 
{"1": {"label": "acceptor", "atom_type": "Cs"}, "10": {"label": "a_hydrogen", "atom_type": "H0"}}

>  <type>  (3) 
r2h

$$$$

     RDKit          3D

 23 21  0  0  0  0  0  0  0  0999 V2000
    1.1400    0.7714   -1.1506 C   0  0  0  0  0  0  0  0  0  0  0  0
   -0.1646    0.8713   -0.4041 C   0  0  1  0  0  0  0  0  0  0  0  0
   -0.2580    1.7093    0.7680 C   0  0  0  0  0  0  0  0  0  0  0  0
    0.9916    2.2973    1.6332 S   0  0  0  0  0  0  0  0  0  0  0  0
   -1.6548    0.9254   -1.3982 S   0  0  0  0  0  0  0  0  0  0  0  0
    1.3458    1.7028   -1.6812 H   0  0  0  0  0  0  0  0  0  0  0  0
    1.9567    0.5871   -0.4526 H   0  0  0  0  0  0  0  0  0  0  0  0
    1.1002   -0.0395   -1.8792 H   0  0  0  0  0  0  0  0  0  0  0  0
   -1.2752    1.8924    1.1162 H   0  0  0  0  0  0  0  0  0  0  0  0
   -1.3899   -0.1791   -2.1106 H   0  0  0  0  0  0  0  0  0  0  0  0
   -1.1247   -2.8998   -1.2669 C   0  0  0  0  0  0  0  0  0  0  0  0
   -0.0727   -2.4335   -0.5892 C   0  0  0  0  0  0  0  0  0  0  0  0
   -0.1733   -1.6358    0.6235 C   0  0  0  0  0  3  0  0  0  0  0  0
    0.9136   -1.5582    1.5920 C   0  0  0  0  0  0  0  0  0  0  0  0
    2.1555   -2.0268    1.4416 C   0  0  0  0  0  0  0  0  0  0  0  0
   -1.0000   -3.4715   -2.1771 H   0  0  0  0  0  0  0  0  0  0  0  0
   -2.1384   -2.7327   -0.9202 H   0  0  0  0  0  0  0  0  0  0  0  0
    0.9222   -2.6262   -0.9771 H   0  0  0  0  0  0  0  0  0  0  0  0
   -0.2206   -0.3316    0.1641 H   0  0  0  0  0  0  0  0  0  0  0  0
   -1.1720   -1.6048    1.0581 H   0  0  0  0  0  0  0  0  0  0  0  0
    0.6754   -1.0251    2.5066 H   0  0  0  0  0  0  0  0  0  0  0  0
    2.4724   -2.5744    0.5628 H   0  0  0  0  0  0  0  0  0  0  0  0
    2.8967   -1.8790    2.2152 H   0  0  0  0  0  0  0  0  0  0  0  0
  1  2  1  0
  1  6  1  0
  1  7  1  0
  1  8  1  0
  2  3  1  0
  2  5  1  0
  2 19  1  1
  3  4  2  0
  3  9  1  0
  5 10  1  0
 11 12  2  3
 11 16  1  0
 11 17  1  0
 12 13  1  0
 12 18  1  0
 13 14  1  0
 13 20  1  0
 14 15  2  3
 14 21  1  0
 15 22  1  0
 15 23  1  0
M  RAD  1  13   2
M  END
>  <reaction>  (4) 
rxn_1159

>  <mol_properties>  (4) 
{"1": {"label": "*1", "atom_type": "Cs"}, "2": {"label": "*0", "atom_type": "CS"}, "11": {"label": "*4", "atom_type": "Cd"}, "12": {"label": "*3", "atom_type": "Cs"}, "18": {"label": "*2", "atom_type": "H0"}}

>  <type>  (4) 
ts

$$$$

     RDKit          3D

 23 21  0  0  0  0  0  0  0  0999 V2000
   -1.8559    1.4219    0.1632 C   0  0  0  0  0  0  0  0  0  0  0  0
   -0.6063    0.6535   -0.2159 C   0  0  0  0  0  0  0  0  0  0  0  0
   -0.0121    0.9595   -1.5579 C   0  0  0  0  0  0  0  0  0  0  0  0
   -0.4006    2.1807   -2.5292 S   0  0  0  0  0  0  0  0  0  0  0  0
    0.7542    0.8338    1.0000 S   0  0  0  0  0  0  0  0  0  0  0  0
   -1.6635    2.4945    0.1846 H   0  0  0  0  0  0  0  0  0  0  0  0
   -2.6467    1.2422   -0.5670 H   0  0  0  0  0  0  0  0  0  0  0  0
   -2.2008    1.1078    1.1473 H   0  0  0  0  0  0  0  0  0  0  0  0
    0.7793    0.2673   -1.8460 H   0  0  0  0  0  0  0  0  0  0  0  0
    0.9426    2.1461    0.7991 H   0  0  0  0  0  0  0  0  0  0  0  0
   -0.3662   -2.7160   -0.8962 C   0  0  0  0  0  0  0  0  0  0  0  0
   -0.3662   -2.7160    0.4270 C   0  0  0  0  0  0  0  0  0  0  0  0
   -0.3662   -1.4902    1.2850 C   0  0  0  0  0  3  0  0  0  0  0  0
    0.8435   -1.3359    2.1662 C   0  0  0  0  0  0  0  0  0  0  0  0
    1.9547   -2.0516    2.0938 C   0  0  0  0  0  0  0  0  0  0  0  0
   -0.3744   -3.6388   -1.4628 H   0  0  0  0  0  0  0  0  0  0  0  0
   -0.3598   -1.7906   -1.4622 H   0  0  0  0  0  0  0  0  0  0  0  0
   -0.3636   -3.6648    0.9575 H   0  0  0  0  0  0  0  0  0  0  0  0
   -0.4863   -0.4183    0.5345 H   0  0  0  0  0  0  0  0  0  0  0  0
   -1.2542   -1.5037    1.9278 H   0  0  0  0  0  0  0  0  0  0  0  0
    0.7708   -0.5508    2.9139 H   0  0  0  0  0  0  0  0  0  0  0  0
    2.0801   -2.8384    1.3589 H   0  0  0  0  0  0  0  0  0  0  0  0
    2.7829   -1.8673    2.7661 H   0  0  0  0  0  0  0  0  0  0  0  0
  1  2  1  0
  1  6  1  0
  1  7  1  0
  1  8  1  0
  2  3  1  0
  2  5  1  0
  2 19  1  0
  3  4  2  0
  3  9  1  0
  5 10  1  0
 11 12  2  3
 11 16  1  0
 11 17  1  0
 12 13  1  0
 12 18  1  0
 13 14  1  0
 13 20  1  0
 14 15  2  3
 14 21  1  0
 15 22  1  0
 15 23  1  0
M  RAD  1  13   2
M  END
>  <reaction>  (5) 
rxn_1159

>  <mol_properties>  (5) 
{"1": {"label": "*1", "atom_type": "Cs"}, "2": {"label": "*0", "atom_type": "CS"}, "11": {"label": "*4", "atom_type": "Cd"}, "12": {"label": "*3", "atom_type": "Cs"}, "18": {"label": "*2", "atom_type": "H0"}}

>  <type>  (5) 
unop_1

>  <geom_source>  (5) 
Heuristics

$$$$

     RDKit          3D

 23 21  0  0  0  0  0  0  0  0999 V2000
   -1.2754    0.2320   -1.5894 C   0  0  0  0  0  0  0  0  0  0  0  0
   -0.4794    0.5525   -0.3407 C   0  0  0  0  0  0  0  0  0  0  0  0
    0.6944    1.4695   -0.5106 C   0  0  0  0  0  0  0  0  0  0  0  0
    1.0537    2.3459   -1.8101 S   0  0  0  0  0  0  0  0  0  0  0  0
   -1.4975    1.2675    1.0062 S   0  0  0  0  0  0  0  0  0  0  0  0
   -1.6938    1.1373   -2.0290 H   0  0  0  0  0  0  0  0  0  0  0  0
   -0.6328   -0.2332   -2.3388 H   0  0  0  0  0  0  0  0  0  0  0  0
   -2.0902   -0.4486   -1.3459 H   0  0  0  0  0  0  0  0  0  0  0  0
    1.3231    1.5327    0.3777 H   0  0  0  0  0  0  0  0  0  0  0  0
   -1.8079    2.3983    0.3559 H   0  0  0  0  0  0  0  0  0  0  0  0
   -0.2392   -2.8171   -1.0210 C   0  0  0  0  0  0  0  0  0  0  0  0
   -0.2392   -2.8171    0.3022 C   0  0  0  0  0  0  0  0  0  0  0  0
   -0.2392   -1.5913    1.1602 C   0  0  0  0  0  3  0  0  0  0  0  0
    0.9705   -1.4369    2.0414 C   0  0  0  0  0  0  0  0  0  0  0  0
    2.0816   -2.1526    1.9690 C   0  0  0  0  0  0  0  0  0  0  0  0
   -0.2474   -3.7399   -1.5876 H   0  0  0  0  0  0  0  0  0  0  0  0
   -0.2329   -1.8917   -1.5870 H   0  0  0  0  0  0  0  0  0  0  0  0
   -0.2367   -3.7659    0.8328 H   0  0  0  0  0  0  0  0  0  0  0  0
   -0.3593   -0.5193    0.4097 H   0  0  0  0  0  0  0  0  0  0  0  0
   -1.1272   -1.6048    1.8030 H   0  0  0  0  0  0  0  0  0  0  0  0
    0.8978   -0.6519    2.7892 H   0  0  0  0  0  0  0  0  0  0  0  0
    2.2071   -2.9395    1.2341 H   0  0  0  0  0  0  0  0  0  0  0  0
    2.9098   -1.9683    2.6413 H   0  0  0  0  0  0  0  0  0  0  0  0
  1  2  1  0
  1  6  1  0
  1  7  1  0
  1  8  1  0
  2  3  1  0
  2  5  1  0
  2 19  1  0
  3  4  2  0
  3  9  1  0
  5 10  1  0
 11 12  2  3
 11 16  1  0
 11 17  1  0
 12 13  1  0
 12 18  1  0
 13 14  1  0
 13 20  1  0
 14 15  2  3
 14 21  1  0
 15 22  1  0
 15 23  1  0
M  RAD  1  13   2
M  END
>  <reaction>  (6) 
rxn_1159

>  <mol_properties>  (6) 
{"1": {"label": "*1", "atom_type": "Cs"}, "2": {"label": "*0", "atom_type": "CS"}, "11": {"label": "*4", "atom_type": "Cd"}, "12": {"label": "*3", "atom_type": "Cs"}, "18": {"label": "*2", "atom_type": "H0"}}

>  <type>  (6) 
unop_2

>  <geom_source>  (6) 
Heuristics

$$$$

     RDKit          3D

 23 21  0  0  0  0  0  0  0  0999 V2000
   -1.2057    1.8548    0.7133 C   0  0  0  0  0  0  0  0  0  0  0  0
   -0.4912    0.7579   -0.0495 C   0  0  0  0  0  0  0  0  0  0  0  0
   -0.6642    0.7544   -1.5387 C   0  0  0  0  0  0  0  0  0  0  0  0
   -1.3110    1.9203   -2.4374 S   0  0  0  0  0  0  0  0  0  0  0  0
    1.3162    0.7191    0.2565 S   0  0  0  0  0  0  0  0  0  0  0  0
   -0.8643    2.8391    0.3934 H   0  0  0  0  0  0  0  0  0  0  0  0
   -2.2807    1.8027    0.5327 H   0  0  0  0  0  0  0  0  0  0  0  0
   -1.0176    1.7480    1.7807 H   0  0  0  0  0  0  0  0  0  0  0  0
   -0.2698   -0.1431   -2.0155 H   0  0  0  0  0  0  0  0  0  0  0  0
    1.5739    1.9105   -0.3020 H   0  0  0  0  0  0  0  0  0  0  0  0
   -0.2511   -2.6117   -0.7298 C   0  0  0  0  0  0  0  0  0  0  0  0
   -0.2511   -2.6117    0.5935 C   0  0  0  0  0  0  0  0  0  0  0  0
   -0.2511   -1.3859    1.4515 C   0  0  0  0  0  3  0  0  0  0  0  0
    0.9586   -1.2315    2.3327 C   0  0  0  0  0  0  0  0  0  0  0  0
    2.0698   -1.9472    2.2603 C   0  0  0  0  0  0  0  0  0  0  0  0
   -0.2593   -3.5344   -1.2963 H   0  0  0  0  0  0  0  0  0  0  0  0
   -0.2447   -1.6862   -1.2957 H   0  0  0  0  0  0  0  0  0  0  0  0
   -0.2485   -3.5604    1.1240 H   0  0  0  0  0  0  0  0  0  0  0  0
   -0.3712   -0.3139    0.7009 H   0  0  0  0  0  0  0  0  0  0  0  0
   -1.1391   -1.3994    2.0943 H   0  0  0  0  0  0  0  0  0  0  0  0
    0.8859   -0.4465    3.0804 H   0  0  0  0  0  0  0  0  0  0  0  0
    2.1952   -2.7341    1.5254 H   0  0  0  0  0  0  0  0  0  0  0  0
    2.8980   -1.7629    2.9326 H   0  0  0  0  0  0  0  0  0  0  0  0
  1  2  1  0
  1  6  1  0
  1  7  1  0
  1  8  1  0
  2  3  1  0
  2  5  1  0
  2 19  1  0
  3  4  2  0
  3  9  1  0
  5 10  1  0
 11 12  2  3
 11 16  1  0
 11 17  1  0
 12 13  1  0
 12 18  1  0
 13 14  1  0
 13 20  1  0
 14 15  2  3
 14 21  1  0
 15 22  1  0
 15 23  1  0
M  RAD  1  13   2
M  END
>  <reaction>  (7) 
rxn_1159

>  <mol_properties>  (7) 
{"1": {"label": "*1", "atom_type": "Cs"}, "2": {"label": "*0", "atom_type": "CS"}, "11": {"label": "*4", "atom_type": "Cd"}, "12": {"label": "*3", "atom_type": "Cs"}, "18": {"label": "*2", "atom_type": "H0"}}

>  <type>  (7) 
unop_3

>  <geom_source>  (7) 
Heuristics

$$$$

     RDKit          3D

 23 21  0  0  0  0  0  0  0  0999 V2000
    0.7127    0.6539   -1.6608 C   0  0  0  0  0  0  0  0  0  0  0  0
   -0.4410    0.5667   -0.6826 C   0  0  0  0  0  0  0  0  0  0  0  0
   -0.2527    1.2487    0.6391 C   0  0  0  0  0  0  0  0  0  0  0  0
    0.9247    2.2680    1.0395 S   0  0  0  0  0  0  0  0  0  0  0  0
   -2.0212    1.1988   -1.3649 S   0  0  0  0  0  0  0  0  0  0  0  0
    0.9324    1.6909   -1.9142 H   0  0  0  0  0  0  0  0  0  0  0  0
    1.6140    0.2224   -1.2223 H   0  0  0  0  0  0  0  0  0  0  0  0
    0.4667    0.1142   -2.5743 H   0  0  0  0  0  0  0  0  0  0  0  0
   -1.0374    1.0159    1.3591 H   0  0  0  0  0  0  0  0  0  0  0  0
   -1.6169    2.4714   -1.4867 H   0  0  0  0  0  0  0  0  0  0  0  0
   -0.2009   -2.8029   -1.3629 C   0  0  0  0  0  0  0  0  0  0  0  0
   -0.2009   -2.8029   -0.0397 C   0  0  0  0  0  0  0  0  0  0  0  0
   -0.2009   -1.5771    0.8183 C   0  0  0  0  0  3  0  0  0  0  0  0
    1.0089   -1.4228    1.6995 C   0  0  0  0  0  0  0  0  0  0  0  0
    2.1200   -2.1384    1.6271 C   0  0  0  0  0  0  0  0  0  0  0  0
   -0.2090   -3.7257   -1.9295 H   0  0  0  0  0  0  0  0  0  0  0  0
   -0.1945   -1.8775   -1.9289 H   0  0  0  0  0  0  0  0  0  0  0  0
   -0.1983   -3.7517    0.4909 H   0  0  0  0  0  0  0  0  0  0  0  0
   -0.3209   -0.5051    0.0678 H   0  0  0  0  0  0  0  0  0  0  0  0
   -1.0888   -1.5906    1.4611 H   0  0  0  0  0  0  0  0  0  0  0  0
    0.9362   -0.6377    2.4473 H   0  0  0  0  0  0  0  0  0  0  0  0
    2.2455   -2.9253    0.8922 H   0  0  0  0  0  0  0  0  0  0  0  0
    2.9482   -1.9542    2.2994 H   0  0  0  0  0  0  0  0  0  0  0  0
  1  2  1  0
  1  6  1  0
  1  7  1  0
  1  8  1  0
  2  3  1  0
  2  5  1  0
  2 19  1  0
  3  4  2  0
  3  9  1  0
  5 10  1  0
 11 12  2  3
 11 16  1  0
 11 17  1  0
 12 13  1  0
 12 18  1  0
 13 14  1  0
 13 20  1  0
 14 15  2  3
 14 21  1  0
 15 22  1  0
 15 23  1  0
M  RAD  1  13   2
M  END
>  <reaction>  (8) 
rxn_1159

>  <mol_properties>  (8) 
{"1": {"label": "*1", "atom_type": "Cs"}, "2": {"label": "*0", "atom_type": "CS"}, "11": {"label": "*4", "atom_type": "Cd"}, "12": {"label": "*3", "atom_type": "Cs"}, "18": {"label": "*2", "atom_type": "H0"}}

>  <type>  (8) 
unop_4

>  <geom_source>  (8) 
Heuristics

$$$$

     RDKit          3D

 23 21  0  0  0  0  0  0  0  0999 V2000
   -0.1257    2.0800    0.8050 C   0  0  0  0  0  0  0  0  0  0  0  0
   -0.1249    0.8338   -0.0567 C   0  0  0  0  0  0  0  0  0  0  0  0
   -1.3212    0.6255   -0.9359 C   0  0  0  0  0  0  0  0  0  0  0  0
   -2.4816    1.6921   -1.2545 S   0  0  0  0  0  0  0  0  0  0  0  0
    1.3422    0.7072   -1.1493 S   0  0  0  0  0  0  0  0  0  0  0  0
   -0.1771    2.9792    0.1914 H   0  0  0  0  0  0  0  0  0  0  0  0
   -0.9930    2.0814    1.4674 H   0  0  0  0  0  0  0  0  0  0  0  0
    0.7821    2.1167    1.4057 H   0  0  0  0  0  0  0  0  0  0  0  0
   -1.3449   -0.3586   -1.4043 H   0  0  0  0  0  0  0  0  0  0  0  0
    1.0488    1.7820   -1.8953 H   0  0  0  0  0  0  0  0  0  0  0  0
    0.1153   -2.5358   -0.7370 C   0  0  0  0  0  0  0  0  0  0  0  0
    0.1153   -2.5358    0.5863 C   0  0  0  0  0  0  0  0  0  0  0  0
    0.1153   -1.3100    1.4443 C   0  0  0  0  0  3  0  0  0  0  0  0
    1.3250   -1.1556    2.3255 C   0  0  0  0  0  0  0  0  0  0  0  0
    2.4361   -1.8713    2.2530 C   0  0  0  0  0  0  0  0  0  0  0  0
    0.1071   -3.4585   -1.3035 H   0  0  0  0  0  0  0  0  0  0  0  0
    0.1216   -1.6103   -1.3030 H   0  0  0  0  0  0  0  0  0  0  0  0
    0.1178   -3.4845    1.1168 H   0  0  0  0  0  0  0  0  0  0  0  0
   -0.0048   -0.2380    0.6937 H   0  0  0  0  0  0  0  0  0  0  0  0
   -0.7727   -1.3235    2.0870 H   0  0  0  0  0  0  0  0  0  0  0  0
    1.2523   -0.3706    3.0732 H   0  0  0  0  0  0  0  0  0  0  0  0
    2.5616   -2.6582    1.5182 H   0  0  0  0  0  0  0  0  0  0  0  0
    3.2643   -1.6870    2.9254 H   0  0  0  0  0  0  0  0  0  0  0  0
  1  2  1  0
  1  6  1  0
  1  7  1  0
  1  8  1  0
  2  3  1  0
  2  5  1  0
  2 19  1  0
  3  4  2  0
  3  9  1  0
  5 10  1  0
 11 12  2  3
 11 16  1  0
 11 17  1  0
 12 13  1  0
 12 18  1  0
 13 14  1  0
 13 20  1  0
 14 15  2  3
 14 21  1  0
 15 22  1  0
 15 23  1  0
M  RAD  1  13   2
M  END
>  <reaction>  (9) 
rxn_1159

>  <mol_properties>  (9) 
{"1": {"label": "*1", "atom_type": "Cs"}, "2": {"label": "*0", "atom_type": "CS"}, "11": {"label": "*4", "atom_type": "Cd"}, "12": {"label": "*3", "atom_type": "Cs"}, "18": {"label": "*2", "atom_type": "H0"}}

>  <type>  (9) 
unop_5

>  <geom_source>  (9) 
Heuristics

$$$$

     RDKit          3D

 23 21  0  0  0  0  0  0  0  0999 V2000
    1.1370    1.1210   -1.1581 C   0  0  0  0  0  0  0  0  0  0  0  0
   -0.2297    0.6139   -0.7454 C   0  0  0  0  0  0  0  0  0  0  0  0
   -0.7236    1.0400    0.6044 C   0  0  0  0  0  0  0  0  0  0  0  0
   -0.0837    2.1694    1.5535 S   0  0  0  0  0  0  0  0  0  0  0  0
   -1.5551    1.0469   -1.9362 S   0  0  0  0  0  0  0  0  0  0  0  0
    1.1569    2.2102   -1.1882 H   0  0  0  0  0  0  0  0  0  0  0  0
    1.8934    0.7960   -0.4417 H   0  0  0  0  0  0  0  0  0  0  0  0
    1.3927    0.7381   -2.1452 H   0  0  0  0  0  0  0  0  0  0  0  0
   -1.6283    0.5177    0.9162 H   0  0  0  0  0  0  0  0  0  0  0  0
   -1.4799    2.3721   -1.7469 H   0  0  0  0  0  0  0  0  0  0  0  0
    0.0104   -2.7557   -1.4257 C   0  0  0  0  0  0  0  0  0  0  0  0
    0.0104   -2.7557   -0.1024 C   0  0  0  0  0  0  0  0  0  0  0  0
    0.0104   -1.5299    0.7556 C   0  0  0  0  0  3  0  0  0  0  0  0
    1.2201   -1.3755    1.6368 C   0  0  0  0  0  0  0  0  0  0  0  0
    2.3313   -2.0912    1.5643 C   0  0  0  0  0  0  0  0  0  0  0  0
    0.0022   -3.6784   -1.9922 H   0  0  0  0  0  0  0  0  0  0  0  0
    0.0168   -1.8302   -1.9917 H   0  0  0  0  0  0  0  0  0  0  0  0
    0.0130   -3.7044    0.4281 H   0  0  0  0  0  0  0  0  0  0  0  0
   -0.1097   -0.4579    0.0050 H   0  0  0  0  0  0  0  0  0  0  0  0
   -0.8776   -1.5434    1.3983 H   0  0  0  0  0  0  0  0  0  0  0  0
    1.1474   -0.5905    2.3845 H   0  0  0  0  0  0  0  0  0  0  0  0
    2.4568   -2.8781    0.8295 H   0  0  0  0  0  0  0  0  0  0  0  0
    3.1595   -1.9069    2.2367 H   0  0  0  0  0  0  0  0  0  0  0  0
  1  2  1  0
  1  6  1  0
  1  7  1  0
  1  8  1  0
  2  3  1  0
  2  5  1  0
  2 19  1  0
  3  4  2  0
  3  9  1  0
  5 10  1  0
 11 12  2  3
 11 16  1  0
 11 17  1  0
 12 13  1  0
 12 18  1  0
 13 14  1  0
 13 20  1  0
 14 15  2  3
 14 21  1  0
 15 22  1  0
 15 23  1  0
M  RAD  1  13   2
M  END
>  <reaction>  (10) 
rxn_1159

>  <mol_properties>  (10) 
{"1": {"label": "*1", "atom_type": "Cs"}, "2": {"label": "*0", "atom_type": "CS"}, "11": {"label": "*4", "atom_type": "Cd"}, "12": {"label": "*3", "atom_type": "Cs"}, "18": {"label": "*2", "atom_type": "H0"}}

>  <type>  (10) 
unop_6

>  <geom_source>  (10) 
Heuristics

$$$$

     RDKit          3D

 23 21  0  0  0  0  0  0  0  0999 V2000
    1.1918    1.6085   -0.4734 C   0  0  0  0  0  0  0  0  0  0  0  0
   -0.0090    0.7029   -0.6565 C   0  0  0  0  0  0  0  0  0  0  0  0
   -1.1022    0.8244    0.3622 C   0  0  0  0  0  0  0  0  0  0  0  0
   -1.2596    1.9736    1.4759 S   0  0  0  0  0  0  0  0  0  0  0  0
   -0.8126    0.8843   -2.2946 S   0  0  0  0  0  0  0  0  0  0  0  0
    0.8985    2.6576   -0.5071 H   0  0  0  0  0  0  0  0  0  0  0  0
    1.6587    1.4264    0.4960 H   0  0  0  0  0  0  0  0  0  0  0  0
    1.9207    1.4225   -1.2611 H   0  0  0  0  0  0  0  0  0  0  0  0
   -1.8571    0.0424    0.2786 H   0  0  0  0  0  0  0  0  0  0  0  0
   -1.2151    2.1497   -2.1088 H   0  0  0  0  0  0  0  0  0  0  0  0
    0.2311   -2.6667   -1.3368 C   0  0  0  0  0  0  0  0  0  0  0  0
    0.2311   -2.6667   -0.0135 C   0  0  0  0  0  0  0  0  0  0  0  0
    0.2311   -1.4409    0.8445 C   0  0  0  0  0  3  0  0  0  0  0  0
    1.4409   -1.2865    1.7257 C   0  0  0  0  0  0  0  0  0  0  0  0
    2.5520   -2.0022    1.6532 C   0  0  0  0  0  0  0  0  0  0  0  0
    0.2230   -3.5895   -1.9033 H   0  0  0  0  0  0  0  0  0  0  0  0
    0.2375   -1.7413   -1.9028 H   0  0  0  0  0  0  0  0  0  0  0  0
    0.2337   -3.6155    0.5170 H   0  0  0  0  0  0  0  0  0  0  0  0
    0.1111   -0.3689    0.0939 H   0  0  0  0  0  0  0  0  0  0  0  0
   -0.6568   -1.4544    1.4872 H   0  0  0  0  0  0  0  0  0  0  0  0
    1.3682   -0.5015    2.4734 H   0  0  0  0  0  0  0  0  0  0  0  0
    2.6775   -2.7891    0.9184 H   0  0  0  0  0  0  0  0  0  0  0  0
    3.3802   -1.8179    2.3256 H   0  0  0  0  0  0  0  0  0  0  0  0
  1  2  1  0
  1  6  1  0
  1  7  1  0
  1  8  1  0
  2  3  1  0
  2  5  1  0
  2 19  1  0
  3  4  2  0
  3  9  1  0
  5 10  1  0
 11 12  2  3
 11 16  1  0
 11 17  1  0
 12 13  1  0
 12 18  1  0
 13 14  1  0
 13 20  1  0
 14 15  2  3
 14 21  1  0
 15 22  1  0
 15 23  1  0
M  RAD  1  13   2
M  END
>  <reaction>  (11) 
rxn_1159

>  <mol_properties>  (11) 
{"1": {"label": "*1", "atom_type": "Cs"}, "2": {"label": "*0", "atom_type": "CS"}, "11": {"label": "*4", "atom_type": "Cd"}, "12": {"label": "*3", "atom_type": "Cs"}, "18": {"label": "*2", "atom_type": "H0"}}

>  <type>  (11) 
unop_7

>  <geom_source>  (11) 
Heuristics

$$$$

     RDKit          3D

 23 21  0  0  0  0  0  0  0  0999 V2000
   -2.0220    0.9283   -0.5144 C   0  0  0  0  0  0  0  0  0  0  0  0
   -0.5594    0.5796   -0.3280 C   0  0  0  0  0  0  0  0  0  0  0  0
    0.4028    1.1768   -1.3104 C   0  0  0  0  0  0  0  0  0  0  0  0
    0.0940    2.3376   -2.3794 S   0  0  0  0  0  0  0  0  0  0  0  0
    0.0812    1.0009    1.3376 S   0  0  0  0  0  0  0  0  0  0  0  0
   -2.1802    2.0038   -0.4367 H   0  0  0  0  0  0  0  0  0  0  0  0
   -2.3629    0.6142   -1.5023 H   0  0  0  0  0  0  0  0  0  0  0  0
   -2.6224    0.4297    0.2454 H   0  0  0  0  0  0  0  0  0  0  0  0
    1.4090    0.7647   -1.2319 H   0  0  0  0  0  0  0  0  0  0  0  0
   -0.0622    2.3276    1.2065 H   0  0  0  0  0  0  0  0  0  0  0  0
   -0.3193   -2.7899   -1.0083 C   0  0  0  0  0  0  0  0  0  0  0  0
   -0.3193   -2.7899    0.3150 C   0  0  0  0  0  0  0  0  0  0  0  0
   -0.3193   -1.5641    1.1730 C   0  0  0  0  0  3  0  0  0  0  0  0
    0.8904   -1.4098    2.0542 C   0  0  0  0  0  0  0  0  0  0  0  0
    2.0016   -2.1255    1.9817 C   0  0  0  0  0  0  0  0  0  0  0  0
   -0.3275   -3.7127   -1.5748 H   0  0  0  0  0  0  0  0  0  0  0  0
   -0.3129   -1.8645   -1.5743 H   0  0  0  0  0  0  0  0  0  0  0  0
   -0.3167   -3.7387    0.8455 H   0  0  0  0  0  0  0  0  0  0  0  0
   -0.4394   -0.4921    0.4224 H   0  0  0  0  0  0  0  0  0  0  0  0
   -1.2073   -1.5776    1.8157 H   0  0  0  0  0  0  0  0  0  0  0  0
    0.8177   -0.6247    2.8019 H   0  0  0  0  0  0  0  0  0  0  0  0
    2.1271   -2.9123    1.2469 H   0  0  0  0  0  0  0  0  0  0  0  0
    2.8298   -1.9412    2.6541 H   0  0  0  0  0  0  0  0  0  0  0  0
  1  2  1  0
  1  6  1  0
  1  7  1  0
  1  8  1  0
  2  3  1  0
  2  5  1  0
  2 19  1  0
  3  4  2  0
  3  9  1  0
  5 10  1  0
 11 12  2  3
 11 16  1  0
 11 17  1  0
 12 13  1  0
 12 18  1  0
 13 14  1  0
 13 20  1  0
 14 15  2  3
 14 21  1  0
 15 22  1  0
 15 23  1  0
M  RAD  1  13   2
M  END
>  <reaction>  (12) 
rxn_1159

>  <mol_properties>  (12) 
{"1": {"label": "*1", "atom_type": "Cs"}, "2": {"label": "*0", "atom_type": "CS"}, "11": {"label": "*4", "atom_type": "Cd"}, "12": {"label": "*3", "atom_type": "Cs"}, "18": {"label": "*2", "atom_type": "H0"}}

>  <type>  (12) 
unop_8

>  <geom_source>  (12) 
Heuristics

$$$$

     RDKit          3D

 23 21  0  0  0  0  0  0  0  0999 V2000
    0.0655    0.3149   -1.8892 C   0  0  0  0  0  0  0  0  0  0  0  0
   -0.5531    0.5561   -0.5273 C   0  0  0  0  0  0  0  0  0  0  0  0
    0.2321    1.4073    0.4247 C   0  0  0  0  0  0  0  0  0  0  0  0
    1.5285    2.2945    0.0813 S   0  0  0  0  0  0  0  0  0  0  0  0
   -2.2295    1.2942   -0.6115 S   0  0  0  0  0  0  0  0  0  0  0  0
    0.2187    1.2540   -2.4205 H   0  0  0  0  0  0  0  0  0  0  0  0
    1.0386   -0.1675   -1.7826 H   0  0  0  0  0  0  0  0  0  0  0  0
   -0.5857   -0.3232   -2.4851 H   0  0  0  0  0  0  0  0  0  0  0  0
   -0.1760    1.4109    1.4356 H   0  0  0  0  0  0  0  0  0  0  0  0
   -1.8385    2.4575   -1.1516 H   0  0  0  0  0  0  0  0  0  0  0  0
   -0.3130   -2.8135   -1.2076 C   0  0  0  0  0  0  0  0  0  0  0  0
   -0.3130   -2.8135    0.1156 C   0  0  0  0  0  0  0  0  0  0  0  0
   -0.3130   -1.5877    0.9736 C   0  0  0  0  0  3  0  0  0  0  0  0
    0.8967   -1.4333    1.8548 C   0  0  0  0  0  0  0  0  0  0  0  0
    2.0079   -2.1490    1.7824 C   0  0  0  0  0  0  0  0  0  0  0  0
   -0.3212   -3.7362   -1.7742 H   0  0  0  0  0  0  0  0  0  0  0  0
   -0.3067   -1.8880   -1.7736 H   0  0  0  0  0  0  0  0  0  0  0  0
   -0.3104   -3.7622    0.6461 H   0  0  0  0  0  0  0  0  0  0  0  0
   -0.4331   -0.5157    0.2231 H   0  0  0  0  0  0  0  0  0  0  0  0
   -1.2010   -1.6011    1.6164 H   0  0  0  0  0  0  0  0  0  0  0  0
    0.8240   -0.6483    2.6025 H   0  0  0  0  0  0  0  0  0  0  0  0
    2.1333   -2.9358    1.0475 H   0  0  0  0  0  0  0  0  0  0  0  0
    2.8361   -1.9647    2.4547 H   0  0  0  0  0  0  0  0  0  0  0  0
  1  2  1  0
  1  6  1  0
  1  7  1  0
  1  8  1  0
  2  3  1  0
  2  5  1  0
  2 19  1  0
  3  4  2  0
  3  9  1  0
  5 10  1  0
 11 12  2  3
 11 16  1  0
 11 17  1  0
 12 13  1  0
 12 18  1  0
 13 14  1  0
 13 20  1  0
 14 15  2  3
 14 21  1  0
 15 22  1  0
 15 23  1  0
M  RAD  1  13   2
M  END
>  <reaction>  (13) 
rxn_1159

>  <mol_properties>  (13) 
{"1": {"label": "*1", "atom_type": "Cs"}, "2": {"label": "*0", "atom_type": "CS"}, "11": {"label": "*4", "atom_type": "Cd"}, "12": {"label": "*3", "atom_type": "Cs"}, "18": {"label": "*2", "atom_type": "H0"}}

>  <type>  (13) 
unop_9

>  <geom_source>  (13) 
Heuristics

$$$$

     RDKit          3D

 23 21  0  0  0  0  0  0  0  0999 V2000
   -1.7840    0.5010   -1.1355 C   0  0  0  0  0  0  0  0  0  0  0  0
   -0.4874    0.5509   -0.3534 C   0  0  0  0  0  0  0  0  0  0  0  0
    0.6252    1.3592   -0.9503 C   0  0  0  0  0  0  0  0  0  0  0  0
    0.5201    2.3772   -2.1906 S   0  0  0  0  0  0  0  0  0  0  0  0
   -0.6979    1.1584    1.3638 S   0  0  0  0  0  0  0  0  0  0  0  0
   -2.2039    1.4990   -1.2599 H   0  0  0  0  0  0  0  0  0  0  0  0
   -1.6098    0.0890   -2.1310 H   0  0  0  0  0  0  0  0  0  0  0  0
   -2.5089   -0.1220   -0.6134 H   0  0  0  0  0  0  0  0  0  0  0  0
    1.5773    1.2264   -0.4362 H   0  0  0  0  0  0  0  0  0  0  0  0
   -1.0776    2.3984    1.0234 H   0  0  0  0  0  0  0  0  0  0  0  0
   -0.2473   -2.8187   -1.0337 C   0  0  0  0  0  0  0  0  0  0  0  0
   -0.2473   -2.8187    0.2896 C   0  0  0  0  0  0  0  0  0  0  0  0
   -0.2473   -1.5929    1.1476 C   0  0  0  0  0  3  0  0  0  0  0  0
    0.9625   -1.4385    2.0288 C   0  0  0  0  0  0  0  0  0  0  0  0
    2.0736   -2.1542    1.9563 C   0  0  0  0  0  0  0  0  0  0  0  0
   -0.2554   -3.7414   -1.6002 H   0  0  0  0  0  0  0  0  0  0  0  0
   -0.2409   -1.8932   -1.5997 H   0  0  0  0  0  0  0  0  0  0  0  0
   -0.2447   -3.7674    0.8201 H   0  0  0  0  0  0  0  0  0  0  0  0
   -0.3673   -0.5209    0.3970 H   0  0  0  0  0  0  0  0  0  0  0  0
   -1.1352   -1.6064    1.7904 H   0  0  0  0  0  0  0  0  0  0  0  0
    0.8898   -0.6535    2.7765 H   0  0  0  0  0  0  0  0  0  0  0  0
    2.1991   -2.9411    1.2215 H   0  0  0  0  0  0  0  0  0  0  0  0
    2.9018   -1.9699    2.6287 H   0  0  0  0  0  0  0  0  0  0  0  0
  1  2  1  0
  1  6  1  0
  1  7  1  0
  1  8  1  0
  2  3  1  0
  2  5  1  0
  2 19  1  0
  3  4  2  0
  3  9  1  0
  5 10  1  0
 11 12  2  3
 11 16  1  0
 11 17  1  0
 12 13  1  0
 12 18  1  0
 13 14  1  0
 13 20  1  0
 14 15  2  3
 14 21  1  0
 15 22  1  0
 15 23  1  0
M  RAD  1  13   2
M  END
>  <reaction>  (14) 
rxn_1159

>  <mol_properties>  (14) 
{"1": {"label": "*1", "atom_type": "Cs"}, "2": {"label": "*0", "atom_type": "CS"}, "11": {"label": "*4", "atom_type": "Cd"}, "12": {"label": "*3", "atom_type": "Cs"}, "18": {"label": "*2", "atom_type": "H0"}}

>  <type>  (14) 
unop_10

>  <geom_source>  (14) 
Heuristics

$$$$

     RDKit          3D

 23 21  0  0  0  0  0  0  0  0999 V2000
    0.7938    1.9786    0.2601 C   0  0  0  0  0  0  0  0  0  0  0  0
    0.0936    0.8025   -0.3895 C   0  0  0  0  0  0  0  0  0  0  0  0
   -1.3731    0.6594   -0.1137 C   0  0  0  0  0  0  0  0  0  0  0  0
   -2.3341    1.7443    0.5828 S   0  0  0  0  0  0  0  0  0  0  0  0
    0.2782    0.7641   -2.2133 S   0  0  0  0  0  0  0  0  0  0  0  0
    0.3580    2.9223   -0.0677 H   0  0  0  0  0  0  0  0  0  0  0  0
    0.6927    1.9268    1.3455 H   0  0  0  0  0  0  0  0  0  0  0  0
    1.8512    1.9714   -0.0005 H   0  0  0  0  0  0  0  0  0  0  0  0
   -1.7868   -0.2858   -0.4656 H   0  0  0  0  0  0  0  0  0  0  0  0
   -0.4090    1.8924   -2.4429 H   0  0  0  0  0  0  0  0  0  0  0  0
    0.3337   -2.5671   -1.0697 C   0  0  0  0  0  0  0  0  0  0  0  0
    0.3337   -2.5671    0.2535 C   0  0  0  0  0  0  0  0  0  0  0  0
    0.3337   -1.3413    1.1115 C   0  0  0  0  0  3  0  0  0  0  0  0
    1.5434   -1.1869    1.9927 C   0  0  0  0  0  0  0  0  0  0  0  0
    2.6546   -1.9026    1.9203 C   0  0  0  0  0  0  0  0  0  0  0  0
    0.3255   -3.4898   -1.6363 H   0  0  0  0  0  0  0  0  0  0  0  0
    0.3400   -1.6417   -1.6357 H   0  0  0  0  0  0  0  0  0  0  0  0
    0.3363   -3.5159    0.7840 H   0  0  0  0  0  0  0  0  0  0  0  0
    0.2136   -0.2693    0.3610 H   0  0  0  0  0  0  0  0  0  0  0  0
   -0.5543   -1.3548    1.7543 H   0  0  0  0  0  0  0  0  0  0  0  0
    1.4707   -0.4019    2.7404 H   0  0  0  0  0  0  0  0  0  0  0  0
    2.7800   -2.6895    1.1854 H   0  0  0  0  0  0  0  0  0  0  0  0
    3.4828   -1.7183    2.5926 H   0  0  0  0  0  0  0  0  0  0  0  0
  1  2  1  0
  1  6  1  0
  1  7  1  0
  1  8  1  0
  2  3  1  0
  2  5  1  0
  2 19  1  0
  3  4  2  0
  3  9  1  0
  5 10  1  0
 11 12  2  3
 11 16  1  0
 11 17  1  0
 12 13  1  0
 12 18  1  0
 13 14  1  0
 13 20  1  0
 14 15  2  3
 14 21  1  0
 15 22  1  0
 15 23  1  0
M  RAD  1  13   2
M  END
>  <reaction>  (15) 
rxn_1159

>  <mol_properties>  (15) 
{"1": {"label": "*1", "atom_type": "Cs"}, "2": {"label": "*0", "atom_type": "CS"}, "11": {"label": "*4", "atom_type": "Cd"}, "12": {"label": "*3", "atom_type": "Cs"}, "18": {"label": "*2", "atom_type": "H0"}}

>  <type>  (15) 
unop_11

>  <geom_source>  (15) 
Heuristics

$$$$

     RDKit          3D

 23 21  0  0  0  0  0  0  0  0999 V2000
   -0.6322    0.1671   -1.8461 C   0  0  0  0  0  0  0  0  0  0  0  0
   -0.5372    0.5576   -0.3853 C   0  0  0  0  0  0  0  0  0  0  0  0
    0.5784    1.4862   -0.0105 C   0  0  0  0  0  0  0  0  0  0  0  0
    1.5272    2.3090   -1.0147 S   0  0  0  0  0  0  0  0  0  0  0  0
   -2.0750    1.3150    0.2656 S   0  0  0  0  0  0  0  0  0  0  0  0
   -0.7798    1.0441   -2.4760 H   0  0  0  0  0  0  0  0  0  0  0  0
    0.2895   -0.3204   -2.1681 H   0  0  0  0  0  0  0  0  0  0  0  0
   -1.4676   -0.5159   -1.9944 H   0  0  0  0  0  0  0  0  0  0  0  0
    0.6995    1.6006    1.0669 H   0  0  0  0  0  0  0  0  0  0  0  0
   -2.0246    2.4096   -0.5072 H   0  0  0  0  0  0  0  0  0  0  0  0
   -0.2971   -2.8120   -1.0655 C   0  0  0  0  0  0  0  0  0  0  0  0
   -0.2971   -2.8120    0.2577 C   0  0  0  0  0  0  0  0  0  0  0  0
   -0.2971   -1.5862    1.1157 C   0  0  0  0  0  3  0  0  0  0  0  0
    0.9126   -1.4319    1.9969 C   0  0  0  0  0  0  0  0  0  0  0  0
    2.0238   -2.1475    1.9245 C   0  0  0  0  0  0  0  0  0  0  0  0
   -0.3053   -3.7348   -1.6321 H   0  0  0  0  0  0  0  0  0  0  0  0
   -0.2908   -1.8866   -1.6315 H   0  0  0  0  0  0  0  0  0  0  0  0
   -0.2945   -3.7608    0.7882 H   0  0  0  0  0  0  0  0  0  0  0  0
   -0.4172   -0.5142    0.3652 H   0  0  0  0  0  0  0  0  0  0  0  0
   -1.1851   -1.5997    1.7585 H   0  0  0  0  0  0  0  0  0  0  0  0
    0.8399   -0.6468    2.7446 H   0  0  0  0  0  0  0  0  0  0  0  0
    2.1492   -2.9344    1.1896 H   0  0  0  0  0  0  0  0  0  0  0  0
    2.8520   -1.9633    2.5968 H   0  0  0  0  0  0  0  0  0  0  0  0
  1  2  1  0
  1  6  1  0
  1  7  1  0
  1  8  1  0
  2  3  1  0
  2  5  1  0
  2 19  1  0
  3  4  2  0
  3  9  1  0
  5 10  1  0
 11 12  2  3
 11 16  1  0
 11 17  1  0
 12 13  1  0
 12 18  1  0
 13 14  1  0
 13 20  1  0
 14 15  2  3
 14 21  1  0
 15 22  1  0
 15 23  1  0
M  RAD  1  13   2
M  END
>  <reaction>  (16) 
rxn_1159

>  <mol_properties>  (16) 
{"1": {"label": "*1", "atom_type": "Cs"}, "2": {"label": "*0", "atom_type": "CS"}, "11": {"label": "*4", "atom_type": "Cd"}, "12": {"label": "*3", "atom_type": "Cs"}, "18": {"label": "*2", "atom_type": "H0"}}

>  <type>  (16) 
unop_12

>  <geom_source>  (16) 
Heuristics

$$$$

     RDKit          3D

 23 21  0  0  0  0  0  0  0  0999 V2000
   -1.8415   -1.5459   -1.1891 S   0  0  0  0  0  0  0  0  0  0  0  0
   -1.9968   -0.1832    2.6616 S   0  0  0  0  0  0  0  0  0  0  0  0
   -1.6855   -0.2870    0.1204 C   0  0  0  0  0  0  0  0  0  0  0  0
   -2.3624    1.0045   -0.3387 C   0  0  0  0  0  0  0  0  0  0  0  0
    0.9020    0.0942   -0.2266 C   0  0  0  0  0  3  0  0  0  0  0  0
    1.5125    1.4151    0.1344 C   0  0  0  0  0  0  0  0  0  0  0  0
    1.9523   -0.9601   -0.3849 C   0  0  0  0  0  0  0  0  0  0  0  0
   -2.3006   -0.7978    1.3984 C   0  0  0  0  0  0  0  0  0  0  0  0
    2.1730    2.1517   -0.7635 C   0  0  0  0  0  0  0  0  0  0  0  0
    2.0728   -1.9388    0.5125 C   0  0  0  0  0  0  0  0  0  0  0  0
   -0.4303   -0.0604    0.3007 H   0  0  0  0  0  0  0  0  0  0  0  0
   -3.4492    0.8389   -0.5015 H   0  0  0  0  0  0  0  0  0  0  0  0
   -2.2269    1.8018    0.4225 H   0  0  0  0  0  0  0  0  0  0  0  0
   -1.9042    1.3529   -1.2883 H   0  0  0  0  0  0  0  0  0  0  0  0
    1.4078    1.7783    1.1517 H   0  0  0  0  0  0  0  0  0  0  0  0
    0.2830    0.1760   -1.1455 H   0  0  0  0  0  0  0  0  0  0  0  0
    2.6339   -0.9164   -1.2294 H   0  0  0  0  0  0  0  0  0  0  0  0
   -2.8974   -1.7046    1.3916 H   0  0  0  0  0  0  0  0  0  0  0  0
    2.6028    3.1049   -0.4734 H   0  0  0  0  0  0  0  0  0  0  0  0
    2.2887    1.8111   -1.7881 H   0  0  0  0  0  0  0  0  0  0  0  0
    2.8437   -2.6931    0.3933 H   0  0  0  0  0  0  0  0  0  0  0  0
    1.4075   -1.9951    1.3691 H   0  0  0  0  0  0  0  0  0  0  0  0
   -0.9853   -2.4471   -0.5274 H   0  0  0  0  0  0  0  0  0  0  0  0
  1  3  1  0
  1 23  1  0
  2  8  2  0
  3  4  1  0
  3  8  1  0
  3 11  1  0
  4 12  1  0
  4 13  1  0
  4 14  1  0
  5  6  1  0
  5  7  1  0
  5 16  1  0
  6  9  2  3
  6 15  1  0
  7 10  2  3
  7 17  1  0
  8 18  1  0
  9 19  1  0
  9 20  1  0
 10 21  1  0
 10 22  1  0
M  RAD  1   5   2
M  END
>  <reaction>  (17) 
rxn_1159

>  <mol_properties>  (17) 
{"1": {"label": "*1", "atom_type": "Cs"}, "2": {"label": "*0", "atom_type": "CS"}, "11": {"label": "*4", "atom_type": "Cd"}, "12": {"label": "*3", "atom_type": "Cs"}, "18": {"label": "*2", "atom_type": "H0"}}

>  <type>  (17) 
unop_13

>  <geom_source>  (17) 
AutoTST

$$$$

     RDKit          3D

 23 21  0  0  0  0  0  0  0  0999 V2000
   -1.2754    0.2320   -1.5894 C   0  0  0  0  0  0  0  0  0  0  0  0
   -0.4794    0.5525   -0.3407 C   0  0  0  0  0  0  0  0  0  0  0  0
    0.6944    1.4695   -0.5107 C   0  0  0  0  0  0  0  0  0  0  0  0
    1.0537    2.3459   -1.8100 S   0  0  0  0  0  0  0  0  0  0  0  0
   -1.4975    1.2675    1.0062 S   0  0  0  0  0  0  0  0  0  0  0  0
   -1.6938    1.1373   -2.0290 H   0  0  0  0  0  0  0  0  0  0  0  0
   -0.6328   -0.2333   -2.3388 H   0  0  0  0  0  0  0  0  0  0  0  0
   -2.0902   -0.4486   -1.3459 H   0  0  0  0  0  0  0  0  0  0  0  0
    1.3231    1.5328    0.3777 H   0  0  0  0  0  0  0  0  0  0  0  0
   -1.8079    2.3982    0.3559 H   0  0  0  0  0  0  0  0  0  0  0  0
   -0.2392   -2.8171   -1.0210 C   0  0  0  0  0  0  0  0  0  0  0  0
   -0.2392   -2.8171    0.3022 C   0  0  0  0  0  0  0  0  0  0  0  0
   -0.2392   -1.5913    1.1602 C   0  0  0  0  0  3  0  0  0  0  0  0
    0.9705   -1.4369    2.0414 C   0  0  0  0  0  0  0  0  0  0  0  0
    2.0816   -2.1526    1.9690 C   0  0  0  0  0  0  0  0  0  0  0  0
   -0.2474   -3.7399   -1.5876 H   0  0  0  0  0  0  0  0  0  0  0  0
   -0.2329   -1.8917   -1.5870 H   0  0  0  0  0  0  0  0  0  0  0  0
   -0.2367   -3.7659    0.8327 H   0  0  0  0  0  0  0  0  0  0  0  0
   -0.3593   -0.5193    0.4097 H   0  0  0  0  0  0  0  0  0  0  0  0
   -1.1272   -1.6048    1.8030 H   0  0  0  0  0  0  0  0  0  0  0  0
    0.8978   -0.6519    2.7891 H   0  0  0  0  0  0  0  0  0  0  0  0
    2.2071   -2.9395    1.2341 H   0  0  0  0  0  0  0  0  0  0  0  0
    2.9098   -1.9683    2.6413 H   0  0  0  0  0  0  0  0  0  0  0  0
  1  2  1  0
  1  6  1  0
  1  7  1  0
  1  8  1  0
  2  3  1  0
  2  5  1  0
  2 19  1  0
  3  4  2  0
  3  9  1  0
  5 10  1  0
 11 12  2  3
 11 16  1  0
 11 17  1  0
 12 13  1  0
 12 18  1  0
 13 14  1  0
 13 20  1  0
 14 15  2  3
 14 21  1  0
 15 22  1  0
 15 23  1  0
M  RAD  1  13   2
M  END
>  <reaction>  (18) 
rxn_1159

>  <mol_properties>  (18) 
{"1": {"label": "*1", "atom_type": "Cs"}, "2": {"label": "*0", "atom_type": "CS"}, "11": {"label": "*4", "atom_type": "Cd"}, "12": {"label": "*3", "atom_type": "Cs"}, "18": {"label": "*2", "atom_type": "H0"}}

>  <type>  (18) 
unop_14

>  <geom_source>  (18) 
gaussian_log

$$$$
