
     RDKit          3D

  7  6  0  0  0  0  0  0  0  0999 V2000
   -0.6782    0.0507    0.0301 C   0  0  0  0  0  0  0  0  0  0  0  0
    0.8092    0.0996    0.0213 C   0  0  0  0  0  0  0  0  0  0  0  0
    1.7473    0.7521    1.1507 S   0  0  0  0  0  0  0  0  0  0  0  0
   -1.0667    0.5456   -0.8653 H   0  0  0  0  0  0  0  0  0  0  0  0
   -1.0112   -0.9904   -0.0239 H   0  0  0  0  0  0  0  0  0  0  0  0
   -1.0920    0.5225    0.9188 H   0  0  0  0  0  0  0  0  0  0  0  0
    1.2740   -0.3620   -0.8520 H   0  0  0  0  0  0  0  0  0  0  0  0
  1  2  1  0
  1  4  1  0
  1  5  1  0
  1  6  1  0
  2  3  2  0
  2  7  1  0
M  END
>  <reaction>  (1) 
rxn_1951

>  <mol_properties>  (1) 
{"0": {"label": "donator", "atom_type": "Cs"}, "3": {"label": "d_hydrogen", "atom_type": "H0"}}

>  <type>  (1) 
r1h

$$$$

     RDKit          3D

  4  3  0  0  0  0  0  0  0  0999 V2000
    0.0000    0.0000    0.0000 C   0  0  0  0  0  3  0  0  0  0  0  0
    1.0638   -0.1747    0.0540 H   0  0  0  0  0  0  0  0  0  0  0  0
   -0.6833   -0.8351   -0.0280 H   0  0  0  0  0  0  0  0  0  0  0  0
   -0.3805    1.0098   -0.0260 H   0  0  0  0  0  0  0  0  0  0  0  0
  1  2  1  0
  1  3  1  0
  1  4  1  0
M  RAD  1   1   2
M  END
>  <reaction>  (2) 
rxn_1951

>  <mol_properties>  (2) 
{"0": {"label": "acceptor", "atom_type": "Cs"}}

>  <type>  (2) 
r2

$$$$

     RDKit          3D

  5  4  0  0  0  0  0  0  0  0999 V2000
    0.0000    0.0000    0.0000 C   0  0  0  0  0  0  0  0  0  0  0  0
   -0.6486   -0.7720   -0.4113 H   0  0  0  0  0  0  0  0  0  0  0  0
   -0.3482    0.9787   -0.3267 H   0  0  0  0  0  0  0  0  0  0  0  0
   -0.0223   -0.0487    1.0876 H   0  0  0  0  0  0  0  0  0  0  0  0
    1.0191   -0.1580   -0.3496 H   0  0  0  0  0  0  0  0  0  0  0  0
  1  2  1  0
  1  3  1  0
  1  4  1  0
  1  5  1  0
M  END
>  <reaction>  (3) 
rxn_1951

>  <mol_properties>  (3) 
{"0": {"label": "acceptor", "atom_type": "Cs"}, "4": {"label": "a_hydrogen", "atom_type": "H0"}}

>  <type>  (3) 
r2h

$$$$

     RDKit          3D

 11  9  0  0  0  0  0  0  0  0999 V2000
   -1.6892    0.7193    2.4450 C   0  0  0  0  0  3  0  0  0  0  0  0
   -1.6631   -0.2172    2.9902 H   0  0  0  0  0  0  0  0  0  0  0  0
   -2.4279    0.7879    1.6551 H   0  0  0  0  0  0  0  0  0  0  0  0
   -1.5373    1.6156    3.0344 H   0  0  0  0  0  0  0  0  0  0  0  0
    0.5727    0.6621    0.9213 C   0  0  0  0  0  0  0  0  0  0  0  0
    0.4188   -0.3960   -0.0623 C   0  0  0  0  0  0  0  0  0  0  0  0
   -0.2264   -0.2266   -1.5401 S   0  0  0  0  0  0  0  0  0  0  0  0
   -0.4425    0.6312    1.6285 H   0  0  0  0  0  0  0  0  0  0  0  0
    1.3781    0.5054    1.6376 H   0  0  0  0  0  0  0  0  0  0  0  0
    0.5539    1.6670    0.5067 H   0  0  0  0  0  0  0  0  0  0  0  0
    0.7254   -1.3897    0.2674 H   0  0  0  0  0  0  0  0  0  0  0  0
  1  2  1  0
  1  3  1  0
  1  4  1  0
  5  6  1  0
  5  8  1  0
  5  9  1  0
  5 10  1  0
  6  7  2  0
  6 11  1  0
M  RAD  1   1   2
M  END
>  <reaction>  (4) 
rxn_1951

>  <mol_properties>  (4) 
{"0": {"label": "*3", "atom_type": "Cs"}, "1": {"label": "*4", "atom_type": "H0"}, "4": {"label": "*1", "atom_type": "Cs"}, "5": {"label": "*0", "atom_type": "CS"}, "7": {"label": "*2", "atom_type": "H0"}}

>  <type>  (4) 
ts

$$$$

     RDKit          3D

 11  9  0  0  0  0  0  0  0  0999 V2000
   -1.6667    0.6592    2.4390 C   0  0  0  0  0  0  0  0  0  0  0  0
   -1.3424    0.6457    3.4784 H   0  0  0  0  0  0  0  0  0  0  0  0
   -2.6841    0.2769    2.3712 H   0  0  0  0  0  0  0  0  0  0  0  0
   -1.5990    1.7275    2.2392 H   0  0  0  0  0  0  0  0  0  0  0  0
    0.4308    0.7236    0.8703 C   0  0  0  0  0  0  0  0  0  0  0  0
    0.4308   -0.4749   -0.0119 C   0  0  0  0  0  0  0  0  0  0  0  0
    0.4308   -0.4749   -1.6185 S   0  0  0  0  0  1  0  0  0  0  0  0
   -0.6206    0.6913    1.6566 H   0  0  0  0  0  0  0  0  0  0  0  0
    1.3069    0.6967    1.5255 H   0  0  0  0  0  0  0  0  0  0  0  0
    0.4307    1.6474    0.2956 H   0  0  0  0  0  0  0  0  0  0  0  0
    0.4308   -1.4293    0.5181 H   0  0  0  0  0  0  0  0  0  0  0  0
  1  2  1  0
  1  3  1  0
  1  4  1  0
  1  8  1  0
  5  6  2  3
  5  9  1  0
  5 10  1  0
  6  7  1  0
  6 11  1  0
M  RAD  1   7   2
M  END
>  <reaction>  (5) 
rxn_1951

>  <mol_properties>  (5) 
{"0": {"label": "*3", "atom_type": "Cs"}, "1": {"label": "*4", "atom_type": "H0"}, "4": {"label": "*1", "atom_type": "Cs"}, "5": {"label": "*0", "atom_type": "CS"}, "7": {"label": "*2", "atom_type": "H0"}}

>  <type>  (5) 
unop_1

>  <geom_source>  (5) 
Heuristics

$$$$

     RDKit          3D

 11  9  0  0  0  0  0  0  0  0999 V2000
   -1.6685    0.6644    2.4434 C   0  0  0  0  0  0  0  0  0  0  0  0
   -1.9417   -0.3709    2.6419 H   0  0  0  0  0  0  0  0  0  0  0  0
   -2.5694    1.2498    2.2660 H   0  0  0  0  0  0  0  0  0  0  0  0
   -0.9852    1.3994    2.8659 H   0  0  0  0  0  0  0  0  0  0  0  0
    0.4289    0.7288    0.8747 C   0  0  0  0  0  0  0  0  0  0  0  0
    0.4289   -0.4697   -0.0075 C   0  0  0  0  0  0  0  0  0  0  0  0
    0.4289   -0.4697   -1.6141 S   0  0  0  0  0  1  0  0  0  0  0  0
   -0.6224    0.6965    1.6610 H   0  0  0  0  0  0  0  0  0  0  0  0
    1.3051    0.7019    1.5299 H   0  0  0  0  0  0  0  0  0  0  0  0
    0.4289    1.6526    0.3001 H   0  0  0  0  0  0  0  0  0  0  0  0
    0.4290   -1.4241    0.5225 H   0  0  0  0  0  0  0  0  0  0  0  0
  1  2  1  0
  1  3  1  0
  1  4  1  0
  1  8  1  0
  5  6  2  3
  5  9  1  0
  5 10  1  0
  6  7  1  0
  6 11  1  0
M  RAD  1   7   2
M  END
>  <reaction>  (6) 
rxn_1951

>  <mol_properties>  (6) 
{"0": {"label": "*3", "atom_type": "Cs"}, "1": {"label": "*4", "atom_type": "H0"}, "4": {"label": "*1", "atom_type": "Cs"}, "5": {"label": "*0", "atom_type": "CS"}, "7": {"label": "*2", "atom_type": "H0"}}

>  <type>  (6) 
unop_2

>  <geom_source>  (6) 
Heuristics

$$$$

     RDKit          3D

 11  9  0  0  0  0  0  0  0  0999 V2000
   -1.6633    0.6598    2.4397 C   0  0  0  0  0  0  0  0  0  0  0  0
   -1.4301    1.1601    3.3783 H   0  0  0  0  0  0  0  0  0  0  0  0
   -2.3744   -0.1441    2.6237 H   0  0  0  0  0  0  0  0  0  0  0  0
   -2.0629    1.5901    2.0388 H   0  0  0  0  0  0  0  0  0  0  0  0
    0.4341    0.7242    0.8710 C   0  0  0  0  0  0  0  0  0  0  0  0
    0.4341   -0.4743   -0.0112 C   0  0  0  0  0  0  0  0  0  0  0  0
    0.4341   -0.4743   -1.6179 S   0  0  0  0  0  1  0  0  0  0  0  0
   -0.6172    0.6919    1.6573 H   0  0  0  0  0  0  0  0  0  0  0  0
    1.3103    0.6973    1.5262 H   0  0  0  0  0  0  0  0  0  0  0  0
    0.4341    1.6480    0.2963 H   0  0  0  0  0  0  0  0  0  0  0  0
    0.4341   -1.4287    0.5187 H   0  0  0  0  0  0  0  0  0  0  0  0
  1  2  1  0
  1  3  1  0
  1  4  1  0
  1  8  1  0
  5  6  2  3
  5  9  1  0
  5 10  1  0
  6  7  1  0
  6 11  1  0
M  RAD  1   7   2
M  END
>  <reaction>  (7) 
rxn_1951

>  <mol_properties>  (7) 
{"0": {"label": "*3", "atom_type": "Cs"}, "1": {"label": "*4", "atom_type": "H0"}, "4": {"label": "*1", "atom_type": "Cs"}, "5": {"label": "*0", "atom_type": "CS"}, "7": {"label": "*2", "atom_type": "H0"}}

>  <type>  (7) 
unop_3

>  <geom_source>  (7) 
Heuristics

$$$$

     RDKit          3D

 11  9  0  0  0  0  0  0  0  0999 V2000
   -1.6690    0.6614    2.4421 C   0  0  0  0  0  0  0  0  0  0  0  0
   -2.5745    0.6571    1.8374 H   0  0  0  0  0  0  0  0  0  0  0  0
   -1.3670    1.6894    2.6362 H   0  0  0  0  0  0  0  0  0  0  0  0
   -1.5233    0.1462    3.3903 H   0  0  0  0  0  0  0  0  0  0  0  0
    0.4285    0.7258    0.8735 C   0  0  0  0  0  0  0  0  0  0  0  0
    0.4285   -0.4727   -0.0087 C   0  0  0  0  0  0  0  0  0  0  0  0
    0.4285   -0.4727   -1.6154 S   0  0  0  0  0  1  0  0  0  0  0  0
   -0.6229    0.6935    1.6598 H   0  0  0  0  0  0  0  0  0  0  0  0
    1.3047    0.6989    1.5287 H   0  0  0  0  0  0  0  0  0  0  0  0
    0.4285    1.6496    0.2988 H   0  0  0  0  0  0  0  0  0  0  0  0
    0.4285   -1.4271    0.5212 H   0  0  0  0  0  0  0  0  0  0  0  0
  1  2  1  0
  1  3  1  0
  1  4  1  0
  1  8  1  0
  5  6  2  3
  5  9  1  0
  5 10  1  0
  6  7  1  0
  6 11  1  0
M  RAD  1   7   2
M  END
>  <reaction>  (8) 
rxn_1951

>  <mol_properties>  (8) 
{"0": {"label": "*3", "atom_type": "Cs"}, "1": {"label": "*4", "atom_type": "H0"}, "4": {"label": "*1", "atom_type": "Cs"}, "5": {"label": "*0", "atom_type": "CS"}, "7": {"label": "*2", "atom_type": "H0"}}

>  <type>  (8) 
unop_4

>  <geom_source>  (8) 
Heuristics

$$$$

     RDKit          3D

 11  9  0  0  0  0  0  0  0  0999 V2000
   -1.6626    0.6638    2.4373 C   0  0  0  0  0  0  0  0  0  0  0  0
   -1.6608    1.5414    3.0819 H   0  0  0  0  0  0  0  0  0  0  0  0
   -1.6306   -0.2363    3.0494 H   0  0  0  0  0  0  0  0  0  0  0  0
   -2.6285    1.0156    2.0780 H   0  0  0  0  0  0  0  0  0  0  0  0
    0.4349    0.7282    0.8686 C   0  0  0  0  0  0  0  0  0  0  0  0
    0.4349   -0.4703   -0.0136 C   0  0  0  0  0  0  0  0  0  0  0  0
    0.4349   -0.4703   -1.6202 S   0  0  0  0  0  1  0  0  0  0  0  0
   -0.6165    0.6959    1.6549 H   0  0  0  0  0  0  0  0  0  0  0  0
    1.3110    0.7013    1.5238 H   0  0  0  0  0  0  0  0  0  0  0  0
    0.4349    1.6520    0.2940 H   0  0  0  0  0  0  0  0  0  0  0  0
    0.4349   -1.4247    0.5164 H   0  0  0  0  0  0  0  0  0  0  0  0
  1  2  1  0
  1  3  1  0
  1  4  1  0
  1  8  1  0
  5  6  2  3
  5  9  1  0
  5 10  1  0
  6  7  1  0
  6 11  1  0
M  RAD  1   7   2
M  END
>  <reaction>  (9) 
rxn_1951

>  <mol_properties>  (9) 
{"0": {"label": "*3", "atom_type": "Cs"}, "1": {"label": "*4", "atom_type": "H0"}, "4": {"label": "*1", "atom_type": "Cs"}, "5": {"label": "*0", "atom_type": "CS"}, "7": {"label": "*2", "atom_type": "H0"}}

>  <type>  (9) 
unop_5

>  <geom_source>  (9) 
Heuristics

$$$$

     RDKit          3D

 11  9  0  0  0  0  0  0  0  0999 V2000
   -1.6684    0.6608    2.4394 C   0  0  0  0  0  0  0  0  0  0  0  0
   -2.5003    1.1690    1.9541 H   0  0  0  0  0  0  0  0  0  0  0  0
   -1.0087    1.3978    2.8949 H   0  0  0  0  0  0  0  0  0  0  0  0
   -1.9950   -0.0336    3.2119 H   0  0  0  0  0  0  0  0  0  0  0  0
    0.4291    0.7252    0.8707 C   0  0  0  0  0  0  0  0  0  0  0  0
    0.4291   -0.4733   -0.0115 C   0  0  0  0  0  0  0  0  0  0  0  0
    0.4291   -0.4733   -1.6182 S   0  0  0  0  0  1  0  0  0  0  0  0
   -0.6223    0.6929    1.6570 H   0  0  0  0  0  0  0  0  0  0  0  0
    1.3052    0.6983    1.5259 H   0  0  0  0  0  0  0  0  0  0  0  0
    0.4290    1.6490    0.2960 H   0  0  0  0  0  0  0  0  0  0  0  0
    0.4291   -1.4277    0.5184 H   0  0  0  0  0  0  0  0  0  0  0  0
  1  2  1  0
  1  3  1  0
  1  4  1  0
  1  8  1  0
  5  6  2  3
  5  9  1  0
  5 10  1  0
  6  7  1  0
  6 11  1  0
M  RAD  1   7   2
M  END
>  <reaction>  (10) 
rxn_1951

>  <mol_properties>  (10) 
{"0": {"label": "*3", "atom_type": "Cs"}, "1": {"label": "*4", "atom_type": "H0"}, "4": {"label": "*1", "atom_type": "Cs"}, "5": {"label": "*0", "atom_type": "CS"}, "7": {"label": "*2", "atom_type": "H0"}}

>  <type>  (10) 
unop_6

>  <geom_source>  (10) 
Heuristics

$$$$

     RDKit          3D

 11  9  0  0  0  0  0  0  0  0999 V2000
   -1.6681    0.6615    2.4365 C   0  0  0  0  0  0  0  0  0  0  0  0
   -2.2813    1.5437    2.2590 H   0  0  0  0  0  0  0  0  0  0  0  0
   -0.8408    0.9210    3.0953 H   0  0  0  0  0  0  0  0  0  0  0  0
   -2.4059    0.0177    2.9127 H   0  0  0  0  0  0  0  0  0  0  0  0
    0.4294    0.7259    0.8678 C   0  0  0  0  0  0  0  0  0  0  0  0
    0.4294   -0.4726   -0.0144 C   0  0  0  0  0  0  0  0  0  0  0  0
    0.4294   -0.4726   -1.6210 S   0  0  0  0  0  1  0  0  0  0  0  0
   -0.6220    0.6936    1.6541 H   0  0  0  0  0  0  0  0  0  0  0  0
    1.3055    0.6990    1.5230 H   0  0  0  0  0  0  0  0  0  0  0  0
    0.4294    1.6497    0.2931 H   0  0  0  0  0  0  0  0  0  0  0  0
    0.4294   -1.4270    0.5156 H   0  0  0  0  0  0  0  0  0  0  0  0
  1  2  1  0
  1  3  1  0
  1  4  1  0
  1  8  1  0
  5  6  2  3
  5  9  1  0
  5 10  1  0
  6  7  1  0
  6 11  1  0
M  RAD  1   7   2
M  END
>  <reaction>  (11) 
rxn_1951

>  <mol_properties>  (11) 
{"0": {"label": "*3", "atom_type": "Cs"}, "1": {"label": "*4", "atom_type": "H0"}, "4": {"label": "*1", "atom_type": "Cs"}, "5": {"label": "*0", "atom_type": "CS"}, "7": {"label": "*2", "atom_type": "H0"}}

>  <type>  (11) 
unop_7

>  <geom_source>  (11) 
Heuristics

$$$$

     RDKit          3D

 11  9  0  0  0  0  0  0  0  0999 V2000
   -1.6686    0.6614    2.4388 C   0  0  0  0  0  0  0  0  0  0  0  0
   -1.4179    0.1354    3.3587 H   0  0  0  0  0  0  0  0  0  0  0  0
   -2.7489    0.6588    2.3021 H   0  0  0  0  0  0  0  0  0  0  0  0
   -1.3238    1.6943    2.4397 H   0  0  0  0  0  0  0  0  0  0  0  0
    0.4289    0.7258    0.8702 C   0  0  0  0  0  0  0  0  0  0  0  0
    0.4289   -0.4726   -0.0120 C   0  0  0  0  0  0  0  0  0  0  0  0
    0.4289   -0.4726   -1.6187 S   0  0  0  0  0  1  0  0  0  0  0  0
   -0.6225    0.6936    1.6564 H   0  0  0  0  0  0  0  0  0  0  0  0
    1.3050    0.6989    1.5254 H   0  0  0  0  0  0  0  0  0  0  0  0
    0.4289    1.6496    0.2955 H   0  0  0  0  0  0  0  0  0  0  0  0
    0.4289   -1.4271    0.5179 H   0  0  0  0  0  0  0  0  0  0  0  0
  1  2  1  0
  1  3  1  0
  1  4  1  0
  1  8  1  0
  5  6  2  3
  5  9  1  0
  5 10  1  0
  6  7  1  0
  6 11  1  0
M  RAD  1   7   2
M  END
>  <reaction>  (12) 
rxn_1951

>  <mol_properties>  (12) 
{"0": {"label": "*3", "atom_type": "Cs"}, "1": {"label": "*4", "atom_type": "H0"}, "4": {"label": "*1", "atom_type": "Cs"}, "5": {"label": "*0", "atom_type": "CS"}, "7": {"label": "*2", "atom_type": "H0"}}

>  <type>  (12) 
unop_8

>  <geom_source>  (12) 
Heuristics

$$$$

     RDKit          3D

 11  9  0  0  0  0  0  0  0  0999 V2000
   -1.6694    0.6622    2.4443 C   0  0  0  0  0  0  0  0  0  0  0  0
   -2.4839    0.1441    1.9403 H   0  0  0  0  0  0  0  0  0  0  0  0
   -1.8365    1.7371    2.3936 H   0  0  0  0  0  0  0  0  0  0  0  0
   -1.1129    0.5505    3.3736 H   0  0  0  0  0  0  0  0  0  0  0  0
    0.4281    0.7266    0.8757 C   0  0  0  0  0  0  0  0  0  0  0  0
    0.4281   -0.4718   -0.0065 C   0  0  0  0  0  0  0  0  0  0  0  0
    0.4281   -0.4718   -1.6132 S   0  0  0  0  0  1  0  0  0  0  0  0
   -0.6233    0.6943    1.6619 H   0  0  0  0  0  0  0  0  0  0  0  0
    1.3042    0.6997    1.5309 H   0  0  0  0  0  0  0  0  0  0  0  0
    0.4280    1.6504    0.3010 H   0  0  0  0  0  0  0  0  0  0  0  0
    0.4281   -1.4263    0.5234 H   0  0  0  0  0  0  0  0  0  0  0  0
  1  2  1  0
  1  3  1  0
  1  4  1  0
  1  8  1  0
  5  6  2  3
  5  9  1  0
  5 10  1  0
  6  7  1  0
  6 11  1  0
M  RAD  1   7   2
M  END
>  <reaction>  (13) 
rxn_1951

>  <mol_properties>  (13) 
{"0": {"label": "*3", "atom_type": "Cs"}, "1": {"label": "*4", "atom_type": "H0"}, "4": {"label": "*1", "atom_type": "Cs"}, "5": {"label": "*0", "atom_type": "CS"}, "7": {"label": "*2", "atom_type": "H0"}}

>  <type>  (13) 
unop_9

>  <geom_source>  (13) 
Heuristics

$$$$

     RDKit          3D

 11  9  0  0  0  0  0  0  0  0999 V2000
   -1.6688    0.6638    2.4406 C   0  0  0  0  0  0  0  0  0  0  0  0
   -1.6368   -0.2363    3.0527 H   0  0  0  0  0  0  0  0  0  0  0  0
   -2.7047    0.9636    2.2899 H   0  0  0  0  0  0  0  0  0  0  0  0
   -1.1361    1.5941    2.6319 H   0  0  0  0  0  0  0  0  0  0  0  0
    0.4287    0.7282    0.8719 C   0  0  0  0  0  0  0  0  0  0  0  0
    0.4287   -0.4703   -0.0103 C   0  0  0  0  0  0  0  0  0  0  0  0
    0.4287   -0.4703   -1.6169 S   0  0  0  0  0  1  0  0  0  0  0  0
   -0.6227    0.6959    1.6582 H   0  0  0  0  0  0  0  0  0  0  0  0
    1.3048    0.7013    1.5271 H   0  0  0  0  0  0  0  0  0  0  0  0
    0.4287    1.6520    0.2972 H   0  0  0  0  0  0  0  0  0  0  0  0
    0.4287   -1.4247    0.5197 H   0  0  0  0  0  0  0  0  0  0  0  0
  1  2  1  0
  1  3  1  0
  1  4  1  0
  1  8  1  0
  5  6  2  3
  5  9  1  0
  5 10  1  0
  6  7  1  0
  6 11  1  0
M  RAD  1   7   2
M  END
>  <reaction>  (14) 
rxn_1951

>  <mol_properties>  (14) 
{"0": {"label": "*3", "atom_type": "Cs"}, "1": {"label": "*4", "atom_type": "H0"}, "4": {"label": "*1", "atom_type": "Cs"}, "5": {"label": "*0", "atom_type": "CS"}, "7": {"label": "*2", "atom_type": "H0"}}

>  <type>  (14) 
unop_10

>  <geom_source>  (14) 
Heuristics

$$$$

     RDKit          3D

 11  9  0  0  0  0  0  0  0  0999 V2000
   -1.6664    0.6638    2.4349 C   0  0  0  0  0  0  0  0  0  0  0  0
   -1.9744    1.6812    2.6711 H   0  0  0  0  0  0  0  0  0  0  0  0
   -0.9770    0.3069    3.1985 H   0  0  0  0  0  0  0  0  0  0  0  0
   -2.7002    0.3298    2.5082 H   0  0  0  0  0  0  0  0  0  0  0  0
    0.4311    0.7282    0.8663 C   0  0  0  0  0  0  0  0  0  0  0  0
    0.4311   -0.4703   -0.0159 C   0  0  0  0  0  0  0  0  0  0  0  0
    0.4311   -0.4703   -1.6226 S   0  0  0  0  0  1  0  0  0  0  0  0
   -0.6202    0.6959    1.6526 H   0  0  0  0  0  0  0  0  0  0  0  0
    1.3073    0.7013    1.5215 H   0  0  0  0  0  0  0  0  0  0  0  0
    0.4311    1.6520    0.2916 H   0  0  0  0  0  0  0  0  0  0  0  0
    0.4311   -1.4247    0.5140 H   0  0  0  0  0  0  0  0  0  0  0  0
  1  2  1  0
  1  3  1  0
  1  4  1  0
  1  8  1  0
  5  6  2  3
  5  9  1  0
  5 10  1  0
  6  7  1  0
  6 11  1  0
M  RAD  1   7   2
M  END
>  <reaction>  (15) 
rxn_1951

>  <mol_properties>  (15) 
{"0": {"label": "*3", "atom_type": "Cs"}, "1": {"label": "*4", "atom_type": "H0"}, "4": {"label": "*1", "atom_type": "Cs"}, "5": {"label": "*0", "atom_type": "CS"}, "7": {"label": "*2", "atom_type": "H0"}}

>  <type>  (15) 
unop_11

>  <geom_source>  (15) 
Heuristics

$$$$

     RDKit          3D

 11  9  0  0  0  0  0  0  0  0999 V2000
   -1.6690    0.6634    2.4450 C   0  0  0  0  0  0  0  0  0  0  0  0
   -2.2519   -0.2321    2.2351 H   0  0  0  0  0  0  0  0  0  0  0  0
   -2.2822    1.5456    2.2676 H   0  0  0  0  0  0  0  0  0  0  0  0
   -0.9308    1.0371    3.1530 H   0  0  0  0  0  0  0  0  0  0  0  0
    0.4285    0.7278    0.8764 C   0  0  0  0  0  0  0  0  0  0  0  0
    0.4285   -0.4707   -0.0058 C   0  0  0  0  0  0  0  0  0  0  0  0
    0.4285   -0.4707   -1.6125 S   0  0  0  0  0  1  0  0  0  0  0  0
   -0.6229    0.6955    1.6627 H   0  0  0  0  0  0  0  0  0  0  0  0
    1.3047    0.7009    1.5316 H   0  0  0  0  0  0  0  0  0  0  0  0
    0.4285    1.6516    0.3017 H   0  0  0  0  0  0  0  0  0  0  0  0
    0.4285   -1.4251    0.5241 H   0  0  0  0  0  0  0  0  0  0  0  0
  1  2  1  0
  1  3  1  0
  1  4  1  0
  1  8  1  0
  5  6  2  3
  5  9  1  0
  5 10  1  0
  6  7  1  0
  6 11  1  0
M  RAD  1   7   2
M  END
>  <reaction>  (16) 
rxn_1951

>  <mol_properties>  (16) 
{"0": {"label": "*3", "atom_type": "Cs"}, "1": {"label": "*4", "atom_type": "H0"}, "4": {"label": "*1", "atom_type": "Cs"}, "5": {"label": "*0", "atom_type": "CS"}, "7": {"label": "*2", "atom_type": "H0"}}

>  <type>  (16) 
unop_12

>  <geom_source>  (16) 
Heuristics

$$$$

     RDKit          3D

 11  9  0  0  0  0  0  0  0  0999 V2000
    2.5564    0.8438   -0.9933 S   0  0  0  0  0  1  0  0  0  0  0  0
   -1.7292    0.1661   -0.1941 C   0  0  0  0  0  0  0  0  0  0  0  0
    0.7501   -0.6285    0.0121 C   0  0  0  0  0  0  0  0  0  0  0  0
    1.8041    0.4199    0.1519 C   0  0  0  0  0  0  0  0  0  0  0  0
   -2.1378    0.6081   -1.1261 H   0  0  0  0  0  0  0  0  0  0  0  0
   -1.8574    0.8833    0.6425 H   0  0  0  0  0  0  0  0  0  0  0  0
   -2.2713   -0.7736    0.0381 H   0  0  0  0  0  0  0  0  0  0  0  0
   -0.4837   -0.0874   -0.3521 H   0  0  0  0  0  0  0  0  0  0  0  0
    1.9598    0.9104    1.1073 H   0  0  0  0  0  0  0  0  0  0  0  0
    1.2115   -1.6033   -0.2548 H   0  0  0  0  0  0  0  0  0  0  0  0
    0.1975   -0.7389    0.9685 H   0  0  0  0  0  0  0  0  0  0  0  0
  1  4  1  0
  2  5  1  0
  2  6  1  0
  2  7  1  0
  2  8  1  0
  3  4  2  3
  3 10  1  0
  3 11  1  0
  4  9  1  0
M  RAD  1   1   2
M  END
>  <reaction>  (17) 
rxn_1951

>  <mol_properties>  (17) 
{"0": {"label": "*3", "atom_type": "Cs"}, "1": {"label": "*4", "atom_type": "H0"}, "4": {"label": "*1", "atom_type": "Cs"}, "5": {"label": "*0", "atom_type": "CS"}, "7": {"label": "*2", "atom_type": "H0"}}

>  <type>  (17) 
unop_13

>  <geom_source>  (17) 
AutoTST

$$$$
