
     RDKit          3D

  5  4  0  0  0  0  0  0  0  0999 V2000
    0.0000    0.0000    0.0000 C   0  0  0  0  0  0  0  0  0  0  0  0
   -0.6486   -0.7720   -0.4113 H   0  0  0  0  0  0  0  0  0  0  0  0
   -0.3482    0.9787   -0.3267 H   0  0  0  0  0  0  0  0  0  0  0  0
   -0.0223   -0.0487    1.0876 H   0  0  0  0  0  0  0  0  0  0  0  0
    1.0191   -0.1580   -0.3496 H   0  0  0  0  0  0  0  0  0  0  0  0
  1  2  1  0
  1  3  1  0
  1  4  1  0
  1  5  1  0
M  END
>  <reaction>  (1) 
rxn_839

>  <mol_properties>  (1) 
{"0": {"label": "donator", "atom_type": "Cs"}, "1": {"label": "d_hydrogen", "atom_type": "H0"}}

>  <type>  (1) 
r1h

$$$$

     RDKit          3D

 14 14  0  0  0  0  0  0  0  0999 V2000
    2.3111    0.1295    0.0255 C   0  0  0  0  0  0  0  0  0  0  0  0
    0.9132    0.0511    0.0101 C   0  0  0  0  0  0  0  0  0  0  0  0
    0.2446   -1.1981    0.0389 C   0  0  0  0  0  3  0  0  0  0  0  0
   -1.1306   -1.2689    0.0235 C   0  0  0  0  0  0  0  0  0  0  0  0
   -1.8967   -0.1062   -0.0209 C   0  0  0  0  0  0  0  0  0  0  0  0
   -1.2644    1.1347   -0.0499 C   0  0  0  0  0  0  0  0  0  0  0  0
    0.1101    1.2180   -0.0350 C   0  0  0  0  0  0  0  0  0  0  0  0
    2.9188   -0.7647    0.0599 H   0  0  0  0  0  0  0  0  0  0  0  0
    2.8158    1.0859    0.0034 H   0  0  0  0  0  0  0  0  0  0  0  0
    0.8353   -2.1058    0.0735 H   0  0  0  0  0  0  0  0  0  0  0  0
   -1.6191   -2.2351    0.0461 H   0  0  0  0  0  0  0  0  0  0  0  0
   -2.9772   -0.1668   -0.0328 H   0  0  0  0  0  0  0  0  0  0  0  0
   -1.8572    2.0404   -0.0845 H   0  0  0  0  0  0  0  0  0  0  0  0
    0.5964    2.1860   -0.0577 H   0  0  0  0  0  0  0  0  0  0  0  0
  1  2  2  3
  1  8  1  0
  1  9  1  0
  2  3  1  0
  2  7  1  0
  3  4  1  0
  3 10  1  0
  4  5  2  0
  4 11  1  0
  5  6  1  0
  5 12  1  0
  6  7  2  0
  6 13  1  0
  7 14  1  0
M  RAD  1   3   2
M  END
>  <reaction>  (2) 
rxn_839

>  <mol_properties>  (2) 
{"0": {"label": "acceptor", "atom_type": "Cs"}}

>  <type>  (2) 
r2

$$$$

     RDKit          3D

 15 15  0  0  0  0  0  0  0  0999 V2000
    2.2031   -0.2111   -0.1693 C   0  0  0  0  0  0  0  0  0  0  0  0
    0.7140   -0.0314   -0.0623 C   0  0  0  0  0  0  0  0  0  0  0  0
   -0.0114    0.5491   -1.0982 C   0  0  0  0  0  0  0  0  0  0  0  0
   -1.3882    0.6886   -1.0150 C   0  0  0  0  0  0  0  0  0  0  0  0
   -2.0661    0.2493    0.1118 C   0  0  0  0  0  0  0  0  0  0  0  0
   -1.3551   -0.3278    1.1528 C   0  0  0  0  0  0  0  0  0  0  0  0
    0.0216   -0.4648    1.0642 C   0  0  0  0  0  0  0  0  0  0  0  0
    2.6776   -0.1836    0.8122 H   0  0  0  0  0  0  0  0  0  0  0  0
    2.4446   -1.1749   -0.6249 H   0  0  0  0  0  0  0  0  0  0  0  0
    2.6532    0.5664   -0.7875 H   0  0  0  0  0  0  0  0  0  0  0  0
    0.5104    0.8989   -1.9819 H   0  0  0  0  0  0  0  0  0  0  0  0
   -1.9328    1.1452   -1.8322 H   0  0  0  0  0  0  0  0  0  0  0  0
   -3.1409    0.3597    0.1800 H   0  0  0  0  0  0  0  0  0  0  0  0
   -1.8736   -0.6702    2.0398 H   0  0  0  0  0  0  0  0  0  0  0  0
    0.5695   -0.9141    1.8849 H   0  0  0  0  0  0  0  0  0  0  0  0
  1  2  1  0
  1  8  1  0
  1  9  1  0
  1 10  1  0
  2  3  2  0
  2  7  1  0
  3  4  1  0
  3 11  1  0
  4  5  2  0
  4 12  1  0
  5  6  1  0
  5 13  1  0
  6  7  2  0
  6 14  1  0
  7 15  1  0
M  END
>  <reaction>  (3) 
rxn_839

>  <mol_properties>  (3) 
{"0": {"label": "acceptor", "atom_type": "Cs"}, "14": {"label": "a_hydrogen", "atom_type": "H0"}}

>  <type>  (3) 
r2h

$$$$

     RDKit          3D

 19 18  0  0  0  0  0  0  0  0999 V2000
   -0.5439    0.2268   -1.9563 C   0  0  0  0  0  0  0  0  0  0  0  0
   -0.3498    0.3025   -0.4982 C   0  0  0  0  0  0  0  0  0  0  0  0
    0.7669    0.9409    0.0449 C   0  0  0  0  0  0  0  0  0  0  0  0
    0.9791    0.9661    1.4129 C   0  0  0  0  0  0  0  0  0  0  0  0
    0.0800    0.3491    2.2709 C   0  0  0  0  0  0  0  0  0  0  0  0
   -1.0332   -0.2918    1.7464 C   0  0  0  0  0  0  0  0  0  0  0  0
   -1.2437   -0.3159    0.3781 C   0  0  0  0  0  0  0  0  0  0  0  0
   -0.0643    1.0247   -2.5198 H   0  0  0  0  0  0  0  0  0  0  0  0
   -1.5752    0.0775   -2.2698 H   0  0  0  0  0  0  0  0  0  0  0  0
    1.4736    1.4269   -0.6182 H   0  0  0  0  0  0  0  0  0  0  0  0
    1.8497    1.4715    1.8126 H   0  0  0  0  0  0  0  0  0  0  0  0
    0.2442    0.3700    3.3407 H   0  0  0  0  0  0  0  0  0  0  0  0
   -1.7424   -0.7740    2.4079 H   0  0  0  0  0  0  0  0  0  0  0  0
   -2.1170   -0.8177   -0.0231 H   0  0  0  0  0  0  0  0  0  0  0  0
    0.7231   -2.0084   -2.7906 C   0  0  0  0  0  3  0  0  0  0  0  0
    0.0457   -0.8225   -2.3707 H   0  0  0  0  0  0  0  0  0  0  0  0
    1.7093   -1.8876   -2.3546 H   0  0  0  0  0  0  0  0  0  0  0  0
    0.1303   -2.8018   -2.3475 H   0  0  0  0  0  0  0  0  0  0  0  0
    0.6969   -1.9728   -3.8747 H   0  0  0  0  0  0  0  0  0  0  0  0
  1  2  1  0
  1  8  1  0
  1  9  1  0
  1 16  1  0
  2  3  2  0
  2  7  1  0
  3  4  1  0
  3 10  1  0
  4  5  2  0
  4 11  1  0
  5  6  1  0
  5 12  1  0
  6  7  2  0
  6 13  1  0
  7 14  1  0
 15 17  1  0
 15 18  1  0
 15 19  1  0
M  RAD  1  15   2
M  END
>  <reaction>  (4) 
rxn_839

>  <mol_properties>  (4) 
{"0": {"label": "*1", "atom_type": "Cs"}, "1": {"label": "*0", "atom_type": "Cd"}, "14": {"label": "*3", "atom_type": "Cs"}, "15": {"label": "*2", "atom_type": "H0"}, "16": {"label": "*4", "atom_type": "H0"}}

>  <type>  (4) 
ts

$$$$

     RDKit          3D

 19 18  0  0  0  0  0  0  0  0999 V2000
    1.6928   -0.0546   -1.0543 C   0  0  0  0  0  0  0  0  0  0  0  0
    0.4797    0.2277   -0.2116 C   0  0  0  0  0  0  0  0  0  0  0  0
    0.5965    0.4457    1.1577 C   0  0  0  0  0  3  0  0  0  0  0  0
   -0.5162    0.7359    1.9321 C   0  0  0  0  0  0  0  0  0  0  0  0
   -1.7711    0.8120    1.3475 C   0  0  0  0  0  0  0  0  0  0  0  0
   -1.9021    0.5936   -0.0154 C   0  0  0  0  0  0  0  0  0  0  0  0
   -0.7859    0.3037   -0.7848 C   0  0  0  0  0  0  0  0  0  0  0  0
    2.4643   -0.5681   -0.4795 H   0  0  0  0  0  0  0  0  0  0  0  0
    2.1268    0.8750   -1.4311 H   0  0  0  0  0  0  0  0  0  0  0  0
    1.5733    0.3847    1.6245 H   0  0  0  0  0  0  0  0  0  0  0  0
   -0.4026    0.9001    2.9965 H   0  0  0  0  0  0  0  0  0  0  0  0
   -2.6417    1.0360    1.9507 H   0  0  0  0  0  0  0  0  0  0  0  0
   -2.8781    0.6458   -0.4819 H   0  0  0  0  0  0  0  0  0  0  0  0
   -0.8989    0.1308   -1.8492 H   0  0  0  0  0  0  0  0  0  0  0  0
    1.6928   -2.5204   -1.9260 C   0  0  0  0  0  0  0  0  0  0  0  0
    1.6928   -1.2884   -1.4905 H   0  0  0  0  0  0  0  0  0  0  0  0
    2.5819   -3.0337   -1.5631 H   0  0  0  0  0  0  0  0  0  0  0  0
    0.8037   -3.0337   -1.5631 H   0  0  0  0  0  0  0  0  0  0  0  0
    1.6928   -2.5204   -3.0150 H   0  0  0  0  0  0  0  0  0  0  0  0
  1  2  2  3
  1  8  1  0
  1  9  1  0
  2  3  1  0
  2  7  1  0
  3  4  1  0
  3 10  1  0
  4  5  2  0
  4 11  1  0
  5  6  1  0
  5 12  1  0
  6  7  2  0
  6 13  1  0
  7 14  1  0
 15 16  1  0
 15 17  1  0
 15 18  1  0
 15 19  1  0
M  RAD  1   3   2
M  END
>  <reaction>  (5) 
rxn_839

>  <mol_properties>  (5) 
{"0": {"label": "*1", "atom_type": "Cs"}, "1": {"label": "*0", "atom_type": "Cd"}, "14": {"label": "*3", "atom_type": "Cs"}, "15": {"label": "*2", "atom_type": "H0"}, "16": {"label": "*4", "atom_type": "H0"}}

>  <type>  (5) 
unop_1

>  <geom_source>  (5) 
Heuristics

$$$$

     RDKit          3D

 19 18  0  0  0  0  0  0  0  0999 V2000
    0.9675   -0.9439    1.4679 C   0  0  0  0  0  0  0  0  0  0  0  0
    0.2671   -0.0238    0.5066 C   0  0  0  0  0  0  0  0  0  0  0  0
   -0.6736    0.8974    0.9567 C   0  0  0  0  0  3  0  0  0  0  0  0
   -1.2988    1.7675    0.0769 C   0  0  0  0  0  0  0  0  0  0  0  0
   -0.9934    1.7299   -1.2750 C   0  0  0  0  0  0  0  0  0  0  0  0
   -0.0603    0.8146   -1.7374 C   0  0  0  0  0  0  0  0  0  0  0  0
    0.5617   -0.0531   -0.8531 C   0  0  0  0  0  0  0  0  0  0  0  0
    0.3354   -1.1777    2.3252 H   0  0  0  0  0  0  0  0  0  0  0  0
    1.8817   -0.4818    1.8492 H   0  0  0  0  0  0  0  0  0  0  0  0
   -0.9217    0.9318    2.0117 H   0  0  0  0  0  0  0  0  0  0  0  0
   -2.0295    2.4752    0.4486 H   0  0  0  0  0  0  0  0  0  0  0  0
   -1.4823    2.4067   -1.9641 H   0  0  0  0  0  0  0  0  0  0  0  0
    0.1825    0.7731   -2.7920 H   0  0  0  0  0  0  0  0  0  0  0  0
    1.2874   -0.7679   -1.2246 H   0  0  0  0  0  0  0  0  0  0  0  0
    0.9675   -3.4097    0.5961 C   0  0  0  0  0  0  0  0  0  0  0  0
    0.9675   -2.1777    1.0317 H   0  0  0  0  0  0  0  0  0  0  0  0
    1.8566   -3.9230    0.9591 H   0  0  0  0  0  0  0  0  0  0  0  0
    0.0784   -3.9230    0.9591 H   0  0  0  0  0  0  0  0  0  0  0  0
    0.9675   -3.4097   -0.4928 H   0  0  0  0  0  0  0  0  0  0  0  0
  1  2  2  3
  1  8  1  0
  1  9  1  0
  2  3  1  0
  2  7  1  0
  3  4  1  0
  3 10  1  0
  4  5  2  0
  4 11  1  0
  5  6  1  0
  5 12  1  0
  6  7  2  0
  6 13  1  0
  7 14  1  0
 15 16  1  0
 15 17  1  0
 15 18  1  0
 15 19  1  0
M  RAD  1   3   2
M  END
>  <reaction>  (6) 
rxn_839

>  <mol_properties>  (6) 
{"0": {"label": "*1", "atom_type": "Cs"}, "1": {"label": "*0", "atom_type": "Cd"}, "14": {"label": "*3", "atom_type": "Cs"}, "15": {"label": "*2", "atom_type": "H0"}, "16": {"label": "*4", "atom_type": "H0"}}

>  <type>  (6) 
unop_2

>  <geom_source>  (6) 
Heuristics

$$$$

     RDKit          3D

 19 18  0  0  0  0  0  0  0  0999 V2000
    0.9827    0.1838   -1.7265 C   0  0  0  0  0  0  0  0  0  0  0  0
    0.2823    0.2952   -0.4005 C   0  0  0  0  0  0  0  0  0  0  0  0
    0.9414    0.8037    0.7146 C   0  0  0  0  0  3  0  0  0  0  0  0
    0.2893    0.9357    1.9308 C   0  0  0  0  0  0  0  0  0  0  0  0
   -1.0391    0.5582    2.0536 C   0  0  0  0  0  0  0  0  0  0  0  0
   -1.7067    0.0468    0.9513 C   0  0  0  0  0  0  0  0  0  0  0  0
   -1.0496   -0.0830   -0.2625 C   0  0  0  0  0  0  0  0  0  0  0  0
    2.0528    0.0184   -1.5973 H   0  0  0  0  0  0  0  0  0  0  0  0
    0.8591    1.1013   -2.3075 H   0  0  0  0  0  0  0  0  0  0  0  0
    1.9813    1.0983    0.6292 H   0  0  0  0  0  0  0  0  0  0  0  0
    0.8220    1.3320    2.7864 H   0  0  0  0  0  0  0  0  0  0  0  0
   -1.5495    0.6579    3.0031 H   0  0  0  0  0  0  0  0  0  0  0  0
   -2.7430   -0.2558    1.0369 H   0  0  0  0  0  0  0  0  0  0  0  0
   -1.5790   -0.4874   -1.1180 H   0  0  0  0  0  0  0  0  0  0  0  0
    0.9827   -2.2820   -2.5983 C   0  0  0  0  0  0  0  0  0  0  0  0
    0.9827   -1.0500   -2.1628 H   0  0  0  0  0  0  0  0  0  0  0  0
    1.8718   -2.7953   -2.2353 H   0  0  0  0  0  0  0  0  0  0  0  0
    0.0936   -2.7953   -2.2353 H   0  0  0  0  0  0  0  0  0  0  0  0
    0.9827   -2.2820   -3.6873 H   0  0  0  0  0  0  0  0  0  0  0  0
  1  2  2  3
  1  8  1  0
  1  9  1  0
  2  3  1  0
  2  7  1  0
  3  4  1  0
  3 10  1  0
  4  5  2  0
  4 11  1  0
  5  6  1  0
  5 12  1  0
  6  7  2  0
  6 13  1  0
  7 14  1  0
 15 16  1  0
 15 17  1  0
 15 18  1  0
 15 19  1  0
M  RAD  1   3   2
M  END
>  <reaction>  (7) 
rxn_839

>  <mol_properties>  (7) 
{"0": {"label": "*1", "atom_type": "Cs"}, "1": {"label": "*0", "atom_type": "Cd"}, "14": {"label": "*3", "atom_type": "Cs"}, "15": {"label": "*2", "atom_type": "H0"}, "16": {"label": "*4", "atom_type": "H0"}}

>  <type>  (7) 
unop_3

>  <geom_source>  (7) 
Heuristics

$$$$

     RDKit          3D

 19 18  0  0  0  0  0  0  0  0999 V2000
   -1.7115   -0.6816    0.7749 C   0  0  0  0  0  0  0  0  0  0  0  0
   -0.4985    0.0676    0.2969 C   0  0  0  0  0  0  0  0  0  0  0  0
   -0.2693    1.3819    0.6923 C   0  0  0  0  0  3  0  0  0  0  0  0
    0.8634    2.0652    0.2776 C   0  0  0  0  0  0  0  0  0  0  0  0
    1.7901    1.4431   -0.5449 C   0  0  0  0  0  0  0  0  0  0  0  0
    1.5724    0.1348   -0.9491 C   0  0  0  0  0  0  0  0  0  0  0  0
    0.4378   -0.5436   -0.5313 C   0  0  0  0  0  0  0  0  0  0  0  0
   -2.5495   -0.0070    0.9536 H   0  0  0  0  0  0  0  0  0  0  0  0
   -1.5007   -1.2006    1.7134 H   0  0  0  0  0  0  0  0  0  0  0  0
   -0.9902    1.8780    1.3325 H   0  0  0  0  0  0  0  0  0  0  0  0
    1.0209    3.0884    0.5957 H   0  0  0  0  0  0  0  0  0  0  0  0
    2.6741    1.9756   -0.8720 H   0  0  0  0  0  0  0  0  0  0  0  0
    2.2871   -0.3595   -1.5953 H   0  0  0  0  0  0  0  0  0  0  0  0
    0.2744   -1.5652   -0.8556 H   0  0  0  0  0  0  0  0  0  0  0  0
   -1.7115   -3.1474   -0.0969 C   0  0  0  0  0  0  0  0  0  0  0  0
   -1.7115   -1.9154    0.3387 H   0  0  0  0  0  0  0  0  0  0  0  0
   -0.8224   -3.6607    0.2661 H   0  0  0  0  0  0  0  0  0  0  0  0
   -2.6006   -3.6607    0.2661 H   0  0  0  0  0  0  0  0  0  0  0  0
   -1.7115   -3.1474   -1.1858 H   0  0  0  0  0  0  0  0  0  0  0  0
  1  2  2  3
  1  8  1  0
  1  9  1  0
  2  3  1  0
  2  7  1  0
  3  4  1  0
  3 10  1  0
  4  5  2  0
  4 11  1  0
  5  6  1  0
  5 12  1  0
  6  7  2  0
  6 13  1  0
  7 14  1  0
 15 16  1  0
 15 17  1  0
 15 18  1  0
 15 19  1  0
M  RAD  1   3   2
M  END
>  <reaction>  (8) 
rxn_839

>  <mol_properties>  (8) 
{"0": {"label": "*1", "atom_type": "Cs"}, "1": {"label": "*0", "atom_type": "Cd"}, "14": {"label": "*3", "atom_type": "Cs"}, "15": {"label": "*2", "atom_type": "H0"}, "16": {"label": "*4", "atom_type": "H0"}}

>  <type>  (8) 
unop_4

>  <geom_source>  (8) 
Heuristics

$$$$

     RDKit          3D

 19 18  0  0  0  0  0  0  0  0999 V2000
    0.0185    0.2786   -1.9767 C   0  0  0  0  0  0  0  0  0  0  0  0
    0.0185    0.3275   -0.4737 C   0  0  0  0  0  0  0  0  0  0  0  0
    0.5965    1.3953    0.2060 C   0  0  0  0  0  3  0  0  0  0  0  0
    0.5715    1.4580    1.5907 C   0  0  0  0  0  0  0  0  0  0  0  0
   -0.0336    0.4480    2.3229 C   0  0  0  0  0  0  0  0  0  0  0  0
   -0.6103   -0.6235    1.6584 C   0  0  0  0  0  0  0  0  0  0  0  0
   -0.5823   -0.6809    0.2735 C   0  0  0  0  0  0  0  0  0  0  0  0
    0.8906    0.7864   -2.3901 H   0  0  0  0  0  0  0  0  0  0  0  0
   -0.8706    0.7703   -2.3796 H   0  0  0  0  0  0  0  0  0  0  0  0
    1.0752    2.1881   -0.3579 H   0  0  0  0  0  0  0  0  0  0  0  0
    1.0293    2.2974    2.0994 H   0  0  0  0  0  0  0  0  0  0  0  0
   -0.0520    0.4937    3.4044 H   0  0  0  0  0  0  0  0  0  0  0  0
   -1.0816   -1.4204    2.2203 H   0  0  0  0  0  0  0  0  0  0  0  0
   -1.0328   -1.5247   -0.2372 H   0  0  0  0  0  0  0  0  0  0  0  0
    0.0185   -2.1871   -2.8484 C   0  0  0  0  0  0  0  0  0  0  0  0
    0.0185   -0.9552   -2.4129 H   0  0  0  0  0  0  0  0  0  0  0  0
    0.9076   -2.7005   -2.4855 H   0  0  0  0  0  0  0  0  0  0  0  0
   -0.8706   -2.7005   -2.4855 H   0  0  0  0  0  0  0  0  0  0  0  0
    0.0185   -2.1871   -3.9374 H   0  0  0  0  0  0  0  0  0  0  0  0
  1  2  2  3
  1  8  1  0
  1  9  1  0
  2  3  1  0
  2  7  1  0
  3  4  1  0
  3 10  1  0
  4  5  2  0
  4 11  1  0
  5  6  1  0
  5 12  1  0
  6  7  2  0
  6 13  1  0
  7 14  1  0
 15 16  1  0
 15 17  1  0
 15 18  1  0
 15 19  1  0
M  RAD  1   3   2
M  END
>  <reaction>  (9) 
rxn_839

>  <mol_properties>  (9) 
{"0": {"label": "*1", "atom_type": "Cs"}, "1": {"label": "*0", "atom_type": "Cd"}, "14": {"label": "*3", "atom_type": "Cs"}, "15": {"label": "*2", "atom_type": "H0"}, "16": {"label": "*4", "atom_type": "H0"}}

>  <type>  (9) 
unop_5

>  <geom_source>  (9) 
Heuristics

$$$$

     RDKit          3D

 19 18  0  0  0  0  0  0  0  0999 V2000
   -1.9624   -0.3502   -0.1525 C   0  0  0  0  0  0  0  0  0  0  0  0
   -0.5617    0.1656    0.0298 C   0  0  0  0  0  0  0  0  0  0  0  0
   -0.3239    1.3700    0.6848 C   0  0  0  0  0  3  0  0  0  0  0  0
    0.9679    1.8333    0.8810 C   0  0  0  0  0  0  0  0  0  0  0  0
    2.0493    1.0970    0.4218 C   0  0  0  0  0  0  0  0  0  0  0  0
    1.8263   -0.1033   -0.2355 C   0  0  0  0  0  0  0  0  0  0  0  0
    0.5324   -0.5616   -0.4289 C   0  0  0  0  0  0  0  0  0  0  0  0
   -2.6797    0.4678   -0.2280 H   0  0  0  0  0  0  0  0  0  0  0  0
   -2.2594   -0.9713    0.6964 H   0  0  0  0  0  0  0  0  0  0  0  0
   -1.1634    1.9546    1.0443 H   0  0  0  0  0  0  0  0  0  0  0  0
    1.1300    2.7745    1.3916 H   0  0  0  0  0  0  0  0  0  0  0  0
    3.0588    1.4581    0.5716 H   0  0  0  0  0  0  0  0  0  0  0  0
    2.6632   -0.6844   -0.6027 H   0  0  0  0  0  0  0  0  0  0  0  0
    0.3678   -1.4996   -0.9473 H   0  0  0  0  0  0  0  0  0  0  0  0
   -1.9624   -2.8160   -1.0243 C   0  0  0  0  0  0  0  0  0  0  0  0
   -1.9624   -1.5840   -0.5887 H   0  0  0  0  0  0  0  0  0  0  0  0
   -1.0733   -3.3293   -0.6613 H   0  0  0  0  0  0  0  0  0  0  0  0
   -2.8515   -3.3293   -0.6613 H   0  0  0  0  0  0  0  0  0  0  0  0
   -1.9624   -2.8160   -2.1132 H   0  0  0  0  0  0  0  0  0  0  0  0
  1  2  2  3
  1  8  1  0
  1  9  1  0
  2  3  1  0
  2  7  1  0
  3  4  1  0
  3 10  1  0
  4  5  2  0
  4 11  1  0
  5  6  1  0
  5 12  1  0
  6  7  2  0
  6 13  1  0
  7 14  1  0
 15 16  1  0
 15 17  1  0
 15 18  1  0
 15 19  1  0
M  RAD  1   3   2
M  END
>  <reaction>  (10) 
rxn_839

>  <mol_properties>  (10) 
{"0": {"label": "*1", "atom_type": "Cs"}, "1": {"label": "*0", "atom_type": "Cd"}, "14": {"label": "*3", "atom_type": "Cs"}, "15": {"label": "*2", "atom_type": "H0"}, "16": {"label": "*4", "atom_type": "H0"}}

>  <type>  (10) 
unop_6

>  <geom_source>  (10) 
Heuristics

$$$$

     RDKit          3D

 19 18  0  0  0  0  0  0  0  0999 V2000
   -1.6860   -0.0241   -1.0742 C   0  0  0  0  0  0  0  0  0  0  0  0
   -0.4730    0.2582   -0.2315 C   0  0  0  0  0  0  0  0  0  0  0  0
   -0.3796    1.4279    0.5164 C   0  0  0  0  0  3  0  0  0  0  0  0
    0.7240    1.6770    1.3176 C   0  0  0  0  0  0  0  0  0  0  0  0
    1.7588    0.7566    1.3837 C   0  0  0  0  0  0  0  0  0  0  0  0
    1.6801   -0.4114    0.6409 C   0  0  0  0  0  0  0  0  0  0  0  0
    0.5742   -0.6553   -0.1587 C   0  0  0  0  0  0  0  0  0  0  0  0
   -2.1404    0.8984   -1.4371 H   0  0  0  0  0  0  0  0  0  0  0  0
   -2.4434   -0.5585   -0.4950 H   0  0  0  0  0  0  0  0  0  0  0  0
   -1.1823    2.1553    0.4684 H   0  0  0  0  0  0  0  0  0  0  0  0
    0.7769    2.5949    1.8898 H   0  0  0  0  0  0  0  0  0  0  0  0
    2.6227    0.9503    2.0067 H   0  0  0  0  0  0  0  0  0  0  0  0
    2.4848   -1.1352    0.6811 H   0  0  0  0  0  0  0  0  0  0  0  0
    0.5233   -1.5699   -0.7387 H   0  0  0  0  0  0  0  0  0  0  0  0
   -1.6860   -2.4899   -1.9460 C   0  0  0  0  0  0  0  0  0  0  0  0
   -1.6860   -1.2579   -1.5104 H   0  0  0  0  0  0  0  0  0  0  0  0
   -0.7969   -3.0032   -1.5830 H   0  0  0  0  0  0  0  0  0  0  0  0
   -2.5751   -3.0032   -1.5830 H   0  0  0  0  0  0  0  0  0  0  0  0
   -1.6860   -2.4899   -3.0349 H   0  0  0  0  0  0  0  0  0  0  0  0
  1  2  2  3
  1  8  1  0
  1  9  1  0
  2  3  1  0
  2  7  1  0
  3  4  1  0
  3 10  1  0
  4  5  2  0
  4 11  1  0
  5  6  1  0
  5 12  1  0
  6  7  2  0
  6 13  1  0
  7 14  1  0
 15 16  1  0
 15 17  1  0
 15 18  1  0
 15 19  1  0
M  RAD  1   3   2
M  END
>  <reaction>  (11) 
rxn_839

>  <mol_properties>  (11) 
{"0": {"label": "*1", "atom_type": "Cs"}, "1": {"label": "*0", "atom_type": "Cd"}, "14": {"label": "*3", "atom_type": "Cs"}, "15": {"label": "*2", "atom_type": "H0"}, "16": {"label": "*4", "atom_type": "H0"}}

>  <type>  (11) 
unop_7

>  <geom_source>  (11) 
Heuristics

$$$$

     RDKit          3D

 19 18  0  0  0  0  0  0  0  0999 V2000
    1.9539   -0.3804   -0.1328 C   0  0  0  0  0  0  0  0  0  0  0  0
    0.5532    0.1354    0.0496 C   0  0  0  0  0  0  0  0  0  0  0  0
    0.0486    0.3981    1.3195 C   0  0  0  0  0  3  0  0  0  0  0  0
   -1.2316    0.9021    1.4890 C   0  0  0  0  0  0  0  0  0  0  0  0
   -2.0337    1.1518    0.3860 C   0  0  0  0  0  0  0  0  0  0  0  0
   -1.5447    0.8912   -0.8849 C   0  0  0  0  0  0  0  0  0  0  0  0
   -0.2636    0.3872   -1.0485 C   0  0  0  0  0  0  0  0  0  0  0  0
    2.2687   -0.9833    0.7196 H   0  0  0  0  0  0  0  0  0  0  0  0
    2.6612    0.4472   -0.2299 H   0  0  0  0  0  0  0  0  0  0  0  0
    0.6672    0.2026    2.1883 H   0  0  0  0  0  0  0  0  0  0  0  0
   -1.6050    1.0974    2.4867 H   0  0  0  0  0  0  0  0  0  0  0  0
   -3.0348    1.5429    0.5163 H   0  0  0  0  0  0  0  0  0  0  0  0
   -2.1641    1.0780   -1.7534 H   0  0  0  0  0  0  0  0  0  0  0  0
    0.1088    0.1832   -2.0462 H   0  0  0  0  0  0  0  0  0  0  0  0
    1.9539   -2.8462   -1.0046 C   0  0  0  0  0  0  0  0  0  0  0  0
    1.9539   -1.6142   -0.5690 H   0  0  0  0  0  0  0  0  0  0  0  0
    2.8430   -3.3595   -0.6416 H   0  0  0  0  0  0  0  0  0  0  0  0
    1.0647   -3.3595   -0.6416 H   0  0  0  0  0  0  0  0  0  0  0  0
    1.9539   -2.8462   -2.0935 H   0  0  0  0  0  0  0  0  0  0  0  0
  1  2  2  3
  1  8  1  0
  1  9  1  0
  2  3  1  0
  2  7  1  0
  3  4  1  0
  3 10  1  0
  4  5  2  0
  4 11  1  0
  5  6  1  0
  5 12  1  0
  6  7  2  0
  6 13  1  0
  7 14  1  0
 15 16  1  0
 15 17  1  0
 15 18  1  0
 15 19  1  0
M  RAD  1   3   2
M  END
>  <reaction>  (12) 
rxn_839

>  <mol_properties>  (12) 
{"0": {"label": "*1", "atom_type": "Cs"}, "1": {"label": "*0", "atom_type": "Cd"}, "14": {"label": "*3", "atom_type": "Cs"}, "15": {"label": "*2", "atom_type": "H0"}, "16": {"label": "*4", "atom_type": "H0"}}

>  <type>  (12) 
unop_8

>  <geom_source>  (12) 
Heuristics

$$$$

     RDKit          3D

 19 18  0  0  0  0  0  0  0  0999 V2000
   -1.0001   -0.9291    1.4582 C   0  0  0  0  0  0  0  0  0  0  0  0
   -0.2998   -0.0090    0.4969 C   0  0  0  0  0  0  0  0  0  0  0  0
   -0.3759    1.3723    0.6466 C   0  0  0  0  0  3  0  0  0  0  0  0
    0.2933    2.2225   -0.2201 C   0  0  0  0  0  0  0  0  0  0  0  0
    1.0526    1.7031   -1.2575 C   0  0  0  0  0  0  0  0  0  0  0  0
    1.1342    0.3287   -1.4201 C   0  0  0  0  0  0  0  0  0  0  0  0
    0.4629   -0.5168   -0.5504 C   0  0  0  0  0  0  0  0  0  0  0  0
   -1.9023   -0.4687    1.8622 H   0  0  0  0  0  0  0  0  0  0  0  0
   -0.3499   -1.1749    2.3017 H   0  0  0  0  0  0  0  0  0  0  0  0
   -0.9702    1.7879    1.4527 H   0  0  0  0  0  0  0  0  0  0  0  0
    0.2185    3.2946   -0.0864 H   0  0  0  0  0  0  0  0  0  0  0  0
    1.5739    2.3652   -1.9371 H   0  0  0  0  0  0  0  0  0  0  0  0
    1.7206   -0.0880   -2.2298 H   0  0  0  0  0  0  0  0  0  0  0  0
    0.5298   -1.5902   -0.6878 H   0  0  0  0  0  0  0  0  0  0  0  0
   -1.0001   -3.3949    0.5865 C   0  0  0  0  0  0  0  0  0  0  0  0
   -1.0001   -2.1629    1.0220 H   0  0  0  0  0  0  0  0  0  0  0  0
   -0.1110   -3.9082    0.9494 H   0  0  0  0  0  0  0  0  0  0  0  0
   -1.8892   -3.9082    0.9494 H   0  0  0  0  0  0  0  0  0  0  0  0
   -1.0001   -3.3949   -0.5025 H   0  0  0  0  0  0  0  0  0  0  0  0
  1  2  2  3
  1  8  1  0
  1  9  1  0
  2  3  1  0
  2  7  1  0
  3  4  1  0
  3 10  1  0
  4  5  2  0
  4 11  1  0
  5  6  1  0
  5 12  1  0
  6  7  2  0
  6 13  1  0
  7 14  1  0
 15 16  1  0
 15 17  1  0
 15 18  1  0
 15 19  1  0
M  RAD  1   3   2
M  END
>  <reaction>  (13) 
rxn_839

>  <mol_properties>  (13) 
{"0": {"label": "*1", "atom_type": "Cs"}, "1": {"label": "*0", "atom_type": "Cd"}, "14": {"label": "*3", "atom_type": "Cs"}, "15": {"label": "*2", "atom_type": "H0"}, "16": {"label": "*4", "atom_type": "H0"}}

>  <type>  (13) 
unop_9

>  <geom_source>  (13) 
Heuristics

$$$$

     RDKit          3D

 19 18  0  0  0  0  0  0  0  0999 V2000
    1.6896   -0.7066    0.7912 C   0  0  0  0  0  0  0  0  0  0  0  0
    0.4766    0.0426    0.3133 C   0  0  0  0  0  0  0  0  0  0  0  0
   -0.4357    0.5761    1.2185 C   0  0  0  0  0  3  0  0  0  0  0  0
   -1.5389    1.2932    0.7817 C   0  0  0  0  0  0  0  0  0  0  0  0
   -1.7504    1.4885   -0.5745 C   0  0  0  0  0  0  0  0  0  0  0  0
   -0.8510    0.9593   -1.4874 C   0  0  0  0  0  0  0  0  0  0  0  0
    0.2504    0.2431   -1.0450 C   0  0  0  0  0  0  0  0  0  0  0  0
    1.4970   -1.2101    1.7392 H   0  0  0  0  0  0  0  0  0  0  0  0
    2.5296   -0.0245    0.9455 H   0  0  0  0  0  0  0  0  0  0  0  0
   -0.2806    0.4255    2.2810 H   0  0  0  0  0  0  0  0  0  0  0  0
   -2.2374    1.6979    1.5036 H   0  0  0  0  0  0  0  0  0  0  0  0
   -2.6126    2.0459   -0.9179 H   0  0  0  0  0  0  0  0  0  0  0  0
   -1.0088    1.1016   -2.5494 H   0  0  0  0  0  0  0  0  0  0  0  0
    0.9463   -0.1700   -1.7666 H   0  0  0  0  0  0  0  0  0  0  0  0
    1.6896   -3.1724   -0.0805 C   0  0  0  0  0  0  0  0  0  0  0  0
    1.6896   -1.9404    0.3550 H   0  0  0  0  0  0  0  0  0  0  0  0
    2.5787   -3.6857    0.2824 H   0  0  0  0  0  0  0  0  0  0  0  0
    0.8005   -3.6857    0.2824 H   0  0  0  0  0  0  0  0  0  0  0  0
    1.6896   -3.1724   -1.1695 H   0  0  0  0  0  0  0  0  0  0  0  0
  1  2  2  3
  1  8  1  0
  1  9  1  0
  2  3  1  0
  2  7  1  0
  3  4  1  0
  3 10  1  0
  4  5  2  0
  4 11  1  0
  5  6  1  0
  5 12  1  0
  6  7  2  0
  6 13  1  0
  7 14  1  0
 15 16  1  0
 15 17  1  0
 15 18  1  0
 15 19  1  0
M  RAD  1   3   2
M  END
>  <reaction>  (14) 
rxn_839

>  <mol_properties>  (14) 
{"0": {"label": "*1", "atom_type": "Cs"}, "1": {"label": "*0", "atom_type": "Cd"}, "14": {"label": "*3", "atom_type": "Cs"}, "15": {"label": "*2", "atom_type": "H0"}, "16": {"label": "*4", "atom_type": "H0"}}

>  <type>  (14) 
unop_10

>  <geom_source>  (14) 
Heuristics

$$$$

     RDKit          3D

 19 18  0  0  0  0  0  0  0  0999 V2000
   -0.9579    0.2069   -1.7416 C   0  0  0  0  0  0  0  0  0  0  0  0
   -0.2575    0.3183   -0.4156 C   0  0  0  0  0  0  0  0  0  0  0  0
   -0.1423    1.5455    0.2302 C   0  0  0  0  0  3  0  0  0  0  0  0
    0.4762    1.6464    1.4668 C   0  0  0  0  0  0  0  0  0  0  0  0
    0.9940    0.5163    2.0810 C   0  0  0  0  0  0  0  0  0  0  0  0
    0.8891   -0.7122    1.4469 C   0  0  0  0  0  0  0  0  0  0  0  0
    0.2696   -0.8072    0.2103 C   0  0  0  0  0  0  0  0  0  0  0  0
   -0.8599    1.1259   -2.3205 H   0  0  0  0  0  0  0  0  0  0  0  0
   -2.0253    0.0188   -1.6006 H   0  0  0  0  0  0  0  0  0  0  0  0
   -0.5411    2.4353   -0.2439 H   0  0  0  0  0  0  0  0  0  0  0  0
    0.5567    2.6119    1.9507 H   0  0  0  0  0  0  0  0  0  0  0  0
    1.4798    0.5932    3.0454 H   0  0  0  0  0  0  0  0  0  0  0  0
    1.2942   -1.6008    1.9151 H   0  0  0  0  0  0  0  0  0  0  0  0
    0.1955   -1.7717   -0.2794 H   0  0  0  0  0  0  0  0  0  0  0  0
   -0.9579   -2.2589   -2.6134 C   0  0  0  0  0  0  0  0  0  0  0  0
   -0.9579   -1.0269   -2.1778 H   0  0  0  0  0  0  0  0  0  0  0  0
   -0.0688   -2.7722   -2.2504 H   0  0  0  0  0  0  0  0  0  0  0  0
   -1.8470   -2.7722   -2.2504 H   0  0  0  0  0  0  0  0  0  0  0  0
   -0.9579   -2.2589   -3.7023 H   0  0  0  0  0  0  0  0  0  0  0  0
  1  2  2  3
  1  8  1  0
  1  9  1  0
  2  3  1  0
  2  7  1  0
  3  4  1  0
  3 10  1  0
  4  5  2  0
  4 11  1  0
  5  6  1  0
  5 12  1  0
  6  7  2  0
  6 13  1  0
  7 14  1  0
 15 16  1  0
 15 17  1  0
 15 18  1  0
 15 19  1  0
M  RAD  1   3   2
M  END
>  <reaction>  (15) 
rxn_839

>  <mol_properties>  (15) 
{"0": {"label": "*1", "atom_type": "Cs"}, "1": {"label": "*0", "atom_type": "Cd"}, "14": {"label": "*3", "atom_type": "Cs"}, "15": {"label": "*2", "atom_type": "H0"}, "16": {"label": "*4", "atom_type": "H0"}}

>  <type>  (15) 
unop_11

>  <geom_source>  (15) 
Heuristics

$$$$

     RDKit          3D

 19 18  0  0  0  0  0  0  0  0999 V2000
   -0.0185   -1.0257    1.7125 C   0  0  0  0  0  0  0  0  0  0  0  0
   -0.0185   -0.0430    0.5743 C   0  0  0  0  0  0  0  0  0  0  0  0
   -0.5965    1.2147    0.7168 C   0  0  0  0  0  3  0  0  0  0  0  0
   -0.5715    2.1338   -0.3208 C   0  0  0  0  0  0  0  0  0  0  0  0
    0.0336    1.8085   -1.5251 C   0  0  0  0  0  0  0  0  0  0  0  0
    0.6103    0.5574   -1.6817 C   0  0  0  0  0  0  0  0  0  0  0  0
    0.5823   -0.3577   -0.6407 C   0  0  0  0  0  0  0  0  0  0  0  0
   -0.8906   -0.8906    2.3533 H   0  0  0  0  0  0  0  0  0  0  0  0
    0.8706   -0.8965    2.3350 H   0  0  0  0  0  0  0  0  0  0  0  0
   -1.0752    1.4769    1.6537 H   0  0  0  0  0  0  0  0  0  0  0  0
   -1.0293    3.1064   -0.1889 H   0  0  0  0  0  0  0  0  0  0  0  0
    0.0520    2.5237   -2.3376 H   0  0  0  0  0  0  0  0  0  0  0  0
    1.0816    0.2908   -2.6196 H   0  0  0  0  0  0  0  0  0  0  0  0
    1.0328   -1.3349   -0.7739 H   0  0  0  0  0  0  0  0  0  0  0  0
   -0.0185   -3.4915    0.8407 C   0  0  0  0  0  0  0  0  0  0  0  0
   -0.0185   -2.2595    1.2763 H   0  0  0  0  0  0  0  0  0  0  0  0
    0.8706   -4.0048    1.2037 H   0  0  0  0  0  0  0  0  0  0  0  0
   -0.9076   -4.0048    1.2037 H   0  0  0  0  0  0  0  0  0  0  0  0
   -0.0185   -3.4915   -0.2482 H   0  0  0  0  0  0  0  0  0  0  0  0
  1  2  2  3
  1  8  1  0
  1  9  1  0
  2  3  1  0
  2  7  1  0
  3  4  1  0
  3 10  1  0
  4  5  2  0
  4 11  1  0
  5  6  1  0
  5 12  1  0
  6  7  2  0
  6 13  1  0
  7 14  1  0
 15 16  1  0
 15 17  1  0
 15 18  1  0
 15 19  1  0
M  RAD  1   3   2
M  END
>  <reaction>  (16) 
rxn_839

>  <mol_properties>  (16) 
{"0": {"label": "*1", "atom_type": "Cs"}, "1": {"label": "*0", "atom_type": "Cd"}, "14": {"label": "*3", "atom_type": "Cs"}, "15": {"label": "*2", "atom_type": "H0"}, "16": {"label": "*4", "atom_type": "H0"}}

>  <type>  (16) 
unop_12

>  <geom_source>  (16) 
Heuristics

$$$$

     RDKit          3D

 19 18  0  0  0  0  0  0  0  0999 V2000
    1.2596   -0.5022   -0.7227 C   0  0  0  0  0  0  0  0  0  0  0  0
   -0.1964   -0.2357   -0.4844 C   0  0  0  0  0  0  0  0  0  0  0  0
   -0.7803    0.9585   -0.9370 C   0  0  0  0  0  3  0  0  0  0  0  0
   -0.9700   -1.1447    0.2553 C   0  0  0  0  0  0  0  0  0  0  0  0
   -2.1293    1.2236   -0.6799 C   0  0  0  0  0  0  0  0  0  0  0  0
   -2.8986    0.3059    0.0410 C   0  0  0  0  0  0  0  0  0  0  0  0
   -2.3187   -0.8760    0.5105 C   0  0  0  0  0  0  0  0  0  0  0  0
    3.0721    0.2123    1.0244 C   0  0  0  0  0  0  0  0  0  0  0  0
    1.4527   -1.5941   -0.7898 H   0  0  0  0  0  0  0  0  0  0  0  0
    1.5934   -0.0349   -1.6737 H   0  0  0  0  0  0  0  0  0  0  0  0
    2.0009    0.0273    0.3292 H   0  0  0  0  0  0  0  0  0  0  0  0
   -0.1927    1.6823   -1.4883 H   0  0  0  0  0  0  0  0  0  0  0  0
   -2.5772    2.1424   -1.0361 H   0  0  0  0  0  0  0  0  0  0  0  0
   -3.9420    0.5132    0.2405 H   0  0  0  0  0  0  0  0  0  0  0  0
   -2.9132   -1.5823    1.0756 H   0  0  0  0  0  0  0  0  0  0  0  0
   -0.5303   -2.0595    0.6332 H   0  0  0  0  0  0  0  0  0  0  0  0
    3.7501    0.8529    0.4237 H   0  0  0  0  0  0  0  0  0  0  0  0
    2.6922    0.7885    1.8930 H   0  0  0  0  0  0  0  0  0  0  0  0
    3.6277   -0.6775    1.3854 H   0  0  0  0  0  0  0  0  0  0  0  0
  1  2  2  3
  1  9  1  0
  1 10  1  0
  2  3  1  0
  2  4  1  0
  3  5  1  0
  3 12  1  0
  4  7  2  0
  4 16  1  0
  5  6  2  0
  5 13  1  0
  6  7  1  0
  6 14  1  0
  7 15  1  0
  8 11  1  0
  8 17  1  0
  8 18  1  0
  8 19  1  0
M  RAD  1   3   2
M  END
>  <reaction>  (17) 
rxn_839

>  <mol_properties>  (17) 
{"0": {"label": "*1", "atom_type": "Cs"}, "1": {"label": "*0", "atom_type": "Cd"}, "14": {"label": "*3", "atom_type": "Cs"}, "15": {"label": "*2", "atom_type": "H0"}, "16": {"label": "*4", "atom_type": "H0"}}

>  <type>  (17) 
unop_13

>  <geom_source>  (17) 
AutoTST

$$$$

     RDKit          3D

 19 18  0  0  0  0  0  0  0  0999 V2000
    0.9675   -0.9439    1.4679 C   0  0  0  0  0  0  0  0  0  0  0  0
    0.2671   -0.0238    0.5066 C   0  0  0  0  0  0  0  0  0  0  0  0
   -0.6736    0.8974    0.9567 C   0  0  0  0  0  3  0  0  0  0  0  0
   -1.2988    1.7675    0.0769 C   0  0  0  0  0  0  0  0  0  0  0  0
   -0.9934    1.7299   -1.2750 C   0  0  0  0  0  0  0  0  0  0  0  0
   -0.0604    0.8146   -1.7374 C   0  0  0  0  0  0  0  0  0  0  0  0
    0.5617   -0.0532   -0.8531 C   0  0  0  0  0  0  0  0  0  0  0  0
    0.3354   -1.1777    2.3252 H   0  0  0  0  0  0  0  0  0  0  0  0
    1.8817   -0.4818    1.8492 H   0  0  0  0  0  0  0  0  0  0  0  0
   -0.9216    0.9318    2.0116 H   0  0  0  0  0  0  0  0  0  0  0  0
   -2.0295    2.4752    0.4486 H   0  0  0  0  0  0  0  0  0  0  0  0
   -1.4823    2.4067   -1.9641 H   0  0  0  0  0  0  0  0  0  0  0  0
    0.1825    0.7731   -2.7920 H   0  0  0  0  0  0  0  0  0  0  0  0
    1.2874   -0.7680   -1.2247 H   0  0  0  0  0  0  0  0  0  0  0  0
    0.9675   -3.4097    0.5961 C   0  0  0  0  0  0  0  0  0  0  0  0
    0.9675   -2.1777    1.0317 H   0  0  0  0  0  0  0  0  0  0  0  0
    1.8566   -3.9230    0.9591 H   0  0  0  0  0  0  0  0  0  0  0  0
    0.0784   -3.9230    0.9591 H   0  0  0  0  0  0  0  0  0  0  0  0
    0.9675   -3.4097   -0.4928 H   0  0  0  0  0  0  0  0  0  0  0  0
  1  2  2  3
  1  8  1  0
  1  9  1  0
  2  3  1  0
  2  7  1  0
  3  4  1  0
  3 10  1  0
  4  5  2  0
  4 11  1  0
  5  6  1  0
  5 12  1  0
  6  7  2  0
  6 13  1  0
  7 14  1  0
 15 16  1  0
 15 17  1  0
 15 18  1  0
 15 19  1  0
M  RAD  1   3   2
M  END
>  <reaction>  (18) 
rxn_839

>  <mol_properties>  (18) 
{"0": {"label": "*1", "atom_type": "Cs"}, "1": {"label": "*0", "atom_type": "Cd"}, "14": {"label": "*3", "atom_type": "Cs"}, "15": {"label": "*2", "atom_type": "H0"}, "16": {"label": "*4", "atom_type": "H0"}}

>  <type>  (18) 
unop_14

>  <geom_source>  (18) 
gaussian_log

$$$$
