
     RDKit          3D

 16 15  0  0  0  0  0  0  0  0999 V2000
    1.7961   -0.3807    1.6176 C   0  0  0  0  0  0  0  0  0  0  0  0
    0.8562   -0.8708    0.8256 C   0  0  0  0  0  0  0  0  0  0  0  0
    0.0895   -0.0826   -0.2048 C   0  0  0  0  0  0  0  0  0  0  0  0
   -1.4061   -0.1111    0.0982 C   0  0  0  0  0  0  0  0  0  0  0  0
    0.4476   -0.5902   -1.5797 C   0  0  0  0  0  0  0  0  0  0  0  0
   -0.3793   -1.1113   -2.4728 C   0  0  0  0  0  0  0  0  0  0  0  0
    2.3110   -1.0032    2.3386 H   0  0  0  0  0  0  0  0  0  0  0  0
    2.0846    0.6643    1.5737 H   0  0  0  0  0  0  0  0  0  0  0  0
    0.5921   -1.9241    0.8925 H   0  0  0  0  0  0  0  0  0  0  0  0
    0.4358    0.9557   -0.1462 H   0  0  0  0  0  0  0  0  0  0  0  0
   -1.5968    0.3080    1.0865 H   0  0  0  0  0  0  0  0  0  0  0  0
   -1.9674    0.4693   -0.6359 H   0  0  0  0  0  0  0  0  0  0  0  0
   -1.7902   -1.1338    0.0883 H   0  0  0  0  0  0  0  0  0  0  0  0
    1.5049   -0.5197   -1.8214 H   0  0  0  0  0  0  0  0  0  0  0  0
   -1.4421   -1.2131   -2.2889 H   0  0  0  0  0  0  0  0  0  0  0  0
   -0.0162   -1.4558   -3.4328 H   0  0  0  0  0  0  0  0  0  0  0  0
  1  2  2  3
  1  7  1  0
  1  8  1  0
  2  3  1  0
  2  9  1  0
  3  4  1  0
  3  5  1  0
  3 10  1  0
  4 11  1  0
  4 12  1  0
  4 13  1  0
  5  6  2  3
  5 14  1  0
  6 15  1  0
  6 16  1  0
M  END
>  <reaction>  (1) 
rxn_1177

>  <mol_properties>  (1) 
{"2": {"label": "donator", "atom_type": "Cs"}, "9": {"label": "d_hydrogen", "atom_type": "H0"}}

>  <type>  (1) 
r1h

$$$$

     RDKit          3D

 12 11  0  0  0  0  0  0  0  0999 V2000
   -2.3791    0.4612   -0.5870 C   0  0  0  0  0  0  0  0  0  0  0  0
   -1.3422   -0.3138   -0.1893 C   0  0  0  0  0  0  0  0  0  0  0  0
   -1.4723   -1.6058    0.3589 C   0  0  0  0  0  3  0  0  0  0  0  0
   -0.3798   -2.3973    0.7671 C   0  0  0  0  0  0  0  0  0  0  0  0
   -0.4849   -3.6397    1.2956 C   0  0  0  0  0  0  0  0  0  0  0  0
   -2.2205    1.4472   -1.0017 H   0  0  0  0  0  0  0  0  0  0  0  0
   -3.4026    0.1153   -0.5011 H   0  0  0  0  0  0  0  0  0  0  0  0
   -0.3330    0.0765   -0.2952 H   0  0  0  0  0  0  0  0  0  0  0  0
   -2.4723   -2.0151    0.4735 H   0  0  0  0  0  0  0  0  0  0  0  0
    0.6117   -1.9687    0.6436 H   0  0  0  0  0  0  0  0  0  0  0  0
    0.3893   -4.2030    1.5920 H   0  0  0  0  0  0  0  0  0  0  0  0
   -1.4516   -4.1084    1.4378 H   0  0  0  0  0  0  0  0  0  0  0  0
  1  2  2  3
  1  6  1  0
  1  7  1  0
  2  3  1  0
  2  8  1  0
  3  4  1  0
  3  9  1  0
  4  5  2  3
  4 10  1  0
  5 11  1  0
  5 12  1  0
M  RAD  1   3   2
M  END
>  <reaction>  (2) 
rxn_1177

>  <mol_properties>  (2) 
{"2": {"label": "acceptor", "atom_type": "Cs"}}

>  <type>  (2) 
r2

$$$$

     RDKit          3D

 13 12  0  0  0  0  0  0  0  0999 V2000
    3.0977   -0.3549   -0.5105 C   0  0  0  0  0  0  0  0  0  0  0  0
    2.0556    0.4221   -0.2627 C   0  0  0  0  0  0  0  0  0  0  0  0
    0.6313   -0.0354   -0.2366 C   0  0  0  0  0  0  0  0  0  0  0  0
   -0.2567    0.6038   -1.2694 C   0  0  0  0  0  0  0  0  0  0  0  0
    0.1459    1.3456   -2.2891 C   0  0  0  0  0  0  0  0  0  0  0  0
    4.1081    0.0344   -0.5074 H   0  0  0  0  0  0  0  0  0  0  0  0
    2.9777   -1.4116   -0.7243 H   0  0  0  0  0  0  0  0  0  0  0  0
    2.2171    1.4781   -0.0618 H   0  0  0  0  0  0  0  0  0  0  0  0
    0.5865   -1.1233   -0.3540 H   0  0  0  0  0  0  0  0  0  0  0  0
    0.2065    0.1743    0.7521 H   0  0  0  0  0  0  0  0  0  0  0  0
   -1.3190    0.4126   -1.1445 H   0  0  0  0  0  0  0  0  0  0  0  0
    1.1948    1.5564   -2.4628 H   0  0  0  0  0  0  0  0  0  0  0  0
   -0.5644    1.7621   -2.9918 H   0  0  0  0  0  0  0  0  0  0  0  0
  1  2  2  3
  1  6  1  0
  1  7  1  0
  2  3  1  0
  2  8  1  0
  3  4  1  0
  3  9  1  0
  3 10  1  0
  4  5  2  3
  4 11  1  0
  5 12  1  0
  5 13  1  0
M  END
>  <reaction>  (3) 
rxn_1177

>  <mol_properties>  (3) 
{"2": {"label": "acceptor", "atom_type": "Cs"}, "12": {"label": "a_hydrogen", "atom_type": "H0"}}

>  <type>  (3) 
r2h

$$$$

     RDKit          3D

 28 26  0  0  0  0  0  0  0  0999 V2000
   -2.5184    1.4074   -0.8503 C   0  0  0  0  0  0  0  0  0  0  0  0
   -1.2381    1.3492   -1.2187 C   0  0  0  0  0  0  0  0  0  0  0  0
   -0.1190    1.5466   -0.3039 C   0  0  0  0  0  3  0  0  0  0  0  0
    1.2308    1.8079   -0.7898 C   0  0  0  0  0  0  0  0  0  0  0  0
    1.7247    1.5029   -1.9939 C   0  0  0  0  0  0  0  0  0  0  0  0
   -3.3176    1.2231   -1.5561 H   0  0  0  0  0  0  0  0  0  0  0  0
   -2.8017    1.6532    0.1674 H   0  0  0  0  0  0  0  0  0  0  0  0
   -1.0028    1.0912   -2.2459 H   0  0  0  0  0  0  0  0  0  0  0  0
   -0.3811    2.0774    0.6098 H   0  0  0  0  0  0  0  0  0  0  0  0
    1.9054    2.2488   -0.0618 H   0  0  0  0  0  0  0  0  0  0  0  0
    2.7582    1.7116   -2.2364 H   0  0  0  0  0  0  0  0  0  0  0  0
    1.1260    1.0413   -2.7690 H   0  0  0  0  0  0  0  0  0  0  0  0
    0.9385   -2.2005   -1.1949 C   0  0  0  0  0  0  0  0  0  0  0  0
   -0.0410   -1.7351   -0.4184 C   0  0  0  0  0  0  0  0  0  0  0  0
    0.1097   -0.9189    0.7909 C   0  0  0  0  0  0  0  0  0  0  0  0
    1.4855   -0.8065    1.3985 C   0  0  0  0  0  0  0  0  0  0  0  0
   -1.0432   -0.9503    1.6987 C   0  0  0  0  0  0  0  0  0  0  0  0
   -1.0372   -0.7020    3.0089 C   0  0  0  0  0  0  0  0  0  0  0  0
    0.7123   -2.7671   -2.0886 H   0  0  0  0  0  0  0  0  0  0  0  0
    1.9853   -2.0467   -0.9661 H   0  0  0  0  0  0  0  0  0  0  0  0
   -1.0677   -1.9301   -0.7164 H   0  0  0  0  0  0  0  0  0  0  0  0
   -0.0163    0.3050    0.2522 H   0  0  0  0  0  0  0  0  0  0  0  0
    2.2270   -0.5615    0.6380 H   0  0  0  0  0  0  0  0  0  0  0  0
    1.5171   -0.0164    2.1496 H   0  0  0  0  0  0  0  0  0  0  0  0
    1.7804   -1.7441    1.8771 H   0  0  0  0  0  0  0  0  0  0  0  0
   -1.9955   -1.1677    1.2218 H   0  0  0  0  0  0  0  0  0  0  0  0
   -0.1281   -0.4873    3.5566 H   0  0  0  0  0  0  0  0  0  0  0  0
   -1.9561   -0.7250    3.5799 H   0  0  0  0  0  0  0  0  0  0  0  0
  1  2  2  3
  1  6  1  0
  1  7  1  0
  2  3  1  0
  2  8  1  0
  3  4  1  0
  3  9  1  0
  4  5  2  3
  4 10  1  0
  5 11  1  0
  5 12  1  0
 13 14  2  3
 13 19  1  0
 13 20  1  0
 14 15  1  0
 14 21  1  0
 15 16  1  0
 15 17  1  0
 15 22  1  0
 16 23  1  0
 16 24  1  0
 16 25  1  0
 17 18  2  3
 17 26  1  0
 18 27  1  0
 18 28  1  0
M  RAD  1   3   2
M  END
>  <reaction>  (4) 
rxn_1177

>  <mol_properties>  (4) 
{"1": {"label": "*4", "atom_type": "Cd"}, "2": {"label": "*3", "atom_type": "Cs"}, "13": {"label": "*0", "atom_type": "Cd"}, "14": {"label": "*1", "atom_type": "Cs"}, "21": {"label": "*2", "atom_type": "H0"}}

>  <type>  (4) 
ts

$$$$

     RDKit          3D

 28 26  0  0  0  0  0  0  0  0999 V2000
   -1.0528    2.7047    0.4462 C   0  0  0  0  0  0  0  0  0  0  0  0
   -0.9196    1.8171   -0.5260 C   0  0  0  0  0  0  0  0  0  0  0  0
    0.2973    0.9792   -0.7621 C   0  0  0  0  0  3  0  0  0  0  0  0
    0.9797    1.2141   -2.0824 C   0  0  0  0  0  0  0  0  0  0  0  0
    0.7267    2.2048   -2.9230 C   0  0  0  0  0  0  0  0  0  0  0  0
   -1.9640    3.2764    0.5705 H   0  0  0  0  0  0  0  0  0  0  0  0
   -0.2538    2.8909    1.1560 H   0  0  0  0  0  0  0  0  0  0  0  0
   -1.7404    1.6660   -1.2226 H   0  0  0  0  0  0  0  0  0  0  0  0
    1.0210    1.1366    0.0446 H   0  0  0  0  0  0  0  0  0  0  0  0
    1.7519    0.4929   -2.3358 H   0  0  0  0  0  0  0  0  0  0  0  0
    1.2733    2.3024   -3.8523 H   0  0  0  0  0  0  0  0  0  0  0  0
   -0.0262    2.9552   -2.7111 H   0  0  0  0  0  0  0  0  0  0  0  0
    0.2241   -2.3404   -1.3570 C   0  0  0  0  0  0  0  0  0  0  0  0
    0.2241   -2.3404   -0.0338 C   0  0  0  0  0  0  0  0  0  0  0  0
    0.2241   -1.1096    0.8356 C   0  0  0  0  0  0  0  0  0  0  0  0
    1.4625   -1.0798    1.7272 C   0  0  0  0  0  0  0  0  0  0  0  0
   -1.0794   -1.0410    1.5921 C   0  0  0  0  0  0  0  0  0  0  0  0
   -1.2340   -1.0408    2.9071 C   0  0  0  0  0  0  0  0  0  0  0  0
    0.2234   -3.2630   -1.9237 H   0  0  0  0  0  0  0  0  0  0  0  0
    0.2259   -1.4146   -1.9227 H   0  0  0  0  0  0  0  0  0  0  0  0
    0.2194   -3.2862    0.5039 H   0  0  0  0  0  0  0  0  0  0  0  0
    0.2607   -0.0653    0.0368 H   0  0  0  0  0  0  0  0  0  0  0  0
    2.3653   -1.0882    1.1160 H   0  0  0  0  0  0  0  0  0  0  0  0
    1.4772   -0.1841    2.3503 H   0  0  0  0  0  0  0  0  0  0  0  0
    1.4951   -1.9516    2.3849 H   0  0  0  0  0  0  0  0  0  0  0  0
   -1.9625   -1.0053    0.9596 H   0  0  0  0  0  0  0  0  0  0  0  0
   -0.3936   -1.0801    3.5896 H   0  0  0  0  0  0  0  0  0  0  0  0
   -2.2204   -0.9977    3.3513 H   0  0  0  0  0  0  0  0  0  0  0  0
  1  2  2  3
  1  6  1  0
  1  7  1  0
  2  3  1  0
  2  8  1  0
  3  4  1  0
  3  9  1  0
  4  5  2  3
  4 10  1  0
  5 11  1  0
  5 12  1  0
 13 14  2  3
 13 19  1  0
 13 20  1  0
 14 15  1  0
 14 21  1  0
 15 16  1  0
 15 17  1  0
 15 22  1  0
 16 23  1  0
 16 24  1  0
 16 25  1  0
 17 18  2  3
 17 26  1  0
 18 27  1  0
 18 28  1  0
M  RAD  1   3   2
M  END
>  <reaction>  (5) 
rxn_1177

>  <mol_properties>  (5) 
{"1": {"label": "*4", "atom_type": "Cd"}, "2": {"label": "*3", "atom_type": "Cs"}, "13": {"label": "*0", "atom_type": "Cd"}, "14": {"label": "*1", "atom_type": "Cs"}, "21": {"label": "*2", "atom_type": "H0"}}

>  <type>  (5) 
unop_1

>  <geom_source>  (5) 
Heuristics

$$$$

     RDKit          3D

 28 26  0  0  0  0  0  0  0  0999 V2000
   -1.7629    1.2119   -2.1717 C   0  0  0  0  0  0  0  0  0  0  0  0
   -0.5425    0.8280   -1.8337 C   0  0  0  0  0  0  0  0  0  0  0  0
    0.1402    1.1731   -0.5477 C   0  0  0  0  0  3  0  0  0  0  0  0
    1.3944    1.9905   -0.6979 C   0  0  0  0  0  0  0  0  0  0  0  0
    1.8092    2.5816   -1.8072 C   0  0  0  0  0  0  0  0  0  0  0  0
   -2.2067    0.9224   -3.1160 H   0  0  0  0  0  0  0  0  0  0  0  0
   -2.3645    1.8299   -1.5136 H   0  0  0  0  0  0  0  0  0  0  0  0
    0.0318    0.2164   -2.5249 H   0  0  0  0  0  0  0  0  0  0  0  0
   -0.5534    1.7049    0.1120 H   0  0  0  0  0  0  0  0  0  0  0  0
    1.9871    2.0940    0.2069 H   0  0  0  0  0  0  0  0  0  0  0  0
    2.7246    3.1593   -1.8240 H   0  0  0  0  0  0  0  0  0  0  0  0
    1.2484    2.5170   -2.7326 H   0  0  0  0  0  0  0  0  0  0  0  0
    0.0670   -2.1465   -1.1426 C   0  0  0  0  0  0  0  0  0  0  0  0
    0.0670   -2.1465    0.1806 C   0  0  0  0  0  0  0  0  0  0  0  0
    0.0670   -0.9158    1.0500 C   0  0  0  0  0  0  0  0  0  0  0  0
    1.3054   -0.8860    1.9416 C   0  0  0  0  0  0  0  0  0  0  0  0
   -1.2365   -0.8472    1.8065 C   0  0  0  0  0  0  0  0  0  0  0  0
   -1.3911   -0.8470    3.1215 C   0  0  0  0  0  0  0  0  0  0  0  0
    0.0663   -3.0692   -1.7093 H   0  0  0  0  0  0  0  0  0  0  0  0
    0.0688   -1.2208   -1.7083 H   0  0  0  0  0  0  0  0  0  0  0  0
    0.0623   -3.0924    0.7182 H   0  0  0  0  0  0  0  0  0  0  0  0
    0.1036    0.1286    0.2512 H   0  0  0  0  0  0  0  0  0  0  0  0
    2.2081   -0.8943    1.3304 H   0  0  0  0  0  0  0  0  0  0  0  0
    1.3201    0.0098    2.5647 H   0  0  0  0  0  0  0  0  0  0  0  0
    1.3380   -1.7577    2.5992 H   0  0  0  0  0  0  0  0  0  0  0  0
   -2.1197   -0.8115    1.1740 H   0  0  0  0  0  0  0  0  0  0  0  0
   -0.5508   -0.8863    3.8040 H   0  0  0  0  0  0  0  0  0  0  0  0
   -2.3775   -0.8038    3.5657 H   0  0  0  0  0  0  0  0  0  0  0  0
  1  2  2  3
  1  6  1  0
  1  7  1  0
  2  3  1  0
  2  8  1  0
  3  4  1  0
  3  9  1  0
  4  5  2  3
  4 10  1  0
  5 11  1  0
  5 12  1  0
 13 14  2  3
 13 19  1  0
 13 20  1  0
 14 15  1  0
 14 21  1  0
 15 16  1  0
 15 17  1  0
 15 22  1  0
 16 23  1  0
 16 24  1  0
 16 25  1  0
 17 18  2  3
 17 26  1  0
 18 27  1  0
 18 28  1  0
M  RAD  1   3   2
M  END
>  <reaction>  (6) 
rxn_1177

>  <mol_properties>  (6) 
{"1": {"label": "*4", "atom_type": "Cd"}, "2": {"label": "*3", "atom_type": "Cs"}, "13": {"label": "*0", "atom_type": "Cd"}, "14": {"label": "*1", "atom_type": "Cs"}, "21": {"label": "*2", "atom_type": "H0"}}

>  <type>  (6) 
unop_2

>  <geom_source>  (6) 
Heuristics

$$$$

     RDKit          3D

 28 26  0  0  0  0  0  0  0  0999 V2000
    0.1776    3.0418    0.6040 C   0  0  0  0  0  0  0  0  0  0  0  0
   -0.4102    2.1100   -0.1290 C   0  0  0  0  0  0  0  0  0  0  0  0
    0.2938    0.9662   -0.7886 C   0  0  0  0  0  3  0  0  0  0  0  0
    0.2060    0.9518   -2.2905 C   0  0  0  0  0  0  0  0  0  0  0  0
   -0.2421    1.9369   -3.0527 C   0  0  0  0  0  0  0  0  0  0  0  0
   -0.3887    3.8423    1.0632 H   0  0  0  0  0  0  0  0  0  0  0  0
    1.2491    3.0364    0.7732 H   0  0  0  0  0  0  0  0  0  0  0  0
   -1.4854    2.1555   -0.2824 H   0  0  0  0  0  0  0  0  0  0  0  0
    1.3486    0.9577   -0.4944 H   0  0  0  0  0  0  0  0  0  0  0  0
    0.5587    0.0392   -2.7632 H   0  0  0  0  0  0  0  0  0  0  0  0
   -0.2633    1.8437   -4.1310 H   0  0  0  0  0  0  0  0  0  0  0  0
   -0.5949    2.8706   -2.6301 H   0  0  0  0  0  0  0  0  0  0  0  0
    0.2206   -2.3534   -1.3834 C   0  0  0  0  0  0  0  0  0  0  0  0
    0.2206   -2.3534   -0.0602 C   0  0  0  0  0  0  0  0  0  0  0  0
    0.2206   -1.1226    0.8092 C   0  0  0  0  0  0  0  0  0  0  0  0
    1.4590   -1.0928    1.7008 C   0  0  0  0  0  0  0  0  0  0  0  0
   -1.0829   -1.0540    1.5657 C   0  0  0  0  0  0  0  0  0  0  0  0
   -1.2375   -1.0538    2.8806 C   0  0  0  0  0  0  0  0  0  0  0  0
    0.2199   -3.2760   -1.9501 H   0  0  0  0  0  0  0  0  0  0  0  0
    0.2224   -1.4276   -1.9491 H   0  0  0  0  0  0  0  0  0  0  0  0
    0.2159   -3.2992    0.4774 H   0  0  0  0  0  0  0  0  0  0  0  0
    0.2572   -0.0783    0.0104 H   0  0  0  0  0  0  0  0  0  0  0  0
    2.3617   -1.1012    1.0895 H   0  0  0  0  0  0  0  0  0  0  0  0
    1.4736   -0.1971    2.3239 H   0  0  0  0  0  0  0  0  0  0  0  0
    1.4916   -1.9646    2.3584 H   0  0  0  0  0  0  0  0  0  0  0  0
   -1.9661   -1.0183    0.9332 H   0  0  0  0  0  0  0  0  0  0  0  0
   -0.3972   -1.0931    3.5632 H   0  0  0  0  0  0  0  0  0  0  0  0
   -2.2239   -1.0107    3.3249 H   0  0  0  0  0  0  0  0  0  0  0  0
  1  2  2  3
  1  6  1  0
  1  7  1  0
  2  3  1  0
  2  8  1  0
  3  4  1  0
  3  9  1  0
  4  5  2  3
  4 10  1  0
  5 11  1  0
  5 12  1  0
 13 14  2  3
 13 19  1  0
 13 20  1  0
 14 15  1  0
 14 21  1  0
 15 16  1  0
 15 17  1  0
 15 22  1  0
 16 23  1  0
 16 24  1  0
 16 25  1  0
 17 18  2  3
 17 26  1  0
 18 27  1  0
 18 28  1  0
M  RAD  1   3   2
M  END
>  <reaction>  (7) 
rxn_1177

>  <mol_properties>  (7) 
{"1": {"label": "*4", "atom_type": "Cd"}, "2": {"label": "*3", "atom_type": "Cs"}, "13": {"label": "*0", "atom_type": "Cd"}, "14": {"label": "*1", "atom_type": "Cs"}, "21": {"label": "*2", "atom_type": "H0"}}

>  <type>  (7) 
unop_3

>  <geom_source>  (7) 
Heuristics

$$$$

     RDKit          3D

 28 26  0  0  0  0  0  0  0  0999 V2000
    1.1847    1.5800   -2.9856 C   0  0  0  0  0  0  0  0  0  0  0  0
    1.0468    1.0470   -1.7823 C   0  0  0  0  0  0  0  0  0  0  0  0
   -0.1974    1.1100   -0.9535 C   0  0  0  0  0  3  0  0  0  0  0  0
   -0.0487    1.8378    0.3549 C   0  0  0  0  0  0  0  0  0  0  0  0
    0.9875    2.5757    0.7208 C   0  0  0  0  0  0  0  0  0  0  0  0
    2.1103    1.4936   -3.5407 H   0  0  0  0  0  0  0  0  0  0  0  0
    0.3739    2.1217   -3.4610 H   0  0  0  0  0  0  0  0  0  0  0  0
    1.8860    0.5194   -1.3364 H   0  0  0  0  0  0  0  0  0  0  0  0
   -1.0056    1.5743   -1.5283 H   0  0  0  0  0  0  0  0  0  0  0  0
   -0.8893    1.7363    1.0359 H   0  0  0  0  0  0  0  0  0  0  0  0
    1.0080    3.0724    1.6825 H   0  0  0  0  0  0  0  0  0  0  0  0
    1.8453    2.7164    0.0734 H   0  0  0  0  0  0  0  0  0  0  0  0
   -0.2706   -2.2097   -1.5484 C   0  0  0  0  0  0  0  0  0  0  0  0
   -0.2706   -2.2097   -0.2251 C   0  0  0  0  0  0  0  0  0  0  0  0
   -0.2706   -0.9789    0.6443 C   0  0  0  0  0  0  0  0  0  0  0  0
    0.9678   -0.9491    1.5359 C   0  0  0  0  0  0  0  0  0  0  0  0
   -1.5741   -0.9103    1.4008 C   0  0  0  0  0  0  0  0  0  0  0  0
   -1.7287   -0.9101    2.7157 C   0  0  0  0  0  0  0  0  0  0  0  0
   -0.2713   -3.1323   -2.1151 H   0  0  0  0  0  0  0  0  0  0  0  0
   -0.2688   -1.2839   -2.1141 H   0  0  0  0  0  0  0  0  0  0  0  0
   -0.2753   -3.1555    0.3125 H   0  0  0  0  0  0  0  0  0  0  0  0
   -0.2340    0.0655   -0.1545 H   0  0  0  0  0  0  0  0  0  0  0  0
    1.8706   -0.9575    0.9246 H   0  0  0  0  0  0  0  0  0  0  0  0
    0.9825   -0.0533    2.1590 H   0  0  0  0  0  0  0  0  0  0  0  0
    1.0004   -1.8209    2.1935 H   0  0  0  0  0  0  0  0  0  0  0  0
   -2.4573   -0.8746    0.7683 H   0  0  0  0  0  0  0  0  0  0  0  0
   -0.8884   -0.9494    3.3983 H   0  0  0  0  0  0  0  0  0  0  0  0
   -2.7151   -0.8670    3.1600 H   0  0  0  0  0  0  0  0  0  0  0  0
  1  2  2  3
  1  6  1  0
  1  7  1  0
  2  3  1  0
  2  8  1  0
  3  4  1  0
  3  9  1  0
  4  5  2  3
  4 10  1  0
  5 11  1  0
  5 12  1  0
 13 14  2  3
 13 19  1  0
 13 20  1  0
 14 15  1  0
 14 21  1  0
 15 16  1  0
 15 17  1  0
 15 22  1  0
 16 23  1  0
 16 24  1  0
 16 25  1  0
 17 18  2  3
 17 26  1  0
 18 27  1  0
 18 28  1  0
M  RAD  1   3   2
M  END
>  <reaction>  (8) 
rxn_1177

>  <mol_properties>  (8) 
{"1": {"label": "*4", "atom_type": "Cd"}, "2": {"label": "*3", "atom_type": "Cs"}, "13": {"label": "*0", "atom_type": "Cd"}, "14": {"label": "*1", "atom_type": "Cs"}, "21": {"label": "*2", "atom_type": "H0"}}

>  <type>  (8) 
unop_4

>  <geom_source>  (8) 
Heuristics

$$$$

     RDKit          3D

 28 26  0  0  0  0  0  0  0  0999 V2000
    1.3113    3.1413   -0.0816 C   0  0  0  0  0  0  0  0  0  0  0  0
    0.3659    2.2158   -0.0574 C   0  0  0  0  0  0  0  0  0  0  0  0
    0.3646    0.9688   -0.8843 C   0  0  0  0  0  3  0  0  0  0  0  0
   -0.7812    0.8540   -1.8526 C   0  0  0  0  0  0  0  0  0  0  0  0
   -1.6315    1.8179   -2.1688 C   0  0  0  0  0  0  0  0  0  0  0  0
    1.2596    4.0206    0.5482 H   0  0  0  0  0  0  0  0  0  0  0  0
    2.1744    3.0518   -0.7327 H   0  0  0  0  0  0  0  0  0  0  0  0
   -0.4879    2.3467    0.6026 H   0  0  0  0  0  0  0  0  0  0  0  0
    1.3063    0.8866   -1.4370 H   0  0  0  0  0  0  0  0  0  0  0  0
   -0.8880   -0.1183   -2.3257 H   0  0  0  0  0  0  0  0  0  0  0  0
   -2.4261    1.6495   -2.8846 H   0  0  0  0  0  0  0  0  0  0  0  0
   -1.5607    2.8076   -1.7325 H   0  0  0  0  0  0  0  0  0  0  0  0
    0.2914   -2.3509   -1.4791 C   0  0  0  0  0  0  0  0  0  0  0  0
    0.2914   -2.3509   -0.1559 C   0  0  0  0  0  0  0  0  0  0  0  0
    0.2914   -1.1201    0.7135 C   0  0  0  0  0  0  0  0  0  0  0  0
    1.5297   -1.0903    1.6051 C   0  0  0  0  0  0  0  0  0  0  0  0
   -1.0122   -1.0515    1.4700 C   0  0  0  0  0  0  0  0  0  0  0  0
   -1.1668   -1.0513    2.7850 C   0  0  0  0  0  0  0  0  0  0  0  0
    0.2906   -3.2735   -2.0458 H   0  0  0  0  0  0  0  0  0  0  0  0
    0.2931   -1.4251   -2.0448 H   0  0  0  0  0  0  0  0  0  0  0  0
    0.2866   -3.2967    0.3817 H   0  0  0  0  0  0  0  0  0  0  0  0
    0.3280   -0.0757   -0.0853 H   0  0  0  0  0  0  0  0  0  0  0  0
    2.4325   -1.0987    0.9939 H   0  0  0  0  0  0  0  0  0  0  0  0
    1.5444   -0.1945    2.2282 H   0  0  0  0  0  0  0  0  0  0  0  0
    1.5623   -1.9621    2.2627 H   0  0  0  0  0  0  0  0  0  0  0  0
   -1.8953   -1.0158    0.8375 H   0  0  0  0  0  0  0  0  0  0  0  0
   -0.3264   -1.0906    3.4675 H   0  0  0  0  0  0  0  0  0  0  0  0
   -2.1532   -1.0082    3.2292 H   0  0  0  0  0  0  0  0  0  0  0  0
  1  2  2  3
  1  6  1  0
  1  7  1  0
  2  3  1  0
  2  8  1  0
  3  4  1  0
  3  9  1  0
  4  5  2  3
  4 10  1  0
  5 11  1  0
  5 12  1  0
 13 14  2  3
 13 19  1  0
 13 20  1  0
 14 15  1  0
 14 21  1  0
 15 16  1  0
 15 17  1  0
 15 22  1  0
 16 23  1  0
 16 24  1  0
 16 25  1  0
 17 18  2  3
 17 26  1  0
 18 27  1  0
 18 28  1  0
M  RAD  1   3   2
M  END
>  <reaction>  (9) 
rxn_1177

>  <mol_properties>  (9) 
{"1": {"label": "*4", "atom_type": "Cd"}, "2": {"label": "*3", "atom_type": "Cs"}, "13": {"label": "*0", "atom_type": "Cd"}, "14": {"label": "*1", "atom_type": "Cs"}, "21": {"label": "*2", "atom_type": "H0"}}

>  <type>  (9) 
unop_5

>  <geom_source>  (9) 
Heuristics

$$$$

     RDKit          3D

 28 26  0  0  0  0  0  0  0  0999 V2000
    1.7659    2.1243   -2.3945 C   0  0  0  0  0  0  0  0  0  0  0  0
    1.3438    1.3976   -1.3724 C   0  0  0  0  0  0  0  0  0  0  0  0
   -0.0836    1.0339   -1.1097 C   0  0  0  0  0  3  0  0  0  0  0  0
   -0.6449    1.5688    0.1797 C   0  0  0  0  0  0  0  0  0  0  0  0
   -0.0720    2.4692    0.9628 C   0  0  0  0  0  0  0  0  0  0  0  0
    2.8160    2.3477   -2.5354 H   0  0  0  0  0  0  0  0  0  0  0  0
    1.0748    2.5217   -3.1302 H   0  0  0  0  0  0  0  0  0  0  0  0
    2.0672    1.0251   -0.6517 H   0  0  0  0  0  0  0  0  0  0  0  0
   -0.7137    1.3727   -1.9389 H   0  0  0  0  0  0  0  0  0  0  0  0
   -1.6141    1.1666    0.4614 H   0  0  0  0  0  0  0  0  0  0  0  0
   -0.5522    2.8044    1.8732 H   0  0  0  0  0  0  0  0  0  0  0  0
    0.8890    2.9081    0.7203 H   0  0  0  0  0  0  0  0  0  0  0  0
   -0.1568   -2.2857   -1.7046 C   0  0  0  0  0  0  0  0  0  0  0  0
   -0.1568   -2.2857   -0.3814 C   0  0  0  0  0  0  0  0  0  0  0  0
   -0.1568   -1.0549    0.4880 C   0  0  0  0  0  0  0  0  0  0  0  0
    1.0815   -1.0251    1.3796 C   0  0  0  0  0  0  0  0  0  0  0  0
   -1.4604   -0.9863    1.2445 C   0  0  0  0  0  0  0  0  0  0  0  0
   -1.6150   -0.9861    2.5595 C   0  0  0  0  0  0  0  0  0  0  0  0
   -0.1576   -3.2083   -2.2713 H   0  0  0  0  0  0  0  0  0  0  0  0
   -0.1551   -1.3599   -2.2703 H   0  0  0  0  0  0  0  0  0  0  0  0
   -0.1616   -3.2315    0.1562 H   0  0  0  0  0  0  0  0  0  0  0  0
   -0.1202   -0.0106   -0.3108 H   0  0  0  0  0  0  0  0  0  0  0  0
    1.9843   -1.0335    0.7684 H   0  0  0  0  0  0  0  0  0  0  0  0
    1.0962   -0.1294    2.0027 H   0  0  0  0  0  0  0  0  0  0  0  0
    1.1141   -1.8969    2.0372 H   0  0  0  0  0  0  0  0  0  0  0  0
   -2.3435   -0.9506    0.6120 H   0  0  0  0  0  0  0  0  0  0  0  0
   -0.7746   -1.0254    3.2420 H   0  0  0  0  0  0  0  0  0  0  0  0
   -2.6014   -0.9430    3.0037 H   0  0  0  0  0  0  0  0  0  0  0  0
  1  2  2  3
  1  6  1  0
  1  7  1  0
  2  3  1  0
  2  8  1  0
  3  4  1  0
  3  9  1  0
  4  5  2  3
  4 10  1  0
  5 11  1  0
  5 12  1  0
 13 14  2  3
 13 19  1  0
 13 20  1  0
 14 15  1  0
 14 21  1  0
 15 16  1  0
 15 17  1  0
 15 22  1  0
 16 23  1  0
 16 24  1  0
 16 25  1  0
 17 18  2  3
 17 26  1  0
 18 27  1  0
 18 28  1  0
M  RAD  1   3   2
M  END
>  <reaction>  (10) 
rxn_1177

>  <mol_properties>  (10) 
{"1": {"label": "*4", "atom_type": "Cd"}, "2": {"label": "*3", "atom_type": "Cs"}, "13": {"label": "*0", "atom_type": "Cd"}, "14": {"label": "*1", "atom_type": "Cs"}, "21": {"label": "*2", "atom_type": "H0"}}

>  <type>  (10) 
unop_6

>  <geom_source>  (10) 
Heuristics

$$$$

     RDKit          3D

 28 26  0  0  0  0  0  0  0  0999 V2000
    1.9000    2.6485   -1.7013 C   0  0  0  0  0  0  0  0  0  0  0  0
    1.3439    1.7778   -0.8745 C   0  0  0  0  0  0  0  0  0  0  0  0
    0.1120    0.9812   -1.1690 C   0  0  0  0  0  3  0  0  0  0  0  0
   -1.0504    1.2537   -0.2534 C   0  0  0  0  0  0  0  0  0  0  0  0
   -1.1381    2.2467    0.6175 C   0  0  0  0  0  0  0  0  0  0  0  0
    2.7986    3.1901   -1.4333 H   0  0  0  0  0  0  0  0  0  0  0  0
    1.4766    2.8504   -2.6794 H   0  0  0  0  0  0  0  0  0  0  0  0
    1.7938    1.6101    0.1007 H   0  0  0  0  0  0  0  0  0  0  0  0
   -0.2036    1.1507   -2.2038 H   0  0  0  0  0  0  0  0  0  0  0  0
   -1.8816    0.5601   -0.3463 H   0  0  0  0  0  0  0  0  0  0  0  0
   -2.0188    2.3730    1.2342 H   0  0  0  0  0  0  0  0  0  0  0  0
   -0.3407    2.9706    0.7401 H   0  0  0  0  0  0  0  0  0  0  0  0
    0.0388   -2.3385   -1.7638 C   0  0  0  0  0  0  0  0  0  0  0  0
    0.0388   -2.3385   -0.4406 C   0  0  0  0  0  0  0  0  0  0  0  0
    0.0388   -1.1077    0.4288 C   0  0  0  0  0  0  0  0  0  0  0  0
    1.2772   -1.0779    1.3204 C   0  0  0  0  0  0  0  0  0  0  0  0
   -1.2647   -1.0391    1.1853 C   0  0  0  0  0  0  0  0  0  0  0  0
   -1.4193   -1.0389    2.5003 C   0  0  0  0  0  0  0  0  0  0  0  0
    0.0381   -3.2611   -2.3305 H   0  0  0  0  0  0  0  0  0  0  0  0
    0.0406   -1.4127   -2.3295 H   0  0  0  0  0  0  0  0  0  0  0  0
    0.0341   -3.2843    0.0970 H   0  0  0  0  0  0  0  0  0  0  0  0
    0.0754   -0.0633   -0.3700 H   0  0  0  0  0  0  0  0  0  0  0  0
    2.1800   -1.0863    0.7092 H   0  0  0  0  0  0  0  0  0  0  0  0
    1.2919   -0.1821    1.9435 H   0  0  0  0  0  0  0  0  0  0  0  0
    1.3098   -1.9497    1.9780 H   0  0  0  0  0  0  0  0  0  0  0  0
   -2.1478   -1.0034    0.5528 H   0  0  0  0  0  0  0  0  0  0  0  0
   -0.5789   -1.0782    3.1828 H   0  0  0  0  0  0  0  0  0  0  0  0
   -2.4057   -0.9958    2.9445 H   0  0  0  0  0  0  0  0  0  0  0  0
  1  2  2  3
  1  6  1  0
  1  7  1  0
  2  3  1  0
  2  8  1  0
  3  4  1  0
  3  9  1  0
  4  5  2  3
  4 10  1  0
  5 11  1  0
  5 12  1  0
 13 14  2  3
 13 19  1  0
 13 20  1  0
 14 15  1  0
 14 21  1  0
 15 16  1  0
 15 17  1  0
 15 22  1  0
 16 23  1  0
 16 24  1  0
 16 25  1  0
 17 18  2  3
 17 26  1  0
 18 27  1  0
 18 28  1  0
M  RAD  1   3   2
M  END
>  <reaction>  (11) 
rxn_1177

>  <mol_properties>  (11) 
{"1": {"label": "*4", "atom_type": "Cd"}, "2": {"label": "*3", "atom_type": "Cs"}, "13": {"label": "*0", "atom_type": "Cd"}, "14": {"label": "*1", "atom_type": "Cs"}, "21": {"label": "*2", "atom_type": "H0"}}

>  <type>  (11) 
unop_7

>  <geom_source>  (11) 
Heuristics

$$$$

     RDKit          3D

 28 26  0  0  0  0  0  0  0  0999 V2000
   -1.8517    2.1917   -0.2584 C   0  0  0  0  0  0  0  0  0  0  0  0
   -1.0806    1.4396   -1.0270 C   0  0  0  0  0  0  0  0  0  0  0  0
    0.3196    1.0283   -0.6969 C   0  0  0  0  0  3  0  0  0  0  0  0
    1.3673    1.5295   -1.6534 C   0  0  0  0  0  0  0  0  0  0  0  0
    1.1860    2.4375   -2.5993 C   0  0  0  0  0  0  0  0  0  0  0  0
   -2.8624    2.4495   -0.5492 H   0  0  0  0  0  0  0  0  0  0  0  0
   -1.4996    2.5764    0.6929 H   0  0  0  0  0  0  0  0  0  0  0  0
   -1.4674    1.0809   -1.9774 H   0  0  0  0  0  0  0  0  0  0  0  0
    0.5765    1.3575    0.3155 H   0  0  0  0  0  0  0  0  0  0  0  0
    2.3543    1.0938   -1.5242 H   0  0  0  0  0  0  0  0  0  0  0  0
    2.0013    2.7463   -3.2411 H   0  0  0  0  0  0  0  0  0  0  0  0
    0.2236    2.9091   -2.7612 H   0  0  0  0  0  0  0  0  0  0  0  0
    0.2464   -2.2913   -1.2918 C   0  0  0  0  0  0  0  0  0  0  0  0
    0.2464   -2.2913    0.0314 C   0  0  0  0  0  0  0  0  0  0  0  0
    0.2464   -1.0605    0.9008 C   0  0  0  0  0  0  0  0  0  0  0  0
    1.4848   -1.0307    1.7924 C   0  0  0  0  0  0  0  0  0  0  0  0
   -1.0571   -0.9919    1.6574 C   0  0  0  0  0  0  0  0  0  0  0  0
   -1.2117   -0.9917    2.9723 C   0  0  0  0  0  0  0  0  0  0  0  0
    0.2457   -3.2139   -1.8585 H   0  0  0  0  0  0  0  0  0  0  0  0
    0.2482   -1.3655   -1.8575 H   0  0  0  0  0  0  0  0  0  0  0  0
    0.2417   -3.2371    0.5691 H   0  0  0  0  0  0  0  0  0  0  0  0
    0.2830   -0.0162    0.1020 H   0  0  0  0  0  0  0  0  0  0  0  0
    2.3876   -1.0391    1.1812 H   0  0  0  0  0  0  0  0  0  0  0  0
    1.4995   -0.1350    2.4155 H   0  0  0  0  0  0  0  0  0  0  0  0
    1.5174   -1.9025    2.4501 H   0  0  0  0  0  0  0  0  0  0  0  0
   -1.9403   -0.9562    1.0248 H   0  0  0  0  0  0  0  0  0  0  0  0
   -0.3714   -1.0310    3.6548 H   0  0  0  0  0  0  0  0  0  0  0  0
   -2.1981   -0.9486    3.4165 H   0  0  0  0  0  0  0  0  0  0  0  0
  1  2  2  3
  1  6  1  0
  1  7  1  0
  2  3  1  0
  2  8  1  0
  3  4  1  0
  3  9  1  0
  4  5  2  3
  4 10  1  0
  5 11  1  0
  5 12  1  0
 13 14  2  3
 13 19  1  0
 13 20  1  0
 14 15  1  0
 14 21  1  0
 15 16  1  0
 15 17  1  0
 15 22  1  0
 16 23  1  0
 16 24  1  0
 16 25  1  0
 17 18  2  3
 17 26  1  0
 18 27  1  0
 18 28  1  0
M  RAD  1   3   2
M  END
>  <reaction>  (12) 
rxn_1177

>  <mol_properties>  (12) 
{"1": {"label": "*4", "atom_type": "Cd"}, "2": {"label": "*3", "atom_type": "Cs"}, "13": {"label": "*0", "atom_type": "Cd"}, "14": {"label": "*1", "atom_type": "Cs"}, "21": {"label": "*2", "atom_type": "H0"}}

>  <type>  (12) 
unop_8

>  <geom_source>  (12) 
Heuristics

$$$$

     RDKit          3D

 28 26  0  0  0  0  0  0  0  0999 V2000
    0.1903    1.1758   -3.2294 C   0  0  0  0  0  0  0  0  0  0  0  0
    0.5440    0.8091   -2.0081 C   0  0  0  0  0  0  0  0  0  0  0  0
   -0.1871    1.1780   -0.7559 C   0  0  0  0  0  3  0  0  0  0  0  0
    0.6060    2.0065    0.2180 C   0  0  0  0  0  0  0  0  0  0  0  0
    1.7706    2.5875   -0.0234 C   0  0  0  0  0  0  0  0  0  0  0  0
    0.7573    0.8695   -4.0995 H   0  0  0  0  0  0  0  0  0  0  0  0
   -0.6827    1.7959   -3.4036 H   0  0  0  0  0  0  0  0  0  0  0  0
    1.4307    0.1947   -1.8747 H   0  0  0  0  0  0  0  0  0  0  0  0
   -1.1104    1.7110   -1.0061 H   0  0  0  0  0  0  0  0  0  0  0  0
    0.1500    2.1279    1.1967 H   0  0  0  0  0  0  0  0  0  0  0  0
    2.2704    3.1744    0.7366 H   0  0  0  0  0  0  0  0  0  0  0  0
    2.2610    2.5050   -0.9865 H   0  0  0  0  0  0  0  0  0  0  0  0
   -0.2603   -2.1416   -1.3508 C   0  0  0  0  0  0  0  0  0  0  0  0
   -0.2603   -2.1416   -0.0275 C   0  0  0  0  0  0  0  0  0  0  0  0
   -0.2603   -0.9108    0.8419 C   0  0  0  0  0  0  0  0  0  0  0  0
    0.9781   -0.8811    1.7335 C   0  0  0  0  0  0  0  0  0  0  0  0
   -1.5638   -0.8423    1.5984 C   0  0  0  0  0  0  0  0  0  0  0  0
   -1.7184   -0.8420    2.9133 C   0  0  0  0  0  0  0  0  0  0  0  0
   -0.2610   -3.0642   -1.9175 H   0  0  0  0  0  0  0  0  0  0  0  0
   -0.2585   -1.2158   -1.9165 H   0  0  0  0  0  0  0  0  0  0  0  0
   -0.2651   -3.0874    0.5101 H   0  0  0  0  0  0  0  0  0  0  0  0
   -0.2237    0.1335    0.0431 H   0  0  0  0  0  0  0  0  0  0  0  0
    1.8808   -0.8894    1.1222 H   0  0  0  0  0  0  0  0  0  0  0  0
    0.9927    0.0147    2.3566 H   0  0  0  0  0  0  0  0  0  0  0  0
    1.0106   -1.7528    2.3911 H   0  0  0  0  0  0  0  0  0  0  0  0
   -2.4470   -0.8065    0.9659 H   0  0  0  0  0  0  0  0  0  0  0  0
   -0.8781   -0.8814    3.5959 H   0  0  0  0  0  0  0  0  0  0  0  0
   -2.7048   -0.7989    3.3576 H   0  0  0  0  0  0  0  0  0  0  0  0
  1  2  2  3
  1  6  1  0
  1  7  1  0
  2  3  1  0
  2  8  1  0
  3  4  1  0
  3  9  1  0
  4  5  2  3
  4 10  1  0
  5 11  1  0
  5 12  1  0
 13 14  2  3
 13 19  1  0
 13 20  1  0
 14 15  1  0
 14 21  1  0
 15 16  1  0
 15 17  1  0
 15 22  1  0
 16 23  1  0
 16 24  1  0
 16 25  1  0
 17 18  2  3
 17 26  1  0
 18 27  1  0
 18 28  1  0
M  RAD  1   3   2
M  END
>  <reaction>  (13) 
rxn_1177

>  <mol_properties>  (13) 
{"1": {"label": "*4", "atom_type": "Cd"}, "2": {"label": "*3", "atom_type": "Cs"}, "13": {"label": "*0", "atom_type": "Cd"}, "14": {"label": "*1", "atom_type": "Cs"}, "21": {"label": "*2", "atom_type": "H0"}}

>  <type>  (13) 
unop_9

>  <geom_source>  (13) 
Heuristics

$$$$

     RDKit          3D

 28 26  0  0  0  0  0  0  0  0999 V2000
   -2.0912    1.6405   -1.2044 C   0  0  0  0  0  0  0  0  0  0  0  0
   -0.9269    1.0812   -1.4920 C   0  0  0  0  0  0  0  0  0  0  0  0
    0.2778    1.1030   -0.6048 C   0  0  0  0  0  3  0  0  0  0  0  0
    1.4751    1.8075   -1.1825 C   0  0  0  0  0  0  0  0  0  0  0  0
    1.4844    2.5585   -2.2725 C   0  0  0  0  0  0  0  0  0  0  0  0
   -2.9307    1.5837   -1.8859 H   0  0  0  0  0  0  0  0  0  0  0  0
   -2.2477    2.1754   -0.2737 H   0  0  0  0  0  0  0  0  0  0  0  0
   -0.8075    0.5616   -2.4393 H   0  0  0  0  0  0  0  0  0  0  0  0
    0.0250    1.5624    0.3566 H   0  0  0  0  0  0  0  0  0  0  0  0
    2.3991    1.6758   -0.6261 H   0  0  0  0  0  0  0  0  0  0  0  0
    2.3937    3.0364   -2.6141 H   0  0  0  0  0  0  0  0  0  0  0  0
    0.5870    2.7291   -2.8560 H   0  0  0  0  0  0  0  0  0  0  0  0
    0.2046   -2.2167   -1.1997 C   0  0  0  0  0  0  0  0  0  0  0  0
    0.2046   -2.2167    0.1235 C   0  0  0  0  0  0  0  0  0  0  0  0
    0.2046   -0.9859    0.9929 C   0  0  0  0  0  0  0  0  0  0  0  0
    1.4429   -0.9561    1.8845 C   0  0  0  0  0  0  0  0  0  0  0  0
   -1.0990   -0.9173    1.7494 C   0  0  0  0  0  0  0  0  0  0  0  0
   -1.2536   -0.9171    3.0644 C   0  0  0  0  0  0  0  0  0  0  0  0
    0.2038   -3.1393   -1.7664 H   0  0  0  0  0  0  0  0  0  0  0  0
    0.2063   -1.2909   -1.7654 H   0  0  0  0  0  0  0  0  0  0  0  0
    0.1998   -3.1625    0.6612 H   0  0  0  0  0  0  0  0  0  0  0  0
    0.2412    0.0585    0.1941 H   0  0  0  0  0  0  0  0  0  0  0  0
    2.3457   -0.9645    1.2733 H   0  0  0  0  0  0  0  0  0  0  0  0
    1.4576   -0.0603    2.5076 H   0  0  0  0  0  0  0  0  0  0  0  0
    1.4755   -1.8279    2.5421 H   0  0  0  0  0  0  0  0  0  0  0  0
   -1.9821   -0.8816    1.1169 H   0  0  0  0  0  0  0  0  0  0  0  0
   -0.4132   -0.9564    3.7469 H   0  0  0  0  0  0  0  0  0  0  0  0
   -2.2400   -0.8740    3.5086 H   0  0  0  0  0  0  0  0  0  0  0  0
  1  2  2  3
  1  6  1  0
  1  7  1  0
  2  3  1  0
  2  8  1  0
  3  4  1  0
  3  9  1  0
  4  5  2  3
  4 10  1  0
  5 11  1  0
  5 12  1  0
 13 14  2  3
 13 19  1  0
 13 20  1  0
 14 15  1  0
 14 21  1  0
 15 16  1  0
 15 17  1  0
 15 22  1  0
 16 23  1  0
 16 24  1  0
 16 25  1  0
 17 18  2  3
 17 26  1  0
 18 27  1  0
 18 28  1  0
M  RAD  1   3   2
M  END
>  <reaction>  (14) 
rxn_1177

>  <mol_properties>  (14) 
{"1": {"label": "*4", "atom_type": "Cd"}, "2": {"label": "*3", "atom_type": "Cs"}, "13": {"label": "*0", "atom_type": "Cd"}, "14": {"label": "*1", "atom_type": "Cs"}, "21": {"label": "*2", "atom_type": "H0"}}

>  <type>  (14) 
unop_10

>  <geom_source>  (14) 
Heuristics

$$$$

     RDKit          3D

 28 26  0  0  0  0  0  0  0  0999 V2000
    1.7495    3.0105   -0.9952 C   0  0  0  0  0  0  0  0  0  0  0  0
    1.0211    2.0850   -0.3919 C   0  0  0  0  0  0  0  0  0  0  0  0
    0.3113    0.9651   -1.0851 C   0  0  0  0  0  3  0  0  0  0  0  0
   -1.1861    0.9792   -0.9384 C   0  0  0  0  0  0  0  0  0  0  0  0
   -1.9098    1.9727   -0.4471 C   0  0  0  0  0  0  0  0  0  0  0  0
    2.2468    3.7934   -0.4364 H   0  0  0  0  0  0  0  0  0  0  0  0
    1.8766    3.0175   -2.0725 H   0  0  0  0  0  0  0  0  0  0  0  0
    0.9109    2.1179    0.6890 H   0  0  0  0  0  0  0  0  0  0  0  0
    0.5637    0.9661   -2.1507 H   0  0  0  0  0  0  0  0  0  0  0  0
   -1.6907    0.0815   -1.2848 H   0  0  0  0  0  0  0  0  0  0  0  0
   -2.9882    1.9008   -0.3847 H   0  0  0  0  0  0  0  0  0  0  0  0
   -1.4547    2.8926   -0.0983 H   0  0  0  0  0  0  0  0  0  0  0  0
    0.2381   -2.3546   -1.6800 C   0  0  0  0  0  0  0  0  0  0  0  0
    0.2381   -2.3546   -0.3567 C   0  0  0  0  0  0  0  0  0  0  0  0
    0.2381   -1.1238    0.5127 C   0  0  0  0  0  0  0  0  0  0  0  0
    1.4765   -1.0940    1.4043 C   0  0  0  0  0  0  0  0  0  0  0  0
   -1.0654   -1.0552    1.2692 C   0  0  0  0  0  0  0  0  0  0  0  0
   -1.2201   -1.0550    2.5841 C   0  0  0  0  0  0  0  0  0  0  0  0
    0.2373   -3.2772   -2.2467 H   0  0  0  0  0  0  0  0  0  0  0  0
    0.2398   -1.4288   -2.2457 H   0  0  0  0  0  0  0  0  0  0  0  0
    0.2333   -3.3004    0.1809 H   0  0  0  0  0  0  0  0  0  0  0  0
    0.2747   -0.0794   -0.2862 H   0  0  0  0  0  0  0  0  0  0  0  0
    2.3792   -1.1024    0.7930 H   0  0  0  0  0  0  0  0  0  0  0  0
    1.4911   -0.1982    2.0274 H   0  0  0  0  0  0  0  0  0  0  0  0
    1.5090   -1.9658    2.0619 H   0  0  0  0  0  0  0  0  0  0  0  0
   -1.9486   -1.0195    0.6366 H   0  0  0  0  0  0  0  0  0  0  0  0
   -0.3797   -1.0943    3.2666 H   0  0  0  0  0  0  0  0  0  0  0  0
   -2.2065   -1.0119    3.0283 H   0  0  0  0  0  0  0  0  0  0  0  0
  1  2  2  3
  1  6  1  0
  1  7  1  0
  2  3  1  0
  2  8  1  0
  3  4  1  0
  3  9  1  0
  4  5  2  3
  4 10  1  0
  5 11  1  0
  5 12  1  0
 13 14  2  3
 13 19  1  0
 13 20  1  0
 14 15  1  0
 14 21  1  0
 15 16  1  0
 15 17  1  0
 15 22  1  0
 16 23  1  0
 16 24  1  0
 16 25  1  0
 17 18  2  3
 17 26  1  0
 18 27  1  0
 18 28  1  0
M  RAD  1   3   2
M  END
>  <reaction>  (15) 
rxn_1177

>  <mol_properties>  (15) 
{"1": {"label": "*4", "atom_type": "Cd"}, "2": {"label": "*3", "atom_type": "Cs"}, "13": {"label": "*0", "atom_type": "Cd"}, "14": {"label": "*1", "atom_type": "Cs"}, "21": {"label": "*2", "atom_type": "H0"}}

>  <type>  (15) 
unop_11

>  <geom_source>  (15) 
Heuristics

$$$$

     RDKit          3D

 28 26  0  0  0  0  0  0  0  0999 V2000
   -0.9267    1.0383   -2.9335 C   0  0  0  0  0  0  0  0  0  0  0  0
   -0.0244    0.7318   -2.0154 C   0  0  0  0  0  0  0  0  0  0  0  0
   -0.0503    1.2039   -0.5958 C   0  0  0  0  0  3  0  0  0  0  0  0
    1.1214    2.0573   -0.1923 C   0  0  0  0  0  0  0  0  0  0  0  0
    2.0236    2.5760   -1.0102 C   0  0  0  0  0  0  0  0  0  0  0  0
   -0.8575    0.6579   -3.9450 H   0  0  0  0  0  0  0  0  0  0  0  0
   -1.7704    1.6810   -2.7056 H   0  0  0  0  0  0  0  0  0  0  0  0
    0.8115    0.0918   -2.2859 H   0  0  0  0  0  0  0  0  0  0  0  0
   -0.9755    1.7572   -0.4033 H   0  0  0  0  0  0  0  0  0  0  0  0
    1.2011    2.2552    0.8731 H   0  0  0  0  0  0  0  0  0  0  0  0
    2.8337    3.1872   -0.6332 H   0  0  0  0  0  0  0  0  0  0  0  0
    1.9819    2.4165   -2.0815 H   0  0  0  0  0  0  0  0  0  0  0  0
   -0.1235   -2.1157   -1.1907 C   0  0  0  0  0  0  0  0  0  0  0  0
   -0.1235   -2.1157    0.1326 C   0  0  0  0  0  0  0  0  0  0  0  0
   -0.1235   -0.8849    1.0020 C   0  0  0  0  0  0  0  0  0  0  0  0
    1.1149   -0.8551    1.8936 C   0  0  0  0  0  0  0  0  0  0  0  0
   -1.4270   -0.8163    1.7585 C   0  0  0  0  0  0  0  0  0  0  0  0
   -1.5817   -0.8161    3.0734 C   0  0  0  0  0  0  0  0  0  0  0  0
   -0.1243   -3.0383   -1.7574 H   0  0  0  0  0  0  0  0  0  0  0  0
   -0.1217   -1.1899   -1.7564 H   0  0  0  0  0  0  0  0  0  0  0  0
   -0.1283   -3.0615    0.6702 H   0  0  0  0  0  0  0  0  0  0  0  0
   -0.0869    0.1594    0.2032 H   0  0  0  0  0  0  0  0  0  0  0  0
    2.0176   -0.8635    1.2823 H   0  0  0  0  0  0  0  0  0  0  0  0
    1.1295    0.0406    2.5167 H   0  0  0  0  0  0  0  0  0  0  0  0
    1.1474   -1.7269    2.5512 H   0  0  0  0  0  0  0  0  0  0  0  0
   -2.3102   -0.7806    1.1259 H   0  0  0  0  0  0  0  0  0  0  0  0
   -0.7413   -0.8554    3.7560 H   0  0  0  0  0  0  0  0  0  0  0  0
   -2.5681   -0.7730    3.5176 H   0  0  0  0  0  0  0  0  0  0  0  0
  1  2  2  3
  1  6  1  0
  1  7  1  0
  2  3  1  0
  2  8  1  0
  3  4  1  0
  3  9  1  0
  4  5  2  3
  4 10  1  0
  5 11  1  0
  5 12  1  0
 13 14  2  3
 13 19  1  0
 13 20  1  0
 14 15  1  0
 14 21  1  0
 15 16  1  0
 15 17  1  0
 15 22  1  0
 16 23  1  0
 16 24  1  0
 16 25  1  0
 17 18  2  3
 17 26  1  0
 18 27  1  0
 18 28  1  0
M  RAD  1   3   2
M  END
>  <reaction>  (16) 
rxn_1177

>  <mol_properties>  (16) 
{"1": {"label": "*4", "atom_type": "Cd"}, "2": {"label": "*3", "atom_type": "Cs"}, "13": {"label": "*0", "atom_type": "Cd"}, "14": {"label": "*1", "atom_type": "Cs"}, "21": {"label": "*2", "atom_type": "H0"}}

>  <type>  (16) 
unop_12

>  <geom_source>  (16) 
Heuristics

$$$$

     RDKit          3D

 28 24  0  0  0  0  0  0  0  0999 V2000
    1.1993    0.1748   -0.1978 C   0  0  0  0  0  3  0  0  0  0  0  0
   -0.4671    0.4842    0.9610 C   0  0  0  0  0  3  0  0  0  0  0  0
   -1.3811   -0.2752    0.0001 C   0  0  0  0  0  3  0  0  0  0  0  0
    2.0285    0.0315    1.0462 C   0  0  0  0  0  3  0  0  0  0  0  0
    1.8159   -0.5765   -1.3427 C   0  0  0  0  0  0  0  0  0  0  0  0
   -2.0705    0.6325   -0.9850 C   0  0  0  0  0  0  0  0  0  0  0  0
   -2.3598   -1.1460    0.7332 C   0  0  0  0  0  0  0  0  0  0  0  0
    3.1078    0.7874    1.2668 C   0  0  0  0  0  0  0  0  0  0  0  0
    2.8109   -0.0621   -2.0712 C   0  0  0  0  0  3  0  0  0  0  0  0
   -2.9360    1.5813   -0.6100 C   0  0  0  0  0  0  0  0  0  0  0  0
   -2.3993   -2.4594    0.5071 C   0  0  0  0  0  0  0  0  0  0  0  0
    1.0471    1.2458   -0.4568 H   0  0  0  0  0  0  0  0  0  0  0  0
   -0.0774   -0.3901    0.0596 H   0  0  0  0  0  0  0  0  0  0  0  0
    0.0982   -0.2373    1.5879 H   0  0  0  0  0  0  0  0  0  0  0  0
    0.2627    1.0923    0.3859 H   0  0  0  0  0  0  0  0  0  0  0  0
   -1.0558    1.1531    1.6245 H   0  0  0  0  0  0  0  0  0  0  0  0
    1.7346   -0.7041    1.7885 H   0  0  0  0  0  0  0  0  0  0  0  0
    1.4343   -1.5630   -1.5867 H   0  0  0  0  0  0  0  0  0  0  0  0
   -1.8582    0.4988   -2.0408 H   0  0  0  0  0  0  0  0  0  0  0  0
   -3.0505   -0.7030    1.4452 H   0  0  0  0  0  0  0  0  0  0  0  0
    3.6831    0.6586    2.1778 H   0  0  0  0  0  0  0  0  0  0  0  0
    3.4212    1.5399    0.5501 H   0  0  0  0  0  0  0  0  0  0  0  0
    3.2067    0.9263   -1.8607 H   0  0  0  0  0  0  0  0  0  0  0  0
    3.2319   -0.6319   -2.8931 H   0  0  0  0  0  0  0  0  0  0  0  0
   -3.4108    2.2080   -1.3578 H   0  0  0  0  0  0  0  0  0  0  0  0
   -3.1791    1.7378    0.4362 H   0  0  0  0  0  0  0  0  0  0  0  0
   -1.7225   -2.9231   -0.2045 H   0  0  0  0  0  0  0  0  0  0  0  0
   -3.1140   -3.0806    1.0370 H   0  0  0  0  0  0  0  0  0  0  0  0
  1  5  2  3
  1 12  1  0
  2 14  1  0
  2 15  1  0
  2 16  1  0
  3  6  1  0
  3  7  1  0
  3 13  1  0
  4  8  2  3
  4 17  1  0
  5  9  1  0
  5 18  1  0
  6 10  2  3
  6 19  1  0
  7 11  2  3
  7 20  1  0
  8 21  1  0
  8 22  1  0
  9 23  1  0
  9 24  1  0
 10 25  1  0
 10 26  1  0
 11 27  1  0
 11 28  1  0
M  CHG  2   1  -1   9   1
M  RAD  3   2   2   3   2   4   2
M  END
>  <reaction>  (17) 
rxn_1177

>  <mol_properties>  (17) 
{"1": {"label": "*4", "atom_type": "Cd"}, "2": {"label": "*3", "atom_type": "Cs"}, "13": {"label": "*0", "atom_type": "Cd"}, "14": {"label": "*1", "atom_type": "Cs"}, "21": {"label": "*2", "atom_type": "H0"}}

>  <type>  (17) 
unop_13

>  <geom_source>  (17) 
AutoTST

$$$$
