
     RDKit          3D

 12 11  0  0  0  0  0  0  0  0999 V2000
    1.9877    0.1011    0.4814 C   0  0  0  0  0  0  0  0  0  0  0  0
    0.8179    0.5502    0.0525 C   0  0  0  0  0  0  0  0  0  0  0  0
   -0.2939   -0.2692   -0.5320 C   0  0  0  0  0  0  0  0  0  0  0  0
   -0.0292   -1.7631   -0.6328 C   0  0  0  0  0  0  0  0  0  0  0  0
    2.2522   -0.9490    0.4436 H   0  0  0  0  0  0  0  0  0  0  0  0
    2.7295    0.7757    0.8896 H   0  0  0  0  0  0  0  0  0  0  0  0
    0.6162    1.6164    0.1190 H   0  0  0  0  0  0  0  0  0  0  0  0
   -0.5268    0.1319   -1.5245 H   0  0  0  0  0  0  0  0  0  0  0  0
   -1.1959   -0.0938    0.0644 H   0  0  0  0  0  0  0  0  0  0  0  0
    0.1590   -2.1992    0.3502 H   0  0  0  0  0  0  0  0  0  0  0  0
    0.8382   -1.9701   -1.2626 H   0  0  0  0  0  0  0  0  0  0  0  0
   -0.8879   -2.2759   -1.0672 H   0  0  0  0  0  0  0  0  0  0  0  0
  1  2  2  3
  1  5  1  0
  1  6  1  0
  2  3  1  0
  2  7  1  0
  3  4  1  0
  3  8  1  0
  3  9  1  0
  4 10  1  0
  4 11  1  0
  4 12  1  0
M  END
>  <reaction>  (1) 
rxn_1062

>  <mol_properties>  (1) 
{"2": {"label": "donator", "atom_type": "Cs"}, "7": {"label": "d_hydrogen", "atom_type": "H0"}}

>  <type>  (1) 
r1h

$$$$

     RDKit          3D

  6  5  0  0  0  0  0  0  0  0999 V2000
   -0.7309   -0.0987    0.0327 C   0  0  0  0  0  0  0  0  0  0  0  0
    0.6208    0.0065   -0.0096 C   0  0  0  0  0  0  0  0  0  0  0  0
    1.6572   -1.2972    0.2837 S   0  0  0  0  0  1  0  0  0  0  0  0
   -1.3651    0.7588   -0.1608 H   0  0  0  0  0  0  0  0  0  0  0  0
   -1.2044   -1.0453    0.2616 H   0  0  0  0  0  0  0  0  0  0  0  0
    1.0609    0.9725   -0.2426 H   0  0  0  0  0  0  0  0  0  0  0  0
  1  2  2  3
  1  4  1  0
  1  5  1  0
  2  3  1  0
  2  6  1  0
M  RAD  1   3   2
M  END
>  <reaction>  (2) 
rxn_1062

>  <mol_properties>  (2) 
{"0": {"label": "acceptor", "atom_type": "Cs"}}

>  <type>  (2) 
r2

$$$$

     RDKit          3D

  7  6  0  0  0  0  0  0  0  0999 V2000
   -0.6782    0.0507    0.0301 C   0  0  0  0  0  0  0  0  0  0  0  0
    0.8092    0.0996    0.0213 C   0  0  0  0  0  0  0  0  0  0  0  0
    1.7473    0.7521    1.1507 S   0  0  0  0  0  0  0  0  0  0  0  0
   -1.0667    0.5456   -0.8653 H   0  0  0  0  0  0  0  0  0  0  0  0
   -1.0112   -0.9904   -0.0239 H   0  0  0  0  0  0  0  0  0  0  0  0
   -1.0920    0.5225    0.9188 H   0  0  0  0  0  0  0  0  0  0  0  0
    1.2740   -0.3620   -0.8520 H   0  0  0  0  0  0  0  0  0  0  0  0
  1  2  1  0
  1  4  1  0
  1  5  1  0
  1  6  1  0
  2  3  2  0
  2  7  1  0
M  END
>  <reaction>  (3) 
rxn_1062

>  <mol_properties>  (3) 
{"0": {"label": "acceptor", "atom_type": "Cs"}, "6": {"label": "a_hydrogen", "atom_type": "H0"}}

>  <type>  (3) 
r2h

$$$$

     RDKit          3D

 18 16  0  0  0  0  0  0  0  0999 V2000
    0.5926    0.8362    0.9969 C   0  0  0  0  0  0  0  0  0  0  0  0
    1.3754   -0.1123    0.2747 C   0  0  0  0  0  0  0  0  0  0  0  0
    1.3232   -1.7351    0.4933 S   0  0  0  0  0  0  0  0  0  0  0  0
    0.9277    1.8708    0.9745 H   0  0  0  0  0  0  0  0  0  0  0  0
    0.1970    0.5029    1.9523 H   0  0  0  0  0  0  0  0  0  0  0  0
    2.0022    0.2896   -0.5210 H   0  0  0  0  0  0  0  0  0  0  0  0
   -1.1903   -0.4555   -2.3576 C   0  0  0  0  0  0  0  0  0  0  0  0
   -1.6998   -0.2177   -1.1414 C   0  0  0  0  0  0  0  0  0  0  0  0
   -1.6693    1.0557   -0.4561 C   0  0  0  0  0  3  0  0  0  0  0  0
   -1.3775    2.3232   -1.2127 C   0  0  0  0  0  0  0  0  0  0  0  0
   -0.7552    0.3293   -2.9642 H   0  0  0  0  0  0  0  0  0  0  0  0
   -1.2055   -1.4500   -2.7823 H   0  0  0  0  0  0  0  0  0  0  0  0
   -2.1111   -1.0514   -0.5818 H   0  0  0  0  0  0  0  0  0  0  0  0
   -0.5333    0.9119    0.3055 H   0  0  0  0  0  0  0  0  0  0  0  0
   -2.4027    1.1570    0.3406 H   0  0  0  0  0  0  0  0  0  0  0  0
   -2.1618    2.5291   -1.9459 H   0  0  0  0  0  0  0  0  0  0  0  0
   -0.4308    2.2577   -1.7530 H   0  0  0  0  0  0  0  0  0  0  0  0
   -1.3173    3.1744   -0.5344 H   0  0  0  0  0  0  0  0  0  0  0  0
  1  2  1  0
  1  4  1  0
  1  5  1  0
  1 14  1  0
  2  3  2  0
  2  6  1  0
  7  8  2  3
  7 11  1  0
  7 12  1  0
  8  9  1  0
  8 13  1  0
  9 10  1  0
  9 15  1  0
 10 16  1  0
 10 17  1  0
 10 18  1  0
M  RAD  1   9   2
M  END
>  <reaction>  (4) 
rxn_1062

>  <mol_properties>  (4) 
{"0": {"label": "*1", "atom_type": "Cs"}, "1": {"label": "*0", "atom_type": "CS"}, "7": {"label": "*4", "atom_type": "Cd"}, "8": {"label": "*3", "atom_type": "Cs"}, "13": {"label": "*2", "atom_type": "H0"}}

>  <type>  (4) 
ts

$$$$

     RDKit          3D

 18 16  0  0  0  0  0  0  0  0999 V2000
    0.2465   -0.4682    1.1993 C   0  0  0  0  0  0  0  0  0  0  0  0
    1.1287    0.7115    0.9876 C   0  0  0  0  0  0  0  0  0  0  0  0
    2.6775    0.8285    1.3984 S   0  0  0  0  0  0  0  0  0  0  0  0
   -0.6162   -0.1767    1.8063 H   0  0  0  0  0  0  0  0  0  0  0  0
    0.7761   -1.2861    1.6833 H   0  0  0  0  0  0  0  0  0  0  0  0
    0.6431    1.5612    0.5038 H   0  0  0  0  0  0  0  0  0  0  0  0
   -1.8389   -1.5096   -2.6092 C   0  0  0  0  0  0  0  0  0  0  0  0
   -1.8389   -1.5096   -1.2849 C   0  0  0  0  0  0  0  0  0  0  0  0
   -1.8389   -0.3051   -0.3914 C   0  0  0  0  0  3  0  0  0  0  0  0
   -1.8389    1.0407   -1.0991 C   0  0  0  0  0  0  0  0  0  0  0  0
   -1.8389   -0.5927   -3.1866 H   0  0  0  0  0  0  0  0  0  0  0  0
   -1.8389   -2.4369   -3.1679 H   0  0  0  0  0  0  0  0  0  0  0  0
   -1.8389   -2.4653   -0.7667 H   0  0  0  0  0  0  0  0  0  0  0  0
   -0.7956   -0.3867    0.4043 H   0  0  0  0  0  0  0  0  0  0  0  0
   -2.7083   -0.3731    0.2717 H   0  0  0  0  0  0  0  0  0  0  0  0
   -2.7213    1.1557   -1.7315 H   0  0  0  0  0  0  0  0  0  0  0  0
   -0.9565    1.1557   -1.7315 H   0  0  0  0  0  0  0  0  0  0  0  0
   -1.8389    1.8550   -0.3738 H   0  0  0  0  0  0  0  0  0  0  0  0
  1  2  1  0
  1  4  1  0
  1  5  1  0
  1 14  1  0
  2  3  2  0
  2  6  1  0
  7  8  2  3
  7 11  1  0
  7 12  1  0
  8  9  1  0
  8 13  1  0
  9 10  1  0
  9 15  1  0
 10 16  1  0
 10 17  1  0
 10 18  1  0
M  RAD  1   9   2
M  END
>  <reaction>  (5) 
rxn_1062

>  <mol_properties>  (5) 
{"0": {"label": "*1", "atom_type": "Cs"}, "1": {"label": "*0", "atom_type": "CS"}, "7": {"label": "*4", "atom_type": "Cd"}, "8": {"label": "*3", "atom_type": "Cs"}, "13": {"label": "*2", "atom_type": "H0"}}

>  <type>  (5) 
unop_1

>  <geom_source>  (5) 
Heuristics

$$$$

     RDKit          3D

 18 16  0  0  0  0  0  0  0  0999 V2000
    0.3096    0.6058    1.3218 C   0  0  0  0  0  0  0  0  0  0  0  0
    1.4063   -0.1271    0.6328 C   0  0  0  0  0  0  0  0  0  0  0  0
    2.3939   -1.2069    1.2962 S   0  0  0  0  0  0  0  0  0  0  0  0
    0.4790    1.6836    1.2371 H   0  0  0  0  0  0  0  0  0  0  0  0
    0.2355    0.3275    2.3710 H   0  0  0  0  0  0  0  0  0  0  0  0
    1.5221    0.1175   -0.4248 H   0  0  0  0  0  0  0  0  0  0  0  0
   -1.7758   -0.4357   -2.4867 C   0  0  0  0  0  0  0  0  0  0  0  0
   -1.7758   -0.4357   -1.1623 C   0  0  0  0  0  0  0  0  0  0  0  0
   -1.7758    0.7688   -0.2689 C   0  0  0  0  0  3  0  0  0  0  0  0
   -1.7758    2.1146   -0.9766 C   0  0  0  0  0  0  0  0  0  0  0  0
   -1.7758    0.4812   -3.0641 H   0  0  0  0  0  0  0  0  0  0  0  0
   -1.7758   -1.3630   -3.0453 H   0  0  0  0  0  0  0  0  0  0  0  0
   -1.7758   -1.3914   -0.6441 H   0  0  0  0  0  0  0  0  0  0  0  0
   -0.7326    0.6873    0.5269 H   0  0  0  0  0  0  0  0  0  0  0  0
   -2.6452    0.7009    0.3943 H   0  0  0  0  0  0  0  0  0  0  0  0
   -2.6583    2.2296   -1.6090 H   0  0  0  0  0  0  0  0  0  0  0  0
   -0.8934    2.2296   -1.6090 H   0  0  0  0  0  0  0  0  0  0  0  0
   -1.7758    2.9289   -0.2513 H   0  0  0  0  0  0  0  0  0  0  0  0
  1  2  1  0
  1  4  1  0
  1  5  1  0
  1 14  1  0
  2  3  2  0
  2  6  1  0
  7  8  2  3
  7 11  1  0
  7 12  1  0
  8  9  1  0
  8 13  1  0
  9 10  1  0
  9 15  1  0
 10 16  1  0
 10 17  1  0
 10 18  1  0
M  RAD  1   9   2
M  END
>  <reaction>  (6) 
rxn_1062

>  <mol_properties>  (6) 
{"0": {"label": "*1", "atom_type": "Cs"}, "1": {"label": "*0", "atom_type": "CS"}, "7": {"label": "*4", "atom_type": "Cd"}, "8": {"label": "*3", "atom_type": "Cs"}, "13": {"label": "*2", "atom_type": "H0"}}

>  <type>  (6) 
unop_2

>  <geom_source>  (6) 
Heuristics

$$$$

     RDKit          3D

 18 16  0  0  0  0  0  0  0  0999 V2000
    0.4187   -0.6252    1.0003 C   0  0  0  0  0  0  0  0  0  0  0  0
    0.8853    0.7432    1.3529 C   0  0  0  0  0  0  0  0  0  0  0  0
    2.3963    1.1791    1.6819 S   0  0  0  0  0  0  0  0  0  0  0  0
   -0.3406   -0.9502    1.7183 H   0  0  0  0  0  0  0  0  0  0  0  0
    1.2391   -1.3397    0.9855 H   0  0  0  0  0  0  0  0  0  0  0  0
    0.0977    1.4986    1.3813 H   0  0  0  0  0  0  0  0  0  0  0  0
   -1.6667   -1.6667   -2.8081 C   0  0  0  0  0  0  0  0  0  0  0  0
   -1.6667   -1.6667   -1.4838 C   0  0  0  0  0  0  0  0  0  0  0  0
   -1.6667   -0.4622   -0.5903 C   0  0  0  0  0  3  0  0  0  0  0  0
   -1.6667    0.8836   -1.2980 C   0  0  0  0  0  0  0  0  0  0  0  0
   -1.6667   -0.7498   -3.3856 H   0  0  0  0  0  0  0  0  0  0  0  0
   -1.6667   -2.5940   -3.3668 H   0  0  0  0  0  0  0  0  0  0  0  0
   -1.6667   -2.6224   -0.9656 H   0  0  0  0  0  0  0  0  0  0  0  0
   -0.6235   -0.5438    0.2054 H   0  0  0  0  0  0  0  0  0  0  0  0
   -2.5361   -0.5302    0.0728 H   0  0  0  0  0  0  0  0  0  0  0  0
   -2.5492    0.9986   -1.9305 H   0  0  0  0  0  0  0  0  0  0  0  0
   -0.7843    0.9986   -1.9305 H   0  0  0  0  0  0  0  0  0  0  0  0
   -1.6667    1.6979   -0.5727 H   0  0  0  0  0  0  0  0  0  0  0  0
  1  2  1  0
  1  4  1  0
  1  5  1  0
  1 14  1  0
  2  3  2  0
  2  6  1  0
  7  8  2  3
  7 11  1  0
  7 12  1  0
  8  9  1  0
  8 13  1  0
  9 10  1  0
  9 15  1  0
 10 16  1  0
 10 17  1  0
 10 18  1  0
M  RAD  1   9   2
M  END
>  <reaction>  (7) 
rxn_1062

>  <mol_properties>  (7) 
{"0": {"label": "*1", "atom_type": "Cs"}, "1": {"label": "*0", "atom_type": "CS"}, "7": {"label": "*4", "atom_type": "Cd"}, "8": {"label": "*3", "atom_type": "Cs"}, "13": {"label": "*2", "atom_type": "H0"}}

>  <type>  (7) 
unop_3

>  <geom_source>  (7) 
Heuristics

$$$$

     RDKit          3D

 18 16  0  0  0  0  0  0  0  0999 V2000
    1.2359    0.5525    0.5190 C   0  0  0  0  0  0  0  0  0  0  0  0
    1.1453   -0.6890    1.3344 C   0  0  0  0  0  0  0  0  0  0  0  0
    0.4437   -0.8350    2.7724 S   0  0  0  0  0  0  0  0  0  0  0  0
    2.2868    0.7870    0.3234 H   0  0  0  0  0  0  0  0  0  0  0  0
    0.7579    1.3955    1.0134 H   0  0  0  0  0  0  0  0  0  0  0  0
    1.6113   -1.5658    0.8807 H   0  0  0  0  0  0  0  0  0  0  0  0
   -0.8496   -0.4889   -3.2895 C   0  0  0  0  0  0  0  0  0  0  0  0
   -0.8496   -0.4889   -1.9652 C   0  0  0  0  0  0  0  0  0  0  0  0
   -0.8496    0.7156   -1.0717 C   0  0  0  0  0  3  0  0  0  0  0  0
   -0.8496    2.0613   -1.7794 C   0  0  0  0  0  0  0  0  0  0  0  0
   -0.8496    0.4280   -3.8669 H   0  0  0  0  0  0  0  0  0  0  0  0
   -0.8496   -1.4163   -3.8482 H   0  0  0  0  0  0  0  0  0  0  0  0
   -0.8496   -1.4447   -1.4470 H   0  0  0  0  0  0  0  0  0  0  0  0
    0.1937    0.6340   -0.2759 H   0  0  0  0  0  0  0  0  0  0  0  0
   -1.7189    0.6476   -0.4086 H   0  0  0  0  0  0  0  0  0  0  0  0
   -1.7320    2.1763   -2.4118 H   0  0  0  0  0  0  0  0  0  0  0  0
    0.0329    2.1763   -2.4118 H   0  0  0  0  0  0  0  0  0  0  0  0
   -0.8496    2.8757   -1.0541 H   0  0  0  0  0  0  0  0  0  0  0  0
  1  2  1  0
  1  4  1  0
  1  5  1  0
  1 14  1  0
  2  3  2  0
  2  6  1  0
  7  8  2  3
  7 11  1  0
  7 12  1  0
  8  9  1  0
  8 13  1  0
  9 10  1  0
  9 15  1  0
 10 16  1  0
 10 17  1  0
 10 18  1  0
M  RAD  1   9   2
M  END
>  <reaction>  (8) 
rxn_1062

>  <mol_properties>  (8) 
{"0": {"label": "*1", "atom_type": "Cs"}, "1": {"label": "*0", "atom_type": "CS"}, "7": {"label": "*4", "atom_type": "Cd"}, "8": {"label": "*3", "atom_type": "Cs"}, "13": {"label": "*2", "atom_type": "H0"}}

>  <type>  (8) 
unop_4

>  <geom_source>  (8) 
Heuristics

$$$$

     RDKit          3D

 18 16  0  0  0  0  0  0  0  0999 V2000
    0.6711   -0.7224    0.8409 C   0  0  0  0  0  0  0  0  0  0  0  0
    0.7031    0.4598    1.7441 C   0  0  0  0  0  0  0  0  0  0  0  0
    1.8980    1.5257    1.8759 S   0  0  0  0  0  0  0  0  0  0  0  0
    0.5369   -1.6329    1.4331 H   0  0  0  0  0  0  0  0  0  0  0  0
    1.5796   -0.8014    0.2476 H   0  0  0  0  0  0  0  0  0  0  0  0
   -0.1881    0.5837    2.3623 H   0  0  0  0  0  0  0  0  0  0  0  0
   -1.4144   -1.7639   -2.9676 C   0  0  0  0  0  0  0  0  0  0  0  0
   -1.4144   -1.7639   -1.6433 C   0  0  0  0  0  0  0  0  0  0  0  0
   -1.4144   -0.5594   -0.7498 C   0  0  0  0  0  3  0  0  0  0  0  0
   -1.4144    0.7864   -1.4575 C   0  0  0  0  0  0  0  0  0  0  0  0
   -1.4144   -0.8470   -3.5450 H   0  0  0  0  0  0  0  0  0  0  0  0
   -1.4144   -2.6912   -3.5263 H   0  0  0  0  0  0  0  0  0  0  0  0
   -1.4144   -2.7196   -1.1251 H   0  0  0  0  0  0  0  0  0  0  0  0
   -0.3711   -0.6410    0.0460 H   0  0  0  0  0  0  0  0  0  0  0  0
   -2.2837   -0.6274   -0.0867 H   0  0  0  0  0  0  0  0  0  0  0  0
   -2.2968    0.9014   -2.0899 H   0  0  0  0  0  0  0  0  0  0  0  0
   -0.5319    0.9014   -2.0899 H   0  0  0  0  0  0  0  0  0  0  0  0
   -1.4144    1.6007   -0.7322 H   0  0  0  0  0  0  0  0  0  0  0  0
  1  2  1  0
  1  4  1  0
  1  5  1  0
  1 14  1  0
  2  3  2  0
  2  6  1  0
  7  8  2  3
  7 11  1  0
  7 12  1  0
  8  9  1  0
  8 13  1  0
  9 10  1  0
  9 15  1  0
 10 16  1  0
 10 17  1  0
 10 18  1  0
M  RAD  1   9   2
M  END
>  <reaction>  (9) 
rxn_1062

>  <mol_properties>  (9) 
{"0": {"label": "*1", "atom_type": "Cs"}, "1": {"label": "*0", "atom_type": "CS"}, "7": {"label": "*4", "atom_type": "Cd"}, "8": {"label": "*3", "atom_type": "Cs"}, "13": {"label": "*2", "atom_type": "H0"}}

>  <type>  (9) 
unop_5

>  <geom_source>  (9) 
Heuristics

$$$$

     RDKit          3D

 18 16  0  0  0  0  0  0  0  0999 V2000
    1.3533    0.1396    0.3930 C   0  0  0  0  0  0  0  0  0  0  0  0
    0.9774   -0.5887    1.6350 C   0  0  0  0  0  0  0  0  0  0  0  0
    0.2540    0.0387    2.9252 S   0  0  0  0  0  0  0  0  0  0  0  0
    2.4310    0.0479    0.2258 H   0  0  0  0  0  0  0  0  0  0  0  0
    1.0782    1.1910    0.4430 H   0  0  0  0  0  0  0  0  0  0  0  0
    1.2330   -1.6501    1.6345 H   0  0  0  0  0  0  0  0  0  0  0  0
   -0.7321   -0.9018   -3.4155 C   0  0  0  0  0  0  0  0  0  0  0  0
   -0.7321   -0.9018   -2.0912 C   0  0  0  0  0  0  0  0  0  0  0  0
   -0.7321    0.3027   -1.1977 C   0  0  0  0  0  3  0  0  0  0  0  0
   -0.7321    1.6484   -1.9054 C   0  0  0  0  0  0  0  0  0  0  0  0
   -0.7321    0.0151   -3.9930 H   0  0  0  0  0  0  0  0  0  0  0  0
   -0.7321   -1.8291   -3.9742 H   0  0  0  0  0  0  0  0  0  0  0  0
   -0.7321   -1.8575   -1.5730 H   0  0  0  0  0  0  0  0  0  0  0  0
    0.3111    0.2211   -0.4020 H   0  0  0  0  0  0  0  0  0  0  0  0
   -1.6015    0.2347   -0.5346 H   0  0  0  0  0  0  0  0  0  0  0  0
   -1.6146    1.7635   -2.5378 H   0  0  0  0  0  0  0  0  0  0  0  0
    0.1503    1.7635   -2.5378 H   0  0  0  0  0  0  0  0  0  0  0  0
   -0.7321    2.4628   -1.1801 H   0  0  0  0  0  0  0  0  0  0  0  0
  1  2  1  0
  1  4  1  0
  1  5  1  0
  1 14  1  0
  2  3  2  0
  2  6  1  0
  7  8  2  3
  7 11  1  0
  7 12  1  0
  8  9  1  0
  8 13  1  0
  9 10  1  0
  9 15  1  0
 10 16  1  0
 10 17  1  0
 10 18  1  0
M  RAD  1   9   2
M  END
>  <reaction>  (10) 
rxn_1062

>  <mol_properties>  (10) 
{"0": {"label": "*1", "atom_type": "Cs"}, "1": {"label": "*0", "atom_type": "CS"}, "7": {"label": "*4", "atom_type": "Cd"}, "8": {"label": "*3", "atom_type": "Cs"}, "13": {"label": "*2", "atom_type": "H0"}}

>  <type>  (10) 
unop_6

>  <geom_source>  (10) 
Heuristics

$$$$

     RDKit          3D

 18 16  0  0  0  0  0  0  0  0999 V2000
    1.2893   -0.3102    0.4312 C   0  0  0  0  0  0  0  0  0  0  0  0
    0.8349   -0.3385    1.8480 C   0  0  0  0  0  0  0  0  0  0  0  0
    0.4552    0.9342    2.7520 S   0  0  0  0  0  0  0  0  0  0  0  0
    2.2708   -0.7877    0.3512 H   0  0  0  0  0  0  0  0  0  0  0  0
    1.3431    0.7055    0.0451 H   0  0  0  0  0  0  0  0  0  0  0  0
    0.7643   -1.3374    2.2827 H   0  0  0  0  0  0  0  0  0  0  0  0
   -0.7961   -1.3516   -3.3773 C   0  0  0  0  0  0  0  0  0  0  0  0
   -0.7961   -1.3516   -2.0530 C   0  0  0  0  0  0  0  0  0  0  0  0
   -0.7961   -0.1472   -1.1595 C   0  0  0  0  0  3  0  0  0  0  0  0
   -0.7961    1.1986   -1.8672 C   0  0  0  0  0  0  0  0  0  0  0  0
   -0.7961   -0.4347   -3.9547 H   0  0  0  0  0  0  0  0  0  0  0  0
   -0.7961   -2.2790   -3.9360 H   0  0  0  0  0  0  0  0  0  0  0  0
   -0.7961   -2.3074   -1.5348 H   0  0  0  0  0  0  0  0  0  0  0  0
    0.2472   -0.2287   -0.3637 H   0  0  0  0  0  0  0  0  0  0  0  0
   -1.6655   -0.2151   -0.4964 H   0  0  0  0  0  0  0  0  0  0  0  0
   -1.6786    1.3136   -2.4996 H   0  0  0  0  0  0  0  0  0  0  0  0
    0.0863    1.3136   -2.4996 H   0  0  0  0  0  0  0  0  0  0  0  0
   -0.7961    2.0130   -1.1419 H   0  0  0  0  0  0  0  0  0  0  0  0
  1  2  1  0
  1  4  1  0
  1  5  1  0
  1 14  1  0
  2  3  2  0
  2  6  1  0
  7  8  2  3
  7 11  1  0
  7 12  1  0
  8  9  1  0
  8 13  1  0
  9 10  1  0
  9 15  1  0
 10 16  1  0
 10 17  1  0
 10 18  1  0
M  RAD  1   9   2
M  END
>  <reaction>  (11) 
rxn_1062

>  <mol_properties>  (11) 
{"0": {"label": "*1", "atom_type": "Cs"}, "1": {"label": "*0", "atom_type": "CS"}, "7": {"label": "*4", "atom_type": "Cd"}, "8": {"label": "*3", "atom_type": "Cs"}, "13": {"label": "*2", "atom_type": "H0"}}

>  <type>  (11) 
unop_7

>  <geom_source>  (11) 
Heuristics

$$$$

     RDKit          3D

 18 16  0  0  0  0  0  0  0  0999 V2000
    0.1341   -0.1785    1.3765 C   0  0  0  0  0  0  0  0  0  0  0  0
    1.3016    0.4879    0.7382 C   0  0  0  0  0  0  0  0  0  0  0  0
    2.8475    0.2705    1.1180 S   0  0  0  0  0  0  0  0  0  0  0  0
   -0.5412    0.5786    1.7868 H   0  0  0  0  0  0  0  0  0  0  0  0
    0.4415   -0.8620    2.1652 H   0  0  0  0  0  0  0  0  0  0  0  0
    1.0454    1.1855   -0.0616 H   0  0  0  0  0  0  0  0  0  0  0  0
   -1.9513   -1.2200   -2.4320 C   0  0  0  0  0  0  0  0  0  0  0  0
   -1.9513   -1.2200   -1.1076 C   0  0  0  0  0  0  0  0  0  0  0  0
   -1.9513   -0.0155   -0.2142 C   0  0  0  0  0  3  0  0  0  0  0  0
   -1.9513    1.3303   -0.9219 C   0  0  0  0  0  0  0  0  0  0  0  0
   -1.9513   -0.3031   -3.0094 H   0  0  0  0  0  0  0  0  0  0  0  0
   -1.9513   -2.1473   -2.9907 H   0  0  0  0  0  0  0  0  0  0  0  0
   -1.9513   -2.1757   -0.5895 H   0  0  0  0  0  0  0  0  0  0  0  0
   -0.9081   -0.0970    0.5816 H   0  0  0  0  0  0  0  0  0  0  0  0
   -2.8207   -0.0835    0.4489 H   0  0  0  0  0  0  0  0  0  0  0  0
   -2.8338    1.4453   -1.5543 H   0  0  0  0  0  0  0  0  0  0  0  0
   -1.0689    1.4453   -1.5543 H   0  0  0  0  0  0  0  0  0  0  0  0
   -1.9513    2.1446   -0.1966 H   0  0  0  0  0  0  0  0  0  0  0  0
  1  2  1  0
  1  4  1  0
  1  5  1  0
  1 14  1  0
  2  3  2  0
  2  6  1  0
  7  8  2  3
  7 11  1  0
  7 12  1  0
  8  9  1  0
  8 13  1  0
  9 10  1  0
  9 15  1  0
 10 16  1  0
 10 17  1  0
 10 18  1  0
M  RAD  1   9   2
M  END
>  <reaction>  (12) 
rxn_1062

>  <mol_properties>  (12) 
{"0": {"label": "*1", "atom_type": "Cs"}, "1": {"label": "*0", "atom_type": "CS"}, "7": {"label": "*4", "atom_type": "Cd"}, "8": {"label": "*3", "atom_type": "Cs"}, "13": {"label": "*2", "atom_type": "H0"}}

>  <type>  (12) 
unop_8

>  <geom_source>  (12) 
Heuristics

$$$$

     RDKit          3D

 18 16  0  0  0  0  0  0  0  0999 V2000
    0.9684    0.8133    0.7675 C   0  0  0  0  0  0  0  0  0  0  0  0
    1.2934   -0.6170    1.0187 C   0  0  0  0  0  0  0  0  0  0  0  0
    0.9734   -1.4455    2.3576 S   0  0  0  0  0  0  0  0  0  0  0  0
    1.8868    1.3639    0.5415 H   0  0  0  0  0  0  0  0  0  0  0  0
    0.4679    1.2688    1.6194 H   0  0  0  0  0  0  0  0  0  0  0  0
    1.7978   -1.1205    0.1918 H   0  0  0  0  0  0  0  0  0  0  0  0
   -1.1170   -0.2281   -3.0410 C   0  0  0  0  0  0  0  0  0  0  0  0
   -1.1170   -0.2281   -1.7166 C   0  0  0  0  0  0  0  0  0  0  0  0
   -1.1170    0.9764   -0.8232 C   0  0  0  0  0  3  0  0  0  0  0  0
   -1.1170    2.3222   -1.5309 C   0  0  0  0  0  0  0  0  0  0  0  0
   -1.1170    0.6888   -3.6184 H   0  0  0  0  0  0  0  0  0  0  0  0
   -1.1170   -1.1554   -3.5996 H   0  0  0  0  0  0  0  0  0  0  0  0
   -1.1170   -1.1838   -1.1984 H   0  0  0  0  0  0  0  0  0  0  0  0
   -0.0737    0.8948   -0.0274 H   0  0  0  0  0  0  0  0  0  0  0  0
   -1.9864    0.9084   -0.1600 H   0  0  0  0  0  0  0  0  0  0  0  0
   -1.9995    2.4372   -2.1633 H   0  0  0  0  0  0  0  0  0  0  0  0
   -0.2346    2.4372   -2.1633 H   0  0  0  0  0  0  0  0  0  0  0  0
   -1.1170    3.1365   -0.8056 H   0  0  0  0  0  0  0  0  0  0  0  0
  1  2  1  0
  1  4  1  0
  1  5  1  0
  1 14  1  0
  2  3  2  0
  2  6  1  0
  7  8  2  3
  7 11  1  0
  7 12  1  0
  8  9  1  0
  8 13  1  0
  9 10  1  0
  9 15  1  0
 10 16  1  0
 10 17  1  0
 10 18  1  0
M  RAD  1   9   2
M  END
>  <reaction>  (13) 
rxn_1062

>  <mol_properties>  (13) 
{"0": {"label": "*1", "atom_type": "Cs"}, "1": {"label": "*0", "atom_type": "CS"}, "7": {"label": "*4", "atom_type": "Cd"}, "8": {"label": "*3", "atom_type": "Cs"}, "13": {"label": "*2", "atom_type": "H0"}}

>  <type>  (13) 
unop_9

>  <geom_source>  (13) 
Heuristics

$$$$

     RDKit          3D

 18 16  0  0  0  0  0  0  0  0999 V2000
    0.1411    0.2173    1.4338 C   0  0  0  0  0  0  0  0  0  0  0  0
    1.3871    0.1838    0.6208 C   0  0  0  0  0  0  0  0  0  0  0  0
    2.7857   -0.4815    1.0482 S   0  0  0  0  0  0  0  0  0  0  0  0
   -0.1659    1.2558    1.5918 H   0  0  0  0  0  0  0  0  0  0  0  0
    0.2729   -0.2763    2.3943 H   0  0  0  0  0  0  0  0  0  0  0  0
    1.3065    0.6674   -0.3546 H   0  0  0  0  0  0  0  0  0  0  0  0
   -1.9443   -0.8241   -2.3747 C   0  0  0  0  0  0  0  0  0  0  0  0
   -1.9443   -0.8241   -1.0503 C   0  0  0  0  0  0  0  0  0  0  0  0
   -1.9443    0.3804   -0.1569 C   0  0  0  0  0  3  0  0  0  0  0  0
   -1.9443    1.7261   -0.8646 C   0  0  0  0  0  0  0  0  0  0  0  0
   -1.9443    0.0928   -2.9521 H   0  0  0  0  0  0  0  0  0  0  0  0
   -1.9443   -1.7514   -2.9334 H   0  0  0  0  0  0  0  0  0  0  0  0
   -1.9443   -1.7798   -0.5322 H   0  0  0  0  0  0  0  0  0  0  0  0
   -0.9010    0.2988    0.6389 H   0  0  0  0  0  0  0  0  0  0  0  0
   -2.8137    0.3124    0.5063 H   0  0  0  0  0  0  0  0  0  0  0  0
   -2.8268    1.8412   -1.4970 H   0  0  0  0  0  0  0  0  0  0  0  0
   -1.0619    1.8412   -1.4970 H   0  0  0  0  0  0  0  0  0  0  0  0
   -1.9443    2.5405   -0.1393 H   0  0  0  0  0  0  0  0  0  0  0  0
  1  2  1  0
  1  4  1  0
  1  5  1  0
  1 14  1  0
  2  3  2  0
  2  6  1  0
  7  8  2  3
  7 11  1  0
  7 12  1  0
  8  9  1  0
  8 13  1  0
  9 10  1  0
  9 15  1  0
 10 16  1  0
 10 17  1  0
 10 18  1  0
M  RAD  1   9   2
M  END
>  <reaction>  (14) 
rxn_1062

>  <mol_properties>  (14) 
{"0": {"label": "*1", "atom_type": "Cs"}, "1": {"label": "*0", "atom_type": "CS"}, "7": {"label": "*4", "atom_type": "Cd"}, "8": {"label": "*3", "atom_type": "Cs"}, "13": {"label": "*2", "atom_type": "H0"}}

>  <type>  (14) 
unop_10

>  <geom_source>  (14) 
Heuristics

$$$$

     RDKit          3D

 18 16  0  0  0  0  0  0  0  0999 V2000
    1.0354   -0.6500    0.6218 C   0  0  0  0  0  0  0  0  0  0  0  0
    0.7302    0.0210    1.9146 C   0  0  0  0  0  0  0  0  0  0  0  0
    1.0650    1.5446    2.2992 S   0  0  0  0  0  0  0  0  0  0  0  0
    1.6666   -1.5254    0.8030 H   0  0  0  0  0  0  0  0  0  0  0  0
    1.5320    0.0226   -0.0743 H   0  0  0  0  0  0  0  0  0  0  0  0
    0.2304   -0.6134    2.6491 H   0  0  0  0  0  0  0  0  0  0  0  0
   -1.0501   -1.6915   -3.1866 C   0  0  0  0  0  0  0  0  0  0  0  0
   -1.0501   -1.6915   -1.8623 C   0  0  0  0  0  0  0  0  0  0  0  0
   -1.0501   -0.4870   -0.9688 C   0  0  0  0  0  3  0  0  0  0  0  0
   -1.0501    0.8588   -1.6765 C   0  0  0  0  0  0  0  0  0  0  0  0
   -1.0501   -0.7746   -3.7641 H   0  0  0  0  0  0  0  0  0  0  0  0
   -1.0501   -2.6188   -3.7453 H   0  0  0  0  0  0  0  0  0  0  0  0
   -1.0501   -2.6472   -1.3441 H   0  0  0  0  0  0  0  0  0  0  0  0
   -0.0068   -0.5685   -0.1731 H   0  0  0  0  0  0  0  0  0  0  0  0
   -1.9195   -0.5549   -0.3057 H   0  0  0  0  0  0  0  0  0  0  0  0
   -1.9325    0.9738   -2.3090 H   0  0  0  0  0  0  0  0  0  0  0  0
   -0.1676    0.9738   -2.3090 H   0  0  0  0  0  0  0  0  0  0  0  0
   -1.0501    1.6732   -0.9512 H   0  0  0  0  0  0  0  0  0  0  0  0
  1  2  1  0
  1  4  1  0
  1  5  1  0
  1 14  1  0
  2  3  2  0
  2  6  1  0
  7  8  2  3
  7 11  1  0
  7 12  1  0
  8  9  1  0
  8 13  1  0
  9 10  1  0
  9 15  1  0
 10 16  1  0
 10 17  1  0
 10 18  1  0
M  RAD  1   9   2
M  END
>  <reaction>  (15) 
rxn_1062

>  <mol_properties>  (15) 
{"0": {"label": "*1", "atom_type": "Cs"}, "1": {"label": "*0", "atom_type": "CS"}, "7": {"label": "*4", "atom_type": "Cd"}, "8": {"label": "*3", "atom_type": "Cs"}, "13": {"label": "*2", "atom_type": "H0"}}

>  <type>  (15) 
unop_11

>  <geom_source>  (15) 
Heuristics

$$$$

     RDKit          3D

 18 16  0  0  0  0  0  0  0  0999 V2000
    0.6198    0.8369    1.0679 C   0  0  0  0  0  0  0  0  0  0  0  0
    1.3794   -0.4073    0.7685 C   0  0  0  0  0  0  0  0  0  0  0  0
    1.7112   -1.5925    1.8012 S   0  0  0  0  0  0  0  0  0  0  0  0
    1.2436    1.7091    0.8492 H   0  0  0  0  0  0  0  0  0  0  0  0
    0.2934    0.8703    2.1052 H   0  0  0  0  0  0  0  0  0  0  0  0
    1.7298   -0.4889   -0.2622 H   0  0  0  0  0  0  0  0  0  0  0  0
   -1.4656   -0.2046   -2.7405 C   0  0  0  0  0  0  0  0  0  0  0  0
   -1.4656   -0.2046   -1.4162 C   0  0  0  0  0  0  0  0  0  0  0  0
   -1.4656    0.9999   -0.5227 C   0  0  0  0  0  3  0  0  0  0  0  0
   -1.4656    2.3457   -1.2304 C   0  0  0  0  0  0  0  0  0  0  0  0
   -1.4656    0.7123   -3.3180 H   0  0  0  0  0  0  0  0  0  0  0  0
   -1.4656   -1.1319   -3.2992 H   0  0  0  0  0  0  0  0  0  0  0  0
   -1.4656   -1.1603   -0.8980 H   0  0  0  0  0  0  0  0  0  0  0  0
   -0.4224    0.9184    0.2730 H   0  0  0  0  0  0  0  0  0  0  0  0
   -2.3350    0.9320    0.1404 H   0  0  0  0  0  0  0  0  0  0  0  0
   -2.3481    2.4607   -1.8628 H   0  0  0  0  0  0  0  0  0  0  0  0
   -0.5832    2.4607   -1.8628 H   0  0  0  0  0  0  0  0  0  0  0  0
   -1.4656    3.1600   -0.5051 H   0  0  0  0  0  0  0  0  0  0  0  0
  1  2  1  0
  1  4  1  0
  1  5  1  0
  1 14  1  0
  2  3  2  0
  2  6  1  0
  7  8  2  3
  7 11  1  0
  7 12  1  0
  8  9  1  0
  8 13  1  0
  9 10  1  0
  9 15  1  0
 10 16  1  0
 10 17  1  0
 10 18  1  0
M  RAD  1   9   2
M  END
>  <reaction>  (16) 
rxn_1062

>  <mol_properties>  (16) 
{"0": {"label": "*1", "atom_type": "Cs"}, "1": {"label": "*0", "atom_type": "CS"}, "7": {"label": "*4", "atom_type": "Cd"}, "8": {"label": "*3", "atom_type": "Cs"}, "13": {"label": "*2", "atom_type": "H0"}}

>  <type>  (16) 
unop_12

>  <geom_source>  (16) 
Heuristics

$$$$

     RDKit          3D

 18 16  0  0  0  0  0  0  0  0999 V2000
    2.7831   -0.0509    1.9255 S   0  0  0  0  0  0  0  0  0  0  0  0
   -0.7898    1.9254   -0.1577 C   0  0  0  0  0  0  0  0  0  0  0  0
    1.8179   -0.2827   -0.4191 C   0  0  0  0  0  0  0  0  0  0  0  0
   -0.7002    0.4218   -0.3837 C   0  0  0  0  0  3  0  0  0  0  0  0
   -1.8717   -0.3012    0.2155 C   0  0  0  0  0  0  0  0  0  0  0  0
    2.5956   -0.8308    0.7351 C   0  0  0  0  0  0  0  0  0  0  0  0
   -1.9226   -1.6341    0.2042 C   0  0  0  0  0  0  0  0  0  0  0  0
    2.3136    0.6278   -0.8189 H   0  0  0  0  0  0  0  0  0  0  0  0
    1.7653   -1.0424   -1.2267 H   0  0  0  0  0  0  0  0  0  0  0  0
    0.6320    0.0058   -0.0503 H   0  0  0  0  0  0  0  0  0  0  0  0
   -0.8176    2.1466    0.9303 H   0  0  0  0  0  0  0  0  0  0  0  0
   -1.7009    2.3356   -0.6436 H   0  0  0  0  0  0  0  0  0  0  0  0
    0.1035    2.4163   -0.5967 H   0  0  0  0  0  0  0  0  0  0  0  0
   -0.6406    0.2085   -1.4729 H   0  0  0  0  0  0  0  0  0  0  0  0
   -2.6848    0.2547    0.6751 H   0  0  0  0  0  0  0  0  0  0  0  0
    3.0111   -1.8318    0.6812 H   0  0  0  0  0  0  0  0  0  0  0  0
   -1.1237   -2.2195   -0.2416 H   0  0  0  0  0  0  0  0  0  0  0  0
   -2.7702   -2.1492    0.6444 H   0  0  0  0  0  0  0  0  0  0  0  0
  1  6  2  0
  2  4  1  0
  2 11  1  0
  2 12  1  0
  2 13  1  0
  3  6  1  0
  3  8  1  0
  3  9  1  0
  3 10  1  0
  4  5  1  0
  4 14  1  0
  5  7  2  3
  5 15  1  0
  6 16  1  0
  7 17  1  0
  7 18  1  0
M  RAD  1   4   2
M  END
>  <reaction>  (17) 
rxn_1062

>  <mol_properties>  (17) 
{"0": {"label": "*1", "atom_type": "Cs"}, "1": {"label": "*0", "atom_type": "CS"}, "7": {"label": "*4", "atom_type": "Cd"}, "8": {"label": "*3", "atom_type": "Cs"}, "13": {"label": "*2", "atom_type": "H0"}}

>  <type>  (17) 
unop_13

>  <geom_source>  (17) 
AutoTST

$$$$

     RDKit          3D

 18 16  0  0  0  0  0  0  0  0999 V2000
    0.3096    0.6058    1.3218 C   0  0  0  0  0  0  0  0  0  0  0  0
    1.4063   -0.1271    0.6328 C   0  0  0  0  0  0  0  0  0  0  0  0
    2.3939   -1.2069    1.2962 S   0  0  0  0  0  0  0  0  0  0  0  0
    0.4790    1.6836    1.2371 H   0  0  0  0  0  0  0  0  0  0  0  0
    0.2355    0.3275    2.3710 H   0  0  0  0  0  0  0  0  0  0  0  0
    1.5221    0.1175   -0.4248 H   0  0  0  0  0  0  0  0  0  0  0  0
   -1.7758   -0.4357   -2.4867 C   0  0  0  0  0  0  0  0  0  0  0  0
   -1.7758   -0.4357   -1.1623 C   0  0  0  0  0  0  0  0  0  0  0  0
   -1.7758    0.7688   -0.2689 C   0  0  0  0  0  3  0  0  0  0  0  0
   -1.7758    2.1146   -0.9766 C   0  0  0  0  0  0  0  0  0  0  0  0
   -1.7758    0.4812   -3.0641 H   0  0  0  0  0  0  0  0  0  0  0  0
   -1.7758   -1.3630   -3.0454 H   0  0  0  0  0  0  0  0  0  0  0  0
   -1.7758   -1.3914   -0.6441 H   0  0  0  0  0  0  0  0  0  0  0  0
   -0.7326    0.6873    0.5269 H   0  0  0  0  0  0  0  0  0  0  0  0
   -2.6452    0.7009    0.3943 H   0  0  0  0  0  0  0  0  0  0  0  0
   -2.6583    2.2296   -1.6090 H   0  0  0  0  0  0  0  0  0  0  0  0
   -0.8934    2.2296   -1.6090 H   0  0  0  0  0  0  0  0  0  0  0  0
   -1.7758    2.9289   -0.2513 H   0  0  0  0  0  0  0  0  0  0  0  0
  1  2  1  0
  1  4  1  0
  1  5  1  0
  1 14  1  0
  2  3  2  0
  2  6  1  0
  7  8  2  3
  7 11  1  0
  7 12  1  0
  8  9  1  0
  8 13  1  0
  9 10  1  0
  9 15  1  0
 10 16  1  0
 10 17  1  0
 10 18  1  0
M  RAD  1   9   2
M  END
>  <reaction>  (18) 
rxn_1062

>  <mol_properties>  (18) 
{"0": {"label": "*1", "atom_type": "Cs"}, "1": {"label": "*0", "atom_type": "CS"}, "7": {"label": "*4", "atom_type": "Cd"}, "8": {"label": "*3", "atom_type": "Cs"}, "13": {"label": "*2", "atom_type": "H0"}}

>  <type>  (18) 
unop_14

>  <geom_source>  (18) 
gaussian_log

$$$$
