
     RDKit          3D

  9  8  0  0  0  0  0  0  0  0999 V2000
   -2.1022   -0.6873    0.3932 C   0  0  0  0  0  0  0  0  0  0  0  0
   -1.2072   -0.1086   -0.1482 C   0  0  0  0  0  0  0  0  0  0  0  0
   -0.1242    0.6105   -0.8193 C   0  0  0  0  0  0  0  0  0  0  0  0
    1.2067    0.1106   -0.4741 C   0  0  0  0  0  0  0  0  0  0  0  0
    2.3005   -0.2875   -0.2012 C   0  0  0  0  0  0  0  0  0  0  0  0
   -2.8942   -1.2059    0.8778 H   0  0  0  0  0  0  0  0  0  0  0  0
   -0.1862    1.6723   -0.5649 H   0  0  0  0  0  0  0  0  0  0  0  0
   -0.2641    0.5418   -1.9017 H   0  0  0  0  0  0  0  0  0  0  0  0
    3.2709   -0.6459    0.0455 H   0  0  0  0  0  0  0  0  0  0  0  0
  1  2  3  0
  1  6  1  0
  2  3  1  0
  3  4  1  0
  3  7  1  0
  3  8  1  0
  4  5  3  0
  5  9  1  0
M  END
>  <reaction>  (1) 
rxn_1359

>  <mol_properties>  (1) 
{"2": {"label": "donator", "atom_type": "Cs"}, "6": {"label": "d_hydrogen", "atom_type": "H0"}}

>  <type>  (1) 
r1h

$$$$

     RDKit          3D

 14 14  0  0  0  0  0  0  0  0999 V2000
    2.3111    0.1295    0.0255 C   0  0  0  0  0  0  0  0  0  0  0  0
    0.9132    0.0511    0.0101 C   0  0  0  0  0  0  0  0  0  0  0  0
    0.2446   -1.1981    0.0389 C   0  0  0  0  0  3  0  0  0  0  0  0
   -1.1306   -1.2689    0.0235 C   0  0  0  0  0  0  0  0  0  0  0  0
   -1.8967   -0.1062   -0.0209 C   0  0  0  0  0  0  0  0  0  0  0  0
   -1.2644    1.1347   -0.0499 C   0  0  0  0  0  0  0  0  0  0  0  0
    0.1101    1.2180   -0.0350 C   0  0  0  0  0  0  0  0  0  0  0  0
    2.9188   -0.7647    0.0599 H   0  0  0  0  0  0  0  0  0  0  0  0
    2.8158    1.0859    0.0034 H   0  0  0  0  0  0  0  0  0  0  0  0
    0.8353   -2.1058    0.0735 H   0  0  0  0  0  0  0  0  0  0  0  0
   -1.6191   -2.2351    0.0461 H   0  0  0  0  0  0  0  0  0  0  0  0
   -2.9772   -0.1668   -0.0328 H   0  0  0  0  0  0  0  0  0  0  0  0
   -1.8572    2.0404   -0.0845 H   0  0  0  0  0  0  0  0  0  0  0  0
    0.5964    2.1860   -0.0577 H   0  0  0  0  0  0  0  0  0  0  0  0
  1  2  2  3
  1  8  1  0
  1  9  1  0
  2  3  1  0
  2  7  1  0
  3  4  1  0
  3 10  1  0
  4  5  2  0
  4 11  1  0
  5  6  1  0
  5 12  1  0
  6  7  2  0
  6 13  1  0
  7 14  1  0
M  RAD  1   3   2
M  END
>  <reaction>  (2) 
rxn_1359

>  <mol_properties>  (2) 
{"0": {"label": "acceptor", "atom_type": "Cs"}}

>  <type>  (2) 
r2

$$$$

     RDKit          3D

 15 15  0  0  0  0  0  0  0  0999 V2000
    2.2031   -0.2111   -0.1693 C   0  0  0  0  0  0  0  0  0  0  0  0
    0.7140   -0.0314   -0.0623 C   0  0  0  0  0  0  0  0  0  0  0  0
   -0.0114    0.5491   -1.0982 C   0  0  0  0  0  0  0  0  0  0  0  0
   -1.3882    0.6886   -1.0150 C   0  0  0  0  0  0  0  0  0  0  0  0
   -2.0661    0.2493    0.1118 C   0  0  0  0  0  0  0  0  0  0  0  0
   -1.3551   -0.3278    1.1528 C   0  0  0  0  0  0  0  0  0  0  0  0
    0.0216   -0.4648    1.0642 C   0  0  0  0  0  0  0  0  0  0  0  0
    2.6776   -0.1836    0.8122 H   0  0  0  0  0  0  0  0  0  0  0  0
    2.4446   -1.1749   -0.6249 H   0  0  0  0  0  0  0  0  0  0  0  0
    2.6532    0.5664   -0.7875 H   0  0  0  0  0  0  0  0  0  0  0  0
    0.5104    0.8989   -1.9819 H   0  0  0  0  0  0  0  0  0  0  0  0
   -1.9328    1.1452   -1.8322 H   0  0  0  0  0  0  0  0  0  0  0  0
   -3.1409    0.3597    0.1800 H   0  0  0  0  0  0  0  0  0  0  0  0
   -1.8736   -0.6702    2.0398 H   0  0  0  0  0  0  0  0  0  0  0  0
    0.5695   -0.9141    1.8849 H   0  0  0  0  0  0  0  0  0  0  0  0
  1  2  1  0
  1  8  1  0
  1  9  1  0
  1 10  1  0
  2  3  2  0
  2  7  1  0
  3  4  1  0
  3 11  1  0
  4  5  2  0
  4 12  1  0
  5  6  1  0
  5 13  1  0
  6  7  2  0
  6 14  1  0
  7 15  1  0
M  END
>  <reaction>  (3) 
rxn_1359

>  <mol_properties>  (3) 
{"0": {"label": "a_hydrogen", "atom_type": "H0"}, "1": {"label": "acceptor", "atom_type": "Cs"}}

>  <type>  (3) 
r2h

$$$$

     RDKit          3D

 23 22  0  0  0  0  0  0  0  0999 V2000
   -0.3099   -1.3522   -2.1849 C   0  0  0  0  0  0  0  0  0  0  0  0
   -1.1959   -1.0436   -1.4369 C   0  0  0  0  0  0  0  0  0  0  0  0
   -2.1828   -0.6718   -0.4684 C   0  0  0  0  0  0  0  0  0  0  0  0
   -2.8551    0.5800   -0.6658 C   0  0  0  0  0  0  0  0  0  0  0  0
   -3.3945    1.6470   -0.7661 C   0  0  0  0  0  0  0  0  0  0  0  0
    0.4699   -1.6187   -2.8566 H   0  0  0  0  0  0  0  0  0  0  0  0
   -1.4823   -0.5017    0.6434 H   0  0  0  0  0  0  0  0  0  0  0  0
   -2.8531   -1.4846   -0.1916 H   0  0  0  0  0  0  0  0  0  0  0  0
   -3.8831    2.5845   -0.8803 H   0  0  0  0  0  0  0  0  0  0  0  0
   -0.6811   -0.1973    1.7315 C   0  0  0  0  0  0  0  0  0  0  0  0
    0.6218    0.0612    1.1475 C   0  0  0  0  0  0  0  0  0  0  0  0
    0.9093    1.3048    0.5704 C   0  0  0  0  0  3  0  0  0  0  0  0
    2.1234    1.5346   -0.0488 C   0  0  0  0  0  0  0  0  0  0  0  0
    3.0791    0.5287   -0.1086 C   0  0  0  0  0  0  0  0  0  0  0  0
    2.8091   -0.7107    0.4563 C   0  0  0  0  0  0  0  0  0  0  0  0
    1.5938   -0.9440    1.0723 C   0  0  0  0  0  0  0  0  0  0  0  0
   -1.2344    0.6628    2.0987 H   0  0  0  0  0  0  0  0  0  0  0  0
   -0.7748   -1.0847    2.3509 H   0  0  0  0  0  0  0  0  0  0  0  0
    0.1612    2.0880    0.6058 H   0  0  0  0  0  0  0  0  0  0  0  0
    2.3273    2.5020   -0.4901 H   0  0  0  0  0  0  0  0  0  0  0  0
    4.0305    0.7105   -0.5921 H   0  0  0  0  0  0  0  0  0  0  0  0
    3.5505   -1.4987    0.4133 H   0  0  0  0  0  0  0  0  0  0  0  0
    1.3838   -1.9158    1.5036 H   0  0  0  0  0  0  0  0  0  0  0  0
  1  2  3  0
  1  6  1  0
  2  3  1  0
  3  4  1  0
  3  7  1  0
  3  8  1  0
  4  5  3  0
  5  9  1  0
 10 11  2  3
 10 17  1  0
 10 18  1  0
 11 12  1  0
 11 16  1  0
 12 13  1  0
 12 19  1  0
 13 14  2  0
 13 20  1  0
 14 15  1  0
 14 21  1  0
 15 16  2  0
 15 22  1  0
 16 23  1  0
M  RAD  1  12   2
M  END
>  <reaction>  (4) 
rxn_1359

>  <mol_properties>  (4) 
{"1": {"label": "*0", "atom_type": "Ct"}, "2": {"label": "*1", "atom_type": "Cs"}, "6": {"label": "*2", "atom_type": "H0"}, "9": {"label": "*3", "atom_type": "Cd"}, "10": {"label": "*4", "atom_type": "Cd"}}

>  <type>  (4) 
ts

$$$$

     RDKit          3D

 23 22  0  0  0  0  0  0  0  0999 V2000
   -0.0671   -2.1354   -3.7783 C   0  0  0  0  0  0  0  0  0  0  0  0
   -0.0671   -2.1354   -2.5828 C   0  0  0  0  0  0  0  0  0  0  0  0
   -0.0671   -2.1354   -1.1198 C   0  0  0  0  0  3  0  0  0  0  0  0
   -1.3811   -1.8598   -0.5387 C   0  0  0  0  0  0  0  0  0  0  0  0
   -2.4549   -1.6345   -0.0638 C   0  0  0  0  0  0  0  0  0  0  0  0
   -0.0671   -2.1354   -4.8418 H   0  0  0  0  0  0  0  0  0  0  0  0
    0.7910   -1.2410   -0.6888 H   0  0  0  0  0  0  0  0  0  0  0  0
    0.2882   -3.1052   -0.7607 H   0  0  0  0  0  0  0  0  0  0  0  0
   -3.4101   -1.4342    0.3587 H   0  0  0  0  0  0  0  0  0  0  0  0
    1.6467   -0.3491   -0.2590 C   0  0  0  0  0  0  0  0  0  0  0  0
    0.9699    0.6976    0.5822 C   0  0  0  0  0  0  0  0  0  0  0  0
    1.2100    0.7791    1.9504 C   0  0  0  0  0  0  0  0  0  0  0  0
    0.6108    1.7618    2.7232 C   0  0  0  0  0  0  0  0  0  0  0  0
   -0.2441    2.6833    2.1383 C   0  0  0  0  0  0  0  0  0  0  0  0
   -0.4948    2.6114    0.7765 C   0  0  0  0  0  0  0  0  0  0  0  0
    0.1071    1.6265    0.0086 C   0  0  0  0  0  0  0  0  0  0  0  0
    1.8500   -1.2516    0.3184 H   0  0  0  0  0  0  0  0  0  0  0  0
    2.6022    0.0199   -0.6406 H   0  0  0  0  0  0  0  0  0  0  0  0
    1.8743    0.0607    2.4175 H   0  0  0  0  0  0  0  0  0  0  0  0
    0.8102    1.8056    3.7868 H   0  0  0  0  0  0  0  0  0  0  0  0
   -0.7152    3.4499    2.7403 H   0  0  0  0  0  0  0  0  0  0  0  0
   -1.1646    3.3230    0.3098 H   0  0  0  0  0  0  0  0  0  0  0  0
   -0.0978    1.5760   -1.0549 H   0  0  0  0  0  0  0  0  0  0  0  0
  1  2  3  0
  1  6  1  0
  2  3  1  0
  3  4  1  0
  3  8  1  0
  4  5  3  0
  5  9  1  0
  7 10  1  0
 10 11  1  0
 10 17  1  0
 10 18  1  0
 11 12  2  0
 11 16  1  0
 12 13  1  0
 12 19  1  0
 13 14  2  0
 13 20  1  0
 14 15  1  0
 14 21  1  0
 15 16  2  0
 15 22  1  0
 16 23  1  0
M  RAD  1   3   2
M  END
>  <reaction>  (5) 
rxn_1359

>  <mol_properties>  (5) 
{"1": {"label": "*0", "atom_type": "Ct"}, "2": {"label": "*1", "atom_type": "Cs"}, "6": {"label": "*2", "atom_type": "H0"}, "9": {"label": "*3", "atom_type": "Cd"}, "10": {"label": "*4", "atom_type": "Cd"}}

>  <type>  (5) 
unop_1

>  <geom_source>  (5) 
Heuristics

$$$$

     RDKit          3D

 23 22  0  0  0  0  0  0  0  0999 V2000
   -0.8474   -2.2252   -2.0337 C   0  0  0  0  0  0  0  0  0  0  0  0
   -0.8474   -2.2252   -0.8382 C   0  0  0  0  0  0  0  0  0  0  0  0
   -0.8474   -2.2252    0.6248 C   0  0  0  0  0  3  0  0  0  0  0  0
   -2.1614   -1.9496    1.2060 C   0  0  0  0  0  0  0  0  0  0  0  0
   -3.2352   -1.7244    1.6809 C   0  0  0  0  0  0  0  0  0  0  0  0
   -0.8474   -2.2252   -3.0972 H   0  0  0  0  0  0  0  0  0  0  0  0
    0.0108   -1.3308    1.0559 H   0  0  0  0  0  0  0  0  0  0  0  0
   -0.4920   -3.1951    0.9840 H   0  0  0  0  0  0  0  0  0  0  0  0
   -4.1904   -1.5241    2.1033 H   0  0  0  0  0  0  0  0  0  0  0  0
    0.8665   -0.4389    1.4857 C   0  0  0  0  0  0  0  0  0  0  0  0
    0.9947    0.7063    0.5196 C   0  0  0  0  0  0  0  0  0  0  0  0
    0.9552    2.0240    0.9650 C   0  0  0  0  0  0  0  0  0  0  0  0
    1.1033    3.0814    0.0808 C   0  0  0  0  0  0  0  0  0  0  0  0
    1.2928    2.8378   -1.2709 C   0  0  0  0  0  0  0  0  0  0  0  0
    1.3307    1.5296   -1.7287 C   0  0  0  0  0  0  0  0  0  0  0  0
    1.1821    0.4761   -0.8399 C   0  0  0  0  0  0  0  0  0  0  0  0
    0.2515   -0.1668    2.3442 H   0  0  0  0  0  0  0  0  0  0  0  0
    1.8474   -0.7370    1.8646 H   0  0  0  0  0  0  0  0  0  0  0  0
    0.8038    2.2245    2.0198 H   0  0  0  0  0  0  0  0  0  0  0  0
    1.0673    4.0993    0.4488 H   0  0  0  0  0  0  0  0  0  0  0  0
    1.4061    3.6620   -1.9636 H   0  0  0  0  0  0  0  0  0  0  0  0
    1.4735    1.3276   -2.7830 H   0  0  0  0  0  0  0  0  0  0  0  0
    1.2095   -0.5435   -1.2077 H   0  0  0  0  0  0  0  0  0  0  0  0
  1  2  3  0
  1  6  1  0
  2  3  1  0
  3  4  1  0
  3  8  1  0
  4  5  3  0
  5  9  1  0
  7 10  1  0
 10 11  1  0
 10 17  1  0
 10 18  1  0
 11 12  2  0
 11 16  1  0
 12 13  1  0
 12 19  1  0
 13 14  2  0
 13 20  1  0
 14 15  1  0
 14 21  1  0
 15 16  2  0
 15 22  1  0
 16 23  1  0
M  RAD  1   3   2
M  END
>  <reaction>  (6) 
rxn_1359

>  <mol_properties>  (6) 
{"1": {"label": "*0", "atom_type": "Ct"}, "2": {"label": "*1", "atom_type": "Cs"}, "6": {"label": "*2", "atom_type": "H0"}, "9": {"label": "*3", "atom_type": "Cd"}, "10": {"label": "*4", "atom_type": "Cd"}}

>  <type>  (6) 
unop_2

>  <geom_source>  (6) 
Heuristics

$$$$

     RDKit          3D

 23 22  0  0  0  0  0  0  0  0999 V2000
   -0.3086   -1.6788   -4.2434 C   0  0  0  0  0  0  0  0  0  0  0  0
   -0.3086   -1.6788   -3.0479 C   0  0  0  0  0  0  0  0  0  0  0  0
   -0.3086   -1.6788   -1.5849 C   0  0  0  0  0  3  0  0  0  0  0  0
   -1.6226   -1.4032   -1.0037 C   0  0  0  0  0  0  0  0  0  0  0  0
   -2.6964   -1.1780   -0.5288 C   0  0  0  0  0  0  0  0  0  0  0  0
   -0.3086   -1.6788   -5.3069 H   0  0  0  0  0  0  0  0  0  0  0  0
    0.5495   -0.7845   -1.1539 H   0  0  0  0  0  0  0  0  0  0  0  0
    0.0468   -2.6487   -1.2257 H   0  0  0  0  0  0  0  0  0  0  0  0
   -3.6516   -0.9777   -0.1064 H   0  0  0  0  0  0  0  0  0  0  0  0
    1.4053    0.1074   -0.7240 C   0  0  0  0  0  0  0  0  0  0  0  0
    0.9818    0.6777    0.6014 C   0  0  0  0  0  0  0  0  0  0  0  0
    1.8133    0.5925    1.7138 C   0  0  0  0  0  0  0  0  0  0  0  0
    1.4386    1.1437    2.9294 C   0  0  0  0  0  0  0  0  0  0  0  0
    0.2190    1.7914    3.0542 C   0  0  0  0  0  0  0  0  0  0  0  0
   -0.6207    1.8805    1.9545 C   0  0  0  0  0  0  0  0  0  0  0  0
   -0.2407    1.3274    0.7414 C   0  0  0  0  0  0  0  0  0  0  0  0
    2.0634   -0.7523   -0.5940 H   0  0  0  0  0  0  0  0  0  0  0  0
    1.9492    0.8529   -1.3097 H   0  0  0  0  0  0  0  0  0  0  0  0
    2.7674    0.0847    1.6269 H   0  0  0  0  0  0  0  0  0  0  0  0
    2.1004    1.0640    3.7829 H   0  0  0  0  0  0  0  0  0  0  0  0
   -0.0768    2.2203    4.0031 H   0  0  0  0  0  0  0  0  0  0  0  0
   -1.5777    2.3799    2.0416 H   0  0  0  0  0  0  0  0  0  0  0  0
   -0.9057    1.3989   -0.1120 H   0  0  0  0  0  0  0  0  0  0  0  0
  1  2  3  0
  1  6  1  0
  2  3  1  0
  3  4  1  0
  3  8  1  0
  4  5  3  0
  5  9  1  0
  7 10  1  0
 10 11  1  0
 10 17  1  0
 10 18  1  0
 11 12  2  0
 11 16  1  0
 12 13  1  0
 12 19  1  0
 13 14  2  0
 13 20  1  0
 14 15  1  0
 14 21  1  0
 15 16  2  0
 15 22  1  0
 16 23  1  0
M  RAD  1   3   2
M  END
>  <reaction>  (7) 
rxn_1359

>  <mol_properties>  (7) 
{"1": {"label": "*0", "atom_type": "Ct"}, "2": {"label": "*1", "atom_type": "Cs"}, "6": {"label": "*2", "atom_type": "H0"}, "9": {"label": "*3", "atom_type": "Cd"}, "10": {"label": "*4", "atom_type": "Cd"}}

>  <type>  (7) 
unop_3

>  <geom_source>  (7) 
Heuristics

$$$$

     RDKit          3D

 23 22  0  0  0  0  0  0  0  0999 V2000
   -2.0585   -0.8156   -2.5131 C   0  0  0  0  0  0  0  0  0  0  0  0
   -2.0585   -0.8156   -1.3176 C   0  0  0  0  0  0  0  0  0  0  0  0
   -2.0585   -0.8156    0.1454 C   0  0  0  0  0  3  0  0  0  0  0  0
   -3.3725   -0.5400    0.7265 C   0  0  0  0  0  0  0  0  0  0  0  0
   -4.4463   -0.3148    1.2014 C   0  0  0  0  0  0  0  0  0  0  0  0
   -2.0585   -0.8156   -3.5766 H   0  0  0  0  0  0  0  0  0  0  0  0
   -1.2004    0.0788    0.5764 H   0  0  0  0  0  0  0  0  0  0  0  0
   -1.7032   -1.7855    0.5046 H   0  0  0  0  0  0  0  0  0  0  0  0
   -5.4015   -0.1145    1.6239 H   0  0  0  0  0  0  0  0  0  0  0  0
   -0.3447    0.9707    1.0062 C   0  0  0  0  0  0  0  0  0  0  0  0
    1.0476    0.6697    0.5244 C   0  0  0  0  0  0  0  0  0  0  0  0
    2.1243    1.4609    0.9130 C   0  0  0  0  0  0  0  0  0  0  0  0
    3.4133    1.1681    0.4948 C   0  0  0  0  0  0  0  0  0  0  0  0
    3.6483    0.0746   -0.3245 C   0  0  0  0  0  0  0  0  0  0  0  0
    2.5840   -0.7202   -0.7219 C   0  0  0  0  0  0  0  0  0  0  0  0
    1.2972   -0.4227   -0.3007 C   0  0  0  0  0  0  0  0  0  0  0  0
   -0.4817    2.0383    1.1815 H   0  0  0  0  0  0  0  0  0  0  0  0
   -0.5484    0.4537    1.9474 H   0  0  0  0  0  0  0  0  0  0  0  0
    1.9499    2.3203    1.5507 H   0  0  0  0  0  0  0  0  0  0  0  0
    4.2364    1.7986    0.8076 H   0  0  0  0  0  0  0  0  0  0  0  0
    4.6537   -0.1544   -0.6543 H   0  0  0  0  0  0  0  0  0  0  0  0
    2.7552   -1.5741   -1.3656 H   0  0  0  0  0  0  0  0  0  0  0  0
    0.4707   -1.0479   -0.6196 H   0  0  0  0  0  0  0  0  0  0  0  0
  1  2  3  0
  1  6  1  0
  2  3  1  0
  3  4  1  0
  3  8  1  0
  4  5  3  0
  5  9  1  0
  7 10  1  0
 10 11  1  0
 10 17  1  0
 10 18  1  0
 11 12  2  0
 11 16  1  0
 12 13  1  0
 12 19  1  0
 13 14  2  0
 13 20  1  0
 14 15  1  0
 14 21  1  0
 15 16  2  0
 15 22  1  0
 16 23  1  0
M  RAD  1   3   2
M  END
>  <reaction>  (8) 
rxn_1359

>  <mol_properties>  (8) 
{"1": {"label": "*0", "atom_type": "Ct"}, "2": {"label": "*1", "atom_type": "Cs"}, "6": {"label": "*2", "atom_type": "H0"}, "9": {"label": "*3", "atom_type": "Cd"}, "10": {"label": "*4", "atom_type": "Cd"}}

>  <type>  (8) 
unop_4

>  <geom_source>  (8) 
Heuristics

$$$$

     RDKit          3D

 23 22  0  0  0  0  0  0  0  0999 V2000
   -0.7443   -1.1713   -4.4164 C   0  0  0  0  0  0  0  0  0  0  0  0
   -0.7443   -1.1713   -3.2209 C   0  0  0  0  0  0  0  0  0  0  0  0
   -0.7443   -1.1713   -1.7579 C   0  0  0  0  0  3  0  0  0  0  0  0
   -2.0583   -0.8957   -1.1768 C   0  0  0  0  0  0  0  0  0  0  0  0
   -3.1321   -0.6705   -0.7019 C   0  0  0  0  0  0  0  0  0  0  0  0
   -0.7443   -1.1713   -5.4799 H   0  0  0  0  0  0  0  0  0  0  0  0
    0.1138   -0.2769   -1.3269 H   0  0  0  0  0  0  0  0  0  0  0  0
   -0.3889   -2.1412   -1.3987 H   0  0  0  0  0  0  0  0  0  0  0  0
   -4.0873   -0.4702   -0.2794 H   0  0  0  0  0  0  0  0  0  0  0  0
    0.9696    0.6149   -0.8971 C   0  0  0  0  0  0  0  0  0  0  0  0
    1.0088    0.6558    0.6056 C   0  0  0  0  0  0  0  0  0  0  0  0
    2.1675    1.0287    1.2798 C   0  0  0  0  0  0  0  0  0  0  0  0
    2.1978    1.0965    2.6641 C   0  0  0  0  0  0  0  0  0  0  0  0
    1.0646    0.7894    3.4015 C   0  0  0  0  0  0  0  0  0  0  0  0
   -0.0957    0.4130    2.7425 C   0  0  0  0  0  0  0  0  0  0  0  0
   -0.1203    0.3469    1.3580 C   0  0  0  0  0  0  0  0  0  0  0  0
    1.9489    0.3761   -1.3131 H   0  0  0  0  0  0  0  0  0  0  0  0
    0.6670    1.5838   -1.3026 H   0  0  0  0  0  0  0  0  0  0  0  0
    3.0598    1.2673    0.7118 H   0  0  0  0  0  0  0  0  0  0  0  0
    3.1111    1.3871    3.1685 H   0  0  0  0  0  0  0  0  0  0  0  0
    1.0868    0.8390    4.4828 H   0  0  0  0  0  0  0  0  0  0  0  0
   -0.9855    0.1663    3.3086 H   0  0  0  0  0  0  0  0  0  0  0  0
   -1.0313    0.0481    0.8517 H   0  0  0  0  0  0  0  0  0  0  0  0
  1  2  3  0
  1  6  1  0
  2  3  1  0
  3  4  1  0
  3  8  1  0
  4  5  3  0
  5  9  1  0
  7 10  1  0
 10 11  1  0
 10 17  1  0
 10 18  1  0
 11 12  2  0
 11 16  1  0
 12 13  1  0
 12 19  1  0
 13 14  2  0
 13 20  1  0
 14 15  1  0
 14 21  1  0
 15 16  2  0
 15 22  1  0
 16 23  1  0
M  RAD  1   3   2
M  END
>  <reaction>  (9) 
rxn_1359

>  <mol_properties>  (9) 
{"1": {"label": "*0", "atom_type": "Ct"}, "2": {"label": "*1", "atom_type": "Cs"}, "6": {"label": "*2", "atom_type": "H0"}, "9": {"label": "*3", "atom_type": "Cd"}, "10": {"label": "*4", "atom_type": "Cd"}}

>  <type>  (9) 
unop_5

>  <geom_source>  (9) 
Heuristics

$$$$

     RDKit          3D

 23 22  0  0  0  0  0  0  0  0999 V2000
   -2.0274   -0.5330   -3.1547 C   0  0  0  0  0  0  0  0  0  0  0  0
   -2.0274   -0.5330   -1.9592 C   0  0  0  0  0  0  0  0  0  0  0  0
   -2.0274   -0.5330   -0.4962 C   0  0  0  0  0  3  0  0  0  0  0  0
   -3.3414   -0.2573    0.0850 C   0  0  0  0  0  0  0  0  0  0  0  0
   -4.4152   -0.0321    0.5599 C   0  0  0  0  0  0  0  0  0  0  0  0
   -2.0274   -0.5330   -4.2181 H   0  0  0  0  0  0  0  0  0  0  0  0
   -1.1693    0.3614   -0.0651 H   0  0  0  0  0  0  0  0  0  0  0  0
   -1.6720   -1.5028   -0.1370 H   0  0  0  0  0  0  0  0  0  0  0  0
   -5.3704    0.1682    0.9824 H   0  0  0  0  0  0  0  0  0  0  0  0
   -0.3135    1.2533    0.3647 C   0  0  0  0  0  0  0  0  0  0  0  0
    1.0549    0.6564    0.5444 C   0  0  0  0  0  0  0  0  0  0  0  0
    2.0627    1.3633    1.1932 C   0  0  0  0  0  0  0  0  0  0  0  0
    3.3163    0.8040    1.3870 C   0  0  0  0  0  0  0  0  0  0  0  0
    3.5852   -0.4777    0.9316 C   0  0  0  0  0  0  0  0  0  0  0  0
    2.5910   -1.1918    0.2804 C   0  0  0  0  0  0  0  0  0  0  0  0
    1.3393   -0.6275    0.0894 C   0  0  0  0  0  0  0  0  0  0  0  0
   -0.2651    2.3399    0.2850 H   0  0  0  0  0  0  0  0  0  0  0  0
   -0.9548    1.0139    1.2168 H   0  0  0  0  0  0  0  0  0  0  0  0
    1.8630    2.3677    1.5496 H   0  0  0  0  0  0  0  0  0  0  0  0
    4.0867    1.3728    1.8927 H   0  0  0  0  0  0  0  0  0  0  0  0
    4.5642   -0.9154    1.0795 H   0  0  0  0  0  0  0  0  0  0  0  0
    2.7913   -2.1919   -0.0837 H   0  0  0  0  0  0  0  0  0  0  0  0
    0.5693   -1.1923   -0.4241 H   0  0  0  0  0  0  0  0  0  0  0  0
  1  2  3  0
  1  6  1  0
  2  3  1  0
  3  4  1  0
  3  8  1  0
  4  5  3  0
  5  9  1  0
  7 10  1  0
 10 11  1  0
 10 17  1  0
 10 18  1  0
 11 12  2  0
 11 16  1  0
 12 13  1  0
 12 19  1  0
 13 14  2  0
 13 20  1  0
 14 15  1  0
 14 21  1  0
 15 16  2  0
 15 22  1  0
 16 23  1  0
M  RAD  1   3   2
M  END
>  <reaction>  (10) 
rxn_1359

>  <mol_properties>  (10) 
{"1": {"label": "*0", "atom_type": "Ct"}, "2": {"label": "*1", "atom_type": "Cs"}, "6": {"label": "*2", "atom_type": "H0"}, "9": {"label": "*3", "atom_type": "Cd"}, "10": {"label": "*4", "atom_type": "Cd"}}

>  <type>  (10) 
unop_6

>  <geom_source>  (10) 
Heuristics

$$$$

     RDKit          3D

 23 22  0  0  0  0  0  0  0  0999 V2000
   -1.7361   -0.5050   -3.7922 C   0  0  0  0  0  0  0  0  0  0  0  0
   -1.7361   -0.5050   -2.5967 C   0  0  0  0  0  0  0  0  0  0  0  0
   -1.7361   -0.5050   -1.1337 C   0  0  0  0  0  3  0  0  0  0  0  0
   -3.0501   -0.2294   -0.5526 C   0  0  0  0  0  0  0  0  0  0  0  0
   -4.1239   -0.0042   -0.0777 C   0  0  0  0  0  0  0  0  0  0  0  0
   -1.7361   -0.5050   -4.8557 H   0  0  0  0  0  0  0  0  0  0  0  0
   -0.8779    0.3894   -0.7027 H   0  0  0  0  0  0  0  0  0  0  0  0
   -1.3807   -1.4748   -0.7745 H   0  0  0  0  0  0  0  0  0  0  0  0
   -5.0790    0.1962    0.3448 H   0  0  0  0  0  0  0  0  0  0  0  0
   -0.0222    1.2813   -0.2729 C   0  0  0  0  0  0  0  0  0  0  0  0
    1.0516    0.6483    0.5683 C   0  0  0  0  0  0  0  0  0  0  0  0
    1.9314    1.4305    1.3102 C   0  0  0  0  0  0  0  0  0  0  0  0
    2.9030    0.8492    2.1101 C   0  0  0  0  0  0  0  0  0  0  0  0
    3.0128   -0.5311    2.1809 C   0  0  0  0  0  0  0  0  0  0  0  0
    2.1447   -1.3223    1.4442 C   0  0  0  0  0  0  0  0  0  0  0  0
    1.1750   -0.7355    0.6459 C   0  0  0  0  0  0  0  0  0  0  0  0
    0.2873    2.2602   -0.6405 H   0  0  0  0  0  0  0  0  0  0  0  0
   -0.9367    1.4222    0.3090 H   0  0  0  0  0  0  0  0  0  0  0  0
    1.8556    2.5109    1.2584 H   0  0  0  0  0  0  0  0  0  0  0  0
    3.5788    1.4770    2.6776 H   0  0  0  0  0  0  0  0  0  0  0  0
    3.7725   -0.9872    2.8029 H   0  0  0  0  0  0  0  0  0  0  0  0
    2.2244   -2.4014    1.4881 H   0  0  0  0  0  0  0  0  0  0  0  0
    0.5030   -1.3624    0.0706 H   0  0  0  0  0  0  0  0  0  0  0  0
  1  2  3  0
  1  6  1  0
  2  3  1  0
  3  4  1  0
  3  8  1  0
  4  5  3  0
  5  9  1  0
  7 10  1  0
 10 11  1  0
 10 17  1  0
 10 18  1  0
 11 12  2  0
 11 16  1  0
 12 13  1  0
 12 19  1  0
 13 14  2  0
 13 20  1  0
 14 15  1  0
 14 21  1  0
 15 16  2  0
 15 22  1  0
 16 23  1  0
M  RAD  1   3   2
M  END
>  <reaction>  (11) 
rxn_1359

>  <mol_properties>  (11) 
{"1": {"label": "*0", "atom_type": "Ct"}, "2": {"label": "*1", "atom_type": "Cs"}, "6": {"label": "*2", "atom_type": "H0"}, "9": {"label": "*3", "atom_type": "Cd"}, "10": {"label": "*4", "atom_type": "Cd"}}

>  <type>  (11) 
unop_7

>  <geom_source>  (11) 
Heuristics

$$$$

     RDKit          3D

 23 22  0  0  0  0  0  0  0  0999 V2000
   -0.0905   -2.4201   -3.1409 C   0  0  0  0  0  0  0  0  0  0  0  0
   -0.0905   -2.4201   -1.9454 C   0  0  0  0  0  0  0  0  0  0  0  0
   -0.0905   -2.4201   -0.4824 C   0  0  0  0  0  3  0  0  0  0  0  0
   -1.4045   -2.1445    0.0987 C   0  0  0  0  0  0  0  0  0  0  0  0
   -2.4783   -1.9193    0.5736 C   0  0  0  0  0  0  0  0  0  0  0  0
   -0.0905   -2.4201   -4.2044 H   0  0  0  0  0  0  0  0  0  0  0  0
    0.7676   -1.5257   -0.0514 H   0  0  0  0  0  0  0  0  0  0  0  0
    0.2649   -3.3900   -0.1232 H   0  0  0  0  0  0  0  0  0  0  0  0
   -3.4335   -1.7190    0.9961 H   0  0  0  0  0  0  0  0  0  0  0  0
    1.6234   -0.6338    0.3784 C   0  0  0  0  0  0  0  0  0  0  0  0
    0.9704    0.7088    0.5581 C   0  0  0  0  0  0  0  0  0  0  0  0
    0.7927    1.2523    1.8267 C   0  0  0  0  0  0  0  0  0  0  0  0
    0.2185    2.5030    1.9936 C   0  0  0  0  0  0  0  0  0  0  0  0
   -0.1914    3.2344    0.8893 C   0  0  0  0  0  0  0  0  0  0  0  0
   -0.0235    2.7031   -0.3802 C   0  0  0  0  0  0  0  0  0  0  0  0
    0.5514    1.4519   -0.5412 C   0  0  0  0  0  0  0  0  0  0  0  0
    1.4362   -1.2837    1.2339 H   0  0  0  0  0  0  0  0  0  0  0  0
    2.7064   -0.5267    0.2771 H   0  0  0  0  0  0  0  0  0  0  0  0
    1.1068    0.6863    2.6965 H   0  0  0  0  0  0  0  0  0  0  0  0
    0.0878    2.9061    2.9903 H   0  0  0  0  0  0  0  0  0  0  0  0
   -0.6425    4.2101    1.0175 H   0  0  0  0  0  0  0  0  0  0  0  0
   -0.3443    3.2634   -1.2497 H   0  0  0  0  0  0  0  0  0  0  0  0
    0.6753    1.0432   -1.5378 H   0  0  0  0  0  0  0  0  0  0  0  0
  1  2  3  0
  1  6  1  0
  2  3  1  0
  3  4  1  0
  3  8  1  0
  4  5  3  0
  5  9  1  0
  7 10  1  0
 10 11  1  0
 10 17  1  0
 10 18  1  0
 11 12  2  0
 11 16  1  0
 12 13  1  0
 12 19  1  0
 13 14  2  0
 13 20  1  0
 14 15  1  0
 14 21  1  0
 15 16  2  0
 15 22  1  0
 16 23  1  0
M  RAD  1   3   2
M  END
>  <reaction>  (12) 
rxn_1359

>  <mol_properties>  (12) 
{"1": {"label": "*0", "atom_type": "Ct"}, "2": {"label": "*1", "atom_type": "Cs"}, "6": {"label": "*2", "atom_type": "H0"}, "9": {"label": "*3", "atom_type": "Cd"}, "10": {"label": "*4", "atom_type": "Cd"}}

>  <type>  (12) 
unop_8

>  <geom_source>  (12) 
Heuristics

$$$$

     RDKit          3D

 23 22  0  0  0  0  0  0  0  0999 V2000
   -1.8207   -1.2773   -2.0404 C   0  0  0  0  0  0  0  0  0  0  0  0
   -1.8207   -1.2773   -0.8449 C   0  0  0  0  0  0  0  0  0  0  0  0
   -1.8207   -1.2773    0.6181 C   0  0  0  0  0  3  0  0  0  0  0  0
   -3.1347   -1.0017    1.1993 C   0  0  0  0  0  0  0  0  0  0  0  0
   -4.2085   -0.7765    1.6742 C   0  0  0  0  0  0  0  0  0  0  0  0
   -1.8207   -1.2773   -3.1039 H   0  0  0  0  0  0  0  0  0  0  0  0
   -0.9626   -0.3829    1.0491 H   0  0  0  0  0  0  0  0  0  0  0  0
   -1.4653   -2.2471    0.9773 H   0  0  0  0  0  0  0  0  0  0  0  0
   -5.1637   -0.5761    2.0966 H   0  0  0  0  0  0  0  0  0  0  0  0
   -0.1069    0.5090    1.4790 C   0  0  0  0  0  0  0  0  0  0  0  0
    1.0321    0.6845    0.5129 C   0  0  0  0  0  0  0  0  0  0  0  0
    1.9340    1.7345    0.6555 C   0  0  0  0  0  0  0  0  0  0  0  0
    3.0024    1.8814   -0.2157 C   0  0  0  0  0  0  0  0  0  0  0  0
    3.1870    0.9771   -1.2503 C   0  0  0  0  0  0  0  0  0  0  0  0
    2.2938   -0.0718   -1.4059 C   0  0  0  0  0  0  0  0  0  0  0  0
    1.2272   -0.2138   -0.5317 C   0  0  0  0  0  0  0  0  0  0  0  0
   -0.4377    1.4674    1.8806 H   0  0  0  0  0  0  0  0  0  0  0  0
    0.1952   -0.1154    2.3237 H   0  0  0  0  0  0  0  0  0  0  0  0
    1.7957    2.4488    1.4594 H   0  0  0  0  0  0  0  0  0  0  0  0
    3.6911    2.7073   -0.0875 H   0  0  0  0  0  0  0  0  0  0  0  0
    4.0191    1.0914   -1.9333 H   0  0  0  0  0  0  0  0  0  0  0  0
    2.4255   -0.7814   -2.2133 H   0  0  0  0  0  0  0  0  0  0  0  0
    0.5318   -1.0352   -0.6636 H   0  0  0  0  0  0  0  0  0  0  0  0
  1  2  3  0
  1  6  1  0
  2  3  1  0
  3  4  1  0
  3  8  1  0
  4  5  3  0
  5  9  1  0
  7 10  1  0
 10 11  1  0
 10 17  1  0
 10 18  1  0
 11 12  2  0
 11 16  1  0
 12 13  1  0
 12 19  1  0
 13 14  2  0
 13 20  1  0
 14 15  1  0
 14 21  1  0
 15 16  2  0
 15 22  1  0
 16 23  1  0
M  RAD  1   3   2
M  END
>  <reaction>  (13) 
rxn_1359

>  <mol_properties>  (13) 
{"1": {"label": "*0", "atom_type": "Ct"}, "2": {"label": "*1", "atom_type": "Cs"}, "6": {"label": "*2", "atom_type": "H0"}, "9": {"label": "*3", "atom_type": "Cd"}, "10": {"label": "*4", "atom_type": "Cd"}}

>  <type>  (13) 
unop_9

>  <geom_source>  (13) 
Heuristics

$$$$

     RDKit          3D

 23 22  0  0  0  0  0  0  0  0999 V2000
   -0.3758   -2.4540   -2.5017 C   0  0  0  0  0  0  0  0  0  0  0  0
   -0.3758   -2.4540   -1.3062 C   0  0  0  0  0  0  0  0  0  0  0  0
   -0.3758   -2.4540    0.1568 C   0  0  0  0  0  3  0  0  0  0  0  0
   -1.6898   -2.1784    0.7379 C   0  0  0  0  0  0  0  0  0  0  0  0
   -2.7636   -1.9532    1.2128 C   0  0  0  0  0  0  0  0  0  0  0  0
   -0.3758   -2.4540   -3.5652 H   0  0  0  0  0  0  0  0  0  0  0  0
    0.4823   -1.5596    0.5878 H   0  0  0  0  0  0  0  0  0  0  0  0
   -0.0205   -3.4238    0.5159 H   0  0  0  0  0  0  0  0  0  0  0  0
   -3.7188   -1.7528    1.6353 H   0  0  0  0  0  0  0  0  0  0  0  0
    1.3380   -0.6677    1.0176 C   0  0  0  0  0  0  0  0  0  0  0  0
    0.9797    0.7110    0.5358 C   0  0  0  0  0  0  0  0  0  0  0  0
    0.6940    1.7309    1.4382 C   0  0  0  0  0  0  0  0  0  0  0  0
    0.3929    3.0105    0.9978 C   0  0  0  0  0  0  0  0  0  0  0  0
    0.3706    3.2928   -0.3595 C   0  0  0  0  0  0  0  0  0  0  0  0
    0.6500    2.2849   -1.2696 C   0  0  0  0  0  0  0  0  0  0  0  0
    0.9505    1.0072   -0.8235 C   0  0  0  0  0  0  0  0  0  0  0  0
    0.8538   -0.8941    1.9682 H   0  0  0  0  0  0  0  0  0  0  0  0
    2.4169   -0.7564    1.1683 H   0  0  0  0  0  0  0  0  0  0  0  0
    0.7055    1.5189    2.5015 H   0  0  0  0  0  0  0  0  0  0  0  0
    0.1716    3.7888    1.7176 H   0  0  0  0  0  0  0  0  0  0  0  0
    0.1331    4.2906   -0.7057 H   0  0  0  0  0  0  0  0  0  0  0  0
    0.6308    2.4928   -2.3323 H   0  0  0  0  0  0  0  0  0  0  0  0
    1.1640    0.2246   -1.5430 H   0  0  0  0  0  0  0  0  0  0  0  0
  1  2  3  0
  1  6  1  0
  2  3  1  0
  3  4  1  0
  3  8  1  0
  4  5  3  0
  5  9  1  0
  7 10  1  0
 10 11  1  0
 10 17  1  0
 10 18  1  0
 11 12  2  0
 11 16  1  0
 12 13  1  0
 12 19  1  0
 13 14  2  0
 13 20  1  0
 14 15  1  0
 14 21  1  0
 15 16  2  0
 15 22  1  0
 16 23  1  0
M  RAD  1   3   2
M  END
>  <reaction>  (14) 
rxn_1359

>  <mol_properties>  (14) 
{"1": {"label": "*0", "atom_type": "Ct"}, "2": {"label": "*1", "atom_type": "Cs"}, "6": {"label": "*2", "atom_type": "H0"}, "9": {"label": "*3", "atom_type": "Cd"}, "10": {"label": "*4", "atom_type": "Cd"}}

>  <type>  (14) 
unop_10

>  <geom_source>  (14) 
Heuristics

$$$$

     RDKit          3D

 23 22  0  0  0  0  0  0  0  0999 V2000
   -1.2645   -0.7397   -4.2539 C   0  0  0  0  0  0  0  0  0  0  0  0
   -1.2645   -0.7397   -3.0584 C   0  0  0  0  0  0  0  0  0  0  0  0
   -1.2645   -0.7397   -1.5954 C   0  0  0  0  0  3  0  0  0  0  0  0
   -2.5785   -0.4641   -1.0142 C   0  0  0  0  0  0  0  0  0  0  0  0
   -3.6523   -0.2389   -0.5393 C   0  0  0  0  0  0  0  0  0  0  0  0
   -1.2645   -0.7397   -5.3174 H   0  0  0  0  0  0  0  0  0  0  0  0
   -0.4064    0.1547   -1.1644 H   0  0  0  0  0  0  0  0  0  0  0  0
   -0.9091   -1.7096   -1.2362 H   0  0  0  0  0  0  0  0  0  0  0  0
   -4.6075   -0.0386   -0.1169 H   0  0  0  0  0  0  0  0  0  0  0  0
    0.4494    1.0466   -0.7345 C   0  0  0  0  0  0  0  0  0  0  0  0
    1.0366    0.6470    0.5909 C   0  0  0  0  0  0  0  0  0  0  0  0
    1.9716    1.4552    1.2304 C   0  0  0  0  0  0  0  0  0  0  0  0
    2.4922    1.1044    2.4664 C   0  0  0  0  0  0  0  0  0  0  0  0
    2.0857   -0.0672    3.0864 C   0  0  0  0  0  0  0  0  0  0  0  0
    1.1572   -0.8834    2.4587 C   0  0  0  0  0  0  0  0  0  0  0  0
    0.6400   -0.5276    1.2226 C   0  0  0  0  0  0  0  0  0  0  0  0
    1.1542    1.6397   -1.3181 H   0  0  0  0  0  0  0  0  0  0  0  0
   -0.4506    1.6504   -0.5926 H   0  0  0  0  0  0  0  0  0  0  0  0
    2.2983    2.3716    0.7517 H   0  0  0  0  0  0  0  0  0  0  0  0
    3.2205    1.7472    2.9453 H   0  0  0  0  0  0  0  0  0  0  0  0
    2.4929   -0.3444    4.0504 H   0  0  0  0  0  0  0  0  0  0  0  0
    0.8361   -1.8033    2.9315 H   0  0  0  0  0  0  0  0  0  0  0  0
   -0.0829   -1.1742    0.7379 H   0  0  0  0  0  0  0  0  0  0  0  0
  1  2  3  0
  1  6  1  0
  2  3  1  0
  3  4  1  0
  3  8  1  0
  4  5  3  0
  5  9  1  0
  7 10  1  0
 10 11  1  0
 10 17  1  0
 10 18  1  0
 11 12  2  0
 11 16  1  0
 12 13  1  0
 12 19  1  0
 13 14  2  0
 13 20  1  0
 14 15  1  0
 14 21  1  0
 15 16  2  0
 15 22  1  0
 16 23  1  0
M  RAD  1   3   2
M  END
>  <reaction>  (15) 
rxn_1359

>  <mol_properties>  (15) 
{"1": {"label": "*0", "atom_type": "Ct"}, "2": {"label": "*1", "atom_type": "Cs"}, "6": {"label": "*2", "atom_type": "H0"}, "9": {"label": "*3", "atom_type": "Cd"}, "10": {"label": "*4", "atom_type": "Cd"}}

>  <type>  (15) 
unop_11

>  <geom_source>  (15) 
Heuristics

$$$$

     RDKit          3D

 23 22  0  0  0  0  0  0  0  0999 V2000
   -1.3772   -1.7940   -1.8645 C   0  0  0  0  0  0  0  0  0  0  0  0
   -1.3772   -1.7940   -0.6690 C   0  0  0  0  0  0  0  0  0  0  0  0
   -1.3772   -1.7940    0.7940 C   0  0  0  0  0  3  0  0  0  0  0  0
   -2.6912   -1.5184    1.3752 C   0  0  0  0  0  0  0  0  0  0  0  0
   -3.7649   -1.2932    1.8501 C   0  0  0  0  0  0  0  0  0  0  0  0
   -1.3772   -1.7940   -2.9279 H   0  0  0  0  0  0  0  0  0  0  0  0
   -0.5190   -0.8996    1.2251 H   0  0  0  0  0  0  0  0  0  0  0  0
   -1.0218   -2.7638    1.1532 H   0  0  0  0  0  0  0  0  0  0  0  0
   -4.7201   -1.0928    2.2726 H   0  0  0  0  0  0  0  0  0  0  0  0
    0.3367   -0.0077    1.6549 C   0  0  0  0  0  0  0  0  0  0  0  0
    1.0129    0.6971    0.5116 C   0  0  0  0  0  0  0  0  0  0  0  0
    1.4672    2.0054    0.6476 C   0  0  0  0  0  0  0  0  0  0  0  0
    2.1178    2.6474   -0.3947 C   0  0  0  0  0  0  0  0  0  0  0  0
    2.3249    1.9892   -1.5973 C   0  0  0  0  0  0  0  0  0  0  0  0
    1.8744    0.6866   -1.7475 C   0  0  0  0  0  0  0  0  0  0  0  0
    1.2243    0.0495   -0.7018 C   0  0  0  0  0  0  0  0  0  0  0  0
   -0.1967    0.6959    2.2949 H   0  0  0  0  0  0  0  0  0  0  0  0
    1.0699   -0.5277    2.2767 H   0  0  0  0  0  0  0  0  0  0  0  0
    1.3066    2.5295    1.5831 H   0  0  0  0  0  0  0  0  0  0  0  0
    2.4613    3.6666   -0.2678 H   0  0  0  0  0  0  0  0  0  0  0  0
    2.8305    2.4895   -2.4135 H   0  0  0  0  0  0  0  0  0  0  0  0
    2.0264    0.1645   -2.6840 H   0  0  0  0  0  0  0  0  0  0  0  0
    0.8723   -0.9680   -0.8299 H   0  0  0  0  0  0  0  0  0  0  0  0
  1  2  3  0
  1  6  1  0
  2  3  1  0
  3  4  1  0
  3  8  1  0
  4  5  3  0
  5  9  1  0
  7 10  1  0
 10 11  1  0
 10 17  1  0
 10 18  1  0
 11 12  2  0
 11 16  1  0
 12 13  1  0
 12 19  1  0
 13 14  2  0
 13 20  1  0
 14 15  1  0
 14 21  1  0
 15 16  2  0
 15 22  1  0
 16 23  1  0
M  RAD  1   3   2
M  END
>  <reaction>  (16) 
rxn_1359

>  <mol_properties>  (16) 
{"1": {"label": "*0", "atom_type": "Ct"}, "2": {"label": "*1", "atom_type": "Cs"}, "6": {"label": "*2", "atom_type": "H0"}, "9": {"label": "*3", "atom_type": "Cd"}, "10": {"label": "*4", "atom_type": "Cd"}}

>  <type>  (16) 
unop_12

>  <geom_source>  (16) 
Heuristics

$$$$

     RDKit          3D

 23 22  0  0  0  0  0  0  0  0999 V2000
    0.1698   -1.0100   -0.4991 C   0  0  0  0  0  0  0  0  0  0  0  0
   -1.1247   -0.3415   -0.1474 C   0  0  0  0  0  0  0  0  0  0  0  0
   -1.1352    0.7706    0.7094 C   0  0  0  0  0  0  0  0  0  0  0  0
   -2.3411   -0.8619   -0.6181 C   0  0  0  0  0  0  0  0  0  0  0  0
   -2.3465    1.3721    1.0661 C   0  0  0  0  0  0  0  0  0  0  0  0
   -3.5504   -0.2576   -0.2592 C   0  0  0  0  0  0  0  0  0  0  0  0
   -3.5530    0.8600    0.5802 C   0  0  0  0  0  0  0  0  0  0  0  0
    2.4851    0.1582   -0.8113 C   0  0  0  0  0  3  0  0  0  0  0  0
    3.2221   -1.0751   -0.5294 C   0  0  0  0  0  0  0  0  0  0  0  0
    2.8699    1.1950    0.1483 C   0  0  0  0  0  0  0  0  0  0  0  0
    3.8280   -2.0918   -0.2987 C   0  0  0  0  0  0  0  0  0  0  0  0
    3.1853    2.0500    0.9378 C   0  0  0  0  0  0  0  0  0  0  0  0
    0.3808   -1.8157    0.2346 H   0  0  0  0  0  0  0  0  0  0  0  0
    0.1179   -1.4504   -1.5176 H   0  0  0  0  0  0  0  0  0  0  0  0
    1.1388   -0.1589   -0.4803 H   0  0  0  0  0  0  0  0  0  0  0  0
   -0.2084    1.1714    1.1007 H   0  0  0  0  0  0  0  0  0  0  0  0
   -2.3529   -1.7328   -1.2618 H   0  0  0  0  0  0  0  0  0  0  0  0
   -2.3501    2.2329    1.7223 H   0  0  0  0  0  0  0  0  0  0  0  0
   -4.4855   -0.6581   -0.6289 H   0  0  0  0  0  0  0  0  0  0  0  0
   -4.4896    1.3257    0.8582 H   0  0  0  0  0  0  0  0  0  0  0  0
    2.7177    0.5016   -1.8405 H   0  0  0  0  0  0  0  0  0  0  0  0
    4.3598   -2.9840   -0.0961 H   0  0  0  0  0  0  0  0  0  0  0  0
    3.4623    2.8003    1.6309 H   0  0  0  0  0  0  0  0  0  0  0  0
  1  2  1  0
  1 13  1  0
  1 14  1  0
  1 15  1  0
  2  3  2  0
  2  4  1  0
  3  5  1  0
  3 16  1  0
  4  6  2  0
  4 17  1  0
  5  7  2  0
  5 18  1  0
  6  7  1  0
  6 19  1  0
  7 20  1  0
  8  9  1  0
  8 10  1  0
  8 21  1  0
  9 11  3  0
 10 12  3  0
 11 22  1  0
 12 23  1  0
M  RAD  1   8   2
M  END
>  <reaction>  (17) 
rxn_1359

>  <mol_properties>  (17) 
{"1": {"label": "*0", "atom_type": "Ct"}, "2": {"label": "*1", "atom_type": "Cs"}, "6": {"label": "*2", "atom_type": "H0"}, "9": {"label": "*3", "atom_type": "Cd"}, "10": {"label": "*4", "atom_type": "Cd"}}

>  <type>  (17) 
unop_13

>  <geom_source>  (17) 
AutoTST

$$$$

     RDKit          3D

 23 22  0  0  0  0  0  0  0  0999 V2000
   -0.8474   -2.2252   -2.0337 C   0  0  0  0  0  0  0  0  0  0  0  0
   -0.8474   -2.2252   -0.8382 C   0  0  0  0  0  0  0  0  0  0  0  0
   -0.8474   -2.2252    0.6248 C   0  0  0  0  0  3  0  0  0  0  0  0
   -2.1614   -1.9496    1.2060 C   0  0  0  0  0  0  0  0  0  0  0  0
   -3.2352   -1.7244    1.6809 C   0  0  0  0  0  0  0  0  0  0  0  0
   -0.8474   -2.2252   -3.0972 H   0  0  0  0  0  0  0  0  0  0  0  0
    0.0107   -1.3308    1.0558 H   0  0  0  0  0  0  0  0  0  0  0  0
   -0.4920   -3.1951    0.9840 H   0  0  0  0  0  0  0  0  0  0  0  0
   -4.1903   -1.5241    2.1033 H   0  0  0  0  0  0  0  0  0  0  0  0
    0.8665   -0.4389    1.4857 C   0  0  0  0  0  0  0  0  0  0  0  0
    0.9947    0.7063    0.5196 C   0  0  0  0  0  0  0  0  0  0  0  0
    0.9552    2.0240    0.9650 C   0  0  0  0  0  0  0  0  0  0  0  0
    1.1033    3.0814    0.0808 C   0  0  0  0  0  0  0  0  0  0  0  0
    1.2928    2.8378   -1.2709 C   0  0  0  0  0  0  0  0  0  0  0  0
    1.3308    1.5296   -1.7287 C   0  0  0  0  0  0  0  0  0  0  0  0
    1.1821    0.4761   -0.8398 C   0  0  0  0  0  0  0  0  0  0  0  0
    0.2515   -0.1668    2.3442 H   0  0  0  0  0  0  0  0  0  0  0  0
    1.8474   -0.7370    1.8646 H   0  0  0  0  0  0  0  0  0  0  0  0
    0.8038    2.2245    2.0198 H   0  0  0  0  0  0  0  0  0  0  0  0
    1.0673    4.0993    0.4488 H   0  0  0  0  0  0  0  0  0  0  0  0
    1.4061    3.6620   -1.9636 H   0  0  0  0  0  0  0  0  0  0  0  0
    1.4735    1.3276   -2.7830 H   0  0  0  0  0  0  0  0  0  0  0  0
    1.2095   -0.5435   -1.2077 H   0  0  0  0  0  0  0  0  0  0  0  0
  1  2  3  0
  1  6  1  0
  2  3  1  0
  3  4  1  0
  3  8  1  0
  4  5  3  0
  5  9  1  0
  7 10  1  0
 10 11  1  0
 10 17  1  0
 10 18  1  0
 11 12  2  0
 11 16  1  0
 12 13  1  0
 12 19  1  0
 13 14  2  0
 13 20  1  0
 14 15  1  0
 14 21  1  0
 15 16  2  0
 15 22  1  0
 16 23  1  0
M  RAD  1   3   2
M  END
>  <reaction>  (18) 
rxn_1359

>  <mol_properties>  (18) 
{"1": {"label": "*0", "atom_type": "Ct"}, "2": {"label": "*1", "atom_type": "Cs"}, "6": {"label": "*2", "atom_type": "H0"}, "9": {"label": "*3", "atom_type": "Cd"}, "10": {"label": "*4", "atom_type": "Cd"}}

>  <type>  (18) 
unop_14

>  <geom_source>  (18) 
gaussian_log

$$$$
