
     RDKit          3D

  9  8  0  0  0  0  0  0  0  0999 V2000
   -2.1022   -0.6873    0.3932 C   0  0  0  0  0  0  0  0  0  0  0  0
   -1.2072   -0.1086   -0.1482 C   0  0  0  0  0  0  0  0  0  0  0  0
   -0.1242    0.6105   -0.8193 C   0  0  0  0  0  0  0  0  0  0  0  0
    1.2067    0.1106   -0.4741 C   0  0  0  0  0  0  0  0  0  0  0  0
    2.3005   -0.2875   -0.2012 C   0  0  0  0  0  0  0  0  0  0  0  0
   -2.8942   -1.2059    0.8778 H   0  0  0  0  0  0  0  0  0  0  0  0
   -0.1862    1.6723   -0.5649 H   0  0  0  0  0  0  0  0  0  0  0  0
   -0.2641    0.5418   -1.9017 H   0  0  0  0  0  0  0  0  0  0  0  0
    3.2709   -0.6459    0.0455 H   0  0  0  0  0  0  0  0  0  0  0  0
  1  2  3  0
  1  6  1  0
  2  3  1  0
  3  4  1  0
  3  7  1  0
  3  8  1  0
  4  5  3  0
  5  9  1  0
M  END
>  <reaction>  (1) 
rxn_1353

>  <mol_properties>  (1) 
{"2": {"label": "donator", "atom_type": "Cs"}, "6": {"label": "d_hydrogen", "atom_type": "H0"}}

>  <type>  (1) 
r1h

$$$$

     RDKit          3D

 12 11  0  0  0  0  0  0  0  0999 V2000
   -2.3791    0.4612   -0.5870 C   0  0  0  0  0  0  0  0  0  0  0  0
   -1.3422   -0.3138   -0.1893 C   0  0  0  0  0  0  0  0  0  0  0  0
   -1.4723   -1.6058    0.3589 C   0  0  0  0  0  3  0  0  0  0  0  0
   -0.3798   -2.3973    0.7671 C   0  0  0  0  0  0  0  0  0  0  0  0
   -0.4849   -3.6397    1.2956 C   0  0  0  0  0  0  0  0  0  0  0  0
   -2.2205    1.4472   -1.0017 H   0  0  0  0  0  0  0  0  0  0  0  0
   -3.4026    0.1153   -0.5011 H   0  0  0  0  0  0  0  0  0  0  0  0
   -0.3330    0.0765   -0.2952 H   0  0  0  0  0  0  0  0  0  0  0  0
   -2.4723   -2.0151    0.4735 H   0  0  0  0  0  0  0  0  0  0  0  0
    0.6117   -1.9687    0.6436 H   0  0  0  0  0  0  0  0  0  0  0  0
    0.3893   -4.2030    1.5920 H   0  0  0  0  0  0  0  0  0  0  0  0
   -1.4516   -4.1084    1.4378 H   0  0  0  0  0  0  0  0  0  0  0  0
  1  2  2  3
  1  6  1  0
  1  7  1  0
  2  3  1  0
  2  8  1  0
  3  4  1  0
  3  9  1  0
  4  5  2  3
  4 10  1  0
  5 11  1  0
  5 12  1  0
M  RAD  1   3   2
M  END
>  <reaction>  (2) 
rxn_1353

>  <mol_properties>  (2) 
{"2": {"label": "acceptor", "atom_type": "Cs"}}

>  <type>  (2) 
r2

$$$$

     RDKit          3D

 13 12  0  0  0  0  0  0  0  0999 V2000
    3.0977   -0.3549   -0.5105 C   0  0  0  0  0  0  0  0  0  0  0  0
    2.0556    0.4221   -0.2627 C   0  0  0  0  0  0  0  0  0  0  0  0
    0.6313   -0.0354   -0.2366 C   0  0  0  0  0  0  0  0  0  0  0  0
   -0.2567    0.6038   -1.2694 C   0  0  0  0  0  0  0  0  0  0  0  0
    0.1459    1.3456   -2.2891 C   0  0  0  0  0  0  0  0  0  0  0  0
    4.1081    0.0344   -0.5074 H   0  0  0  0  0  0  0  0  0  0  0  0
    2.9777   -1.4116   -0.7243 H   0  0  0  0  0  0  0  0  0  0  0  0
    2.2171    1.4781   -0.0618 H   0  0  0  0  0  0  0  0  0  0  0  0
    0.5865   -1.1233   -0.3540 H   0  0  0  0  0  0  0  0  0  0  0  0
    0.2065    0.1743    0.7521 H   0  0  0  0  0  0  0  0  0  0  0  0
   -1.3190    0.4126   -1.1445 H   0  0  0  0  0  0  0  0  0  0  0  0
    1.1948    1.5564   -2.4628 H   0  0  0  0  0  0  0  0  0  0  0  0
   -0.5644    1.7621   -2.9918 H   0  0  0  0  0  0  0  0  0  0  0  0
  1  2  2  3
  1  6  1  0
  1  7  1  0
  2  3  1  0
  2  8  1  0
  3  4  1  0
  3  9  1  0
  3 10  1  0
  4  5  2  3
  4 11  1  0
  5 12  1  0
  5 13  1  0
M  END
>  <reaction>  (3) 
rxn_1353

>  <mol_properties>  (3) 
{"0": {"label": "a_hydrogen", "atom_type": "H0"}, "3": {"label": "acceptor", "atom_type": "Cs"}}

>  <type>  (3) 
r2h

$$$$

     RDKit          3D

 21 19  0  0  0  0  0  0  0  0999 V2000
   -0.9532    0.5850   -2.4421 C   0  0  0  0  0  0  0  0  0  0  0  0
   -0.8078   -0.2676   -1.6082 C   0  0  0  0  0  0  0  0  0  0  0  0
   -0.5672   -1.2244   -0.5818 C   0  0  0  0  0  3  0  0  0  0  0  0
   -1.6342   -1.5579    0.3014 C   0  0  0  0  0  0  0  0  0  0  0  0
   -2.4936   -1.8225    1.0981 C   0  0  0  0  0  0  0  0  0  0  0  0
   -1.1039    1.3215   -3.1941 H   0  0  0  0  0  0  0  0  0  0  0  0
    0.3445   -0.5459    0.2434 H   0  0  0  0  0  0  0  0  0  0  0  0
    0.0594   -2.0628   -0.8799 H   0  0  0  0  0  0  0  0  0  0  0  0
   -3.2708   -2.0635    1.7825 H   0  0  0  0  0  0  0  0  0  0  0  0
   -0.5851    1.7304    1.9074 C   0  0  0  0  0  0  0  0  0  0  0  0
    0.3988    1.4619    1.0502 C   0  0  0  0  0  0  0  0  0  0  0  0
    1.1134    0.1868    1.0150 C   0  0  0  0  0  0  0  0  0  0  0  0
    2.4315    0.0681    0.3829 C   0  0  0  0  0  0  0  0  0  0  0  0
    2.9696    0.9015   -0.5072 C   0  0  0  0  0  0  0  0  0  0  0  0
   -1.1186    2.6711    1.8761 H   0  0  0  0  0  0  0  0  0  0  0  0
   -0.8861    1.0141    2.6635 H   0  0  0  0  0  0  0  0  0  0  0  0
    0.6524    2.2002    0.2976 H   0  0  0  0  0  0  0  0  0  0  0  0
    1.0089   -0.3940    1.9311 H   0  0  0  0  0  0  0  0  0  0  0  0
    2.9870   -0.8277    0.6445 H   0  0  0  0  0  0  0  0  0  0  0  0
    3.9392    0.6958   -0.9411 H   0  0  0  0  0  0  0  0  0  0  0  0
    2.4743    1.8081   -0.8312 H   0  0  0  0  0  0  0  0  0  0  0  0
  1  2  3  0
  1  6  1  0
  2  3  1  0
  3  4  1  0
  3  8  1  0
  4  5  3  0
  5  9  1  0
  7 12  1  0
 10 11  2  3
 10 15  1  0
 10 16  1  0
 11 12  1  0
 11 17  1  0
 12 13  1  0
 12 18  1  0
 13 14  2  3
 13 19  1  0
 14 20  1  0
 14 21  1  0
M  RAD  1   3   2
M  END
>  <reaction>  (4) 
rxn_1353

>  <mol_properties>  (4) 
{"1": {"label": "*4", "atom_type": "Ct"}, "2": {"label": "*3", "atom_type": "Cs"}, "6": {"label": "*2", "atom_type": "H0"}, "10": {"label": "*0", "atom_type": "Cd"}, "11": {"label": "*1", "atom_type": "Cs"}}

>  <type>  (4) 
ts

$$$$

     RDKit          3D

 21 19  0  0  0  0  0  0  0  0999 V2000
   -0.6891   -1.3968   -3.1038 C   0  0  0  0  0  0  0  0  0  0  0  0
   -0.6891   -1.3968   -1.9083 C   0  0  0  0  0  0  0  0  0  0  0  0
   -0.6891   -1.3968   -0.4453 C   0  0  0  0  0  0  0  0  0  0  0  0
   -2.0032   -1.1212    0.1358 C   0  0  0  0  0  0  0  0  0  0  0  0
   -3.0769   -0.8960    0.6107 C   0  0  0  0  0  0  0  0  0  0  0  0
   -0.6891   -1.3968   -4.1673 H   0  0  0  0  0  0  0  0  0  0  0  0
    0.1690   -0.5024   -0.0143 H   0  0  0  0  0  0  0  0  0  0  0  0
   -0.3338   -2.3667   -0.0862 H   0  0  0  0  0  0  0  0  0  0  0  0
   -4.0321   -0.6957    1.0332 H   0  0  0  0  0  0  0  0  0  0  0  0
   -0.0127    1.2580    2.5222 C   0  0  0  0  0  0  0  0  0  0  0  0
    0.3036    1.4072    1.2460 C   0  0  0  0  0  0  0  0  0  0  0  0
    1.0292    0.3942    0.4178 C   0  0  0  0  0  3  0  0  0  0  0  0
    2.3618    0.8491   -0.1124 C   0  0  0  0  0  0  0  0  0  0  0  0
    3.0109    1.9437    0.2516 C   0  0  0  0  0  0  0  0  0  0  0  0
   -0.5471    2.0261    3.0670 H   0  0  0  0  0  0  0  0  0  0  0  0
    0.2505    0.3588    3.0692 H   0  0  0  0  0  0  0  0  0  0  0  0
    0.0298    2.3271    0.7357 H   0  0  0  0  0  0  0  0  0  0  0  0
    1.1717   -0.5261    0.9940 H   0  0  0  0  0  0  0  0  0  0  0  0
    2.8104    0.1929   -0.8533 H   0  0  0  0  0  0  0  0  0  0  0  0
    3.9731    2.1918   -0.1781 H   0  0  0  0  0  0  0  0  0  0  0  0
    2.6106    2.6246    0.9940 H   0  0  0  0  0  0  0  0  0  0  0  0
  1  2  3  0
  1  6  1  0
  2  3  1  0
  3  4  1  0
  3  7  1  0
  3  8  1  0
  4  5  3  0
  5  9  1  0
 10 11  2  3
 10 15  1  0
 10 16  1  0
 11 12  1  0
 11 17  1  0
 12 13  1  0
 12 18  1  0
 13 14  2  3
 13 19  1  0
 14 20  1  0
 14 21  1  0
M  RAD  1  12   2
M  END
>  <reaction>  (5) 
rxn_1353

>  <mol_properties>  (5) 
{"1": {"label": "*4", "atom_type": "Ct"}, "2": {"label": "*3", "atom_type": "Cs"}, "6": {"label": "*2", "atom_type": "H0"}, "10": {"label": "*0", "atom_type": "Cd"}, "11": {"label": "*1", "atom_type": "Cs"}}

>  <type>  (5) 
unop_1

>  <geom_source>  (5) 
Heuristics

$$$$

     RDKit          3D

 21 19  0  0  0  0  0  0  0  0999 V2000
   -0.8770   -1.3376   -2.7856 C   0  0  0  0  0  0  0  0  0  0  0  0
   -0.8770   -1.3376   -1.5901 C   0  0  0  0  0  0  0  0  0  0  0  0
   -0.8770   -1.3376   -0.1271 C   0  0  0  0  0  0  0  0  0  0  0  0
   -2.1911   -1.0620    0.4540 C   0  0  0  0  0  0  0  0  0  0  0  0
   -3.2648   -0.8368    0.9289 C   0  0  0  0  0  0  0  0  0  0  0  0
   -0.8770   -1.3376   -3.8491 H   0  0  0  0  0  0  0  0  0  0  0  0
   -0.0189   -0.4432    0.3039 H   0  0  0  0  0  0  0  0  0  0  0  0
   -0.5217   -2.3074    0.2321 H   0  0  0  0  0  0  0  0  0  0  0  0
   -4.2200   -0.6364    1.3514 H   0  0  0  0  0  0  0  0  0  0  0  0
    0.3549    2.7509   -0.1274 C   0  0  0  0  0  0  0  0  0  0  0  0
    0.9287    1.5659   -0.2607 C   0  0  0  0  0  0  0  0  0  0  0  0
    0.8413    0.4534    0.7360 C   0  0  0  0  0  3  0  0  0  0  0  0
    2.1569    0.0388    1.3369 C   0  0  0  0  0  0  0  0  0  0  0  0
    3.3043    0.6884    1.2199 C   0  0  0  0  0  0  0  0  0  0  0  0
    0.4483    3.5145   -0.8894 H   0  0  0  0  0  0  0  0  0  0  0  0
   -0.2321    3.0000    0.7502 H   0  0  0  0  0  0  0  0  0  0  0  0
    1.5163    1.3582   -1.1513 H   0  0  0  0  0  0  0  0  0  0  0  0
    0.1534    0.7281    1.5426 H   0  0  0  0  0  0  0  0  0  0  0  0
    2.1274   -0.8763    1.9220 H   0  0  0  0  0  0  0  0  0  0  0  0
    4.2055    0.3206    1.6938 H   0  0  0  0  0  0  0  0  0  0  0  0
    3.3834    1.6107    0.6561 H   0  0  0  0  0  0  0  0  0  0  0  0
  1  2  3  0
  1  6  1  0
  2  3  1  0
  3  4  1  0
  3  7  1  0
  3  8  1  0
  4  5  3  0
  5  9  1  0
 10 11  2  3
 10 15  1  0
 10 16  1  0
 11 12  1  0
 11 17  1  0
 12 13  1  0
 12 18  1  0
 13 14  2  3
 13 19  1  0
 14 20  1  0
 14 21  1  0
M  RAD  1  12   2
M  END
>  <reaction>  (6) 
rxn_1353

>  <mol_properties>  (6) 
{"1": {"label": "*4", "atom_type": "Ct"}, "2": {"label": "*3", "atom_type": "Cs"}, "6": {"label": "*2", "atom_type": "H0"}, "10": {"label": "*0", "atom_type": "Cd"}, "11": {"label": "*1", "atom_type": "Cs"}}

>  <type>  (6) 
unop_2

>  <geom_source>  (6) 
Heuristics

$$$$

     RDKit          3D

 21 19  0  0  0  0  0  0  0  0999 V2000
   -0.6807   -1.3815   -3.1327 C   0  0  0  0  0  0  0  0  0  0  0  0
   -0.6807   -1.3815   -1.9373 C   0  0  0  0  0  0  0  0  0  0  0  0
   -0.6807   -1.3815   -0.4743 C   0  0  0  0  0  0  0  0  0  0  0  0
   -1.9947   -1.1059    0.1069 C   0  0  0  0  0  0  0  0  0  0  0  0
   -3.0685   -0.8807    0.5818 C   0  0  0  0  0  0  0  0  0  0  0  0
   -0.6807   -1.3815   -4.1962 H   0  0  0  0  0  0  0  0  0  0  0  0
    0.1774   -0.4871   -0.0432 H   0  0  0  0  0  0  0  0  0  0  0  0
   -0.3254   -2.3514   -0.1151 H   0  0  0  0  0  0  0  0  0  0  0  0
   -4.0237   -0.6804    1.0043 H   0  0  0  0  0  0  0  0  0  0  0  0
    0.9365    0.4743    2.8881 C   0  0  0  0  0  0  0  0  0  0  0  0
    0.5679    0.9414    1.7061 C   0  0  0  0  0  0  0  0  0  0  0  0
    1.0377    0.4095    0.3889 C   0  0  0  0  0  3  0  0  0  0  0  0
    1.8091    1.3916   -0.4502 C   0  0  0  0  0  0  0  0  0  0  0  0
    2.2675    2.5664   -0.0479 C   0  0  0  0  0  0  0  0  0  0  0  0
    0.5545    0.8975    3.8087 H   0  0  0  0  0  0  0  0  0  0  0  0
    1.6342   -0.3515    2.9778 H   0  0  0  0  0  0  0  0  0  0  0  0
   -0.1265    1.7763    1.6587 H   0  0  0  0  0  0  0  0  0  0  0  0
    1.6517   -0.4838    0.5446 H   0  0  0  0  0  0  0  0  0  0  0  0
    1.9989    1.0743   -1.4719 H   0  0  0  0  0  0  0  0  0  0  0  0
    2.8218    3.2096   -0.7194 H   0  0  0  0  0  0  0  0  0  0  0  0
    2.1134    2.9234    0.9639 H   0  0  0  0  0  0  0  0  0  0  0  0
  1  2  3  0
  1  6  1  0
  2  3  1  0
  3  4  1  0
  3  7  1  0
  3  8  1  0
  4  5  3  0
  5  9  1  0
 10 11  2  3
 10 15  1  0
 10 16  1  0
 11 12  1  0
 11 17  1  0
 12 13  1  0
 12 18  1  0
 13 14  2  3
 13 19  1  0
 14 20  1  0
 14 21  1  0
M  RAD  1  12   2
M  END
>  <reaction>  (7) 
rxn_1353

>  <mol_properties>  (7) 
{"1": {"label": "*4", "atom_type": "Ct"}, "2": {"label": "*3", "atom_type": "Cs"}, "6": {"label": "*2", "atom_type": "H0"}, "10": {"label": "*0", "atom_type": "Cd"}, "11": {"label": "*1", "atom_type": "Cs"}}

>  <type>  (7) 
unop_3

>  <geom_source>  (7) 
Heuristics

$$$$

     RDKit          3D

 21 19  0  0  0  0  0  0  0  0999 V2000
   -0.9296   -0.8237   -3.1001 C   0  0  0  0  0  0  0  0  0  0  0  0
   -0.9296   -0.8237   -1.9046 C   0  0  0  0  0  0  0  0  0  0  0  0
   -0.9296   -0.8237   -0.4416 C   0  0  0  0  0  0  0  0  0  0  0  0
   -2.2436   -0.5481    0.1396 C   0  0  0  0  0  0  0  0  0  0  0  0
   -3.3173   -0.3229    0.6145 C   0  0  0  0  0  0  0  0  0  0  0  0
   -0.9296   -0.8237   -4.1635 H   0  0  0  0  0  0  0  0  0  0  0  0
   -0.0714    0.0707   -0.0105 H   0  0  0  0  0  0  0  0  0  0  0  0
   -0.5742   -1.7935   -0.0824 H   0  0  0  0  0  0  0  0  0  0  0  0
   -4.2725   -0.1225    1.0370 H   0  0  0  0  0  0  0  0  0  0  0  0
    3.1260    1.4891   -0.3036 C   0  0  0  0  0  0  0  0  0  0  0  0
    2.1526    0.6195   -0.0861 C   0  0  0  0  0  0  0  0  0  0  0  0
    0.7888    0.9673    0.4216 C   0  0  0  0  0  3  0  0  0  0  0  0
    0.4341    0.3557    1.7496 C   0  0  0  0  0  0  0  0  0  0  0  0
    1.2695   -0.2644    2.5681 C   0  0  0  0  0  0  0  0  0  0  0  0
    4.0916    1.1761   -0.6805 H   0  0  0  0  0  0  0  0  0  0  0  0
    2.9911    2.5487   -0.1139 H   0  0  0  0  0  0  0  0  0  0  0  0
    2.3303   -0.4352   -0.2803 H   0  0  0  0  0  0  0  0  0  0  0  0
    0.6830    2.0550    0.4919 H   0  0  0  0  0  0  0  0  0  0  0  0
   -0.6083    0.4570    2.0390 H   0  0  0  0  0  0  0  0  0  0  0  0
    0.9288   -0.6700    3.5122 H   0  0  0  0  0  0  0  0  0  0  0  0
    2.3203   -0.3820    2.3299 H   0  0  0  0  0  0  0  0  0  0  0  0
  1  2  3  0
  1  6  1  0
  2  3  1  0
  3  4  1  0
  3  7  1  0
  3  8  1  0
  4  5  3  0
  5  9  1  0
 10 11  2  3
 10 15  1  0
 10 16  1  0
 11 12  1  0
 11 17  1  0
 12 13  1  0
 12 18  1  0
 13 14  2  3
 13 19  1  0
 14 20  1  0
 14 21  1  0
M  RAD  1  12   2
M  END
>  <reaction>  (8) 
rxn_1353

>  <mol_properties>  (8) 
{"1": {"label": "*4", "atom_type": "Ct"}, "2": {"label": "*3", "atom_type": "Cs"}, "6": {"label": "*2", "atom_type": "H0"}, "10": {"label": "*0", "atom_type": "Cd"}, "11": {"label": "*1", "atom_type": "Cs"}}

>  <type>  (8) 
unop_4

>  <geom_source>  (8) 
Heuristics

$$$$

     RDKit          3D

 21 19  0  0  0  0  0  0  0  0999 V2000
   -0.5589   -1.3671   -3.1902 C   0  0  0  0  0  0  0  0  0  0  0  0
   -0.5589   -1.3671   -1.9947 C   0  0  0  0  0  0  0  0  0  0  0  0
   -0.5589   -1.3671   -0.5317 C   0  0  0  0  0  0  0  0  0  0  0  0
   -1.8730   -1.0914    0.0495 C   0  0  0  0  0  0  0  0  0  0  0  0
   -2.9467   -0.8662    0.5244 C   0  0  0  0  0  0  0  0  0  0  0  0
   -0.5589   -1.3671   -4.2537 H   0  0  0  0  0  0  0  0  0  0  0  0
    0.2992   -0.4727   -0.1007 H   0  0  0  0  0  0  0  0  0  0  0  0
   -0.2036   -2.3369   -0.1725 H   0  0  0  0  0  0  0  0  0  0  0  0
   -3.9019   -0.6659    0.9468 H   0  0  0  0  0  0  0  0  0  0  0  0
    2.2128    0.1802    2.5878 C   0  0  0  0  0  0  0  0  0  0  0  0
    1.1569    0.4213    1.8277 C   0  0  0  0  0  0  0  0  0  0  0  0
    1.1594    0.4239    0.3314 C   0  0  0  0  0  3  0  0  0  0  0  0
    0.8103    1.7449   -0.2986 C   0  0  0  0  0  0  0  0  0  0  0  0
    0.7127    2.9051    0.3312 C   0  0  0  0  0  0  0  0  0  0  0  0
    2.1458    0.1847    3.6686 H   0  0  0  0  0  0  0  0  0  0  0  0
    3.1847   -0.0328    2.1555 H   0  0  0  0  0  0  0  0  0  0  0  0
    0.2022    0.6394    2.2995 H   0  0  0  0  0  0  0  0  0  0  0  0
    2.1372    0.1004   -0.0407 H   0  0  0  0  0  0  0  0  0  0  0  0
    0.6377    1.7118   -1.3709 H   0  0  0  0  0  0  0  0  0  0  0  0
    0.4626    3.8122   -0.2042 H   0  0  0  0  0  0  0  0  0  0  0  0
    0.8857    2.9922    1.3976 H   0  0  0  0  0  0  0  0  0  0  0  0
  1  2  3  0
  1  6  1  0
  2  3  1  0
  3  4  1  0
  3  7  1  0
  3  8  1  0
  4  5  3  0
  5  9  1  0
 10 11  2  3
 10 15  1  0
 10 16  1  0
 11 12  1  0
 11 17  1  0
 12 13  1  0
 12 18  1  0
 13 14  2  3
 13 19  1  0
 14 20  1  0
 14 21  1  0
M  RAD  1  12   2
M  END
>  <reaction>  (9) 
rxn_1353

>  <mol_properties>  (9) 
{"1": {"label": "*4", "atom_type": "Ct"}, "2": {"label": "*3", "atom_type": "Cs"}, "6": {"label": "*2", "atom_type": "H0"}, "10": {"label": "*0", "atom_type": "Cd"}, "11": {"label": "*1", "atom_type": "Cs"}}

>  <type>  (9) 
unop_5

>  <geom_source>  (9) 
Heuristics

$$$$

     RDKit          3D

 21 19  0  0  0  0  0  0  0  0999 V2000
   -0.7659   -0.8359   -3.2700 C   0  0  0  0  0  0  0  0  0  0  0  0
   -0.7659   -0.8359   -2.0745 C   0  0  0  0  0  0  0  0  0  0  0  0
   -0.7659   -0.8359   -0.6115 C   0  0  0  0  0  0  0  0  0  0  0  0
   -2.0799   -0.5603   -0.0304 C   0  0  0  0  0  0  0  0  0  0  0  0
   -3.1537   -0.3351    0.4445 C   0  0  0  0  0  0  0  0  0  0  0  0
   -0.7659   -0.8359   -4.3335 H   0  0  0  0  0  0  0  0  0  0  0  0
    0.0922    0.0585   -0.1805 H   0  0  0  0  0  0  0  0  0  0  0  0
   -0.4105   -1.8057   -0.2523 H   0  0  0  0  0  0  0  0  0  0  0  0
   -4.1089   -0.1347    0.8670 H   0  0  0  0  0  0  0  0  0  0  0  0
    3.4462    0.9545    0.4562 C   0  0  0  0  0  0  0  0  0  0  0  0
    2.2922    0.3084    0.4119 C   0  0  0  0  0  0  0  0  0  0  0  0
    0.9525    0.9551    0.2516 C   0  0  0  0  0  3  0  0  0  0  0  0
    0.0109    0.7527    1.4075 C   0  0  0  0  0  0  0  0  0  0  0  0
    0.3288    0.2519    2.5909 C   0  0  0  0  0  0  0  0  0  0  0  0
    4.3862    0.4283    0.5661 H   0  0  0  0  0  0  0  0  0  0  0  0
    3.4927    2.0358    0.3822 H   0  0  0  0  0  0  0  0  0  0  0  0
    2.2872   -0.7751    0.4984 H   0  0  0  0  0  0  0  0  0  0  0  0
    1.0750    2.0293    0.0773 H   0  0  0  0  0  0  0  0  0  0  0  0
   -1.0140    1.0644    1.2260 H   0  0  0  0  0  0  0  0  0  0  0  0
   -0.4139    0.1479    3.3715 H   0  0  0  0  0  0  0  0  0  0  0  0
    1.3392   -0.0636    2.8246 H   0  0  0  0  0  0  0  0  0  0  0  0
  1  2  3  0
  1  6  1  0
  2  3  1  0
  3  4  1  0
  3  7  1  0
  3  8  1  0
  4  5  3  0
  5  9  1  0
 10 11  2  3
 10 15  1  0
 10 16  1  0
 11 12  1  0
 11 17  1  0
 12 13  1  0
 12 18  1  0
 13 14  2  3
 13 19  1  0
 14 20  1  0
 14 21  1  0
M  RAD  1  12   2
M  END
>  <reaction>  (10) 
rxn_1353

>  <mol_properties>  (10) 
{"1": {"label": "*4", "atom_type": "Ct"}, "2": {"label": "*3", "atom_type": "Cs"}, "6": {"label": "*2", "atom_type": "H0"}, "10": {"label": "*0", "atom_type": "Cd"}, "11": {"label": "*1", "atom_type": "Cs"}}

>  <type>  (10) 
unop_6

>  <geom_source>  (10) 
Heuristics

$$$$

     RDKit          3D

 21 19  0  0  0  0  0  0  0  0999 V2000
   -0.5852   -0.9681   -3.3570 C   0  0  0  0  0  0  0  0  0  0  0  0
   -0.5852   -0.9681   -2.1615 C   0  0  0  0  0  0  0  0  0  0  0  0
   -0.5852   -0.9681   -0.6985 C   0  0  0  0  0  0  0  0  0  0  0  0
   -1.8992   -0.6925   -0.1174 C   0  0  0  0  0  0  0  0  0  0  0  0
   -2.9730   -0.4673    0.3575 C   0  0  0  0  0  0  0  0  0  0  0  0
   -0.5852   -0.9681   -4.4205 H   0  0  0  0  0  0  0  0  0  0  0  0
    0.2729   -0.0738   -0.2675 H   0  0  0  0  0  0  0  0  0  0  0  0
   -0.2298   -1.9380   -0.3393 H   0  0  0  0  0  0  0  0  0  0  0  0
   -3.9282   -0.2670    0.7800 H   0  0  0  0  0  0  0  0  0  0  0  0
    3.3723    0.6339    1.2651 C   0  0  0  0  0  0  0  0  0  0  0  0
    2.1754    0.1398    0.9929 C   0  0  0  0  0  0  0  0  0  0  0  0
    1.1332    0.8229    0.1646 C   0  0  0  0  0  3  0  0  0  0  0  0
   -0.1414    1.1479    0.8951 C   0  0  0  0  0  0  0  0  0  0  0  0
   -0.3283    1.0738    2.2034 C   0  0  0  0  0  0  0  0  0  0  0  0
    4.0881    0.0865    1.8655 H   0  0  0  0  0  0  0  0  0  0  0  0
    3.6811    1.6057    0.8947 H   0  0  0  0  0  0  0  0  0  0  0  0
    1.9005   -0.8339    1.3903 H   0  0  0  0  0  0  0  0  0  0  0  0
    1.5418    1.7441   -0.2639 H   0  0  0  0  0  0  0  0  0  0  0  0
   -0.9614    1.4796    0.2642 H   0  0  0  0  0  0  0  0  0  0  0  0
   -1.2804    1.3350    2.6476 H   0  0  0  0  0  0  0  0  0  0  0  0
    0.4612    0.7588    2.8761 H   0  0  0  0  0  0  0  0  0  0  0  0
  1  2  3  0
  1  6  1  0
  2  3  1  0
  3  4  1  0
  3  7  1  0
  3  8  1  0
  4  5  3  0
  5  9  1  0
 10 11  2  3
 10 15  1  0
 10 16  1  0
 11 12  1  0
 11 17  1  0
 12 13  1  0
 12 18  1  0
 13 14  2  3
 13 19  1  0
 14 20  1  0
 14 21  1  0
M  RAD  1  12   2
M  END
>  <reaction>  (11) 
rxn_1353

>  <mol_properties>  (11) 
{"1": {"label": "*4", "atom_type": "Ct"}, "2": {"label": "*3", "atom_type": "Cs"}, "6": {"label": "*2", "atom_type": "H0"}, "10": {"label": "*0", "atom_type": "Cd"}, "11": {"label": "*1", "atom_type": "Cs"}}

>  <type>  (11) 
unop_7

>  <geom_source>  (11) 
Heuristics

$$$$

     RDKit          3D

 21 19  0  0  0  0  0  0  0  0999 V2000
   -0.6913   -1.4369   -3.0163 C   0  0  0  0  0  0  0  0  0  0  0  0
   -0.6913   -1.4369   -1.8208 C   0  0  0  0  0  0  0  0  0  0  0  0
   -0.6913   -1.4369   -0.3579 C   0  0  0  0  0  0  0  0  0  0  0  0
   -2.0053   -1.1613    0.2233 C   0  0  0  0  0  0  0  0  0  0  0  0
   -3.0791   -0.9361    0.6982 C   0  0  0  0  0  0  0  0  0  0  0  0
   -0.6913   -1.4369   -4.0798 H   0  0  0  0  0  0  0  0  0  0  0  0
    0.1668   -0.5425    0.0732 H   0  0  0  0  0  0  0  0  0  0  0  0
   -0.3360   -2.4067    0.0013 H   0  0  0  0  0  0  0  0  0  0  0  0
   -4.0343   -0.7357    1.1207 H   0  0  0  0  0  0  0  0  0  0  0  0
   -0.3996    2.0153    1.7159 C   0  0  0  0  0  0  0  0  0  0  0  0
    0.3255    1.6660    0.6656 C   0  0  0  0  0  0  0  0  0  0  0  0
    1.0271    0.3541    0.5053 C   0  0  0  0  0  3  0  0  0  0  0  0
    2.5249    0.4476    0.3980 C   0  0  0  0  0  0  0  0  0  0  0  0
    3.2556    1.5256    0.6351 C   0  0  0  0  0  0  0  0  0  0  0  0
   -0.8908    2.9788    1.7700 H   0  0  0  0  0  0  0  0  0  0  0  0
   -0.5298    1.3478    2.5611 H   0  0  0  0  0  0  0  0  0  0  0  0
    0.4392    2.3669   -0.1575 H   0  0  0  0  0  0  0  0  0  0  0  0
    0.7714   -0.3099    1.3377 H   0  0  0  0  0  0  0  0  0  0  0  0
    3.0235   -0.4726    0.1063 H   0  0  0  0  0  0  0  0  0  0  0  0
    4.3337    1.5018    0.5402 H   0  0  0  0  0  0  0  0  0  0  0  0
    2.8066    2.4643    0.9387 H   0  0  0  0  0  0  0  0  0  0  0  0
  1  2  3  0
  1  6  1  0
  2  3  1  0
  3  4  1  0
  3  7  1  0
  3  8  1  0
  4  5  3  0
  5  9  1  0
 10 11  2  3
 10 15  1  0
 10 16  1  0
 11 12  1  0
 11 17  1  0
 12 13  1  0
 12 18  1  0
 13 14  2  3
 13 19  1  0
 14 20  1  0
 14 21  1  0
M  RAD  1  12   2
M  END
>  <reaction>  (12) 
rxn_1353

>  <mol_properties>  (12) 
{"1": {"label": "*4", "atom_type": "Ct"}, "2": {"label": "*3", "atom_type": "Cs"}, "6": {"label": "*2", "atom_type": "H0"}, "10": {"label": "*0", "atom_type": "Cd"}, "11": {"label": "*1", "atom_type": "Cs"}}

>  <type>  (12) 
unop_8

>  <geom_source>  (12) 
Heuristics

$$$$

     RDKit          3D

 21 19  0  0  0  0  0  0  0  0999 V2000
   -1.0183   -0.9390   -2.9117 C   0  0  0  0  0  0  0  0  0  0  0  0
   -1.0183   -0.9390   -1.7162 C   0  0  0  0  0  0  0  0  0  0  0  0
   -1.0183   -0.9390   -0.2532 C   0  0  0  0  0  0  0  0  0  0  0  0
   -2.3324   -0.6633    0.3280 C   0  0  0  0  0  0  0  0  0  0  0  0
   -3.4061   -0.4381    0.8029 C   0  0  0  0  0  0  0  0  0  0  0  0
   -1.0183   -0.9390   -3.9752 H   0  0  0  0  0  0  0  0  0  0  0  0
   -0.1602   -0.0446    0.1779 H   0  0  0  0  0  0  0  0  0  0  0  0
   -0.6630   -1.9088    0.1060 H   0  0  0  0  0  0  0  0  0  0  0  0
   -4.3613   -0.2378    1.2253 H   0  0  0  0  0  0  0  0  0  0  0  0
    2.3655    2.1281   -0.7533 C   0  0  0  0  0  0  0  0  0  0  0  0
    1.8080    0.9853   -0.3867 C   0  0  0  0  0  0  0  0  0  0  0  0
    0.7000    0.8520    0.6100 C   0  0  0  0  0  3  0  0  0  0  0  0
    1.0477    0.0561    1.8385 C   0  0  0  0  0  0  0  0  0  0  0  0
    2.2609   -0.3386    2.1917 C   0  0  0  0  0  0  0  0  0  0  0  0
    3.1606    2.1606   -1.4876 H   0  0  0  0  0  0  0  0  0  0  0  0
    2.0446    3.0750   -0.3324 H   0  0  0  0  0  0  0  0  0  0  0  0
    2.1640    0.0566   -0.8254 H   0  0  0  0  0  0  0  0  0  0  0  0
    0.3523    1.8442    0.9163 H   0  0  0  0  0  0  0  0  0  0  0  0
    0.2058   -0.1938    2.4783 H   0  0  0  0  0  0  0  0  0  0  0  0
    2.4220   -0.9042    3.1006 H   0  0  0  0  0  0  0  0  0  0  0  0
    3.1340   -0.1056    1.5931 H   0  0  0  0  0  0  0  0  0  0  0  0
  1  2  3  0
  1  6  1  0
  2  3  1  0
  3  4  1  0
  3  7  1  0
  3  8  1  0
  4  5  3  0
  5  9  1  0
 10 11  2  3
 10 15  1  0
 10 16  1  0
 11 12  1  0
 11 17  1  0
 12 13  1  0
 12 18  1  0
 13 14  2  3
 13 19  1  0
 14 20  1  0
 14 21  1  0
M  RAD  1  12   2
M  END
>  <reaction>  (13) 
rxn_1353

>  <mol_properties>  (13) 
{"1": {"label": "*4", "atom_type": "Ct"}, "2": {"label": "*3", "atom_type": "Cs"}, "6": {"label": "*2", "atom_type": "H0"}, "10": {"label": "*0", "atom_type": "Cd"}, "11": {"label": "*1", "atom_type": "Cs"}}

>  <type>  (13) 
unop_9

>  <geom_source>  (13) 
Heuristics

$$$$

     RDKit          3D

 21 19  0  0  0  0  0  0  0  0999 V2000
   -0.7540   -1.4350   -2.8878 C   0  0  0  0  0  0  0  0  0  0  0  0
   -0.7540   -1.4350   -1.6923 C   0  0  0  0  0  0  0  0  0  0  0  0
   -0.7540   -1.4350   -0.2293 C   0  0  0  0  0  0  0  0  0  0  0  0
   -2.0681   -1.1594    0.3518 C   0  0  0  0  0  0  0  0  0  0  0  0
   -3.1418   -0.9342    0.8267 C   0  0  0  0  0  0  0  0  0  0  0  0
   -0.7540   -1.4350   -3.9513 H   0  0  0  0  0  0  0  0  0  0  0  0
    0.1041   -0.5406    0.2017 H   0  0  0  0  0  0  0  0  0  0  0  0
   -0.3987   -2.4049    0.1299 H   0  0  0  0  0  0  0  0  0  0  0  0
   -4.0970   -0.7339    1.2492 H   0  0  0  0  0  0  0  0  0  0  0  0
   -0.2577    2.5362    0.7502 C   0  0  0  0  0  0  0  0  0  0  0  0
    0.5604    1.7042    0.1261 C   0  0  0  0  0  0  0  0  0  0  0  0
    0.9643    0.3560    0.6338 C   0  0  0  0  0  3  0  0  0  0  0  0
    2.4358    0.1979    0.9050 C   0  0  0  0  0  0  0  0  0  0  0  0
    3.3306    1.1729    0.9319 C   0  0  0  0  0  0  0  0  0  0  0  0
   -0.5192    3.4979    0.3268 H   0  0  0  0  0  0  0  0  0  0  0  0
   -0.6982    2.2840    1.7090 H   0  0  0  0  0  0  0  0  0  0  0  0
    0.9882    1.9977   -0.8291 H   0  0  0  0  0  0  0  0  0  0  0  0
    0.4075    0.1186    1.5464 H   0  0  0  0  0  0  0  0  0  0  0  0
    2.7604   -0.8201    1.1023 H   0  0  0  0  0  0  0  0  0  0  0  0
    4.3726    0.9694    1.1435 H   0  0  0  0  0  0  0  0  0  0  0  0
    3.0553    2.2057    0.7521 H   0  0  0  0  0  0  0  0  0  0  0  0
  1  2  3  0
  1  6  1  0
  2  3  1  0
  3  4  1  0
  3  7  1  0
  3  8  1  0
  4  5  3  0
  5  9  1  0
 10 11  2  3
 10 15  1  0
 10 16  1  0
 11 12  1  0
 11 17  1  0
 12 13  1  0
 12 18  1  0
 13 14  2  3
 13 19  1  0
 14 20  1  0
 14 21  1  0
M  RAD  1  12   2
M  END
>  <reaction>  (14) 
rxn_1353

>  <mol_properties>  (14) 
{"1": {"label": "*4", "atom_type": "Ct"}, "2": {"label": "*3", "atom_type": "Cs"}, "6": {"label": "*2", "atom_type": "H0"}, "10": {"label": "*0", "atom_type": "Cd"}, "11": {"label": "*1", "atom_type": "Cs"}}

>  <type>  (14) 
unop_10

>  <geom_source>  (14) 
Heuristics

$$$$

     RDKit          3D

 21 19  0  0  0  0  0  0  0  0999 V2000
   -0.4774   -1.1867   -3.3196 C   0  0  0  0  0  0  0  0  0  0  0  0
   -0.4774   -1.1867   -2.1241 C   0  0  0  0  0  0  0  0  0  0  0  0
   -0.4774   -1.1867   -0.6611 C   0  0  0  0  0  0  0  0  0  0  0  0
   -1.7914   -0.9111   -0.0799 C   0  0  0  0  0  0  0  0  0  0  0  0
   -2.8651   -0.6859    0.3950 C   0  0  0  0  0  0  0  0  0  0  0  0
   -0.4774   -1.1867   -4.3831 H   0  0  0  0  0  0  0  0  0  0  0  0
    0.3808   -0.2923   -0.2300 H   0  0  0  0  0  0  0  0  0  0  0  0
   -0.1220   -2.1566   -0.3019 H   0  0  0  0  0  0  0  0  0  0  0  0
   -3.8203   -0.4856    0.8174 H   0  0  0  0  0  0  0  0  0  0  0  0
    3.0115    0.4196    1.9604 C   0  0  0  0  0  0  0  0  0  0  0  0
    1.7919    0.1569    1.5193 C   0  0  0  0  0  0  0  0  0  0  0  0
    1.2410    0.6043    0.2021 C   0  0  0  0  0  3  0  0  0  0  0  0
    0.0538    1.5240    0.2933 C   0  0  0  0  0  0  0  0  0  0  0  0
   -0.3918    2.1118    1.3924 C   0  0  0  0  0  0  0  0  0  0  0  0
    3.3558    0.0602    2.9221 H   0  0  0  0  0  0  0  0  0  0  0  0
    3.7121    1.0037    1.3732 H   0  0  0  0  0  0  0  0  0  0  0  0
    1.1164   -0.4244    2.1417 H   0  0  0  0  0  0  0  0  0  0  0  0
    2.0258    1.0945   -0.3836 H   0  0  0  0  0  0  0  0  0  0  0  0
   -0.4574    1.7100   -0.6473 H   0  0  0  0  0  0  0  0  0  0  0  0
   -1.2528    2.7674    1.3657 H   0  0  0  0  0  0  0  0  0  0  0  0
    0.0895    1.9666    2.3527 H   0  0  0  0  0  0  0  0  0  0  0  0
  1  2  3  0
  1  6  1  0
  2  3  1  0
  3  4  1  0
  3  7  1  0
  3  8  1  0
  4  5  3  0
  5  9  1  0
 10 11  2  3
 10 15  1  0
 10 16  1  0
 11 12  1  0
 11 17  1  0
 12 13  1  0
 12 18  1  0
 13 14  2  3
 13 19  1  0
 14 20  1  0
 14 21  1  0
M  RAD  1  12   2
M  END
>  <reaction>  (15) 
rxn_1353

>  <mol_properties>  (15) 
{"1": {"label": "*4", "atom_type": "Ct"}, "2": {"label": "*3", "atom_type": "Cs"}, "6": {"label": "*2", "atom_type": "H0"}, "10": {"label": "*0", "atom_type": "Cd"}, "11": {"label": "*1", "atom_type": "Cs"}}

>  <type>  (15) 
unop_11

>  <geom_source>  (15) 
Heuristics

$$$$

     RDKit          3D

 21 19  0  0  0  0  0  0  0  0999 V2000
   -0.9942   -1.1440   -2.7866 C   0  0  0  0  0  0  0  0  0  0  0  0
   -0.9942   -1.1440   -1.5911 C   0  0  0  0  0  0  0  0  0  0  0  0
   -0.9942   -1.1440   -0.1281 C   0  0  0  0  0  0  0  0  0  0  0  0
   -2.3082   -0.8684    0.4531 C   0  0  0  0  0  0  0  0  0  0  0  0
   -3.3819   -0.6432    0.9280 C   0  0  0  0  0  0  0  0  0  0  0  0
   -0.9942   -1.1440   -3.8501 H   0  0  0  0  0  0  0  0  0  0  0  0
   -0.1360   -0.2496    0.3029 H   0  0  0  0  0  0  0  0  0  0  0  0
   -0.6388   -2.1138    0.2311 H   0  0  0  0  0  0  0  0  0  0  0  0
   -4.3371   -0.4428    1.3504 H   0  0  0  0  0  0  0  0  0  0  0  0
    1.3237    2.6135   -0.6912 C   0  0  0  0  0  0  0  0  0  0  0  0
    1.3650    1.3148   -0.4407 C   0  0  0  0  0  0  0  0  0  0  0  0
    0.7242    0.6470    0.7350 C   0  0  0  0  0  3  0  0  0  0  0  0
    1.6816   -0.0400    1.6706 C   0  0  0  0  0  0  0  0  0  0  0  0
    3.0003    0.0726    1.6542 C   0  0  0  0  0  0  0  0  0  0  0  0
    1.8016    3.0373   -1.5655 H   0  0  0  0  0  0  0  0  0  0  0  0
    0.8074    3.3013   -0.0300 H   0  0  0  0  0  0  0  0  0  0  0  0
    1.9003    0.6596   -1.1231 H   0  0  0  0  0  0  0  0  0  0  0  0
    0.1344    1.3749    1.3020 H   0  0  0  0  0  0  0  0  0  0  0  0
    1.2165   -0.6716    2.4225 H   0  0  0  0  0  0  0  0  0  0  0  0
    3.6151   -0.4544    2.3727 H   0  0  0  0  0  0  0  0  0  0  0  0
    3.5111    0.6981    0.9311 H   0  0  0  0  0  0  0  0  0  0  0  0
  1  2  3  0
  1  6  1  0
  2  3  1  0
  3  4  1  0
  3  7  1  0
  3  8  1  0
  4  5  3  0
  5  9  1  0
 10 11  2  3
 10 15  1  0
 10 16  1  0
 11 12  1  0
 11 17  1  0
 12 13  1  0
 12 18  1  0
 13 14  2  3
 13 19  1  0
 14 20  1  0
 14 21  1  0
M  RAD  1  12   2
M  END
>  <reaction>  (16) 
rxn_1353

>  <mol_properties>  (16) 
{"1": {"label": "*4", "atom_type": "Ct"}, "2": {"label": "*3", "atom_type": "Cs"}, "6": {"label": "*2", "atom_type": "H0"}, "10": {"label": "*0", "atom_type": "Cd"}, "11": {"label": "*1", "atom_type": "Cs"}}

>  <type>  (16) 
unop_12

>  <geom_source>  (16) 
Heuristics

$$$$

     RDKit          3D

 21 19  0  0  0  0  0  0  0  0999 V2000
   -0.6599   -0.1703    0.4495 C   0  0  0  0  0  3  0  0  0  0  0  0
   -1.4861    1.0240    0.0639 C   0  0  0  0  0  0  0  0  0  0  0  0
   -1.4513   -1.4412    0.3275 C   0  0  0  0  0  0  0  0  0  0  0  0
   -2.5102    1.4415    0.8140 C   0  0  0  0  0  0  0  0  0  0  0  0
   -1.7959   -1.9354   -0.8645 C   0  0  0  0  0  0  0  0  0  0  0  0
    1.8065   -0.3348   -0.5017 C   0  0  0  0  0  0  0  0  0  0  0  0
    2.0378    0.9549   -1.1552 C   0  0  0  0  0  0  0  0  0  0  0  0
    2.6473   -0.4426    0.6922 C   0  0  0  0  0  0  0  0  0  0  0  0
    2.2269    2.0166   -1.6946 C   0  0  0  0  0  0  0  0  0  0  0  0
    3.3387   -0.5331    1.6758 C   0  0  0  0  0  0  0  0  0  0  0  0
   -0.3022   -0.0515    1.4950 H   0  0  0  0  0  0  0  0  0  0  0  0
    0.4668   -0.2467   -0.3882 H   0  0  0  0  0  0  0  0  0  0  0  0
   -1.2320    1.5676   -0.8406 H   0  0  0  0  0  0  0  0  0  0  0  0
   -1.7344   -1.9775    1.2283 H   0  0  0  0  0  0  0  0  0  0  0  0
   -3.0845    2.3116    0.5131 H   0  0  0  0  0  0  0  0  0  0  0  0
   -2.7812    0.9210    1.7277 H   0  0  0  0  0  0  0  0  0  0  0  0
   -1.5187   -1.4243   -1.7817 H   0  0  0  0  0  0  0  0  0  0  0  0
   -2.3611   -2.8595   -0.9265 H   0  0  0  0  0  0  0  0  0  0  0  0
    2.0551   -1.1561   -1.2051 H   0  0  0  0  0  0  0  0  0  0  0  0
    2.3929    2.9484   -2.1679 H   0  0  0  0  0  0  0  0  0  0  0  0
    3.9457   -0.6124    2.5391 H   0  0  0  0  0  0  0  0  0  0  0  0
  1  2  1  0
  1  3  1  0
  1 11  1  0
  2  4  2  3
  2 13  1  0
  3  5  2  3
  3 14  1  0
  4 15  1  0
  4 16  1  0
  5 17  1  0
  5 18  1  0
  6  7  1  0
  6  8  1  0
  6 12  1  0
  6 19  1  0
  7  9  3  0
  8 10  3  0
  9 20  1  0
 10 21  1  0
M  RAD  1   1   2
M  END
>  <reaction>  (17) 
rxn_1353

>  <mol_properties>  (17) 
{"1": {"label": "*4", "atom_type": "Ct"}, "2": {"label": "*3", "atom_type": "Cs"}, "6": {"label": "*2", "atom_type": "H0"}, "10": {"label": "*0", "atom_type": "Cd"}, "11": {"label": "*1", "atom_type": "Cs"}}

>  <type>  (17) 
unop_13

>  <geom_source>  (17) 
AutoTST

$$$$
