
     RDKit          3D

 13 12  0  0  0  0  0  0  0  0999 V2000
    3.0977   -0.3549   -0.5105 C   0  0  0  0  0  0  0  0  0  0  0  0
    2.0556    0.4221   -0.2627 C   0  0  0  0  0  0  0  0  0  0  0  0
    0.6313   -0.0354   -0.2366 C   0  0  0  0  0  0  0  0  0  0  0  0
   -0.2567    0.6038   -1.2694 C   0  0  0  0  0  0  0  0  0  0  0  0
    0.1459    1.3456   -2.2891 C   0  0  0  0  0  0  0  0  0  0  0  0
    4.1081    0.0344   -0.5074 H   0  0  0  0  0  0  0  0  0  0  0  0
    2.9777   -1.4116   -0.7243 H   0  0  0  0  0  0  0  0  0  0  0  0
    2.2171    1.4781   -0.0618 H   0  0  0  0  0  0  0  0  0  0  0  0
    0.5865   -1.1233   -0.3540 H   0  0  0  0  0  0  0  0  0  0  0  0
    0.2065    0.1743    0.7521 H   0  0  0  0  0  0  0  0  0  0  0  0
   -1.3190    0.4126   -1.1445 H   0  0  0  0  0  0  0  0  0  0  0  0
    1.1948    1.5564   -2.4628 H   0  0  0  0  0  0  0  0  0  0  0  0
   -0.5644    1.7621   -2.9918 H   0  0  0  0  0  0  0  0  0  0  0  0
  1  2  2  3
  1  6  1  0
  1  7  1  0
  2  3  1  0
  2  8  1  0
  3  4  1  0
  3  9  1  0
  3 10  1  0
  4  5  2  3
  4 11  1  0
  5 12  1  0
  5 13  1  0
M  END
>  <reaction>  (1) 
rxn_1158

>  <mol_properties>  (1) 
{"2": {"label": "donator", "atom_type": "Cs"}, "8": {"label": "d_hydrogen", "atom_type": "H0"}}

>  <type>  (1) 
r1h

$$$$

     RDKit          3D

  7  6  0  0  0  0  0  0  0  0999 V2000
    1.8092   -0.3013   -0.2242 S   0  0  0  0  0  0  0  0  0  0  0  0
    0.1552   -0.6967   -0.1137 C   0  0  0  0  0  0  0  0  0  0  0  0
   -0.8921    0.1788    0.1148 C   0  0  0  0  0  0  0  0  0  0  0  0
   -0.7548    1.8245    0.3328 S   0  0  0  0  0  1  0  0  0  0  0  0
    1.6168    1.0210   -0.0187 H   0  0  0  0  0  0  0  0  0  0  0  0
   -0.0550   -1.7522   -0.2412 H   0  0  0  0  0  0  0  0  0  0  0  0
   -1.8791   -0.2740    0.1502 H   0  0  0  0  0  0  0  0  0  0  0  0
  1  2  1  0
  1  5  1  0
  2  3  2  3
  2  6  1  0
  3  4  1  0
  3  7  1  0
M  RAD  1   4   2
M  END
>  <reaction>  (2) 
rxn_1158

>  <mol_properties>  (2) 
{"1": {"label": "acceptor", "atom_type": "Cs"}}

>  <type>  (2) 
r2

$$$$

     RDKit          3D

  8  7  0  0  0  0  0  0  0  0999 V2000
    1.7301   -0.0562    0.5281 S   0  0  0  0  0  0  0  0  0  0  0  0
    0.1858    0.6127   -0.1669 C   0  0  0  0  0  0  0  0  0  0  0  0
   -0.9621   -0.2567    0.2171 C   0  0  0  0  0  0  0  0  0  0  0  0
   -1.8663   -1.1002   -0.8086 S   0  0  0  0  0  0  0  0  0  0  0  0
    1.7025   -1.2092   -0.1540 H   0  0  0  0  0  0  0  0  0  0  0  0
    0.2619    0.7246   -1.2458 H   0  0  0  0  0  0  0  0  0  0  0  0
    0.0809    1.5982    0.2929 H   0  0  0  0  0  0  0  0  0  0  0  0
   -1.1456   -0.3126    1.2907 H   0  0  0  0  0  0  0  0  0  0  0  0
  1  2  1  0
  1  5  1  0
  2  3  1  0
  2  6  1  0
  2  7  1  0
  3  4  2  0
  3  8  1  0
M  END
>  <reaction>  (3) 
rxn_1158

>  <mol_properties>  (3) 
{"1": {"label": "acceptor", "atom_type": "Cs"}, "7": {"label": "a_hydrogen", "atom_type": "H0"}}

>  <type>  (3) 
r2h

$$$$

     RDKit          3D

 20 18  0  0  0  0  0  0  0  0999 V2000
   -1.6406    0.8267   -1.5897 S   0  0  0  0  0  0  0  0  0  0  0  0
   -0.5978    1.1270   -0.2014 C   0  0  0  0  0  0  0  0  0  0  0  0
    0.8311    1.2029   -0.3259 C   0  0  0  0  0  0  0  0  0  0  0  0
    1.7399    0.5766   -1.5312 S   0  0  0  0  0  0  0  0  0  0  0  0
   -0.6585    0.2998   -2.3465 H   0  0  0  0  0  0  0  0  0  0  0  0
   -1.0426    1.8391    0.4895 H   0  0  0  0  0  0  0  0  0  0  0  0
    1.3267    1.6424    0.5376 H   0  0  0  0  0  0  0  0  0  0  0  0
   -1.0777   -2.6336   -0.7448 C   0  0  0  0  0  0  0  0  0  0  0  0
   -0.2615   -2.0900    0.1645 C   0  0  0  0  0  0  0  0  0  0  0  0
   -0.7126   -1.1943    1.2132 C   0  0  0  0  0  3  0  0  0  0  0  0
    0.1185   -0.8895    2.3752 C   0  0  0  0  0  0  0  0  0  0  0  0
    1.4530   -0.8965    2.4047 C   0  0  0  0  0  0  0  0  0  0  0  0
   -0.6962   -3.2740   -1.5289 H   0  0  0  0  0  0  0  0  0  0  0  0
   -2.1461   -2.4544   -0.7241 H   0  0  0  0  0  0  0  0  0  0  0  0
    0.8019   -2.2920    0.1000 H   0  0  0  0  0  0  0  0  0  0  0  0
   -0.6740    0.0158    0.5446 H   0  0  0  0  0  0  0  0  0  0  0  0
   -1.7827   -1.2311    1.4062 H   0  0  0  0  0  0  0  0  0  0  0  0
   -0.4156   -0.5644    3.2626 H   0  0  0  0  0  0  0  0  0  0  0  0
    2.0522   -1.1785    1.5474 H   0  0  0  0  0  0  0  0  0  0  0  0
    1.9882   -0.6169    3.3024 H   0  0  0  0  0  0  0  0  0  0  0  0
  1  2  1  0
  1  5  1  0
  2  3  1  0
  2  6  1  0
  2 16  1  0
  3  4  2  0
  3  7  1  0
  8  9  2  3
  8 13  1  0
  8 14  1  0
  9 10  1  0
  9 15  1  0
 10 11  1  0
 10 17  1  0
 11 12  2  3
 11 18  1  0
 12 19  1  0
 12 20  1  0
M  RAD  1  10   2
M  END
>  <reaction>  (4) 
rxn_1158

>  <mol_properties>  (4) 
{"1": {"label": "*1", "atom_type": "Cs"}, "2": {"label": "*0", "atom_type": "CS"}, "8": {"label": "*4", "atom_type": "Cd"}, "9": {"label": "*3", "atom_type": "Cs"}, "15": {"label": "*2", "atom_type": "H0"}}

>  <type>  (4) 
ts

$$$$

     RDKit          3D

 20 18  0  0  0  0  0  0  0  0999 V2000
   -1.7496    1.9555    0.4709 S   0  0  0  0  0  0  0  0  0  0  0  0
   -0.2524    1.0176    0.0303 C   0  0  0  0  0  0  0  0  0  0  0  0
    0.2506    1.4603   -1.3008 C   0  0  0  0  0  0  0  0  0  0  0  0
    0.3190    0.5399   -2.6159 S   0  0  0  0  0  0  0  0  0  0  0  0
   -2.5005    1.5045   -0.5431 H   0  0  0  0  0  0  0  0  0  0  0  0
    0.4709    1.2716    0.8088 H   0  0  0  0  0  0  0  0  0  0  0  0
    0.5595    2.5055   -1.3409 H   0  0  0  0  0  0  0  0  0  0  0  0
   -0.0131   -2.3447   -0.6552 C   0  0  0  0  0  0  0  0  0  0  0  0
   -0.0131   -2.3447    0.6681 C   0  0  0  0  0  0  0  0  0  0  0  0
   -0.0131   -1.1189    1.5261 C   0  0  0  0  0  3  0  0  0  0  0  0
    1.1966   -0.9645    2.4073 C   0  0  0  0  0  0  0  0  0  0  0  0
    2.3077   -1.6802    2.3348 C   0  0  0  0  0  0  0  0  0  0  0  0
   -0.0213   -3.2674   -1.2217 H   0  0  0  0  0  0  0  0  0  0  0  0
   -0.0068   -1.4192   -1.2212 H   0  0  0  0  0  0  0  0  0  0  0  0
   -0.0106   -3.2934    1.1986 H   0  0  0  0  0  0  0  0  0  0  0  0
   -0.1332   -0.0469    0.7755 H   0  0  0  0  0  0  0  0  0  0  0  0
   -0.9011   -1.1324    2.1689 H   0  0  0  0  0  0  0  0  0  0  0  0
    1.1239   -0.1795    3.1550 H   0  0  0  0  0  0  0  0  0  0  0  0
    2.4332   -2.4671    1.6000 H   0  0  0  0  0  0  0  0  0  0  0  0
    3.1360   -1.4959    3.0072 H   0  0  0  0  0  0  0  0  0  0  0  0
  1  2  1  0
  1  5  1  0
  2  3  1  0
  2  6  1  0
  2 16  1  0
  3  4  2  0
  3  7  1  0
  8  9  2  3
  8 13  1  0
  8 14  1  0
  9 10  1  0
  9 15  1  0
 10 11  1  0
 10 17  1  0
 11 12  2  3
 11 18  1  0
 12 19  1  0
 12 20  1  0
M  RAD  1  10   2
M  END
>  <reaction>  (5) 
rxn_1158

>  <mol_properties>  (5) 
{"1": {"label": "*1", "atom_type": "Cs"}, "2": {"label": "*0", "atom_type": "CS"}, "8": {"label": "*4", "atom_type": "Cd"}, "9": {"label": "*3", "atom_type": "Cs"}, "15": {"label": "*2", "atom_type": "H0"}}

>  <type>  (5) 
unop_1

>  <geom_source>  (5) 
Heuristics

$$$$

     RDKit          3D

 20 18  0  0  0  0  0  0  0  0999 V2000
   -1.7894    0.6631   -1.6467 S   0  0  0  0  0  0  0  0  0  0  0  0
   -0.8348    1.0280   -0.1397 C   0  0  0  0  0  0  0  0  0  0  0  0
    0.2717    1.9746   -0.4565 C   0  0  0  0  0  0  0  0  0  0  0  0
    1.8383    1.6368   -0.3416 S   0  0  0  0  0  0  0  0  0  0  0  0
   -0.7829    0.0798   -2.3118 H   0  0  0  0  0  0  0  0  0  0  0  0
   -1.5533    1.5017    0.5335 H   0  0  0  0  0  0  0  0  0  0  0  0
   -0.0585    2.9500   -0.8153 H   0  0  0  0  0  0  0  0  0  0  0  0
   -0.5955   -2.3342   -0.8252 C   0  0  0  0  0  0  0  0  0  0  0  0
   -0.5955   -2.3342    0.4981 C   0  0  0  0  0  0  0  0  0  0  0  0
   -0.5955   -1.1084    1.3561 C   0  0  0  0  0  3  0  0  0  0  0  0
    0.6142   -0.9541    2.2373 C   0  0  0  0  0  0  0  0  0  0  0  0
    1.7254   -1.6697    2.1649 C   0  0  0  0  0  0  0  0  0  0  0  0
   -0.6037   -3.2570   -1.3917 H   0  0  0  0  0  0  0  0  0  0  0  0
   -0.5891   -1.4088   -1.3911 H   0  0  0  0  0  0  0  0  0  0  0  0
   -0.5929   -3.2830    1.0286 H   0  0  0  0  0  0  0  0  0  0  0  0
   -0.7156   -0.0364    0.6055 H   0  0  0  0  0  0  0  0  0  0  0  0
   -1.4835   -1.1219    1.9989 H   0  0  0  0  0  0  0  0  0  0  0  0
    0.5415   -0.1690    2.9850 H   0  0  0  0  0  0  0  0  0  0  0  0
    1.8508   -2.4566    1.4300 H   0  0  0  0  0  0  0  0  0  0  0  0
    2.5536   -1.4854    2.8372 H   0  0  0  0  0  0  0  0  0  0  0  0
  1  2  1  0
  1  5  1  0
  2  3  1  0
  2  6  1  0
  2 16  1  0
  3  4  2  0
  3  7  1  0
  8  9  2  3
  8 13  1  0
  8 14  1  0
  9 10  1  0
  9 15  1  0
 10 11  1  0
 10 17  1  0
 11 12  2  3
 11 18  1  0
 12 19  1  0
 12 20  1  0
M  RAD  1  10   2
M  END
>  <reaction>  (6) 
rxn_1158

>  <mol_properties>  (6) 
{"1": {"label": "*1", "atom_type": "Cs"}, "2": {"label": "*0", "atom_type": "CS"}, "8": {"label": "*4", "atom_type": "Cd"}, "9": {"label": "*3", "atom_type": "Cs"}, "15": {"label": "*2", "atom_type": "H0"}}

>  <type>  (6) 
unop_2

>  <geom_source>  (6) 
Heuristics

$$$$

     RDKit          3D

 20 18  0  0  0  0  0  0  0  0999 V2000
   -0.8639    2.3743    0.7971 S   0  0  0  0  0  0  0  0  0  0  0  0
   -0.0069    1.0432   -0.1025 C   0  0  0  0  0  0  0  0  0  0  0  0
   -0.2278    1.1972   -1.5682 C   0  0  0  0  0  0  0  0  0  0  0  0
   -1.0209    0.1541   -2.4979 S   0  0  0  0  0  0  0  0  0  0  0  0
   -2.1010    2.0239    0.4199 H   0  0  0  0  0  0  0  0  0  0  0  0
    1.0499    1.1862    0.1352 H   0  0  0  0  0  0  0  0  0  0  0  0
    0.1758    2.1181   -1.9905 H   0  0  0  0  0  0  0  0  0  0  0  0
    0.2324   -2.3190   -0.7879 C   0  0  0  0  0  0  0  0  0  0  0  0
    0.2324   -2.3190    0.5353 C   0  0  0  0  0  0  0  0  0  0  0  0
    0.2324   -1.0932    1.3933 C   0  0  0  0  0  3  0  0  0  0  0  0
    1.4422   -0.9388    2.2745 C   0  0  0  0  0  0  0  0  0  0  0  0
    2.5533   -1.6545    2.2021 C   0  0  0  0  0  0  0  0  0  0  0  0
    0.2243   -3.2417   -1.3545 H   0  0  0  0  0  0  0  0  0  0  0  0
    0.2388   -1.3935   -1.3539 H   0  0  0  0  0  0  0  0  0  0  0  0
    0.2350   -3.2677    1.0658 H   0  0  0  0  0  0  0  0  0  0  0  0
    0.1124   -0.0212    0.6428 H   0  0  0  0  0  0  0  0  0  0  0  0
   -0.6555   -1.1067    2.0361 H   0  0  0  0  0  0  0  0  0  0  0  0
    1.3695   -0.1538    3.0222 H   0  0  0  0  0  0  0  0  0  0  0  0
    2.6788   -2.4414    1.4672 H   0  0  0  0  0  0  0  0  0  0  0  0
    3.3815   -1.4702    2.8744 H   0  0  0  0  0  0  0  0  0  0  0  0
  1  2  1  0
  1  5  1  0
  2  3  1  0
  2  6  1  0
  2 16  1  0
  3  4  2  0
  3  7  1  0
  8  9  2  3
  8 13  1  0
  8 14  1  0
  9 10  1  0
  9 15  1  0
 10 11  1  0
 10 17  1  0
 11 12  2  3
 11 18  1  0
 12 19  1  0
 12 20  1  0
M  RAD  1  10   2
M  END
>  <reaction>  (7) 
rxn_1158

>  <mol_properties>  (7) 
{"1": {"label": "*1", "atom_type": "Cs"}, "2": {"label": "*0", "atom_type": "CS"}, "8": {"label": "*4", "atom_type": "Cd"}, "9": {"label": "*3", "atom_type": "Cs"}, "15": {"label": "*2", "atom_type": "H0"}}

>  <type>  (7) 
unop_3

>  <geom_source>  (7) 
Heuristics

$$$$

     RDKit          3D

 20 18  0  0  0  0  0  0  0  0999 V2000
    0.5551    1.1700   -2.1040 S   0  0  0  0  0  0  0  0  0  0  0  0
   -0.8233    1.0470   -0.9206 C   0  0  0  0  0  0  0  0  0  0  0  0
   -0.4919    1.7961    0.3243 C   0  0  0  0  0  0  0  0  0  0  0  0
   -0.3062    1.1370    1.7778 S   0  0  0  0  0  0  0  0  0  0  0  0
    1.4527    0.5333   -1.3396 H   0  0  0  0  0  0  0  0  0  0  0  0
   -1.6667    1.5193   -1.4299 H   0  0  0  0  0  0  0  0  0  0  0  0
   -0.3479    2.8675    0.1808 H   0  0  0  0  0  0  0  0  0  0  0  0
   -0.5840   -2.3152   -1.6060 C   0  0  0  0  0  0  0  0  0  0  0  0
   -0.5840   -2.3152   -0.2828 C   0  0  0  0  0  0  0  0  0  0  0  0
   -0.5840   -1.0894    0.5752 C   0  0  0  0  0  3  0  0  0  0  0  0
    0.6258   -0.9350    1.4564 C   0  0  0  0  0  0  0  0  0  0  0  0
    1.7369   -1.6507    1.3840 C   0  0  0  0  0  0  0  0  0  0  0  0
   -0.5921   -3.2380   -2.1725 H   0  0  0  0  0  0  0  0  0  0  0  0
   -0.5776   -1.3898   -2.1720 H   0  0  0  0  0  0  0  0  0  0  0  0
   -0.5814   -3.2640    0.2478 H   0  0  0  0  0  0  0  0  0  0  0  0
   -0.7040   -0.0174   -0.1753 H   0  0  0  0  0  0  0  0  0  0  0  0
   -1.4719   -1.1029    1.2180 H   0  0  0  0  0  0  0  0  0  0  0  0
    0.5531   -0.1500    2.2042 H   0  0  0  0  0  0  0  0  0  0  0  0
    1.8624   -2.4376    0.6491 H   0  0  0  0  0  0  0  0  0  0  0  0
    2.5651   -1.4664    2.0564 H   0  0  0  0  0  0  0  0  0  0  0  0
  1  2  1  0
  1  5  1  0
  2  3  1  0
  2  6  1  0
  2 16  1  0
  3  4  2  0
  3  7  1  0
  8  9  2  3
  8 13  1  0
  8 14  1  0
  9 10  1  0
  9 15  1  0
 10 11  1  0
 10 17  1  0
 11 12  2  3
 11 18  1  0
 12 19  1  0
 12 20  1  0
M  RAD  1  10   2
M  END
>  <reaction>  (8) 
rxn_1158

>  <mol_properties>  (8) 
{"1": {"label": "*1", "atom_type": "Cs"}, "2": {"label": "*0", "atom_type": "CS"}, "8": {"label": "*4", "atom_type": "Cd"}, "9": {"label": "*3", "atom_type": "Cs"}, "15": {"label": "*2", "atom_type": "H0"}}

>  <type>  (8) 
unop_4

>  <geom_source>  (8) 
Heuristics

$$$$

     RDKit          3D

 20 18  0  0  0  0  0  0  0  0999 V2000
    0.1752    2.5871    0.5027 S   0  0  0  0  0  0  0  0  0  0  0  0
    0.1783    1.0775   -0.5154 C   0  0  0  0  0  0  0  0  0  0  0  0
   -1.0528    1.0280   -1.3537 C   0  0  0  0  0  0  0  0  0  0  0  0
   -2.2099   -0.0799   -1.2320 S   0  0  0  0  0  0  0  0  0  0  0  0
   -0.9205    2.2771    1.2090 H   0  0  0  0  0  0  0  0  0  0  0  0
    1.0617    1.1755   -1.1507 H   0  0  0  0  0  0  0  0  0  0  0  0
   -1.1418    1.8436   -2.0722 H   0  0  0  0  0  0  0  0  0  0  0  0
    0.4176   -2.2848   -1.2008 C   0  0  0  0  0  0  0  0  0  0  0  0
    0.4176   -2.2848    0.1225 C   0  0  0  0  0  0  0  0  0  0  0  0
    0.4176   -1.0589    0.9805 C   0  0  0  0  0  3  0  0  0  0  0  0
    1.6273   -0.9046    1.8617 C   0  0  0  0  0  0  0  0  0  0  0  0
    2.7384   -1.6203    1.7892 C   0  0  0  0  0  0  0  0  0  0  0  0
    0.4094   -3.2075   -1.7673 H   0  0  0  0  0  0  0  0  0  0  0  0
    0.4239   -1.3593   -1.7668 H   0  0  0  0  0  0  0  0  0  0  0  0
    0.4201   -3.2335    0.6530 H   0  0  0  0  0  0  0  0  0  0  0  0
    0.2975    0.0130    0.2299 H   0  0  0  0  0  0  0  0  0  0  0  0
   -0.4704   -1.0724    1.6232 H   0  0  0  0  0  0  0  0  0  0  0  0
    1.5546   -0.1196    2.6094 H   0  0  0  0  0  0  0  0  0  0  0  0
    2.8639   -2.4071    1.0544 H   0  0  0  0  0  0  0  0  0  0  0  0
    3.5667   -1.4360    2.4616 H   0  0  0  0  0  0  0  0  0  0  0  0
  1  2  1  0
  1  5  1  0
  2  3  1  0
  2  6  1  0
  2 16  1  0
  3  4  2  0
  3  7  1  0
  8  9  2  3
  8 13  1  0
  8 14  1  0
  9 10  1  0
  9 15  1  0
 10 11  1  0
 10 17  1  0
 11 12  2  3
 11 18  1  0
 12 19  1  0
 12 20  1  0
M  RAD  1  10   2
M  END
>  <reaction>  (9) 
rxn_1158

>  <mol_properties>  (9) 
{"1": {"label": "*1", "atom_type": "Cs"}, "2": {"label": "*0", "atom_type": "CS"}, "8": {"label": "*4", "atom_type": "Cd"}, "9": {"label": "*3", "atom_type": "Cs"}, "15": {"label": "*2", "atom_type": "H0"}}

>  <type>  (9) 
unop_5

>  <geom_source>  (9) 
Heuristics

$$$$

     RDKit          3D

 20 18  0  0  0  0  0  0  0  0999 V2000
    1.0287    1.6761   -1.5715 S   0  0  0  0  0  0  0  0  0  0  0  0
   -0.6046    1.0508   -1.0646 C   0  0  0  0  0  0  0  0  0  0  0  0
   -0.9563    1.5828    0.2822 C   0  0  0  0  0  0  0  0  0  0  0  0
   -1.1509    0.6927    1.6056 S   0  0  0  0  0  0  0  0  0  0  0  0
    1.7167    1.0852   -0.5851 H   0  0  0  0  0  0  0  0  0  0  0  0
   -1.2948    1.4430   -1.8154 H   0  0  0  0  0  0  0  0  0  0  0  0
   -1.0517    2.6683    0.3273 H   0  0  0  0  0  0  0  0  0  0  0  0
   -0.3653   -2.3114   -1.7501 C   0  0  0  0  0  0  0  0  0  0  0  0
   -0.3653   -2.3114   -0.4268 C   0  0  0  0  0  0  0  0  0  0  0  0
   -0.3653   -1.0856    0.4312 C   0  0  0  0  0  3  0  0  0  0  0  0
    0.8444   -0.9312    1.3124 C   0  0  0  0  0  0  0  0  0  0  0  0
    1.9556   -1.6469    1.2399 C   0  0  0  0  0  0  0  0  0  0  0  0
   -0.3735   -3.2341   -2.3166 H   0  0  0  0  0  0  0  0  0  0  0  0
   -0.3590   -1.3859   -2.3161 H   0  0  0  0  0  0  0  0  0  0  0  0
   -0.3627   -3.2601    0.1037 H   0  0  0  0  0  0  0  0  0  0  0  0
   -0.4854   -0.0136   -0.3194 H   0  0  0  0  0  0  0  0  0  0  0  0
   -1.2533   -1.0991    1.0740 H   0  0  0  0  0  0  0  0  0  0  0  0
    0.7717   -0.1462    2.0601 H   0  0  0  0  0  0  0  0  0  0  0  0
    2.0810   -2.4338    0.5051 H   0  0  0  0  0  0  0  0  0  0  0  0
    2.7838   -1.4626    1.9123 H   0  0  0  0  0  0  0  0  0  0  0  0
  1  2  1  0
  1  5  1  0
  2  3  1  0
  2  6  1  0
  2 16  1  0
  3  4  2  0
  3  7  1  0
  8  9  2  3
  8 13  1  0
  8 14  1  0
  9 10  1  0
  9 15  1  0
 10 11  1  0
 10 17  1  0
 11 12  2  3
 11 18  1  0
 12 19  1  0
 12 20  1  0
M  RAD  1  10   2
M  END
>  <reaction>  (10) 
rxn_1158

>  <mol_properties>  (10) 
{"1": {"label": "*1", "atom_type": "Cs"}, "2": {"label": "*0", "atom_type": "CS"}, "8": {"label": "*4", "atom_type": "Cd"}, "9": {"label": "*3", "atom_type": "Cs"}, "15": {"label": "*2", "atom_type": "H0"}}

>  <type>  (10) 
unop_6

>  <geom_source>  (10) 
Heuristics

$$$$

     RDKit          3D

 20 18  0  0  0  0  0  0  0  0999 V2000
    1.1037    2.1649   -0.8914 S   0  0  0  0  0  0  0  0  0  0  0  0
   -0.3310    1.0627   -1.0974 C   0  0  0  0  0  0  0  0  0  0  0  0
   -1.3287    1.3214   -0.0211 C   0  0  0  0  0  0  0  0  0  0  0  0
   -1.7591    0.2678    1.1129 S   0  0  0  0  0  0  0  0  0  0  0  0
    1.4851    1.6770    0.2969 H   0  0  0  0  0  0  0  0  0  0  0  0
   -0.7489    1.3334   -2.0700 H   0  0  0  0  0  0  0  0  0  0  0  0
   -1.7511    2.3268   -0.0304 H   0  0  0  0  0  0  0  0  0  0  0  0
   -0.0917   -2.2995   -1.7828 C   0  0  0  0  0  0  0  0  0  0  0  0
   -0.0917   -2.2995   -0.4596 C   0  0  0  0  0  0  0  0  0  0  0  0
   -0.0917   -1.0737    0.3984 C   0  0  0  0  0  3  0  0  0  0  0  0
    1.1180   -0.9193    1.2796 C   0  0  0  0  0  0  0  0  0  0  0  0
    2.2292   -1.6350    1.2072 C   0  0  0  0  0  0  0  0  0  0  0  0
   -0.0999   -3.2222   -2.3494 H   0  0  0  0  0  0  0  0  0  0  0  0
   -0.0854   -1.3741   -2.3488 H   0  0  0  0  0  0  0  0  0  0  0  0
   -0.0891   -3.2483    0.0709 H   0  0  0  0  0  0  0  0  0  0  0  0
   -0.2118   -0.0017   -0.3521 H   0  0  0  0  0  0  0  0  0  0  0  0
   -0.9797   -1.0872    1.0412 H   0  0  0  0  0  0  0  0  0  0  0  0
    1.0453   -0.1343    2.0273 H   0  0  0  0  0  0  0  0  0  0  0  0
    2.3546   -2.4219    0.4723 H   0  0  0  0  0  0  0  0  0  0  0  0
    3.0574   -1.4507    1.8795 H   0  0  0  0  0  0  0  0  0  0  0  0
  1  2  1  0
  1  5  1  0
  2  3  1  0
  2  6  1  0
  2 16  1  0
  3  4  2  0
  3  7  1  0
  8  9  2  3
  8 13  1  0
  8 14  1  0
  9 10  1  0
  9 15  1  0
 10 11  1  0
 10 17  1  0
 11 12  2  3
 11 18  1  0
 12 19  1  0
 12 20  1  0
M  RAD  1  10   2
M  END
>  <reaction>  (11) 
rxn_1158

>  <mol_properties>  (11) 
{"1": {"label": "*1", "atom_type": "Cs"}, "2": {"label": "*0", "atom_type": "CS"}, "8": {"label": "*4", "atom_type": "Cd"}, "9": {"label": "*3", "atom_type": "Cs"}, "15": {"label": "*2", "atom_type": "H0"}}

>  <type>  (11) 
unop_7

>  <geom_source>  (11) 
Heuristics

$$$$

     RDKit          3D

 20 18  0  0  0  0  0  0  0  0999 V2000
   -2.2036    1.4459   -0.1887 S   0  0  0  0  0  0  0  0  0  0  0  0
   -0.4515    1.0103    0.0473 C   0  0  0  0  0  0  0  0  0  0  0  0
    0.3864    1.7079   -0.9686 C   0  0  0  0  0  0  0  0  0  0  0  0
    1.2423    0.9811   -2.1177 S   0  0  0  0  0  0  0  0  0  0  0  0
   -2.3176    0.9095   -1.4113 H   0  0  0  0  0  0  0  0  0  0  0  0
   -0.2094    1.3748    1.0484 H   0  0  0  0  0  0  0  0  0  0  0  0
    0.3626    2.7962   -0.9019 H   0  0  0  0  0  0  0  0  0  0  0  0
   -0.2122   -2.3520   -0.6381 C   0  0  0  0  0  0  0  0  0  0  0  0
   -0.2122   -2.3520    0.6851 C   0  0  0  0  0  0  0  0  0  0  0  0
   -0.2122   -1.1262    1.5431 C   0  0  0  0  0  3  0  0  0  0  0  0
    0.9976   -0.9718    2.4243 C   0  0  0  0  0  0  0  0  0  0  0  0
    2.1087   -1.6875    2.3519 C   0  0  0  0  0  0  0  0  0  0  0  0
   -0.2203   -3.2747   -1.2047 H   0  0  0  0  0  0  0  0  0  0  0  0
   -0.2058   -1.4265   -1.2041 H   0  0  0  0  0  0  0  0  0  0  0  0
   -0.2096   -3.3007    1.2156 H   0  0  0  0  0  0  0  0  0  0  0  0
   -0.3322   -0.0542    0.7926 H   0  0  0  0  0  0  0  0  0  0  0  0
   -1.1001   -1.1396    2.1859 H   0  0  0  0  0  0  0  0  0  0  0  0
    0.9249   -0.1868    3.1720 H   0  0  0  0  0  0  0  0  0  0  0  0
    2.2342   -2.4743    1.6170 H   0  0  0  0  0  0  0  0  0  0  0  0
    2.9369   -1.5032    3.0242 H   0  0  0  0  0  0  0  0  0  0  0  0
  1  2  1  0
  1  5  1  0
  2  3  1  0
  2  6  1  0
  2 16  1  0
  3  4  2  0
  3  7  1  0
  8  9  2  3
  8 13  1  0
  8 14  1  0
  9 10  1  0
  9 15  1  0
 10 11  1  0
 10 17  1  0
 11 12  2  3
 11 18  1  0
 12 19  1  0
 12 20  1  0
M  RAD  1  10   2
M  END
>  <reaction>  (12) 
rxn_1158

>  <mol_properties>  (12) 
{"1": {"label": "*1", "atom_type": "Cs"}, "2": {"label": "*0", "atom_type": "CS"}, "8": {"label": "*4", "atom_type": "Cd"}, "9": {"label": "*3", "atom_type": "Cs"}, "15": {"label": "*2", "atom_type": "H0"}}

>  <type>  (12) 
unop_8

>  <geom_source>  (12) 
Heuristics

$$$$

     RDKit          3D

 20 18  0  0  0  0  0  0  0  0999 V2000
   -0.2224    0.7749   -2.3233 S   0  0  0  0  0  0  0  0  0  0  0  0
   -0.9606    1.0451   -0.6808 C   0  0  0  0  0  0  0  0  0  0  0  0
   -0.0798    1.9304    0.1322 C   0  0  0  0  0  0  0  0  0  0  0  0
    0.6737    1.4959    1.4831 S   0  0  0  0  0  0  0  0  0  0  0  0
    0.8763    0.1481   -1.8813 H   0  0  0  0  0  0  0  0  0  0  0  0
   -1.9105    1.5450   -0.8846 H   0  0  0  0  0  0  0  0  0  0  0  0
    0.0535    2.9324   -0.2771 H   0  0  0  0  0  0  0  0  0  0  0  0
   -0.7213   -2.3172   -1.3663 C   0  0  0  0  0  0  0  0  0  0  0  0
   -0.7213   -2.3172   -0.0430 C   0  0  0  0  0  0  0  0  0  0  0  0
   -0.7213   -1.0914    0.8150 C   0  0  0  0  0  3  0  0  0  0  0  0
    0.4884   -0.9370    1.6962 C   0  0  0  0  0  0  0  0  0  0  0  0
    1.5996   -1.6527    1.6238 C   0  0  0  0  0  0  0  0  0  0  0  0
   -0.7295   -3.2399   -1.9328 H   0  0  0  0  0  0  0  0  0  0  0  0
   -0.7149   -1.3917   -1.9322 H   0  0  0  0  0  0  0  0  0  0  0  0
   -0.7187   -3.2659    0.4875 H   0  0  0  0  0  0  0  0  0  0  0  0
   -0.8414   -0.0194    0.0645 H   0  0  0  0  0  0  0  0  0  0  0  0
   -1.6093   -1.1049    1.4578 H   0  0  0  0  0  0  0  0  0  0  0  0
    0.4157   -0.1520    2.4439 H   0  0  0  0  0  0  0  0  0  0  0  0
    1.7251   -2.4396    0.8889 H   0  0  0  0  0  0  0  0  0  0  0  0
    2.4278   -1.4684    2.2961 H   0  0  0  0  0  0  0  0  0  0  0  0
  1  2  1  0
  1  5  1  0
  2  3  1  0
  2  6  1  0
  2 16  1  0
  3  4  2  0
  3  7  1  0
  8  9  2  3
  8 13  1  0
  8 14  1  0
  9 10  1  0
  9 15  1  0
 10 11  1  0
 10 17  1  0
 11 12  2  3
 11 18  1  0
 12 19  1  0
 12 20  1  0
M  RAD  1  10   2
M  END
>  <reaction>  (13) 
rxn_1158

>  <mol_properties>  (13) 
{"1": {"label": "*1", "atom_type": "Cs"}, "2": {"label": "*0", "atom_type": "CS"}, "8": {"label": "*4", "atom_type": "Cd"}, "9": {"label": "*3", "atom_type": "Cs"}, "15": {"label": "*2", "atom_type": "H0"}}

>  <type>  (13) 
unop_9

>  <geom_source>  (13) 
Heuristics

$$$$

     RDKit          3D

 20 18  0  0  0  0  0  0  0  0999 V2000
   -2.1969    0.9751   -0.9502 S   0  0  0  0  0  0  0  0  0  0  0  0
   -0.6434    1.0163   -0.0013 C   0  0  0  0  0  0  0  0  0  0  0  0
    0.3508    1.8848   -0.6927 C   0  0  0  0  0  0  0  0  0  0  0  0
    1.7415    1.3799   -1.3192 S   0  0  0  0  0  0  0  0  0  0  0  0
   -1.6778    0.3997   -2.0433 H   0  0  0  0  0  0  0  0  0  0  0  0
   -0.9198    1.4540    0.9609 H   0  0  0  0  0  0  0  0  0  0  0  0
    0.0534    2.9305   -0.7781 H   0  0  0  0  0  0  0  0  0  0  0  0
   -0.4041   -2.3460   -0.6868 C   0  0  0  0  0  0  0  0  0  0  0  0
   -0.4041   -2.3460    0.6365 C   0  0  0  0  0  0  0  0  0  0  0  0
   -0.4041   -1.1202    1.4945 C   0  0  0  0  0  3  0  0  0  0  0  0
    0.8056   -0.9658    2.3757 C   0  0  0  0  0  0  0  0  0  0  0  0
    1.9168   -1.6815    2.3033 C   0  0  0  0  0  0  0  0  0  0  0  0
   -0.4123   -3.2687   -1.2533 H   0  0  0  0  0  0  0  0  0  0  0  0
   -0.3977   -1.4205   -1.2527 H   0  0  0  0  0  0  0  0  0  0  0  0
   -0.4015   -3.2947    1.1670 H   0  0  0  0  0  0  0  0  0  0  0  0
   -0.5242   -0.0482    0.7439 H   0  0  0  0  0  0  0  0  0  0  0  0
   -1.2921   -1.1336    2.1373 H   0  0  0  0  0  0  0  0  0  0  0  0
    0.7329   -0.1808    3.1234 H   0  0  0  0  0  0  0  0  0  0  0  0
    2.0423   -2.4683    1.5684 H   0  0  0  0  0  0  0  0  0  0  0  0
    2.7450   -1.4972    2.9756 H   0  0  0  0  0  0  0  0  0  0  0  0
  1  2  1  0
  1  5  1  0
  2  3  1  0
  2  6  1  0
  2 16  1  0
  3  4  2  0
  3  7  1  0
  8  9  2  3
  8 13  1  0
  8 14  1  0
  9 10  1  0
  9 15  1  0
 10 11  1  0
 10 17  1  0
 11 12  2  3
 11 18  1  0
 12 19  1  0
 12 20  1  0
M  RAD  1  10   2
M  END
>  <reaction>  (14) 
rxn_1158

>  <mol_properties>  (14) 
{"1": {"label": "*1", "atom_type": "Cs"}, "2": {"label": "*0", "atom_type": "CS"}, "8": {"label": "*4", "atom_type": "Cd"}, "9": {"label": "*3", "atom_type": "Cs"}, "15": {"label": "*2", "atom_type": "H0"}}

>  <type>  (14) 
unop_10

>  <geom_source>  (14) 
Heuristics

$$$$

     RDKit          3D

 20 18  0  0  0  0  0  0  0  0999 V2000
    0.8203    2.5059   -0.1914 S   0  0  0  0  0  0  0  0  0  0  0  0
   -0.0154    1.0801   -0.9556 C   0  0  0  0  0  0  0  0  0  0  0  0
   -1.4628    1.0900   -0.6010 C   0  0  0  0  0  0  0  0  0  0  0  0
   -2.2065   -0.0295    0.2792 S   0  0  0  0  0  0  0  0  0  0  0  0
    0.5949    2.1367    1.0768 H   0  0  0  0  0  0  0  0  0  0  0  0
    0.1091    1.2314   -2.0305 H   0  0  0  0  0  0  0  0  0  0  0  0
   -2.0107    1.9586   -0.9680 H   0  0  0  0  0  0  0  0  0  0  0  0
    0.2239   -2.2822   -1.6410 C   0  0  0  0  0  0  0  0  0  0  0  0
    0.2239   -2.2822   -0.3178 C   0  0  0  0  0  0  0  0  0  0  0  0
    0.2239   -1.0563    0.5402 C   0  0  0  0  0  3  0  0  0  0  0  0
    1.4336   -0.9020    1.4214 C   0  0  0  0  0  0  0  0  0  0  0  0
    2.5447   -1.6177    1.3490 C   0  0  0  0  0  0  0  0  0  0  0  0
    0.2157   -3.2049   -2.2076 H   0  0  0  0  0  0  0  0  0  0  0  0
    0.2302   -1.3567   -2.2070 H   0  0  0  0  0  0  0  0  0  0  0  0
    0.2264   -3.2309    0.2127 H   0  0  0  0  0  0  0  0  0  0  0  0
    0.1038    0.0156   -0.2103 H   0  0  0  0  0  0  0  0  0  0  0  0
   -0.6641   -1.0698    1.1830 H   0  0  0  0  0  0  0  0  0  0  0  0
    1.3609   -0.1170    2.1691 H   0  0  0  0  0  0  0  0  0  0  0  0
    2.6702   -2.4045    0.6141 H   0  0  0  0  0  0  0  0  0  0  0  0
    3.3730   -1.4334    2.0213 H   0  0  0  0  0  0  0  0  0  0  0  0
  1  2  1  0
  1  5  1  0
  2  3  1  0
  2  6  1  0
  2 16  1  0
  3  4  2  0
  3  7  1  0
  8  9  2  3
  8 13  1  0
  8 14  1  0
  9 10  1  0
  9 15  1  0
 10 11  1  0
 10 17  1  0
 11 12  2  3
 11 18  1  0
 12 19  1  0
 12 20  1  0
M  RAD  1  10   2
M  END
>  <reaction>  (15) 
rxn_1158

>  <mol_properties>  (15) 
{"1": {"label": "*1", "atom_type": "Cs"}, "2": {"label": "*0", "atom_type": "CS"}, "8": {"label": "*4", "atom_type": "Cd"}, "9": {"label": "*3", "atom_type": "Cs"}, "15": {"label": "*2", "atom_type": "H0"}}

>  <type>  (15) 
unop_11

>  <geom_source>  (15) 
Heuristics

$$$$

     RDKit          3D

 20 18  0  0  0  0  0  0  0  0999 V2000
   -1.0820    0.5902   -2.1482 S   0  0  0  0  0  0  0  0  0  0  0  0
   -0.9662    1.0389   -0.3874 C   0  0  0  0  0  0  0  0  0  0  0  0
    0.1642    1.9872   -0.1783 C   0  0  0  0  0  0  0  0  0  0  0  0
    1.4799    1.6798    0.6910 S   0  0  0  0  0  0  0  0  0  0  0  0
    0.1154   -0.0071   -2.2192 H   0  0  0  0  0  0  0  0  0  0  0  0
   -1.9159    1.5317   -0.1656 H   0  0  0  0  0  0  0  0  0  0  0  0
    0.0551    2.9399   -0.6979 H   0  0  0  0  0  0  0  0  0  0  0  0
   -0.7269   -2.3233   -1.0728 C   0  0  0  0  0  0  0  0  0  0  0  0
   -0.7269   -2.3233    0.2505 C   0  0  0  0  0  0  0  0  0  0  0  0
   -0.7269   -1.0975    1.1085 C   0  0  0  0  0  3  0  0  0  0  0  0
    0.4828   -0.9432    1.9897 C   0  0  0  0  0  0  0  0  0  0  0  0
    1.5940   -1.6589    1.9172 C   0  0  0  0  0  0  0  0  0  0  0  0
   -0.7351   -3.2461   -1.6393 H   0  0  0  0  0  0  0  0  0  0  0  0
   -0.7206   -1.3979   -1.6388 H   0  0  0  0  0  0  0  0  0  0  0  0
   -0.7243   -3.2721    0.7810 H   0  0  0  0  0  0  0  0  0  0  0  0
   -0.8470   -0.0255    0.3579 H   0  0  0  0  0  0  0  0  0  0  0  0
   -1.6149   -1.1110    1.7512 H   0  0  0  0  0  0  0  0  0  0  0  0
    0.4101   -0.1581    2.7374 H   0  0  0  0  0  0  0  0  0  0  0  0
    1.7194   -2.4457    1.1824 H   0  0  0  0  0  0  0  0  0  0  0  0
    2.4222   -1.4746    2.5896 H   0  0  0  0  0  0  0  0  0  0  0  0
  1  2  1  0
  1  5  1  0
  2  3  1  0
  2  6  1  0
  2 16  1  0
  3  4  2  0
  3  7  1  0
  8  9  2  3
  8 13  1  0
  8 14  1  0
  9 10  1  0
  9 15  1  0
 10 11  1  0
 10 17  1  0
 11 12  2  3
 11 18  1  0
 12 19  1  0
 12 20  1  0
M  RAD  1  10   2
M  END
>  <reaction>  (16) 
rxn_1158

>  <mol_properties>  (16) 
{"1": {"label": "*1", "atom_type": "Cs"}, "2": {"label": "*0", "atom_type": "CS"}, "8": {"label": "*4", "atom_type": "Cd"}, "9": {"label": "*3", "atom_type": "Cs"}, "15": {"label": "*2", "atom_type": "H0"}}

>  <type>  (16) 
unop_12

>  <geom_source>  (16) 
Heuristics

$$$$

     RDKit          3D

 20 18  0  0  0  0  0  0  0  0999 V2000
    2.2353   -0.0348    1.7341 S   0  0  0  0  0  0  0  0  0  0  0  0
    2.9659    1.9205   -0.9580 S   0  0  0  0  0  0  0  0  0  0  0  0
    1.8344   -0.1760   -0.0357 C   0  0  0  0  0  0  0  0  0  0  0  0
   -0.7364    0.1974   -0.5595 C   0  0  0  0  0  3  0  0  0  0  0  0
   -1.1200    1.1180    0.5544 C   0  0  0  0  0  0  0  0  0  0  0  0
   -1.9471   -0.4919   -1.1022 C   0  0  0  0  0  0  0  0  0  0  0  0
    2.8882    0.4886   -0.8692 C   0  0  0  0  0  0  0  0  0  0  0  0
   -0.7603    0.8507    1.8102 C   0  0  0  0  0  0  0  0  0  0  0  0
   -2.1224   -1.8008   -0.9182 C   0  0  0  0  0  0  0  0  0  0  0  0
    1.7854   -1.2530   -0.3011 H   0  0  0  0  0  0  0  0  0  0  0  0
    0.6558    0.3643   -0.2698 H   0  0  0  0  0  0  0  0  0  0  0  0
   -1.7132    2.0023    0.3400 H   0  0  0  0  0  0  0  0  0  0  0  0
   -0.2331    0.7695   -1.3667 H   0  0  0  0  0  0  0  0  0  0  0  0
   -2.6990    0.0834   -1.6346 H   0  0  0  0  0  0  0  0  0  0  0  0
    3.5209   -0.1158   -1.5110 H   0  0  0  0  0  0  0  0  0  0  0  0
   -1.0520    1.5201    2.6129 H   0  0  0  0  0  0  0  0  0  0  0  0
   -0.1762   -0.0338    2.0467 H   0  0  0  0  0  0  0  0  0  0  0  0
   -3.0093   -2.2900   -1.3078 H   0  0  0  0  0  0  0  0  0  0  0  0
   -1.3874   -2.3917   -0.3796 H   0  0  0  0  0  0  0  0  0  0  0  0
    1.0704   -0.7270    2.1154 H   0  0  0  0  0  0  0  0  0  0  0  0
  1  3  1  0
  1 20  1  0
  2  7  2  0
  3  7  1  0
  3 10  1  0
  3 11  1  0
  4  5  1  0
  4  6  1  0
  4 13  1  0
  5  8  2  3
  5 12  1  0
  6  9  2  3
  6 14  1  0
  7 15  1  0
  8 16  1  0
  8 17  1  0
  9 18  1  0
  9 19  1  0
M  RAD  1   4   2
M  END
>  <reaction>  (17) 
rxn_1158

>  <mol_properties>  (17) 
{"1": {"label": "*1", "atom_type": "Cs"}, "2": {"label": "*0", "atom_type": "CS"}, "8": {"label": "*4", "atom_type": "Cd"}, "9": {"label": "*3", "atom_type": "Cs"}, "15": {"label": "*2", "atom_type": "H0"}}

>  <type>  (17) 
unop_13

>  <geom_source>  (17) 
AutoTST

$$$$
