
     RDKit          3D

  6  5  0  0  0  0  0  0  0  0999 V2000
   -0.3669    0.0060    0.0609 C   0  0  0  0  0  0  0  0  0  0  0  0
    0.9818   -0.0507    0.4695 O   0  0  0  0  0  0  0  0  0  0  0  0
   -0.6066    0.9462   -0.4488 H   0  0  0  0  0  0  0  0  0  0  0  0
   -0.5221   -0.8115   -0.6420 H   0  0  0  0  0  0  0  0  0  0  0  0
   -1.0602   -0.1268    0.8992 H   0  0  0  0  0  0  0  0  0  0  0  0
    1.1451    0.6595    1.0897 H   0  0  0  0  0  0  0  0  0  0  0  0
  1  2  1  0
  1  3  1  0
  1  4  1  0
  1  5  1  0
  2  6  1  0
M  END
>  <reaction>  (1) 
rxn_194

>  <mol_properties>  (1) 
{"1": {"label": "donator", "atom_type": "O2s"}, "5": {"label": "d_hydrogen", "atom_type": "H0"}}

>  <type>  (1) 
r1h

$$$$

     RDKit          3D

  1  0  0  0  0  0  0  0  0  0999 V2000
    0.0000    0.0000    0.0000 O   0  0  0  0  0 15  0  0  0  0  0  0
M  END
>  <reaction>  (2) 
rxn_194

>  <mol_properties>  (2) 
{"0": {"label": "acceptor", "atom_type": "O2s"}}

>  <type>  (2) 
r2

$$$$

     RDKit          3D

  2  1  0  0  0  0  0  0  0  0999 V2000
    0.0000    0.0000    0.4855 O   0  0  0  0  0  1  0  0  0  0  0  0
    0.0000    0.0000   -0.4855 H   0  0  0  0  0  0  0  0  0  0  0  0
  1  2  1  0
M  RAD  1   1   2
M  END
>  <reaction>  (3) 
rxn_194

>  <mol_properties>  (3) 
{"0": {"label": "a_hydrogen", "atom_type": "H0"}, "1": {"label": "acceptor", "atom_type": "O2s"}}

>  <type>  (3) 
r2h

$$$$

     RDKit          3D

  7  5  0  0  0  0  0  0  0  0999 V2000
    0.0003   -0.7221   -1.1976 C   0  0  0  0  0  0  0  0  0  0  0  0
   -0.0010   -0.7544    0.1942 O   0  0  0  0  0  0  0  0  0  0  0  0
    0.8992   -0.2479   -1.6010 H   0  0  0  0  0  0  0  0  0  0  0  0
    0.0001   -1.7727   -1.5101 H   0  0  0  0  0  0  0  0  0  0  0  0
   -0.8973   -0.2470   -1.6027 H   0  0  0  0  0  0  0  0  0  0  0  0
   -0.0010    0.2587    0.6947 H   0  0  0  0  0  0  0  0  0  0  0  0
   -0.0004    1.4354    0.8152 O   0  0  0  0  0 15  0  0  0  0  0  0
  1  2  1  0
  1  3  1  0
  1  4  1  0
  1  5  1  0
  2  6  1  0
M  END
>  <reaction>  (4) 
rxn_194

>  <mol_properties>  (4) 
{"0": {"label": "*0", "atom_type": "Cs"}, "1": {"label": "*1", "atom_type": "O2s"}, "5": {"label": "*2", "atom_type": "H0"}, "6": {"label": "*3", "atom_type": "O2s"}}

>  <type>  (4) 
ts

$$$$

     RDKit          3D

  7  5  0  0  0  0  0  0  0  0999 V2000
   -0.0000   -0.7512   -1.2002 C   0  0  0  0  0  0  0  0  0  0  0  0
   -0.0000   -0.7512    0.2102 O   0  0  0  0  0  0  0  0  0  0  0  0
    0.8908   -0.2658   -1.6149 H   0  0  0  0  0  0  0  0  0  0  0  0
    0.0000   -1.7926   -1.5193 H   0  0  0  0  0  0  0  0  0  0  0  0
   -0.8908   -0.2658   -1.6149 H   0  0  0  0  0  0  0  0  0  0  0  0
   -0.0000    0.3365    0.5789 H   0  0  0  0  0  0  0  0  0  0  0  0
   -0.0000    1.4399    0.9530 O   0  0  0  0  0 15  0  0  0  0  0  0
  1  2  1  0
  1  3  1  0
  1  4  1  0
  1  5  1  0
  2  6  1  0
M  END
>  <reaction>  (5) 
rxn_194

>  <mol_properties>  (5) 
{"0": {"label": "*0", "atom_type": "Cs"}, "1": {"label": "*1", "atom_type": "O2s"}, "5": {"label": "*2", "atom_type": "H0"}, "6": {"label": "*3", "atom_type": "O2s"}}

>  <type>  (5) 
unop_1

>  <geom_source>  (5) 
Heuristics

$$$$

     RDKit          3D

  7  5  0  0  0  0  0  0  0  0999 V2000
    0.3843   -0.5872   -0.1154 O   0  0  0  0  0  0  0  0  0  0  0  0
    2.3914    0.2452    0.1703 O   0  0  0  0  0 15  0  0  0  0  0  0
   -0.8318    0.0911   -0.0549 C   0  0  0  0  0  0  0  0  0  0  0  0
   -1.2257    0.0523    0.9815 H   0  0  0  0  0  0  0  0  0  0  0  0
   -1.5571   -0.3880   -0.7443 H   0  0  0  0  0  0  0  0  0  0  0  0
   -0.6806    1.1487   -0.3538 H   0  0  0  0  0  0  0  0  0  0  0  0
    1.5195   -0.5621    0.1166 H   0  0  0  0  0  0  0  0  0  0  0  0
  1  3  1  0
  1  7  1  0
  3  4  1  0
  3  5  1  0
  3  6  1  0
M  END
>  <reaction>  (6) 
rxn_194

>  <mol_properties>  (6) 
{"0": {"label": "*0", "atom_type": "Cs"}, "1": {"label": "*1", "atom_type": "O2s"}, "5": {"label": "*2", "atom_type": "H0"}, "6": {"label": "*3", "atom_type": "O2s"}}

>  <type>  (6) 
unop_2

>  <geom_source>  (6) 
AutoTST

$$$$

     RDKit          3D

  7  5  0  0  0  0  0  0  0  0999 V2000
    0.3659   -0.7027   -0.3515 O   0  0  0  0  0  1  0  0  0  0  0  0
    2.3826    0.0981    0.0611 O   0  0  0  0  0  1  0  0  0  0  0  0
   -0.7725    0.0438   -0.0395 C   0  0  0  0  0  0  0  0  0  0  0  0
   -0.9335    0.0467    1.0594 H   0  0  0  0  0  0  0  0  0  0  0  0
   -1.6554   -0.4119   -0.5330 H   0  0  0  0  0  0  0  0  0  0  0  0
   -0.6525    1.0863   -0.4032 H   0  0  0  0  0  0  0  0  0  0  0  0
    1.2653   -0.1604    0.2068 H   0  0  0  0  0  0  0  0  0  0  0  0
  1  3  1  0
  2  7  1  0
  3  4  1  0
  3  5  1  0
  3  6  1  0
M  RAD  2   1   2   2   2
M  END
>  <reaction>  (7) 
rxn_194

>  <mol_properties>  (7) 
{"0": {"label": "*0", "atom_type": "Cs"}, "1": {"label": "*1", "atom_type": "O2s"}, "5": {"label": "*2", "atom_type": "H0"}, "6": {"label": "*3", "atom_type": "O2s"}}

>  <type>  (7) 
unop_3

>  <geom_source>  (7) 
gaussian_log

$$$$
