
     RDKit          3D

 16 15  0  0  0  0  0  0  0  0999 V2000
    1.7961   -0.3807    1.6176 C   0  0  0  0  0  0  0  0  0  0  0  0
    0.8562   -0.8708    0.8256 C   0  0  0  0  0  0  0  0  0  0  0  0
    0.0895   -0.0826   -0.2048 C   0  0  0  0  0  0  0  0  0  0  0  0
   -1.4061   -0.1111    0.0982 C   0  0  0  0  0  0  0  0  0  0  0  0
    0.4476   -0.5902   -1.5797 C   0  0  0  0  0  0  0  0  0  0  0  0
   -0.3793   -1.1113   -2.4728 C   0  0  0  0  0  0  0  0  0  0  0  0
    2.3110   -1.0032    2.3386 H   0  0  0  0  0  0  0  0  0  0  0  0
    2.0846    0.6643    1.5737 H   0  0  0  0  0  0  0  0  0  0  0  0
    0.5921   -1.9241    0.8925 H   0  0  0  0  0  0  0  0  0  0  0  0
    0.4358    0.9557   -0.1462 H   0  0  0  0  0  0  0  0  0  0  0  0
   -1.5968    0.3080    1.0865 H   0  0  0  0  0  0  0  0  0  0  0  0
   -1.9674    0.4693   -0.6359 H   0  0  0  0  0  0  0  0  0  0  0  0
   -1.7902   -1.1338    0.0883 H   0  0  0  0  0  0  0  0  0  0  0  0
    1.5049   -0.5197   -1.8214 H   0  0  0  0  0  0  0  0  0  0  0  0
   -1.4421   -1.2131   -2.2889 H   0  0  0  0  0  0  0  0  0  0  0  0
   -0.0162   -1.4558   -3.4328 H   0  0  0  0  0  0  0  0  0  0  0  0
  1  2  2  3
  1  7  1  0
  1  8  1  0
  2  3  1  0
  2  9  1  0
  3  4  1  0
  3  5  1  0
  3 10  1  0
  4 11  1  0
  4 12  1  0
  4 13  1  0
  5  6  2  3
  5 14  1  0
  6 15  1  0
  6 16  1  0
M  END
>  <reaction>  (1) 
rxn_1172

>  <mol_properties>  (1) 
{"2": {"label": "donator", "atom_type": "Cs"}, "9": {"label": "d_hydrogen", "atom_type": "H0"}}

>  <type>  (1) 
r1h

$$$$

     RDKit          3D

 10  9  0  0  0  0  0  0  0  0999 V2000
    1.2930    0.1441    0.3288 C   0  0  0  0  0  0  0  0  0  0  0  0
   -0.0374   -0.1647    0.9100 C   0  0  0  0  0  3  0  0  0  0  0  0
   -1.2664    0.4569    0.3567 C   0  0  0  0  0  0  0  0  0  0  0  0
    1.4384    1.2242    0.2174 H   0  0  0  0  0  0  0  0  0  0  0  0
    2.1077   -0.2477    0.9385 H   0  0  0  0  0  0  0  0  0  0  0  0
    1.4057   -0.2836   -0.6789 H   0  0  0  0  0  0  0  0  0  0  0  0
   -0.1309   -0.9912    1.6030 H   0  0  0  0  0  0  0  0  0  0  0  0
   -1.5005    0.0716   -0.6471 H   0  0  0  0  0  0  0  0  0  0  0  0
   -2.1382    0.2713    0.9849 H   0  0  0  0  0  0  0  0  0  0  0  0
   -1.1497    1.5406    0.2456 H   0  0  0  0  0  0  0  0  0  0  0  0
  1  2  1  0
  1  4  1  0
  1  5  1  0
  1  6  1  0
  2  3  1  0
  2  7  1  0
  3  8  1  0
  3  9  1  0
  3 10  1  0
M  RAD  1   2   2
M  END
>  <reaction>  (2) 
rxn_1172

>  <mol_properties>  (2) 
{"1": {"label": "acceptor", "atom_type": "Cs"}}

>  <type>  (2) 
r2

$$$$

     RDKit          3D

 11 10  0  0  0  0  0  0  0  0999 V2000
   -1.2710    0.1907   -0.2084 C   0  0  0  0  0  0  0  0  0  0  0  0
    0.0202   -0.6130   -0.2928 C   0  0  0  0  0  0  0  0  0  0  0  0
    0.1086   -1.6953    0.7756 C   0  0  0  0  0  0  0  0  0  0  0  0
   -1.3607    0.6851    0.7620 H   0  0  0  0  0  0  0  0  0  0  0  0
   -2.1429   -0.4567   -0.3299 H   0  0  0  0  0  0  0  0  0  0  0  0
   -1.3158    0.9602   -0.9809 H   0  0  0  0  0  0  0  0  0  0  0  0
    0.8757    0.0616   -0.1992 H   0  0  0  0  0  0  0  0  0  0  0  0
    0.0997   -1.0712   -1.2825 H   0  0  0  0  0  0  0  0  0  0  0  0
   -0.7198   -2.4022    0.6850 H   0  0  0  0  0  0  0  0  0  0  0  0
    1.0395   -2.2596    0.6989 H   0  0  0  0  0  0  0  0  0  0  0  0
    0.0624   -1.2603    1.7770 H   0  0  0  0  0  0  0  0  0  0  0  0
  1  2  1  0
  1  4  1  0
  1  5  1  0
  1  6  1  0
  2  3  1  0
  2  7  1  0
  2  8  1  0
  3  9  1  0
  3 10  1  0
  3 11  1  0
M  END
>  <reaction>  (3) 
rxn_1172

>  <mol_properties>  (3) 
{"0": {"label": "a_hydrogen", "atom_type": "H0"}, "2": {"label": "acceptor", "atom_type": "Cs"}}

>  <type>  (3) 
r2h

$$$$

     RDKit          3D

 26 24  0  0  0  0  0  0  0  0999 V2000
    1.9809   -1.9662   -0.6981 C   0  0  0  0  0  0  0  0  0  0  0  0
    0.6886   -1.6547   -0.7023 C   0  0  0  0  0  0  0  0  0  0  0  0
   -0.0112   -0.7347    0.2253 C   0  0  0  0  0  0  0  0  0  0  0  0
    0.7979   -0.2215    1.3950 C   0  0  0  0  0  0  0  0  0  0  0  0
   -1.3965   -1.1670    0.5260 C   0  0  0  0  0  0  0  0  0  0  0  0
   -2.0486   -1.0238    1.6755 C   0  0  0  0  0  0  0  0  0  0  0  0
    2.3926   -2.6335   -1.4441 H   0  0  0  0  0  0  0  0  0  0  0  0
    2.6680   -1.5830    0.0461 H   0  0  0  0  0  0  0  0  0  0  0  0
    0.0589   -2.0887   -1.4758 H   0  0  0  0  0  0  0  0  0  0  0  0
   -0.1863    0.2897   -0.4788 H   0  0  0  0  0  0  0  0  0  0  0  0
    1.7397    0.2107    1.0550 H   0  0  0  0  0  0  0  0  0  0  0  0
    0.2540    0.5573    1.9306 H   0  0  0  0  0  0  0  0  0  0  0  0
    1.0276   -1.0234    2.1019 H   0  0  0  0  0  0  0  0  0  0  0  0
   -1.9227   -1.6253   -0.3085 H   0  0  0  0  0  0  0  0  0  0  0  0
   -1.5885   -0.5876    2.5535 H   0  0  0  0  0  0  0  0  0  0  0  0
   -3.0741   -1.3550    1.7760 H   0  0  0  0  0  0  0  0  0  0  0  0
    1.1065    1.9447   -1.5290 C   0  0  0  0  0  0  0  0  0  0  0  0
   -0.3091    1.5809   -1.1998 C   0  0  0  0  0  3  0  0  0  0  0  0
   -1.0588    2.4571   -0.2432 C   0  0  0  0  0  0  0  0  0  0  0  0
    1.6802    2.1467   -0.6210 H   0  0  0  0  0  0  0  0  0  0  0  0
    1.6079    1.1445   -2.0760 H   0  0  0  0  0  0  0  0  0  0  0  0
    1.1526    2.8497   -2.1480 H   0  0  0  0  0  0  0  0  0  0  0  0
   -0.8959    1.2278   -2.0471 H   0  0  0  0  0  0  0  0  0  0  0  0
   -1.2972    3.4285   -0.6944 H   0  0  0  0  0  0  0  0  0  0  0  0
   -1.9987    1.9973    0.0670 H   0  0  0  0  0  0  0  0  0  0  0  0
   -0.4657    2.6557    0.6530 H   0  0  0  0  0  0  0  0  0  0  0  0
  1  2  2  3
  1  7  1  0
  1  8  1  0
  2  3  1  0
  2  9  1  0
  3  4  1  0
  3  5  1  0
  3 10  1  0
  4 11  1  0
  4 12  1  0
  4 13  1  0
  5  6  2  3
  5 14  1  0
  6 15  1  0
  6 16  1  0
 17 18  1  0
 17 20  1  0
 17 21  1  0
 17 22  1  0
 18 19  1  0
 18 23  1  0
 19 24  1  0
 19 25  1  0
 19 26  1  0
M  RAD  1  18   2
M  END
>  <reaction>  (4) 
rxn_1172

>  <mol_properties>  (4) 
{"1": {"label": "*0", "atom_type": "Cd"}, "2": {"label": "*1", "atom_type": "Cs"}, "9": {"label": "*2", "atom_type": "H0"}, "16": {"label": "*4", "atom_type": "Cs"}, "17": {"label": "*3", "atom_type": "Cs"}}

>  <type>  (4) 
ts

$$$$

     RDKit          3D

 26 24  0  0  0  0  0  0  0  0999 V2000
    0.1911   -1.8486   -1.5902 C   0  0  0  0  0  0  0  0  0  0  0  0
    0.1911   -1.8486   -0.2670 C   0  0  0  0  0  0  0  0  0  0  0  0
    0.1911   -0.6178    0.6024 C   0  0  0  0  0  3  0  0  0  0  0  0
    1.4295   -0.5880    1.4940 C   0  0  0  0  0  0  0  0  0  0  0  0
   -1.1124   -0.5492    1.3589 C   0  0  0  0  0  0  0  0  0  0  0  0
   -1.2670   -0.5490    2.6738 C   0  0  0  0  0  0  0  0  0  0  0  0
    0.1904   -2.7712   -2.1569 H   0  0  0  0  0  0  0  0  0  0  0  0
    0.1929   -0.9228   -2.1559 H   0  0  0  0  0  0  0  0  0  0  0  0
    0.1864   -2.7944    0.2706 H   0  0  0  0  0  0  0  0  0  0  0  0
    0.2277    0.4265   -0.1964 H   0  0  0  0  0  0  0  0  0  0  0  0
    2.3323   -0.5964    0.8827 H   0  0  0  0  0  0  0  0  0  0  0  0
    1.4442    0.3077    2.1171 H   0  0  0  0  0  0  0  0  0  0  0  0
    1.4621   -1.4598    2.1516 H   0  0  0  0  0  0  0  0  0  0  0  0
   -1.9956   -0.5135    0.7264 H   0  0  0  0  0  0  0  0  0  0  0  0
   -0.4267   -0.5883    3.3564 H   0  0  0  0  0  0  0  0  0  0  0  0
   -2.2534   -0.5059    3.1181 H   0  0  0  0  0  0  0  0  0  0  0  0
   -0.9714    2.3284   -0.7606 C   0  0  0  0  0  0  0  0  0  0  0  0
    0.2642    1.4684   -0.9934 C   0  0  0  0  0  0  0  0  0  0  0  0
    0.9340    1.7537   -2.3315 C   0  0  0  0  0  0  0  0  0  0  0  0
   -1.7183    2.1581   -1.5398 H   0  0  0  0  0  0  0  0  0  0  0  0
   -1.4367    2.1098    0.2020 H   0  0  0  0  0  0  0  0  0  0  0  0
   -0.7163    3.3908   -0.7754 H   0  0  0  0  0  0  0  0  0  0  0  0
    0.9812    1.6349   -0.1846 H   0  0  0  0  0  0  0  0  0  0  0  0
    1.2491    2.7980   -2.3958 H   0  0  0  0  0  0  0  0  0  0  0  0
    1.8162    1.1286   -2.4799 H   0  0  0  0  0  0  0  0  0  0  0  0
    0.2471    1.5652   -3.1602 H   0  0  0  0  0  0  0  0  0  0  0  0
  1  2  2  3
  1  7  1  0
  1  8  1  0
  2  3  1  0
  2  9  1  0
  3  4  1  0
  3  5  1  0
  4 11  1  0
  4 12  1  0
  4 13  1  0
  5  6  2  3
  5 14  1  0
  6 15  1  0
  6 16  1  0
 10 18  1  0
 17 18  1  0
 17 20  1  0
 17 21  1  0
 17 22  1  0
 18 19  1  0
 18 23  1  0
 19 24  1  0
 19 25  1  0
 19 26  1  0
M  RAD  1   3   2
M  END
>  <reaction>  (5) 
rxn_1172

>  <mol_properties>  (5) 
{"1": {"label": "*0", "atom_type": "Cd"}, "2": {"label": "*1", "atom_type": "Cs"}, "9": {"label": "*2", "atom_type": "H0"}, "16": {"label": "*4", "atom_type": "Cs"}, "17": {"label": "*3", "atom_type": "Cs"}}

>  <type>  (5) 
unop_1

>  <geom_source>  (5) 
Heuristics

$$$$

     RDKit          3D

 26 24  0  0  0  0  0  0  0  0999 V2000
    0.0598   -1.7696   -1.5374 C   0  0  0  0  0  0  0  0  0  0  0  0
    0.0598   -1.7696   -0.2142 C   0  0  0  0  0  0  0  0  0  0  0  0
    0.0598   -0.5389    0.6552 C   0  0  0  0  0  3  0  0  0  0  0  0
    1.2982   -0.5091    1.5468 C   0  0  0  0  0  0  0  0  0  0  0  0
   -1.2437   -0.4703    1.4117 C   0  0  0  0  0  0  0  0  0  0  0  0
   -1.3983   -0.4701    2.7267 C   0  0  0  0  0  0  0  0  0  0  0  0
    0.0591   -2.6923   -2.1041 H   0  0  0  0  0  0  0  0  0  0  0  0
    0.0616   -0.8439   -2.1031 H   0  0  0  0  0  0  0  0  0  0  0  0
    0.0551   -2.7155    0.3234 H   0  0  0  0  0  0  0  0  0  0  0  0
    0.0964    0.5055   -0.1436 H   0  0  0  0  0  0  0  0  0  0  0  0
    2.2009   -0.5175    0.9356 H   0  0  0  0  0  0  0  0  0  0  0  0
    1.3129    0.3867    2.1699 H   0  0  0  0  0  0  0  0  0  0  0  0
    1.3308   -1.3808    2.2044 H   0  0  0  0  0  0  0  0  0  0  0  0
   -2.1269   -0.4346    0.7792 H   0  0  0  0  0  0  0  0  0  0  0  0
   -0.5580   -0.5094    3.4092 H   0  0  0  0  0  0  0  0  0  0  0  0
   -2.3847   -0.4269    3.1709 H   0  0  0  0  0  0  0  0  0  0  0  0
   -0.5601    1.2060   -2.2535 C   0  0  0  0  0  0  0  0  0  0  0  0
    0.1329    1.5474   -0.9405 C   0  0  0  0  0  0  0  0  0  0  0  0
    1.3888    2.3859   -1.1407 C   0  0  0  0  0  0  0  0  0  0  0  0
    0.1053    0.6413   -2.9111 H   0  0  0  0  0  0  0  0  0  0  0  0
   -1.4566    0.6057   -2.0896 H   0  0  0  0  0  0  0  0  0  0  0  0
   -0.8573    2.1130   -2.7856 H   0  0  0  0  0  0  0  0  0  0  0  0
   -0.5633    2.0842   -0.2903 H   0  0  0  0  0  0  0  0  0  0  0  0
    1.1531    3.3300   -1.6378 H   0  0  0  0  0  0  0  0  0  0  0  0
    1.8707    2.6200   -0.1899 H   0  0  0  0  0  0  0  0  0  0  0  0
    2.1156    1.8584   -1.7633 H   0  0  0  0  0  0  0  0  0  0  0  0
  1  2  2  3
  1  7  1  0
  1  8  1  0
  2  3  1  0
  2  9  1  0
  3  4  1  0
  3  5  1  0
  4 11  1  0
  4 12  1  0
  4 13  1  0
  5  6  2  3
  5 14  1  0
  6 15  1  0
  6 16  1  0
 10 18  1  0
 17 18  1  0
 17 20  1  0
 17 21  1  0
 17 22  1  0
 18 19  1  0
 18 23  1  0
 19 24  1  0
 19 25  1  0
 19 26  1  0
M  RAD  1   3   2
M  END
>  <reaction>  (6) 
rxn_1172

>  <mol_properties>  (6) 
{"1": {"label": "*0", "atom_type": "Cd"}, "2": {"label": "*1", "atom_type": "Cs"}, "9": {"label": "*2", "atom_type": "H0"}, "16": {"label": "*4", "atom_type": "Cs"}, "17": {"label": "*3", "atom_type": "Cs"}}

>  <type>  (6) 
unop_2

>  <geom_source>  (6) 
Heuristics

$$$$

     RDKit          3D

 26 24  0  0  0  0  0  0  0  0999 V2000
    0.2195   -1.8552   -1.6175 C   0  0  0  0  0  0  0  0  0  0  0  0
    0.2195   -1.8552   -0.2943 C   0  0  0  0  0  0  0  0  0  0  0  0
    0.2195   -0.6244    0.5751 C   0  0  0  0  0  3  0  0  0  0  0  0
    1.4579   -0.5947    1.4667 C   0  0  0  0  0  0  0  0  0  0  0  0
   -1.0840   -0.5559    1.3316 C   0  0  0  0  0  0  0  0  0  0  0  0
   -1.2386   -0.5556    2.6466 C   0  0  0  0  0  0  0  0  0  0  0  0
    0.2188   -2.7778   -2.1842 H   0  0  0  0  0  0  0  0  0  0  0  0
    0.2213   -0.9294   -2.1832 H   0  0  0  0  0  0  0  0  0  0  0  0
    0.2148   -2.8010    0.2433 H   0  0  0  0  0  0  0  0  0  0  0  0
    0.2561    0.4199   -0.2237 H   0  0  0  0  0  0  0  0  0  0  0  0
    2.3607   -0.6030    0.8555 H   0  0  0  0  0  0  0  0  0  0  0  0
    1.4726    0.3011    2.0898 H   0  0  0  0  0  0  0  0  0  0  0  0
    1.4905   -1.4664    2.1243 H   0  0  0  0  0  0  0  0  0  0  0  0
   -1.9671   -0.5201    0.6991 H   0  0  0  0  0  0  0  0  0  0  0  0
   -0.3982   -0.5950    3.3291 H   0  0  0  0  0  0  0  0  0  0  0  0
   -2.2250   -0.5125    3.0908 H   0  0  0  0  0  0  0  0  0  0  0  0
   -0.4220    2.6325   -0.3578 C   0  0  0  0  0  0  0  0  0  0  0  0
    0.2926    1.4618   -1.0207 C   0  0  0  0  0  0  0  0  0  0  0  0
    0.1953    1.4994   -2.5404 C   0  0  0  0  0  0  0  0  0  0  0  0
   -1.4841    2.6378   -0.6146 H   0  0  0  0  0  0  0  0  0  0  0  0
   -0.3412    2.5881    0.7296 H   0  0  0  0  0  0  0  0  0  0  0  0
    0.0010    3.5849   -0.6862 H   0  0  0  0  0  0  0  0  0  0  0  0
    1.3449    1.4620   -0.7232 H   0  0  0  0  0  0  0  0  0  0  0  0
    0.6378    2.4162   -2.9376 H   0  0  0  0  0  0  0  0  0  0  0  0
    0.7127    0.6537   -2.9966 H   0  0  0  0  0  0  0  0  0  0  0  0
   -0.8473    1.4690   -2.8660 H   0  0  0  0  0  0  0  0  0  0  0  0
  1  2  2  3
  1  7  1  0
  1  8  1  0
  2  3  1  0
  2  9  1  0
  3  4  1  0
  3  5  1  0
  4 11  1  0
  4 12  1  0
  4 13  1  0
  5  6  2  3
  5 14  1  0
  6 15  1  0
  6 16  1  0
 10 18  1  0
 17 18  1  0
 17 20  1  0
 17 21  1  0
 17 22  1  0
 18 19  1  0
 18 23  1  0
 19 24  1  0
 19 25  1  0
 19 26  1  0
M  RAD  1   3   2
M  END
>  <reaction>  (7) 
rxn_1172

>  <mol_properties>  (7) 
{"1": {"label": "*0", "atom_type": "Cd"}, "2": {"label": "*1", "atom_type": "Cs"}, "9": {"label": "*2", "atom_type": "H0"}, "16": {"label": "*4", "atom_type": "Cs"}, "17": {"label": "*3", "atom_type": "Cs"}}

>  <type>  (7) 
unop_3

>  <geom_source>  (7) 
Heuristics

$$$$

     RDKit          3D

 26 24  0  0  0  0  0  0  0  0999 V2000
   -0.0536   -1.7949   -1.7768 C   0  0  0  0  0  0  0  0  0  0  0  0
   -0.0536   -1.7949   -0.4535 C   0  0  0  0  0  0  0  0  0  0  0  0
   -0.0536   -0.5641    0.4159 C   0  0  0  0  0  3  0  0  0  0  0  0
    1.1847   -0.5343    1.3075 C   0  0  0  0  0  0  0  0  0  0  0  0
   -1.3572   -0.4956    1.1724 C   0  0  0  0  0  0  0  0  0  0  0  0
   -1.5118   -0.4953    2.4873 C   0  0  0  0  0  0  0  0  0  0  0  0
   -0.0544   -2.7175   -2.3435 H   0  0  0  0  0  0  0  0  0  0  0  0
   -0.0519   -0.8691   -2.3425 H   0  0  0  0  0  0  0  0  0  0  0  0
   -0.0584   -2.7407    0.0841 H   0  0  0  0  0  0  0  0  0  0  0  0
   -0.0170    0.4802   -0.3830 H   0  0  0  0  0  0  0  0  0  0  0  0
    2.0875   -0.5427    0.6962 H   0  0  0  0  0  0  0  0  0  0  0  0
    1.1994    0.3614    1.9306 H   0  0  0  0  0  0  0  0  0  0  0  0
    1.2173   -1.4061    1.9651 H   0  0  0  0  0  0  0  0  0  0  0  0
   -2.2403   -0.4598    0.5398 H   0  0  0  0  0  0  0  0  0  0  0  0
   -0.6714   -0.5346    3.1699 H   0  0  0  0  0  0  0  0  0  0  0  0
   -2.4982   -0.4522    2.9315 H   0  0  0  0  0  0  0  0  0  0  0  0
    1.2833    1.4673   -2.0286 C   0  0  0  0  0  0  0  0  0  0  0  0
    0.0195    1.5221   -1.1799 C   0  0  0  0  0  0  0  0  0  0  0  0
    0.2226    2.2780    0.1269 C   0  0  0  0  0  0  0  0  0  0  0  0
    2.0944    0.9713   -1.4899 H   0  0  0  0  0  0  0  0  0  0  0  0
    1.1181    0.9223   -2.9595 H   0  0  0  0  0  0  0  0  0  0  0  0
    1.6252    2.4728   -2.2856 H   0  0  0  0  0  0  0  0  0  0  0  0
   -0.7834    1.9945   -1.7526 H   0  0  0  0  0  0  0  0  0  0  0  0
    0.5311    3.3091   -0.0621 H   0  0  0  0  0  0  0  0  0  0  0  0
   -0.6927    2.3065    0.7204 H   0  0  0  0  0  0  0  0  0  0  0  0
    1.0003    1.8076    0.7335 H   0  0  0  0  0  0  0  0  0  0  0  0
  1  2  2  3
  1  7  1  0
  1  8  1  0
  2  3  1  0
  2  9  1  0
  3  4  1  0
  3  5  1  0
  4 11  1  0
  4 12  1  0
  4 13  1  0
  5  6  2  3
  5 14  1  0
  6 15  1  0
  6 16  1  0
 10 18  1  0
 17 18  1  0
 17 20  1  0
 17 21  1  0
 17 22  1  0
 18 19  1  0
 18 23  1  0
 19 24  1  0
 19 25  1  0
 19 26  1  0
M  RAD  1   3   2
M  END
>  <reaction>  (8) 
rxn_1172

>  <mol_properties>  (8) 
{"1": {"label": "*0", "atom_type": "Cd"}, "2": {"label": "*1", "atom_type": "Cs"}, "9": {"label": "*2", "atom_type": "H0"}, "16": {"label": "*4", "atom_type": "Cs"}, "17": {"label": "*3", "atom_type": "Cs"}}

>  <type>  (8) 
unop_4

>  <geom_source>  (8) 
Heuristics

$$$$

     RDKit          3D

 26 24  0  0  0  0  0  0  0  0999 V2000
    0.2656   -1.8550   -1.7013 C   0  0  0  0  0  0  0  0  0  0  0  0
    0.2656   -1.8550   -0.3781 C   0  0  0  0  0  0  0  0  0  0  0  0
    0.2656   -0.6242    0.4913 C   0  0  0  0  0  3  0  0  0  0  0  0
    1.5040   -0.5944    1.3829 C   0  0  0  0  0  0  0  0  0  0  0  0
   -1.0379   -0.5557    1.2478 C   0  0  0  0  0  0  0  0  0  0  0  0
   -1.1925   -0.5554    2.5628 C   0  0  0  0  0  0  0  0  0  0  0  0
    0.2649   -2.7776   -2.2680 H   0  0  0  0  0  0  0  0  0  0  0  0
    0.2674   -0.9292   -2.2670 H   0  0  0  0  0  0  0  0  0  0  0  0
    0.2609   -2.8008    0.1595 H   0  0  0  0  0  0  0  0  0  0  0  0
    0.3022    0.4201   -0.3075 H   0  0  0  0  0  0  0  0  0  0  0  0
    2.4067   -0.6028    0.7717 H   0  0  0  0  0  0  0  0  0  0  0  0
    1.5186    0.3013    2.0060 H   0  0  0  0  0  0  0  0  0  0  0  0
    1.5366   -1.4662    2.0405 H   0  0  0  0  0  0  0  0  0  0  0  0
   -1.9211   -0.5199    0.6153 H   0  0  0  0  0  0  0  0  0  0  0  0
   -0.3522   -0.5947    3.2453 H   0  0  0  0  0  0  0  0  0  0  0  0
   -2.1789   -0.5123    3.0070 H   0  0  0  0  0  0  0  0  0  0  0  0
    0.3403    2.7376   -0.2717 C   0  0  0  0  0  0  0  0  0  0  0  0
    0.3387    1.4620   -1.1044 C   0  0  0  0  0  0  0  0  0  0  0  0
   -0.8320    1.3977   -2.0770 C   0  0  0  0  0  0  0  0  0  0  0  0
   -0.5759    2.8203    0.3180 H   0  0  0  0  0  0  0  0  0  0  0  0
    1.1855    2.7652    0.4182 H   0  0  0  0  0  0  0  0  0  0  0  0
    0.4013    3.6215   -0.9112 H   0  0  0  0  0  0  0  0  0  0  0  0
    1.2778    1.3887   -1.6599 H   0  0  0  0  0  0  0  0  0  0  0  0
   -0.8079    2.2394   -2.7734 H   0  0  0  0  0  0  0  0  0  0  0  0
   -0.8159    0.4778   -2.6639 H   0  0  0  0  0  0  0  0  0  0  0  0
   -1.7851    1.4382   -1.5442 H   0  0  0  0  0  0  0  0  0  0  0  0
  1  2  2  3
  1  7  1  0
  1  8  1  0
  2  3  1  0
  2  9  1  0
  3  4  1  0
  3  5  1  0
  4 11  1  0
  4 12  1  0
  4 13  1  0
  5  6  2  3
  5 14  1  0
  6 15  1  0
  6 16  1  0
 10 18  1  0
 17 18  1  0
 17 20  1  0
 17 21  1  0
 17 22  1  0
 18 19  1  0
 18 23  1  0
 19 24  1  0
 19 25  1  0
 19 26  1  0
M  RAD  1   3   2
M  END
>  <reaction>  (9) 
rxn_1172

>  <mol_properties>  (9) 
{"1": {"label": "*0", "atom_type": "Cd"}, "2": {"label": "*1", "atom_type": "Cs"}, "9": {"label": "*2", "atom_type": "H0"}, "16": {"label": "*4", "atom_type": "Cs"}, "17": {"label": "*3", "atom_type": "Cs"}}

>  <type>  (9) 
unop_5

>  <geom_source>  (9) 
Heuristics

$$$$

     RDKit          3D

 26 24  0  0  0  0  0  0  0  0999 V2000
    0.0127   -1.8257   -1.8481 C   0  0  0  0  0  0  0  0  0  0  0  0
    0.0127   -1.8257   -0.5249 C   0  0  0  0  0  0  0  0  0  0  0  0
    0.0127   -0.5949    0.3445 C   0  0  0  0  0  3  0  0  0  0  0  0
    1.2510   -0.5651    1.2361 C   0  0  0  0  0  0  0  0  0  0  0  0
   -1.2909   -0.5263    1.1010 C   0  0  0  0  0  0  0  0  0  0  0  0
   -1.4455   -0.5261    2.4160 C   0  0  0  0  0  0  0  0  0  0  0  0
    0.0119   -2.7483   -2.4148 H   0  0  0  0  0  0  0  0  0  0  0  0
    0.0144   -0.8999   -2.4138 H   0  0  0  0  0  0  0  0  0  0  0  0
    0.0079   -2.7715    0.0127 H   0  0  0  0  0  0  0  0  0  0  0  0
    0.0493    0.4494   -0.4543 H   0  0  0  0  0  0  0  0  0  0  0  0
    2.1538   -0.5735    0.6249 H   0  0  0  0  0  0  0  0  0  0  0  0
    1.2657    0.3306    1.8592 H   0  0  0  0  0  0  0  0  0  0  0  0
    1.2836   -1.4369    1.8937 H   0  0  0  0  0  0  0  0  0  0  0  0
   -2.1740   -0.4906    0.4685 H   0  0  0  0  0  0  0  0  0  0  0  0
   -0.6051   -0.5654    3.0985 H   0  0  0  0  0  0  0  0  0  0  0  0
   -2.4319   -0.4830    2.8602 H   0  0  0  0  0  0  0  0  0  0  0  0
    1.5357    1.8698   -1.5250 C   0  0  0  0  0  0  0  0  0  0  0  0
    0.0858    1.4913   -1.2513 C   0  0  0  0  0  0  0  0  0  0  0  0
   -0.4327    2.0653    0.0611 C   0  0  0  0  0  0  0  0  0  0  0  0
    2.1913    1.5053   -0.7304 H   0  0  0  0  0  0  0  0  0  0  0  0
    1.8887    1.4498   -2.4684 H   0  0  0  0  0  0  0  0  0  0  0  0
    1.6531    2.9549   -1.5770 H   0  0  0  0  0  0  0  0  0  0  0  0
   -0.5432    1.8403   -2.0749 H   0  0  0  0  0  0  0  0  0  0  0  0
   -0.3774    3.1566    0.0591 H   0  0  0  0  0  0  0  0  0  0  0  0
   -1.4718    1.7837    0.2394 H   0  0  0  0  0  0  0  0  0  0  0  0
    0.1608    1.7070    0.9057 H   0  0  0  0  0  0  0  0  0  0  0  0
  1  2  2  3
  1  7  1  0
  1  8  1  0
  2  3  1  0
  2  9  1  0
  3  4  1  0
  3  5  1  0
  4 11  1  0
  4 12  1  0
  4 13  1  0
  5  6  2  3
  5 14  1  0
  6 15  1  0
  6 16  1  0
 10 18  1  0
 17 18  1  0
 17 20  1  0
 17 21  1  0
 17 22  1  0
 18 19  1  0
 18 23  1  0
 19 24  1  0
 19 25  1  0
 19 26  1  0
M  RAD  1   3   2
M  END
>  <reaction>  (10) 
rxn_1172

>  <mol_properties>  (10) 
{"1": {"label": "*0", "atom_type": "Cd"}, "2": {"label": "*1", "atom_type": "Cs"}, "9": {"label": "*2", "atom_type": "H0"}, "16": {"label": "*4", "atom_type": "Cs"}, "17": {"label": "*3", "atom_type": "Cs"}}

>  <type>  (10) 
unop_6

>  <geom_source>  (10) 
Heuristics

$$$$

     RDKit          3D

 26 24  0  0  0  0  0  0  0  0999 V2000
    0.1146   -1.8478   -1.8724 C   0  0  0  0  0  0  0  0  0  0  0  0
    0.1146   -1.8478   -0.5492 C   0  0  0  0  0  0  0  0  0  0  0  0
    0.1146   -0.6170    0.3202 C   0  0  0  0  0  3  0  0  0  0  0  0
    1.3529   -0.5872    1.2118 C   0  0  0  0  0  0  0  0  0  0  0  0
   -1.1890   -0.5484    1.0767 C   0  0  0  0  0  0  0  0  0  0  0  0
   -1.3436   -0.5482    2.3917 C   0  0  0  0  0  0  0  0  0  0  0  0
    0.1138   -2.7704   -2.4391 H   0  0  0  0  0  0  0  0  0  0  0  0
    0.1163   -0.9220   -2.4381 H   0  0  0  0  0  0  0  0  0  0  0  0
    0.1098   -2.7936   -0.0116 H   0  0  0  0  0  0  0  0  0  0  0  0
    0.1512    0.4273   -0.4786 H   0  0  0  0  0  0  0  0  0  0  0  0
    2.2557   -0.5956    0.6006 H   0  0  0  0  0  0  0  0  0  0  0  0
    1.3676    0.3085    1.8349 H   0  0  0  0  0  0  0  0  0  0  0  0
    1.3855   -1.4590    1.8694 H   0  0  0  0  0  0  0  0  0  0  0  0
   -2.0721   -0.5127    0.4442 H   0  0  0  0  0  0  0  0  0  0  0  0
   -0.5032   -0.5875    3.0742 H   0  0  0  0  0  0  0  0  0  0  0  0
   -2.3300   -0.5051    2.8359 H   0  0  0  0  0  0  0  0  0  0  0  0
    1.4390    2.2874   -0.9835 C   0  0  0  0  0  0  0  0  0  0  0  0
    0.1877    1.4692   -1.2756 C   0  0  0  0  0  0  0  0  0  0  0  0
   -0.9578    1.7890   -0.3236 C   0  0  0  0  0  0  0  0  0  0  0  0
    1.7993    2.1015    0.0312 H   0  0  0  0  0  0  0  0  0  0  0  0
    2.2476    2.0445   -1.6751 H   0  0  0  0  0  0  0  0  0  0  0  0
    1.2351    3.3574   -1.0698 H   0  0  0  0  0  0  0  0  0  0  0  0
   -0.1334    1.6500   -2.3051 H   0  0  0  0  0  0  0  0  0  0  0  0
   -1.2373    2.8434   -0.3890 H   0  0  0  0  0  0  0  0  0  0  0  0
   -1.8443    1.1937   -0.5484 H   0  0  0  0  0  0  0  0  0  0  0  0
   -0.6730    1.5874    0.7119 H   0  0  0  0  0  0  0  0  0  0  0  0
  1  2  2  3
  1  7  1  0
  1  8  1  0
  2  3  1  0
  2  9  1  0
  3  4  1  0
  3  5  1  0
  4 11  1  0
  4 12  1  0
  4 13  1  0
  5  6  2  3
  5 14  1  0
  6 15  1  0
  6 16  1  0
 10 18  1  0
 17 18  1  0
 17 20  1  0
 17 21  1  0
 17 22  1  0
 18 19  1  0
 18 23  1  0
 19 24  1  0
 19 25  1  0
 19 26  1  0
M  RAD  1   3   2
M  END
>  <reaction>  (11) 
rxn_1172

>  <mol_properties>  (11) 
{"1": {"label": "*0", "atom_type": "Cd"}, "2": {"label": "*1", "atom_type": "Cs"}, "9": {"label": "*2", "atom_type": "H0"}, "16": {"label": "*4", "atom_type": "Cs"}, "17": {"label": "*3", "atom_type": "Cs"}}

>  <type>  (11) 
unop_7

>  <geom_source>  (11) 
Heuristics

$$$$

     RDKit          3D

 26 24  0  0  0  0  0  0  0  0999 V2000
    0.1731   -1.8279   -1.5640 C   0  0  0  0  0  0  0  0  0  0  0  0
    0.1731   -1.8279   -0.2408 C   0  0  0  0  0  0  0  0  0  0  0  0
    0.1731   -0.5971    0.6286 C   0  0  0  0  0  3  0  0  0  0  0  0
    1.4114   -0.5673    1.5202 C   0  0  0  0  0  0  0  0  0  0  0  0
   -1.1305   -0.5286    1.3851 C   0  0  0  0  0  0  0  0  0  0  0  0
   -1.2851   -0.5283    2.7000 C   0  0  0  0  0  0  0  0  0  0  0  0
    0.1723   -2.7505   -2.1308 H   0  0  0  0  0  0  0  0  0  0  0  0
    0.1748   -0.9021   -2.1298 H   0  0  0  0  0  0  0  0  0  0  0  0
    0.1683   -2.7737    0.2968 H   0  0  0  0  0  0  0  0  0  0  0  0
    0.2097    0.4472   -0.1702 H   0  0  0  0  0  0  0  0  0  0  0  0
    2.3142   -0.5757    0.9089 H   0  0  0  0  0  0  0  0  0  0  0  0
    1.4261    0.3284    2.1433 H   0  0  0  0  0  0  0  0  0  0  0  0
    1.4440   -1.4391    2.1778 H   0  0  0  0  0  0  0  0  0  0  0  0
   -2.0136   -0.4928    0.7526 H   0  0  0  0  0  0  0  0  0  0  0  0
   -0.4447   -0.5676    3.3826 H   0  0  0  0  0  0  0  0  0  0  0  0
   -2.2715   -0.4852    3.1443 H   0  0  0  0  0  0  0  0  0  0  0  0
   -1.1756    1.9159   -1.3093 C   0  0  0  0  0  0  0  0  0  0  0  0
    0.2462    1.4891   -0.9672 C   0  0  0  0  0  0  0  0  0  0  0  0
    1.2747    2.0331   -1.9504 C   0  0  0  0  0  0  0  0  0  0  0  0
   -1.4603    1.5642   -2.3039 H   0  0  0  0  0  0  0  0  0  0  0  0
   -1.8972    1.5169   -0.5945 H   0  0  0  0  0  0  0  0  0  0  0  0
   -1.2681    3.0046   -1.3059 H   0  0  0  0  0  0  0  0  0  0  0  0
    0.4943    1.8264    0.0430 H   0  0  0  0  0  0  0  0  0  0  0  0
    1.2594    3.1255   -1.9672 H   0  0  0  0  0  0  0  0  0  0  0  0
    2.2860    1.7170   -1.6889 H   0  0  0  0  0  0  0  0  0  0  0  0
    1.0672    1.6851   -2.9652 H   0  0  0  0  0  0  0  0  0  0  0  0
  1  2  2  3
  1  7  1  0
  1  8  1  0
  2  3  1  0
  2  9  1  0
  3  4  1  0
  3  5  1  0
  4 11  1  0
  4 12  1  0
  4 13  1  0
  5  6  2  3
  5 14  1  0
  6 15  1  0
  6 16  1  0
 10 18  1  0
 17 18  1  0
 17 20  1  0
 17 21  1  0
 17 22  1  0
 18 19  1  0
 18 23  1  0
 19 24  1  0
 19 25  1  0
 19 26  1  0
M  RAD  1   3   2
M  END
>  <reaction>  (12) 
rxn_1172

>  <mol_properties>  (12) 
{"1": {"label": "*0", "atom_type": "Cd"}, "2": {"label": "*1", "atom_type": "Cs"}, "9": {"label": "*2", "atom_type": "H0"}, "16": {"label": "*4", "atom_type": "Cs"}, "17": {"label": "*3", "atom_type": "Cs"}}

>  <type>  (12) 
unop_8

>  <geom_source>  (12) 
Heuristics

$$$$

     RDKit          3D

 26 24  0  0  0  0  0  0  0  0999 V2000
   -0.0675   -1.7677   -1.6793 C   0  0  0  0  0  0  0  0  0  0  0  0
   -0.0675   -1.7677   -0.3561 C   0  0  0  0  0  0  0  0  0  0  0  0
   -0.0675   -0.5370    0.5133 C   0  0  0  0  0  3  0  0  0  0  0  0
    1.1708   -0.5072    1.4049 C   0  0  0  0  0  0  0  0  0  0  0  0
   -1.3711   -0.4684    1.2698 C   0  0  0  0  0  0  0  0  0  0  0  0
   -1.5257   -0.4681    2.5848 C   0  0  0  0  0  0  0  0  0  0  0  0
   -0.0683   -2.6904   -2.2460 H   0  0  0  0  0  0  0  0  0  0  0  0
   -0.0658   -0.8420   -2.2450 H   0  0  0  0  0  0  0  0  0  0  0  0
   -0.0723   -2.7136    0.1815 H   0  0  0  0  0  0  0  0  0  0  0  0
   -0.0309    0.5074   -0.2855 H   0  0  0  0  0  0  0  0  0  0  0  0
    2.0736   -0.5155    0.7937 H   0  0  0  0  0  0  0  0  0  0  0  0
    1.1855    0.3886    2.0280 H   0  0  0  0  0  0  0  0  0  0  0  0
    1.2034   -1.3789    2.0625 H   0  0  0  0  0  0  0  0  0  0  0  0
   -2.2542   -0.4327    0.6373 H   0  0  0  0  0  0  0  0  0  0  0  0
   -0.6853   -0.5075    3.2673 H   0  0  0  0  0  0  0  0  0  0  0  0
   -2.5121   -0.4250    3.0290 H   0  0  0  0  0  0  0  0  0  0  0  0
    0.7484    1.1838   -2.3612 C   0  0  0  0  0  0  0  0  0  0  0  0
    0.0056    1.5493   -1.0824 C   0  0  0  0  0  0  0  0  0  0  0  0
    0.8471    2.3967   -0.1368 C   0  0  0  0  0  0  0  0  0  0  0  0
    1.6552    0.6165   -2.1376 H   0  0  0  0  0  0  0  0  0  0  0  0
    0.1299    0.5773   -3.0250 H   0  0  0  0  0  0  0  0  0  0  0  0
    1.0476    2.0806   -2.9090 H   0  0  0  0  0  0  0  0  0  0  0  0
   -0.9116    2.0882   -1.3357 H   0  0  0  0  0  0  0  0  0  0  0  0
    1.1494    3.3318   -0.6146 H   0  0  0  0  0  0  0  0  0  0  0  0
    0.2984    2.6481    0.7724 H   0  0  0  0  0  0  0  0  0  0  0  0
    1.7570    1.8677    0.1568 H   0  0  0  0  0  0  0  0  0  0  0  0
  1  2  2  3
  1  7  1  0
  1  8  1  0
  2  3  1  0
  2  9  1  0
  3  4  1  0
  3  5  1  0
  4 11  1  0
  4 12  1  0
  4 13  1  0
  5  6  2  3
  5 14  1  0
  6 15  1  0
  6 16  1  0
 10 18  1  0
 17 18  1  0
 17 20  1  0
 17 21  1  0
 17 22  1  0
 18 19  1  0
 18 23  1  0
 19 24  1  0
 19 25  1  0
 19 26  1  0
M  RAD  1   3   2
M  END
>  <reaction>  (13) 
rxn_1172

>  <mol_properties>  (13) 
{"1": {"label": "*0", "atom_type": "Cd"}, "2": {"label": "*1", "atom_type": "Cs"}, "9": {"label": "*2", "atom_type": "H0"}, "16": {"label": "*4", "atom_type": "Cs"}, "17": {"label": "*3", "atom_type": "Cs"}}

>  <type>  (13) 
unop_9

>  <geom_source>  (13) 
Heuristics

$$$$

     RDKit          3D

 26 24  0  0  0  0  0  0  0  0999 V2000
    0.1327   -1.7976   -1.5382 C   0  0  0  0  0  0  0  0  0  0  0  0
    0.1327   -1.7976   -0.2150 C   0  0  0  0  0  0  0  0  0  0  0  0
    0.1327   -0.5669    0.6544 C   0  0  0  0  0  3  0  0  0  0  0  0
    1.3711   -0.5371    1.5460 C   0  0  0  0  0  0  0  0  0  0  0  0
   -1.1708   -0.4983    1.4109 C   0  0  0  0  0  0  0  0  0  0  0  0
   -1.3254   -0.4981    2.7259 C   0  0  0  0  0  0  0  0  0  0  0  0
    0.1320   -2.7203   -2.1049 H   0  0  0  0  0  0  0  0  0  0  0  0
    0.1345   -0.8719   -2.1039 H   0  0  0  0  0  0  0  0  0  0  0  0
    0.1279   -2.7435    0.3226 H   0  0  0  0  0  0  0  0  0  0  0  0
    0.1693    0.4775   -0.1444 H   0  0  0  0  0  0  0  0  0  0  0  0
    2.2738   -0.5454    0.9348 H   0  0  0  0  0  0  0  0  0  0  0  0
    1.3857    0.3587    2.1691 H   0  0  0  0  0  0  0  0  0  0  0  0
    1.4036   -1.4088    2.2036 H   0  0  0  0  0  0  0  0  0  0  0  0
   -2.0540   -0.4626    0.7784 H   0  0  0  0  0  0  0  0  0  0  0  0
   -0.4851   -0.5374    3.4084 H   0  0  0  0  0  0  0  0  0  0  0  0
   -2.3119   -0.4549    3.1701 H   0  0  0  0  0  0  0  0  0  0  0  0
   -1.0173    1.5064   -1.8493 C   0  0  0  0  0  0  0  0  0  0  0  0
    0.2058    1.5194   -0.9414 C   0  0  0  0  0  0  0  0  0  0  0  0
    1.3876    2.2555   -1.5595 C   0  0  0  0  0  0  0  0  0  0  0  0
   -0.7926    1.0177   -2.8004 H   0  0  0  0  0  0  0  0  0  0  0  0
   -1.8525    0.9751   -1.3897 H   0  0  0  0  0  0  0  0  0  0  0  0
   -1.3494    2.5234   -2.0718 H   0  0  0  0  0  0  0  0  0  0  0  0
   -0.0543    1.9852    0.0132 H   0  0  0  0  0  0  0  0  0  0  0  0
    1.1313    3.2961   -1.7729 H   0  0  0  0  0  0  0  0  0  0  0  0
    2.2532    2.2540   -0.8949 H   0  0  0  0  0  0  0  0  0  0  0  0
    1.6881    1.7904   -2.5015 H   0  0  0  0  0  0  0  0  0  0  0  0
  1  2  2  3
  1  7  1  0
  1  8  1  0
  2  3  1  0
  2  9  1  0
  3  4  1  0
  3  5  1  0
  4 11  1  0
  4 12  1  0
  4 13  1  0
  5  6  2  3
  5 14  1  0
  6 15  1  0
  6 16  1  0
 10 18  1  0
 17 18  1  0
 17 20  1  0
 17 21  1  0
 17 22  1  0
 18 19  1  0
 18 23  1  0
 19 24  1  0
 19 25  1  0
 19 26  1  0
M  RAD  1   3   2
M  END
>  <reaction>  (14) 
rxn_1172

>  <mol_properties>  (14) 
{"1": {"label": "*0", "atom_type": "Cd"}, "2": {"label": "*1", "atom_type": "Cs"}, "9": {"label": "*2", "atom_type": "H0"}, "16": {"label": "*4", "atom_type": "Cs"}, "17": {"label": "*3", "atom_type": "Cs"}}

>  <type>  (14) 
unop_10

>  <geom_source>  (14) 
Heuristics

$$$$

     RDKit          3D

 26 24  0  0  0  0  0  0  0  0999 V2000
    0.2233   -1.8556   -1.8253 C   0  0  0  0  0  0  0  0  0  0  0  0
    0.2233   -1.8556   -0.5020 C   0  0  0  0  0  0  0  0  0  0  0  0
    0.2233   -0.6249    0.3674 C   0  0  0  0  0  3  0  0  0  0  0  0
    1.4617   -0.5951    1.2590 C   0  0  0  0  0  0  0  0  0  0  0  0
   -1.0802   -0.5563    1.1239 C   0  0  0  0  0  0  0  0  0  0  0  0
   -1.2348   -0.5561    2.4388 C   0  0  0  0  0  0  0  0  0  0  0  0
    0.2226   -2.7783   -2.3920 H   0  0  0  0  0  0  0  0  0  0  0  0
    0.2251   -0.9299   -2.3910 H   0  0  0  0  0  0  0  0  0  0  0  0
    0.2186   -2.8015    0.0356 H   0  0  0  0  0  0  0  0  0  0  0  0
    0.2599    0.4195   -0.4314 H   0  0  0  0  0  0  0  0  0  0  0  0
    2.3645   -0.6035    0.6477 H   0  0  0  0  0  0  0  0  0  0  0  0
    1.4764    0.3007    1.8821 H   0  0  0  0  0  0  0  0  0  0  0  0
    1.4943   -1.4668    1.9166 H   0  0  0  0  0  0  0  0  0  0  0  0
   -1.9633   -0.5206    0.4914 H   0  0  0  0  0  0  0  0  0  0  0  0
   -0.3944   -0.5954    3.1214 H   0  0  0  0  0  0  0  0  0  0  0  0
   -2.2212   -0.5129    2.8831 H   0  0  0  0  0  0  0  0  0  0  0  0
    1.0177    2.6079   -0.5314 C   0  0  0  0  0  0  0  0  0  0  0  0
    0.2965    1.4614   -1.2284 C   0  0  0  0  0  0  0  0  0  0  0  0
   -1.2153    1.5257   -1.0523 C   0  0  0  0  0  0  0  0  0  0  0  0
    0.8158    2.6010    0.5425 H   0  0  0  0  0  0  0  0  0  0  0  0
    2.0984    2.5445   -0.6687 H   0  0  0  0  0  0  0  0  0  0  0  0
    0.6866    3.5730   -0.9225 H   0  0  0  0  0  0  0  0  0  0  0  0
    0.5396    1.4729   -2.2945 H   0  0  0  0  0  0  0  0  0  0  0  0
   -1.6168    2.4567   -1.4599 H   0  0  0  0  0  0  0  0  0  0  0  0
   -1.7137    0.6971   -1.5581 H   0  0  0  0  0  0  0  0  0  0  0  0
   -1.4875    1.4847    0.0052 H   0  0  0  0  0  0  0  0  0  0  0  0
  1  2  2  3
  1  7  1  0
  1  8  1  0
  2  3  1  0
  2  9  1  0
  3  4  1  0
  3  5  1  0
  4 11  1  0
  4 12  1  0
  4 13  1  0
  5  6  2  3
  5 14  1  0
  6 15  1  0
  6 16  1  0
 10 18  1  0
 17 18  1  0
 17 20  1  0
 17 21  1  0
 17 22  1  0
 18 19  1  0
 18 23  1  0
 19 24  1  0
 19 25  1  0
 19 26  1  0
M  RAD  1   3   2
M  END
>  <reaction>  (15) 
rxn_1172

>  <mol_properties>  (15) 
{"1": {"label": "*0", "atom_type": "Cd"}, "2": {"label": "*1", "atom_type": "Cs"}, "9": {"label": "*2", "atom_type": "H0"}, "16": {"label": "*4", "atom_type": "Cs"}, "17": {"label": "*3", "atom_type": "Cs"}}

>  <type>  (15) 
unop_11

>  <geom_source>  (15) 
Heuristics

$$$$

     RDKit          3D

 26 24  0  0  0  0  0  0  0  0999 V2000
   -0.0221   -1.7574   -1.5869 C   0  0  0  0  0  0  0  0  0  0  0  0
   -0.0221   -1.7574   -0.2637 C   0  0  0  0  0  0  0  0  0  0  0  0
   -0.0221   -0.5266    0.6057 C   0  0  0  0  0  3  0  0  0  0  0  0
    1.2162   -0.4968    1.4973 C   0  0  0  0  0  0  0  0  0  0  0  0
   -1.3257   -0.4581    1.3622 C   0  0  0  0  0  0  0  0  0  0  0  0
   -1.4803   -0.4578    2.6772 C   0  0  0  0  0  0  0  0  0  0  0  0
   -0.0229   -2.6800   -2.1536 H   0  0  0  0  0  0  0  0  0  0  0  0
   -0.0204   -0.8316   -2.1526 H   0  0  0  0  0  0  0  0  0  0  0  0
   -0.0269   -2.7032    0.2740 H   0  0  0  0  0  0  0  0  0  0  0  0
    0.0145    0.5177   -0.1931 H   0  0  0  0  0  0  0  0  0  0  0  0
    2.1190   -0.5052    0.8861 H   0  0  0  0  0  0  0  0  0  0  0  0
    1.2309    0.3989    2.1204 H   0  0  0  0  0  0  0  0  0  0  0  0
    1.2488   -1.3686    2.1549 H   0  0  0  0  0  0  0  0  0  0  0  0
   -2.2088   -0.4223    0.7297 H   0  0  0  0  0  0  0  0  0  0  0  0
   -0.6399   -0.4971    3.3597 H   0  0  0  0  0  0  0  0  0  0  0  0
   -2.4667   -0.4147    3.1214 H   0  0  0  0  0  0  0  0  0  0  0  0
    0.0776    1.0892   -2.4387 C   0  0  0  0  0  0  0  0  0  0  0  0
    0.0510    1.5596   -0.9900 C   0  0  0  0  0  0  0  0  0  0  0  0
    1.2499    2.4290   -0.6334 C   0  0  0  0  0  0  0  0  0  0  0  0
    0.9761    0.5016   -2.6422 H   0  0  0  0  0  0  0  0  0  0  0  0
   -0.7884    0.4685   -2.6749 H   0  0  0  0  0  0  0  0  0  0  0  0
    0.0773    1.9392   -3.1254 H   0  0  0  0  0  0  0  0  0  0  0  0
   -0.8711    2.1176   -0.8054 H   0  0  0  0  0  0  0  0  0  0  0  0
    1.2866    3.3212   -1.2632 H   0  0  0  0  0  0  0  0  0  0  0  0
    1.2130    2.7558    0.4072 H   0  0  0  0  0  0  0  0  0  0  0  0
    2.1853    1.8837   -0.7800 H   0  0  0  0  0  0  0  0  0  0  0  0
  1  2  2  3
  1  7  1  0
  1  8  1  0
  2  3  1  0
  2  9  1  0
  3  4  1  0
  3  5  1  0
  4 11  1  0
  4 12  1  0
  4 13  1  0
  5  6  2  3
  5 14  1  0
  6 15  1  0
  6 16  1  0
 10 18  1  0
 17 18  1  0
 17 20  1  0
 17 21  1  0
 17 22  1  0
 18 19  1  0
 18 23  1  0
 19 24  1  0
 19 25  1  0
 19 26  1  0
M  RAD  1   3   2
M  END
>  <reaction>  (16) 
rxn_1172

>  <mol_properties>  (16) 
{"1": {"label": "*0", "atom_type": "Cd"}, "2": {"label": "*1", "atom_type": "Cs"}, "9": {"label": "*2", "atom_type": "H0"}, "16": {"label": "*4", "atom_type": "Cs"}, "17": {"label": "*3", "atom_type": "Cs"}}

>  <type>  (16) 
unop_12

>  <geom_source>  (16) 
Heuristics

$$$$

     RDKit          3D

 26 24  0  0  0  0  0  0  0  0999 V2000
    1.5370   -0.3723   -0.0115 C   0  0  0  0  0  0  0  0  0  0  0  0
    2.3864   -0.0645   -1.2398 C   0  0  0  0  0  0  0  0  0  0  0  0
    2.2049    0.1274    1.2649 C   0  0  0  0  0  0  0  0  0  0  0  0
   -1.3737    1.7260    0.3500 C   0  0  0  0  0  0  0  0  0  0  0  0
   -0.9677    0.2693    0.1294 C   0  0  0  0  0  3  0  0  0  0  0  0
   -1.4196   -0.6349    1.2465 C   0  0  0  0  0  0  0  0  0  0  0  0
   -1.4151   -0.2368   -1.2113 C   0  0  0  0  0  0  0  0  0  0  0  0
   -2.7103   -0.8391    1.5336 C   0  0  0  0  0  0  0  0  0  0  0  0
   -0.5287   -0.7162   -2.0843 C   0  0  0  0  0  0  0  0  0  0  0  0
    1.3792   -1.4700    0.0612 H   0  0  0  0  0  0  0  0  0  0  0  0
    0.3775    0.2046   -0.1397 H   0  0  0  0  0  0  0  0  0  0  0  0
    3.3759   -0.5634   -1.1606 H   0  0  0  0  0  0  0  0  0  0  0  0
    1.8701   -0.4382   -2.1486 H   0  0  0  0  0  0  0  0  0  0  0  0
    2.5332    1.0318   -1.3403 H   0  0  0  0  0  0  0  0  0  0  0  0
    3.1899   -0.3668    1.4050 H   0  0  0  0  0  0  0  0  0  0  0  0
    2.3478    1.2278    1.2182 H   0  0  0  0  0  0  0  0  0  0  0  0
    1.5595   -0.1099    2.1364 H   0  0  0  0  0  0  0  0  0  0  0  0
   -0.9228    2.3633   -0.4398 H   0  0  0  0  0  0  0  0  0  0  0  0
   -1.0005    2.0764    1.3354 H   0  0  0  0  0  0  0  0  0  0  0  0
   -2.4783    1.8401    0.3173 H   0  0  0  0  0  0  0  0  0  0  0  0
   -0.6613   -1.1450    1.8316 H   0  0  0  0  0  0  0  0  0  0  0  0
   -2.4702   -0.2245   -1.4697 H   0  0  0  0  0  0  0  0  0  0  0  0
   -3.4959   -0.3526    0.9642 H   0  0  0  0  0  0  0  0  0  0  0  0
   -2.9863   -1.5034    2.3459 H   0  0  0  0  0  0  0  0  0  0  0  0
   -0.8614   -1.0856   -3.0488 H   0  0  0  0  0  0  0  0  0  0  0  0
    0.5303   -0.7437   -1.8452 H   0  0  0  0  0  0  0  0  0  0  0  0
  1  2  1  0
  1  3  1  0
  1 10  1  0
  1 11  1  0
  2 12  1  0
  2 13  1  0
  2 14  1  0
  3 15  1  0
  3 16  1  0
  3 17  1  0
  4  5  1  0
  4 18  1  0
  4 19  1  0
  4 20  1  0
  5  6  1  0
  5  7  1  0
  6  8  2  3
  6 21  1  0
  7  9  2  3
  7 22  1  0
  8 23  1  0
  8 24  1  0
  9 25  1  0
  9 26  1  0
M  RAD  1   5   2
M  END
>  <reaction>  (17) 
rxn_1172

>  <mol_properties>  (17) 
{"1": {"label": "*0", "atom_type": "Cd"}, "2": {"label": "*1", "atom_type": "Cs"}, "9": {"label": "*2", "atom_type": "H0"}, "16": {"label": "*4", "atom_type": "Cs"}, "17": {"label": "*3", "atom_type": "Cs"}}

>  <type>  (17) 
unop_13

>  <geom_source>  (17) 
AutoTST

$$$$
