
     RDKit          3D

 12 11  0  0  0  0  0  0  0  0999 V2000
   -1.4643   -0.2505   -0.5284 C   0  0  0  0  0  0  0  0  0  0  0  0
   -0.3946    0.4302    0.3143 C   0  0  0  0  0  0  0  0  0  0  0  0
   -0.5959    0.2382    1.8102 C   0  0  0  0  0  0  0  0  0  0  0  0
   -0.5633   -1.1190    2.2092 O   0  0  0  0  0  0  0  0  0  0  0  0
   -2.4511    0.1644   -0.3109 H   0  0  0  0  0  0  0  0  0  0  0  0
   -1.5019   -1.3198   -0.3181 H   0  0  0  0  0  0  0  0  0  0  0  0
   -1.2720   -0.1182   -1.5941 H   0  0  0  0  0  0  0  0  0  0  0  0
    0.5965    0.0515    0.0385 H   0  0  0  0  0  0  0  0  0  0  0  0
   -0.3776    1.5047    0.1078 H   0  0  0  0  0  0  0  0  0  0  0  0
   -1.5821    0.6048    2.1034 H   0  0  0  0  0  0  0  0  0  0  0  0
    0.1495    0.8220    2.3649 H   0  0  0  0  0  0  0  0  0  0  0  0
    0.3017   -1.4750    1.9997 H   0  0  0  0  0  0  0  0  0  0  0  0
  1  2  1  0
  1  5  1  0
  1  6  1  0
  1  7  1  0
  2  3  1  0
  2  8  1  0
  2  9  1  0
  3  4  1  0
  3 10  1  0
  3 11  1  0
  4 12  1  0
M  END
>  <reaction>  (1) 
rxn_781

>  <mol_properties>  (1) 
{"1": {"label": "donator", "atom_type": "Cs"}, "7": {"label": "d_hydrogen", "atom_type": "H0"}}

>  <type>  (1) 
r1h

$$$$

     RDKit          3D

  1  0  0  0  0  0  0  0  0  0999 V2000
    0.0000    0.0000    0.0000 O   0  0  0  0  0 15  0  0  0  0  0  0
M  END
>  <reaction>  (2) 
rxn_781

>  <mol_properties>  (2) 
{"0": {"label": "acceptor", "atom_type": "O2s"}}

>  <type>  (2) 
r2

$$$$

     RDKit          3D

  2  1  0  0  0  0  0  0  0  0999 V2000
    0.0000    0.0000    0.4855 O   0  0  0  0  0  1  0  0  0  0  0  0
    0.0000    0.0000   -0.4855 H   0  0  0  0  0  0  0  0  0  0  0  0
  1  2  1  0
M  RAD  1   1   2
M  END
>  <reaction>  (3) 
rxn_781

>  <mol_properties>  (3) 
{"0": {"label": "a_hydrogen", "atom_type": "H0"}, "1": {"label": "acceptor", "atom_type": "O2s"}}

>  <type>  (3) 
r2h

$$$$

     RDKit          3D

 13 11  0  0  0  0  0  0  0  0999 V2000
    0.6704   -0.4777   -1.5835 C   0  0  0  0  0  0  0  0  0  0  0  0
    0.7659   -0.4440   -0.0810 C   0  0  0  0  0  0  0  0  0  0  0  0
    0.6592    0.9147    0.5747 C   0  0  0  0  0  0  0  0  0  0  0  0
   -0.5254    1.5930    0.2370 O   0  0  0  0  0  0  0  0  0  0  0  0
    1.5583   -0.0075   -2.0185 H   0  0  0  0  0  0  0  0  0  0  0  0
   -0.2012    0.0757   -1.9316 H   0  0  0  0  0  0  0  0  0  0  0  0
    0.6165   -1.4996   -1.9587 H   0  0  0  0  0  0  0  0  0  0  0  0
   -0.2367   -1.0437    0.3415 H   0  0  0  0  0  0  0  0  0  0  0  0
    1.5873   -1.0388    0.3231 H   0  0  0  0  0  0  0  0  0  0  0  0
    1.4854    1.5454    0.2301 H   0  0  0  0  0  0  0  0  0  0  0  0
    0.7615    0.8084    1.6615 H   0  0  0  0  0  0  0  0  0  0  0  0
   -1.2630    1.0403    0.5137 H   0  0  0  0  0  0  0  0  0  0  0  0
   -1.4193   -1.3636    0.7808 O   0  0  0  0  0 15  0  0  0  0  0  0
  1  2  1  0
  1  5  1  0
  1  6  1  0
  1  7  1  0
  2  3  1  0
  2  8  1  0
  2  9  1  0
  3  4  1  0
  3 10  1  0
  3 11  1  0
  4 12  1  0
M  END
>  <reaction>  (4) 
rxn_781

>  <mol_properties>  (4) 
{"1": {"label": "*1", "atom_type": "Cs"}, "2": {"label": "*0", "atom_type": "Cs"}, "7": {"label": "*2", "atom_type": "H0"}, "12": {"label": "*3", "atom_type": "O2s"}}

>  <type>  (4) 
ts

$$$$

     RDKit          3D

 13 11  0  0  0  0  0  0  0  0999 V2000
    0.6690   -0.4661   -1.5732 C   0  0  0  0  0  0  0  0  0  0  0  0
    0.6690   -0.4661   -0.0507 C   0  0  0  0  0  3  0  0  0  0  0  0
    0.6690    0.9318    0.5500 C   0  0  0  0  0  0  0  0  0  0  0  0
   -0.4648    1.6966    0.1869 O   0  0  0  0  0  0  0  0  0  0  0  0
    1.5683    0.0182   -1.9606 H   0  0  0  0  0  0  0  0  0  0  0  0
   -0.1925    0.0780   -1.9613 H   0  0  0  0  0  0  0  0  0  0  0  0
    0.6383   -1.4823   -1.9687 H   0  0  0  0  0  0  0  0  0  0  0  0
   -0.3789   -1.1221    0.3985 H   0  0  0  0  0  0  0  0  0  0  0  0
    1.5465   -0.9996    0.3273 H   0  0  0  0  0  0  0  0  0  0  0  0
    1.5302    1.4948    0.1833 H   0  0  0  0  0  0  0  0  0  0  0  0
    0.7591    0.8687    1.6418 H   0  0  0  0  0  0  0  0  0  0  0  0
   -1.2472    1.2538    0.5195 H   0  0  0  0  0  0  0  0  0  0  0  0
   -1.3072   -1.7031    0.7965 O   0  0  0  0  0  1  0  0  0  0  0  0
  1  2  1  0
  1  5  1  0
  1  6  1  0
  1  7  1  0
  2  3  1  0
  2  9  1  0
  3  4  1  0
  3 10  1  0
  3 11  1  0
  4 12  1  0
  8 13  1  0
M  RAD  2   2   2  13   2
M  END
>  <reaction>  (5) 
rxn_781

>  <mol_properties>  (5) 
{"1": {"label": "*1", "atom_type": "Cs"}, "2": {"label": "*0", "atom_type": "Cs"}, "7": {"label": "*2", "atom_type": "H0"}, "12": {"label": "*3", "atom_type": "O2s"}}

>  <type>  (5) 
unop_1

>  <geom_source>  (5) 
Heuristics

$$$$

     RDKit          3D

 13 11  0  0  0  0  0  0  0  0999 V2000
    1.6503    0.6581    0.8067 O   0  0  0  0  0  0  0  0  0  0  0  0
   -0.7958    1.9779   -1.8119 O   0  0  0  0  0  1  0  0  0  0  0  0
    1.1748   -0.0857   -0.2827 C   0  0  0  0  0  0  0  0  0  0  0  0
   -1.1071   -0.5601    0.7201 C   0  0  0  0  0  0  0  0  0  0  0  0
   -0.3371    0.0861   -0.4270 C   0  0  0  0  0  3  0  0  0  0  0  0
    1.6606    0.2984   -1.2039 H   0  0  0  0  0  0  0  0  0  0  0  0
    1.4413   -1.1641   -0.1871 H   0  0  0  0  0  0  0  0  0  0  0  0
   -0.8760   -1.6450    0.7798 H   0  0  0  0  0  0  0  0  0  0  0  0
   -0.8487   -0.0712    1.6823 H   0  0  0  0  0  0  0  0  0  0  0  0
   -2.1961   -0.4353    0.5458 H   0  0  0  0  0  0  0  0  0  0  0  0
   -0.6713   -0.3559   -1.3905 H   0  0  0  0  0  0  0  0  0  0  0  0
    1.6279    0.0581    1.5972 H   0  0  0  0  0  0  0  0  0  0  0  0
   -0.7229    1.2387   -0.8288 H   0  0  0  0  0  0  0  0  0  0  0  0
  1  3  1  0
  1 12  1  0
  2 13  1  0
  3  5  1  0
  3  6  1  0
  3  7  1  0
  4  5  1  0
  4  8  1  0
  4  9  1  0
  4 10  1  0
  5 11  1  0
M  RAD  2   2   2   5   2
M  END
>  <reaction>  (6) 
rxn_781

>  <mol_properties>  (6) 
{"1": {"label": "*1", "atom_type": "Cs"}, "2": {"label": "*0", "atom_type": "Cs"}, "7": {"label": "*2", "atom_type": "H0"}, "12": {"label": "*3", "atom_type": "O2s"}}

>  <type>  (6) 
unop_2

>  <geom_source>  (6) 
AutoTST

$$$$

     RDKit          3D

 13 11  0  0  0  0  0  0  0  0999 V2000
   -1.9867   -0.2942    0.2764 O   0  0  0  0  0  0  0  0  0  0  0  0
    2.0016    1.8671    0.5422 O   0  0  0  0  0 15  0  0  0  0  0  0
    0.3973    0.1111    0.2518 C   0  0  0  0  0  0  0  0  0  0  0  0
   -1.0034    0.6496   -0.0540 C   0  0  0  0  0  0  0  0  0  0  0  0
    0.7342   -1.1133   -0.5951 C   0  0  0  0  0  0  0  0  0  0  0  0
    1.2242    0.9964    0.0162 H   0  0  0  0  0  0  0  0  0  0  0  0
    0.4706   -0.1522    1.3292 H   0  0  0  0  0  0  0  0  0  0  0  0
   -1.1703    1.5929    0.5135 H   0  0  0  0  0  0  0  0  0  0  0  0
   -1.0834    0.8913   -1.1352 H   0  0  0  0  0  0  0  0  0  0  0  0
    0.6795   -0.8612   -1.6754 H   0  0  0  0  0  0  0  0  0  0  0  0
    0.0313   -1.9445   -0.3744 H   0  0  0  0  0  0  0  0  0  0  0  0
    1.7658   -1.4508   -0.3618 H   0  0  0  0  0  0  0  0  0  0  0  0
   -2.0608   -0.2923    1.2665 H   0  0  0  0  0  0  0  0  0  0  0  0
  1  4  1  0
  1 13  1  0
  3  5  1  0
  3  4  1  0
  3  6  1  0
  3  7  1  0
  4  8  1  0
  4  9  1  0
  5 10  1  0
  5 11  1  0
  5 12  1  0
M  END
>  <reaction>  (7) 
rxn_781

>  <mol_properties>  (7) 
{"1": {"label": "*1", "atom_type": "Cs"}, "2": {"label": "*0", "atom_type": "Cs"}, "7": {"label": "*2", "atom_type": "H0"}, "12": {"label": "*3", "atom_type": "O2s"}}

>  <type>  (7) 
unop_3

>  <geom_source>  (7) 
gaussian_log

$$$$
