
     RDKit          3D

 10  9  0  0  0  0  0  0  0  0999 V2000
    1.8334    0.0847   -0.1062 C   0  0  0  0  0  0  0  0  0  0  0  0
    0.5993   -0.4071   -0.0750 C   0  0  0  0  0  0  0  0  0  0  0  0
   -0.5993    0.4071    0.0750 C   0  0  0  0  0  0  0  0  0  0  0  0
   -1.8334   -0.0847    0.1062 C   0  0  0  0  0  0  0  0  0  0  0  0
    2.0179    1.1498   -0.0189 H   0  0  0  0  0  0  0  0  0  0  0  0
    2.6972   -0.5572   -0.2194 H   0  0  0  0  0  0  0  0  0  0  0  0
    0.4465   -1.4793   -0.1649 H   0  0  0  0  0  0  0  0  0  0  0  0
   -0.4465    1.4793    0.1649 H   0  0  0  0  0  0  0  0  0  0  0  0
   -2.0179   -1.1498    0.0189 H   0  0  0  0  0  0  0  0  0  0  0  0
   -2.6972    0.5572    0.2194 H   0  0  0  0  0  0  0  0  0  0  0  0
  1  2  2  3
  1  5  1  0
  1  6  1  0
  2  3  1  0
  2  7  1  0
  3  4  2  3
  3  8  1  0
  4  9  1  0
  4 10  1  0
M  END
>  <reaction>  (1) 
rxn_180

>  <mol_properties>  (1) 
{"3": {"label": "donator", "atom_type": "Cd"}, "9": {"label": "d_hydrogen", "atom_type": "H0"}}

>  <type>  (1) 
r1h

$$$$

     RDKit          3D

 11 11  0  0  0  0  0  0  0  0999 V2000
    0.1524   -1.5397    0.0698 C   0  0  0  0  0  3  0  0  0  0  0  0
   -1.1218   -1.0406    0.0516 C   0  0  0  0  0  0  0  0  0  0  0  0
   -1.2464    0.3470   -0.0114 C   0  0  0  0  0  0  0  0  0  0  0  0
   -0.1137    1.1487   -0.0521 C   0  0  0  0  0  0  0  0  0  0  0  0
    1.1542    0.5837   -0.0308 C   0  0  0  0  0  0  0  0  0  0  0  0
    1.3041   -0.8014    0.0319 C   0  0  0  0  0  0  0  0  0  0  0  0
   -1.9955   -1.6793    0.0840 H   0  0  0  0  0  0  0  0  0  0  0  0
   -2.2319    0.7966   -0.0284 H   0  0  0  0  0  0  0  0  0  0  0  0
   -0.2203    2.2248   -0.1009 H   0  0  0  0  0  0  0  0  0  0  0  0
    2.0325    1.2173   -0.0630 H   0  0  0  0  0  0  0  0  0  0  0  0
    2.2862   -1.2570    0.0492 H   0  0  0  0  0  0  0  0  0  0  0  0
  1  2  2  0
  1  6  1  0
  2  3  1  0
  2  7  1  0
  3  4  2  0
  3  8  1  0
  4  5  1  0
  4  9  1  0
  5  6  2  0
  5 10  1  0
  6 11  1  0
M  RAD  1   1   2
M  END
>  <reaction>  (2) 
rxn_180

>  <mol_properties>  (2) 
{"0": {"label": "acceptor", "atom_type": "Cd"}}

>  <type>  (2) 
r2

$$$$

     RDKit          3D

 12 12  0  0  0  0  0  0  0  0999 V2000
   -1.2385    0.6248   -0.0199 C   0  0  0  0  0  0  0  0  0  0  0  0
   -0.0779    1.3848   -0.0298 C   0  0  0  0  0  0  0  0  0  0  0  0
    1.1605    0.7600   -0.0100 C   0  0  0  0  0  0  0  0  0  0  0  0
    1.2385   -0.6248    0.0199 C   0  0  0  0  0  0  0  0  0  0  0  0
    0.0779   -1.3848    0.0298 C   0  0  0  0  0  0  0  0  0  0  0  0
   -1.1606   -0.7600    0.0100 C   0  0  0  0  0  0  0  0  0  0  0  0
   -2.2052    1.1125   -0.0354 H   0  0  0  0  0  0  0  0  0  0  0  0
   -0.1387    2.4657   -0.0531 H   0  0  0  0  0  0  0  0  0  0  0  0
    2.0664    1.3532   -0.0177 H   0  0  0  0  0  0  0  0  0  0  0  0
    2.2052   -1.1125    0.0354 H   0  0  0  0  0  0  0  0  0  0  0  0
    0.1387   -2.4657    0.0531 H   0  0  0  0  0  0  0  0  0  0  0  0
   -2.0664   -1.3532    0.0177 H   0  0  0  0  0  0  0  0  0  0  0  0
  1  2  2  0
  1  6  1  0
  1  7  1  0
  2  3  1  0
  2  8  1  0
  3  4  2  0
  3  9  1  0
  4  5  1  0
  4 10  1  0
  5  6  2  0
  5 11  1  0
  6 12  1  0
M  END
>  <reaction>  (3) 
rxn_180

>  <mol_properties>  (3) 
{"0": {"label": "a_hydrogen", "atom_type": "H0"}, "1": {"label": "acceptor", "atom_type": "Cd"}}

>  <type>  (3) 
r2h

$$$$

     RDKit          3D

 21 20  0  0  0  0  0  0  0  0999 V2000
    0.9380   -2.7353   -3.8696 C   0  0  0  0  0  0  0  0  0  0  0  0
    0.2435   -2.8177   -2.7397 C   0  0  0  0  0  0  0  0  0  0  0  0
    0.1760   -1.7461   -1.7496 C   0  0  0  0  0  0  0  0  0  0  0  0
   -0.5091   -1.8103   -0.6214 C   0  0  0  0  0  0  0  0  0  0  0  0
    1.5043   -1.8449   -4.1194 H   0  0  0  0  0  0  0  0  0  0  0  0
    0.9634   -3.5518   -4.5793 H   0  0  0  0  0  0  0  0  0  0  0  0
   -0.3148   -3.7217   -2.5148 H   0  0  0  0  0  0  0  0  0  0  0  0
    0.7363   -0.8408   -1.9767 H   0  0  0  0  0  0  0  0  0  0  0  0
   -1.1095   -2.6395   -0.2636 H   0  0  0  0  0  0  0  0  0  0  0  0
   -0.4649   -0.7460    0.1630 H   0  0  0  0  0  0  0  0  0  0  0  0
   -0.3482    0.3768    0.8534 C   0  0  0  0  0  3  0  0  0  0  0  0
   -1.2198    1.4101    0.5840 C   0  0  0  0  0  0  0  0  0  0  0  0
   -1.0880    2.5932    1.3022 C   0  0  0  0  0  0  0  0  0  0  0  0
   -0.0949    2.7144    2.2644 C   0  0  0  0  0  0  0  0  0  0  0  0
    0.7714    1.6593    2.5154 C   0  0  0  0  0  0  0  0  0  0  0  0
    0.6473    0.4725    1.8019 C   0  0  0  0  0  0  0  0  0  0  0  0
   -1.9897    1.3034   -0.1707 H   0  0  0  0  0  0  0  0  0  0  0  0
   -1.7605    3.4203    1.1099 H   0  0  0  0  0  0  0  0  0  0  0  0
    0.0049    3.6372    2.8218 H   0  0  0  0  0  0  0  0  0  0  0  0
    1.5452    1.7601    3.2667 H   0  0  0  0  0  0  0  0  0  0  0  0
    1.3188   -0.3572    1.9871 H   0  0  0  0  0  0  0  0  0  0  0  0
  1  2  2  3
  1  5  1  0
  1  6  1  0
  2  3  1  0
  2  7  1  0
  3  4  2  3
  3  8  1  0
  4  9  1  0
  4 10  1  0
 11 12  2  0
 11 16  1  0
 12 13  1  0
 12 17  1  0
 13 14  2  0
 13 18  1  0
 14 15  1  0
 14 19  1  0
 15 16  2  0
 15 20  1  0
 16 21  1  0
M  RAD  1  11   2
M  END
>  <reaction>  (4) 
rxn_180

>  <mol_properties>  (4) 
{"2": {"label": "*0", "atom_type": "Cd"}, "3": {"label": "*1", "atom_type": "Cd"}, "9": {"label": "*2", "atom_type": "H0"}, "10": {"label": "*3", "atom_type": "Cd"}, "11": {"label": "*4", "atom_type": "Cd"}}

>  <type>  (4) 
ts

$$$$

     RDKit          3D

 21 20  0  0  0  0  0  0  0  0999 V2000
   -0.1636   -2.5585   -4.3200 C   0  0  0  0  0  0  0  0  0  0  0  0
   -0.1636   -2.5585   -2.9911 C   0  0  0  0  0  0  0  0  0  0  0  0
   -0.1636   -1.3512   -2.1758 C   0  0  0  0  0  0  0  0  0  0  0  0
   -0.1636   -1.3512   -0.8469 C   0  0  0  0  0  0  0  0  0  0  0  0
   -0.1636   -1.6319   -4.8834 H   0  0  0  0  0  0  0  0  0  0  0  0
   -0.1636   -3.4801   -4.8872 H   0  0  0  0  0  0  0  0  0  0  0  0
   -0.1636   -3.5034   -2.4545 H   0  0  0  0  0  0  0  0  0  0  0  0
   -0.1636   -0.4062   -2.7124 H   0  0  0  0  0  0  0  0  0  0  0  0
   -0.1636   -2.2778   -0.2835 H   0  0  0  0  0  0  0  0  0  0  0  0
   -0.1636   -0.2453   -0.1663 H   0  0  0  0  0  0  0  0  0  0  0  0
   -0.1636    0.8613    0.5148 C   0  0  0  0  0  3  0  0  0  0  0  0
   -1.2041    1.1371    1.3900 C   0  0  0  0  0  0  0  0  0  0  0  0
   -0.9320    1.6333    2.6566 C   0  0  0  0  0  0  0  0  0  0  0  0
    0.3805    1.8536    3.0481 C   0  0  0  0  0  0  0  0  0  0  0  0
    1.4210    1.5778    2.1729 C   0  0  0  0  0  0  0  0  0  0  0  0
    1.1489    1.0816    0.9063 C   0  0  0  0  0  0  0  0  0  0  0  0
   -2.2286    0.9651    1.0844 H   0  0  0  0  0  0  0  0  0  0  0  0
   -1.7441    1.8486    3.3397 H   0  0  0  0  0  0  0  0  0  0  0  0
    0.5929    2.2409    4.0368 H   0  0  0  0  0  0  0  0  0  0  0  0
    2.4455    1.7498    2.4784 H   0  0  0  0  0  0  0  0  0  0  0  0
    1.9611    0.8663    0.2231 H   0  0  0  0  0  0  0  0  0  0  0  0
  1  2  2  3
  1  5  1  0
  1  6  1  0
  2  3  1  0
  2  7  1  0
  3  4  2  3
  3  8  1  0
  4  9  1  0
  4 10  1  0
 11 12  2  0
 11 16  1  0
 12 13  1  0
 12 17  1  0
 13 14  2  0
 13 18  1  0
 14 15  1  0
 14 19  1  0
 15 16  2  0
 15 20  1  0
 16 21  1  0
M  RAD  1  11   2
M  END
>  <reaction>  (5) 
rxn_180

>  <mol_properties>  (5) 
{"2": {"label": "*0", "atom_type": "Cd"}, "3": {"label": "*1", "atom_type": "Cd"}, "9": {"label": "*2", "atom_type": "H0"}, "10": {"label": "*3", "atom_type": "Cd"}, "11": {"label": "*4", "atom_type": "Cd"}}

>  <type>  (5) 
unop_1

>  <geom_source>  (5) 
Heuristics

$$$$

     RDKit          3D

 21 20  0  0  0  0  0  0  0  0999 V2000
    0.1998   -2.8951   -4.0611 C   0  0  0  0  0  0  0  0  0  0  0  0
    0.1998   -2.8951   -2.7322 C   0  0  0  0  0  0  0  0  0  0  0  0
    0.1998   -1.6878   -1.9169 C   0  0  0  0  0  0  0  0  0  0  0  0
    0.1998   -1.6878   -0.5881 C   0  0  0  0  0  0  0  0  0  0  0  0
    0.1998   -1.9685   -4.6246 H   0  0  0  0  0  0  0  0  0  0  0  0
    0.1998   -3.8167   -4.6283 H   0  0  0  0  0  0  0  0  0  0  0  0
    0.1998   -3.8401   -2.1956 H   0  0  0  0  0  0  0  0  0  0  0  0
    0.1998   -0.7429   -2.4536 H   0  0  0  0  0  0  0  0  0  0  0  0
    0.1998   -2.6144   -0.0246 H   0  0  0  0  0  0  0  0  0  0  0  0
    0.1998   -0.5820    0.0926 H   0  0  0  0  0  0  0  0  0  0  0  0
    0.1998    0.5247    0.7737 C   0  0  0  0  0  3  0  0  0  0  0  0
   -0.4009    1.6607    0.2511 C   0  0  0  0  0  0  0  0  0  0  0  0
   -0.7331    2.7167    1.0874 C   0  0  0  0  0  0  0  0  0  0  0  0
   -0.4647    2.6365    2.4461 C   0  0  0  0  0  0  0  0  0  0  0  0
    0.1360    1.5004    2.9685 C   0  0  0  0  0  0  0  0  0  0  0  0
    0.4683    0.4445    2.1324 C   0  0  0  0  0  0  0  0  0  0  0  0
   -0.6105    1.7233   -0.8094 H   0  0  0  0  0  0  0  0  0  0  0  0
   -1.2020    3.6034    0.6795 H   0  0  0  0  0  0  0  0  0  0  0  0
   -0.7240    3.4607    3.0988 H   0  0  0  0  0  0  0  0  0  0  0  0
    0.3456    1.4378    4.0291 H   0  0  0  0  0  0  0  0  0  0  0  0
    0.9372   -0.4423    2.5402 H   0  0  0  0  0  0  0  0  0  0  0  0
  1  2  2  3
  1  5  1  0
  1  6  1  0
  2  3  1  0
  2  7  1  0
  3  4  2  3
  3  8  1  0
  4  9  1  0
  4 10  1  0
 11 12  2  0
 11 16  1  0
 12 13  1  0
 12 17  1  0
 13 14  2  0
 13 18  1  0
 14 15  1  0
 14 19  1  0
 15 16  2  0
 15 20  1  0
 16 21  1  0
M  RAD  1  11   2
M  END
>  <reaction>  (6) 
rxn_180

>  <mol_properties>  (6) 
{"2": {"label": "*0", "atom_type": "Cd"}, "3": {"label": "*1", "atom_type": "Cd"}, "9": {"label": "*2", "atom_type": "H0"}, "10": {"label": "*3", "atom_type": "Cd"}, "11": {"label": "*4", "atom_type": "Cd"}}

>  <type>  (6) 
unop_2

>  <geom_source>  (6) 
Heuristics

$$$$

     RDKit          3D

 21 20  0  0  0  0  0  0  0  0999 V2000
   -0.3321   -2.7278   -4.1640 C   0  0  0  0  0  0  0  0  0  0  0  0
   -0.3321   -2.7278   -2.8351 C   0  0  0  0  0  0  0  0  0  0  0  0
   -0.3321   -1.5205   -2.0198 C   0  0  0  0  0  0  0  0  0  0  0  0
   -0.3321   -1.5205   -0.6910 C   0  0  0  0  0  0  0  0  0  0  0  0
   -0.3321   -1.8012   -4.7275 H   0  0  0  0  0  0  0  0  0  0  0  0
   -0.3321   -3.6494   -4.7312 H   0  0  0  0  0  0  0  0  0  0  0  0
   -0.3321   -3.6728   -2.2985 H   0  0  0  0  0  0  0  0  0  0  0  0
   -0.3321   -0.5756   -2.5565 H   0  0  0  0  0  0  0  0  0  0  0  0
   -0.3321   -2.4471   -0.1275 H   0  0  0  0  0  0  0  0  0  0  0  0
   -0.3321   -0.4147   -0.0103 H   0  0  0  0  0  0  0  0  0  0  0  0
   -0.3321    0.6920    0.6708 C   0  0  0  0  0  3  0  0  0  0  0  0
   -0.9329    0.7373    1.9204 C   0  0  0  0  0  0  0  0  0  0  0  0
   -0.3805    1.5150    2.9277 C   0  0  0  0  0  0  0  0  0  0  0  0
    0.7725    2.2474    2.6854 C   0  0  0  0  0  0  0  0  0  0  0  0
    1.3732    2.2021    1.4357 C   0  0  0  0  0  0  0  0  0  0  0  0
    0.8209    1.4243    0.4284 C   0  0  0  0  0  0  0  0  0  0  0  0
   -1.8329    0.1656    2.1096 H   0  0  0  0  0  0  0  0  0  0  0  0
   -0.8494    1.5504    3.9032 H   0  0  0  0  0  0  0  0  0  0  0  0
    1.2036    2.8545    3.4716 H   0  0  0  0  0  0  0  0  0  0  0  0
    2.2731    2.7737    1.2465 H   0  0  0  0  0  0  0  0  0  0  0  0
    1.2898    1.3889   -0.5471 H   0  0  0  0  0  0  0  0  0  0  0  0
  1  2  2  3
  1  5  1  0
  1  6  1  0
  2  3  1  0
  2  7  1  0
  3  4  2  3
  3  8  1  0
  4  9  1  0
  4 10  1  0
 11 12  2  0
 11 16  1  0
 12 13  1  0
 12 17  1  0
 13 14  2  0
 13 18  1  0
 14 15  1  0
 14 19  1  0
 15 16  2  0
 15 20  1  0
 16 21  1  0
M  RAD  1  11   2
M  END
>  <reaction>  (7) 
rxn_180

>  <mol_properties>  (7) 
{"2": {"label": "*0", "atom_type": "Cd"}, "3": {"label": "*1", "atom_type": "Cd"}, "9": {"label": "*2", "atom_type": "H0"}, "10": {"label": "*3", "atom_type": "Cd"}, "11": {"label": "*4", "atom_type": "Cd"}}

>  <type>  (7) 
unop_3

>  <geom_source>  (7) 
Heuristics

$$$$

     RDKit          3D

 21 20  0  0  0  0  0  0  0  0999 V2000
   -0.2406   -2.7285   -4.2054 C   0  0  0  0  0  0  0  0  0  0  0  0
   -0.2406   -2.7285   -2.8765 C   0  0  0  0  0  0  0  0  0  0  0  0
   -0.2406   -1.5211   -2.0612 C   0  0  0  0  0  0  0  0  0  0  0  0
   -0.2406   -1.5211   -0.7323 C   0  0  0  0  0  0  0  0  0  0  0  0
   -0.2406   -1.8019   -4.7688 H   0  0  0  0  0  0  0  0  0  0  0  0
   -0.2406   -3.6500   -4.7726 H   0  0  0  0  0  0  0  0  0  0  0  0
   -0.2406   -3.6734   -2.3399 H   0  0  0  0  0  0  0  0  0  0  0  0
   -0.2406   -0.5762   -2.5978 H   0  0  0  0  0  0  0  0  0  0  0  0
   -0.2406   -2.4477   -0.1689 H   0  0  0  0  0  0  0  0  0  0  0  0
   -0.2406   -0.4153   -0.0517 H   0  0  0  0  0  0  0  0  0  0  0  0
   -0.2406    0.6913    0.6294 C   0  0  0  0  0  3  0  0  0  0  0  0
    0.7999    1.5969    0.4814 C   0  0  0  0  0  0  0  0  0  0  0  0
    1.1999    2.3757    1.5575 C   0  0  0  0  0  0  0  0  0  0  0  0
    0.5596    2.2489    2.7816 C   0  0  0  0  0  0  0  0  0  0  0  0
   -0.4809    1.3433    2.9296 C   0  0  0  0  0  0  0  0  0  0  0  0
   -0.8810    0.5645    1.8535 C   0  0  0  0  0  0  0  0  0  0  0  0
    1.2997    1.6959   -0.4741 H   0  0  0  0  0  0  0  0  0  0  0  0
    2.0121    3.0825    1.4420 H   0  0  0  0  0  0  0  0  0  0  0  0
    0.8719    2.8568    3.6216 H   0  0  0  0  0  0  0  0  0  0  0  0
   -0.9807    1.2443    3.8850 H   0  0  0  0  0  0  0  0  0  0  0  0
   -1.6932   -0.1423    1.9690 H   0  0  0  0  0  0  0  0  0  0  0  0
  1  2  2  3
  1  5  1  0
  1  6  1  0
  2  3  1  0
  2  7  1  0
  3  4  2  3
  3  8  1  0
  4  9  1  0
  4 10  1  0
 11 12  2  0
 11 16  1  0
 12 13  1  0
 12 17  1  0
 13 14  2  0
 13 18  1  0
 14 15  1  0
 14 19  1  0
 15 16  2  0
 15 20  1  0
 16 21  1  0
M  RAD  1  11   2
M  END
>  <reaction>  (8) 
rxn_180

>  <mol_properties>  (8) 
{"2": {"label": "*0", "atom_type": "Cd"}, "3": {"label": "*1", "atom_type": "Cd"}, "9": {"label": "*2", "atom_type": "H0"}, "10": {"label": "*3", "atom_type": "Cd"}, "11": {"label": "*4", "atom_type": "Cd"}}

>  <type>  (8) 
unop_4

>  <geom_source>  (8) 
Heuristics

$$$$

     RDKit          3D

 21 20  0  0  0  0  0  0  0  0999 V2000
   -0.0000   -2.9706   -3.9955 C   0  0  0  0  0  0  0  0  0  0  0  0
   -0.0000   -2.9706   -2.6667 C   0  0  0  0  0  0  0  0  0  0  0  0
   -0.0000   -1.7633   -1.8514 C   0  0  0  0  0  0  0  0  0  0  0  0
   -0.0000   -1.7633   -0.5225 C   0  0  0  0  0  0  0  0  0  0  0  0
   -0.0000   -2.0440   -4.5590 H   0  0  0  0  0  0  0  0  0  0  0  0
    0.0000   -3.8922   -4.5627 H   0  0  0  0  0  0  0  0  0  0  0  0
   -0.0000   -3.9156   -2.1300 H   0  0  0  0  0  0  0  0  0  0  0  0
   -0.0000   -0.8184   -2.3880 H   0  0  0  0  0  0  0  0  0  0  0  0
   -0.0000   -2.6899    0.0410 H   0  0  0  0  0  0  0  0  0  0  0  0
   -0.0000   -0.6574    0.1581 H   0  0  0  0  0  0  0  0  0  0  0  0
   -0.0000    0.4492    0.8392 C   0  0  0  0  0  3  0  0  0  0  0  0
   -0.0000    0.4101    2.2260 C   0  0  0  0  0  0  0  0  0  0  0  0
   -0.0000    1.5916    2.9531 C   0  0  0  0  0  0  0  0  0  0  0  0
    0.0000    2.8121    2.2936 C   0  0  0  0  0  0  0  0  0  0  0  0
    0.0000    2.8511    0.9068 C   0  0  0  0  0  0  0  0  0  0  0  0
    0.0000    1.6696    0.1796 C   0  0  0  0  0  0  0  0  0  0  0  0
   -0.0000   -0.5425    2.7408 H   0  0  0  0  0  0  0  0  0  0  0  0
   -0.0000    1.5611    4.0355 H   0  0  0  0  0  0  0  0  0  0  0  0
    0.0000    3.7343    2.8612 H   0  0  0  0  0  0  0  0  0  0  0  0
    0.0000    3.8037    0.3920 H   0  0  0  0  0  0  0  0  0  0  0  0
    0.0000    1.7001   -0.9028 H   0  0  0  0  0  0  0  0  0  0  0  0
  1  2  2  3
  1  5  1  0
  1  6  1  0
  2  3  1  0
  2  7  1  0
  3  4  2  3
  3  8  1  0
  4  9  1  0
  4 10  1  0
 11 12  2  0
 11 16  1  0
 12 13  1  0
 12 17  1  0
 13 14  2  0
 13 18  1  0
 14 15  1  0
 14 19  1  0
 15 16  2  0
 15 20  1  0
 16 21  1  0
M  RAD  1  11   2
M  END
>  <reaction>  (9) 
rxn_180

>  <mol_properties>  (9) 
{"2": {"label": "*0", "atom_type": "Cd"}, "3": {"label": "*1", "atom_type": "Cd"}, "9": {"label": "*2", "atom_type": "H0"}, "10": {"label": "*3", "atom_type": "Cd"}, "11": {"label": "*4", "atom_type": "Cd"}}

>  <type>  (9) 
unop_5

>  <geom_source>  (9) 
Heuristics

$$$$

     RDKit          3D

 21 20  0  0  0  0  0  0  0  0999 V2000
   -0.0912   -2.5845   -4.3215 C   0  0  0  0  0  0  0  0  0  0  0  0
   -0.0912   -2.5845   -2.9926 C   0  0  0  0  0  0  0  0  0  0  0  0
   -0.0912   -1.3772   -2.1773 C   0  0  0  0  0  0  0  0  0  0  0  0
   -0.0912   -1.3772   -0.8484 C   0  0  0  0  0  0  0  0  0  0  0  0
   -0.0912   -1.6579   -4.8849 H   0  0  0  0  0  0  0  0  0  0  0  0
   -0.0912   -3.5061   -4.8886 H   0  0  0  0  0  0  0  0  0  0  0  0
   -0.0912   -3.5294   -2.4560 H   0  0  0  0  0  0  0  0  0  0  0  0
   -0.0912   -0.4322   -2.7139 H   0  0  0  0  0  0  0  0  0  0  0  0
   -0.0912   -2.3038   -0.2849 H   0  0  0  0  0  0  0  0  0  0  0  0
   -0.0912   -0.2713   -0.1678 H   0  0  0  0  0  0  0  0  0  0  0  0
   -0.0912    0.8353    0.5133 C   0  0  0  0  0  3  0  0  0  0  0  0
    1.1102    1.4260    0.8769 C   0  0  0  0  0  0  0  0  0  0  0  0
    1.2619    1.9654    2.1460 C   0  0  0  0  0  0  0  0  0  0  0  0
    0.2121    1.9141    3.0515 C   0  0  0  0  0  0  0  0  0  0  0  0
   -0.9893    1.3234    2.6879 C   0  0  0  0  0  0  0  0  0  0  0  0
   -1.1410    0.7840    1.4188 C   0  0  0  0  0  0  0  0  0  0  0  0
    1.9296    1.4660    0.1701 H   0  0  0  0  0  0  0  0  0  0  0  0
    2.1997    2.4265    2.4298 H   0  0  0  0  0  0  0  0  0  0  0  0
    0.3305    2.3351    4.0421 H   0  0  0  0  0  0  0  0  0  0  0  0
   -1.8087    1.2833    3.3947 H   0  0  0  0  0  0  0  0  0  0  0  0
   -2.0788    0.3229    1.1350 H   0  0  0  0  0  0  0  0  0  0  0  0
  1  2  2  3
  1  5  1  0
  1  6  1  0
  2  3  1  0
  2  7  1  0
  3  4  2  3
  3  8  1  0
  4  9  1  0
  4 10  1  0
 11 12  2  0
 11 16  1  0
 12 13  1  0
 12 17  1  0
 13 14  2  0
 13 18  1  0
 14 15  1  0
 14 19  1  0
 15 16  2  0
 15 20  1  0
 16 21  1  0
M  RAD  1  11   2
M  END
>  <reaction>  (10) 
rxn_180

>  <mol_properties>  (10) 
{"2": {"label": "*0", "atom_type": "Cd"}, "3": {"label": "*1", "atom_type": "Cd"}, "9": {"label": "*2", "atom_type": "H0"}, "10": {"label": "*3", "atom_type": "Cd"}, "11": {"label": "*4", "atom_type": "Cd"}}

>  <type>  (10) 
unop_6

>  <geom_source>  (10) 
Heuristics

$$$$

     RDKit          3D

 21 20  0  0  0  0  0  0  0  0999 V2000
    0.1636   -2.5585   -4.3200 C   0  0  0  0  0  0  0  0  0  0  0  0
    0.1636   -2.5585   -2.9911 C   0  0  0  0  0  0  0  0  0  0  0  0
    0.1636   -1.3512   -2.1758 C   0  0  0  0  0  0  0  0  0  0  0  0
    0.1636   -1.3512   -0.8469 C   0  0  0  0  0  0  0  0  0  0  0  0
    0.1636   -1.6319   -4.8834 H   0  0  0  0  0  0  0  0  0  0  0  0
    0.1636   -3.4801   -4.8872 H   0  0  0  0  0  0  0  0  0  0  0  0
    0.1636   -3.5034   -2.4545 H   0  0  0  0  0  0  0  0  0  0  0  0
    0.1636   -0.4062   -2.7124 H   0  0  0  0  0  0  0  0  0  0  0  0
    0.1636   -2.2778   -0.2835 H   0  0  0  0  0  0  0  0  0  0  0  0
    0.1636   -0.2453   -0.1663 H   0  0  0  0  0  0  0  0  0  0  0  0
    0.1636    0.8613    0.5148 C   0  0  0  0  0  3  0  0  0  0  0  0
    1.2041    1.1371    1.3900 C   0  0  0  0  0  0  0  0  0  0  0  0
    0.9320    1.6333    2.6566 C   0  0  0  0  0  0  0  0  0  0  0  0
   -0.3805    1.8536    3.0481 C   0  0  0  0  0  0  0  0  0  0  0  0
   -1.4210    1.5778    2.1729 C   0  0  0  0  0  0  0  0  0  0  0  0
   -1.1489    1.0816    0.9063 C   0  0  0  0  0  0  0  0  0  0  0  0
    2.2286    0.9651    1.0844 H   0  0  0  0  0  0  0  0  0  0  0  0
    1.7441    1.8486    3.3397 H   0  0  0  0  0  0  0  0  0  0  0  0
   -0.5929    2.2409    4.0368 H   0  0  0  0  0  0  0  0  0  0  0  0
   -2.4455    1.7498    2.4784 H   0  0  0  0  0  0  0  0  0  0  0  0
   -1.9611    0.8663    0.2231 H   0  0  0  0  0  0  0  0  0  0  0  0
  1  2  2  3
  1  5  1  0
  1  6  1  0
  2  3  1  0
  2  7  1  0
  3  4  2  3
  3  8  1  0
  4  9  1  0
  4 10  1  0
 11 12  2  0
 11 16  1  0
 12 13  1  0
 12 17  1  0
 13 14  2  0
 13 18  1  0
 14 15  1  0
 14 19  1  0
 15 16  2  0
 15 20  1  0
 16 21  1  0
M  RAD  1  11   2
M  END
>  <reaction>  (11) 
rxn_180

>  <mol_properties>  (11) 
{"2": {"label": "*0", "atom_type": "Cd"}, "3": {"label": "*1", "atom_type": "Cd"}, "9": {"label": "*2", "atom_type": "H0"}, "10": {"label": "*3", "atom_type": "Cd"}, "11": {"label": "*4", "atom_type": "Cd"}}

>  <type>  (11) 
unop_7

>  <geom_source>  (11) 
Heuristics

$$$$

     RDKit          3D

 21 20  0  0  0  0  0  0  0  0999 V2000
    0.0912   -2.5845   -4.3215 C   0  0  0  0  0  0  0  0  0  0  0  0
    0.0912   -2.5845   -2.9926 C   0  0  0  0  0  0  0  0  0  0  0  0
    0.0912   -1.3772   -2.1773 C   0  0  0  0  0  0  0  0  0  0  0  0
    0.0912   -1.3772   -0.8484 C   0  0  0  0  0  0  0  0  0  0  0  0
    0.0912   -1.6579   -4.8849 H   0  0  0  0  0  0  0  0  0  0  0  0
    0.0912   -3.5061   -4.8886 H   0  0  0  0  0  0  0  0  0  0  0  0
    0.0912   -3.5294   -2.4560 H   0  0  0  0  0  0  0  0  0  0  0  0
    0.0912   -0.4322   -2.7139 H   0  0  0  0  0  0  0  0  0  0  0  0
    0.0912   -2.3038   -0.2849 H   0  0  0  0  0  0  0  0  0  0  0  0
    0.0912   -0.2713   -0.1678 H   0  0  0  0  0  0  0  0  0  0  0  0
    0.0912    0.8353    0.5133 C   0  0  0  0  0  3  0  0  0  0  0  0
   -1.1102    1.4260    0.8769 C   0  0  0  0  0  0  0  0  0  0  0  0
   -1.2619    1.9654    2.1460 C   0  0  0  0  0  0  0  0  0  0  0  0
   -0.2121    1.9141    3.0515 C   0  0  0  0  0  0  0  0  0  0  0  0
    0.9893    1.3234    2.6879 C   0  0  0  0  0  0  0  0  0  0  0  0
    1.1410    0.7840    1.4188 C   0  0  0  0  0  0  0  0  0  0  0  0
   -1.9296    1.4660    0.1701 H   0  0  0  0  0  0  0  0  0  0  0  0
   -2.1997    2.4265    2.4298 H   0  0  0  0  0  0  0  0  0  0  0  0
   -0.3305    2.3351    4.0421 H   0  0  0  0  0  0  0  0  0  0  0  0
    1.8087    1.2833    3.3947 H   0  0  0  0  0  0  0  0  0  0  0  0
    2.0788    0.3229    1.1350 H   0  0  0  0  0  0  0  0  0  0  0  0
  1  2  2  3
  1  5  1  0
  1  6  1  0
  2  3  1  0
  2  7  1  0
  3  4  2  3
  3  8  1  0
  4  9  1  0
  4 10  1  0
 11 12  2  0
 11 16  1  0
 12 13  1  0
 12 17  1  0
 13 14  2  0
 13 18  1  0
 14 15  1  0
 14 19  1  0
 15 16  2  0
 15 20  1  0
 16 21  1  0
M  RAD  1  11   2
M  END
>  <reaction>  (12) 
rxn_180

>  <mol_properties>  (12) 
{"2": {"label": "*0", "atom_type": "Cd"}, "3": {"label": "*1", "atom_type": "Cd"}, "9": {"label": "*2", "atom_type": "H0"}, "10": {"label": "*3", "atom_type": "Cd"}, "11": {"label": "*4", "atom_type": "Cd"}}

>  <type>  (12) 
unop_8

>  <geom_source>  (12) 
Heuristics

$$$$

     RDKit          3D

 21 20  0  0  0  0  0  0  0  0999 V2000
   -0.1998   -2.8951   -4.0611 C   0  0  0  0  0  0  0  0  0  0  0  0
   -0.1998   -2.8951   -2.7322 C   0  0  0  0  0  0  0  0  0  0  0  0
   -0.1998   -1.6878   -1.9169 C   0  0  0  0  0  0  0  0  0  0  0  0
   -0.1998   -1.6878   -0.5881 C   0  0  0  0  0  0  0  0  0  0  0  0
   -0.1998   -1.9685   -4.6246 H   0  0  0  0  0  0  0  0  0  0  0  0
   -0.1998   -3.8167   -4.6283 H   0  0  0  0  0  0  0  0  0  0  0  0
   -0.1998   -3.8401   -2.1956 H   0  0  0  0  0  0  0  0  0  0  0  0
   -0.1998   -0.7429   -2.4536 H   0  0  0  0  0  0  0  0  0  0  0  0
   -0.1998   -2.6144   -0.0246 H   0  0  0  0  0  0  0  0  0  0  0  0
   -0.1998   -0.5820    0.0926 H   0  0  0  0  0  0  0  0  0  0  0  0
   -0.1998    0.5247    0.7737 C   0  0  0  0  0  3  0  0  0  0  0  0
    0.4009    1.6607    0.2511 C   0  0  0  0  0  0  0  0  0  0  0  0
    0.7331    2.7167    1.0874 C   0  0  0  0  0  0  0  0  0  0  0  0
    0.4647    2.6365    2.4461 C   0  0  0  0  0  0  0  0  0  0  0  0
   -0.1360    1.5004    2.9685 C   0  0  0  0  0  0  0  0  0  0  0  0
   -0.4683    0.4445    2.1324 C   0  0  0  0  0  0  0  0  0  0  0  0
    0.6105    1.7233   -0.8094 H   0  0  0  0  0  0  0  0  0  0  0  0
    1.2020    3.6034    0.6795 H   0  0  0  0  0  0  0  0  0  0  0  0
    0.7240    3.4607    3.0988 H   0  0  0  0  0  0  0  0  0  0  0  0
   -0.3456    1.4378    4.0291 H   0  0  0  0  0  0  0  0  0  0  0  0
   -0.9372   -0.4423    2.5402 H   0  0  0  0  0  0  0  0  0  0  0  0
  1  2  2  3
  1  5  1  0
  1  6  1  0
  2  3  1  0
  2  7  1  0
  3  4  2  3
  3  8  1  0
  4  9  1  0
  4 10  1  0
 11 12  2  0
 11 16  1  0
 12 13  1  0
 12 17  1  0
 13 14  2  0
 13 18  1  0
 14 15  1  0
 14 19  1  0
 15 16  2  0
 15 20  1  0
 16 21  1  0
M  RAD  1  11   2
M  END
>  <reaction>  (13) 
rxn_180

>  <mol_properties>  (13) 
{"2": {"label": "*0", "atom_type": "Cd"}, "3": {"label": "*1", "atom_type": "Cd"}, "9": {"label": "*2", "atom_type": "H0"}, "10": {"label": "*3", "atom_type": "Cd"}, "11": {"label": "*4", "atom_type": "Cd"}}

>  <type>  (13) 
unop_9

>  <geom_source>  (13) 
Heuristics

$$$$

     RDKit          3D

 21 20  0  0  0  0  0  0  0  0999 V2000
    0.2406   -2.7285   -4.2054 C   0  0  0  0  0  0  0  0  0  0  0  0
    0.2406   -2.7285   -2.8765 C   0  0  0  0  0  0  0  0  0  0  0  0
    0.2406   -1.5211   -2.0612 C   0  0  0  0  0  0  0  0  0  0  0  0
    0.2406   -1.5211   -0.7323 C   0  0  0  0  0  0  0  0  0  0  0  0
    0.2406   -1.8019   -4.7688 H   0  0  0  0  0  0  0  0  0  0  0  0
    0.2406   -3.6500   -4.7726 H   0  0  0  0  0  0  0  0  0  0  0  0
    0.2406   -3.6734   -2.3399 H   0  0  0  0  0  0  0  0  0  0  0  0
    0.2406   -0.5762   -2.5978 H   0  0  0  0  0  0  0  0  0  0  0  0
    0.2406   -2.4477   -0.1689 H   0  0  0  0  0  0  0  0  0  0  0  0
    0.2406   -0.4153   -0.0517 H   0  0  0  0  0  0  0  0  0  0  0  0
    0.2406    0.6913    0.6294 C   0  0  0  0  0  3  0  0  0  0  0  0
   -0.7999    1.5969    0.4814 C   0  0  0  0  0  0  0  0  0  0  0  0
   -1.1999    2.3757    1.5575 C   0  0  0  0  0  0  0  0  0  0  0  0
   -0.5596    2.2489    2.7816 C   0  0  0  0  0  0  0  0  0  0  0  0
    0.4809    1.3433    2.9296 C   0  0  0  0  0  0  0  0  0  0  0  0
    0.8810    0.5645    1.8535 C   0  0  0  0  0  0  0  0  0  0  0  0
   -1.2997    1.6959   -0.4741 H   0  0  0  0  0  0  0  0  0  0  0  0
   -2.0121    3.0825    1.4420 H   0  0  0  0  0  0  0  0  0  0  0  0
   -0.8719    2.8568    3.6216 H   0  0  0  0  0  0  0  0  0  0  0  0
    0.9807    1.2443    3.8850 H   0  0  0  0  0  0  0  0  0  0  0  0
    1.6932   -0.1423    1.9690 H   0  0  0  0  0  0  0  0  0  0  0  0
  1  2  2  3
  1  5  1  0
  1  6  1  0
  2  3  1  0
  2  7  1  0
  3  4  2  3
  3  8  1  0
  4  9  1  0
  4 10  1  0
 11 12  2  0
 11 16  1  0
 12 13  1  0
 12 17  1  0
 13 14  2  0
 13 18  1  0
 14 15  1  0
 14 19  1  0
 15 16  2  0
 15 20  1  0
 16 21  1  0
M  RAD  1  11   2
M  END
>  <reaction>  (14) 
rxn_180

>  <mol_properties>  (14) 
{"2": {"label": "*0", "atom_type": "Cd"}, "3": {"label": "*1", "atom_type": "Cd"}, "9": {"label": "*2", "atom_type": "H0"}, "10": {"label": "*3", "atom_type": "Cd"}, "11": {"label": "*4", "atom_type": "Cd"}}

>  <type>  (14) 
unop_10

>  <geom_source>  (14) 
Heuristics

$$$$

     RDKit          3D

 21 20  0  0  0  0  0  0  0  0999 V2000
    0.3321   -2.7278   -4.1640 C   0  0  0  0  0  0  0  0  0  0  0  0
    0.3321   -2.7278   -2.8351 C   0  0  0  0  0  0  0  0  0  0  0  0
    0.3321   -1.5205   -2.0198 C   0  0  0  0  0  0  0  0  0  0  0  0
    0.3321   -1.5205   -0.6910 C   0  0  0  0  0  0  0  0  0  0  0  0
    0.3321   -1.8012   -4.7275 H   0  0  0  0  0  0  0  0  0  0  0  0
    0.3321   -3.6494   -4.7312 H   0  0  0  0  0  0  0  0  0  0  0  0
    0.3321   -3.6728   -2.2985 H   0  0  0  0  0  0  0  0  0  0  0  0
    0.3321   -0.5756   -2.5565 H   0  0  0  0  0  0  0  0  0  0  0  0
    0.3321   -2.4471   -0.1275 H   0  0  0  0  0  0  0  0  0  0  0  0
    0.3321   -0.4147   -0.0103 H   0  0  0  0  0  0  0  0  0  0  0  0
    0.3321    0.6920    0.6708 C   0  0  0  0  0  3  0  0  0  0  0  0
    0.9329    0.7373    1.9204 C   0  0  0  0  0  0  0  0  0  0  0  0
    0.3805    1.5150    2.9277 C   0  0  0  0  0  0  0  0  0  0  0  0
   -0.7725    2.2474    2.6854 C   0  0  0  0  0  0  0  0  0  0  0  0
   -1.3732    2.2021    1.4357 C   0  0  0  0  0  0  0  0  0  0  0  0
   -0.8209    1.4243    0.4284 C   0  0  0  0  0  0  0  0  0  0  0  0
    1.8329    0.1656    2.1096 H   0  0  0  0  0  0  0  0  0  0  0  0
    0.8494    1.5504    3.9032 H   0  0  0  0  0  0  0  0  0  0  0  0
   -1.2036    2.8545    3.4716 H   0  0  0  0  0  0  0  0  0  0  0  0
   -2.2731    2.7737    1.2465 H   0  0  0  0  0  0  0  0  0  0  0  0
   -1.2897    1.3889   -0.5471 H   0  0  0  0  0  0  0  0  0  0  0  0
  1  2  2  3
  1  5  1  0
  1  6  1  0
  2  3  1  0
  2  7  1  0
  3  4  2  3
  3  8  1  0
  4  9  1  0
  4 10  1  0
 11 12  2  0
 11 16  1  0
 12 13  1  0
 12 17  1  0
 13 14  2  0
 13 18  1  0
 14 15  1  0
 14 19  1  0
 15 16  2  0
 15 20  1  0
 16 21  1  0
M  RAD  1  11   2
M  END
>  <reaction>  (15) 
rxn_180

>  <mol_properties>  (15) 
{"2": {"label": "*0", "atom_type": "Cd"}, "3": {"label": "*1", "atom_type": "Cd"}, "9": {"label": "*2", "atom_type": "H0"}, "10": {"label": "*3", "atom_type": "Cd"}, "11": {"label": "*4", "atom_type": "Cd"}}

>  <type>  (15) 
unop_11

>  <geom_source>  (15) 
Heuristics

$$$$

     RDKit          3D

 21 20  0  0  0  0  0  0  0  0999 V2000
    0.0000   -2.9706   -3.9955 C   0  0  0  0  0  0  0  0  0  0  0  0
    0.0000   -2.9706   -2.6667 C   0  0  0  0  0  0  0  0  0  0  0  0
    0.0000   -1.7633   -1.8514 C   0  0  0  0  0  0  0  0  0  0  0  0
    0.0000   -1.7633   -0.5225 C   0  0  0  0  0  0  0  0  0  0  0  0
    0.0000   -2.0440   -4.5590 H   0  0  0  0  0  0  0  0  0  0  0  0
    0.0000   -3.8922   -4.5627 H   0  0  0  0  0  0  0  0  0  0  0  0
    0.0000   -3.9156   -2.1300 H   0  0  0  0  0  0  0  0  0  0  0  0
    0.0000   -0.8184   -2.3880 H   0  0  0  0  0  0  0  0  0  0  0  0
    0.0000   -2.6899    0.0410 H   0  0  0  0  0  0  0  0  0  0  0  0
    0.0000   -0.6574    0.1581 H   0  0  0  0  0  0  0  0  0  0  0  0
    0.0000    0.4492    0.8392 C   0  0  0  0  0  3  0  0  0  0  0  0
    0.0000    1.6696    0.1796 C   0  0  0  0  0  0  0  0  0  0  0  0
    0.0000    2.8511    0.9068 C   0  0  0  0  0  0  0  0  0  0  0  0
   -0.0000    2.8121    2.2936 C   0  0  0  0  0  0  0  0  0  0  0  0
   -0.0000    1.5916    2.9531 C   0  0  0  0  0  0  0  0  0  0  0  0
   -0.0000    0.4101    2.2260 C   0  0  0  0  0  0  0  0  0  0  0  0
    0.0000    1.7001   -0.9028 H   0  0  0  0  0  0  0  0  0  0  0  0
    0.0000    3.8037    0.3920 H   0  0  0  0  0  0  0  0  0  0  0  0
   -0.0000    3.7343    2.8612 H   0  0  0  0  0  0  0  0  0  0  0  0
   -0.0000    1.5611    4.0355 H   0  0  0  0  0  0  0  0  0  0  0  0
   -0.0000   -0.5425    2.7408 H   0  0  0  0  0  0  0  0  0  0  0  0
  1  2  2  3
  1  5  1  0
  1  6  1  0
  2  3  1  0
  2  7  1  0
  3  4  2  3
  3  8  1  0
  4  9  1  0
  4 10  1  0
 11 12  2  0
 11 16  1  0
 12 13  1  0
 12 17  1  0
 13 14  2  0
 13 18  1  0
 14 15  1  0
 14 19  1  0
 15 16  2  0
 15 20  1  0
 16 21  1  0
M  RAD  1  11   2
M  END
>  <reaction>  (16) 
rxn_180

>  <mol_properties>  (16) 
{"2": {"label": "*0", "atom_type": "Cd"}, "3": {"label": "*1", "atom_type": "Cd"}, "9": {"label": "*2", "atom_type": "H0"}, "10": {"label": "*3", "atom_type": "Cd"}, "11": {"label": "*4", "atom_type": "Cd"}}

>  <type>  (16) 
unop_12

>  <geom_source>  (16) 
Heuristics

$$$$

     RDKit          3D

 21 20  0  0  0  0  0  0  0  0999 V2000
   -1.7997   -1.4434    0.3222 C   0  0  0  0  0  0  0  0  0  0  0  0
   -3.0435   -1.0531   -0.1856 C   0  0  0  0  0  0  0  0  0  0  0  0
   -0.7013   -0.5839    0.2192 C   0  0  0  0  0  0  0  0  0  0  0  0
   -3.1883    0.1974   -0.7964 C   0  0  0  0  0  0  0  0  0  0  0  0
   -0.8456    0.6660   -0.3912 C   0  0  0  0  0  0  0  0  0  0  0  0
   -2.0892    1.0570   -0.8992 C   0  0  0  0  0  0  0  0  0  0  0  0
    2.8466    0.4434    0.0328 C   0  0  0  0  0  0  0  0  0  0  0  0
    1.9757   -0.4117    0.8541 C   0  0  0  0  0  0  0  0  0  0  0  0
    3.1929    1.6619    0.4371 C   0  0  0  0  0  0  0  0  0  0  0  0
    1.6287   -1.6292    0.4520 C   0  0  0  0  0  3  0  0  0  0  0  0
   -1.6856   -2.4100    0.7949 H   0  0  0  0  0  0  0  0  0  0  0  0
   -3.8936   -1.7183   -0.1059 H   0  0  0  0  0  0  0  0  0  0  0  0
    0.4779   -0.9544    0.7008 H   0  0  0  0  0  0  0  0  0  0  0  0
   -4.1504    0.4996   -1.1893 H   0  0  0  0  0  0  0  0  0  0  0  0
    0.0056    1.3293   -0.4697 H   0  0  0  0  0  0  0  0  0  0  0  0
   -2.2009    2.0244   -1.3717 H   0  0  0  0  0  0  0  0  0  0  0  0
    3.2166    0.0813   -0.9195 H   0  0  0  0  0  0  0  0  0  0  0  0
    1.6036   -0.0543    1.8063 H   0  0  0  0  0  0  0  0  0  0  0  0
    3.8346    2.2752   -0.1820 H   0  0  0  0  0  0  0  0  0  0  0  0
    2.8439    2.0597    1.3822 H   0  0  0  0  0  0  0  0  0  0  0  0
    1.9719   -2.0367   -0.4910 H   0  0  0  0  0  0  0  0  0  0  0  0
  1  2  2  0
  1  3  1  0
  1 11  1  0
  2  4  1  0
  2 12  1  0
  3  5  2  0
  3 13  1  0
  4  6  2  0
  4 14  1  0
  5  6  1  0
  5 15  1  0
  6 16  1  0
  7  9  2  3
  7  8  1  0
  7 17  1  0
  8 10  2  3
  8 18  1  0
  9 19  1  0
  9 20  1  0
 10 21  1  0
M  RAD  1  10   2
M  END
>  <reaction>  (17) 
rxn_180

>  <mol_properties>  (17) 
{"2": {"label": "*0", "atom_type": "Cd"}, "3": {"label": "*1", "atom_type": "Cd"}, "9": {"label": "*2", "atom_type": "H0"}, "10": {"label": "*3", "atom_type": "Cd"}, "11": {"label": "*4", "atom_type": "Cd"}}

>  <type>  (17) 
unop_13

>  <geom_source>  (17) 
AutoTST

$$$$
