
     RDKit          3D

 11 10  0  0  0  0  0  0  0  0999 V2000
   -1.2710    0.1907   -0.2084 C   0  0  0  0  0  0  0  0  0  0  0  0
    0.0202   -0.6130   -0.2928 C   0  0  0  0  0  0  0  0  0  0  0  0
    0.1086   -1.6953    0.7756 C   0  0  0  0  0  0  0  0  0  0  0  0
   -1.3607    0.6851    0.7620 H   0  0  0  0  0  0  0  0  0  0  0  0
   -2.1429   -0.4567   -0.3299 H   0  0  0  0  0  0  0  0  0  0  0  0
   -1.3158    0.9602   -0.9809 H   0  0  0  0  0  0  0  0  0  0  0  0
    0.8757    0.0616   -0.1992 H   0  0  0  0  0  0  0  0  0  0  0  0
    0.0997   -1.0712   -1.2825 H   0  0  0  0  0  0  0  0  0  0  0  0
   -0.7198   -2.4022    0.6850 H   0  0  0  0  0  0  0  0  0  0  0  0
    1.0395   -2.2596    0.6989 H   0  0  0  0  0  0  0  0  0  0  0  0
    0.0624   -1.2603    1.7770 H   0  0  0  0  0  0  0  0  0  0  0  0
  1  2  1  0
  1  4  1  0
  1  5  1  0
  1  6  1  0
  2  3  1  0
  2  7  1  0
  2  8  1  0
  3  9  1  0
  3 10  1  0
  3 11  1  0
M  END
>  <reaction>  (1) 
rxn_911

>  <mol_properties>  (1) 
{"1": {"label": "donator", "atom_type": "Cs"}, "6": {"label": "d_hydrogen", "atom_type": "H0"}}

>  <type>  (1) 
r1h

$$$$

     RDKit          3D

  7  6  0  0  0  0  0  0  0  0999 V2000
   -0.6201    0.0189   -0.0017 C   0  0  0  0  0  0  0  0  0  0  0  0
    0.8589   -0.0553    0.0500 C   0  0  0  0  0  3  0  0  0  0  0  0
   -1.0738   -0.9730   -0.0559 H   0  0  0  0  0  0  0  0  0  0  0  0
   -0.9680    0.5706   -0.8872 H   0  0  0  0  0  0  0  0  0  0  0  0
   -1.0303    0.5369    0.8678 H   0  0  0  0  0  0  0  0  0  0  0  0
    1.3939   -0.8386   -0.4695 H   0  0  0  0  0  0  0  0  0  0  0  0
    1.4394    0.7404    0.4965 H   0  0  0  0  0  0  0  0  0  0  0  0
  1  2  1  0
  1  3  1  0
  1  4  1  0
  1  5  1  0
  2  6  1  0
  2  7  1  0
M  RAD  1   2   2
M  END
>  <reaction>  (2) 
rxn_911

>  <mol_properties>  (2) 
{"1": {"label": "acceptor", "atom_type": "Cs"}}

>  <type>  (2) 
r2

$$$$

     RDKit          3D

  8  7  0  0  0  0  0  0  0  0999 V2000
    0.7610    0.0250    0.0051 C   0  0  0  0  0  0  0  0  0  0  0  0
   -0.7610   -0.0250   -0.0051 C   0  0  0  0  0  0  0  0  0  0  0  0
    1.1904   -0.9237   -0.3217 H   0  0  0  0  0  0  0  0  0  0  0  0
    1.1359    0.8041   -0.6609 H   0  0  0  0  0  0  0  0  0  0  0  0
    1.1435    0.2336    1.0058 H   0  0  0  0  0  0  0  0  0  0  0  0
   -1.1435   -0.2336   -1.0058 H   0  0  0  0  0  0  0  0  0  0  0  0
   -1.1904    0.9237    0.3216 H   0  0  0  0  0  0  0  0  0  0  0  0
   -1.1359   -0.8041    0.6609 H   0  0  0  0  0  0  0  0  0  0  0  0
  1  2  1  0
  1  3  1  0
  1  4  1  0
  1  5  1  0
  2  6  1  0
  2  7  1  0
  2  8  1  0
M  END
>  <reaction>  (3) 
rxn_911

>  <mol_properties>  (3) 
{"1": {"label": "acceptor", "atom_type": "Cs"}, "7": {"label": "a_hydrogen", "atom_type": "H0"}}

>  <type>  (3) 
r2h

$$$$

     RDKit          3D

 18 16  0  0  0  0  0  0  0  0999 V2000
    1.7715   -1.2676    0.2653 C   0  0  0  0  0  0  0  0  0  0  0  0
    0.5236   -1.3167    1.1054 C   0  0  0  0  0  3  0  0  0  0  0  0
    2.4841   -2.0497    0.5471 H   0  0  0  0  0  0  0  0  0  0  0  0
    2.2831   -0.3089    0.3716 H   0  0  0  0  0  0  0  0  0  0  0  0
    1.5414   -1.4064   -0.7935 H   0  0  0  0  0  0  0  0  0  0  0  0
    0.6643   -1.0642    2.1548 H   0  0  0  0  0  0  0  0  0  0  0  0
   -0.0759   -2.2174    0.9853 H   0  0  0  0  0  0  0  0  0  0  0  0
   -1.4743    0.0817   -1.2432 C   0  0  0  0  0  0  0  0  0  0  0  0
   -1.0085    0.6372    0.0783 C   0  0  0  0  0  0  0  0  0  0  0  0
   -0.0906    1.8301   -0.0021 C   0  0  0  0  0  0  0  0  0  0  0  0
   -0.6230   -0.1728   -1.8805 H   0  0  0  0  0  0  0  0  0  0  0  0
   -2.0839    0.8086   -1.7914 H   0  0  0  0  0  0  0  0  0  0  0  0
   -2.0753   -0.8196   -1.1095 H   0  0  0  0  0  0  0  0  0  0  0  0
   -0.2989   -0.3277    0.6402 H   0  0  0  0  0  0  0  0  0  0  0  0
   -1.8232    0.7771    0.7903 H   0  0  0  0  0  0  0  0  0  0  0  0
   -0.6001    2.6991   -0.4333 H   0  0  0  0  0  0  0  0  0  0  0  0
    0.2780    2.1194    0.9839 H   0  0  0  0  0  0  0  0  0  0  0  0
    0.7742    1.6145   -0.6352 H   0  0  0  0  0  0  0  0  0  0  0  0
  1  2  1  0
  1  3  1  0
  1  4  1  0
  1  5  1  0
  2  6  1  0
  2  7  1  0
  8  9  1  0
  8 11  1  0
  8 12  1  0
  8 13  1  0
  9 10  1  0
  9 14  1  0
  9 15  1  0
 10 16  1  0
 10 17  1  0
 10 18  1  0
M  RAD  1   2   2
M  END
>  <reaction>  (4) 
rxn_911

>  <mol_properties>  (4) 
{"0": {"label": "*4", "atom_type": "Cs"}, "1": {"label": "*3", "atom_type": "Cs"}, "7": {"label": "*0", "atom_type": "Cs"}, "8": {"label": "*1", "atom_type": "Cs"}, "13": {"label": "*2", "atom_type": "H0"}}

>  <type>  (4) 
ts

$$$$

     RDKit          3D

 18 16  0  0  0  0  0  0  0  0999 V2000
    1.9652   -0.3615    1.3835 C   0  0  0  0  0  0  0  0  0  0  0  0
    1.0726   -1.2530    0.5305 C   0  0  0  0  0  0  0  0  0  0  0  0
    2.3578   -0.9033    2.2457 H   0  0  0  0  0  0  0  0  0  0  0  0
    1.4169    0.5043    1.7590 H   0  0  0  0  0  0  0  0  0  0  0  0
    2.8169    0.0098    0.8108 H   0  0  0  0  0  0  0  0  0  0  0  0
    0.2209   -1.6243    1.1032 H   0  0  0  0  0  0  0  0  0  0  0  0
    1.6209   -2.1188    0.1550 H   0  0  0  0  0  0  0  0  0  0  0  0
   -1.0242    0.0570   -1.8656 C   0  0  0  0  0  0  0  0  0  0  0  0
   -1.0242    0.0570   -0.3422 C   0  0  0  0  0  3  0  0  0  0  0  0
   -1.0242    1.4628    0.2445 C   0  0  0  0  0  0  0  0  0  0  0  0
   -0.1428    0.5713   -2.2562 H   0  0  0  0  0  0  0  0  0  0  0  0
   -1.9057    0.5712   -2.2562 H   0  0  0  0  0  0  0  0  0  0  0  0
   -1.0242   -0.9579   -2.2667 H   0  0  0  0  0  0  0  0  0  0  0  0
    0.0252   -0.5986    0.0946 H   0  0  0  0  0  0  0  0  0  0  0  0
   -1.8988   -0.4894    0.0218 H   0  0  0  0  0  0  0  0  0  0  0  0
   -1.9057    2.0214   -0.0797 H   0  0  0  0  0  0  0  0  0  0  0  0
   -1.0242    1.4421    1.3356 H   0  0  0  0  0  0  0  0  0  0  0  0
   -0.1428    2.0214   -0.0797 H   0  0  0  0  0  0  0  0  0  0  0  0
  1  2  1  0
  1  3  1  0
  1  4  1  0
  1  5  1  0
  2  6  1  0
  2  7  1  0
  2 14  1  0
  8  9  1  0
  8 11  1  0
  8 12  1  0
  8 13  1  0
  9 10  1  0
  9 15  1  0
 10 16  1  0
 10 17  1  0
 10 18  1  0
M  RAD  1   9   2
M  END
>  <reaction>  (5) 
rxn_911

>  <mol_properties>  (5) 
{"0": {"label": "*4", "atom_type": "Cs"}, "1": {"label": "*3", "atom_type": "Cs"}, "7": {"label": "*0", "atom_type": "Cs"}, "8": {"label": "*1", "atom_type": "Cs"}, "13": {"label": "*2", "atom_type": "H0"}}

>  <type>  (5) 
unop_1

>  <geom_source>  (5) 
Heuristics

$$$$

     RDKit          3D

 18 16  0  0  0  0  0  0  0  0999 V2000
    2.1737   -0.9870   -0.0636 C   0  0  0  0  0  0  0  0  0  0  0  0
    1.0091   -1.0961    0.9115 C   0  0  0  0  0  0  0  0  0  0  0  0
    3.1186   -1.2449    0.4179 H   0  0  0  0  0  0  0  0  0  0  0  0
    2.2685    0.0273   -0.4551 H   0  0  0  0  0  0  0  0  0  0  0  0
    2.0422   -1.6584   -0.9140 H   0  0  0  0  0  0  0  0  0  0  0  0
    1.1406   -0.4247    1.7618 H   0  0  0  0  0  0  0  0  0  0  0  0
    0.9144   -2.1105    1.3030 H   0  0  0  0  0  0  0  0  0  0  0  0
   -1.0877    0.2139   -1.4846 C   0  0  0  0  0  0  0  0  0  0  0  0
   -1.0877    0.2139    0.0387 C   0  0  0  0  0  3  0  0  0  0  0  0
   -1.0877    1.6197    0.6254 C   0  0  0  0  0  0  0  0  0  0  0  0
   -0.2063    0.7281   -1.8753 H   0  0  0  0  0  0  0  0  0  0  0  0
   -1.9692    0.7281   -1.8753 H   0  0  0  0  0  0  0  0  0  0  0  0
   -1.0877   -0.8010   -1.8858 H   0  0  0  0  0  0  0  0  0  0  0  0
   -0.0383   -0.4418    0.4755 H   0  0  0  0  0  0  0  0  0  0  0  0
   -1.9623   -0.3325    0.4027 H   0  0  0  0  0  0  0  0  0  0  0  0
   -1.9692    2.1783    0.3013 H   0  0  0  0  0  0  0  0  0  0  0  0
   -1.0877    1.5990    1.7165 H   0  0  0  0  0  0  0  0  0  0  0  0
   -0.2063    2.1782    0.3013 H   0  0  0  0  0  0  0  0  0  0  0  0
  1  2  1  0
  1  3  1  0
  1  4  1  0
  1  5  1  0
  2  6  1  0
  2  7  1  0
  2 14  1  0
  8  9  1  0
  8 11  1  0
  8 12  1  0
  8 13  1  0
  9 10  1  0
  9 15  1  0
 10 16  1  0
 10 17  1  0
 10 18  1  0
M  RAD  1   9   2
M  END
>  <reaction>  (6) 
rxn_911

>  <mol_properties>  (6) 
{"0": {"label": "*4", "atom_type": "Cs"}, "1": {"label": "*3", "atom_type": "Cs"}, "7": {"label": "*0", "atom_type": "Cs"}, "8": {"label": "*1", "atom_type": "Cs"}, "13": {"label": "*2", "atom_type": "H0"}}

>  <type>  (6) 
unop_2

>  <geom_source>  (6) 
Heuristics

$$$$

     RDKit          3D

 18 16  0  0  0  0  0  0  0  0999 V2000
    1.6288   -0.6355    1.7763 C   0  0  0  0  0  0  0  0  0  0  0  0
    1.1581   -1.1780    0.4336 C   0  0  0  0  0  0  0  0  0  0  0  0
    2.1135   -1.4129    2.3695 H   0  0  0  0  0  0  0  0  0  0  0  0
    0.7932   -0.2466    2.3610 H   0  0  0  0  0  0  0  0  0  0  0  0
    2.3466    0.1762    1.6456 H   0  0  0  0  0  0  0  0  0  0  0  0
    0.4402   -1.9897    0.5643 H   0  0  0  0  0  0  0  0  0  0  0  0
    1.9936   -1.5669   -0.1511 H   0  0  0  0  0  0  0  0  0  0  0  0
   -0.9388    0.1319   -1.9625 C   0  0  0  0  0  0  0  0  0  0  0  0
   -0.9388    0.1319   -0.4392 C   0  0  0  0  0  3  0  0  0  0  0  0
   -0.9388    1.5378    0.1475 C   0  0  0  0  0  0  0  0  0  0  0  0
   -0.0573    0.6462   -2.3532 H   0  0  0  0  0  0  0  0  0  0  0  0
   -1.8202    0.6462   -2.3532 H   0  0  0  0  0  0  0  0  0  0  0  0
   -0.9388   -0.8830   -2.3637 H   0  0  0  0  0  0  0  0  0  0  0  0
    0.1107   -0.5237   -0.0024 H   0  0  0  0  0  0  0  0  0  0  0  0
   -1.8133   -0.4144   -0.0752 H   0  0  0  0  0  0  0  0  0  0  0  0
   -1.8202    2.0963   -0.1766 H   0  0  0  0  0  0  0  0  0  0  0  0
   -0.9388    1.5171    1.2386 H   0  0  0  0  0  0  0  0  0  0  0  0
   -0.0573    2.0963   -0.1766 H   0  0  0  0  0  0  0  0  0  0  0  0
  1  2  1  0
  1  3  1  0
  1  4  1  0
  1  5  1  0
  2  6  1  0
  2  7  1  0
  2 14  1  0
  8  9  1  0
  8 11  1  0
  8 12  1  0
  8 13  1  0
  9 10  1  0
  9 15  1  0
 10 16  1  0
 10 17  1  0
 10 18  1  0
M  RAD  1   9   2
M  END
>  <reaction>  (7) 
rxn_911

>  <mol_properties>  (7) 
{"0": {"label": "*4", "atom_type": "Cs"}, "1": {"label": "*3", "atom_type": "Cs"}, "7": {"label": "*0", "atom_type": "Cs"}, "8": {"label": "*1", "atom_type": "Cs"}, "13": {"label": "*2", "atom_type": "H0"}}

>  <type>  (7) 
unop_3

>  <geom_source>  (7) 
Heuristics

$$$$

     RDKit          3D

 18 16  0  0  0  0  0  0  0  0999 V2000
    1.2477   -2.2148    0.3222 C   0  0  0  0  0  0  0  0  0  0  0  0
    1.2569   -0.7714    0.8074 C   0  0  0  0  0  0  0  0  0  0  0  0
    1.7177   -2.8798    1.0490 H   0  0  0  0  0  0  0  0  0  0  0  0
    1.7893   -2.3193   -0.6196 H   0  0  0  0  0  0  0  0  0  0  0  0
    0.2291   -2.5711    0.1588 H   0  0  0  0  0  0  0  0  0  0  0  0
    2.2755   -0.4152    0.9708 H   0  0  0  0  0  0  0  0  0  0  0  0
    0.7153   -0.6670    1.7492 H   0  0  0  0  0  0  0  0  0  0  0  0
   -0.8400    0.5385   -1.5887 C   0  0  0  0  0  0  0  0  0  0  0  0
   -0.8400    0.5385   -0.0654 C   0  0  0  0  0  3  0  0  0  0  0  0
   -0.8400    1.9443    0.5214 C   0  0  0  0  0  0  0  0  0  0  0  0
    0.0415    1.0528   -1.9793 H   0  0  0  0  0  0  0  0  0  0  0  0
   -1.7214    1.0528   -1.9793 H   0  0  0  0  0  0  0  0  0  0  0  0
   -0.8400   -0.4764   -1.9898 H   0  0  0  0  0  0  0  0  0  0  0  0
    0.2095   -0.1171    0.3715 H   0  0  0  0  0  0  0  0  0  0  0  0
   -1.7145   -0.0078    0.2987 H   0  0  0  0  0  0  0  0  0  0  0  0
   -1.7214    2.5029    0.1972 H   0  0  0  0  0  0  0  0  0  0  0  0
   -0.8400    1.9237    1.6125 H   0  0  0  0  0  0  0  0  0  0  0  0
    0.0415    2.5029    0.1972 H   0  0  0  0  0  0  0  0  0  0  0  0
  1  2  1  0
  1  3  1  0
  1  4  1  0
  1  5  1  0
  2  6  1  0
  2  7  1  0
  2 14  1  0
  8  9  1  0
  8 11  1  0
  8 12  1  0
  8 13  1  0
  9 10  1  0
  9 15  1  0
 10 16  1  0
 10 17  1  0
 10 18  1  0
M  RAD  1   9   2
M  END
>  <reaction>  (8) 
rxn_911

>  <mol_properties>  (8) 
{"0": {"label": "*4", "atom_type": "Cs"}, "1": {"label": "*3", "atom_type": "Cs"}, "7": {"label": "*0", "atom_type": "Cs"}, "8": {"label": "*1", "atom_type": "Cs"}, "13": {"label": "*2", "atom_type": "H0"}}

>  <type>  (8) 
unop_4

>  <geom_source>  (8) 
Heuristics

$$$$

     RDKit          3D

 18 16  0  0  0  0  0  0  0  0999 V2000
    1.2821   -1.0901    1.9219 C   0  0  0  0  0  0  0  0  0  0  0  0
    1.2410   -1.0645    0.3999 C   0  0  0  0  0  0  0  0  0  0  0  0
    2.1549   -1.6354    2.2852 H   0  0  0  0  0  0  0  0  0  0  0  0
    0.3950   -1.5745    2.3337 H   0  0  0  0  0  0  0  0  0  0  0  0
    1.3284   -0.0804    2.3337 H   0  0  0  0  0  0  0  0  0  0  0  0
    1.1947   -2.0741   -0.0119 H   0  0  0  0  0  0  0  0  0  0  0  0
    2.1281   -0.5801   -0.0119 H   0  0  0  0  0  0  0  0  0  0  0  0
   -0.8558    0.2455   -1.9962 C   0  0  0  0  0  0  0  0  0  0  0  0
   -0.8558    0.2455   -0.4729 C   0  0  0  0  0  3  0  0  0  0  0  0
   -0.8558    1.6513    0.1139 C   0  0  0  0  0  0  0  0  0  0  0  0
    0.0256    0.7598   -2.3868 H   0  0  0  0  0  0  0  0  0  0  0  0
   -1.7373    0.7598   -2.3868 H   0  0  0  0  0  0  0  0  0  0  0  0
   -0.8558   -0.7694   -2.3974 H   0  0  0  0  0  0  0  0  0  0  0  0
    0.1936   -0.4101   -0.0361 H   0  0  0  0  0  0  0  0  0  0  0  0
   -1.7304   -0.3008   -0.1089 H   0  0  0  0  0  0  0  0  0  0  0  0
   -1.7373    2.2099   -0.2103 H   0  0  0  0  0  0  0  0  0  0  0  0
   -0.8559    1.6307    1.2050 H   0  0  0  0  0  0  0  0  0  0  0  0
    0.0256    2.2099   -0.2103 H   0  0  0  0  0  0  0  0  0  0  0  0
  1  2  1  0
  1  3  1  0
  1  4  1  0
  1  5  1  0
  2  6  1  0
  2  7  1  0
  2 14  1  0
  8  9  1  0
  8 11  1  0
  8 12  1  0
  8 13  1  0
  9 10  1  0
  9 15  1  0
 10 16  1  0
 10 17  1  0
 10 18  1  0
M  RAD  1   9   2
M  END
>  <reaction>  (9) 
rxn_911

>  <mol_properties>  (9) 
{"0": {"label": "*4", "atom_type": "Cs"}, "1": {"label": "*3", "atom_type": "Cs"}, "7": {"label": "*0", "atom_type": "Cs"}, "8": {"label": "*1", "atom_type": "Cs"}, "13": {"label": "*2", "atom_type": "H0"}}

>  <type>  (9) 
unop_5

>  <geom_source>  (9) 
Heuristics

$$$$

     RDKit          3D

 18 16  0  0  0  0  0  0  0  0999 V2000
    1.0085   -2.2472    0.8514 C   0  0  0  0  0  0  0  0  0  0  0  0
    1.3187   -0.7677    0.6675 C   0  0  0  0  0  0  0  0  0  0  0  0
    1.4834   -2.6424    1.7511 H   0  0  0  0  0  0  0  0  0  0  0  0
    1.3657   -2.8349    0.0039 H   0  0  0  0  0  0  0  0  0  0  0  0
   -0.0656   -2.4181    0.9425 H   0  0  0  0  0  0  0  0  0  0  0  0
    2.3928   -0.5968    0.5764 H   0  0  0  0  0  0  0  0  0  0  0  0
    0.9614   -0.1801    1.5150 H   0  0  0  0  0  0  0  0  0  0  0  0
   -0.7782    0.5422   -1.7286 C   0  0  0  0  0  0  0  0  0  0  0  0
   -0.7782    0.5422   -0.2052 C   0  0  0  0  0  3  0  0  0  0  0  0
   -0.7782    1.9480    0.3815 C   0  0  0  0  0  0  0  0  0  0  0  0
    0.1033    1.0565   -2.1192 H   0  0  0  0  0  0  0  0  0  0  0  0
   -1.6596    1.0565   -2.1192 H   0  0  0  0  0  0  0  0  0  0  0  0
   -0.7782   -0.4727   -2.1297 H   0  0  0  0  0  0  0  0  0  0  0  0
    0.2713   -0.1134    0.2316 H   0  0  0  0  0  0  0  0  0  0  0  0
   -1.6527   -0.0041    0.1588 H   0  0  0  0  0  0  0  0  0  0  0  0
   -1.6596    2.5066    0.0573 H   0  0  0  0  0  0  0  0  0  0  0  0
   -0.7782    1.9274    1.4726 H   0  0  0  0  0  0  0  0  0  0  0  0
    0.1033    2.5066    0.0573 H   0  0  0  0  0  0  0  0  0  0  0  0
  1  2  1  0
  1  3  1  0
  1  4  1  0
  1  5  1  0
  2  6  1  0
  2  7  1  0
  2 14  1  0
  8  9  1  0
  8 11  1  0
  8 12  1  0
  8 13  1  0
  9 10  1  0
  9 15  1  0
 10 16  1  0
 10 17  1  0
 10 18  1  0
M  RAD  1   9   2
M  END
>  <reaction>  (10) 
rxn_911

>  <mol_properties>  (10) 
{"0": {"label": "*4", "atom_type": "Cs"}, "1": {"label": "*3", "atom_type": "Cs"}, "7": {"label": "*0", "atom_type": "Cs"}, "8": {"label": "*1", "atom_type": "Cs"}, "13": {"label": "*2", "atom_type": "H0"}}

>  <type>  (10) 
unop_6

>  <geom_source>  (10) 
Heuristics

$$$$

     RDKit          3D

 18 16  0  0  0  0  0  0  0  0999 V2000
    0.9268   -2.0236    1.3835 C   0  0  0  0  0  0  0  0  0  0  0  0
    1.3366   -0.8305    0.5305 C   0  0  0  0  0  0  0  0  0  0  0  0
    1.5860   -2.1388    2.2457 H   0  0  0  0  0  0  0  0  0  0  0  0
    0.9667   -2.9518    0.8108 H   0  0  0  0  0  0  0  0  0  0  0  0
   -0.0917   -1.9105    1.7590 H   0  0  0  0  0  0  0  0  0  0  0  0
    2.3551   -0.9435    0.1550 H   0  0  0  0  0  0  0  0  0  0  0  0
    1.2968    0.0978    1.1032 H   0  0  0  0  0  0  0  0  0  0  0  0
   -0.7602    0.4795   -1.8656 C   0  0  0  0  0  0  0  0  0  0  0  0
   -0.7602    0.4795   -0.3422 C   0  0  0  0  0  3  0  0  0  0  0  0
   -0.7602    1.8853    0.2445 C   0  0  0  0  0  0  0  0  0  0  0  0
    0.1212    0.9938   -2.2562 H   0  0  0  0  0  0  0  0  0  0  0  0
   -1.6417    0.9938   -2.2562 H   0  0  0  0  0  0  0  0  0  0  0  0
   -0.7602   -0.5354   -2.2667 H   0  0  0  0  0  0  0  0  0  0  0  0
    0.2892   -0.1761    0.0946 H   0  0  0  0  0  0  0  0  0  0  0  0
   -1.6348   -0.0668    0.0218 H   0  0  0  0  0  0  0  0  0  0  0  0
   -1.6417    2.4439   -0.0797 H   0  0  0  0  0  0  0  0  0  0  0  0
   -0.7602    1.8647    1.3356 H   0  0  0  0  0  0  0  0  0  0  0  0
    0.1212    2.4439   -0.0797 H   0  0  0  0  0  0  0  0  0  0  0  0
  1  2  1  0
  1  3  1  0
  1  4  1  0
  1  5  1  0
  2  6  1  0
  2  7  1  0
  2 14  1  0
  8  9  1  0
  8 11  1  0
  8 12  1  0
  8 13  1  0
  9 10  1  0
  9 15  1  0
 10 16  1  0
 10 17  1  0
 10 18  1  0
M  RAD  1   9   2
M  END
>  <reaction>  (11) 
rxn_911

>  <mol_properties>  (11) 
{"0": {"label": "*4", "atom_type": "Cs"}, "1": {"label": "*3", "atom_type": "Cs"}, "7": {"label": "*0", "atom_type": "Cs"}, "8": {"label": "*1", "atom_type": "Cs"}, "13": {"label": "*2", "atom_type": "H0"}}

>  <type>  (11) 
unop_7

>  <geom_source>  (11) 
Heuristics

$$$$

     RDKit          3D

 18 16  0  0  0  0  0  0  0  0999 V2000
    2.2020   -0.3368    0.8514 C   0  0  0  0  0  0  0  0  0  0  0  0
    1.0084   -1.2644    0.6675 C   0  0  0  0  0  0  0  0  0  0  0  0
    2.7655   -0.5903    1.7511 H   0  0  0  0  0  0  0  0  0  0  0  0
    1.8845    0.7035    0.9425 H   0  0  0  0  0  0  0  0  0  0  0  0
    2.8868   -0.4001    0.0039 H   0  0  0  0  0  0  0  0  0  0  0  0
    0.3236   -1.2010    1.5150 H   0  0  0  0  0  0  0  0  0  0  0  0
    1.3259   -2.3046    0.5764 H   0  0  0  0  0  0  0  0  0  0  0  0
   -1.0884    0.0456   -1.7286 C   0  0  0  0  0  0  0  0  0  0  0  0
   -1.0884    0.0456   -0.2052 C   0  0  0  0  0  3  0  0  0  0  0  0
   -1.0884    1.4514    0.3815 C   0  0  0  0  0  0  0  0  0  0  0  0
   -0.2070    0.5599   -2.1192 H   0  0  0  0  0  0  0  0  0  0  0  0
   -1.9699    0.5599   -2.1192 H   0  0  0  0  0  0  0  0  0  0  0  0
   -1.0884   -0.9693   -2.1297 H   0  0  0  0  0  0  0  0  0  0  0  0
   -0.0390   -0.6100    0.2316 H   0  0  0  0  0  0  0  0  0  0  0  0
   -1.9630   -0.5008    0.1588 H   0  0  0  0  0  0  0  0  0  0  0  0
   -1.9699    2.0100    0.0573 H   0  0  0  0  0  0  0  0  0  0  0  0
   -1.0884    1.4307    1.4726 H   0  0  0  0  0  0  0  0  0  0  0  0
   -0.2070    2.0100    0.0573 H   0  0  0  0  0  0  0  0  0  0  0  0
  1  2  1  0
  1  3  1  0
  1  4  1  0
  1  5  1  0
  2  6  1  0
  2  7  1  0
  2 14  1  0
  8  9  1  0
  8 11  1  0
  8 12  1  0
  8 13  1  0
  9 10  1  0
  9 15  1  0
 10 16  1  0
 10 17  1  0
 10 18  1  0
M  RAD  1   9   2
M  END
>  <reaction>  (12) 
rxn_911

>  <mol_properties>  (12) 
{"0": {"label": "*4", "atom_type": "Cs"}, "1": {"label": "*3", "atom_type": "Cs"}, "7": {"label": "*0", "atom_type": "Cs"}, "8": {"label": "*1", "atom_type": "Cs"}, "13": {"label": "*2", "atom_type": "H0"}}

>  <type>  (12) 
unop_8

>  <geom_source>  (12) 
Heuristics

$$$$

     RDKit          3D

 18 16  0  0  0  0  0  0  0  0999 V2000
    1.5805   -1.9366   -0.0636 C   0  0  0  0  0  0  0  0  0  0  0  0
    1.1678   -0.8422    0.9115 C   0  0  0  0  0  0  0  0  0  0  0  0
    2.2266   -2.6727    0.4179 H   0  0  0  0  0  0  0  0  0  0  0  0
    2.1262   -1.5240   -0.9140 H   0  0  0  0  0  0  0  0  0  0  0  0
    0.7104   -2.4666   -0.4551 H   0  0  0  0  0  0  0  0  0  0  0  0
    2.0378   -0.3122    1.3030 H   0  0  0  0  0  0  0  0  0  0  0  0
    0.6220   -1.2548    1.7618 H   0  0  0  0  0  0  0  0  0  0  0  0
   -0.9291    0.4678   -1.4846 C   0  0  0  0  0  0  0  0  0  0  0  0
   -0.9291    0.4678    0.0387 C   0  0  0  0  0  3  0  0  0  0  0  0
   -0.9291    1.8736    0.6254 C   0  0  0  0  0  0  0  0  0  0  0  0
   -0.0476    0.9821   -1.8753 H   0  0  0  0  0  0  0  0  0  0  0  0
   -1.8106    0.9821   -1.8753 H   0  0  0  0  0  0  0  0  0  0  0  0
   -0.9291   -0.5471   -1.8858 H   0  0  0  0  0  0  0  0  0  0  0  0
    0.1203   -0.1878    0.4755 H   0  0  0  0  0  0  0  0  0  0  0  0
   -1.8036   -0.0785    0.4027 H   0  0  0  0  0  0  0  0  0  0  0  0
   -1.8106    2.4322    0.3013 H   0  0  0  0  0  0  0  0  0  0  0  0
   -0.9291    1.8529    1.7165 H   0  0  0  0  0  0  0  0  0  0  0  0
   -0.0476    2.4322    0.3013 H   0  0  0  0  0  0  0  0  0  0  0  0
  1  2  1  0
  1  3  1  0
  1  4  1  0
  1  5  1  0
  2  6  1  0
  2  7  1  0
  2 14  1  0
  8  9  1  0
  8 11  1  0
  8 12  1  0
  8 13  1  0
  9 10  1  0
  9 15  1  0
 10 16  1  0
 10 17  1  0
 10 18  1  0
M  RAD  1   9   2
M  END
>  <reaction>  (13) 
rxn_911

>  <mol_properties>  (13) 
{"0": {"label": "*4", "atom_type": "Cs"}, "1": {"label": "*3", "atom_type": "Cs"}, "7": {"label": "*0", "atom_type": "Cs"}, "8": {"label": "*1", "atom_type": "Cs"}, "13": {"label": "*2", "atom_type": "H0"}}

>  <type>  (13) 
unop_9

>  <geom_source>  (13) 
Heuristics

$$$$

     RDKit          3D

 18 16  0  0  0  0  0  0  0  0999 V2000
    2.2778   -0.5660    0.3222 C   0  0  0  0  0  0  0  0  0  0  0  0
    0.9846   -1.2072    0.8074 C   0  0  0  0  0  0  0  0  0  0  0  0
    3.0815   -0.6967    1.0490 H   0  0  0  0  0  0  0  0  0  0  0  0
    2.1512    0.5057    0.1588 H   0  0  0  0  0  0  0  0  0  0  0  0
    2.6092   -1.0069   -0.6196 H   0  0  0  0  0  0  0  0  0  0  0  0
    0.6533   -0.7663    1.7492 H   0  0  0  0  0  0  0  0  0  0  0  0
    1.1112   -2.2789    0.9708 H   0  0  0  0  0  0  0  0  0  0  0  0
   -1.1122    0.1028   -1.5887 C   0  0  0  0  0  0  0  0  0  0  0  0
   -1.1122    0.1028   -0.0654 C   0  0  0  0  0  3  0  0  0  0  0  0
   -1.1122    1.5086    0.5214 C   0  0  0  0  0  0  0  0  0  0  0  0
   -0.2308    0.6170   -1.9793 H   0  0  0  0  0  0  0  0  0  0  0  0
   -1.9937    0.6170   -1.9793 H   0  0  0  0  0  0  0  0  0  0  0  0
   -1.1122   -0.9121   -1.9898 H   0  0  0  0  0  0  0  0  0  0  0  0
   -0.0628   -0.5529    0.3715 H   0  0  0  0  0  0  0  0  0  0  0  0
   -1.9868   -0.4436    0.2987 H   0  0  0  0  0  0  0  0  0  0  0  0
   -1.9937    2.0671    0.1972 H   0  0  0  0  0  0  0  0  0  0  0  0
   -1.1122    1.4879    1.6125 H   0  0  0  0  0  0  0  0  0  0  0  0
   -0.2308    2.0671    0.1972 H   0  0  0  0  0  0  0  0  0  0  0  0
  1  2  1  0
  1  3  1  0
  1  4  1  0
  1  5  1  0
  2  6  1  0
  2  7  1  0
  2 14  1  0
  8  9  1  0
  8 11  1  0
  8 12  1  0
  8 13  1  0
  9 10  1  0
  9 15  1  0
 10 16  1  0
 10 17  1  0
 10 18  1  0
M  RAD  1   9   2
M  END
>  <reaction>  (14) 
rxn_911

>  <mol_properties>  (14) 
{"0": {"label": "*4", "atom_type": "Cs"}, "1": {"label": "*3", "atom_type": "Cs"}, "7": {"label": "*0", "atom_type": "Cs"}, "8": {"label": "*1", "atom_type": "Cs"}, "13": {"label": "*2", "atom_type": "H0"}}

>  <type>  (14) 
unop_10

>  <geom_source>  (14) 
Heuristics

$$$$

     RDKit          3D

 18 16  0  0  0  0  0  0  0  0999 V2000
    1.0255   -1.6011    1.7763 C   0  0  0  0  0  0  0  0  0  0  0  0
    1.3067   -0.9401    0.4336 C   0  0  0  0  0  0  0  0  0  0  0  0
    1.9368   -1.6958    2.3695 H   0  0  0  0  0  0  0  0  0  0  0  0
    0.6109   -2.6022    1.6456 H   0  0  0  0  0  0  0  0  0  0  0  0
    0.3096   -1.0207    2.3610 H   0  0  0  0  0  0  0  0  0  0  0  0
    2.0226   -1.5205   -0.1511 H   0  0  0  0  0  0  0  0  0  0  0  0
    1.7214    0.0610    0.5643 H   0  0  0  0  0  0  0  0  0  0  0  0
   -0.7901    0.3699   -1.9625 C   0  0  0  0  0  0  0  0  0  0  0  0
   -0.7901    0.3699   -0.4392 C   0  0  0  0  0  3  0  0  0  0  0  0
   -0.7901    1.7757    0.1475 C   0  0  0  0  0  0  0  0  0  0  0  0
    0.0913    0.8841   -2.3532 H   0  0  0  0  0  0  0  0  0  0  0  0
   -1.6716    0.8841   -2.3532 H   0  0  0  0  0  0  0  0  0  0  0  0
   -0.7901   -0.6450   -2.3637 H   0  0  0  0  0  0  0  0  0  0  0  0
    0.2593   -0.2857   -0.0024 H   0  0  0  0  0  0  0  0  0  0  0  0
   -1.6647   -0.1765   -0.0752 H   0  0  0  0  0  0  0  0  0  0  0  0
   -1.6716    2.3343   -0.1766 H   0  0  0  0  0  0  0  0  0  0  0  0
   -0.7901    1.7550    1.2386 H   0  0  0  0  0  0  0  0  0  0  0  0
    0.0913    2.3343   -0.1766 H   0  0  0  0  0  0  0  0  0  0  0  0
  1  2  1  0
  1  3  1  0
  1  4  1  0
  1  5  1  0
  2  6  1  0
  2  7  1  0
  2 14  1  0
  8  9  1  0
  8 11  1  0
  8 12  1  0
  8 13  1  0
  9 10  1  0
  9 15  1  0
 10 16  1  0
 10 17  1  0
 10 18  1  0
M  RAD  1   9   2
M  END
>  <reaction>  (15) 
rxn_911

>  <mol_properties>  (15) 
{"0": {"label": "*4", "atom_type": "Cs"}, "1": {"label": "*3", "atom_type": "Cs"}, "7": {"label": "*0", "atom_type": "Cs"}, "8": {"label": "*1", "atom_type": "Cs"}, "13": {"label": "*2", "atom_type": "H0"}}

>  <type>  (15) 
unop_11

>  <geom_source>  (15) 
Heuristics

$$$$

     RDKit          3D

 18 16  0  0  0  0  0  0  0  0999 V2000
    1.9187   -1.4878   -0.2044 C   0  0  0  0  0  0  0  0  0  0  0  0
    1.0763   -0.9616    0.9499 C   0  0  0  0  0  0  0  0  0  0  0  0
    2.7915   -2.0331    0.1589 H   0  0  0  0  0  0  0  0  0  0  0  0
    2.2774   -0.6733   -0.8361 H   0  0  0  0  0  0  0  0  0  0  0  0
    1.3440   -2.1674   -0.8362 H   0  0  0  0  0  0  0  0  0  0  0  0
    1.6510   -0.2820    1.5817 H   0  0  0  0  0  0  0  0  0  0  0  0
    0.7176   -1.7761    1.5817 H   0  0  0  0  0  0  0  0  0  0  0  0
   -1.0205    0.3484   -1.4462 C   0  0  0  0  0  0  0  0  0  0  0  0
   -1.0205    0.3484    0.0772 C   0  0  0  0  0  3  0  0  0  0  0  0
   -1.0205    1.7542    0.6639 C   0  0  0  0  0  0  0  0  0  0  0  0
   -0.1391    0.8627   -1.8368 H   0  0  0  0  0  0  0  0  0  0  0  0
   -1.9020    0.8627   -1.8368 H   0  0  0  0  0  0  0  0  0  0  0  0
   -1.0205   -0.6665   -1.8473 H   0  0  0  0  0  0  0  0  0  0  0  0
    0.0289   -0.3072    0.5140 H   0  0  0  0  0  0  0  0  0  0  0  0
   -1.8951   -0.1980    0.4412 H   0  0  0  0  0  0  0  0  0  0  0  0
   -1.9020    2.3128    0.3397 H   0  0  0  0  0  0  0  0  0  0  0  0
   -1.0205    1.7335    1.7550 H   0  0  0  0  0  0  0  0  0  0  0  0
   -0.1391    2.3128    0.3397 H   0  0  0  0  0  0  0  0  0  0  0  0
  1  2  1  0
  1  3  1  0
  1  4  1  0
  1  5  1  0
  2  6  1  0
  2  7  1  0
  2 14  1  0
  8  9  1  0
  8 11  1  0
  8 12  1  0
  8 13  1  0
  9 10  1  0
  9 15  1  0
 10 16  1  0
 10 17  1  0
 10 18  1  0
M  RAD  1   9   2
M  END
>  <reaction>  (16) 
rxn_911

>  <mol_properties>  (16) 
{"0": {"label": "*4", "atom_type": "Cs"}, "1": {"label": "*3", "atom_type": "Cs"}, "7": {"label": "*0", "atom_type": "Cs"}, "8": {"label": "*1", "atom_type": "Cs"}, "13": {"label": "*2", "atom_type": "H0"}}

>  <type>  (16) 
unop_12

>  <geom_source>  (16) 
Heuristics

$$$$

     RDKit          3D

 18 16  0  0  0  0  0  0  0  0999 V2000
    2.6905   -0.0423   -0.0286 C   0  0  0  0  0  0  0  0  0  0  0  0
    1.3287   -0.3119   -0.6436 C   0  0  0  0  0  0  0  0  0  0  0  0
   -1.7616   -1.0573   -0.1310 C   0  0  0  0  0  0  0  0  0  0  0  0
   -1.5251    1.4006    0.3784 C   0  0  0  0  0  0  0  0  0  0  0  0
   -0.9243    0.0122    0.5596 C   0  0  0  0  0  3  0  0  0  0  0  0
    2.7185    0.9891    0.3812 H   0  0  0  0  0  0  0  0  0  0  0  0
    2.8801   -0.7649    0.7924 H   0  0  0  0  0  0  0  0  0  0  0  0
    3.4813   -0.1504   -0.8006 H   0  0  0  0  0  0  0  0  0  0  0  0
    1.1356    0.4112   -1.4638 H   0  0  0  0  0  0  0  0  0  0  0  0
    1.2973   -1.3439   -1.0523 H   0  0  0  0  0  0  0  0  0  0  0  0
    0.4072   -0.1840    0.2643 H   0  0  0  0  0  0  0  0  0  0  0  0
   -2.7839   -1.0879    0.3027 H   0  0  0  0  0  0  0  0  0  0  0  0
   -1.8270   -0.8480   -1.2195 H   0  0  0  0  0  0  0  0  0  0  0  0
   -1.2813   -2.0476    0.0112 H   0  0  0  0  0  0  0  0  0  0  0  0
   -1.5863    1.6529   -0.7012 H   0  0  0  0  0  0  0  0  0  0  0  0
   -2.5402    1.4444    0.8275 H   0  0  0  0  0  0  0  0  0  0  0  0
   -0.8775    2.1488    0.8810 H   0  0  0  0  0  0  0  0  0  0  0  0
   -0.8321   -0.2211    1.6422 H   0  0  0  0  0  0  0  0  0  0  0  0
  1  2  1  0
  1  6  1  0
  1  7  1  0
  1  8  1  0
  2  9  1  0
  2 10  1  0
  2 11  1  0
  3  5  1  0
  3 12  1  0
  3 13  1  0
  3 14  1  0
  4  5  1  0
  4 15  1  0
  4 16  1  0
  4 17  1  0
  5 18  1  0
M  RAD  1   5   2
M  END
>  <reaction>  (17) 
rxn_911

>  <mol_properties>  (17) 
{"0": {"label": "*4", "atom_type": "Cs"}, "1": {"label": "*3", "atom_type": "Cs"}, "7": {"label": "*0", "atom_type": "Cs"}, "8": {"label": "*1", "atom_type": "Cs"}, "13": {"label": "*2", "atom_type": "H0"}}

>  <type>  (17) 
unop_13

>  <geom_source>  (17) 
AutoTST

$$$$
