
     RDKit          3D

  9  8  0  0  0  0  0  0  0  0999 V2000
    1.1303   -0.2933   -0.7510 C   0  0  0  0  0  0  0  0  0  0  0  0
    0.2866    0.4560   -0.0588 C   0  0  0  0  0  0  0  0  0  0  0  0
   -0.9719   -0.0331    0.5823 C   0  0  0  0  0  0  0  0  0  0  0  0
    2.0274    0.1230   -1.1916 H   0  0  0  0  0  0  0  0  0  0  0  0
    0.9532   -1.3530   -0.9023 H   0  0  0  0  0  0  0  0  0  0  0  0
    0.5065    1.5132    0.0659 H   0  0  0  0  0  0  0  0  0  0  0  0
   -0.9526    0.1426    1.6610 H   0  0  0  0  0  0  0  0  0  0  0  0
   -1.1182   -1.1002    0.4106 H   0  0  0  0  0  0  0  0  0  0  0  0
   -1.8412    0.5010    0.1901 H   0  0  0  0  0  0  0  0  0  0  0  0
  1  2  2  3
  1  4  1  0
  1  5  1  0
  2  3  1  0
  2  6  1  0
  3  7  1  0
  3  8  1  0
  3  9  1  0
M  END
>  <reaction>  (1) 
rxn_174

>  <mol_properties>  (1) 
{"0": {"label": "donator", "atom_type": "Cd"}, "3": {"label": "d_hydrogen", "atom_type": "H0"}}

>  <type>  (1) 
r1h

$$$$

     RDKit          3D

 11 11  0  0  0  0  0  0  0  0999 V2000
    0.1524   -1.5397    0.0698 C   0  0  0  0  0  3  0  0  0  0  0  0
   -1.1218   -1.0406    0.0516 C   0  0  0  0  0  0  0  0  0  0  0  0
   -1.2464    0.3470   -0.0114 C   0  0  0  0  0  0  0  0  0  0  0  0
   -0.1137    1.1487   -0.0521 C   0  0  0  0  0  0  0  0  0  0  0  0
    1.1542    0.5837   -0.0308 C   0  0  0  0  0  0  0  0  0  0  0  0
    1.3041   -0.8014    0.0319 C   0  0  0  0  0  0  0  0  0  0  0  0
   -1.9955   -1.6793    0.0840 H   0  0  0  0  0  0  0  0  0  0  0  0
   -2.2319    0.7966   -0.0284 H   0  0  0  0  0  0  0  0  0  0  0  0
   -0.2203    2.2248   -0.1009 H   0  0  0  0  0  0  0  0  0  0  0  0
    2.0325    1.2173   -0.0630 H   0  0  0  0  0  0  0  0  0  0  0  0
    2.2862   -1.2570    0.0492 H   0  0  0  0  0  0  0  0  0  0  0  0
  1  2  2  0
  1  6  1  0
  2  3  1  0
  2  7  1  0
  3  4  2  0
  3  8  1  0
  4  5  1  0
  4  9  1  0
  5  6  2  0
  5 10  1  0
  6 11  1  0
M  RAD  1   1   2
M  END
>  <reaction>  (2) 
rxn_174

>  <mol_properties>  (2) 
{"0": {"label": "acceptor", "atom_type": "Cd"}}

>  <type>  (2) 
r2

$$$$

     RDKit          3D

 12 12  0  0  0  0  0  0  0  0999 V2000
   -1.2385    0.6248   -0.0199 C   0  0  0  0  0  0  0  0  0  0  0  0
   -0.0779    1.3848   -0.0298 C   0  0  0  0  0  0  0  0  0  0  0  0
    1.1605    0.7600   -0.0100 C   0  0  0  0  0  0  0  0  0  0  0  0
    1.2385   -0.6248    0.0199 C   0  0  0  0  0  0  0  0  0  0  0  0
    0.0779   -1.3848    0.0298 C   0  0  0  0  0  0  0  0  0  0  0  0
   -1.1606   -0.7600    0.0100 C   0  0  0  0  0  0  0  0  0  0  0  0
   -2.2052    1.1125   -0.0354 H   0  0  0  0  0  0  0  0  0  0  0  0
   -0.1387    2.4657   -0.0531 H   0  0  0  0  0  0  0  0  0  0  0  0
    2.0664    1.3532   -0.0177 H   0  0  0  0  0  0  0  0  0  0  0  0
    2.2052   -1.1125    0.0354 H   0  0  0  0  0  0  0  0  0  0  0  0
    0.1387   -2.4657    0.0531 H   0  0  0  0  0  0  0  0  0  0  0  0
   -2.0664   -1.3532    0.0177 H   0  0  0  0  0  0  0  0  0  0  0  0
  1  2  2  0
  1  6  1  0
  1  7  1  0
  2  3  1  0
  2  8  1  0
  3  4  2  0
  3  9  1  0
  4  5  1  0
  4 10  1  0
  5  6  2  0
  5 11  1  0
  6 12  1  0
M  END
>  <reaction>  (3) 
rxn_174

>  <mol_properties>  (3) 
{"0": {"label": "a_hydrogen", "atom_type": "H0"}, "1": {"label": "acceptor", "atom_type": "Cd"}}

>  <type>  (3) 
r2h

$$$$

     RDKit          3D

 20 19  0  0  0  0  0  0  0  0999 V2000
   -0.6535    0.1927   -2.2496 C   0  0  0  0  0  0  0  0  0  0  0  0
    0.3212   -0.3791   -2.9236 C   0  0  0  0  0  0  0  0  0  0  0  0
    0.3889   -0.5047   -4.4164 C   0  0  0  0  0  0  0  0  0  0  0  0
   -0.5392    0.2083   -0.9386 H   0  0  0  0  0  0  0  0  0  0  0  0
   -1.5486    0.6570   -2.6497 H   0  0  0  0  0  0  0  0  0  0  0  0
    1.1567   -0.8016   -2.3680 H   0  0  0  0  0  0  0  0  0  0  0  0
    1.2859   -0.0145   -4.8027 H   0  0  0  0  0  0  0  0  0  0  0  0
   -0.4825   -0.0580   -4.8954 H   0  0  0  0  0  0  0  0  0  0  0  0
    0.4454   -1.5556   -4.7110 H   0  0  0  0  0  0  0  0  0  0  0  0
   -0.3135    0.1632    0.3730 C   0  0  0  0  0  3  0  0  0  0  0  0
   -0.7729   -0.9224    1.0875 C   0  0  0  0  0  0  0  0  0  0  0  0
   -0.5267   -0.9703    2.4551 C   0  0  0  0  0  0  0  0  0  0  0  0
    0.1691    0.0603    3.0718 C   0  0  0  0  0  0  0  0  0  0  0  0
    0.6230    1.1422    2.3300 C   0  0  0  0  0  0  0  0  0  0  0  0
    0.3811    1.1980    0.9619 C   0  0  0  0  0  0  0  0  0  0  0  0
   -1.3136   -1.7216    0.5946 H   0  0  0  0  0  0  0  0  0  0  0  0
   -0.8778   -1.8126    3.0388 H   0  0  0  0  0  0  0  0  0  0  0  0
    0.3593    0.0199    4.1369 H   0  0  0  0  0  0  0  0  0  0  0  0
    1.1663    1.9433    2.8164 H   0  0  0  0  0  0  0  0  0  0  0  0
    0.7316    2.0364    0.3720 H   0  0  0  0  0  0  0  0  0  0  0  0
  1  2  2  3
  1  4  1  0
  1  5  1  0
  2  3  1  0
  2  6  1  0
  3  7  1  0
  3  8  1  0
  3  9  1  0
 10 11  2  0
 10 15  1  0
 11 12  1  0
 11 16  1  0
 12 13  2  0
 12 17  1  0
 13 14  1  0
 13 18  1  0
 14 15  2  0
 14 19  1  0
 15 20  1  0
M  RAD  1  10   2
M  END
>  <reaction>  (4) 
rxn_174

>  <mol_properties>  (4) 
{"0": {"label": "*1", "atom_type": "Cd"}, "1": {"label": "*0", "atom_type": "Cd"}, "3": {"label": "*2", "atom_type": "H0"}, "9": {"label": "*3", "atom_type": "Cd"}, "10": {"label": "*4", "atom_type": "Cd"}}

>  <type>  (4) 
ts

$$$$

     RDKit          3D

 20 19  0  0  0  0  0  0  0  0999 V2000
    0.1801   -0.1345   -2.0631 C   0  0  0  0  0  0  0  0  0  0  0  0
    0.1801   -1.2168   -2.8252 C   0  0  0  0  0  0  0  0  0  0  0  0
    0.1801   -1.2168   -4.3200 C   0  0  0  0  0  0  0  0  0  0  0  0
    0.1801   -0.2161   -0.7664 H   0  0  0  0  0  0  0  0  0  0  0  0
    0.1801    0.8612   -2.4941 H   0  0  0  0  0  0  0  0  0  0  0  0
    0.1801   -2.1933   -2.3477 H   0  0  0  0  0  0  0  0  0  0  0  0
    1.0578   -1.7395   -4.7089 H   0  0  0  0  0  0  0  0  0  0  0  0
    0.1801   -0.2016   -4.7186 H   0  0  0  0  0  0  0  0  0  0  0  0
   -0.6976   -1.7395   -4.7089 H   0  0  0  0  0  0  0  0  0  0  0  0
    0.1801   -0.2977    0.5304 C   0  0  0  0  0  3  0  0  0  0  0  0
    1.2206    0.2582    1.2604 C   0  0  0  0  0  0  0  0  0  0  0  0
    0.9485    1.0069    2.3962 C   0  0  0  0  0  0  0  0  0  0  0  0
   -0.3641    1.1997    2.8019 C   0  0  0  0  0  0  0  0  0  0  0  0
   -1.4045    0.6438    2.0719 C   0  0  0  0  0  0  0  0  0  0  0  0
   -1.1324   -0.1050    0.9362 C   0  0  0  0  0  0  0  0  0  0  0  0
    2.2451    0.1077    0.9437 H   0  0  0  0  0  0  0  0  0  0  0  0
    1.7606    1.4409    2.9660 H   0  0  0  0  0  0  0  0  0  0  0  0
   -0.5764    1.7842    3.6885 H   0  0  0  0  0  0  0  0  0  0  0  0
   -2.4290    0.7942    2.3886 H   0  0  0  0  0  0  0  0  0  0  0  0
   -1.9446   -0.5389    0.3663 H   0  0  0  0  0  0  0  0  0  0  0  0
  1  2  2  3
  1  4  1  0
  1  5  1  0
  2  3  1  0
  2  6  1  0
  3  7  1  0
  3  8  1  0
  3  9  1  0
 10 11  2  0
 10 15  1  0
 11 12  1  0
 11 16  1  0
 12 13  2  0
 12 17  1  0
 13 14  1  0
 13 18  1  0
 14 15  2  0
 14 19  1  0
 15 20  1  0
M  RAD  1  10   2
M  END
>  <reaction>  (5) 
rxn_174

>  <mol_properties>  (5) 
{"0": {"label": "*1", "atom_type": "Cd"}, "1": {"label": "*0", "atom_type": "Cd"}, "3": {"label": "*2", "atom_type": "H0"}, "9": {"label": "*3", "atom_type": "Cd"}, "10": {"label": "*4", "atom_type": "Cd"}}

>  <type>  (5) 
unop_1

>  <geom_source>  (5) 
Heuristics

$$$$

     RDKit          3D

 20 19  0  0  0  0  0  0  0  0999 V2000
   -0.2199    0.3120   -2.2016 C   0  0  0  0  0  0  0  0  0  0  0  0
   -0.2199   -0.7704   -2.9637 C   0  0  0  0  0  0  0  0  0  0  0  0
   -0.2199   -0.7704   -4.4584 C   0  0  0  0  0  0  0  0  0  0  0  0
   -0.2199    0.2304   -0.9049 H   0  0  0  0  0  0  0  0  0  0  0  0
   -0.2199    1.3077   -2.6325 H   0  0  0  0  0  0  0  0  0  0  0  0
   -0.2199   -1.7469   -2.4861 H   0  0  0  0  0  0  0  0  0  0  0  0
    0.6578   -1.2930   -4.8473 H   0  0  0  0  0  0  0  0  0  0  0  0
   -0.2199    0.2448   -4.8571 H   0  0  0  0  0  0  0  0  0  0  0  0
   -1.0976   -1.2930   -4.8473 H   0  0  0  0  0  0  0  0  0  0  0  0
   -0.2199    0.1487    0.3920 C   0  0  0  0  0  3  0  0  0  0  0  0
    0.3808   -0.9333    1.0189 C   0  0  0  0  0  0  0  0  0  0  0  0
    0.7130   -0.8590    2.3638 C   0  0  0  0  0  0  0  0  0  0  0  0
    0.4445    0.2973    3.0817 C   0  0  0  0  0  0  0  0  0  0  0  0
   -0.1562    1.3793    2.4548 C   0  0  0  0  0  0  0  0  0  0  0  0
   -0.4884    1.3050    1.1100 C   0  0  0  0  0  0  0  0  0  0  0  0
    0.5903   -1.8358    0.4585 H   0  0  0  0  0  0  0  0  0  0  0  0
    1.1819   -1.7035    2.8531 H   0  0  0  0  0  0  0  0  0  0  0  0
    0.7039    0.3553    4.1315 H   0  0  0  0  0  0  0  0  0  0  0  0
   -0.3657    2.2819    3.0152 H   0  0  0  0  0  0  0  0  0  0  0  0
   -0.9573    2.1496    0.6206 H   0  0  0  0  0  0  0  0  0  0  0  0
  1  2  2  3
  1  4  1  0
  1  5  1  0
  2  3  1  0
  2  6  1  0
  3  7  1  0
  3  8  1  0
  3  9  1  0
 10 11  2  0
 10 15  1  0
 11 12  1  0
 11 16  1  0
 12 13  2  0
 12 17  1  0
 13 14  1  0
 13 18  1  0
 14 15  2  0
 14 19  1  0
 15 20  1  0
M  RAD  1  10   2
M  END
>  <reaction>  (6) 
rxn_174

>  <mol_properties>  (6) 
{"0": {"label": "*1", "atom_type": "Cd"}, "1": {"label": "*0", "atom_type": "Cd"}, "3": {"label": "*2", "atom_type": "H0"}, "9": {"label": "*3", "atom_type": "Cd"}, "10": {"label": "*4", "atom_type": "Cd"}}

>  <type>  (6) 
unop_2

>  <geom_source>  (6) 
Heuristics

$$$$

     RDKit          3D

 20 19  0  0  0  0  0  0  0  0999 V2000
    0.3656    0.1133   -2.1164 C   0  0  0  0  0  0  0  0  0  0  0  0
    0.3656   -0.9691   -2.8785 C   0  0  0  0  0  0  0  0  0  0  0  0
    0.3656   -0.9691   -4.3732 C   0  0  0  0  0  0  0  0  0  0  0  0
    0.3656    0.0316   -0.8197 H   0  0  0  0  0  0  0  0  0  0  0  0
    0.3656    1.1089   -2.5474 H   0  0  0  0  0  0  0  0  0  0  0  0
    0.3656   -1.9456   -2.4010 H   0  0  0  0  0  0  0  0  0  0  0  0
    1.2433   -1.4917   -4.7621 H   0  0  0  0  0  0  0  0  0  0  0  0
    0.3656    0.0461   -4.7719 H   0  0  0  0  0  0  0  0  0  0  0  0
   -0.5121   -1.4917   -4.7621 H   0  0  0  0  0  0  0  0  0  0  0  0
    0.3656   -0.0500    0.4771 C   0  0  0  0  0  3  0  0  0  0  0  0
    0.9663    0.9448    1.2348 C   0  0  0  0  0  0  0  0  0  0  0  0
    0.4140    1.3193    2.4510 C   0  0  0  0  0  0  0  0  0  0  0  0
   -0.7390    0.6990    2.9097 C   0  0  0  0  0  0  0  0  0  0  0  0
   -1.3397   -0.2958    2.1520 C   0  0  0  0  0  0  0  0  0  0  0  0
   -0.7874   -0.6703    0.9357 C   0  0  0  0  0  0  0  0  0  0  0  0
    1.8663    1.4290    0.8768 H   0  0  0  0  0  0  0  0  0  0  0  0
    0.8829    2.0959    3.0424 H   0  0  0  0  0  0  0  0  0  0  0  0
   -1.1701    0.9913    3.8590 H   0  0  0  0  0  0  0  0  0  0  0  0
   -2.2397   -0.7800    2.5100 H   0  0  0  0  0  0  0  0  0  0  0  0
   -1.2563   -1.4469    0.3444 H   0  0  0  0  0  0  0  0  0  0  0  0
  1  2  2  3
  1  4  1  0
  1  5  1  0
  2  3  1  0
  2  6  1  0
  3  7  1  0
  3  8  1  0
  3  9  1  0
 10 11  2  0
 10 15  1  0
 11 12  1  0
 11 16  1  0
 12 13  2  0
 12 17  1  0
 13 14  1  0
 13 18  1  0
 14 15  2  0
 14 19  1  0
 15 20  1  0
M  RAD  1  10   2
M  END
>  <reaction>  (7) 
rxn_174

>  <mol_properties>  (7) 
{"0": {"label": "*1", "atom_type": "Cd"}, "1": {"label": "*0", "atom_type": "Cd"}, "3": {"label": "*2", "atom_type": "H0"}, "9": {"label": "*3", "atom_type": "Cd"}, "10": {"label": "*4", "atom_type": "Cd"}}

>  <type>  (7) 
unop_3

>  <geom_source>  (7) 
Heuristics

$$$$

     RDKit          3D

 20 19  0  0  0  0  0  0  0  0999 V2000
    0.2649    0.0765   -2.1433 C   0  0  0  0  0  0  0  0  0  0  0  0
    0.2649   -1.0059   -2.9053 C   0  0  0  0  0  0  0  0  0  0  0  0
    0.2649   -1.0059   -4.4001 C   0  0  0  0  0  0  0  0  0  0  0  0
    0.2649   -0.0052   -0.8465 H   0  0  0  0  0  0  0  0  0  0  0  0
    0.2649    1.0721   -2.5742 H   0  0  0  0  0  0  0  0  0  0  0  0
    0.2649   -1.9824   -2.4278 H   0  0  0  0  0  0  0  0  0  0  0  0
    1.1426   -1.5285   -4.7890 H   0  0  0  0  0  0  0  0  0  0  0  0
    0.2649    0.0093   -4.7987 H   0  0  0  0  0  0  0  0  0  0  0  0
   -0.6129   -1.5285   -4.7890 H   0  0  0  0  0  0  0  0  0  0  0  0
    0.2649   -0.0868    0.4503 C   0  0  0  0  0  3  0  0  0  0  0  0
   -0.7756   -0.7299    1.1048 C   0  0  0  0  0  0  0  0  0  0  0  0
   -1.1757   -0.2998    2.3616 C   0  0  0  0  0  0  0  0  0  0  0  0
   -0.5353    0.7734    2.9639 C   0  0  0  0  0  0  0  0  0  0  0  0
    0.5051    1.4165    2.3093 C   0  0  0  0  0  0  0  0  0  0  0  0
    0.9053    0.9864    1.0526 C   0  0  0  0  0  0  0  0  0  0  0  0
   -1.2755   -1.5676    0.6347 H   0  0  0  0  0  0  0  0  0  0  0  0
   -1.9878   -0.8018    2.8725 H   0  0  0  0  0  0  0  0  0  0  0  0
   -0.8476    1.1091    3.9449 H   0  0  0  0  0  0  0  0  0  0  0  0
    1.0050    2.2542    2.7794 H   0  0  0  0  0  0  0  0  0  0  0  0
    1.7174    1.4884    0.5417 H   0  0  0  0  0  0  0  0  0  0  0  0
  1  2  2  3
  1  4  1  0
  1  5  1  0
  2  3  1  0
  2  6  1  0
  3  7  1  0
  3  8  1  0
  3  9  1  0
 10 11  2  0
 10 15  1  0
 11 12  1  0
 11 16  1  0
 12 13  2  0
 12 17  1  0
 13 14  1  0
 13 18  1  0
 14 15  2  0
 14 19  1  0
 15 20  1  0
M  RAD  1  10   2
M  END
>  <reaction>  (8) 
rxn_174

>  <mol_properties>  (8) 
{"0": {"label": "*1", "atom_type": "Cd"}, "1": {"label": "*0", "atom_type": "Cd"}, "3": {"label": "*2", "atom_type": "H0"}, "9": {"label": "*3", "atom_type": "Cd"}, "10": {"label": "*4", "atom_type": "Cd"}}

>  <type>  (8) 
unop_4

>  <geom_source>  (8) 
Heuristics

$$$$

     RDKit          3D

 20 19  0  0  0  0  0  0  0  0999 V2000
    0.0000    0.4189   -2.2278 C   0  0  0  0  0  0  0  0  0  0  0  0
    0.0000   -0.6635   -2.9899 C   0  0  0  0  0  0  0  0  0  0  0  0
    0.0000   -0.6635   -4.4847 C   0  0  0  0  0  0  0  0  0  0  0  0
    0.0000    0.3373   -0.9311 H   0  0  0  0  0  0  0  0  0  0  0  0
    0.0000    1.4146   -2.6588 H   0  0  0  0  0  0  0  0  0  0  0  0
   -0.0000   -1.6400   -2.5124 H   0  0  0  0  0  0  0  0  0  0  0  0
    0.8777   -1.1861   -4.8736 H   0  0  0  0  0  0  0  0  0  0  0  0
    0.0000    0.3517   -4.8833 H   0  0  0  0  0  0  0  0  0  0  0  0
   -0.8777   -1.1861   -4.8736 H   0  0  0  0  0  0  0  0  0  0  0  0
    0.0000    0.2556    0.3657 C   0  0  0  0  0  3  0  0  0  0  0  0
    0.0000    1.4111    1.1335 C   0  0  0  0  0  0  0  0  0  0  0  0
    0.0000    1.3239    2.5180 C   0  0  0  0  0  0  0  0  0  0  0  0
   -0.0000    0.0813    3.1348 C   0  0  0  0  0  0  0  0  0  0  0  0
   -0.0000   -1.0742    2.3671 C   0  0  0  0  0  0  0  0  0  0  0  0
   -0.0000   -0.9870    0.9825 C   0  0  0  0  0  0  0  0  0  0  0  0
    0.0000    2.3810    0.6520 H   0  0  0  0  0  0  0  0  0  0  0  0
    0.0000    2.2258    3.1173 H   0  0  0  0  0  0  0  0  0  0  0  0
   -0.0000    0.0133    4.2156 H   0  0  0  0  0  0  0  0  0  0  0  0
   -0.0000   -2.0441    2.8485 H   0  0  0  0  0  0  0  0  0  0  0  0
   -0.0000   -1.8889    0.3832 H   0  0  0  0  0  0  0  0  0  0  0  0
  1  2  2  3
  1  4  1  0
  1  5  1  0
  2  3  1  0
  2  6  1  0
  3  7  1  0
  3  8  1  0
  3  9  1  0
 10 11  2  0
 10 15  1  0
 11 12  1  0
 11 16  1  0
 12 13  2  0
 12 17  1  0
 13 14  1  0
 13 18  1  0
 14 15  2  0
 14 19  1  0
 15 20  1  0
M  RAD  1  10   2
M  END
>  <reaction>  (9) 
rxn_174

>  <mol_properties>  (9) 
{"0": {"label": "*1", "atom_type": "Cd"}, "1": {"label": "*0", "atom_type": "Cd"}, "3": {"label": "*2", "atom_type": "H0"}, "9": {"label": "*3", "atom_type": "Cd"}, "10": {"label": "*4", "atom_type": "Cd"}}

>  <type>  (9) 
unop_5

>  <geom_source>  (9) 
Heuristics

$$$$

     RDKit          3D

 20 19  0  0  0  0  0  0  0  0999 V2000
    0.1004   -0.1193   -2.0875 C   0  0  0  0  0  0  0  0  0  0  0  0
    0.1004   -1.2017   -2.8496 C   0  0  0  0  0  0  0  0  0  0  0  0
    0.1004   -1.2017   -4.3443 C   0  0  0  0  0  0  0  0  0  0  0  0
    0.1004   -0.2009   -0.7907 H   0  0  0  0  0  0  0  0  0  0  0  0
    0.1004    0.8764   -2.5184 H   0  0  0  0  0  0  0  0  0  0  0  0
    0.1004   -2.1782   -2.3720 H   0  0  0  0  0  0  0  0  0  0  0  0
    0.9781   -1.7243   -4.7332 H   0  0  0  0  0  0  0  0  0  0  0  0
    0.1004   -0.1864   -4.7430 H   0  0  0  0  0  0  0  0  0  0  0  0
   -0.7773   -1.7243   -4.7332 H   0  0  0  0  0  0  0  0  0  0  0  0
    0.1004   -0.2826    0.5061 C   0  0  0  0  0  3  0  0  0  0  0  0
   -1.1010   -0.3261    1.1984 C   0  0  0  0  0  0  0  0  0  0  0  0
   -1.2527    0.3997    2.3709 C   0  0  0  0  0  0  0  0  0  0  0  0
   -0.2029    1.1691    2.8511 C   0  0  0  0  0  0  0  0  0  0  0  0
    0.9985    1.2126    2.1588 C   0  0  0  0  0  0  0  0  0  0  0  0
    1.1502    0.4868    0.9863 C   0  0  0  0  0  0  0  0  0  0  0  0
   -1.9204   -0.9267    0.8235 H   0  0  0  0  0  0  0  0  0  0  0  0
   -2.1905    0.3657    2.9112 H   0  0  0  0  0  0  0  0  0  0  0  0
   -0.3213    1.7356    3.7663 H   0  0  0  0  0  0  0  0  0  0  0  0
    1.8179    1.8132    2.5337 H   0  0  0  0  0  0  0  0  0  0  0  0
    2.0880    0.5208    0.4460 H   0  0  0  0  0  0  0  0  0  0  0  0
  1  2  2  3
  1  4  1  0
  1  5  1  0
  2  3  1  0
  2  6  1  0
  3  7  1  0
  3  8  1  0
  3  9  1  0
 10 11  2  0
 10 15  1  0
 11 12  1  0
 11 16  1  0
 12 13  2  0
 12 17  1  0
 13 14  1  0
 13 18  1  0
 14 15  2  0
 14 19  1  0
 15 20  1  0
M  RAD  1  10   2
M  END
>  <reaction>  (10) 
rxn_174

>  <mol_properties>  (10) 
{"0": {"label": "*1", "atom_type": "Cd"}, "1": {"label": "*0", "atom_type": "Cd"}, "3": {"label": "*2", "atom_type": "H0"}, "9": {"label": "*3", "atom_type": "Cd"}, "10": {"label": "*4", "atom_type": "Cd"}}

>  <type>  (10) 
unop_6

>  <geom_source>  (10) 
Heuristics

$$$$

     RDKit          3D

 20 19  0  0  0  0  0  0  0  0999 V2000
   -0.1801   -0.1345   -2.0631 C   0  0  0  0  0  0  0  0  0  0  0  0
   -0.1801   -1.2168   -2.8252 C   0  0  0  0  0  0  0  0  0  0  0  0
   -0.1801   -1.2168   -4.3200 C   0  0  0  0  0  0  0  0  0  0  0  0
   -0.1801   -0.2161   -0.7664 H   0  0  0  0  0  0  0  0  0  0  0  0
   -0.1801    0.8612   -2.4941 H   0  0  0  0  0  0  0  0  0  0  0  0
   -0.1801   -2.1933   -2.3477 H   0  0  0  0  0  0  0  0  0  0  0  0
    0.6976   -1.7395   -4.7089 H   0  0  0  0  0  0  0  0  0  0  0  0
   -0.1801   -0.2016   -4.7186 H   0  0  0  0  0  0  0  0  0  0  0  0
   -1.0578   -1.7395   -4.7089 H   0  0  0  0  0  0  0  0  0  0  0  0
   -0.1801   -0.2977    0.5304 C   0  0  0  0  0  3  0  0  0  0  0  0
   -1.2206    0.2582    1.2604 C   0  0  0  0  0  0  0  0  0  0  0  0
   -0.9485    1.0069    2.3962 C   0  0  0  0  0  0  0  0  0  0  0  0
    0.3641    1.1997    2.8019 C   0  0  0  0  0  0  0  0  0  0  0  0
    1.4045    0.6438    2.0719 C   0  0  0  0  0  0  0  0  0  0  0  0
    1.1324   -0.1050    0.9362 C   0  0  0  0  0  0  0  0  0  0  0  0
   -2.2451    0.1077    0.9437 H   0  0  0  0  0  0  0  0  0  0  0  0
   -1.7606    1.4409    2.9660 H   0  0  0  0  0  0  0  0  0  0  0  0
    0.5764    1.7842    3.6885 H   0  0  0  0  0  0  0  0  0  0  0  0
    2.4290    0.7942    2.3886 H   0  0  0  0  0  0  0  0  0  0  0  0
    1.9446   -0.5389    0.3663 H   0  0  0  0  0  0  0  0  0  0  0  0
  1  2  2  3
  1  4  1  0
  1  5  1  0
  2  3  1  0
  2  6  1  0
  3  7  1  0
  3  8  1  0
  3  9  1  0
 10 11  2  0
 10 15  1  0
 11 12  1  0
 11 16  1  0
 12 13  2  0
 12 17  1  0
 13 14  1  0
 13 18  1  0
 14 15  2  0
 14 19  1  0
 15 20  1  0
M  RAD  1  10   2
M  END
>  <reaction>  (11) 
rxn_174

>  <mol_properties>  (11) 
{"0": {"label": "*1", "atom_type": "Cd"}, "1": {"label": "*0", "atom_type": "Cd"}, "3": {"label": "*2", "atom_type": "H0"}, "9": {"label": "*3", "atom_type": "Cd"}, "10": {"label": "*4", "atom_type": "Cd"}}

>  <type>  (11) 
unop_7

>  <geom_source>  (11) 
Heuristics

$$$$

     RDKit          3D

 20 19  0  0  0  0  0  0  0  0999 V2000
   -0.1004   -0.1193   -2.0875 C   0  0  0  0  0  0  0  0  0  0  0  0
   -0.1004   -1.2017   -2.8496 C   0  0  0  0  0  0  0  0  0  0  0  0
   -0.1004   -1.2017   -4.3443 C   0  0  0  0  0  0  0  0  0  0  0  0
   -0.1004   -0.2009   -0.7907 H   0  0  0  0  0  0  0  0  0  0  0  0
   -0.1004    0.8764   -2.5184 H   0  0  0  0  0  0  0  0  0  0  0  0
   -0.1004   -2.1782   -2.3720 H   0  0  0  0  0  0  0  0  0  0  0  0
    0.7773   -1.7243   -4.7332 H   0  0  0  0  0  0  0  0  0  0  0  0
   -0.1004   -0.1864   -4.7430 H   0  0  0  0  0  0  0  0  0  0  0  0
   -0.9781   -1.7243   -4.7332 H   0  0  0  0  0  0  0  0  0  0  0  0
   -0.1004   -0.2826    0.5061 C   0  0  0  0  0  3  0  0  0  0  0  0
    1.1010   -0.3262    1.1984 C   0  0  0  0  0  0  0  0  0  0  0  0
    1.2527    0.3997    2.3709 C   0  0  0  0  0  0  0  0  0  0  0  0
    0.2029    1.1691    2.8511 C   0  0  0  0  0  0  0  0  0  0  0  0
   -0.9985    1.2126    2.1588 C   0  0  0  0  0  0  0  0  0  0  0  0
   -1.1502    0.4868    0.9863 C   0  0  0  0  0  0  0  0  0  0  0  0
    1.9204   -0.9267    0.8235 H   0  0  0  0  0  0  0  0  0  0  0  0
    2.1905    0.3657    2.9112 H   0  0  0  0  0  0  0  0  0  0  0  0
    0.3213    1.7356    3.7663 H   0  0  0  0  0  0  0  0  0  0  0  0
   -1.8179    1.8132    2.5337 H   0  0  0  0  0  0  0  0  0  0  0  0
   -2.0880    0.5208    0.4460 H   0  0  0  0  0  0  0  0  0  0  0  0
  1  2  2  3
  1  4  1  0
  1  5  1  0
  2  3  1  0
  2  6  1  0
  3  7  1  0
  3  8  1  0
  3  9  1  0
 10 11  2  0
 10 15  1  0
 11 12  1  0
 11 16  1  0
 12 13  2  0
 12 17  1  0
 13 14  1  0
 13 18  1  0
 14 15  2  0
 14 19  1  0
 15 20  1  0
M  RAD  1  10   2
M  END
>  <reaction>  (12) 
rxn_174

>  <mol_properties>  (12) 
{"0": {"label": "*1", "atom_type": "Cd"}, "1": {"label": "*0", "atom_type": "Cd"}, "3": {"label": "*2", "atom_type": "H0"}, "9": {"label": "*3", "atom_type": "Cd"}, "10": {"label": "*4", "atom_type": "Cd"}}

>  <type>  (12) 
unop_8

>  <geom_source>  (12) 
Heuristics

$$$$

     RDKit          3D

 20 19  0  0  0  0  0  0  0  0999 V2000
    0.2199    0.3120   -2.2016 C   0  0  0  0  0  0  0  0  0  0  0  0
    0.2199   -0.7704   -2.9637 C   0  0  0  0  0  0  0  0  0  0  0  0
    0.2199   -0.7704   -4.4584 C   0  0  0  0  0  0  0  0  0  0  0  0
    0.2199    0.2304   -0.9049 H   0  0  0  0  0  0  0  0  0  0  0  0
    0.2199    1.3077   -2.6325 H   0  0  0  0  0  0  0  0  0  0  0  0
    0.2199   -1.7469   -2.4861 H   0  0  0  0  0  0  0  0  0  0  0  0
    1.0976   -1.2930   -4.8473 H   0  0  0  0  0  0  0  0  0  0  0  0
    0.2199    0.2448   -4.8571 H   0  0  0  0  0  0  0  0  0  0  0  0
   -0.6578   -1.2930   -4.8473 H   0  0  0  0  0  0  0  0  0  0  0  0
    0.2199    0.1487    0.3920 C   0  0  0  0  0  3  0  0  0  0  0  0
   -0.3808   -0.9333    1.0189 C   0  0  0  0  0  0  0  0  0  0  0  0
   -0.7130   -0.8590    2.3638 C   0  0  0  0  0  0  0  0  0  0  0  0
   -0.4445    0.2973    3.0817 C   0  0  0  0  0  0  0  0  0  0  0  0
    0.1562    1.3793    2.4548 C   0  0  0  0  0  0  0  0  0  0  0  0
    0.4884    1.3050    1.1100 C   0  0  0  0  0  0  0  0  0  0  0  0
   -0.5904   -1.8358    0.4585 H   0  0  0  0  0  0  0  0  0  0  0  0
   -1.1819   -1.7035    2.8531 H   0  0  0  0  0  0  0  0  0  0  0  0
   -0.7039    0.3553    4.1315 H   0  0  0  0  0  0  0  0  0  0  0  0
    0.3657    2.2819    3.0152 H   0  0  0  0  0  0  0  0  0  0  0  0
    0.9573    2.1496    0.6206 H   0  0  0  0  0  0  0  0  0  0  0  0
  1  2  2  3
  1  4  1  0
  1  5  1  0
  2  3  1  0
  2  6  1  0
  3  7  1  0
  3  8  1  0
  3  9  1  0
 10 11  2  0
 10 15  1  0
 11 12  1  0
 11 16  1  0
 12 13  2  0
 12 17  1  0
 13 14  1  0
 13 18  1  0
 14 15  2  0
 14 19  1  0
 15 20  1  0
M  RAD  1  10   2
M  END
>  <reaction>  (13) 
rxn_174

>  <mol_properties>  (13) 
{"0": {"label": "*1", "atom_type": "Cd"}, "1": {"label": "*0", "atom_type": "Cd"}, "3": {"label": "*2", "atom_type": "H0"}, "9": {"label": "*3", "atom_type": "Cd"}, "10": {"label": "*4", "atom_type": "Cd"}}

>  <type>  (13) 
unop_9

>  <geom_source>  (13) 
Heuristics

$$$$

     RDKit          3D

 20 19  0  0  0  0  0  0  0  0999 V2000
   -0.2649    0.0765   -2.1433 C   0  0  0  0  0  0  0  0  0  0  0  0
   -0.2649   -1.0059   -2.9053 C   0  0  0  0  0  0  0  0  0  0  0  0
   -0.2649   -1.0059   -4.4001 C   0  0  0  0  0  0  0  0  0  0  0  0
   -0.2649   -0.0052   -0.8465 H   0  0  0  0  0  0  0  0  0  0  0  0
   -0.2649    1.0721   -2.5742 H   0  0  0  0  0  0  0  0  0  0  0  0
   -0.2649   -1.9824   -2.4278 H   0  0  0  0  0  0  0  0  0  0  0  0
    0.6129   -1.5285   -4.7890 H   0  0  0  0  0  0  0  0  0  0  0  0
   -0.2649    0.0093   -4.7987 H   0  0  0  0  0  0  0  0  0  0  0  0
   -1.1426   -1.5285   -4.7890 H   0  0  0  0  0  0  0  0  0  0  0  0
   -0.2649   -0.0868    0.4503 C   0  0  0  0  0  3  0  0  0  0  0  0
    0.7756   -0.7299    1.1048 C   0  0  0  0  0  0  0  0  0  0  0  0
    1.1757   -0.2998    2.3616 C   0  0  0  0  0  0  0  0  0  0  0  0
    0.5353    0.7734    2.9639 C   0  0  0  0  0  0  0  0  0  0  0  0
   -0.5051    1.4165    2.3093 C   0  0  0  0  0  0  0  0  0  0  0  0
   -0.9052    0.9864    1.0526 C   0  0  0  0  0  0  0  0  0  0  0  0
    1.2755   -1.5676    0.6347 H   0  0  0  0  0  0  0  0  0  0  0  0
    1.9878   -0.8018    2.8725 H   0  0  0  0  0  0  0  0  0  0  0  0
    0.8476    1.1091    3.9449 H   0  0  0  0  0  0  0  0  0  0  0  0
   -1.0050    2.2542    2.7794 H   0  0  0  0  0  0  0  0  0  0  0  0
   -1.7174    1.4884    0.5417 H   0  0  0  0  0  0  0  0  0  0  0  0
  1  2  2  3
  1  4  1  0
  1  5  1  0
  2  3  1  0
  2  6  1  0
  3  7  1  0
  3  8  1  0
  3  9  1  0
 10 11  2  0
 10 15  1  0
 11 12  1  0
 11 16  1  0
 12 13  2  0
 12 17  1  0
 13 14  1  0
 13 18  1  0
 14 15  2  0
 14 19  1  0
 15 20  1  0
M  RAD  1  10   2
M  END
>  <reaction>  (14) 
rxn_174

>  <mol_properties>  (14) 
{"0": {"label": "*1", "atom_type": "Cd"}, "1": {"label": "*0", "atom_type": "Cd"}, "3": {"label": "*2", "atom_type": "H0"}, "9": {"label": "*3", "atom_type": "Cd"}, "10": {"label": "*4", "atom_type": "Cd"}}

>  <type>  (14) 
unop_10

>  <geom_source>  (14) 
Heuristics

$$$$

     RDKit          3D

 20 19  0  0  0  0  0  0  0  0999 V2000
   -0.3656    0.1133   -2.1164 C   0  0  0  0  0  0  0  0  0  0  0  0
   -0.3656   -0.9691   -2.8785 C   0  0  0  0  0  0  0  0  0  0  0  0
   -0.3656   -0.9691   -4.3732 C   0  0  0  0  0  0  0  0  0  0  0  0
   -0.3656    0.0316   -0.8197 H   0  0  0  0  0  0  0  0  0  0  0  0
   -0.3656    1.1089   -2.5474 H   0  0  0  0  0  0  0  0  0  0  0  0
   -0.3656   -1.9456   -2.4010 H   0  0  0  0  0  0  0  0  0  0  0  0
    0.5121   -1.4917   -4.7621 H   0  0  0  0  0  0  0  0  0  0  0  0
   -0.3656    0.0461   -4.7719 H   0  0  0  0  0  0  0  0  0  0  0  0
   -1.2433   -1.4917   -4.7621 H   0  0  0  0  0  0  0  0  0  0  0  0
   -0.3656   -0.0500    0.4771 C   0  0  0  0  0  3  0  0  0  0  0  0
   -0.9663    0.9448    1.2348 C   0  0  0  0  0  0  0  0  0  0  0  0
   -0.4140    1.3193    2.4510 C   0  0  0  0  0  0  0  0  0  0  0  0
    0.7390    0.6990    2.9097 C   0  0  0  0  0  0  0  0  0  0  0  0
    1.3397   -0.2958    2.1520 C   0  0  0  0  0  0  0  0  0  0  0  0
    0.7874   -0.6704    0.9357 C   0  0  0  0  0  0  0  0  0  0  0  0
   -1.8663    1.4290    0.8768 H   0  0  0  0  0  0  0  0  0  0  0  0
   -0.8829    2.0959    3.0424 H   0  0  0  0  0  0  0  0  0  0  0  0
    1.1701    0.9913    3.8590 H   0  0  0  0  0  0  0  0  0  0  0  0
    2.2397   -0.7800    2.5100 H   0  0  0  0  0  0  0  0  0  0  0  0
    1.2563   -1.4469    0.3444 H   0  0  0  0  0  0  0  0  0  0  0  0
  1  2  2  3
  1  4  1  0
  1  5  1  0
  2  3  1  0
  2  6  1  0
  3  7  1  0
  3  8  1  0
  3  9  1  0
 10 11  2  0
 10 15  1  0
 11 12  1  0
 11 16  1  0
 12 13  2  0
 12 17  1  0
 13 14  1  0
 13 18  1  0
 14 15  2  0
 14 19  1  0
 15 20  1  0
M  RAD  1  10   2
M  END
>  <reaction>  (15) 
rxn_174

>  <mol_properties>  (15) 
{"0": {"label": "*1", "atom_type": "Cd"}, "1": {"label": "*0", "atom_type": "Cd"}, "3": {"label": "*2", "atom_type": "H0"}, "9": {"label": "*3", "atom_type": "Cd"}, "10": {"label": "*4", "atom_type": "Cd"}}

>  <type>  (15) 
unop_11

>  <geom_source>  (15) 
Heuristics

$$$$

     RDKit          3D

 20 19  0  0  0  0  0  0  0  0999 V2000
   -0.0000    0.4189   -2.2278 C   0  0  0  0  0  0  0  0  0  0  0  0
   -0.0000   -0.6635   -2.9899 C   0  0  0  0  0  0  0  0  0  0  0  0
   -0.0000   -0.6635   -4.4847 C   0  0  0  0  0  0  0  0  0  0  0  0
   -0.0000    0.3373   -0.9311 H   0  0  0  0  0  0  0  0  0  0  0  0
   -0.0000    1.4146   -2.6588 H   0  0  0  0  0  0  0  0  0  0  0  0
   -0.0000   -1.6400   -2.5124 H   0  0  0  0  0  0  0  0  0  0  0  0
    0.8777   -1.1861   -4.8736 H   0  0  0  0  0  0  0  0  0  0  0  0
   -0.0000    0.3517   -4.8833 H   0  0  0  0  0  0  0  0  0  0  0  0
   -0.8777   -1.1861   -4.8736 H   0  0  0  0  0  0  0  0  0  0  0  0
   -0.0000    0.2556    0.3657 C   0  0  0  0  0  3  0  0  0  0  0  0
   -0.0000   -0.9870    0.9825 C   0  0  0  0  0  0  0  0  0  0  0  0
   -0.0000   -1.0742    2.3671 C   0  0  0  0  0  0  0  0  0  0  0  0
    0.0000    0.0813    3.1348 C   0  0  0  0  0  0  0  0  0  0  0  0
    0.0000    1.3239    2.5180 C   0  0  0  0  0  0  0  0  0  0  0  0
    0.0000    1.4111    1.1335 C   0  0  0  0  0  0  0  0  0  0  0  0
   -0.0000   -1.8889    0.3832 H   0  0  0  0  0  0  0  0  0  0  0  0
   -0.0000   -2.0441    2.8485 H   0  0  0  0  0  0  0  0  0  0  0  0
    0.0000    0.0133    4.2156 H   0  0  0  0  0  0  0  0  0  0  0  0
    0.0000    2.2258    3.1173 H   0  0  0  0  0  0  0  0  0  0  0  0
    0.0000    2.3810    0.6520 H   0  0  0  0  0  0  0  0  0  0  0  0
  1  2  2  3
  1  4  1  0
  1  5  1  0
  2  3  1  0
  2  6  1  0
  3  7  1  0
  3  8  1  0
  3  9  1  0
 10 11  2  0
 10 15  1  0
 11 12  1  0
 11 16  1  0
 12 13  2  0
 12 17  1  0
 13 14  1  0
 13 18  1  0
 14 15  2  0
 14 19  1  0
 15 20  1  0
M  RAD  1  10   2
M  END
>  <reaction>  (16) 
rxn_174

>  <mol_properties>  (16) 
{"0": {"label": "*1", "atom_type": "Cd"}, "1": {"label": "*0", "atom_type": "Cd"}, "3": {"label": "*2", "atom_type": "H0"}, "9": {"label": "*3", "atom_type": "Cd"}, "10": {"label": "*4", "atom_type": "Cd"}}

>  <type>  (16) 
unop_12

>  <geom_source>  (16) 
Heuristics

$$$$

     RDKit          3D

 20 19  0  0  0  0  0  0  0  0999 V2000
    4.0069   -0.3560    0.7092 C   0  0  0  0  0  0  0  0  0  0  0  0
   -1.5047   -1.1778   -0.3106 C   0  0  0  0  0  0  0  0  0  0  0  0
   -2.8992   -1.1484   -0.4190 C   0  0  0  0  0  0  0  0  0  0  0  0
   -0.7767    0.0162   -0.3277 C   0  0  0  0  0  0  0  0  0  0  0  0
   -3.5653    0.0756   -0.5443 C   0  0  0  0  0  0  0  0  0  0  0  0
   -1.4421    1.2398   -0.4530 C   0  0  0  0  0  0  0  0  0  0  0  0
   -2.8366    1.2699   -0.5613 C   0  0  0  0  0  0  0  0  0  0  0  0
    2.8708    0.5994    0.5148 C   0  0  0  0  0  0  0  0  0  0  0  0
    1.6035    0.1933    0.6011 C   0  0  0  0  0  3  0  0  0  0  0  0
    4.9715    0.1818    0.5965 H   0  0  0  0  0  0  0  0  0  0  0  0
    3.9598   -0.7994    1.7263 H   0  0  0  0  0  0  0  0  0  0  0  0
    3.9561   -1.1652   -0.0497 H   0  0  0  0  0  0  0  0  0  0  0  0
   -0.9877   -2.1233   -0.2136 H   0  0  0  0  0  0  0  0  0  0  0  0
   -3.4627   -2.0724   -0.4058 H   0  0  0  0  0  0  0  0  0  0  0  0
    0.5456   -0.0121   -0.2250 H   0  0  0  0  0  0  0  0  0  0  0  0
   -4.6441    0.0986   -0.6282 H   0  0  0  0  0  0  0  0  0  0  0  0
   -0.8767    2.1622   -0.4659 H   0  0  0  0  0  0  0  0  0  0  0  0
   -3.3516    2.2169   -0.6583 H   0  0  0  0  0  0  0  0  0  0  0  0
    3.0779    1.6427    0.2995 H   0  0  0  0  0  0  0  0  0  0  0  0
    1.3555   -0.8421    0.8149 H   0  0  0  0  0  0  0  0  0  0  0  0
  1  8  1  0
  1 10  1  0
  1 11  1  0
  1 12  1  0
  2  3  2  0
  2  4  1  0
  2 13  1  0
  3  5  1  0
  3 14  1  0
  4  6  2  0
  4 15  1  0
  5  7  2  0
  5 16  1  0
  6  7  1  0
  6 17  1  0
  7 18  1  0
  8  9  2  3
  8 19  1  0
  9 20  1  0
M  RAD  1   9   2
M  END
>  <reaction>  (17) 
rxn_174

>  <mol_properties>  (17) 
{"0": {"label": "*1", "atom_type": "Cd"}, "1": {"label": "*0", "atom_type": "Cd"}, "3": {"label": "*2", "atom_type": "H0"}, "9": {"label": "*3", "atom_type": "Cd"}, "10": {"label": "*4", "atom_type": "Cd"}}

>  <type>  (17) 
unop_13

>  <geom_source>  (17) 
AutoTST

$$$$
