
     RDKit          3D

  4  3  0  0  0  0  0  0  0  0999 V2000
    0.0006   -0.0009    0.2762 N   0  0  0  0  0  0  0  0  0  0  0  0
   -0.4188    0.8439   -0.0883 H   0  0  0  0  0  0  0  0  0  0  0  0
   -0.5215   -0.7840   -0.0936 H   0  0  0  0  0  0  0  0  0  0  0  0
    0.9397   -0.0590   -0.0943 H   0  0  0  0  0  0  0  0  0  0  0  0
  1  2  1  0
  1  3  1  0
  1  4  1  0
M  END
>  <reaction>  (1) 
rxn_3206

>  <mol_properties>  (1) 
{"0": {"label": "donator", "atom_type": "N3s"}, "1": {"label": "d_hydrogen", "atom_type": "H0"}}

>  <type>  (1) 
r1h

$$$$

     RDKit          3D

  7  6  0  0  0  0  0  0  0  0999 V2000
   -1.3059    0.5497   -0.1304 N   0  0  0  0  0  2  0  0  0  0  0  0
   -0.2700   -0.4288    0.0448 C   0  0  0  0  0  0  0  0  0  0  0  0
    1.1109    0.0669    0.0401 C   0  0  0  0  0  0  0  0  0  0  0  0
    2.1758    0.4925    0.0308 N   0  0  0  0  0  0  0  0  0  0  0  0
   -0.8815    1.4733   -0.2339 H   0  0  0  0  0  0  0  0  0  0  0  0
   -0.3767   -1.1909   -0.7373 H   0  0  0  0  0  0  0  0  0  0  0  0
   -0.4527   -0.9628    0.9858 H   0  0  0  0  0  0  0  0  0  0  0  0
  1  2  1  0
  1  5  1  0
  2  3  1  0
  2  6  1  0
  2  7  1  0
  3  4  3  0
M  RAD  1   1   2
M  END
>  <reaction>  (2) 
rxn_3206

>  <mol_properties>  (2) 
{"0": {"label": "acceptor", "atom_type": "N3s"}}

>  <type>  (2) 
r2

$$$$

     RDKit          3D

  8  7  0  0  0  0  0  0  0  0999 V2000
   -1.0805    0.5317    0.0204 N   0  0  0  0  0  0  0  0  0  0  0  0
   -0.1080   -0.5393    0.0956 C   0  0  0  0  0  0  0  0  0  0  0  0
    1.2945   -0.1247   -0.1005 C   0  0  0  0  0  0  0  0  0  0  0  0
    2.3714    0.2386   -0.2580 N   0  0  0  0  0  0  0  0  0  0  0  0
   -1.0516    0.9857   -0.8822 H   0  0  0  0  0  0  0  0  0  0  0  0
   -0.9009    1.2352    0.7235 H   0  0  0  0  0  0  0  0  0  0  0  0
   -0.3427   -1.2965   -0.6542 H   0  0  0  0  0  0  0  0  0  0  0  0
   -0.1810   -1.0288    1.0680 H   0  0  0  0  0  0  0  0  0  0  0  0
  1  2  1  0
  1  5  1  0
  1  6  1  0
  2  3  1  0
  2  7  1  0
  2  8  1  0
  3  4  3  0
M  END
>  <reaction>  (3) 
rxn_3206

>  <mol_properties>  (3) 
{"0": {"label": "acceptor", "atom_type": "N3s"}, "7": {"label": "a_hydrogen", "atom_type": "H0"}}

>  <type>  (3) 
r2h

$$$$

     RDKit          3D

 11  9  0  0  0  0  0  0  0  0999 V2000
   -0.4505    0.1309    1.3613 N   0  0  0  0  0  0  0  0  0  0  0  0
   -0.6713    1.0037    0.2256 C   0  0  0  0  0  0  0  0  0  0  0  0
    0.1705    0.7161   -0.9461 C   0  0  0  0  0  0  0  0  0  0  0  0
    0.8419    0.4422   -1.8356 N   0  0  0  0  0  0  0  0  0  0  0  0
    0.5476    0.0613    1.5442 H   0  0  0  0  0  0  0  0  0  0  0  0
   -0.4921    2.0414    0.5248 H   0  0  0  0  0  0  0  0  0  0  0  0
   -1.7170    0.9368   -0.0799 H   0  0  0  0  0  0  0  0  0  0  0  0
   -0.8608   -2.1001    0.4920 N   0  0  0  0  0  2  0  0  0  0  0  0
   -0.8521   -0.9962    1.0735 H   0  0  0  0  0  0  0  0  0  0  0  0
   -0.5747   -1.9419   -0.4744 H   0  0  0  0  0  0  0  0  0  0  0  0
   -0.0951   -2.6281    0.9102 H   0  0  0  0  0  0  0  0  0  0  0  0
  1  2  1  0
  1  5  1  0
  1  9  1  0
  2  3  1  0
  2  6  1  0
  2  7  1  0
  3  4  3  0
  8 10  1  0
  8 11  1  0
M  RAD  1   8   2
M  END
>  <reaction>  (4) 
rxn_3206

>  <mol_properties>  (4) 
{"0": {"label": "*1", "atom_type": "N3s"}, "1": {"label": "*0", "atom_type": "Cs"}, "7": {"label": "*3", "atom_type": "N3s"}, "8": {"label": "*2", "atom_type": "H0"}, "9": {"label": "*4", "atom_type": "H0"}}

>  <type>  (4) 
ts

$$$$

     RDKit          3D

 11  9  0  0  0  0  0  0  0  0999 V2000
    1.2016   -0.0086    0.0864 N   0  0  0  0  0  0  0  0  0  0  0  0
    0.0308    0.2841    0.8876 C   0  0  0  0  0  0  0  0  0  0  0  0
   -1.0398    1.0172    0.1850 C   0  0  0  0  0  0  0  0  0  0  0  0
   -1.8477    1.5873   -0.3973 N   0  0  0  0  0  0  0  0  0  0  0  0
    1.6290    0.8409   -0.2559 H   0  0  0  0  0  0  0  0  0  0  0  0
    0.3244    0.8715    1.7590 H   0  0  0  0  0  0  0  0  0  0  0  0
   -0.3925   -0.6475    1.2665 H   0  0  0  0  0  0  0  0  0  0  0  0
    1.2016   -2.3224   -0.6440 N   0  0  0  0  0  2  0  0  0  0  0  0
    1.2016   -1.1652   -0.2787 H   0  0  0  0  0  0  0  0  0  0  0  0
    0.3313   -2.7377   -0.3396 H   0  0  0  0  0  0  0  0  0  0  0  0
    1.2016   -2.3224   -1.6552 H   0  0  0  0  0  0  0  0  0  0  0  0
  1  2  1  0
  1  5  1  0
  1  9  1  0
  2  3  1  0
  2  6  1  0
  2  7  1  0
  3  4  3  0
  8 10  1  0
  8 11  1  0
M  RAD  1   8   2
M  END
>  <reaction>  (5) 
rxn_3206

>  <mol_properties>  (5) 
{"0": {"label": "*1", "atom_type": "N3s"}, "1": {"label": "*0", "atom_type": "Cs"}, "7": {"label": "*3", "atom_type": "N3s"}, "8": {"label": "*2", "atom_type": "H0"}, "9": {"label": "*4", "atom_type": "H0"}}

>  <type>  (5) 
unop_1

>  <geom_source>  (5) 
Heuristics

$$$$

     RDKit          3D

 11  9  0  0  0  0  0  0  0  0999 V2000
   -0.0225   -0.1273    1.3080 N   0  0  0  0  0  0  0  0  0  0  0  0
   -0.6985    0.7214    0.3482 C   0  0  0  0  0  0  0  0  0  0  0  0
    0.1006    1.0819   -0.8388 C   0  0  0  0  0  0  0  0  0  0  0  0
    0.7550    1.3389   -1.7456 N   0  0  0  0  0  0  0  0  0  0  0  0
    0.8116    0.3193    1.6635 H   0  0  0  0  0  0  0  0  0  0  0  0
   -1.0104    1.6458    0.8368 H   0  0  0  0  0  0  0  0  0  0  0  0
   -1.6082    0.2273    0.0035 H   0  0  0  0  0  0  0  0  0  0  0  0
   -0.0225   -2.4411    0.5776 N   0  0  0  0  0  2  0  0  0  0  0  0
   -0.0225   -1.2839    0.9429 H   0  0  0  0  0  0  0  0  0  0  0  0
   -0.8928   -2.8564    0.8821 H   0  0  0  0  0  0  0  0  0  0  0  0
   -0.0225   -2.4411   -0.4336 H   0  0  0  0  0  0  0  0  0  0  0  0
  1  2  1  0
  1  5  1  0
  1  9  1  0
  2  3  1  0
  2  6  1  0
  2  7  1  0
  3  4  3  0
  8 10  1  0
  8 11  1  0
M  RAD  1   8   2
M  END
>  <reaction>  (6) 
rxn_3206

>  <mol_properties>  (6) 
{"0": {"label": "*1", "atom_type": "N3s"}, "1": {"label": "*0", "atom_type": "Cs"}, "7": {"label": "*3", "atom_type": "N3s"}, "8": {"label": "*2", "atom_type": "H0"}, "9": {"label": "*4", "atom_type": "H0"}}

>  <type>  (6) 
unop_2

>  <geom_source>  (6) 
Heuristics

$$$$

     RDKit          3D

 11  9  0  0  0  0  0  0  0  0999 V2000
    1.1189    0.2971   -0.4844 N   0  0  0  0  0  0  0  0  0  0  0  0
    0.4430    0.4409    0.7887 C   0  0  0  0  0  0  0  0  0  0  0  0
   -1.0008    0.7326    0.7001 C   0  0  0  0  0  0  0  0  0  0  0  0
   -2.1202    0.9584    0.5879 N   0  0  0  0  0  0  0  0  0  0  0  0
    1.0423    1.1422   -1.0336 H   0  0  0  0  0  0  0  0  0  0  0  0
    0.9131    1.2419    1.3614 H   0  0  0  0  0  0  0  0  0  0  0  0
    0.5660   -0.4737    1.3708 H   0  0  0  0  0  0  0  0  0  0  0  0
    1.1189   -2.0167   -1.2148 N   0  0  0  0  0  2  0  0  0  0  0  0
    1.1189   -0.8595   -0.8495 H   0  0  0  0  0  0  0  0  0  0  0  0
    0.2486   -2.4320   -0.9104 H   0  0  0  0  0  0  0  0  0  0  0  0
    1.1189   -2.0167   -2.2260 H   0  0  0  0  0  0  0  0  0  0  0  0
  1  2  1  0
  1  5  1  0
  1  9  1  0
  2  3  1  0
  2  6  1  0
  2  7  1  0
  3  4  3  0
  8 10  1  0
  8 11  1  0
M  RAD  1   8   2
M  END
>  <reaction>  (7) 
rxn_3206

>  <mol_properties>  (7) 
{"0": {"label": "*1", "atom_type": "N3s"}, "1": {"label": "*0", "atom_type": "Cs"}, "7": {"label": "*3", "atom_type": "N3s"}, "8": {"label": "*2", "atom_type": "H0"}, "9": {"label": "*4", "atom_type": "H0"}}

>  <type>  (7) 
unop_3

>  <geom_source>  (7) 
Heuristics

$$$$

     RDKit          3D

 11  9  0  0  0  0  0  0  0  0999 V2000
   -1.2385    0.5802    0.5696 N   0  0  0  0  0  0  0  0  0  0  0  0
   -0.0677    1.2799    0.0816 C   0  0  0  0  0  0  0  0  0  0  0  0
    1.1073    0.4260   -0.1782 C   0  0  0  0  0  0  0  0  0  0  0  0
    1.9978   -0.2724   -0.3675 N   0  0  0  0  0  0  0  0  0  0  0  0
   -1.0426    0.1092    1.4421 H   0  0  0  0  0  0  0  0  0  0  0  0
    0.2253    2.0447    0.8026 H   0  0  0  0  0  0  0  0  0  0  0  0
   -0.3156    1.8014   -0.8442 H   0  0  0  0  0  0  0  0  0  0  0  0
   -1.2385   -1.7336   -0.1608 N   0  0  0  0  0  2  0  0  0  0  0  0
   -1.2385   -0.5764    0.2045 H   0  0  0  0  0  0  0  0  0  0  0  0
   -2.1088   -2.1489    0.1436 H   0  0  0  0  0  0  0  0  0  0  0  0
   -1.2385   -1.7336   -1.1720 H   0  0  0  0  0  0  0  0  0  0  0  0
  1  2  1  0
  1  5  1  0
  1  9  1  0
  2  3  1  0
  2  6  1  0
  2  7  1  0
  3  4  3  0
  8 10  1  0
  8 11  1  0
M  RAD  1   8   2
M  END
>  <reaction>  (8) 
rxn_3206

>  <mol_properties>  (8) 
{"0": {"label": "*1", "atom_type": "N3s"}, "1": {"label": "*0", "atom_type": "Cs"}, "7": {"label": "*3", "atom_type": "N3s"}, "8": {"label": "*2", "atom_type": "H0"}, "9": {"label": "*4", "atom_type": "H0"}}

>  <type>  (8) 
unop_4

>  <geom_source>  (8) 
Heuristics

$$$$

     RDKit          3D

 11  9  0  0  0  0  0  0  0  0999 V2000
    0.6056    0.7975   -0.9627 N   0  0  0  0  0  0  0  0  0  0  0  0
    0.6056    0.8868    0.4832 C   0  0  0  0  0  0  0  0  0  0  0  0
   -0.5509    0.2560    1.1481 C   0  0  0  0  0  0  0  0  0  0  0  0
   -1.4654   -0.2458    1.6260 N   0  0  0  0  0  0  0  0  0  0  0  0
   -0.2131    1.2428   -1.3539 H   0  0  0  0  0  0  0  0  0  0  0  0
    0.6344    1.9356    0.7825 H   0  0  0  0  0  0  0  0  0  0  0  0
    1.5125    0.4243    0.8758 H   0  0  0  0  0  0  0  0  0  0  0  0
    0.6056   -1.5163   -1.6931 N   0  0  0  0  0  2  0  0  0  0  0  0
    0.6056   -0.3591   -1.3278 H   0  0  0  0  0  0  0  0  0  0  0  0
   -0.2647   -1.9316   -1.3887 H   0  0  0  0  0  0  0  0  0  0  0  0
    0.6056   -1.5163   -2.7043 H   0  0  0  0  0  0  0  0  0  0  0  0
  1  2  1  0
  1  5  1  0
  1  9  1  0
  2  3  1  0
  2  6  1  0
  2  7  1  0
  3  4  3  0
  8 10  1  0
  8 11  1  0
M  RAD  1   8   2
M  END
>  <reaction>  (9) 
rxn_3206

>  <mol_properties>  (9) 
{"0": {"label": "*1", "atom_type": "N3s"}, "1": {"label": "*0", "atom_type": "Cs"}, "7": {"label": "*3", "atom_type": "N3s"}, "8": {"label": "*2", "atom_type": "H0"}, "9": {"label": "*4", "atom_type": "H0"}}

>  <type>  (9) 
unop_5

>  <geom_source>  (9) 
Heuristics

$$$$

     RDKit          3D

 11  9  0  0  0  0  0  0  0  0999 V2000
   -1.2650    0.7904    0.0209 N   0  0  0  0  0  0  0  0  0  0  0  0
    0.0870    1.2866    0.1776 C   0  0  0  0  0  0  0  0  0  0  0  0
    1.1256    0.2447    0.2919 C   0  0  0  0  0  0  0  0  0  0  0  0
    1.9022   -0.5957    0.3772 N   0  0  0  0  0  0  0  0  0  0  0  0
   -1.5352    0.2181    0.8090 H   0  0  0  0  0  0  0  0  0  0  0  0
    0.1424    1.9155    1.0675 H   0  0  0  0  0  0  0  0  0  0  0  0
    0.3412    1.9229   -0.6716 H   0  0  0  0  0  0  0  0  0  0  0  0
   -1.2650   -1.5234   -0.7095 N   0  0  0  0  0  2  0  0  0  0  0  0
   -1.2650   -0.3662   -0.3442 H   0  0  0  0  0  0  0  0  0  0  0  0
   -2.1353   -1.9387   -0.4050 H   0  0  0  0  0  0  0  0  0  0  0  0
   -1.2650   -1.5234   -1.7207 H   0  0  0  0  0  0  0  0  0  0  0  0
  1  2  1  0
  1  5  1  0
  1  9  1  0
  2  3  1  0
  2  6  1  0
  2  7  1  0
  3  4  3  0
  8 10  1  0
  8 11  1  0
M  RAD  1   8   2
M  END
>  <reaction>  (10) 
rxn_3206

>  <mol_properties>  (10) 
{"0": {"label": "*1", "atom_type": "N3s"}, "1": {"label": "*0", "atom_type": "Cs"}, "7": {"label": "*3", "atom_type": "N3s"}, "8": {"label": "*2", "atom_type": "H0"}, "9": {"label": "*4", "atom_type": "H0"}}

>  <type>  (10) 
unop_6

>  <geom_source>  (10) 
Heuristics

$$$$

     RDKit          3D

 11  9  0  0  0  0  0  0  0  0999 V2000
   -0.9866    0.9741   -0.5512 N   0  0  0  0  0  0  0  0  0  0  0  0
    0.1842    1.2668    0.2501 C   0  0  0  0  0  0  0  0  0  0  0  0
    0.8833    0.0848    0.7899 C   0  0  0  0  0  0  0  0  0  0  0  0
    1.3974   -0.8596    1.1903 N   0  0  0  0  0  0  0  0  0  0  0  0
   -1.6770    0.4679   -0.0139 H   0  0  0  0  0  0  0  0  0  0  0  0
   -0.1002    1.9020    1.0904 H   0  0  0  0  0  0  0  0  0  0  0  0
    0.8987    1.8371   -0.3455 H   0  0  0  0  0  0  0  0  0  0  0  0
   -0.9866   -1.3397   -1.2816 N   0  0  0  0  0  2  0  0  0  0  0  0
   -0.9866   -0.1825   -0.9163 H   0  0  0  0  0  0  0  0  0  0  0  0
   -1.8569   -1.7550   -0.9772 H   0  0  0  0  0  0  0  0  0  0  0  0
   -0.9866   -1.3397   -2.2928 H   0  0  0  0  0  0  0  0  0  0  0  0
  1  2  1  0
  1  5  1  0
  1  9  1  0
  2  3  1  0
  2  6  1  0
  2  7  1  0
  3  4  3  0
  8 10  1  0
  8 11  1  0
M  RAD  1   8   2
M  END
>  <reaction>  (11) 
rxn_3206

>  <mol_properties>  (11) 
{"0": {"label": "*1", "atom_type": "N3s"}, "1": {"label": "*0", "atom_type": "Cs"}, "7": {"label": "*3", "atom_type": "N3s"}, "8": {"label": "*2", "atom_type": "H0"}, "9": {"label": "*4", "atom_type": "H0"}}

>  <type>  (11) 
unop_7

>  <geom_source>  (11) 
Heuristics

$$$$

     RDKit          3D

 11  9  0  0  0  0  0  0  0  0999 V2000
    1.0070   -0.1767    0.6484 N   0  0  0  0  0  0  0  0  0  0  0  0
   -0.3449    0.3195    0.8050 C   0  0  0  0  0  0  0  0  0  0  0  0
   -0.8335    1.1623   -0.3034 C   0  0  0  0  0  0  0  0  0  0  0  0
   -1.1750    1.8123   -1.1851 N   0  0  0  0  0  0  0  0  0  0  0  0
    1.6667    0.5851    0.5708 H   0  0  0  0  0  0  0  0  0  0  0  0
   -0.4140    0.9014    1.7254 H   0  0  0  0  0  0  0  0  0  0  0  0
   -1.0305   -0.5221    0.9147 H   0  0  0  0  0  0  0  0  0  0  0  0
    1.0070   -2.4905   -0.0820 N   0  0  0  0  0  2  0  0  0  0  0  0
    1.0070   -1.3333    0.2833 H   0  0  0  0  0  0  0  0  0  0  0  0
    0.1367   -2.9058    0.2224 H   0  0  0  0  0  0  0  0  0  0  0  0
    1.0070   -2.4905   -1.0932 H   0  0  0  0  0  0  0  0  0  0  0  0
  1  2  1  0
  1  5  1  0
  1  9  1  0
  2  3  1  0
  2  6  1  0
  2  7  1  0
  3  4  3  0
  8 10  1  0
  8 11  1  0
M  RAD  1   8   2
M  END
>  <reaction>  (12) 
rxn_3206

>  <mol_properties>  (12) 
{"0": {"label": "*1", "atom_type": "N3s"}, "1": {"label": "*0", "atom_type": "Cs"}, "7": {"label": "*3", "atom_type": "N3s"}, "8": {"label": "*2", "atom_type": "H0"}, "9": {"label": "*4", "atom_type": "H0"}}

>  <type>  (12) 
unop_8

>  <geom_source>  (12) 
Heuristics

$$$$

     RDKit          3D

 11  9  0  0  0  0  0  0  0  0999 V2000
   -0.9941    0.3509    0.9978 N   0  0  0  0  0  0  0  0  0  0  0  0
   -0.3181    1.1996    0.0379 C   0  0  0  0  0  0  0  0  0  0  0  0
    0.9114    0.6282   -0.5444 C   0  0  0  0  0  0  0  0  0  0  0  0
    1.8613    0.1481   -0.9731 N   0  0  0  0  0  0  0  0  0  0  0  0
   -0.3922    0.1378    1.7812 H   0  0  0  0  0  0  0  0  0  0  0  0
   -0.0568    2.1473    0.5114 H   0  0  0  0  0  0  0  0  0  0  0  0
   -0.9993    1.4363   -0.7809 H   0  0  0  0  0  0  0  0  0  0  0  0
   -0.9941   -1.9628    0.2674 N   0  0  0  0  0  2  0  0  0  0  0  0
   -0.9941   -0.8057    0.6327 H   0  0  0  0  0  0  0  0  0  0  0  0
   -1.8644   -2.3781    0.5718 H   0  0  0  0  0  0  0  0  0  0  0  0
   -0.9941   -1.9628   -0.7438 H   0  0  0  0  0  0  0  0  0  0  0  0
  1  2  1  0
  1  5  1  0
  1  9  1  0
  2  3  1  0
  2  6  1  0
  2  7  1  0
  3  4  3  0
  8 10  1  0
  8 11  1  0
M  RAD  1   8   2
M  END
>  <reaction>  (13) 
rxn_3206

>  <mol_properties>  (13) 
{"0": {"label": "*1", "atom_type": "N3s"}, "1": {"label": "*0", "atom_type": "Cs"}, "7": {"label": "*3", "atom_type": "N3s"}, "8": {"label": "*2", "atom_type": "H0"}, "9": {"label": "*4", "atom_type": "H0"}}

>  <type>  (13) 
unop_9

>  <geom_source>  (13) 
Heuristics

$$$$

     RDKit          3D

 11  9  0  0  0  0  0  0  0  0999 V2000
    0.5642   -0.2246    1.0918 N   0  0  0  0  0  0  0  0  0  0  0  0
   -0.6066    0.4751    0.6038 C   0  0  0  0  0  0  0  0  0  0  0  0
   -0.4201    1.1897   -0.6737 C   0  0  0  0  0  0  0  0  0  0  0  0
   -0.2339    1.7316   -1.6677 N   0  0  0  0  0  0  0  0  0  0  0  0
    1.3321    0.4147    1.2439 H   0  0  0  0  0  0  0  0  0  0  0  0
   -0.9336    1.2007    1.3502 H   0  0  0  0  0  0  0  0  0  0  0  0
   -1.4264   -0.2335    0.4760 H   0  0  0  0  0  0  0  0  0  0  0  0
    0.5642   -2.5384    0.3614 N   0  0  0  0  0  2  0  0  0  0  0  0
    0.5642   -1.3812    0.7267 H   0  0  0  0  0  0  0  0  0  0  0  0
   -0.3061   -2.9537    0.6658 H   0  0  0  0  0  0  0  0  0  0  0  0
    0.5642   -2.5384   -0.6498 H   0  0  0  0  0  0  0  0  0  0  0  0
  1  2  1  0
  1  5  1  0
  1  9  1  0
  2  3  1  0
  2  6  1  0
  2  7  1  0
  3  4  3  0
  8 10  1  0
  8 11  1  0
M  RAD  1   8   2
M  END
>  <reaction>  (14) 
rxn_3206

>  <mol_properties>  (14) 
{"0": {"label": "*1", "atom_type": "N3s"}, "1": {"label": "*0", "atom_type": "Cs"}, "7": {"label": "*3", "atom_type": "N3s"}, "8": {"label": "*2", "atom_type": "H0"}, "9": {"label": "*4", "atom_type": "H0"}}

>  <type>  (14) 
unop_10

>  <geom_source>  (14) 
Heuristics

$$$$

     RDKit          3D

 11  9  0  0  0  0  0  0  0  0999 V2000
   -0.3277    1.0570   -0.9774 N   0  0  0  0  0  0  0  0  0  0  0  0
    0.3483    1.2008    0.2957 C   0  0  0  0  0  0  0  0  0  0  0  0
    0.2975    0.0116    1.1679 C   0  0  0  0  0  0  0  0  0  0  0  0
    0.2350   -0.9336    1.8154 N   0  0  0  0  0  0  0  0  0  0  0  0
   -1.3091    0.8538   -0.8465 H   0  0  0  0  0  0  0  0  0  0  0  0
   -0.0846    2.0387    0.8444 H   0  0  0  0  0  0  0  0  0  0  0  0
    1.3973    1.4474    0.1244 H   0  0  0  0  0  0  0  0  0  0  0  0
   -0.3277   -1.2568   -1.7078 N   0  0  0  0  0  2  0  0  0  0  0  0
   -0.3277   -0.0996   -1.3425 H   0  0  0  0  0  0  0  0  0  0  0  0
   -1.1980   -1.6721   -1.4034 H   0  0  0  0  0  0  0  0  0  0  0  0
   -0.3277   -1.2568   -2.7190 H   0  0  0  0  0  0  0  0  0  0  0  0
  1  2  1  0
  1  5  1  0
  1  9  1  0
  2  3  1  0
  2  6  1  0
  2  7  1  0
  3  4  3  0
  8 10  1  0
  8 11  1  0
M  RAD  1   8   2
M  END
>  <reaction>  (15) 
rxn_3206

>  <mol_properties>  (15) 
{"0": {"label": "*1", "atom_type": "N3s"}, "1": {"label": "*0", "atom_type": "Cs"}, "7": {"label": "*3", "atom_type": "N3s"}, "8": {"label": "*2", "atom_type": "H0"}, "9": {"label": "*4", "atom_type": "H0"}}

>  <type>  (15) 
unop_11

>  <geom_source>  (15) 
Heuristics

$$$$

     RDKit          3D

 11  9  0  0  0  0  0  0  0  0999 V2000
   -0.5813    0.0956    1.2607 N   0  0  0  0  0  0  0  0  0  0  0  0
   -0.5813    0.9989    0.1282 C   0  0  0  0  0  0  0  0  0  0  0  0
    0.5752    0.8641   -0.7784 C   0  0  0  0  0  0  0  0  0  0  0  0
    1.4897    0.7277   -1.4578 N   0  0  0  0  0  0  0  0  0  0  0  0
    0.2374    0.2356    1.8367 H   0  0  0  0  0  0  0  0  0  0  0  0
   -0.6101    2.0295    0.4853 H   0  0  0  0  0  0  0  0  0  0  0  0
   -1.4881    0.8456   -0.4589 H   0  0  0  0  0  0  0  0  0  0  0  0
   -0.5813   -2.2181    0.5303 N   0  0  0  0  0  2  0  0  0  0  0  0
   -0.5813   -1.0610    0.8956 H   0  0  0  0  0  0  0  0  0  0  0  0
   -1.4516   -2.6334    0.8347 H   0  0  0  0  0  0  0  0  0  0  0  0
   -0.5813   -2.2181   -0.4809 H   0  0  0  0  0  0  0  0  0  0  0  0
  1  2  1  0
  1  5  1  0
  1  9  1  0
  2  3  1  0
  2  6  1  0
  2  7  1  0
  3  4  3  0
  8 10  1  0
  8 11  1  0
M  RAD  1   8   2
M  END
>  <reaction>  (16) 
rxn_3206

>  <mol_properties>  (16) 
{"0": {"label": "*1", "atom_type": "N3s"}, "1": {"label": "*0", "atom_type": "Cs"}, "7": {"label": "*3", "atom_type": "N3s"}, "8": {"label": "*2", "atom_type": "H0"}, "9": {"label": "*4", "atom_type": "H0"}}

>  <type>  (16) 
unop_12

>  <geom_source>  (16) 
Heuristics

$$$$

     RDKit          3D

 11  9  0  0  0  0  0  0  0  0999 V2000
   -0.0225   -0.1273    1.3080 N   0  0  0  0  0  0  0  0  0  0  0  0
   -0.6985    0.7214    0.3482 C   0  0  0  0  0  0  0  0  0  0  0  0
    0.1006    1.0819   -0.8388 C   0  0  0  0  0  0  0  0  0  0  0  0
    0.7550    1.3389   -1.7456 N   0  0  0  0  0  0  0  0  0  0  0  0
    0.8116    0.3194    1.6635 H   0  0  0  0  0  0  0  0  0  0  0  0
   -1.0104    1.6458    0.8368 H   0  0  0  0  0  0  0  0  0  0  0  0
   -1.6082    0.2273    0.0035 H   0  0  0  0  0  0  0  0  0  0  0  0
   -0.0225   -2.4411    0.5776 N   0  0  0  0  0  2  0  0  0  0  0  0
   -0.0225   -1.2839    0.9429 H   0  0  0  0  0  0  0  0  0  0  0  0
   -0.8928   -2.8564    0.8821 H   0  0  0  0  0  0  0  0  0  0  0  0
   -0.0225   -2.4411   -0.4336 H   0  0  0  0  0  0  0  0  0  0  0  0
  1  2  1  0
  1  5  1  0
  1  9  1  0
  2  3  1  0
  2  6  1  0
  2  7  1  0
  3  4  3  0
  8 10  1  0
  8 11  1  0
M  RAD  1   8   2
M  END
>  <reaction>  (17) 
rxn_3206

>  <mol_properties>  (17) 
{"0": {"label": "*1", "atom_type": "N3s"}, "1": {"label": "*0", "atom_type": "Cs"}, "7": {"label": "*3", "atom_type": "N3s"}, "8": {"label": "*2", "atom_type": "H0"}, "9": {"label": "*4", "atom_type": "H0"}}

>  <type>  (17) 
unop_13

>  <geom_source>  (17) 
gaussian_log

$$$$
