
     RDKit          3D

 22 23  0  0  0  0  0  0  0  0999 V2000
   -2.1093   -0.3263    0.3079 C   0  0  0  0  0  0  0  0  0  0  0  0
   -1.3270    0.9803    0.4115 C   0  0  0  0  0  0  0  0  0  0  0  0
   -0.1818    0.8289   -0.6044 C   0  0  0  0  0  0  0  0  0  0  0  0
    1.1682    1.3904   -0.1341 C   0  0  0  0  0  0  0  0  0  0  0  0
    1.8508    0.2041    0.5479 C   0  0  0  0  0  0  0  0  0  0  0  0
    1.4982   -0.9663   -0.3710 C   0  0  0  0  0  0  0  0  0  0  0  0
    0.0340   -0.7124   -0.7594 C   0  0  0  0  0  0  0  0  0  0  0  0
   -0.9986   -1.3650    0.1756 C   0  0  0  0  0  0  0  0  0  0  0  0
   -2.7686   -0.5042    1.1589 H   0  0  0  0  0  0  0  0  0  0  0  0
   -2.7285   -0.3223   -0.5943 H   0  0  0  0  0  0  0  0  0  0  0  0
   -1.9339    1.8682    0.2289 H   0  0  0  0  0  0  0  0  0  0  0  0
   -0.9144    1.0729    1.4218 H   0  0  0  0  0  0  0  0  0  0  0  0
   -0.4804    1.2763   -1.5535 H   0  0  0  0  0  0  0  0  0  0  0  0
    1.7667    1.7058   -0.9931 H   0  0  0  0  0  0  0  0  0  0  0  0
    1.0540    2.2578    0.5189 H   0  0  0  0  0  0  0  0  0  0  0  0
    1.4197    0.0438    1.5410 H   0  0  0  0  0  0  0  0  0  0  0  0
    2.9248    0.3413    0.6788 H   0  0  0  0  0  0  0  0  0  0  0  0
    2.1362   -0.9329   -1.2584 H   0  0  0  0  0  0  0  0  0  0  0  0
    1.6421   -1.9421    0.0966 H   0  0  0  0  0  0  0  0  0  0  0  0
   -0.1575   -1.0299   -1.7854 H   0  0  0  0  0  0  0  0  0  0  0  0
   -1.3459   -2.3310   -0.1933 H   0  0  0  0  0  0  0  0  0  0  0  0
   -0.5489   -1.5373    1.1593 H   0  0  0  0  0  0  0  0  0  0  0  0
  1  2  1  0
  1  8  1  0
  1  9  1  0
  1 10  1  0
  2  3  1  0
  2 11  1  0
  2 12  1  0
  3  4  1  0
  3  7  1  0
  3 13  1  0
  4  5  1  0
  4 14  1  0
  4 15  1  0
  5  6  1  0
  5 16  1  0
  5 17  1  0
  6  7  1  0
  6 18  1  0
  6 19  1  0
  7  8  1  0
  7 20  1  0
  8 21  1  0
  8 22  1  0
M  END
>  <reaction>  (1) 
rxn_555

>  <mol_properties>  (1) 
{"2": {"label": "donator", "atom_type": "Cs"}, "12": {"label": "d_hydrogen", "atom_type": "H0"}}

>  <type>  (1) 
r1h

$$$$

     RDKit          3D

  4  3  0  0  0  0  0  0  0  0999 V2000
    0.0000    0.0000    0.0000 C   0  0  0  0  0  3  0  0  0  0  0  0
    1.0638   -0.1747    0.0540 H   0  0  0  0  0  0  0  0  0  0  0  0
   -0.6833   -0.8351   -0.0280 H   0  0  0  0  0  0  0  0  0  0  0  0
   -0.3805    1.0098   -0.0260 H   0  0  0  0  0  0  0  0  0  0  0  0
  1  2  1  0
  1  3  1  0
  1  4  1  0
M  RAD  1   1   2
M  END
>  <reaction>  (2) 
rxn_555

>  <mol_properties>  (2) 
{"0": {"label": "acceptor", "atom_type": "Cs"}}

>  <type>  (2) 
r2

$$$$

     RDKit          3D

  5  4  0  0  0  0  0  0  0  0999 V2000
    0.0000    0.0000    0.0000 C   0  0  0  0  0  0  0  0  0  0  0  0
   -0.6486   -0.7720   -0.4113 H   0  0  0  0  0  0  0  0  0  0  0  0
   -0.3482    0.9787   -0.3267 H   0  0  0  0  0  0  0  0  0  0  0  0
   -0.0223   -0.0487    1.0876 H   0  0  0  0  0  0  0  0  0  0  0  0
    1.0191   -0.1580   -0.3496 H   0  0  0  0  0  0  0  0  0  0  0  0
  1  2  1  0
  1  3  1  0
  1  4  1  0
  1  5  1  0
M  END
>  <reaction>  (3) 
rxn_555

>  <mol_properties>  (3) 
{"0": {"label": "acceptor", "atom_type": "Cs"}, "4": {"label": "a_hydrogen", "atom_type": "H0"}}

>  <type>  (3) 
r2h

$$$$

     RDKit          3D

 26 26  0  0  0  0  0  0  0  0999 V2000
   -2.6781   -1.2479    0.8625 C   0  0  0  0  0  3  0  0  0  0  0  0
   -2.8396   -1.9400    0.0416 H   0  0  0  0  0  0  0  0  0  0  0  0
   -3.3006   -0.3593    0.8196 H   0  0  0  0  0  0  0  0  0  0  0  0
   -2.6467   -1.7198    1.8396 H   0  0  0  0  0  0  0  0  0  0  0  0
    0.7127   -1.5244   -1.4206 C   0  0  0  0  0  0  0  0  0  0  0  0
    0.6802   -1.5127    0.1085 C   0  0  0  0  0  0  0  0  0  0  0  0
   -0.1950   -0.3161    0.4584 C   0  0  0  0  0  0  0  0  0  0  0  0
    0.2029    0.5453    1.6473 C   0  0  0  0  0  0  0  0  0  0  0  0
    0.9528    1.7193    1.0074 C   0  0  0  0  0  0  0  0  0  0  0  0
    0.1473    1.9974   -0.2645 C   0  0  0  0  0  0  0  0  0  0  0  0
   -0.2395    0.6031   -0.7807 C   0  0  0  0  0  0  0  0  0  0  0  0
    0.7463   -0.0376   -1.7704 C   0  0  0  0  0  0  0  0  0  0  0  0
    1.5545   -2.0849   -1.8294 H   0  0  0  0  0  0  0  0  0  0  0  0
   -0.2050   -1.9762   -1.8085 H   0  0  0  0  0  0  0  0  0  0  0  0
    0.3113   -2.4454    0.5411 H   0  0  0  0  0  0  0  0  0  0  0  0
    1.6932   -1.3574    0.4991 H   0  0  0  0  0  0  0  0  0  0  0  0
   -1.3666   -0.7640    0.6599 H   0  0  0  0  0  0  0  0  0  0  0  0
   -0.6885    0.9187    2.1620 H   0  0  0  0  0  0  0  0  0  0  0  0
    0.7981   -0.0001    2.3817 H   0  0  0  0  0  0  0  0  0  0  0  0
    1.9689    1.4087    0.7457 H   0  0  0  0  0  0  0  0  0  0  0  0
    1.0361    2.5874    1.6626 H   0  0  0  0  0  0  0  0  0  0  0  0
   -0.7508    2.5655   -0.0080 H   0  0  0  0  0  0  0  0  0  0  0  0
    0.6999    2.5788   -1.0048 H   0  0  0  0  0  0  0  0  0  0  0  0
   -1.2382    0.6129   -1.2259 H   0  0  0  0  0  0  0  0  0  0  0  0
    0.4951    0.1712   -2.8113 H   0  0  0  0  0  0  0  0  0  0  0  0
    1.7535    0.3544   -1.5922 H   0  0  0  0  0  0  0  0  0  0  0  0
  1  2  1  0
  1  3  1  0
  1  4  1  0
  5  6  1  0
  5 12  1  0
  5 13  1  0
  5 14  1  0
  6  7  1  0
  6 15  1  0
  6 16  1  0
  7  8  1  0
  7 11  1  0
  7 17  1  0
  8  9  1  0
  8 18  1  0
  8 19  1  0
  9 10  1  0
  9 20  1  0
  9 21  1  0
 10 11  1  0
 10 22  1  0
 10 23  1  0
 11 12  1  0
 11 24  1  0
 12 25  1  0
 12 26  1  0
M  RAD  1   1   2
M  END
>  <reaction>  (4) 
rxn_555

>  <mol_properties>  (4) 
{"0": {"label": "*3", "atom_type": "Cs"}, "1": {"label": "*4", "atom_type": "H0"}, "6": {"label": "*1", "atom_type": "Cs"}, "10": {"label": "*0", "atom_type": "Cs"}, "16": {"label": "*2", "atom_type": "H0"}}

>  <type>  (4) 
ts

$$$$

     RDKit          3D

 26 26  0  0  0  0  0  0  0  0999 V2000
   -2.6564   -1.3394    0.8569 C   0  0  0  0  0  0  0  0  0  0  0  0
   -2.9688   -1.1353    1.8800 H   0  0  0  0  0  0  0  0  0  0  0  0
   -3.2344   -2.1728    0.4604 H   0  0  0  0  0  0  0  0  0  0  0  0
   -2.9099   -0.3870    0.3940 H   0  0  0  0  0  0  0  0  0  0  0  0
    0.6948   -1.4824   -1.4548 C   0  0  0  0  0  0  0  0  0  0  0  0
    0.6948   -1.4824    0.0716 C   0  0  0  0  0  0  0  0  0  0  0  0
   -0.2686   -0.3477    0.4600 C   0  0  0  0  0  3  0  0  0  0  0  0
    0.1842    0.4909    1.6644 C   0  0  0  0  0  0  0  0  0  0  0  0
    0.9962    1.6291    1.0450 C   0  0  0  0  0  0  0  0  0  0  0  0
    0.1842    1.9887   -0.1999 C   0  0  0  0  0  0  0  0  0  0  0  0
   -0.2686    0.6319   -0.7592 C   0  0  0  0  0  0  0  0  0  0  0  0
    0.6948    0.0081   -1.7837 C   0  0  0  0  0  0  0  0  0  0  0  0
    1.5396   -2.0206   -1.8872 H   0  0  0  0  0  0  0  0  0  0  0  0
   -0.2211   -1.9493   -1.8299 H   0  0  0  0  0  0  0  0  0  0  0  0
    0.4104   -2.4408    0.5082 H   0  0  0  0  0  0  0  0  0  0  0  0
    1.7029   -1.2499    0.4309 H   0  0  0  0  0  0  0  0  0  0  0  0
   -1.4636   -0.8440    0.6586 H   0  0  0  0  0  0  0  0  0  0  0  0
   -0.6837    0.9077    2.1828 H   0  0  0  0  0  0  0  0  0  0  0  0
    0.7472   -0.0959    2.3927 H   0  0  0  0  0  0  0  0  0  0  0  0
    1.9873    1.2672    0.7543 H   0  0  0  0  0  0  0  0  0  0  0  0
    1.1441    2.4714    1.7218 H   0  0  0  0  0  0  0  0  0  0  0  0
   -0.6837    2.5847    0.0955 H   0  0  0  0  0  0  0  0  0  0  0  0
    0.7472    2.5734   -0.9297 H   0  0  0  0  0  0  0  0  0  0  0  0
   -1.2645    0.7044   -1.1988 H   0  0  0  0  0  0  0  0  0  0  0  0
    0.4104    0.2280   -2.8136 H   0  0  0  0  0  0  0  0  0  0  0  0
    1.7029    0.4091   -1.6340 H   0  0  0  0  0  0  0  0  0  0  0  0
  1  2  1  0
  1  3  1  0
  1  4  1  0
  1 17  1  0
  5 12  1  0
  5  6  1  0
  5 13  1  0
  5 14  1  0
  6  7  1  0
  6 15  1  0
  6 16  1  0
  7  8  1  0
  7 11  1  0
  8  9  1  0
  8 18  1  0
  8 19  1  0
  9 10  1  0
  9 20  1  0
  9 21  1  0
 10 11  1  0
 10 22  1  0
 10 23  1  0
 11 12  1  0
 11 24  1  0
 12 25  1  0
 12 26  1  0
M  RAD  1   7   2
M  END
>  <reaction>  (5) 
rxn_555

>  <mol_properties>  (5) 
{"0": {"label": "*3", "atom_type": "Cs"}, "1": {"label": "*4", "atom_type": "H0"}, "6": {"label": "*1", "atom_type": "Cs"}, "10": {"label": "*0", "atom_type": "Cs"}, "16": {"label": "*2", "atom_type": "H0"}}

>  <type>  (5) 
unop_1

>  <geom_source>  (5) 
Heuristics

$$$$

     RDKit          3D

 26 26  0  0  0  0  0  0  0  0999 V2000
   -2.6599   -1.3371    0.8577 C   0  0  0  0  0  0  0  0  0  0  0  0
   -2.5724   -2.3611    1.2175 H   0  0  0  0  0  0  0  0  0  0  0  0
   -3.4645   -1.2768    0.1264 H   0  0  0  0  0  0  0  0  0  0  0  0
   -2.6593   -0.3399    1.2952 H   0  0  0  0  0  0  0  0  0  0  0  0
    0.6913   -1.4801   -1.4540 C   0  0  0  0  0  0  0  0  0  0  0  0
    0.6913   -1.4801    0.0724 C   0  0  0  0  0  0  0  0  0  0  0  0
   -0.2720   -0.3454    0.4608 C   0  0  0  0  0  3  0  0  0  0  0  0
    0.1807    0.4932    1.6652 C   0  0  0  0  0  0  0  0  0  0  0  0
    0.9927    1.6314    1.0458 C   0  0  0  0  0  0  0  0  0  0  0  0
    0.1807    1.9910   -0.1991 C   0  0  0  0  0  0  0  0  0  0  0  0
   -0.2720    0.6342   -0.7585 C   0  0  0  0  0  0  0  0  0  0  0  0
    0.6913    0.0105   -1.7829 C   0  0  0  0  0  0  0  0  0  0  0  0
    1.5362   -2.0183   -1.8864 H   0  0  0  0  0  0  0  0  0  0  0  0
   -0.2245   -1.9470   -1.8291 H   0  0  0  0  0  0  0  0  0  0  0  0
    0.4070   -2.4385    0.5090 H   0  0  0  0  0  0  0  0  0  0  0  0
    1.6995   -1.2475    0.4317 H   0  0  0  0  0  0  0  0  0  0  0  0
   -1.4671   -0.8417    0.6594 H   0  0  0  0  0  0  0  0  0  0  0  0
   -0.6871    0.9100    2.1836 H   0  0  0  0  0  0  0  0  0  0  0  0
    0.7438   -0.0935    2.3935 H   0  0  0  0  0  0  0  0  0  0  0  0
    1.9838    1.2695    0.7551 H   0  0  0  0  0  0  0  0  0  0  0  0
    1.1406    2.4737    1.7226 H   0  0  0  0  0  0  0  0  0  0  0  0
   -0.6871    2.5871    0.0963 H   0  0  0  0  0  0  0  0  0  0  0  0
    0.7438    2.5758   -0.9289 H   0  0  0  0  0  0  0  0  0  0  0  0
   -1.2679    0.7067   -1.1980 H   0  0  0  0  0  0  0  0  0  0  0  0
    0.4070    0.2303   -2.8128 H   0  0  0  0  0  0  0  0  0  0  0  0
    1.6995    0.4114   -1.6332 H   0  0  0  0  0  0  0  0  0  0  0  0
  1  2  1  0
  1  3  1  0
  1  4  1  0
  1 17  1  0
  5 12  1  0
  5  6  1  0
  5 13  1  0
  5 14  1  0
  6  7  1  0
  6 15  1  0
  6 16  1  0
  7  8  1  0
  7 11  1  0
  8  9  1  0
  8 18  1  0
  8 19  1  0
  9 10  1  0
  9 20  1  0
  9 21  1  0
 10 11  1  0
 10 22  1  0
 10 23  1  0
 11 12  1  0
 11 24  1  0
 12 25  1  0
 12 26  1  0
M  RAD  1   7   2
M  END
>  <reaction>  (6) 
rxn_555

>  <mol_properties>  (6) 
{"0": {"label": "*3", "atom_type": "Cs"}, "1": {"label": "*4", "atom_type": "H0"}, "6": {"label": "*1", "atom_type": "Cs"}, "10": {"label": "*0", "atom_type": "Cs"}, "16": {"label": "*2", "atom_type": "H0"}}

>  <type>  (6) 
unop_2

>  <geom_source>  (6) 
Heuristics

$$$$

     RDKit          3D

 26 26  0  0  0  0  0  0  0  0999 V2000
   -2.6553   -1.3381    0.8581 C   0  0  0  0  0  0  0  0  0  0  0  0
   -3.1796   -0.7366    1.5991 H   0  0  0  0  0  0  0  0  0  0  0  0
   -2.9771   -2.3753    0.9389 H   0  0  0  0  0  0  0  0  0  0  0  0
   -3.0970   -0.7451    0.0587 H   0  0  0  0  0  0  0  0  0  0  0  0
    0.6959   -1.4811   -1.4537 C   0  0  0  0  0  0  0  0  0  0  0  0
    0.6959   -1.4811    0.0728 C   0  0  0  0  0  0  0  0  0  0  0  0
   -0.2674   -0.3464    0.4611 C   0  0  0  0  0  3  0  0  0  0  0  0
    0.1853    0.4922    1.6656 C   0  0  0  0  0  0  0  0  0  0  0  0
    0.9973    1.6304    1.0462 C   0  0  0  0  0  0  0  0  0  0  0  0
    0.1853    1.9900   -0.1987 C   0  0  0  0  0  0  0  0  0  0  0  0
   -0.2674    0.6332   -0.7581 C   0  0  0  0  0  0  0  0  0  0  0  0
    0.6959    0.0095   -1.7825 C   0  0  0  0  0  0  0  0  0  0  0  0
    1.5408   -2.0193   -1.8861 H   0  0  0  0  0  0  0  0  0  0  0  0
   -0.2199   -1.9480   -1.8288 H   0  0  0  0  0  0  0  0  0  0  0  0
    0.4116   -2.4395    0.5093 H   0  0  0  0  0  0  0  0  0  0  0  0
    1.7041   -1.2485    0.4320 H   0  0  0  0  0  0  0  0  0  0  0  0
   -1.4625   -0.8427    0.6598 H   0  0  0  0  0  0  0  0  0  0  0  0
   -0.6825    0.9090    2.1840 H   0  0  0  0  0  0  0  0  0  0  0  0
    0.7484   -0.0945    2.3938 H   0  0  0  0  0  0  0  0  0  0  0  0
    1.9884    1.2685    0.7555 H   0  0  0  0  0  0  0  0  0  0  0  0
    1.1452    2.4727    1.7229 H   0  0  0  0  0  0  0  0  0  0  0  0
   -0.6825    2.5861    0.0966 H   0  0  0  0  0  0  0  0  0  0  0  0
    0.7484    2.5748   -0.9286 H   0  0  0  0  0  0  0  0  0  0  0  0
   -1.2633    0.7058   -1.1977 H   0  0  0  0  0  0  0  0  0  0  0  0
    0.4116    0.2293   -2.8125 H   0  0  0  0  0  0  0  0  0  0  0  0
    1.7041    0.4104   -1.6328 H   0  0  0  0  0  0  0  0  0  0  0  0
  1  2  1  0
  1  3  1  0
  1  4  1  0
  1 17  1  0
  5 12  1  0
  5  6  1  0
  5 13  1  0
  5 14  1  0
  6  7  1  0
  6 15  1  0
  6 16  1  0
  7  8  1  0
  7 11  1  0
  8  9  1  0
  8 18  1  0
  8 19  1  0
  9 10  1  0
  9 20  1  0
  9 21  1  0
 10 11  1  0
 10 22  1  0
 10 23  1  0
 11 12  1  0
 11 24  1  0
 12 25  1  0
 12 26  1  0
M  RAD  1   7   2
M  END
>  <reaction>  (7) 
rxn_555

>  <mol_properties>  (7) 
{"0": {"label": "*3", "atom_type": "Cs"}, "1": {"label": "*4", "atom_type": "H0"}, "6": {"label": "*1", "atom_type": "Cs"}, "10": {"label": "*0", "atom_type": "Cs"}, "16": {"label": "*2", "atom_type": "H0"}}

>  <type>  (7) 
unop_3

>  <geom_source>  (7) 
Heuristics

$$$$

     RDKit          3D

 26 26  0  0  0  0  0  0  0  0999 V2000
   -2.6590   -1.3388    0.8575 C   0  0  0  0  0  0  0  0  0  0  0  0
   -3.0093   -1.8182   -0.0553 H   0  0  0  0  0  0  0  0  0  0  0  0
   -2.9338   -0.2853    0.8428 H   0  0  0  0  0  0  0  0  0  0  0  0
   -2.8626   -1.6640    1.8766 H   0  0  0  0  0  0  0  0  0  0  0  0
    0.6922   -1.4819   -1.4542 C   0  0  0  0  0  0  0  0  0  0  0  0
    0.6922   -1.4819    0.0722 C   0  0  0  0  0  0  0  0  0  0  0  0
   -0.2711   -0.3471    0.4606 C   0  0  0  0  0  3  0  0  0  0  0  0
    0.1816    0.4915    1.6650 C   0  0  0  0  0  0  0  0  0  0  0  0
    0.9936    1.6297    1.0456 C   0  0  0  0  0  0  0  0  0  0  0  0
    0.1816    1.9893   -0.1993 C   0  0  0  0  0  0  0  0  0  0  0  0
   -0.2711    0.6325   -0.7587 C   0  0  0  0  0  0  0  0  0  0  0  0
    0.6922    0.0087   -1.7831 C   0  0  0  0  0  0  0  0  0  0  0  0
    1.5371   -2.0200   -1.8866 H   0  0  0  0  0  0  0  0  0  0  0  0
   -0.2236   -1.9487   -1.8293 H   0  0  0  0  0  0  0  0  0  0  0  0
    0.4079   -2.4402    0.5088 H   0  0  0  0  0  0  0  0  0  0  0  0
    1.7004   -1.2493    0.4315 H   0  0  0  0  0  0  0  0  0  0  0  0
   -1.4662   -0.8434    0.6592 H   0  0  0  0  0  0  0  0  0  0  0  0
   -0.6862    0.9083    2.1834 H   0  0  0  0  0  0  0  0  0  0  0  0
    0.7447   -0.0953    2.3933 H   0  0  0  0  0  0  0  0  0  0  0  0
    1.9847    1.2678    0.7549 H   0  0  0  0  0  0  0  0  0  0  0  0
    1.1415    2.4720    1.7224 H   0  0  0  0  0  0  0  0  0  0  0  0
   -0.6862    2.5853    0.0961 H   0  0  0  0  0  0  0  0  0  0  0  0
    0.7447    2.5740   -0.9291 H   0  0  0  0  0  0  0  0  0  0  0  0
   -1.2670    0.7050   -1.1982 H   0  0  0  0  0  0  0  0  0  0  0  0
    0.4079    0.2286   -2.8130 H   0  0  0  0  0  0  0  0  0  0  0  0
    1.7004    0.4097   -1.6334 H   0  0  0  0  0  0  0  0  0  0  0  0
  1  2  1  0
  1  3  1  0
  1  4  1  0
  1 17  1  0
  5 12  1  0
  5  6  1  0
  5 13  1  0
  5 14  1  0
  6  7  1  0
  6 15  1  0
  6 16  1  0
  7  8  1  0
  7 11  1  0
  8  9  1  0
  8 18  1  0
  8 19  1  0
  9 10  1  0
  9 20  1  0
  9 21  1  0
 10 11  1  0
 10 22  1  0
 10 23  1  0
 11 12  1  0
 11 24  1  0
 12 25  1  0
 12 26  1  0
M  RAD  1   7   2
M  END
>  <reaction>  (8) 
rxn_555

>  <mol_properties>  (8) 
{"0": {"label": "*3", "atom_type": "Cs"}, "1": {"label": "*4", "atom_type": "H0"}, "6": {"label": "*1", "atom_type": "Cs"}, "10": {"label": "*0", "atom_type": "Cs"}, "16": {"label": "*2", "atom_type": "H0"}}

>  <type>  (8) 
unop_4

>  <geom_source>  (8) 
Heuristics

$$$$

     RDKit          3D

 26 26  0  0  0  0  0  0  0  0999 V2000
   -2.6551   -1.3359    0.8564 C   0  0  0  0  0  0  0  0  0  0  0  0
   -3.3397   -0.5350    1.1315 H   0  0  0  0  0  0  0  0  0  0  0  0
   -2.6142   -2.0703    1.6593 H   0  0  0  0  0  0  0  0  0  0  0  0
   -3.3203   -1.5209    0.0143 H   0  0  0  0  0  0  0  0  0  0  0  0
    0.6961   -1.4789   -1.4554 C   0  0  0  0  0  0  0  0  0  0  0  0
    0.6961   -1.4789    0.0710 C   0  0  0  0  0  0  0  0  0  0  0  0
   -0.2673   -0.3441    0.4594 C   0  0  0  0  0  3  0  0  0  0  0  0
    0.1855    0.4944    1.6638 C   0  0  0  0  0  0  0  0  0  0  0  0
    0.9975    1.6326    1.0445 C   0  0  0  0  0  0  0  0  0  0  0  0
    0.1855    1.9922   -0.2004 C   0  0  0  0  0  0  0  0  0  0  0  0
   -0.2673    0.6354   -0.7598 C   0  0  0  0  0  0  0  0  0  0  0  0
    0.6961    0.0117   -1.7843 C   0  0  0  0  0  0  0  0  0  0  0  0
    1.5409   -2.0171   -1.8878 H   0  0  0  0  0  0  0  0  0  0  0  0
   -0.2198   -1.9457   -1.8305 H   0  0  0  0  0  0  0  0  0  0  0  0
    0.4118   -2.4372    0.5076 H   0  0  0  0  0  0  0  0  0  0  0  0
    1.7042   -1.2463    0.4303 H   0  0  0  0  0  0  0  0  0  0  0  0
   -1.4623   -0.8405    0.6581 H   0  0  0  0  0  0  0  0  0  0  0  0
   -0.6823    0.9112    2.1823 H   0  0  0  0  0  0  0  0  0  0  0  0
    0.7486   -0.0923    2.3921 H   0  0  0  0  0  0  0  0  0  0  0  0
    1.9886    1.2708    0.7537 H   0  0  0  0  0  0  0  0  0  0  0  0
    1.1454    2.4749    1.7212 H   0  0  0  0  0  0  0  0  0  0  0  0
   -0.6823    2.5883    0.0949 H   0  0  0  0  0  0  0  0  0  0  0  0
    0.7486    2.5770   -0.9303 H   0  0  0  0  0  0  0  0  0  0  0  0
   -1.2631    0.7080   -1.1994 H   0  0  0  0  0  0  0  0  0  0  0  0
    0.4118    0.2316   -2.8142 H   0  0  0  0  0  0  0  0  0  0  0  0
    1.7042    0.4127   -1.6346 H   0  0  0  0  0  0  0  0  0  0  0  0
  1  2  1  0
  1  3  1  0
  1  4  1  0
  1 17  1  0
  5 12  1  0
  5  6  1  0
  5 13  1  0
  5 14  1  0
  6  7  1  0
  6 15  1  0
  6 16  1  0
  7  8  1  0
  7 11  1  0
  8  9  1  0
  8 18  1  0
  8 19  1  0
  9 10  1  0
  9 20  1  0
  9 21  1  0
 10 11  1  0
 10 22  1  0
 10 23  1  0
 11 12  1  0
 11 24  1  0
 12 25  1  0
 12 26  1  0
M  RAD  1   7   2
M  END
>  <reaction>  (9) 
rxn_555

>  <mol_properties>  (9) 
{"0": {"label": "*3", "atom_type": "Cs"}, "1": {"label": "*4", "atom_type": "H0"}, "6": {"label": "*1", "atom_type": "Cs"}, "10": {"label": "*0", "atom_type": "Cs"}, "16": {"label": "*2", "atom_type": "H0"}}

>  <type>  (9) 
unop_5

>  <geom_source>  (9) 
Heuristics

$$$$

     RDKit          3D

 26 26  0  0  0  0  0  0  0  0999 V2000
   -2.6577   -1.3391    0.8564 C   0  0  0  0  0  0  0  0  0  0  0  0
   -3.2149   -1.3294   -0.0791 H   0  0  0  0  0  0  0  0  0  0  0  0
   -2.6934   -0.3499    1.3104 H   0  0  0  0  0  0  0  0  0  0  0  0
   -3.0511   -2.0606    1.5708 H   0  0  0  0  0  0  0  0  0  0  0  0
    0.6935   -1.4821   -1.4554 C   0  0  0  0  0  0  0  0  0  0  0  0
    0.6935   -1.4821    0.0711 C   0  0  0  0  0  0  0  0  0  0  0  0
   -0.2699   -0.3473    0.4594 C   0  0  0  0  0  3  0  0  0  0  0  0
    0.1829    0.4912    1.6639 C   0  0  0  0  0  0  0  0  0  0  0  0
    0.9949    1.6294    1.0445 C   0  0  0  0  0  0  0  0  0  0  0  0
    0.1829    1.9890   -0.2004 C   0  0  0  0  0  0  0  0  0  0  0  0
   -0.2699    0.6322   -0.7598 C   0  0  0  0  0  0  0  0  0  0  0  0
    0.6935    0.0085   -1.7842 C   0  0  0  0  0  0  0  0  0  0  0  0
    1.5383   -2.0203   -1.8878 H   0  0  0  0  0  0  0  0  0  0  0  0
   -0.2224   -1.9489   -1.8304 H   0  0  0  0  0  0  0  0  0  0  0  0
    0.4092   -2.4404    0.5077 H   0  0  0  0  0  0  0  0  0  0  0  0
    1.7016   -1.2495    0.4303 H   0  0  0  0  0  0  0  0  0  0  0  0
   -1.4649   -0.8437    0.6581 H   0  0  0  0  0  0  0  0  0  0  0  0
   -0.6849    0.9080    2.1823 H   0  0  0  0  0  0  0  0  0  0  0  0
    0.7460   -0.0955    2.3921 H   0  0  0  0  0  0  0  0  0  0  0  0
    1.9860    1.2676    0.7538 H   0  0  0  0  0  0  0  0  0  0  0  0
    1.1428    2.4718    1.7212 H   0  0  0  0  0  0  0  0  0  0  0  0
   -0.6849    2.5851    0.0949 H   0  0  0  0  0  0  0  0  0  0  0  0
    0.7460    2.5738   -0.9303 H   0  0  0  0  0  0  0  0  0  0  0  0
   -1.2657    0.7048   -1.1994 H   0  0  0  0  0  0  0  0  0  0  0  0
    0.4092    0.2284   -2.8141 H   0  0  0  0  0  0  0  0  0  0  0  0
    1.7016    0.4095   -1.6345 H   0  0  0  0  0  0  0  0  0  0  0  0
  1  2  1  0
  1  3  1  0
  1  4  1  0
  1 17  1  0
  5 12  1  0
  5  6  1  0
  5 13  1  0
  5 14  1  0
  6  7  1  0
  6 15  1  0
  6 16  1  0
  7  8  1  0
  7 11  1  0
  8  9  1  0
  8 18  1  0
  8 19  1  0
  9 10  1  0
  9 20  1  0
  9 21  1  0
 10 11  1  0
 10 22  1  0
 10 23  1  0
 11 12  1  0
 11 24  1  0
 12 25  1  0
 12 26  1  0
M  RAD  1   7   2
M  END
>  <reaction>  (10) 
rxn_555

>  <mol_properties>  (10) 
{"0": {"label": "*3", "atom_type": "Cs"}, "1": {"label": "*4", "atom_type": "H0"}, "6": {"label": "*1", "atom_type": "Cs"}, "10": {"label": "*0", "atom_type": "Cs"}, "16": {"label": "*2", "atom_type": "H0"}}

>  <type>  (10) 
unop_6

>  <geom_source>  (10) 
Heuristics

$$$$

     RDKit          3D

 26 26  0  0  0  0  0  0  0  0999 V2000
   -2.6568   -1.3387    0.8549 C   0  0  0  0  0  0  0  0  0  0  0  0
   -3.3603   -0.8795    0.1621 H   0  0  0  0  0  0  0  0  0  0  0  0
   -2.4926   -0.6724    1.7004 H   0  0  0  0  0  0  0  0  0  0  0  0
   -3.2179   -2.2333    1.1205 H   0  0  0  0  0  0  0  0  0  0  0  0
    0.6944   -1.4817   -1.4569 C   0  0  0  0  0  0  0  0  0  0  0  0
    0.6944   -1.4817    0.0696 C   0  0  0  0  0  0  0  0  0  0  0  0
   -0.2689   -0.3470    0.4579 C   0  0  0  0  0  3  0  0  0  0  0  0
    0.1838    0.4916    1.6624 C   0  0  0  0  0  0  0  0  0  0  0  0
    0.9958    1.6298    1.0430 C   0  0  0  0  0  0  0  0  0  0  0  0
    0.1838    1.9894   -0.2019 C   0  0  0  0  0  0  0  0  0  0  0  0
   -0.2689    0.6326   -0.7613 C   0  0  0  0  0  0  0  0  0  0  0  0
    0.6944    0.0089   -1.7857 C   0  0  0  0  0  0  0  0  0  0  0  0
    1.5393   -2.0199   -1.8893 H   0  0  0  0  0  0  0  0  0  0  0  0
   -0.2214   -1.9485   -1.8319 H   0  0  0  0  0  0  0  0  0  0  0  0
    0.4101   -2.4401    0.5062 H   0  0  0  0  0  0  0  0  0  0  0  0
    1.7026   -1.2491    0.4289 H   0  0  0  0  0  0  0  0  0  0  0  0
   -1.4640   -0.8433    0.6566 H   0  0  0  0  0  0  0  0  0  0  0  0
   -0.6840    0.9084    2.1808 H   0  0  0  0  0  0  0  0  0  0  0  0
    0.7469   -0.0951    2.3906 H   0  0  0  0  0  0  0  0  0  0  0  0
    1.9869    1.2680    0.7523 H   0  0  0  0  0  0  0  0  0  0  0  0
    1.1437    2.4721    1.7197 H   0  0  0  0  0  0  0  0  0  0  0  0
   -0.6840    2.5855    0.0934 H   0  0  0  0  0  0  0  0  0  0  0  0
    0.7469    2.5742   -0.9318 H   0  0  0  0  0  0  0  0  0  0  0  0
   -1.2648    0.7052   -1.2009 H   0  0  0  0  0  0  0  0  0  0  0  0
    0.4101    0.2288   -2.8156 H   0  0  0  0  0  0  0  0  0  0  0  0
    1.7026    0.4098   -1.6360 H   0  0  0  0  0  0  0  0  0  0  0  0
  1  2  1  0
  1  3  1  0
  1  4  1  0
  1 17  1  0
  5 12  1  0
  5  6  1  0
  5 13  1  0
  5 14  1  0
  6  7  1  0
  6 15  1  0
  6 16  1  0
  7  8  1  0
  7 11  1  0
  8  9  1  0
  8 18  1  0
  8 19  1  0
  9 10  1  0
  9 20  1  0
  9 21  1  0
 10 11  1  0
 10 22  1  0
 10 23  1  0
 11 12  1  0
 11 24  1  0
 12 25  1  0
 12 26  1  0
M  RAD  1   7   2
M  END
>  <reaction>  (11) 
rxn_555

>  <mol_properties>  (11) 
{"0": {"label": "*3", "atom_type": "Cs"}, "1": {"label": "*4", "atom_type": "H0"}, "6": {"label": "*1", "atom_type": "Cs"}, "10": {"label": "*0", "atom_type": "Cs"}, "16": {"label": "*2", "atom_type": "H0"}}

>  <type>  (11) 
unop_7

>  <geom_source>  (11) 
Heuristics

$$$$

     RDKit          3D

 26 26  0  0  0  0  0  0  0  0999 V2000
   -2.6578   -1.3388    0.8559 C   0  0  0  0  0  0  0  0  0  0  0  0
   -2.7632   -1.6237    1.9016 H   0  0  0  0  0  0  0  0  0  0  0  0
   -3.3920   -1.8761    0.2575 H   0  0  0  0  0  0  0  0  0  0  0  0
   -2.7982   -0.2708    0.6966 H   0  0  0  0  0  0  0  0  0  0  0  0
    0.6934   -1.4818   -1.4558 C   0  0  0  0  0  0  0  0  0  0  0  0
    0.6934   -1.4818    0.0706 C   0  0  0  0  0  0  0  0  0  0  0  0
   -0.2699   -0.3471    0.4590 C   0  0  0  0  0  3  0  0  0  0  0  0
    0.1828    0.4915    1.6634 C   0  0  0  0  0  0  0  0  0  0  0  0
    0.9948    1.6297    1.0440 C   0  0  0  0  0  0  0  0  0  0  0  0
    0.1828    1.9893   -0.2009 C   0  0  0  0  0  0  0  0  0  0  0  0
   -0.2699    0.6325   -0.7603 C   0  0  0  0  0  0  0  0  0  0  0  0
    0.6934    0.0088   -1.7847 C   0  0  0  0  0  0  0  0  0  0  0  0
    1.5383   -2.0200   -1.8882 H   0  0  0  0  0  0  0  0  0  0  0  0
   -0.2224   -1.9487   -1.8309 H   0  0  0  0  0  0  0  0  0  0  0  0
    0.4091   -2.4402    0.5072 H   0  0  0  0  0  0  0  0  0  0  0  0
    1.7016   -1.2493    0.4299 H   0  0  0  0  0  0  0  0  0  0  0  0
   -1.4650   -0.8434    0.6576 H   0  0  0  0  0  0  0  0  0  0  0  0
   -0.6850    0.9083    2.1818 H   0  0  0  0  0  0  0  0  0  0  0  0
    0.7459   -0.0952    2.3917 H   0  0  0  0  0  0  0  0  0  0  0  0
    1.9859    1.2678    0.7533 H   0  0  0  0  0  0  0  0  0  0  0  0
    1.1428    2.4720    1.7208 H   0  0  0  0  0  0  0  0  0  0  0  0
   -0.6850    2.5853    0.0945 H   0  0  0  0  0  0  0  0  0  0  0  0
    0.7459    2.5741   -0.9307 H   0  0  0  0  0  0  0  0  0  0  0  0
   -1.2658    0.7050   -1.1998 H   0  0  0  0  0  0  0  0  0  0  0  0
    0.4091    0.2286   -2.8146 H   0  0  0  0  0  0  0  0  0  0  0  0
    1.7016    0.4097   -1.6350 H   0  0  0  0  0  0  0  0  0  0  0  0
  1  2  1  0
  1  3  1  0
  1  4  1  0
  1 17  1  0
  5 12  1  0
  5  6  1  0
  5 13  1  0
  5 14  1  0
  6  7  1  0
  6 15  1  0
  6 16  1  0
  7  8  1  0
  7 11  1  0
  8  9  1  0
  8 18  1  0
  8 19  1  0
  9 10  1  0
  9 20  1  0
  9 21  1  0
 10 11  1  0
 10 22  1  0
 10 23  1  0
 11 12  1  0
 11 24  1  0
 12 25  1  0
 12 26  1  0
M  RAD  1   7   2
M  END
>  <reaction>  (12) 
rxn_555

>  <mol_properties>  (12) 
{"0": {"label": "*3", "atom_type": "Cs"}, "1": {"label": "*4", "atom_type": "H0"}, "6": {"label": "*1", "atom_type": "Cs"}, "10": {"label": "*0", "atom_type": "Cs"}, "16": {"label": "*2", "atom_type": "H0"}}

>  <type>  (12) 
unop_8

>  <geom_source>  (12) 
Heuristics

$$$$

     RDKit          3D

 26 26  0  0  0  0  0  0  0  0999 V2000
   -2.6601   -1.3385    0.8584 C   0  0  0  0  0  0  0  0  0  0  0  0
   -2.7985   -2.2152    0.2275 H   0  0  0  0  0  0  0  0  0  0  0  0
   -3.1721   -0.4866    0.4134 H   0  0  0  0  0  0  0  0  0  0  0  0
   -2.7014   -1.1127    1.9228 H   0  0  0  0  0  0  0  0  0  0  0  0
    0.6911   -1.4815   -1.4534 C   0  0  0  0  0  0  0  0  0  0  0  0
    0.6911   -1.4815    0.0730 C   0  0  0  0  0  0  0  0  0  0  0  0
   -0.2722   -0.3467    0.4614 C   0  0  0  0  0  3  0  0  0  0  0  0
    0.1805    0.4919    1.6658 C   0  0  0  0  0  0  0  0  0  0  0  0
    0.9925    1.6300    1.0465 C   0  0  0  0  0  0  0  0  0  0  0  0
    0.1805    1.9897   -0.1985 C   0  0  0  0  0  0  0  0  0  0  0  0
   -0.2722    0.6328   -0.7578 C   0  0  0  0  0  0  0  0  0  0  0  0
    0.6911    0.0091   -1.7823 C   0  0  0  0  0  0  0  0  0  0  0  0
    1.5360   -2.0197   -1.8858 H   0  0  0  0  0  0  0  0  0  0  0  0
   -0.2247   -1.9483   -1.8285 H   0  0  0  0  0  0  0  0  0  0  0  0
    0.4068   -2.4398    0.5096 H   0  0  0  0  0  0  0  0  0  0  0  0
    1.6993   -1.2489    0.4323 H   0  0  0  0  0  0  0  0  0  0  0  0
   -1.4673   -0.8431    0.6601 H   0  0  0  0  0  0  0  0  0  0  0  0
   -0.6873    0.9087    2.1843 H   0  0  0  0  0  0  0  0  0  0  0  0
    0.7436   -0.0949    2.3941 H   0  0  0  0  0  0  0  0  0  0  0  0
    1.9836    1.2682    0.7557 H   0  0  0  0  0  0  0  0  0  0  0  0
    1.1404    2.4724    1.7232 H   0  0  0  0  0  0  0  0  0  0  0  0
   -0.6873    2.5857    0.0969 H   0  0  0  0  0  0  0  0  0  0  0  0
    0.7436    2.5744   -0.9283 H   0  0  0  0  0  0  0  0  0  0  0  0
   -1.2681    0.7054   -1.1974 H   0  0  0  0  0  0  0  0  0  0  0  0
    0.4068    0.2290   -2.8122 H   0  0  0  0  0  0  0  0  0  0  0  0
    1.6993    0.4101   -1.6326 H   0  0  0  0  0  0  0  0  0  0  0  0
  1  2  1  0
  1  3  1  0
  1  4  1  0
  1 17  1  0
  5 12  1  0
  5  6  1  0
  5 13  1  0
  5 14  1  0
  6  7  1  0
  6 15  1  0
  6 16  1  0
  7  8  1  0
  7 11  1  0
  8  9  1  0
  8 18  1  0
  8 19  1  0
  9 10  1  0
  9 20  1  0
  9 21  1  0
 10 11  1  0
 10 22  1  0
 10 23  1  0
 11 12  1  0
 11 24  1  0
 12 25  1  0
 12 26  1  0
M  RAD  1   7   2
M  END
>  <reaction>  (13) 
rxn_555

>  <mol_properties>  (13) 
{"0": {"label": "*3", "atom_type": "Cs"}, "1": {"label": "*4", "atom_type": "H0"}, "6": {"label": "*1", "atom_type": "Cs"}, "10": {"label": "*0", "atom_type": "Cs"}, "16": {"label": "*2", "atom_type": "H0"}}

>  <type>  (13) 
unop_9

>  <geom_source>  (13) 
Heuristics

$$$$

     RDKit          3D

 26 26  0  0  0  0  0  0  0  0999 V2000
   -2.6590   -1.3376    0.8564 C   0  0  0  0  0  0  0  0  0  0  0  0
   -2.6181   -2.0720    1.6593 H   0  0  0  0  0  0  0  0  0  0  0  0
   -3.4690   -1.5905    0.1740 H   0  0  0  0  0  0  0  0  0  0  0  0
   -2.7219   -0.2567    0.9725 H   0  0  0  0  0  0  0  0  0  0  0  0
    0.6922   -1.4806   -1.4554 C   0  0  0  0  0  0  0  0  0  0  0  0
    0.6922   -1.4806    0.0710 C   0  0  0  0  0  0  0  0  0  0  0  0
   -0.2711   -0.3459    0.4594 C   0  0  0  0  0  3  0  0  0  0  0  0
    0.1816    0.4927    1.6638 C   0  0  0  0  0  0  0  0  0  0  0  0
    0.9936    1.6309    1.0445 C   0  0  0  0  0  0  0  0  0  0  0  0
    0.1816    1.9905   -0.2004 C   0  0  0  0  0  0  0  0  0  0  0  0
   -0.2711    0.6337   -0.7598 C   0  0  0  0  0  0  0  0  0  0  0  0
    0.6922    0.0100   -1.7843 C   0  0  0  0  0  0  0  0  0  0  0  0
    1.5371   -2.0188   -1.8878 H   0  0  0  0  0  0  0  0  0  0  0  0
   -0.2236   -1.9474   -1.8305 H   0  0  0  0  0  0  0  0  0  0  0  0
    0.4079   -2.4390    0.5076 H   0  0  0  0  0  0  0  0  0  0  0  0
    1.7004   -1.2480    0.4303 H   0  0  0  0  0  0  0  0  0  0  0  0
   -1.4662   -0.8422    0.6581 H   0  0  0  0  0  0  0  0  0  0  0  0
   -0.6862    0.9095    2.1823 H   0  0  0  0  0  0  0  0  0  0  0  0
    0.7447   -0.0940    2.3921 H   0  0  0  0  0  0  0  0  0  0  0  0
    1.9848    1.2691    0.7537 H   0  0  0  0  0  0  0  0  0  0  0  0
    1.1416    2.4732    1.7212 H   0  0  0  0  0  0  0  0  0  0  0  0
   -0.6862    2.5866    0.0949 H   0  0  0  0  0  0  0  0  0  0  0  0
    0.7447    2.5753   -0.9303 H   0  0  0  0  0  0  0  0  0  0  0  0
   -1.2670    0.7063   -1.1994 H   0  0  0  0  0  0  0  0  0  0  0  0
    0.4079    0.2299   -2.8142 H   0  0  0  0  0  0  0  0  0  0  0  0
    1.7004    0.4109   -1.6346 H   0  0  0  0  0  0  0  0  0  0  0  0
  1  2  1  0
  1  3  1  0
  1  4  1  0
  1 17  1  0
  5 12  1  0
  5  6  1  0
  5 13  1  0
  5 14  1  0
  6  7  1  0
  6 15  1  0
  6 16  1  0
  7  8  1  0
  7 11  1  0
  8  9  1  0
  8 18  1  0
  8 19  1  0
  9 10  1  0
  9 20  1  0
  9 21  1  0
 10 11  1  0
 10 22  1  0
 10 23  1  0
 11 12  1  0
 11 24  1  0
 12 25  1  0
 12 26  1  0
M  RAD  1   7   2
M  END
>  <reaction>  (14) 
rxn_555

>  <mol_properties>  (14) 
{"0": {"label": "*3", "atom_type": "Cs"}, "1": {"label": "*4", "atom_type": "H0"}, "6": {"label": "*1", "atom_type": "Cs"}, "10": {"label": "*0", "atom_type": "Cs"}, "16": {"label": "*2", "atom_type": "H0"}}

>  <type>  (14) 
unop_10

>  <geom_source>  (14) 
Heuristics

$$$$

     RDKit          3D

 26 26  0  0  0  0  0  0  0  0999 V2000
   -2.6560   -1.3370    0.8542 C   0  0  0  0  0  0  0  0  0  0  0  0
   -3.4062   -0.5882    0.6045 H   0  0  0  0  0  0  0  0  0  0  0  0
   -2.4139   -1.2691    1.9137 H   0  0  0  0  0  0  0  0  0  0  0  0
   -3.3410   -2.1286    0.5540 H   0  0  0  0  0  0  0  0  0  0  0  0
    0.6951   -1.4800   -1.4576 C   0  0  0  0  0  0  0  0  0  0  0  0
    0.6951   -1.4800    0.0688 C   0  0  0  0  0  0  0  0  0  0  0  0
   -0.2682   -0.3453    0.4572 C   0  0  0  0  0  3  0  0  0  0  0  0
    0.1846    0.4933    1.6616 C   0  0  0  0  0  0  0  0  0  0  0  0
    0.9965    1.6315    1.0423 C   0  0  0  0  0  0  0  0  0  0  0  0
    0.1846    1.9911   -0.2026 C   0  0  0  0  0  0  0  0  0  0  0  0
   -0.2682    0.6343   -0.7620 C   0  0  0  0  0  0  0  0  0  0  0  0
    0.6951    0.0105   -1.7865 C   0  0  0  0  0  0  0  0  0  0  0  0
    1.5400   -2.0182   -1.8900 H   0  0  0  0  0  0  0  0  0  0  0  0
   -0.2207   -1.9469   -1.8327 H   0  0  0  0  0  0  0  0  0  0  0  0
    0.4108   -2.4384    0.5054 H   0  0  0  0  0  0  0  0  0  0  0  0
    1.7033   -1.2475    0.4281 H   0  0  0  0  0  0  0  0  0  0  0  0
   -1.4632   -0.8416    0.6559 H   0  0  0  0  0  0  0  0  0  0  0  0
   -0.6833    0.9101    2.1801 H   0  0  0  0  0  0  0  0  0  0  0  0
    0.7476   -0.0935    2.3899 H   0  0  0  0  0  0  0  0  0  0  0  0
    1.9877    1.2696    0.7515 H   0  0  0  0  0  0  0  0  0  0  0  0
    1.1445    2.4738    1.7190 H   0  0  0  0  0  0  0  0  0  0  0  0
   -0.6833    2.5871    0.0927 H   0  0  0  0  0  0  0  0  0  0  0  0
    0.7476    2.5758   -0.9325 H   0  0  0  0  0  0  0  0  0  0  0  0
   -1.2641    0.7068   -1.2016 H   0  0  0  0  0  0  0  0  0  0  0  0
    0.4108    0.2304   -2.8164 H   0  0  0  0  0  0  0  0  0  0  0  0
    1.7033    0.4115   -1.6368 H   0  0  0  0  0  0  0  0  0  0  0  0
  1  2  1  0
  1  3  1  0
  1  4  1  0
  1 17  1  0
  5 12  1  0
  5  6  1  0
  5 13  1  0
  5 14  1  0
  6  7  1  0
  6 15  1  0
  6 16  1  0
  7  8  1  0
  7 11  1  0
  8  9  1  0
  8 18  1  0
  8 19  1  0
  9 10  1  0
  9 20  1  0
  9 21  1  0
 10 11  1  0
 10 22  1  0
 10 23  1  0
 11 12  1  0
 11 24  1  0
 12 25  1  0
 12 26  1  0
M  RAD  1   7   2
M  END
>  <reaction>  (15) 
rxn_555

>  <mol_properties>  (15) 
{"0": {"label": "*3", "atom_type": "Cs"}, "1": {"label": "*4", "atom_type": "H0"}, "6": {"label": "*1", "atom_type": "Cs"}, "10": {"label": "*0", "atom_type": "Cs"}, "16": {"label": "*2", "atom_type": "H0"}}

>  <type>  (15) 
unop_11

>  <geom_source>  (15) 
Heuristics

$$$$

     RDKit          3D

 26 26  0  0  0  0  0  0  0  0999 V2000
   -2.6604   -1.3377    0.8586 C   0  0  0  0  0  0  0  0  0  0  0  0
   -2.6385   -2.4138    0.6936 H   0  0  0  0  0  0  0  0  0  0  0  0
   -3.3639   -0.8785    0.1659 H   0  0  0  0  0  0  0  0  0  0  0  0
   -2.6334   -0.6126    1.6706 H   0  0  0  0  0  0  0  0  0  0  0  0
    0.6908   -1.4807   -1.4531 C   0  0  0  0  0  0  0  0  0  0  0  0
    0.6908   -1.4807    0.0733 C   0  0  0  0  0  0  0  0  0  0  0  0
   -0.2725   -0.3460    0.4617 C   0  0  0  0  0  3  0  0  0  0  0  0
    0.1802    0.4926    1.6661 C   0  0  0  0  0  0  0  0  0  0  0  0
    0.9922    1.6308    1.0467 C   0  0  0  0  0  0  0  0  0  0  0  0
    0.1802    1.9904   -0.1982 C   0  0  0  0  0  0  0  0  0  0  0  0
   -0.2725    0.6336   -0.7576 C   0  0  0  0  0  0  0  0  0  0  0  0
    0.6908    0.0099   -1.7820 C   0  0  0  0  0  0  0  0  0  0  0  0
    1.5357   -2.0189   -1.8855 H   0  0  0  0  0  0  0  0  0  0  0  0
   -0.2250   -1.9476   -1.8282 H   0  0  0  0  0  0  0  0  0  0  0  0
    0.4065   -2.4391    0.5099 H   0  0  0  0  0  0  0  0  0  0  0  0
    1.6990   -1.2481    0.4326 H   0  0  0  0  0  0  0  0  0  0  0  0
   -1.4676   -0.8423    0.6603 H   0  0  0  0  0  0  0  0  0  0  0  0
   -0.6876    0.9094    2.1845 H   0  0  0  0  0  0  0  0  0  0  0  0
    0.7433   -0.0941    2.3944 H   0  0  0  0  0  0  0  0  0  0  0  0
    1.9833    1.2689    0.7560 H   0  0  0  0  0  0  0  0  0  0  0  0
    1.1401    2.4731    1.7235 H   0  0  0  0  0  0  0  0  0  0  0  0
   -0.6876    2.5865    0.0972 H   0  0  0  0  0  0  0  0  0  0  0  0
    0.7433    2.5752   -0.9280 H   0  0  0  0  0  0  0  0  0  0  0  0
   -1.2684    0.7061   -1.1971 H   0  0  0  0  0  0  0  0  0  0  0  0
    0.4065    0.2297   -2.8119 H   0  0  0  0  0  0  0  0  0  0  0  0
    1.6990    0.4108   -1.6323 H   0  0  0  0  0  0  0  0  0  0  0  0
  1  2  1  0
  1  3  1  0
  1  4  1  0
  1 17  1  0
  5 12  1  0
  5  6  1  0
  5 13  1  0
  5 14  1  0
  6  7  1  0
  6 15  1  0
  6 16  1  0
  7  8  1  0
  7 11  1  0
  8  9  1  0
  8 18  1  0
  8 19  1  0
  9 10  1  0
  9 20  1  0
  9 21  1  0
 10 11  1  0
 10 22  1  0
 10 23  1  0
 11 12  1  0
 11 24  1  0
 12 25  1  0
 12 26  1  0
M  RAD  1   7   2
M  END
>  <reaction>  (16) 
rxn_555

>  <mol_properties>  (16) 
{"0": {"label": "*3", "atom_type": "Cs"}, "1": {"label": "*4", "atom_type": "H0"}, "6": {"label": "*1", "atom_type": "Cs"}, "10": {"label": "*0", "atom_type": "Cs"}, "16": {"label": "*2", "atom_type": "H0"}}

>  <type>  (16) 
unop_12

>  <geom_source>  (16) 
Heuristics

$$$$

     RDKit          3D

 26 26  0  0  0  0  0  0  0  0999 V2000
   -0.7037    0.2226    0.7464 C   0  0  0  0  0  0  0  0  0  0  0  0
   -1.4405   -1.1094    0.5722 C   0  0  0  0  0  0  0  0  0  0  0  0
   -1.5580    1.4683    0.4902 C   0  0  0  0  0  0  0  0  0  0  0  0
   -0.4695   -2.0102   -0.1732 C   0  0  0  0  0  0  0  0  0  0  0  0
   -0.6707    2.4046   -0.3137 C   0  0  0  0  0  0  0  0  0  0  0  0
    0.3504   -1.0782   -1.0497 C   0  0  0  0  0  0  0  0  0  0  0  0
    0.2330    1.4972   -1.1316 C   0  0  0  0  0  0  0  0  0  0  0  0
    2.5136   -0.8391    0.8196 C   0  0  0  0  0  0  0  0  0  0  0  0
    0.4179    0.2410   -0.2803 C   0  0  0  0  0  3  0  0  0  0  0  0
   -0.2459    0.2756    1.7589 H   0  0  0  0  0  0  0  0  0  0  0  0
   -2.3622   -0.9971   -0.0394 H   0  0  0  0  0  0  0  0  0  0  0  0
   -1.7150   -1.5474    1.5562 H   0  0  0  0  0  0  0  0  0  0  0  0
    0.1985   -2.5218    0.5550 H   0  0  0  0  0  0  0  0  0  0  0  0
   -1.0046   -2.7734   -0.7790 H   0  0  0  0  0  0  0  0  0  0  0  0
   -2.4639    1.2342   -0.1104 H   0  0  0  0  0  0  0  0  0  0  0  0
   -1.8740    1.9410    1.4453 H   0  0  0  0  0  0  0  0  0  0  0  0
   -1.2713    3.0760   -0.9651 H   0  0  0  0  0  0  0  0  0  0  0  0
   -0.0541    3.0199    0.3787 H   0  0  0  0  0  0  0  0  0  0  0  0
    1.3716   -1.4817   -1.2150 H   0  0  0  0  0  0  0  0  0  0  0  0
   -0.1609   -0.9639   -2.0305 H   0  0  0  0  0  0  0  0  0  0  0  0
    1.2138    1.9806   -1.3251 H   0  0  0  0  0  0  0  0  0  0  0  0
   -0.2630    1.2749   -2.1017 H   0  0  0  0  0  0  0  0  0  0  0  0
    2.0508   -1.0829    1.7979 H   0  0  0  0  0  0  0  0  0  0  0  0
    3.0064   -1.7437    0.4079 H   0  0  0  0  0  0  0  0  0  0  0  0
    3.2679   -0.0372    0.9570 H   0  0  0  0  0  0  0  0  0  0  0  0
    1.6333   -0.4499    0.0295 H   0  0  0  0  0  0  0  0  0  0  0  0
  1  2  1  0
  1  3  1  0
  1  9  1  0
  1 10  1  0
  2  4  1  0
  2 11  1  0
  2 12  1  0
  3  5  1  0
  3 15  1  0
  3 16  1  0
  4  6  1  0
  4 13  1  0
  4 14  1  0
  5  7  1  0
  5 17  1  0
  5 18  1  0
  6  9  1  0
  6 19  1  0
  6 20  1  0
  7  9  1  0
  7 21  1  0
  7 22  1  0
  8 23  1  0
  8 24  1  0
  8 25  1  0
  8 26  1  0
M  RAD  1   9   2
M  END
>  <reaction>  (17) 
rxn_555

>  <mol_properties>  (17) 
{"0": {"label": "*3", "atom_type": "Cs"}, "1": {"label": "*4", "atom_type": "H0"}, "6": {"label": "*1", "atom_type": "Cs"}, "10": {"label": "*0", "atom_type": "Cs"}, "16": {"label": "*2", "atom_type": "H0"}}

>  <type>  (17) 
unop_13

>  <geom_source>  (17) 
AutoTST

$$$$
