
     RDKit          3D

 19 20  0  0  0  0  0  0  0  0999 V2000
    1.1087   -0.4716   -0.9619 C   0  0  0  0  0  0  0  0  0  0  0  0
    0.9355    1.0407   -0.6470 C   0  0  0  0  0  0  0  0  0  0  0  0
   -0.0085    1.0377    0.5657 C   0  0  0  0  0  0  0  0  0  0  0  0
   -1.4093    0.6181    0.0927 C   0  0  0  0  0  0  0  0  0  0  0  0
   -1.2361   -0.8942   -0.2222 C   0  0  0  0  0  0  0  0  0  0  0  0
    0.2422   -1.1516    0.1099 C   0  0  0  0  0  0  0  0  0  0  0  0
    0.4537   -0.2211    1.3118 C   0  0  0  0  0  0  0  0  0  0  0  0
    2.1524   -0.7752   -0.8653 H   0  0  0  0  0  0  0  0  0  0  0  0
    0.7855   -0.7316   -1.9710 H   0  0  0  0  0  0  0  0  0  0  0  0
    1.8918    1.5001   -0.3916 H   0  0  0  0  0  0  0  0  0  0  0  0
    0.5184    1.6005   -1.4855 H   0  0  0  0  0  0  0  0  0  0  0  0
    0.0038    1.9661    1.1351 H   0  0  0  0  0  0  0  0  0  0  0  0
   -1.7351    1.1944   -0.7746 H   0  0  0  0  0  0  0  0  0  0  0  0
   -2.1465    0.7723    0.8824 H   0  0  0  0  0  0  0  0  0  0  0  0
   -1.4680   -1.1377   -1.2601 H   0  0  0  0  0  0  0  0  0  0  0  0
   -1.8859   -1.5030    0.4087 H   0  0  0  0  0  0  0  0  0  0  0  0
    0.4812   -2.2025    0.2673 H   0  0  0  0  0  0  0  0  0  0  0  0
    1.4942   -0.1701    1.6391 H   0  0  0  0  0  0  0  0  0  0  0  0
   -0.1779   -0.4714    2.1666 H   0  0  0  0  0  0  0  0  0  0  0  0
  1  2  1  0
  1  6  1  0
  1  8  1  0
  1  9  1  0
  2  3  1  0
  2 10  1  0
  2 11  1  0
  3  4  1  0
  3  7  1  0
  3 12  1  0
  4  5  1  0
  4 13  1  0
  4 14  1  0
  5  6  1  0
  5 15  1  0
  5 16  1  0
  6  7  1  0
  6 17  1  0
  7 18  1  0
  7 19  1  0
M  END
>  <reaction>  (1) 
rxn_551

>  <mol_properties>  (1) 
{"6": {"label": "donator", "atom_type": "Cs"}, "17": {"label": "d_hydrogen", "atom_type": "H0"}}

>  <type>  (1) 
r1h

$$$$

     RDKit          3D

  8  7  0  0  0  0  0  0  0  0999 V2000
    1.4038   -0.4003    0.0140 C   0  0  0  0  0  0  0  0  0  0  0  0
    0.2804    0.0563    0.4920 C   0  0  0  0  0  3  0  0  0  0  0  0
   -1.0935    0.3323    0.0625 C   0  0  0  0  0  0  0  0  0  0  0  0
    1.4898   -0.7154   -1.0285 H   0  0  0  0  0  0  0  0  0  0  0  0
    2.2990   -0.4891    0.6210 H   0  0  0  0  0  0  0  0  0  0  0  0
   -1.3399    1.3883    0.1900 H   0  0  0  0  0  0  0  0  0  0  0  0
   -1.2285    0.0762   -0.9967 H   0  0  0  0  0  0  0  0  0  0  0  0
   -1.8111   -0.2482    0.6457 H   0  0  0  0  0  0  0  0  0  0  0  0
  1  2  2  3
  1  4  1  0
  1  5  1  0
  2  3  1  0
  3  6  1  0
  3  7  1  0
  3  8  1  0
M  RAD  1   2   2
M  END
>  <reaction>  (2) 
rxn_551

>  <mol_properties>  (2) 
{"1": {"label": "acceptor", "atom_type": "Cd"}}

>  <type>  (2) 
r2

$$$$

     RDKit          3D

  9  8  0  0  0  0  0  0  0  0999 V2000
    1.1303   -0.2933   -0.7510 C   0  0  0  0  0  0  0  0  0  0  0  0
    0.2866    0.4560   -0.0588 C   0  0  0  0  0  0  0  0  0  0  0  0
   -0.9719   -0.0331    0.5823 C   0  0  0  0  0  0  0  0  0  0  0  0
    2.0274    0.1230   -1.1916 H   0  0  0  0  0  0  0  0  0  0  0  0
    0.9532   -1.3530   -0.9023 H   0  0  0  0  0  0  0  0  0  0  0  0
    0.5065    1.5132    0.0659 H   0  0  0  0  0  0  0  0  0  0  0  0
   -0.9526    0.1426    1.6610 H   0  0  0  0  0  0  0  0  0  0  0  0
   -1.1182   -1.1002    0.4106 H   0  0  0  0  0  0  0  0  0  0  0  0
   -1.8412    0.5010    0.1901 H   0  0  0  0  0  0  0  0  0  0  0  0
  1  2  2  3
  1  4  1  0
  1  5  1  0
  2  3  1  0
  2  6  1  0
  3  7  1  0
  3  8  1  0
  3  9  1  0
M  END
>  <reaction>  (3) 
rxn_551

>  <mol_properties>  (3) 
{"1": {"label": "acceptor", "atom_type": "Cd"}, "8": {"label": "a_hydrogen", "atom_type": "H0"}}

>  <type>  (3) 
r2h

$$$$

     RDKit          3D

 27 27  0  0  0  0  0  0  0  0999 V2000
   -2.8225   -0.6264    1.2250 C   0  0  0  0  0  0  0  0  0  0  0  0
   -2.3840   -0.0777    0.1129 C   0  0  0  0  0  3  0  0  0  0  0  0
   -3.0300    0.0600   -1.2143 C   0  0  0  0  0  0  0  0  0  0  0  0
   -3.8103   -1.0799    1.2901 H   0  0  0  0  0  0  0  0  0  0  0  0
   -2.2157   -0.6466    2.1241 H   0  0  0  0  0  0  0  0  0  0  0  0
   -2.4288   -0.4231   -1.9889 H   0  0  0  0  0  0  0  0  0  0  0  0
   -4.0281   -0.3879   -1.2236 H   0  0  0  0  0  0  0  0  0  0  0  0
   -3.1224    1.1126   -1.4928 H   0  0  0  0  0  0  0  0  0  0  0  0
    0.7906   -1.0717   -0.9010 C   0  0  0  0  0  0  0  0  0  0  0  0
    0.8863   -1.2725    0.6368 C   0  0  0  0  0  0  0  0  0  0  0  0
    0.9715    0.1667    1.1727 C   0  0  1  0  0  0  0  0  0  0  0  0
    2.3618    0.7316    0.8176 C   0  0  0  0  0  0  0  0  0  0  0  0
    2.2805    0.9238   -0.7243 C   0  0  0  0  0  0  0  0  0  0  0  0
    0.8497    0.4566   -1.0598 C   0  0  2  0  0  0  0  0  0  0  0  0
    0.0980    0.9205    0.1800 C   0  0  0  0  0  0  0  0  0  0  0  0
   -0.1534   -1.4638   -1.2830 H   0  0  0  0  0  0  0  0  0  0  0  0
    1.5967   -1.5673   -1.4438 H   0  0  0  0  0  0  0  0  0  0  0  0
   -0.0029   -1.7756    1.0170 H   0  0  0  0  0  0  0  0  0  0  0  0
    1.7548   -1.8637    0.9306 H   0  0  0  0  0  0  0  0  0  0  0  0
    0.7111    0.2670    2.2251 H   0  0  0  0  0  0  0  0  0  0  0  0
    3.1627    0.0530    1.1167 H   0  0  0  0  0  0  0  0  0  0  0  0
    2.5325    1.6836    1.3225 H   0  0  0  0  0  0  0  0  0  0  0  0
    3.0321    0.3429   -1.2619 H   0  0  0  0  0  0  0  0  0  0  0  0
    2.4190    1.9710   -0.9967 H   0  0  0  0  0  0  0  0  0  0  0  0
    0.4807    0.8197   -2.0179 H   0  0  0  0  0  0  0  0  0  0  0  0
   -1.1355    0.4497    0.1663 H   0  0  0  0  0  0  0  0  0  0  0  0
   -0.0015    1.9965    0.3262 H   0  0  0  0  0  0  0  0  0  0  0  0
  1  2  2  3
  1  4  1  0
  1  5  1  0
  2  3  1  0
  3  6  1  0
  3  7  1  0
  3  8  1  0
  9 10  1  0
  9 14  1  0
  9 16  1  0
  9 17  1  0
 10 11  1  0
 10 18  1  0
 10 19  1  0
 11 12  1  0
 11 15  1  0
 11 20  1  1
 12 13  1  0
 12 21  1  0
 12 22  1  0
 13 14  1  0
 13 23  1  0
 13 24  1  0
 14 15  1  0
 14 25  1  6
 15 26  1  0
 15 27  1  0
M  RAD  1   2   2
M  END
>  <reaction>  (4) 
rxn_551

>  <mol_properties>  (4) 
{"0": {"label": "*4", "atom_type": "Cd"}, "1": {"label": "*3", "atom_type": "Cd"}, "10": {"label": "*0", "atom_type": "Cs"}, "14": {"label": "*1", "atom_type": "Cs"}, "25": {"label": "*2", "atom_type": "H0"}}

>  <type>  (4) 
ts

$$$$

     RDKit          3D

 27 27  0  0  0  0  0  0  0  0999 V2000
   -3.4159    0.7614    0.2409 C   0  0  0  0  0  0  0  0  0  0  0  0
   -2.4084   -0.0852    0.0981 C   0  0  0  0  0  0  0  0  0  0  0  0
   -2.3613   -1.2085   -0.8869 C   0  0  0  0  0  0  0  0  0  0  0  0
   -4.3071    0.6894   -0.3737 H   0  0  0  0  0  0  0  0  0  0  0  0
   -3.3882    1.5562    0.9756 H   0  0  0  0  0  0  0  0  0  0  0  0
   -2.2394   -2.1677   -0.3773 H   0  0  0  0  0  0  0  0  0  0  0  0
   -3.2712   -1.2512   -1.4867 H   0  0  0  0  0  0  0  0  0  0  0  0
   -1.5088   -1.0982   -1.5621 H   0  0  0  0  0  0  0  0  0  0  0  0
    0.9025   -1.2226   -0.6791 C   0  0  0  0  0  0  0  0  0  0  0  0
    0.9025   -1.2226    0.8752 C   0  0  0  0  0  0  0  0  0  0  0  0
    0.9025    0.2743    1.2232 C   0  0  0  0  0  0  0  0  0  0  0  0
    2.2817    0.8562    0.8752 C   0  0  0  0  0  0  0  0  0  0  0  0
    2.2817    0.8562   -0.6791 C   0  0  0  0  0  0  0  0  0  0  0  0
    0.9025    0.2743   -1.0271 C   0  0  0  0  0  0  0  0  0  0  0  0
    0.0329    0.8513    0.0981 C   0  0  0  0  0  3  0  0  0  0  0  0
    0.0088   -1.7108   -1.0713 H   0  0  0  0  0  0  0  0  0  0  0  0
    1.7670   -1.7379   -1.1005 H   0  0  0  0  0  0  0  0  0  0  0  0
    0.0088   -1.7108    1.2674 H   0  0  0  0  0  0  0  0  0  0  0  0
    1.7670   -1.7379    1.2966 H   0  0  0  0  0  0  0  0  0  0  0  0
    0.5781    0.4896    2.2404 H   0  0  0  0  0  0  0  0  0  0  0  0
    3.0925    0.2600    1.2966 H   0  0  0  0  0  0  0  0  0  0  0  0
    2.3842    1.8694    1.2674 H   0  0  0  0  0  0  0  0  0  0  0  0
    3.0925    0.2600   -1.1005 H   0  0  0  0  0  0  0  0  0  0  0  0
    2.3842    1.8694   -1.0713 H   0  0  0  0  0  0  0  0  0  0  0  0
    0.5781    0.4896   -2.0443 H   0  0  0  0  0  0  0  0  0  0  0  0
   -1.1905    0.3820    0.0981 H   0  0  0  0  0  0  0  0  0  0  0  0
   -0.0030    1.9426    0.0981 H   0  0  0  0  0  0  0  0  0  0  0  0
  1  2  2  3
  1  4  1  0
  1  5  1  0
  2  3  1  0
  2 26  1  0
  3  6  1  0
  3  7  1  0
  3  8  1  0
  9 10  1  0
  9 14  1  0
  9 16  1  0
  9 17  1  0
 10 11  1  0
 10 18  1  0
 10 19  1  0
 11 12  1  0
 11 15  1  0
 11 20  1  0
 12 13  1  0
 12 21  1  0
 12 22  1  0
 13 14  1  0
 13 23  1  0
 13 24  1  0
 14 15  1  0
 14 25  1  0
 15 27  1  0
M  RAD  1  15   2
M  END
>  <reaction>  (5) 
rxn_551

>  <mol_properties>  (5) 
{"0": {"label": "*4", "atom_type": "Cd"}, "1": {"label": "*3", "atom_type": "Cd"}, "10": {"label": "*0", "atom_type": "Cs"}, "14": {"label": "*1", "atom_type": "Cs"}, "25": {"label": "*2", "atom_type": "H0"}}

>  <type>  (5) 
unop_1

>  <geom_source>  (5) 
Heuristics

$$$$

     RDKit          3D

 27 27  0  0  0  0  0  0  0  0999 V2000
   -2.9101   -0.4778    1.1717 C   0  0  0  0  0  0  0  0  0  0  0  0
   -2.3660   -0.1160    0.0204 C   0  0  0  0  0  0  0  0  0  0  0  0
   -3.1219    0.1638   -1.2384 C   0  0  0  0  0  0  0  0  0  0  0  0
   -3.9831   -0.5986    1.2774 H   0  0  0  0  0  0  0  0  0  0  0  0
   -2.3052   -0.6663    2.0497 H   0  0  0  0  0  0  0  0  0  0  0  0
   -2.7976   -0.5013   -2.0428 H   0  0  0  0  0  0  0  0  0  0  0  0
   -4.1954    0.0330   -1.0962 H   0  0  0  0  0  0  0  0  0  0  0  0
   -2.9420    1.1861   -1.5809 H   0  0  0  0  0  0  0  0  0  0  0  0
    0.9448   -1.2535   -0.7568 C   0  0  0  0  0  0  0  0  0  0  0  0
    0.9448   -1.2535    0.7976 C   0  0  0  0  0  0  0  0  0  0  0  0
    0.9448    0.2435    1.1455 C   0  0  0  0  0  0  0  0  0  0  0  0
    2.3241    0.8253    0.7976 C   0  0  0  0  0  0  0  0  0  0  0  0
    2.3241    0.8253   -0.7568 C   0  0  0  0  0  0  0  0  0  0  0  0
    0.9448    0.2435   -1.1047 C   0  0  0  0  0  0  0  0  0  0  0  0
    0.0753    0.8204    0.0204 C   0  0  0  0  0  3  0  0  0  0  0  0
    0.0511   -1.7417   -1.1489 H   0  0  0  0  0  0  0  0  0  0  0  0
    1.8093   -1.7688   -1.1781 H   0  0  0  0  0  0  0  0  0  0  0  0
    0.0511   -1.7417    1.1897 H   0  0  0  0  0  0  0  0  0  0  0  0
    1.8093   -1.7688    1.2189 H   0  0  0  0  0  0  0  0  0  0  0  0
    0.6204    0.4587    2.1627 H   0  0  0  0  0  0  0  0  0  0  0  0
    3.1349    0.2291    1.2189 H   0  0  0  0  0  0  0  0  0  0  0  0
    2.4265    1.8386    1.1897 H   0  0  0  0  0  0  0  0  0  0  0  0
    3.1349    0.2291   -1.1781 H   0  0  0  0  0  0  0  0  0  0  0  0
    2.4265    1.8386   -1.1489 H   0  0  0  0  0  0  0  0  0  0  0  0
    0.6204    0.4587   -2.1219 H   0  0  0  0  0  0  0  0  0  0  0  0
   -1.1481    0.3511    0.0204 H   0  0  0  0  0  0  0  0  0  0  0  0
    0.0393    1.9118    0.0204 H   0  0  0  0  0  0  0  0  0  0  0  0
  1  2  2  3
  1  4  1  0
  1  5  1  0
  2  3  1  0
  2 26  1  0
  3  6  1  0
  3  7  1  0
  3  8  1  0
  9 10  1  0
  9 14  1  0
  9 16  1  0
  9 17  1  0
 10 11  1  0
 10 18  1  0
 10 19  1  0
 11 12  1  0
 11 15  1  0
 11 20  1  0
 12 13  1  0
 12 21  1  0
 12 22  1  0
 13 14  1  0
 13 23  1  0
 13 24  1  0
 14 15  1  0
 14 25  1  0
 15 27  1  0
M  RAD  1  15   2
M  END
>  <reaction>  (6) 
rxn_551

>  <mol_properties>  (6) 
{"0": {"label": "*4", "atom_type": "Cd"}, "1": {"label": "*3", "atom_type": "Cd"}, "10": {"label": "*0", "atom_type": "Cs"}, "14": {"label": "*1", "atom_type": "Cs"}, "25": {"label": "*2", "atom_type": "H0"}}

>  <type>  (6) 
unop_2

>  <geom_source>  (6) 
Heuristics

$$$$

     RDKit          3D

 27 27  0  0  0  0  0  0  0  0999 V2000
   -3.3920    0.7341   -0.3850 C   0  0  0  0  0  0  0  0  0  0  0  0
   -2.4141   -0.0351    0.0669 C   0  0  0  0  0  0  0  0  0  0  0  0
   -2.3454   -1.5201   -0.0889 C   0  0  0  0  0  0  0  0  0  0  0  0
   -4.2395    0.3171   -0.9187 H   0  0  0  0  0  0  0  0  0  0  0  0
   -3.3824    1.8069   -0.2390 H   0  0  0  0  0  0  0  0  0  0  0  0
   -2.3013   -2.0118    0.8863 H   0  0  0  0  0  0  0  0  0  0  0  0
   -3.2114   -1.9048   -0.6288 H   0  0  0  0  0  0  0  0  0  0  0  0
   -1.4431   -1.8128   -0.6320 H   0  0  0  0  0  0  0  0  0  0  0  0
    0.8968   -1.1725   -0.7103 C   0  0  0  0  0  0  0  0  0  0  0  0
    0.8968   -1.1725    0.8441 C   0  0  0  0  0  0  0  0  0  0  0  0
    0.8968    0.3244    1.1920 C   0  0  0  0  0  0  0  0  0  0  0  0
    2.2760    0.9063    0.8441 C   0  0  0  0  0  0  0  0  0  0  0  0
    2.2760    0.9063   -0.7103 C   0  0  0  0  0  0  0  0  0  0  0  0
    0.8968    0.3244   -1.0582 C   0  0  0  0  0  0  0  0  0  0  0  0
    0.0272    0.9014    0.0669 C   0  0  0  0  0  3  0  0  0  0  0  0
    0.0031   -1.6608   -1.1024 H   0  0  0  0  0  0  0  0  0  0  0  0
    1.7613   -1.6879   -1.1316 H   0  0  0  0  0  0  0  0  0  0  0  0
    0.0031   -1.6608    1.2362 H   0  0  0  0  0  0  0  0  0  0  0  0
    1.7613   -1.6879    1.2654 H   0  0  0  0  0  0  0  0  0  0  0  0
    0.5724    0.5397    2.2092 H   0  0  0  0  0  0  0  0  0  0  0  0
    3.0868    0.3100    1.2654 H   0  0  0  0  0  0  0  0  0  0  0  0
    2.3785    1.9195    1.2362 H   0  0  0  0  0  0  0  0  0  0  0  0
    3.0868    0.3100   -1.1316 H   0  0  0  0  0  0  0  0  0  0  0  0
    2.3785    1.9195   -1.1024 H   0  0  0  0  0  0  0  0  0  0  0  0
    0.5724    0.5397   -2.0754 H   0  0  0  0  0  0  0  0  0  0  0  0
   -1.1962    0.4321    0.0669 H   0  0  0  0  0  0  0  0  0  0  0  0
   -0.0087    1.9927    0.0669 H   0  0  0  0  0  0  0  0  0  0  0  0
  1  2  2  3
  1  4  1  0
  1  5  1  0
  2  3  1  0
  2 26  1  0
  3  6  1  0
  3  7  1  0
  3  8  1  0
  9 10  1  0
  9 14  1  0
  9 16  1  0
  9 17  1  0
 10 11  1  0
 10 18  1  0
 10 19  1  0
 11 12  1  0
 11 15  1  0
 11 20  1  0
 12 13  1  0
 12 21  1  0
 12 22  1  0
 13 14  1  0
 13 23  1  0
 13 24  1  0
 14 15  1  0
 14 25  1  0
 15 27  1  0
M  RAD  1  15   2
M  END
>  <reaction>  (7) 
rxn_551

>  <mol_properties>  (7) 
{"0": {"label": "*4", "atom_type": "Cd"}, "1": {"label": "*3", "atom_type": "Cd"}, "10": {"label": "*0", "atom_type": "Cs"}, "14": {"label": "*1", "atom_type": "Cs"}, "25": {"label": "*2", "atom_type": "H0"}}

>  <type>  (7) 
unop_3

>  <geom_source>  (7) 
Heuristics

$$$$

     RDKit          3D

 27 27  0  0  0  0  0  0  0  0999 V2000
   -2.5674   -1.4071   -0.0710 C   0  0  0  0  0  0  0  0  0  0  0  0
   -2.3845   -0.1039    0.0718 C   0  0  0  0  0  0  0  0  0  0  0  0
   -3.3193    0.9550   -0.4172 C   0  0  0  0  0  0  0  0  0  0  0  0
   -3.4436   -1.8040   -0.5728 H   0  0  0  0  0  0  0  0  0  0  0  0
   -1.8502   -2.1246    0.3072 H   0  0  0  0  0  0  0  0  0  0  0  0
   -2.8162    1.6230   -1.1211 H   0  0  0  0  0  0  0  0  0  0  0  0
   -4.1872    0.5214   -0.9156 H   0  0  0  0  0  0  0  0  0  0  0  0
   -3.6719    1.5752    0.4109 H   0  0  0  0  0  0  0  0  0  0  0  0
    0.9263   -1.2413   -0.7054 C   0  0  0  0  0  0  0  0  0  0  0  0
    0.9263   -1.2413    0.8490 C   0  0  0  0  0  0  0  0  0  0  0  0
    0.9263    0.2557    1.1970 C   0  0  0  0  0  0  0  0  0  0  0  0
    2.3056    0.8375    0.8490 C   0  0  0  0  0  0  0  0  0  0  0  0
    2.3056    0.8375   -0.7054 C   0  0  0  0  0  0  0  0  0  0  0  0
    0.9263    0.2557   -1.0533 C   0  0  0  0  0  0  0  0  0  0  0  0
    0.0568    0.8326    0.0718 C   0  0  0  0  0  3  0  0  0  0  0  0
    0.0326   -1.7295   -1.0975 H   0  0  0  0  0  0  0  0  0  0  0  0
    1.7908   -1.7566   -1.1267 H   0  0  0  0  0  0  0  0  0  0  0  0
    0.0326   -1.7295    1.2412 H   0  0  0  0  0  0  0  0  0  0  0  0
    1.7908   -1.7566    1.2704 H   0  0  0  0  0  0  0  0  0  0  0  0
    0.6019    0.4709    2.2142 H   0  0  0  0  0  0  0  0  0  0  0  0
    3.1164    0.2413    1.2704 H   0  0  0  0  0  0  0  0  0  0  0  0
    2.4080    1.8507    1.2412 H   0  0  0  0  0  0  0  0  0  0  0  0
    3.1164    0.2413   -1.1267 H   0  0  0  0  0  0  0  0  0  0  0  0
    2.4080    1.8507   -1.0975 H   0  0  0  0  0  0  0  0  0  0  0  0
    0.6019    0.4709   -2.0705 H   0  0  0  0  0  0  0  0  0  0  0  0
   -1.1666    0.3633    0.0718 H   0  0  0  0  0  0  0  0  0  0  0  0
    0.0208    1.9240    0.0718 H   0  0  0  0  0  0  0  0  0  0  0  0
  1  2  2  3
  1  4  1  0
  1  5  1  0
  2  3  1  0
  2 26  1  0
  3  6  1  0
  3  7  1  0
  3  8  1  0
  9 10  1  0
  9 14  1  0
  9 16  1  0
  9 17  1  0
 10 11  1  0
 10 18  1  0
 10 19  1  0
 11 12  1  0
 11 15  1  0
 11 20  1  0
 12 13  1  0
 12 21  1  0
 12 22  1  0
 13 14  1  0
 13 23  1  0
 13 24  1  0
 14 15  1  0
 14 25  1  0
 15 27  1  0
M  RAD  1  15   2
M  END
>  <reaction>  (8) 
rxn_551

>  <mol_properties>  (8) 
{"0": {"label": "*4", "atom_type": "Cd"}, "1": {"label": "*3", "atom_type": "Cd"}, "10": {"label": "*0", "atom_type": "Cs"}, "14": {"label": "*1", "atom_type": "Cs"}, "25": {"label": "*2", "atom_type": "H0"}}

>  <type>  (8) 
unop_4

>  <geom_source>  (8) 
Heuristics

$$$$

     RDKit          3D

 27 27  0  0  0  0  0  0  0  0999 V2000
   -3.2289    0.3699   -0.9488 C   0  0  0  0  0  0  0  0  0  0  0  0
   -2.3832   -0.0547   -0.0232 C   0  0  0  0  0  0  0  0  0  0  0  0
   -2.7064   -1.0457    1.0481 C   0  0  0  0  0  0  0  0  0  0  0  0
   -4.2517    0.0100   -0.9889 H   0  0  0  0  0  0  0  0  0  0  0  0
   -2.9318    1.0914   -1.6995 H   0  0  0  0  0  0  0  0  0  0  0  0
   -2.5534   -0.6108    2.0392 H   0  0  0  0  0  0  0  0  0  0  0  0
   -3.7404   -1.3856    0.9780 H   0  0  0  0  0  0  0  0  0  0  0  0
   -2.0518   -1.9184    0.9809 H   0  0  0  0  0  0  0  0  0  0  0  0
    0.9276   -1.1922   -0.8004 C   0  0  0  0  0  0  0  0  0  0  0  0
    0.9276   -1.1922    0.7540 C   0  0  0  0  0  0  0  0  0  0  0  0
    0.9276    0.3048    1.1019 C   0  0  0  0  0  0  0  0  0  0  0  0
    2.3069    0.8866    0.7540 C   0  0  0  0  0  0  0  0  0  0  0  0
    2.3069    0.8866   -0.8004 C   0  0  0  0  0  0  0  0  0  0  0  0
    0.9276    0.3048   -1.1484 C   0  0  0  0  0  0  0  0  0  0  0  0
    0.0581    0.8817   -0.0232 C   0  0  0  0  0  3  0  0  0  0  0  0
    0.0339   -1.6804   -1.1926 H   0  0  0  0  0  0  0  0  0  0  0  0
    1.7921   -1.7075   -1.2218 H   0  0  0  0  0  0  0  0  0  0  0  0
    0.0339   -1.6804    1.1461 H   0  0  0  0  0  0  0  0  0  0  0  0
    1.7921   -1.7075    1.1753 H   0  0  0  0  0  0  0  0  0  0  0  0
    0.6032    0.5200    2.1191 H   0  0  0  0  0  0  0  0  0  0  0  0
    3.1177    0.2904    1.1753 H   0  0  0  0  0  0  0  0  0  0  0  0
    2.4093    1.8999    1.1461 H   0  0  0  0  0  0  0  0  0  0  0  0
    3.1177    0.2904   -1.2218 H   0  0  0  0  0  0  0  0  0  0  0  0
    2.4093    1.8999   -1.1926 H   0  0  0  0  0  0  0  0  0  0  0  0
    0.6032    0.5200   -2.1656 H   0  0  0  0  0  0  0  0  0  0  0  0
   -1.1653    0.4124   -0.0232 H   0  0  0  0  0  0  0  0  0  0  0  0
    0.0221    1.9731   -0.0232 H   0  0  0  0  0  0  0  0  0  0  0  0
  1  2  2  3
  1  4  1  0
  1  5  1  0
  2  3  1  0
  2 26  1  0
  3  6  1  0
  3  7  1  0
  3  8  1  0
  9 10  1  0
  9 14  1  0
  9 16  1  0
  9 17  1  0
 10 11  1  0
 10 18  1  0
 10 19  1  0
 11 12  1  0
 11 15  1  0
 11 20  1  0
 12 13  1  0
 12 21  1  0
 12 22  1  0
 13 14  1  0
 13 23  1  0
 13 24  1  0
 14 15  1  0
 14 25  1  0
 15 27  1  0
M  RAD  1  15   2
M  END
>  <reaction>  (9) 
rxn_551

>  <mol_properties>  (9) 
{"0": {"label": "*4", "atom_type": "Cd"}, "1": {"label": "*3", "atom_type": "Cd"}, "10": {"label": "*0", "atom_type": "Cs"}, "14": {"label": "*1", "atom_type": "Cs"}, "25": {"label": "*2", "atom_type": "H0"}}

>  <type>  (9) 
unop_5

>  <geom_source>  (9) 
Heuristics

$$$$

     RDKit          3D

 27 27  0  0  0  0  0  0  0  0999 V2000
   -2.6456   -1.2360   -0.6328 C   0  0  0  0  0  0  0  0  0  0  0  0
   -2.3819   -0.1435    0.0666 C   0  0  0  0  0  0  0  0  0  0  0  0
   -3.2635    1.0610    0.1462 C   0  0  0  0  0  0  0  0  0  0  0  0
   -3.5559   -1.3289   -1.2158 H   0  0  0  0  0  0  0  0  0  0  0  0
   -1.9635   -2.0767   -0.6490 H   0  0  0  0  0  0  0  0  0  0  0  0
   -2.7387    1.9513   -0.2098 H   0  0  0  0  0  0  0  0  0  0  0  0
   -4.1676    0.9334   -0.4504 H   0  0  0  0  0  0  0  0  0  0  0  0
   -3.5582    1.2595    1.1799 H   0  0  0  0  0  0  0  0  0  0  0  0
    0.9290   -1.2809   -0.7106 C   0  0  0  0  0  0  0  0  0  0  0  0
    0.9290   -1.2809    0.8437 C   0  0  0  0  0  0  0  0  0  0  0  0
    0.9290    0.2161    1.1917 C   0  0  0  0  0  0  0  0  0  0  0  0
    2.3082    0.7979    0.8437 C   0  0  0  0  0  0  0  0  0  0  0  0
    2.3082    0.7979   -0.7106 C   0  0  0  0  0  0  0  0  0  0  0  0
    0.9290    0.2161   -1.0586 C   0  0  0  0  0  0  0  0  0  0  0  0
    0.0594    0.7930    0.0666 C   0  0  0  0  0  3  0  0  0  0  0  0
    0.0352   -1.7691   -1.1028 H   0  0  0  0  0  0  0  0  0  0  0  0
    1.7934   -1.7962   -1.1320 H   0  0  0  0  0  0  0  0  0  0  0  0
    0.0352   -1.7691    1.2359 H   0  0  0  0  0  0  0  0  0  0  0  0
    1.7934   -1.7962    1.2651 H   0  0  0  0  0  0  0  0  0  0  0  0
    0.6045    0.4313    2.2089 H   0  0  0  0  0  0  0  0  0  0  0  0
    3.1190    0.2017    1.2651 H   0  0  0  0  0  0  0  0  0  0  0  0
    2.4107    1.8111    1.2359 H   0  0  0  0  0  0  0  0  0  0  0  0
    3.1190    0.2017   -1.1320 H   0  0  0  0  0  0  0  0  0  0  0  0
    2.4107    1.8111   -1.1028 H   0  0  0  0  0  0  0  0  0  0  0  0
    0.6045    0.4313   -2.0758 H   0  0  0  0  0  0  0  0  0  0  0  0
   -1.1640    0.3237    0.0666 H   0  0  0  0  0  0  0  0  0  0  0  0
    0.0235    1.8844    0.0666 H   0  0  0  0  0  0  0  0  0  0  0  0
  1  2  2  3
  1  4  1  0
  1  5  1  0
  2  3  1  0
  2 26  1  0
  3  6  1  0
  3  7  1  0
  3  8  1  0
  9 10  1  0
  9 14  1  0
  9 16  1  0
  9 17  1  0
 10 11  1  0
 10 18  1  0
 10 19  1  0
 11 12  1  0
 11 15  1  0
 11 20  1  0
 12 13  1  0
 12 21  1  0
 12 22  1  0
 13 14  1  0
 13 23  1  0
 13 24  1  0
 14 15  1  0
 14 25  1  0
 15 27  1  0
M  RAD  1  15   2
M  END
>  <reaction>  (10) 
rxn_551

>  <mol_properties>  (10) 
{"0": {"label": "*4", "atom_type": "Cd"}, "1": {"label": "*3", "atom_type": "Cd"}, "10": {"label": "*0", "atom_type": "Cs"}, "14": {"label": "*1", "atom_type": "Cs"}, "25": {"label": "*2", "atom_type": "H0"}}

>  <type>  (10) 
unop_6

>  <geom_source>  (10) 
Heuristics

$$$$

     RDKit          3D

 27 27  0  0  0  0  0  0  0  0999 V2000
   -2.8088   -0.8213   -1.0399 C   0  0  0  0  0  0  0  0  0  0  0  0
   -2.3754   -0.1710    0.0286 C   0  0  0  0  0  0  0  0  0  0  0  0
   -3.1536    0.8571    0.7846 C   0  0  0  0  0  0  0  0  0  0  0  0
   -3.7968   -0.6409   -1.4502 H   0  0  0  0  0  0  0  0  0  0  0  0
   -2.1941   -1.5567   -1.5435 H   0  0  0  0  0  0  0  0  0  0  0  0
   -2.6260    1.8143    0.7948 H   0  0  0  0  0  0  0  0  0  0  0  0
   -4.1398    1.0131    0.3456 H   0  0  0  0  0  0  0  0  0  0  0  0
   -3.2845    0.5566    1.8274 H   0  0  0  0  0  0  0  0  0  0  0  0
    0.9354   -1.3084   -0.7486 C   0  0  0  0  0  0  0  0  0  0  0  0
    0.9354   -1.3084    0.8058 C   0  0  0  0  0  0  0  0  0  0  0  0
    0.9354    0.1885    1.1537 C   0  0  0  0  0  0  0  0  0  0  0  0
    2.3147    0.7703    0.8058 C   0  0  0  0  0  0  0  0  0  0  0  0
    2.3147    0.7703   -0.7486 C   0  0  0  0  0  0  0  0  0  0  0  0
    0.9354    0.1885   -1.0966 C   0  0  0  0  0  0  0  0  0  0  0  0
    0.0658    0.7654    0.0286 C   0  0  0  0  0  3  0  0  0  0  0  0
    0.0417   -1.7967   -1.1407 H   0  0  0  0  0  0  0  0  0  0  0  0
    1.7999   -1.8238   -1.1700 H   0  0  0  0  0  0  0  0  0  0  0  0
    0.0417   -1.7967    1.1979 H   0  0  0  0  0  0  0  0  0  0  0  0
    1.7999   -1.8238    1.2271 H   0  0  0  0  0  0  0  0  0  0  0  0
    0.6110    0.4038    2.1709 H   0  0  0  0  0  0  0  0  0  0  0  0
    3.1255    0.1741    1.2271 H   0  0  0  0  0  0  0  0  0  0  0  0
    2.4171    1.7836    1.1979 H   0  0  0  0  0  0  0  0  0  0  0  0
    3.1255    0.1741   -1.1700 H   0  0  0  0  0  0  0  0  0  0  0  0
    2.4171    1.7836   -1.1407 H   0  0  0  0  0  0  0  0  0  0  0  0
    0.6110    0.4038   -2.1138 H   0  0  0  0  0  0  0  0  0  0  0  0
   -1.1575    0.2961    0.0286 H   0  0  0  0  0  0  0  0  0  0  0  0
    0.0299    1.8568    0.0286 H   0  0  0  0  0  0  0  0  0  0  0  0
  1  2  2  3
  1  4  1  0
  1  5  1  0
  2  3  1  0
  2 26  1  0
  3  6  1  0
  3  7  1  0
  3  8  1  0
  9 10  1  0
  9 14  1  0
  9 16  1  0
  9 17  1  0
 10 11  1  0
 10 18  1  0
 10 19  1  0
 11 12  1  0
 11 15  1  0
 11 20  1  0
 12 13  1  0
 12 21  1  0
 12 22  1  0
 13 14  1  0
 13 23  1  0
 13 24  1  0
 14 15  1  0
 14 25  1  0
 15 27  1  0
M  RAD  1  15   2
M  END
>  <reaction>  (11) 
rxn_551

>  <mol_properties>  (11) 
{"0": {"label": "*4", "atom_type": "Cd"}, "1": {"label": "*3", "atom_type": "Cd"}, "10": {"label": "*0", "atom_type": "Cs"}, "14": {"label": "*1", "atom_type": "Cs"}, "25": {"label": "*2", "atom_type": "H0"}}

>  <type>  (11) 
unop_7

>  <geom_source>  (11) 
Heuristics

$$$$

     RDKit          3D

 27 27  0  0  0  0  0  0  0  0999 V2000
   -3.3157    0.5108    0.7808 C   0  0  0  0  0  0  0  0  0  0  0  0
   -2.3889   -0.1251    0.0814 C   0  0  0  0  0  0  0  0  0  0  0  0
   -2.5863   -0.7043   -1.2823 C   0  0  0  0  0  0  0  0  0  0  0  0
   -4.3177    0.6571    0.3913 H   0  0  0  0  0  0  0  0  0  0  0  0
   -3.1084    0.9081    1.7664 H   0  0  0  0  0  0  0  0  0  0  0  0
   -2.3923   -1.7800   -1.2798 H   0  0  0  0  0  0  0  0  0  0  0  0
   -3.6026   -0.5393   -1.6422 H   0  0  0  0  0  0  0  0  0  0  0  0
   -1.8909   -0.2589   -1.9984 H   0  0  0  0  0  0  0  0  0  0  0  0
    0.9219   -1.2625   -0.6958 C   0  0  0  0  0  0  0  0  0  0  0  0
    0.9219   -1.2625    0.8586 C   0  0  0  0  0  0  0  0  0  0  0  0
    0.9219    0.2345    1.2066 C   0  0  0  0  0  0  0  0  0  0  0  0
    2.3011    0.8163    0.8586 C   0  0  0  0  0  0  0  0  0  0  0  0
    2.3011    0.8163   -0.6958 C   0  0  0  0  0  0  0  0  0  0  0  0
    0.9219    0.2345   -1.0437 C   0  0  0  0  0  0  0  0  0  0  0  0
    0.0523    0.8114    0.0814 C   0  0  0  0  0  3  0  0  0  0  0  0
    0.0282   -1.7507   -1.0879 H   0  0  0  0  0  0  0  0  0  0  0  0
    1.7864   -1.7778   -1.1171 H   0  0  0  0  0  0  0  0  0  0  0  0
    0.0282   -1.7507    1.2508 H   0  0  0  0  0  0  0  0  0  0  0  0
    1.7864   -1.7778    1.2800 H   0  0  0  0  0  0  0  0  0  0  0  0
    0.5975    0.4497    2.2238 H   0  0  0  0  0  0  0  0  0  0  0  0
    3.1120    0.2201    1.2800 H   0  0  0  0  0  0  0  0  0  0  0  0
    2.4036    1.8295    1.2508 H   0  0  0  0  0  0  0  0  0  0  0  0
    3.1120    0.2201   -1.1171 H   0  0  0  0  0  0  0  0  0  0  0  0
    2.4036    1.8295   -1.0879 H   0  0  0  0  0  0  0  0  0  0  0  0
    0.5975    0.4497   -2.0609 H   0  0  0  0  0  0  0  0  0  0  0  0
   -1.1711    0.3421    0.0814 H   0  0  0  0  0  0  0  0  0  0  0  0
    0.0164    1.9027    0.0814 H   0  0  0  0  0  0  0  0  0  0  0  0
  1  2  2  3
  1  4  1  0
  1  5  1  0
  2  3  1  0
  2 26  1  0
  3  6  1  0
  3  7  1  0
  3  8  1  0
  9 10  1  0
  9 14  1  0
  9 16  1  0
  9 17  1  0
 10 11  1  0
 10 18  1  0
 10 19  1  0
 11 12  1  0
 11 15  1  0
 11 20  1  0
 12 13  1  0
 12 21  1  0
 12 22  1  0
 13 14  1  0
 13 23  1  0
 13 24  1  0
 14 15  1  0
 14 25  1  0
 15 27  1  0
M  RAD  1  15   2
M  END
>  <reaction>  (12) 
rxn_551

>  <mol_properties>  (12) 
{"0": {"label": "*4", "atom_type": "Cd"}, "1": {"label": "*3", "atom_type": "Cd"}, "10": {"label": "*0", "atom_type": "Cs"}, "14": {"label": "*1", "atom_type": "Cs"}, "25": {"label": "*2", "atom_type": "H0"}}

>  <type>  (12) 
unop_8

>  <geom_source>  (12) 
Heuristics

$$$$

     RDKit          3D

 27 27  0  0  0  0  0  0  0  0999 V2000
   -2.5925   -1.3058    0.5016 C   0  0  0  0  0  0  0  0  0  0  0  0
   -2.3799   -0.0799    0.0497 C   0  0  0  0  0  0  0  0  0  0  0  0
   -3.3269    0.6981   -0.8060 C   0  0  0  0  0  0  0  0  0  0  0  0
   -3.5052   -1.8443    0.2693 H   0  0  0  0  0  0  0  0  0  0  0  0
   -1.8641   -1.8161    1.1192 H   0  0  0  0  0  0  0  0  0  0  0  0
   -2.8592    0.9701   -1.7557 H   0  0  0  0  0  0  0  0  0  0  0  0
   -4.2317    0.1278   -1.0195 H   0  0  0  0  0  0  0  0  0  0  0  0
   -3.6159    1.6318   -0.3166 H   0  0  0  0  0  0  0  0  0  0  0  0
    0.9310   -1.2173   -0.7275 C   0  0  0  0  0  0  0  0  0  0  0  0
    0.9310   -1.2173    0.8269 C   0  0  0  0  0  0  0  0  0  0  0  0
    0.9310    0.2797    1.1748 C   0  0  0  0  0  0  0  0  0  0  0  0
    2.3102    0.8615    0.8269 C   0  0  0  0  0  0  0  0  0  0  0  0
    2.3102    0.8615   -0.7275 C   0  0  0  0  0  0  0  0  0  0  0  0
    0.9310    0.2797   -1.0755 C   0  0  0  0  0  0  0  0  0  0  0  0
    0.0614    0.8566    0.0497 C   0  0  0  0  0  3  0  0  0  0  0  0
    0.0372   -1.7055   -1.1197 H   0  0  0  0  0  0  0  0  0  0  0  0
    1.7954   -1.7326   -1.1489 H   0  0  0  0  0  0  0  0  0  0  0  0
    0.0372   -1.7055    1.2190 H   0  0  0  0  0  0  0  0  0  0  0  0
    1.7954   -1.7326    1.2482 H   0  0  0  0  0  0  0  0  0  0  0  0
    0.6065    0.4949    2.1920 H   0  0  0  0  0  0  0  0  0  0  0  0
    3.1210    0.2653    1.2482 H   0  0  0  0  0  0  0  0  0  0  0  0
    2.4127    1.8747    1.2190 H   0  0  0  0  0  0  0  0  0  0  0  0
    3.1210    0.2653   -1.1489 H   0  0  0  0  0  0  0  0  0  0  0  0
    2.4127    1.8747   -1.1197 H   0  0  0  0  0  0  0  0  0  0  0  0
    0.6065    0.4949   -2.0927 H   0  0  0  0  0  0  0  0  0  0  0  0
   -1.1620    0.3873    0.0497 H   0  0  0  0  0  0  0  0  0  0  0  0
    0.0255    1.9480    0.0497 H   0  0  0  0  0  0  0  0  0  0  0  0
  1  2  2  3
  1  4  1  0
  1  5  1  0
  2  3  1  0
  2 26  1  0
  3  6  1  0
  3  7  1  0
  3  8  1  0
  9 10  1  0
  9 14  1  0
  9 16  1  0
  9 17  1  0
 10 11  1  0
 10 18  1  0
 10 19  1  0
 11 12  1  0
 11 15  1  0
 11 20  1  0
 12 13  1  0
 12 21  1  0
 12 22  1  0
 13 14  1  0
 13 23  1  0
 13 24  1  0
 14 15  1  0
 14 25  1  0
 15 27  1  0
M  RAD  1  15   2
M  END
>  <reaction>  (13) 
rxn_551

>  <mol_properties>  (13) 
{"0": {"label": "*4", "atom_type": "Cd"}, "1": {"label": "*3", "atom_type": "Cd"}, "10": {"label": "*0", "atom_type": "Cs"}, "14": {"label": "*1", "atom_type": "Cs"}, "25": {"label": "*2", "atom_type": "H0"}}

>  <type>  (13) 
unop_9

>  <geom_source>  (13) 
Heuristics

$$$$

     RDKit          3D

 27 27  0  0  0  0  0  0  0  0999 V2000
   -3.1296    0.0583    1.1149 C   0  0  0  0  0  0  0  0  0  0  0  0
   -2.3724   -0.1353    0.0464 C   0  0  0  0  0  0  0  0  0  0  0  0
   -2.8723   -0.2103   -1.3603 C   0  0  0  0  0  0  0  0  0  0  0  0
   -4.2045    0.1796    1.0324 H   0  0  0  0  0  0  0  0  0  0  0  0
   -2.7046    0.1028    2.1098 H   0  0  0  0  0  0  0  0  0  0  0  0
   -2.6180   -1.1724   -1.8126 H   0  0  0  0  0  0  0  0  0  0  0  0
   -3.9547   -0.0846   -1.4060 H   0  0  0  0  0  0  0  0  0  0  0  0
   -2.4095    0.5627   -1.9792 H   0  0  0  0  0  0  0  0  0  0  0  0
    0.9384   -1.2727   -0.7308 C   0  0  0  0  0  0  0  0  0  0  0  0
    0.9384   -1.2727    0.8236 C   0  0  0  0  0  0  0  0  0  0  0  0
    0.9384    0.2243    1.1715 C   0  0  0  0  0  0  0  0  0  0  0  0
    2.3176    0.8061    0.8236 C   0  0  0  0  0  0  0  0  0  0  0  0
    2.3176    0.8061   -0.7308 C   0  0  0  0  0  0  0  0  0  0  0  0
    0.9384    0.2243   -1.0787 C   0  0  0  0  0  0  0  0  0  0  0  0
    0.0688    0.8012    0.0464 C   0  0  0  0  0  3  0  0  0  0  0  0
    0.0447   -1.7609   -1.1229 H   0  0  0  0  0  0  0  0  0  0  0  0
    1.8029   -1.7880   -1.1521 H   0  0  0  0  0  0  0  0  0  0  0  0
    0.0447   -1.7609    1.2157 H   0  0  0  0  0  0  0  0  0  0  0  0
    1.8029   -1.7880    1.2449 H   0  0  0  0  0  0  0  0  0  0  0  0
    0.6140    0.4395    2.1887 H   0  0  0  0  0  0  0  0  0  0  0  0
    3.1284    0.2099    1.2449 H   0  0  0  0  0  0  0  0  0  0  0  0
    2.4201    1.8193    1.2157 H   0  0  0  0  0  0  0  0  0  0  0  0
    3.1284    0.2099   -1.1521 H   0  0  0  0  0  0  0  0  0  0  0  0
    2.4201    1.8193   -1.1229 H   0  0  0  0  0  0  0  0  0  0  0  0
    0.6140    0.4395   -2.0959 H   0  0  0  0  0  0  0  0  0  0  0  0
   -1.1546    0.3319    0.0464 H   0  0  0  0  0  0  0  0  0  0  0  0
    0.0329    1.8925    0.0464 H   0  0  0  0  0  0  0  0  0  0  0  0
  1  2  2  3
  1  4  1  0
  1  5  1  0
  2  3  1  0
  2 26  1  0
  3  6  1  0
  3  7  1  0
  3  8  1  0
  9 10  1  0
  9 14  1  0
  9 16  1  0
  9 17  1  0
 10 11  1  0
 10 18  1  0
 10 19  1  0
 11 12  1  0
 11 15  1  0
 11 20  1  0
 12 13  1  0
 12 21  1  0
 12 22  1  0
 13 14  1  0
 13 23  1  0
 13 24  1  0
 14 15  1  0
 14 25  1  0
 15 27  1  0
M  RAD  1  15   2
M  END
>  <reaction>  (14) 
rxn_551

>  <mol_properties>  (14) 
{"0": {"label": "*4", "atom_type": "Cd"}, "1": {"label": "*3", "atom_type": "Cd"}, "10": {"label": "*0", "atom_type": "Cs"}, "14": {"label": "*1", "atom_type": "Cs"}, "25": {"label": "*2", "atom_type": "H0"}}

>  <type>  (14) 
unop_10

>  <geom_source>  (14) 
Heuristics

$$$$

     RDKit          3D

 27 27  0  0  0  0  0  0  0  0999 V2000
   -3.0160   -0.2459   -1.1781 C   0  0  0  0  0  0  0  0  0  0  0  0
   -2.3696   -0.1510   -0.0269 C   0  0  0  0  0  0  0  0  0  0  0  0
   -2.9980    0.1813    1.2880 C   0  0  0  0  0  0  0  0  0  0  0  0
   -4.0866   -0.0816   -1.2414 H   0  0  0  0  0  0  0  0  0  0  0  0
   -2.5009   -0.4909   -2.0985 H   0  0  0  0  0  0  0  0  0  0  0  0
   -2.5549    1.0854    1.7134 H   0  0  0  0  0  0  0  0  0  0  0  0
   -4.0725    0.3398    1.1876 H   0  0  0  0  0  0  0  0  0  0  0  0
   -2.8345   -0.6218    2.0112 H   0  0  0  0  0  0  0  0  0  0  0  0
    0.9412   -1.2884   -0.8040 C   0  0  0  0  0  0  0  0  0  0  0  0
    0.9412   -1.2884    0.7503 C   0  0  0  0  0  0  0  0  0  0  0  0
    0.9412    0.2086    1.0983 C   0  0  0  0  0  0  0  0  0  0  0  0
    2.3205    0.7904    0.7503 C   0  0  0  0  0  0  0  0  0  0  0  0
    2.3205    0.7904   -0.8040 C   0  0  0  0  0  0  0  0  0  0  0  0
    0.9412    0.2086   -1.1520 C   0  0  0  0  0  0  0  0  0  0  0  0
    0.0717    0.7855   -0.0269 C   0  0  0  0  0  3  0  0  0  0  0  0
    0.0475   -1.7766   -1.1962 H   0  0  0  0  0  0  0  0  0  0  0  0
    1.8057   -1.8037   -1.2254 H   0  0  0  0  0  0  0  0  0  0  0  0
    0.0475   -1.7766    1.1425 H   0  0  0  0  0  0  0  0  0  0  0  0
    1.8057   -1.8037    1.1717 H   0  0  0  0  0  0  0  0  0  0  0  0
    0.6168    0.4238    2.1155 H   0  0  0  0  0  0  0  0  0  0  0  0
    3.1313    0.1942    1.1717 H   0  0  0  0  0  0  0  0  0  0  0  0
    2.4229    1.8036    1.1425 H   0  0  0  0  0  0  0  0  0  0  0  0
    3.1313    0.1942   -1.2254 H   0  0  0  0  0  0  0  0  0  0  0  0
    2.4229    1.8036   -1.1962 H   0  0  0  0  0  0  0  0  0  0  0  0
    0.6168    0.4238   -2.1692 H   0  0  0  0  0  0  0  0  0  0  0  0
   -1.1517    0.3162   -0.0269 H   0  0  0  0  0  0  0  0  0  0  0  0
    0.0357    1.8768   -0.0269 H   0  0  0  0  0  0  0  0  0  0  0  0
  1  2  2  3
  1  4  1  0
  1  5  1  0
  2  3  1  0
  2 26  1  0
  3  6  1  0
  3  7  1  0
  3  8  1  0
  9 10  1  0
  9 14  1  0
  9 16  1  0
  9 17  1  0
 10 11  1  0
 10 18  1  0
 10 19  1  0
 11 12  1  0
 11 15  1  0
 11 20  1  0
 12 13  1  0
 12 21  1  0
 12 22  1  0
 13 14  1  0
 13 23  1  0
 13 24  1  0
 14 15  1  0
 14 25  1  0
 15 27  1  0
M  RAD  1  15   2
M  END
>  <reaction>  (15) 
rxn_551

>  <mol_properties>  (15) 
{"0": {"label": "*4", "atom_type": "Cd"}, "1": {"label": "*3", "atom_type": "Cd"}, "10": {"label": "*0", "atom_type": "Cs"}, "14": {"label": "*1", "atom_type": "Cs"}, "25": {"label": "*2", "atom_type": "H0"}}

>  <type>  (15) 
unop_11

>  <geom_source>  (15) 
Heuristics

$$$$

     RDKit          3D

 27 27  0  0  0  0  0  0  0  0999 V2000
   -2.7154   -0.9688    0.9488 C   0  0  0  0  0  0  0  0  0  0  0  0
   -2.3706   -0.0875    0.0232 C   0  0  0  0  0  0  0  0  0  0  0  0
   -3.2736    0.4331   -1.0481 C   0  0  0  0  0  0  0  0  0  0  0  0
   -3.7164   -1.3853    0.9889 H   0  0  0  0  0  0  0  0  0  0  0  0
   -2.0120   -1.3065    1.6995 H   0  0  0  0  0  0  0  0  0  0  0  0
   -2.8690    0.2121   -2.0392 H   0  0  0  0  0  0  0  0  0  0  0  0
   -4.2697   -0.0058   -0.9780 H   0  0  0  0  0  0  0  0  0  0  0  0
   -3.3706    1.5197   -0.9809 H   0  0  0  0  0  0  0  0  0  0  0  0
    0.9402   -1.2249   -0.7540 C   0  0  0  0  0  0  0  0  0  0  0  0
    0.9402   -1.2249    0.8004 C   0  0  0  0  0  0  0  0  0  0  0  0
    0.9402    0.2720    1.1484 C   0  0  0  0  0  0  0  0  0  0  0  0
    2.3194    0.8539    0.8004 C   0  0  0  0  0  0  0  0  0  0  0  0
    2.3194    0.8539   -0.7540 C   0  0  0  0  0  0  0  0  0  0  0  0
    0.9402    0.2720   -1.1019 C   0  0  0  0  0  0  0  0  0  0  0  0
    0.0706    0.8490    0.0232 C   0  0  0  0  0  3  0  0  0  0  0  0
    0.0465   -1.7132   -1.1461 H   0  0  0  0  0  0  0  0  0  0  0  0
    1.8047   -1.7402   -1.1753 H   0  0  0  0  0  0  0  0  0  0  0  0
    0.0465   -1.7132    1.1926 H   0  0  0  0  0  0  0  0  0  0  0  0
    1.8047   -1.7402    1.2218 H   0  0  0  0  0  0  0  0  0  0  0  0
    0.6158    0.4873    2.1656 H   0  0  0  0  0  0  0  0  0  0  0  0
    3.1303    0.2577    1.2218 H   0  0  0  0  0  0  0  0  0  0  0  0
    2.4219    1.8671    1.1926 H   0  0  0  0  0  0  0  0  0  0  0  0
    3.1303    0.2577   -1.1753 H   0  0  0  0  0  0  0  0  0  0  0  0
    2.4219    1.8671   -1.1461 H   0  0  0  0  0  0  0  0  0  0  0  0
    0.6158    0.4873   -2.1191 H   0  0  0  0  0  0  0  0  0  0  0  0
   -1.1528    0.3797    0.0232 H   0  0  0  0  0  0  0  0  0  0  0  0
    0.0347    1.9403    0.0232 H   0  0  0  0  0  0  0  0  0  0  0  0
  1  2  2  3
  1  4  1  0
  1  5  1  0
  2  3  1  0
  2 26  1  0
  3  6  1  0
  3  7  1  0
  3  8  1  0
  9 10  1  0
  9 14  1  0
  9 16  1  0
  9 17  1  0
 10 11  1  0
 10 18  1  0
 10 19  1  0
 11 12  1  0
 11 15  1  0
 11 20  1  0
 12 13  1  0
 12 21  1  0
 12 22  1  0
 13 14  1  0
 13 23  1  0
 13 24  1  0
 14 15  1  0
 14 25  1  0
 15 27  1  0
M  RAD  1  15   2
M  END
>  <reaction>  (16) 
rxn_551

>  <mol_properties>  (16) 
{"0": {"label": "*4", "atom_type": "Cd"}, "1": {"label": "*3", "atom_type": "Cd"}, "10": {"label": "*0", "atom_type": "Cs"}, "14": {"label": "*1", "atom_type": "Cs"}, "25": {"label": "*2", "atom_type": "H0"}}

>  <type>  (16) 
unop_12

>  <geom_source>  (16) 
Heuristics

$$$$

     RDKit          3D

 27 27  0  0  0  0  0  0  0  0999 V2000
   -1.2857    0.6368    0.9366 C   0  0  0  0  0  0  0  0  0  0  0  0
   -0.7176   -0.3150   -0.9815 C   0  0  0  0  0  0  0  0  0  0  0  0
   -1.2382   -0.8550    1.2996 C   0  0  0  0  0  0  0  0  0  0  0  0
   -2.5154    0.8987    0.0500 C   0  0  0  0  0  0  0  0  0  0  0  0
   -2.1215    0.2388   -1.2797 C   0  0  0  0  0  0  0  0  0  0  0  0
   -0.8439   -1.5157   -0.0318 C   0  0  0  0  0  0  0  0  0  0  0  0
    3.0669    1.1508   -0.3961 C   0  0  0  0  0  0  0  0  0  0  0  0
   -0.1506    0.7259   -0.0507 C   0  0  0  0  0  3  0  0  0  0  0  0
    2.3021    0.0150    0.2073 C   0  0  0  0  0  0  0  0  0  0  0  0
    2.9092   -1.1222    0.5514 C   0  0  0  0  0  0  0  0  0  0  0  0
   -1.1966    1.3200    1.8079 H   0  0  0  0  0  0  0  0  0  0  0  0
   -0.1028   -0.5126   -1.8852 H   0  0  0  0  0  0  0  0  0  0  0  0
   -2.2186   -1.2263    1.6707 H   0  0  0  0  0  0  0  0  0  0  0  0
   -0.4594   -1.0390    2.0724 H   0  0  0  0  0  0  0  0  0  0  0  0
   -2.6655    1.9924   -0.0863 H   0  0  0  0  0  0  0  0  0  0  0  0
   -3.4403    0.4513    0.4755 H   0  0  0  0  0  0  0  0  0  0  0  0
   -2.8344   -0.5637   -1.5700 H   0  0  0  0  0  0  0  0  0  0  0  0
   -2.0715    0.9971   -2.0920 H   0  0  0  0  0  0  0  0  0  0  0  0
    0.1351   -2.0351    0.0651 H   0  0  0  0  0  0  0  0  0  0  0  0
   -1.6123   -2.2420   -0.3761 H   0  0  0  0  0  0  0  0  0  0  0  0
    2.3753    1.9931   -0.6051 H   0  0  0  0  0  0  0  0  0  0  0  0
    3.5387    0.8276   -1.3480 H   0  0  0  0  0  0  0  0  0  0  0  0
    3.8526    1.4964    0.3086 H   0  0  0  0  0  0  0  0  0  0  0  0
   -0.0708    1.7310   -0.5259 H   0  0  0  0  0  0  0  0  0  0  0  0
    1.0551    0.1364    0.3945 H   0  0  0  0  0  0  0  0  0  0  0  0
    2.3332   -1.9315    0.9872 H   0  0  0  0  0  0  0  0  0  0  0  0
    3.9769   -1.2531    0.4019 H   0  0  0  0  0  0  0  0  0  0  0  0
  1  3  1  0
  1  4  1  0
  1  8  1  0
  1 11  1  0
  2  6  1  0
  2  5  1  0
  2  8  1  0
  2 12  1  0
  3  6  1  0
  3 13  1  0
  3 14  1  0
  4  5  1  0
  4 15  1  0
  4 16  1  0
  5 17  1  0
  5 18  1  0
  6 19  1  0
  6 20  1  0
  7  9  1  0
  7 21  1  0
  7 22  1  0
  7 23  1  0
  8 24  1  0
  9 10  2  3
  9 25  1  0
 10 26  1  0
 10 27  1  0
M  RAD  1   8   2
M  END
>  <reaction>  (17) 
rxn_551

>  <mol_properties>  (17) 
{"0": {"label": "*4", "atom_type": "Cd"}, "1": {"label": "*3", "atom_type": "Cd"}, "10": {"label": "*0", "atom_type": "Cs"}, "14": {"label": "*1", "atom_type": "Cs"}, "25": {"label": "*2", "atom_type": "H0"}}

>  <type>  (17) 
unop_13

>  <geom_source>  (17) 
AutoTST

$$$$
