
     RDKit          3D

  5  4  0  0  0  0  0  0  0  0999 V2000
    0.0000    0.0000    0.0000 C   0  0  0  0  0  0  0  0  0  0  0  0
   -0.6486   -0.7720   -0.4113 H   0  0  0  0  0  0  0  0  0  0  0  0
   -0.3482    0.9787   -0.3267 H   0  0  0  0  0  0  0  0  0  0  0  0
   -0.0223   -0.0487    1.0876 H   0  0  0  0  0  0  0  0  0  0  0  0
    1.0191   -0.1580   -0.3496 H   0  0  0  0  0  0  0  0  0  0  0  0
  1  2  1  0
  1  3  1  0
  1  4  1  0
  1  5  1  0
M  END
>  <reaction>  (1) 
rxn_319

>  <mol_properties>  (1) 
{"0": {"label": "donator", "atom_type": "Cs"}, "1": {"label": "d_hydrogen", "atom_type": "H0"}}

>  <type>  (1) 
r1h

$$$$

     RDKit          3D

  6  5  0  0  0  0  0  0  0  0999 V2000
   -0.4436    0.0188   -0.1393 C   0  0  0  0  0  0  0  0  0  0  0  0
    1.0624   -0.0017   -0.1425 C   0  0  0  0  0  3  0  0  0  0  0  0
    1.7971   -0.0947    0.7691 O   0  0  0  0  0  0  0  0  0  0  0  0
   -0.8374   -0.0681    0.8758 H   0  0  0  0  0  0  0  0  0  0  0  0
   -0.7772    0.9478   -0.6020 H   0  0  0  0  0  0  0  0  0  0  0  0
   -0.8013   -0.8022   -0.7611 H   0  0  0  0  0  0  0  0  0  0  0  0
  1  2  1  0
  1  4  1  0
  1  5  1  0
  1  6  1  0
  2  3  2  0
M  RAD  1   2   2
M  END
>  <reaction>  (2) 
rxn_319

>  <mol_properties>  (2) 
{"1": {"label": "acceptor", "atom_type": "CO"}}

>  <type>  (2) 
r2

$$$$

     RDKit          3D

  7  6  0  0  0  0  0  0  0  0999 V2000
   -0.6468   -0.0443   -0.0231 C   0  0  0  0  0  0  0  0  0  0  0  0
    0.8470    0.0371    0.0688 C   0  0  0  0  0  0  0  0  0  0  0  0
    1.4866   -0.2280    1.0479 O   0  0  0  0  0  0  0  0  0  0  0  0
   -1.0466    0.9363   -0.2943 H   0  0  0  0  0  0  0  0  0  0  0  0
   -0.9229   -0.7318   -0.8269 H   0  0  0  0  0  0  0  0  0  0  0  0
   -1.0759   -0.3772    0.9198 H   0  0  0  0  0  0  0  0  0  0  0  0
    1.3584    0.3712   -0.8589 H   0  0  0  0  0  0  0  0  0  0  0  0
  1  2  1  0
  1  4  1  0
  1  5  1  0
  1  6  1  0
  2  3  2  0
  2  7  1  0
M  END
>  <reaction>  (3) 
rxn_319

>  <mol_properties>  (3) 
{"0": {"label": "a_hydrogen", "atom_type": "H0"}, "2": {"label": "acceptor", "atom_type": "CO"}}

>  <type>  (3) 
r2h

$$$$

     RDKit          3D

 11  9  0  0  0  0  0  0  0  0999 V2000
   -0.0149   -2.2425   -0.7530 C   0  0  0  0  0  3  0  0  0  0  0  0
   -0.3747   -0.8119   -0.5737 H   0  0  0  0  0  0  0  0  0  0  0  0
   -0.9895   -2.7187   -0.7354 H   0  0  0  0  0  0  0  0  0  0  0  0
    0.4898   -2.2754   -1.7134 H   0  0  0  0  0  0  0  0  0  0  0  0
    0.6179   -2.4704    0.0989 H   0  0  0  0  0  0  0  0  0  0  0  0
    0.4766    1.3383   -0.4025 C   0  0  0  0  0  0  0  0  0  0  0  0
   -0.7006    0.4072   -0.4196 C   0  0  0  0  0  0  0  0  0  0  0  0
   -1.8444    0.7099   -0.3063 O   0  0  0  0  0  0  0  0  0  0  0  0
    0.1615    2.3724   -0.2690 H   0  0  0  0  0  0  0  0  0  0  0  0
    1.1506    1.0378    0.4026 H   0  0  0  0  0  0  0  0  0  0  0  0
    1.0277    1.2251   -1.3386 H   0  0  0  0  0  0  0  0  0  0  0  0
  1  3  1  0
  1  4  1  0
  1  5  1  0
  2  7  1  0
  6  7  1  0
  6  9  1  0
  6 10  1  0
  6 11  1  0
  7  8  2  0
M  RAD  1   1   2
M  END
>  <reaction>  (4) 
rxn_319

>  <mol_properties>  (4) 
{"0": {"label": "*3", "atom_type": "Cs"}, "1": {"label": "*2", "atom_type": "H0"}, "2": {"label": "*4", "atom_type": "H0"}, "6": {"label": "*1", "atom_type": "CO"}, "7": {"label": "*0", "atom_type": "O2d"}}

>  <type>  (4) 
ts

$$$$

     RDKit          3D

 11  9  0  0  0  0  0  0  0  0999 V2000
    0.0080   -2.0051   -0.9275 C   0  0  0  0  0  0  0  0  0  0  0  0
    0.0080   -0.7731   -0.4919 H   0  0  0  0  0  0  0  0  0  0  0  0
    0.8971   -2.5184   -0.5645 H   0  0  0  0  0  0  0  0  0  0  0  0
   -0.8811   -2.5184   -0.5645 H   0  0  0  0  0  0  0  0  0  0  0  0
    0.0080   -2.0051   -2.0164 H   0  0  0  0  0  0  0  0  0  0  0  0
   -1.1676    0.8564    0.8041 C   0  0  0  0  0  0  0  0  0  0  0  0
    0.0080    0.4835   -0.0477 C   0  0  0  0  0  3  0  0  0  0  0  0
    1.1402    0.8143    0.1684 O   0  0  0  0  0  0  0  0  0  0  0  0
   -0.8567    1.4692    1.6476 H   0  0  0  0  0  0  0  0  0  0  0  0
   -1.8989    1.3950    0.1957 H   0  0  0  0  0  0  0  0  0  0  0  0
   -1.6599   -0.0527    1.1593 H   0  0  0  0  0  0  0  0  0  0  0  0
  1  2  1  0
  1  3  1  0
  1  4  1  0
  1  5  1  0
  6  7  1  0
  6  9  1  0
  6 10  1  0
  6 11  1  0
  7  8  2  0
M  RAD  1   7   2
M  END
>  <reaction>  (5) 
rxn_319

>  <mol_properties>  (5) 
{"0": {"label": "*3", "atom_type": "Cs"}, "1": {"label": "*2", "atom_type": "H0"}, "2": {"label": "*4", "atom_type": "H0"}, "6": {"label": "*1", "atom_type": "CO"}, "7": {"label": "*0", "atom_type": "O2d"}}

>  <type>  (5) 
unop_1

>  <geom_source>  (5) 
Heuristics

$$$$

     RDKit          3D

 11  9  0  0  0  0  0  0  0  0999 V2000
    0.1135   -2.1308   -0.7156 C   0  0  0  0  0  0  0  0  0  0  0  0
    0.1135   -0.8988   -0.2800 H   0  0  0  0  0  0  0  0  0  0  0  0
    1.0026   -2.6441   -0.3526 H   0  0  0  0  0  0  0  0  0  0  0  0
   -0.7756   -2.6441   -0.3526 H   0  0  0  0  0  0  0  0  0  0  0  0
    0.1135   -2.1308   -1.8045 H   0  0  0  0  0  0  0  0  0  0  0  0
   -0.5653    1.3488   -0.7323 C   0  0  0  0  0  0  0  0  0  0  0  0
    0.1135    0.3579    0.1643 C   0  0  0  0  0  3  0  0  0  0  0  0
    0.3635    0.5437    1.3223 O   0  0  0  0  0  0  0  0  0  0  0  0
   -0.8021    2.2627   -0.1914 H   0  0  0  0  0  0  0  0  0  0  0  0
    0.0842    1.5713   -1.5830 H   0  0  0  0  0  0  0  0  0  0  0  0
   -1.4773    0.9038   -1.1386 H   0  0  0  0  0  0  0  0  0  0  0  0
  1  2  1  0
  1  3  1  0
  1  4  1  0
  1  5  1  0
  6  7  1  0
  6  9  1  0
  6 10  1  0
  6 11  1  0
  7  8  2  0
M  RAD  1   7   2
M  END
>  <reaction>  (6) 
rxn_319

>  <mol_properties>  (6) 
{"0": {"label": "*3", "atom_type": "Cs"}, "1": {"label": "*2", "atom_type": "H0"}, "2": {"label": "*4", "atom_type": "H0"}, "6": {"label": "*1", "atom_type": "CO"}, "7": {"label": "*0", "atom_type": "O2d"}}

>  <type>  (6) 
unop_2

>  <geom_source>  (6) 
Heuristics

$$$$

     RDKit          3D

 11  9  0  0  0  0  0  0  0  0999 V2000
   -0.0687   -2.0466   -0.8858 C   0  0  0  0  0  0  0  0  0  0  0  0
   -0.0687   -0.8146   -0.4503 H   0  0  0  0  0  0  0  0  0  0  0  0
    0.8204   -2.5599   -0.5229 H   0  0  0  0  0  0  0  0  0  0  0  0
   -0.9578   -2.5599   -0.5229 H   0  0  0  0  0  0  0  0  0  0  0  0
   -0.0687   -2.0466   -1.9748 H   0  0  0  0  0  0  0  0  0  0  0  0
   -0.7474    0.6492    1.3142 C   0  0  0  0  0  0  0  0  0  0  0  0
   -0.0687    0.4420   -0.0060 C   0  0  0  0  0  3  0  0  0  0  0  0
    0.8567    1.0904   -0.4074 O   0  0  0  0  0  0  0  0  0  0  0  0
   -0.2876    1.4690    1.8623 H   0  0  0  0  0  0  0  0  0  0  0  0
   -1.8081    0.8548    1.1474 H   0  0  0  0  0  0  0  0  0  0  0  0
   -0.6921   -0.2732    1.8982 H   0  0  0  0  0  0  0  0  0  0  0  0
  1  2  1  0
  1  3  1  0
  1  4  1  0
  1  5  1  0
  6  7  1  0
  6  9  1  0
  6 10  1  0
  6 11  1  0
  7  8  2  0
M  RAD  1   7   2
M  END
>  <reaction>  (7) 
rxn_319

>  <mol_properties>  (7) 
{"0": {"label": "*3", "atom_type": "Cs"}, "1": {"label": "*2", "atom_type": "H0"}, "2": {"label": "*4", "atom_type": "H0"}, "6": {"label": "*1", "atom_type": "CO"}, "7": {"label": "*0", "atom_type": "O2d"}}

>  <type>  (7) 
unop_3

>  <geom_source>  (7) 
Heuristics

$$$$

     RDKit          3D

 11  9  0  0  0  0  0  0  0  0999 V2000
   -0.1548   -2.0728   -0.8076 C   0  0  0  0  0  0  0  0  0  0  0  0
   -0.1548   -0.8408   -0.3721 H   0  0  0  0  0  0  0  0  0  0  0  0
    0.7343   -2.5861   -0.4447 H   0  0  0  0  0  0  0  0  0  0  0  0
   -1.0439   -2.5861   -0.4447 H   0  0  0  0  0  0  0  0  0  0  0  0
   -0.1548   -2.0728   -1.8966 H   0  0  0  0  0  0  0  0  0  0  0  0
    1.0208    1.2411   -0.3559 C   0  0  0  0  0  0  0  0  0  0  0  0
   -0.1548    0.4158    0.0722 C   0  0  0  0  0  3  0  0  0  0  0  0
   -0.7427    0.5505    1.1087 O   0  0  0  0  0  0  0  0  0  0  0  0
    1.2713    1.9815    0.4010 H   0  0  0  0  0  0  0  0  0  0  0  0
    1.8758    0.5852   -0.5395 H   0  0  0  0  0  0  0  0  0  0  0  0
    0.7909    1.7339   -1.3042 H   0  0  0  0  0  0  0  0  0  0  0  0
  1  2  1  0
  1  3  1  0
  1  4  1  0
  1  5  1  0
  6  7  1  0
  6  9  1  0
  6 10  1  0
  6 11  1  0
  7  8  2  0
M  RAD  1   7   2
M  END
>  <reaction>  (8) 
rxn_319

>  <mol_properties>  (8) 
{"0": {"label": "*3", "atom_type": "Cs"}, "1": {"label": "*2", "atom_type": "H0"}, "2": {"label": "*4", "atom_type": "H0"}, "6": {"label": "*1", "atom_type": "CO"}, "7": {"label": "*0", "atom_type": "O2d"}}

>  <type>  (8) 
unop_4

>  <geom_source>  (8) 
Heuristics

$$$$

     RDKit          3D

 11  9  0  0  0  0  0  0  0  0999 V2000
    0.0000   -2.1021   -0.8305 C   0  0  0  0  0  0  0  0  0  0  0  0
    0.0000   -0.8701   -0.3949 H   0  0  0  0  0  0  0  0  0  0  0  0
    0.8891   -2.6154   -0.4675 H   0  0  0  0  0  0  0  0  0  0  0  0
   -0.8891   -2.6154   -0.4675 H   0  0  0  0  0  0  0  0  0  0  0  0
    0.0000   -2.1021   -1.9194 H   0  0  0  0  0  0  0  0  0  0  0  0
    0.0000    0.5331    1.5410 C   0  0  0  0  0  0  0  0  0  0  0  0
    0.0000    0.3865    0.0494 C   0  0  0  0  0  3  0  0  0  0  0  0
   -0.0000    1.3006   -0.7268 O   0  0  0  0  0  0  0  0  0  0  0  0
    0.0000    1.5827    1.8277 H   0  0  0  0  0  0  0  0  0  0  0  0
   -0.8777    0.0291    1.9541 H   0  0  0  0  0  0  0  0  0  0  0  0
    0.8777    0.0291    1.9541 H   0  0  0  0  0  0  0  0  0  0  0  0
  1  2  1  0
  1  3  1  0
  1  4  1  0
  1  5  1  0
  6  7  1  0
  6  9  1  0
  6 10  1  0
  6 11  1  0
  7  8  2  0
M  RAD  1   7   2
M  END
>  <reaction>  (9) 
rxn_319

>  <mol_properties>  (9) 
{"0": {"label": "*3", "atom_type": "Cs"}, "1": {"label": "*2", "atom_type": "H0"}, "2": {"label": "*4", "atom_type": "H0"}, "6": {"label": "*1", "atom_type": "CO"}, "7": {"label": "*0", "atom_type": "O2d"}}

>  <type>  (9) 
unop_5

>  <geom_source>  (9) 
Heuristics

$$$$

     RDKit          3D

 11  9  0  0  0  0  0  0  0  0999 V2000
   -0.1082   -2.0208   -0.8943 C   0  0  0  0  0  0  0  0  0  0  0  0
   -0.1082   -0.7888   -0.4588 H   0  0  0  0  0  0  0  0  0  0  0  0
    0.7809   -2.5341   -0.5314 H   0  0  0  0  0  0  0  0  0  0  0  0
   -0.9973   -2.5341   -0.5314 H   0  0  0  0  0  0  0  0  0  0  0  0
   -0.1082   -2.0208   -1.9833 H   0  0  0  0  0  0  0  0  0  0  0  0
    1.2493    1.0669    0.1973 C   0  0  0  0  0  0  0  0  0  0  0  0
   -0.1082    0.4678   -0.0145 C   0  0  0  0  0  3  0  0  0  0  0  0
   -1.0486    0.6333    0.7109 O   0  0  0  0  0  0  0  0  0  0  0  0
    1.2687    1.6742    1.0999 H   0  0  0  0  0  0  0  0  0  0  0  0
    1.9913    0.2670    0.2647 H   0  0  0  0  0  0  0  0  0  0  0  0
    1.5166    1.6738   -0.6717 H   0  0  0  0  0  0  0  0  0  0  0  0
  1  2  1  0
  1  3  1  0
  1  4  1  0
  1  5  1  0
  6  7  1  0
  6  9  1  0
  6 10  1  0
  6 11  1  0
  7  8  2  0
M  RAD  1   7   2
M  END
>  <reaction>  (10) 
rxn_319

>  <mol_properties>  (10) 
{"0": {"label": "*3", "atom_type": "Cs"}, "1": {"label": "*2", "atom_type": "H0"}, "2": {"label": "*4", "atom_type": "H0"}, "6": {"label": "*1", "atom_type": "CO"}, "7": {"label": "*0", "atom_type": "O2d"}}

>  <type>  (10) 
unop_6

>  <geom_source>  (10) 
Heuristics

$$$$

     RDKit          3D

 11  9  0  0  0  0  0  0  0  0999 V2000
   -0.0080   -2.0051   -0.9275 C   0  0  0  0  0  0  0  0  0  0  0  0
   -0.0080   -0.7731   -0.4919 H   0  0  0  0  0  0  0  0  0  0  0  0
    0.8811   -2.5184   -0.5645 H   0  0  0  0  0  0  0  0  0  0  0  0
   -0.8971   -2.5184   -0.5645 H   0  0  0  0  0  0  0  0  0  0  0  0
   -0.0080   -2.0051   -2.0164 H   0  0  0  0  0  0  0  0  0  0  0  0
    1.1676    0.8564    0.8041 C   0  0  0  0  0  0  0  0  0  0  0  0
   -0.0080    0.4836   -0.0477 C   0  0  0  0  0  3  0  0  0  0  0  0
   -1.1402    0.8143    0.1684 O   0  0  0  0  0  0  0  0  0  0  0  0
    0.8567    1.4692    1.6476 H   0  0  0  0  0  0  0  0  0  0  0  0
    1.6599   -0.0527    1.1593 H   0  0  0  0  0  0  0  0  0  0  0  0
    1.8989    1.3949    0.1957 H   0  0  0  0  0  0  0  0  0  0  0  0
  1  2  1  0
  1  3  1  0
  1  4  1  0
  1  5  1  0
  6  7  1  0
  6  9  1  0
  6 10  1  0
  6 11  1  0
  7  8  2  0
M  RAD  1   7   2
M  END
>  <reaction>  (11) 
rxn_319

>  <mol_properties>  (11) 
{"0": {"label": "*3", "atom_type": "Cs"}, "1": {"label": "*2", "atom_type": "H0"}, "2": {"label": "*4", "atom_type": "H0"}, "6": {"label": "*1", "atom_type": "CO"}, "7": {"label": "*0", "atom_type": "O2d"}}

>  <type>  (11) 
unop_7

>  <geom_source>  (11) 
Heuristics

$$$$

     RDKit          3D

 11  9  0  0  0  0  0  0  0  0999 V2000
    0.1082   -2.0208   -0.8943 C   0  0  0  0  0  0  0  0  0  0  0  0
    0.1082   -0.7888   -0.4588 H   0  0  0  0  0  0  0  0  0  0  0  0
    0.9973   -2.5341   -0.5314 H   0  0  0  0  0  0  0  0  0  0  0  0
   -0.7809   -2.5341   -0.5314 H   0  0  0  0  0  0  0  0  0  0  0  0
    0.1082   -2.0208   -1.9833 H   0  0  0  0  0  0  0  0  0  0  0  0
   -1.2493    1.0669    0.1973 C   0  0  0  0  0  0  0  0  0  0  0  0
    0.1082    0.4678   -0.0145 C   0  0  0  0  0  3  0  0  0  0  0  0
    1.0486    0.6333    0.7109 O   0  0  0  0  0  0  0  0  0  0  0  0
   -1.2687    1.6742    1.0999 H   0  0  0  0  0  0  0  0  0  0  0  0
   -1.5165    1.6738   -0.6717 H   0  0  0  0  0  0  0  0  0  0  0  0
   -1.9913    0.2670    0.2647 H   0  0  0  0  0  0  0  0  0  0  0  0
  1  2  1  0
  1  3  1  0
  1  4  1  0
  1  5  1  0
  6  7  1  0
  6  9  1  0
  6 10  1  0
  6 11  1  0
  7  8  2  0
M  RAD  1   7   2
M  END
>  <reaction>  (12) 
rxn_319

>  <mol_properties>  (12) 
{"0": {"label": "*3", "atom_type": "Cs"}, "1": {"label": "*2", "atom_type": "H0"}, "2": {"label": "*4", "atom_type": "H0"}, "6": {"label": "*1", "atom_type": "CO"}, "7": {"label": "*0", "atom_type": "O2d"}}

>  <type>  (12) 
unop_8

>  <geom_source>  (12) 
Heuristics

$$$$

     RDKit          3D

 11  9  0  0  0  0  0  0  0  0999 V2000
   -0.1135   -2.1308   -0.7156 C   0  0  0  0  0  0  0  0  0  0  0  0
   -0.1135   -0.8988   -0.2800 H   0  0  0  0  0  0  0  0  0  0  0  0
    0.7756   -2.6441   -0.3526 H   0  0  0  0  0  0  0  0  0  0  0  0
   -1.0026   -2.6441   -0.3526 H   0  0  0  0  0  0  0  0  0  0  0  0
   -0.1135   -2.1308   -1.8045 H   0  0  0  0  0  0  0  0  0  0  0  0
    0.5653    1.3488   -0.7323 C   0  0  0  0  0  0  0  0  0  0  0  0
   -0.1135    0.3579    0.1643 C   0  0  0  0  0  3  0  0  0  0  0  0
   -0.3635    0.5437    1.3223 O   0  0  0  0  0  0  0  0  0  0  0  0
    0.8020    2.2627   -0.1914 H   0  0  0  0  0  0  0  0  0  0  0  0
    1.4773    0.9038   -1.1386 H   0  0  0  0  0  0  0  0  0  0  0  0
   -0.0842    1.5713   -1.5830 H   0  0  0  0  0  0  0  0  0  0  0  0
  1  2  1  0
  1  3  1  0
  1  4  1  0
  1  5  1  0
  6  7  1  0
  6  9  1  0
  6 10  1  0
  6 11  1  0
  7  8  2  0
M  RAD  1   7   2
M  END
>  <reaction>  (13) 
rxn_319

>  <mol_properties>  (13) 
{"0": {"label": "*3", "atom_type": "Cs"}, "1": {"label": "*2", "atom_type": "H0"}, "2": {"label": "*4", "atom_type": "H0"}, "6": {"label": "*1", "atom_type": "CO"}, "7": {"label": "*0", "atom_type": "O2d"}}

>  <type>  (13) 
unop_9

>  <geom_source>  (13) 
Heuristics

$$$$

     RDKit          3D

 11  9  0  0  0  0  0  0  0  0999 V2000
    0.1548   -2.0728   -0.8076 C   0  0  0  0  0  0  0  0  0  0  0  0
    0.1548   -0.8408   -0.3721 H   0  0  0  0  0  0  0  0  0  0  0  0
    1.0439   -2.5861   -0.4447 H   0  0  0  0  0  0  0  0  0  0  0  0
   -0.7343   -2.5861   -0.4447 H   0  0  0  0  0  0  0  0  0  0  0  0
    0.1548   -2.0728   -1.8966 H   0  0  0  0  0  0  0  0  0  0  0  0
   -1.0208    1.2411   -0.3559 C   0  0  0  0  0  0  0  0  0  0  0  0
    0.1548    0.4158    0.0722 C   0  0  0  0  0  3  0  0  0  0  0  0
    0.7427    0.5505    1.1087 O   0  0  0  0  0  0  0  0  0  0  0  0
   -1.2713    1.9815    0.4011 H   0  0  0  0  0  0  0  0  0  0  0  0
   -0.7908    1.7340   -1.3042 H   0  0  0  0  0  0  0  0  0  0  0  0
   -1.8758    0.5852   -0.5396 H   0  0  0  0  0  0  0  0  0  0  0  0
  1  2  1  0
  1  3  1  0
  1  4  1  0
  1  5  1  0
  6  7  1  0
  6  9  1  0
  6 10  1  0
  6 11  1  0
  7  8  2  0
M  RAD  1   7   2
M  END
>  <reaction>  (14) 
rxn_319

>  <mol_properties>  (14) 
{"0": {"label": "*3", "atom_type": "Cs"}, "1": {"label": "*2", "atom_type": "H0"}, "2": {"label": "*4", "atom_type": "H0"}, "6": {"label": "*1", "atom_type": "CO"}, "7": {"label": "*0", "atom_type": "O2d"}}

>  <type>  (14) 
unop_10

>  <geom_source>  (14) 
Heuristics

$$$$

     RDKit          3D

 11  9  0  0  0  0  0  0  0  0999 V2000
    0.0687   -2.0466   -0.8858 C   0  0  0  0  0  0  0  0  0  0  0  0
    0.0687   -0.8146   -0.4503 H   0  0  0  0  0  0  0  0  0  0  0  0
    0.9578   -2.5599   -0.5229 H   0  0  0  0  0  0  0  0  0  0  0  0
   -0.8204   -2.5599   -0.5229 H   0  0  0  0  0  0  0  0  0  0  0  0
    0.0687   -2.0466   -1.9748 H   0  0  0  0  0  0  0  0  0  0  0  0
    0.7474    0.6492    1.3142 C   0  0  0  0  0  0  0  0  0  0  0  0
    0.0687    0.4420   -0.0060 C   0  0  0  0  0  3  0  0  0  0  0  0
   -0.8567    1.0904   -0.4074 O   0  0  0  0  0  0  0  0  0  0  0  0
    0.2876    1.4690    1.8623 H   0  0  0  0  0  0  0  0  0  0  0  0
    0.6920   -0.2732    1.8983 H   0  0  0  0  0  0  0  0  0  0  0  0
    1.8081    0.8547    1.1474 H   0  0  0  0  0  0  0  0  0  0  0  0
  1  2  1  0
  1  3  1  0
  1  4  1  0
  1  5  1  0
  6  7  1  0
  6  9  1  0
  6 10  1  0
  6 11  1  0
  7  8  2  0
M  RAD  1   7   2
M  END
>  <reaction>  (15) 
rxn_319

>  <mol_properties>  (15) 
{"0": {"label": "*3", "atom_type": "Cs"}, "1": {"label": "*2", "atom_type": "H0"}, "2": {"label": "*4", "atom_type": "H0"}, "6": {"label": "*1", "atom_type": "CO"}, "7": {"label": "*0", "atom_type": "O2d"}}

>  <type>  (15) 
unop_11

>  <geom_source>  (15) 
Heuristics

$$$$

     RDKit          3D

 11  9  0  0  0  0  0  0  0  0999 V2000
   -0.0000   -2.1570   -0.6753 C   0  0  0  0  0  0  0  0  0  0  0  0
   -0.0000   -0.9250   -0.2397 H   0  0  0  0  0  0  0  0  0  0  0  0
    0.8891   -2.6703   -0.3123 H   0  0  0  0  0  0  0  0  0  0  0  0
   -0.8891   -2.6703   -0.3123 H   0  0  0  0  0  0  0  0  0  0  0  0
   -0.0000   -2.1570   -1.7643 H   0  0  0  0  0  0  0  0  0  0  0  0
   -0.0000    1.3832   -0.8635 C   0  0  0  0  0  0  0  0  0  0  0  0
   -0.0000    0.3317    0.2045 C   0  0  0  0  0  3  0  0  0  0  0  0
    0.0000    0.5548    1.3828 O   0  0  0  0  0  0  0  0  0  0  0  0
   -0.0000    2.3798   -0.4267 H   0  0  0  0  0  0  0  0  0  0  0  0
    0.8777    1.2509   -1.5016 H   0  0  0  0  0  0  0  0  0  0  0  0
   -0.8777    1.2509   -1.5016 H   0  0  0  0  0  0  0  0  0  0  0  0
  1  2  1  0
  1  3  1  0
  1  4  1  0
  1  5  1  0
  6  7  1  0
  6  9  1  0
  6 10  1  0
  6 11  1  0
  7  8  2  0
M  RAD  1   7   2
M  END
>  <reaction>  (16) 
rxn_319

>  <mol_properties>  (16) 
{"0": {"label": "*3", "atom_type": "Cs"}, "1": {"label": "*2", "atom_type": "H0"}, "2": {"label": "*4", "atom_type": "H0"}, "6": {"label": "*1", "atom_type": "CO"}, "7": {"label": "*0", "atom_type": "O2d"}}

>  <type>  (16) 
unop_12

>  <geom_source>  (16) 
Heuristics

$$$$

     RDKit          3D

 11  9  0  0  0  0  0  0  0  0999 V2000
   -0.3792    1.8424   -0.4192 O   0  0  0  0  0  0  0  0  0  0  0  0
   -1.7855   -0.0503   -0.3016 C   0  0  0  0  0  0  0  0  0  0  0  0
   -0.4939    0.6710   -0.0964 C   0  0  0  0  0  3  0  0  0  0  0  0
    1.8340   -0.3661    0.3902 C   0  0  0  0  0  0  0  0  0  0  0  0
   -2.5440    0.6204   -0.7591 H   0  0  0  0  0  0  0  0  0  0  0  0
   -1.6179   -0.9193   -0.9707 H   0  0  0  0  0  0  0  0  0  0  0  0
   -2.1630   -0.4119    0.6770 H   0  0  0  0  0  0  0  0  0  0  0  0
    0.5879    0.0001    0.4681 H   0  0  0  0  0  0  0  0  0  0  0  0
    2.1625   -0.0282   -0.6142 H   0  0  0  0  0  0  0  0  0  0  0  0
    1.9318   -1.4690    0.4597 H   0  0  0  0  0  0  0  0  0  0  0  0
    2.4674    0.1109    1.1662 H   0  0  0  0  0  0  0  0  0  0  0  0
  1  3  2  0
  2  3  1  0
  2  5  1  0
  2  6  1  0
  2  7  1  0
  4  8  1  0
  4  9  1  0
  4 10  1  0
  4 11  1  0
M  RAD  1   3   2
M  END
>  <reaction>  (17) 
rxn_319

>  <mol_properties>  (17) 
{"0": {"label": "*3", "atom_type": "Cs"}, "1": {"label": "*2", "atom_type": "H0"}, "2": {"label": "*4", "atom_type": "H0"}, "6": {"label": "*1", "atom_type": "CO"}, "7": {"label": "*0", "atom_type": "O2d"}}

>  <type>  (17) 
unop_13

>  <geom_source>  (17) 
AutoTST

$$$$
