
     RDKit          3D

  7  6  0  0  0  0  0  0  0  0999 V2000
    1.6964   -0.0938    0.0583 C   0  0  0  0  0  0  0  0  0  0  0  0
    0.5019   -0.0278    0.0173 C   0  0  0  0  0  0  0  0  0  0  0  0
   -0.9505    0.0525   -0.0327 C   0  0  0  0  0  0  0  0  0  0  0  0
    2.7574   -0.1524    0.0947 H   0  0  0  0  0  0  0  0  0  0  0  0
   -1.2692    0.9972   -0.4754 H   0  0  0  0  0  0  0  0  0  0  0  0
   -1.3749   -0.0147    0.9700 H   0  0  0  0  0  0  0  0  0  0  0  0
   -1.3610   -0.7611   -0.6323 H   0  0  0  0  0  0  0  0  0  0  0  0
  1  2  3  0
  1  4  1  0
  2  3  1  0
  3  5  1  0
  3  6  1  0
  3  7  1  0
M  END
>  <reaction>  (1) 
rxn_1232

>  <mol_properties>  (1) 
{"2": {"label": "donator", "atom_type": "Cs"}, "4": {"label": "d_hydrogen", "atom_type": "H0"}}

>  <type>  (1) 
r1h

$$$$

     RDKit          3D

  9  8  0  0  0  0  0  0  0  0999 V2000
    1.8963   -0.1405   -0.2150 C   0  0  0  0  0  0  0  0  0  0  0  0
    0.6340    0.1486   -0.2254 C   0  0  0  0  0  3  0  0  0  0  0  0
   -0.6770    0.4501   -0.2373 C   0  0  0  0  0  0  0  0  0  0  0  0
   -1.6600   -0.2303    0.4662 C   0  0  0  0  0  0  0  0  0  0  0  0
    2.3274   -0.8354   -0.9313 H   0  0  0  0  0  0  0  0  0  0  0  0
    2.5751    0.2988    0.5117 H   0  0  0  0  0  0  0  0  0  0  0  0
   -0.9723    1.2966   -0.8520 H   0  0  0  0  0  0  0  0  0  0  0  0
   -2.6934    0.0777    0.4015 H   0  0  0  0  0  0  0  0  0  0  0  0
   -1.4140   -1.0782    1.0904 H   0  0  0  0  0  0  0  0  0  0  0  0
  1  2  2  3
  1  5  1  0
  1  6  1  0
  2  3  1  0
  3  4  2  3
  3  7  1  0
  4  8  1  0
  4  9  1  0
M  RAD  1   2   2
M  END
>  <reaction>  (2) 
rxn_1232

>  <mol_properties>  (2) 
{"1": {"label": "acceptor", "atom_type": "Cd"}}

>  <type>  (2) 
r2

$$$$

     RDKit          3D

 10  9  0  0  0  0  0  0  0  0999 V2000
    1.8334    0.0847   -0.1062 C   0  0  0  0  0  0  0  0  0  0  0  0
    0.5993   -0.4071   -0.0750 C   0  0  0  0  0  0  0  0  0  0  0  0
   -0.5993    0.4071    0.0750 C   0  0  0  0  0  0  0  0  0  0  0  0
   -1.8334   -0.0847    0.1062 C   0  0  0  0  0  0  0  0  0  0  0  0
    2.0179    1.1498   -0.0189 H   0  0  0  0  0  0  0  0  0  0  0  0
    2.6972   -0.5572   -0.2194 H   0  0  0  0  0  0  0  0  0  0  0  0
    0.4465   -1.4793   -0.1649 H   0  0  0  0  0  0  0  0  0  0  0  0
   -0.4465    1.4793    0.1649 H   0  0  0  0  0  0  0  0  0  0  0  0
   -2.0179   -1.1498    0.0189 H   0  0  0  0  0  0  0  0  0  0  0  0
   -2.6972    0.5572    0.2194 H   0  0  0  0  0  0  0  0  0  0  0  0
  1  2  2  3
  1  5  1  0
  1  6  1  0
  2  3  1  0
  2  7  1  0
  3  4  2  3
  3  8  1  0
  4  9  1  0
  4 10  1  0
M  END
>  <reaction>  (3) 
rxn_1232

>  <mol_properties>  (3) 
{"0": {"label": "a_hydrogen", "atom_type": "H0"}, "2": {"label": "acceptor", "atom_type": "Cd"}}

>  <type>  (3) 
r2h

$$$$

     RDKit          3D

 16 14  0  0  0  0  0  0  0  0999 V2000
    0.7779   -1.4242   -2.8193 C   0  0  0  0  0  0  0  0  0  0  0  0
    0.1915   -1.4396   -1.7708 C   0  0  0  0  0  0  0  0  0  0  0  0
   -0.4811   -1.4047   -0.5097 C   0  0  0  0  0  0  0  0  0  0  0  0
    1.2887   -1.4279   -3.7518 H   0  0  0  0  0  0  0  0  0  0  0  0
   -0.1485   -0.3323    0.0783 H   0  0  0  0  0  0  0  0  0  0  0  0
   -0.1727   -2.1943    0.1732 H   0  0  0  0  0  0  0  0  0  0  0  0
   -1.5646   -1.3426   -0.5928 H   0  0  0  0  0  0  0  0  0  0  0  0
    1.1239    1.5531   -0.1377 C   0  0  0  0  0  0  0  0  0  0  0  0
    0.2929    0.9017    0.6484 C   0  0  0  0  0  3  0  0  0  0  0  0
   -0.2372    1.2108    1.9554 C   0  0  0  0  0  0  0  0  0  0  0  0
   -1.0817    0.4392    2.6321 C   0  0  0  0  0  0  0  0  0  0  0  0
    1.4125    1.1551   -1.1047 H   0  0  0  0  0  0  0  0  0  0  0  0
    1.5497    2.5116    0.1544 H   0  0  0  0  0  0  0  0  0  0  0  0
    0.0974    2.1514    2.3931 H   0  0  0  0  0  0  0  0  0  0  0  0
   -1.4447    0.7256    3.6102 H   0  0  0  0  0  0  0  0  0  0  0  0
   -1.4349   -0.5019    2.2276 H   0  0  0  0  0  0  0  0  0  0  0  0
  1  2  3  0
  1  4  1  0
  2  3  1  0
  3  5  1  0
  3  6  1  0
  3  7  1  0
  8  9  2  3
  8 12  1  0
  8 13  1  0
  9 10  1  0
 10 11  2  3
 10 14  1  0
 11 15  1  0
 11 16  1  0
M  RAD  1   9   2
M  END
>  <reaction>  (4) 
rxn_1232

>  <mol_properties>  (4) 
{"1": {"label": "*0", "atom_type": "Ct"}, "2": {"label": "*1", "atom_type": "Cs"}, "4": {"label": "*2", "atom_type": "H0"}, "8": {"label": "*3", "atom_type": "Cd"}, "9": {"label": "*4", "atom_type": "Cd"}}

>  <type>  (4) 
ts

$$$$

     RDKit          3D

 16 14  0  0  0  0  0  0  0  0999 V2000
    0.1869   -1.5339   -2.8752 C   0  0  0  0  0  0  0  0  0  0  0  0
    0.1869   -1.5339   -1.6782 C   0  0  0  0  0  0  0  0  0  0  0  0
    0.1869   -1.5339   -0.2228 C   0  0  0  0  0  3  0  0  0  0  0  0
    0.1869   -1.5339   -3.9385 H   0  0  0  0  0  0  0  0  0  0  0  0
    0.2983   -0.3143    0.2396 H   0  0  0  0  0  0  0  0  0  0  0  0
    1.0206   -2.1225    0.1626 H   0  0  0  0  0  0  0  0  0  0  0  0
   -0.7397   -1.9616    0.1626 H   0  0  0  0  0  0  0  0  0  0  0  0
    1.6951    1.1101    0.9626 C   0  0  0  0  0  0  0  0  0  0  0  0
    0.4094    0.9005    0.7003 C   0  0  0  0  0  0  0  0  0  0  0  0
   -0.6821    1.3769    1.5394 C   0  0  0  0  0  0  0  0  0  0  0  0
   -1.9679    1.1673    1.2771 C   0  0  0  0  0  0  0  0  0  0  0  0
    2.4749    0.7378    0.3113 H   0  0  0  0  0  0  0  0  0  0  0  0
    2.0080    1.6631    1.8414 H   0  0  0  0  0  0  0  0  0  0  0  0
   -0.3998    1.9349    2.4281 H   0  0  0  0  0  0  0  0  0  0  0  0
   -2.7477    1.5396    1.9285 H   0  0  0  0  0  0  0  0  0  0  0  0
   -2.2808    0.6143    0.3983 H   0  0  0  0  0  0  0  0  0  0  0  0
  1  2  3  0
  1  4  1  0
  2  3  1  0
  3  6  1  0
  3  7  1  0
  5  9  1  0
  8  9  2  3
  8 12  1  0
  8 13  1  0
  9 10  1  0
 10 11  2  3
 10 14  1  0
 11 15  1  0
 11 16  1  0
M  RAD  1   3   2
M  END
>  <reaction>  (5) 
rxn_1232

>  <mol_properties>  (5) 
{"1": {"label": "*0", "atom_type": "Ct"}, "2": {"label": "*1", "atom_type": "Cs"}, "4": {"label": "*2", "atom_type": "H0"}, "8": {"label": "*3", "atom_type": "Cd"}, "9": {"label": "*4", "atom_type": "Cd"}}

>  <type>  (5) 
unop_1

>  <geom_source>  (5) 
Heuristics

$$$$

     RDKit          3D

 16 14  0  0  0  0  0  0  0  0999 V2000
    0.0371   -1.7076   -2.3867 C   0  0  0  0  0  0  0  0  0  0  0  0
    0.0371   -1.7076   -1.1896 C   0  0  0  0  0  0  0  0  0  0  0  0
    0.0371   -1.7076    0.2658 C   0  0  0  0  0  3  0  0  0  0  0  0
    0.0371   -1.7076   -3.4499 H   0  0  0  0  0  0  0  0  0  0  0  0
    0.1486   -0.4881    0.7282 H   0  0  0  0  0  0  0  0  0  0  0  0
    0.8708   -2.2962    0.6512 H   0  0  0  0  0  0  0  0  0  0  0  0
   -0.8895   -2.1353    0.6512 H   0  0  0  0  0  0  0  0  0  0  0  0
    0.5471    0.8648    2.4789 C   0  0  0  0  0  0  0  0  0  0  0  0
    0.2596    0.7268    1.1889 C   0  0  0  0  0  0  0  0  0  0  0  0
   -0.2988    1.7868    0.3601 C   0  0  0  0  0  0  0  0  0  0  0  0
   -0.5863    1.6489   -0.9300 C   0  0  0  0  0  0  0  0  0  0  0  0
    0.9614    0.0500    3.0580 H   0  0  0  0  0  0  0  0  0  0  0  0
    0.3757    1.8018    2.9973 H   0  0  0  0  0  0  0  0  0  0  0  0
   -0.4817    2.7385    0.8518 H   0  0  0  0  0  0  0  0  0  0  0  0
   -1.0006    2.4637   -1.5091 H   0  0  0  0  0  0  0  0  0  0  0  0
   -0.4149    0.7118   -1.4483 H   0  0  0  0  0  0  0  0  0  0  0  0
  1  2  3  0
  1  4  1  0
  2  3  1  0
  3  6  1  0
  3  7  1  0
  5  9  1  0
  8  9  2  3
  8 12  1  0
  8 13  1  0
  9 10  1  0
 10 11  2  3
 10 14  1  0
 11 15  1  0
 11 16  1  0
M  RAD  1   3   2
M  END
>  <reaction>  (6) 
rxn_1232

>  <mol_properties>  (6) 
{"1": {"label": "*0", "atom_type": "Ct"}, "2": {"label": "*1", "atom_type": "Cs"}, "4": {"label": "*2", "atom_type": "H0"}, "8": {"label": "*3", "atom_type": "Cd"}, "9": {"label": "*4", "atom_type": "Cd"}}

>  <type>  (6) 
unop_2

>  <geom_source>  (6) 
Heuristics

$$$$

     RDKit          3D

 16 14  0  0  0  0  0  0  0  0999 V2000
    0.0510   -1.4744   -3.0023 C   0  0  0  0  0  0  0  0  0  0  0  0
    0.0510   -1.4744   -1.8052 C   0  0  0  0  0  0  0  0  0  0  0  0
    0.0510   -1.4744   -0.3498 C   0  0  0  0  0  3  0  0  0  0  0  0
    0.0510   -1.4744   -4.0655 H   0  0  0  0  0  0  0  0  0  0  0  0
    0.1624   -0.2548    0.1126 H   0  0  0  0  0  0  0  0  0  0  0  0
    0.8847   -2.0629    0.0356 H   0  0  0  0  0  0  0  0  0  0  0  0
   -0.8756   -1.9021    0.0356 H   0  0  0  0  0  0  0  0  0  0  0  0
    1.3847    1.5557    0.1535 C   0  0  0  0  0  0  0  0  0  0  0  0
    0.2734    0.9601    0.5733 C   0  0  0  0  0  0  0  0  0  0  0  0
   -0.3576    1.2249    1.8593 C   0  0  0  0  0  0  0  0  0  0  0  0
   -1.4689    0.6292    2.2791 C   0  0  0  0  0  0  0  0  0  0  0  0
    1.8203    1.3289   -0.8107 H   0  0  0  0  0  0  0  0  0  0  0  0
    1.8948    2.2920    0.7649 H   0  0  0  0  0  0  0  0  0  0  0  0
    0.1308    1.9586    2.4948 H   0  0  0  0  0  0  0  0  0  0  0  0
   -1.9045    0.8560    3.2433 H   0  0  0  0  0  0  0  0  0  0  0  0
   -1.9790   -0.1071    1.6677 H   0  0  0  0  0  0  0  0  0  0  0  0
  1  2  3  0
  1  4  1  0
  2  3  1  0
  3  6  1  0
  3  7  1  0
  5  9  1  0
  8  9  2  3
  8 12  1  0
  8 13  1  0
  9 10  1  0
 10 11  2  3
 10 14  1  0
 11 15  1  0
 11 16  1  0
M  RAD  1   3   2
M  END
>  <reaction>  (7) 
rxn_1232

>  <mol_properties>  (7) 
{"1": {"label": "*0", "atom_type": "Ct"}, "2": {"label": "*1", "atom_type": "Cs"}, "4": {"label": "*2", "atom_type": "H0"}, "8": {"label": "*3", "atom_type": "Cd"}, "9": {"label": "*4", "atom_type": "Cd"}}

>  <type>  (7) 
unop_3

>  <geom_source>  (7) 
Heuristics

$$$$

     RDKit          3D

 16 14  0  0  0  0  0  0  0  0999 V2000
   -0.4800   -1.6092   -2.5189 C   0  0  0  0  0  0  0  0  0  0  0  0
   -0.4800   -1.6092   -1.3219 C   0  0  0  0  0  0  0  0  0  0  0  0
   -0.4800   -1.6092    0.1335 C   0  0  0  0  0  3  0  0  0  0  0  0
   -0.4800   -1.6092   -3.5822 H   0  0  0  0  0  0  0  0  0  0  0  0
   -0.3686   -0.3896    0.5960 H   0  0  0  0  0  0  0  0  0  0  0  0
    0.3537   -2.1977    0.5189 H   0  0  0  0  0  0  0  0  0  0  0  0
   -1.4066   -2.0369    0.5189 H   0  0  0  0  0  0  0  0  0  0  0  0
   -0.8908    0.9888    2.2134 C   0  0  0  0  0  0  0  0  0  0  0  0
   -0.2575    0.8253    1.0566 C   0  0  0  0  0  0  0  0  0  0  0  0
    0.9441    1.5550    0.6747 C   0  0  0  0  0  0  0  0  0  0  0  0
    1.5774    1.3915   -0.4820 C   0  0  0  0  0  0  0  0  0  0  0  0
   -1.7818    0.4250    2.4569 H   0  0  0  0  0  0  0  0  0  0  0  0
   -0.5353    1.6951    2.9555 H   0  0  0  0  0  0  0  0  0  0  0  0
    1.3248    2.2706    1.3984 H   0  0  0  0  0  0  0  0  0  0  0  0
    2.4684    1.9552   -0.7255 H   0  0  0  0  0  0  0  0  0  0  0  0
    1.2219    0.6851   -1.2241 H   0  0  0  0  0  0  0  0  0  0  0  0
  1  2  3  0
  1  4  1  0
  2  3  1  0
  3  6  1  0
  3  7  1  0
  5  9  1  0
  8  9  2  3
  8 12  1  0
  8 13  1  0
  9 10  1  0
 10 11  2  3
 10 14  1  0
 11 15  1  0
 11 16  1  0
M  RAD  1   3   2
M  END
>  <reaction>  (8) 
rxn_1232

>  <mol_properties>  (8) 
{"1": {"label": "*0", "atom_type": "Ct"}, "2": {"label": "*1", "atom_type": "Cs"}, "4": {"label": "*2", "atom_type": "H0"}, "8": {"label": "*3", "atom_type": "Cd"}, "9": {"label": "*4", "atom_type": "Cd"}}

>  <type>  (8) 
unop_4

>  <geom_source>  (8) 
Heuristics

$$$$

     RDKit          3D

 16 14  0  0  0  0  0  0  0  0999 V2000
   -0.1318   -1.4423   -3.0470 C   0  0  0  0  0  0  0  0  0  0  0  0
   -0.1318   -1.4423   -1.8500 C   0  0  0  0  0  0  0  0  0  0  0  0
   -0.1318   -1.4423   -0.3946 C   0  0  0  0  0  3  0  0  0  0  0  0
   -0.1318   -1.4423   -4.1103 H   0  0  0  0  0  0  0  0  0  0  0  0
   -0.0204   -0.2227    0.0678 H   0  0  0  0  0  0  0  0  0  0  0  0
    0.7019   -2.0309   -0.0092 H   0  0  0  0  0  0  0  0  0  0  0  0
   -1.0584   -1.8700   -0.0092 H   0  0  0  0  0  0  0  0  0  0  0  0
    0.1837    2.0100   -0.3207 C   0  0  0  0  0  0  0  0  0  0  0  0
    0.0907    0.9922    0.5285 C   0  0  0  0  0  0  0  0  0  0  0  0
    0.1038    1.1360    1.9781 C   0  0  0  0  0  0  0  0  0  0  0  0
    0.0108    0.1182    2.8274 C   0  0  0  0  0  0  0  0  0  0  0  0
    0.1698    1.8580   -1.3920 H   0  0  0  0  0  0  0  0  0  0  0  0
    0.2770    3.0313    0.0319 H   0  0  0  0  0  0  0  0  0  0  0  0
    0.1963    2.1484    2.3620 H   0  0  0  0  0  0  0  0  0  0  0  0
    0.0247    0.2702    3.8987 H   0  0  0  0  0  0  0  0  0  0  0  0
   -0.0825   -0.9031    2.4748 H   0  0  0  0  0  0  0  0  0  0  0  0
  1  2  3  0
  1  4  1  0
  2  3  1  0
  3  6  1  0
  3  7  1  0
  5  9  1  0
  8  9  2  3
  8 12  1  0
  8 13  1  0
  9 10  1  0
 10 11  2  3
 10 14  1  0
 11 15  1  0
 11 16  1  0
M  RAD  1   3   2
M  END
>  <reaction>  (9) 
rxn_1232

>  <mol_properties>  (9) 
{"1": {"label": "*0", "atom_type": "Ct"}, "2": {"label": "*1", "atom_type": "Cs"}, "4": {"label": "*2", "atom_type": "H0"}, "8": {"label": "*3", "atom_type": "Cd"}, "9": {"label": "*4", "atom_type": "Cd"}}

>  <type>  (9) 
unop_5

>  <geom_source>  (9) 
Heuristics

$$$$

     RDKit          3D

 16 14  0  0  0  0  0  0  0  0999 V2000
   -0.5221   -1.5365   -2.6981 C   0  0  0  0  0  0  0  0  0  0  0  0
   -0.5221   -1.5365   -1.5011 C   0  0  0  0  0  0  0  0  0  0  0  0
   -0.5221   -1.5365   -0.0457 C   0  0  0  0  0  3  0  0  0  0  0  0
   -0.5221   -1.5365   -3.7614 H   0  0  0  0  0  0  0  0  0  0  0  0
   -0.4106   -0.3169    0.4168 H   0  0  0  0  0  0  0  0  0  0  0  0
    0.3116   -2.1251    0.3397 H   0  0  0  0  0  0  0  0  0  0  0  0
   -1.4487   -1.9642    0.3397 H   0  0  0  0  0  0  0  0  0  0  0  0
   -1.3206    1.1310    1.6955 C   0  0  0  0  0  0  0  0  0  0  0  0
   -0.2996    0.8980    0.8774 C   0  0  0  0  0  0  0  0  0  0  0  0
    1.0552    1.3822    1.1061 C   0  0  0  0  0  0  0  0  0  0  0  0
    2.0762    1.1492    0.2880 C   0  0  0  0  0  0  0  0  0  0  0  0
   -2.3124    0.7517    1.4870 H   0  0  0  0  0  0  0  0  0  0  0  0
   -1.1944    1.7111    2.6030 H   0  0  0  0  0  0  0  0  0  0  0  0
    1.2131    1.9671    2.0081 H   0  0  0  0  0  0  0  0  0  0  0  0
    3.0680    1.5285    0.4964 H   0  0  0  0  0  0  0  0  0  0  0  0
    1.9501    0.5690   -0.6195 H   0  0  0  0  0  0  0  0  0  0  0  0
  1  2  3  0
  1  4  1  0
  2  3  1  0
  3  6  1  0
  3  7  1  0
  5  9  1  0
  8  9  2  3
  8 12  1  0
  8 13  1  0
  9 10  1  0
 10 11  2  3
 10 14  1  0
 11 15  1  0
 11 16  1  0
M  RAD  1   3   2
M  END
>  <reaction>  (10) 
rxn_1232

>  <mol_properties>  (10) 
{"1": {"label": "*0", "atom_type": "Ct"}, "2": {"label": "*1", "atom_type": "Cs"}, "4": {"label": "*2", "atom_type": "H0"}, "8": {"label": "*3", "atom_type": "Cd"}, "9": {"label": "*4", "atom_type": "Cd"}}

>  <type>  (10) 
unop_6

>  <geom_source>  (10) 
Heuristics

$$$$

     RDKit          3D

 16 14  0  0  0  0  0  0  0  0999 V2000
   -0.4618   -1.4746   -2.8752 C   0  0  0  0  0  0  0  0  0  0  0  0
   -0.4618   -1.4746   -1.6782 C   0  0  0  0  0  0  0  0  0  0  0  0
   -0.4618   -1.4746   -0.2228 C   0  0  0  0  0  3  0  0  0  0  0  0
   -0.4618   -1.4746   -3.9385 H   0  0  0  0  0  0  0  0  0  0  0  0
   -0.3504   -0.2550    0.2396 H   0  0  0  0  0  0  0  0  0  0  0  0
    0.3719   -2.0632    0.1626 H   0  0  0  0  0  0  0  0  0  0  0  0
   -1.3884   -1.9023    0.1626 H   0  0  0  0  0  0  0  0  0  0  0  0
   -1.4658    1.3990    0.9626 C   0  0  0  0  0  0  0  0  0  0  0  0
   -0.2393    0.9598    0.7003 C   0  0  0  0  0  0  0  0  0  0  0  0
    0.9204    1.2304    1.5394 C   0  0  0  0  0  0  0  0  0  0  0  0
    2.1469    0.7913    1.2771 C   0  0  0  0  0  0  0  0  0  0  0  0
   -2.3002    1.1742    0.3113 H   0  0  0  0  0  0  0  0  0  0  0  0
   -1.6733    1.9996    1.8414 H   0  0  0  0  0  0  0  0  0  0  0  0
    0.7439    1.8304    2.4281 H   0  0  0  0  0  0  0  0  0  0  0  0
    2.9812    1.0160    1.9285 H   0  0  0  0  0  0  0  0  0  0  0  0
    2.3544    0.1907    0.3983 H   0  0  0  0  0  0  0  0  0  0  0  0
  1  2  3  0
  1  4  1  0
  2  3  1  0
  3  6  1  0
  3  7  1  0
  5  9  1  0
  8  9  2  3
  8 12  1  0
  8 13  1  0
  9 10  1  0
 10 11  2  3
 10 14  1  0
 11 15  1  0
 11 16  1  0
M  RAD  1   3   2
M  END
>  <reaction>  (11) 
rxn_1232

>  <mol_properties>  (11) 
{"1": {"label": "*0", "atom_type": "Ct"}, "2": {"label": "*1", "atom_type": "Cs"}, "4": {"label": "*2", "atom_type": "H0"}, "8": {"label": "*3", "atom_type": "Cd"}, "9": {"label": "*4", "atom_type": "Cd"}}

>  <type>  (11) 
unop_7

>  <geom_source>  (11) 
Heuristics

$$$$

     RDKit          3D

 16 14  0  0  0  0  0  0  0  0999 V2000
    0.2349   -1.6057   -2.6981 C   0  0  0  0  0  0  0  0  0  0  0  0
    0.2349   -1.6057   -1.5011 C   0  0  0  0  0  0  0  0  0  0  0  0
    0.2349   -1.6057   -0.0457 C   0  0  0  0  0  3  0  0  0  0  0  0
    0.2349   -1.6057   -3.7614 H   0  0  0  0  0  0  0  0  0  0  0  0
    0.3464   -0.3861    0.4168 H   0  0  0  0  0  0  0  0  0  0  0  0
    1.0686   -2.1942    0.3397 H   0  0  0  0  0  0  0  0  0  0  0  0
   -0.6917   -2.0334    0.3397 H   0  0  0  0  0  0  0  0  0  0  0  0
    1.5037    0.8728    1.6955 C   0  0  0  0  0  0  0  0  0  0  0  0
    0.4574    0.8288    0.8774 C   0  0  0  0  0  0  0  0  0  0  0  0
   -0.7872    1.5506    1.1061 C   0  0  0  0  0  0  0  0  0  0  0  0
   -1.8335    1.5065    0.2880 C   0  0  0  0  0  0  0  0  0  0  0  0
    2.4103    0.3201    1.4870 H   0  0  0  0  0  0  0  0  0  0  0  0
    1.4848    1.4662    2.6030 H   0  0  0  0  0  0  0  0  0  0  0  0
   -0.8364    2.1545    2.0081 H   0  0  0  0  0  0  0  0  0  0  0  0
   -2.7401    2.0593    0.4964 H   0  0  0  0  0  0  0  0  0  0  0  0
   -1.8146    0.9131   -0.6195 H   0  0  0  0  0  0  0  0  0  0  0  0
  1  2  3  0
  1  4  1  0
  2  3  1  0
  3  6  1  0
  3  7  1  0
  5  9  1  0
  8  9  2  3
  8 12  1  0
  8 13  1  0
  9 10  1  0
 10 11  2  3
 10 14  1  0
 11 15  1  0
 11 16  1  0
M  RAD  1   3   2
M  END
>  <reaction>  (12) 
rxn_1232

>  <mol_properties>  (12) 
{"1": {"label": "*0", "atom_type": "Ct"}, "2": {"label": "*1", "atom_type": "Cs"}, "4": {"label": "*2", "atom_type": "H0"}, "8": {"label": "*3", "atom_type": "Cd"}, "9": {"label": "*4", "atom_type": "Cd"}}

>  <type>  (12) 
unop_8

>  <geom_source>  (12) 
Heuristics

$$$$

     RDKit          3D

 16 14  0  0  0  0  0  0  0  0999 V2000
   -0.3461   -1.6726   -2.3867 C   0  0  0  0  0  0  0  0  0  0  0  0
   -0.3461   -1.6726   -1.1896 C   0  0  0  0  0  0  0  0  0  0  0  0
   -0.3461   -1.6726    0.2658 C   0  0  0  0  0  3  0  0  0  0  0  0
   -0.3461   -1.6726   -3.4499 H   0  0  0  0  0  0  0  0  0  0  0  0
   -0.2346   -0.4530    0.7282 H   0  0  0  0  0  0  0  0  0  0  0  0
    0.4877   -2.2612    0.6512 H   0  0  0  0  0  0  0  0  0  0  0  0
   -1.2726   -2.1003    0.6512 H   0  0  0  0  0  0  0  0  0  0  0  0
   -0.3813    0.9496    2.4789 C   0  0  0  0  0  0  0  0  0  0  0  0
   -0.1236    0.7618    1.1889 C   0  0  0  0  0  0  0  0  0  0  0  0
    0.6178    1.7031    0.3601 C   0  0  0  0  0  0  0  0  0  0  0  0
    0.8754    1.5153   -0.9300 C   0  0  0  0  0  0  0  0  0  0  0  0
   -0.9364    0.2234    3.0580 H   0  0  0  0  0  0  0  0  0  0  0  0
   -0.0429    1.8401    2.9973 H   0  0  0  0  0  0  0  0  0  0  0  0
    0.9702    2.6058    0.8518 H   0  0  0  0  0  0  0  0  0  0  0  0
    1.4306    2.2415   -1.5091 H   0  0  0  0  0  0  0  0  0  0  0  0
    0.5371    0.6248   -1.4483 H   0  0  0  0  0  0  0  0  0  0  0  0
  1  2  3  0
  1  4  1  0
  2  3  1  0
  3  6  1  0
  3  7  1  0
  5  9  1  0
  8  9  2  3
  8 12  1  0
  8 13  1  0
  9 10  1  0
 10 11  2  3
 10 14  1  0
 11 15  1  0
 11 16  1  0
M  RAD  1   3   2
M  END
>  <reaction>  (13) 
rxn_1232

>  <mol_properties>  (13) 
{"1": {"label": "*0", "atom_type": "Ct"}, "2": {"label": "*1", "atom_type": "Cs"}, "4": {"label": "*2", "atom_type": "H0"}, "8": {"label": "*3", "atom_type": "Cd"}, "9": {"label": "*4", "atom_type": "Cd"}}

>  <type>  (13) 
unop_9

>  <geom_source>  (13) 
Heuristics

$$$$

     RDKit          3D

 16 14  0  0  0  0  0  0  0  0999 V2000
    0.1804   -1.6695   -2.5189 C   0  0  0  0  0  0  0  0  0  0  0  0
    0.1804   -1.6695   -1.3219 C   0  0  0  0  0  0  0  0  0  0  0  0
    0.1804   -1.6695    0.1335 C   0  0  0  0  0  3  0  0  0  0  0  0
    0.1804   -1.6695   -3.5822 H   0  0  0  0  0  0  0  0  0  0  0  0
    0.2918   -0.4500    0.5960 H   0  0  0  0  0  0  0  0  0  0  0  0
    1.0141   -2.2581    0.5189 H   0  0  0  0  0  0  0  0  0  0  0  0
   -0.7462   -2.0972    0.5189 H   0  0  0  0  0  0  0  0  0  0  0  0
    1.0553    0.8109    2.2134 C   0  0  0  0  0  0  0  0  0  0  0  0
    0.4029    0.7649    1.0566 C   0  0  0  0  0  0  0  0  0  0  0  0
   -0.6466    1.7004    0.6747 C   0  0  0  0  0  0  0  0  0  0  0  0
   -1.2991    1.6544   -0.4820 C   0  0  0  0  0  0  0  0  0  0  0  0
    1.8293    0.0950    2.4569 H   0  0  0  0  0  0  0  0  0  0  0  0
    0.8337    1.5700    2.9555 H   0  0  0  0  0  0  0  0  0  0  0  0
   -0.8913    2.4732    1.3984 H   0  0  0  0  0  0  0  0  0  0  0  0
   -2.0731    2.3703   -0.7255 H   0  0  0  0  0  0  0  0  0  0  0  0
   -1.0774    0.8952   -1.2241 H   0  0  0  0  0  0  0  0  0  0  0  0
  1  2  3  0
  1  4  1  0
  2  3  1  0
  3  6  1  0
  3  7  1  0
  5  9  1  0
  8  9  2  3
  8 12  1  0
  8 13  1  0
  9 10  1  0
 10 11  2  3
 10 14  1  0
 11 15  1  0
 11 16  1  0
M  RAD  1   3   2
M  END
>  <reaction>  (14) 
rxn_1232

>  <mol_properties>  (14) 
{"1": {"label": "*0", "atom_type": "Ct"}, "2": {"label": "*1", "atom_type": "Cs"}, "4": {"label": "*2", "atom_type": "H0"}, "8": {"label": "*3", "atom_type": "Cd"}, "9": {"label": "*4", "atom_type": "Cd"}}

>  <type>  (14) 
unop_10

>  <geom_source>  (14) 
Heuristics

$$$$

     RDKit          3D

 16 14  0  0  0  0  0  0  0  0999 V2000
   -0.3174   -1.4407   -3.0023 C   0  0  0  0  0  0  0  0  0  0  0  0
   -0.3174   -1.4407   -1.8052 C   0  0  0  0  0  0  0  0  0  0  0  0
   -0.3174   -1.4407   -0.3498 C   0  0  0  0  0  3  0  0  0  0  0  0
   -0.3174   -1.4407   -4.0655 H   0  0  0  0  0  0  0  0  0  0  0  0
   -0.2059   -0.2211    0.1126 H   0  0  0  0  0  0  0  0  0  0  0  0
    0.5163   -2.0293    0.0356 H   0  0  0  0  0  0  0  0  0  0  0  0
   -1.2440   -1.8684    0.0356 H   0  0  0  0  0  0  0  0  0  0  0  0
   -1.0798    1.7810    0.1535 C   0  0  0  0  0  0  0  0  0  0  0  0
   -0.0949    0.9937    0.5733 C   0  0  0  0  0  0  0  0  0  0  0  0
    0.5738    1.1397    1.8593 C   0  0  0  0  0  0  0  0  0  0  0  0
    1.5586    0.3525    2.2791 C   0  0  0  0  0  0  0  0  0  0  0  0
   -1.5493    1.6369   -0.8107 H   0  0  0  0  0  0  0  0  0  0  0  0
   -1.4480    2.5975    0.7649 H   0  0  0  0  0  0  0  0  0  0  0  0
    0.2264    1.9499    2.4948 H   0  0  0  0  0  0  0  0  0  0  0  0
    2.0282    0.4966    3.2433 H   0  0  0  0  0  0  0  0  0  0  0  0
    1.9268   -0.4640    1.6677 H   0  0  0  0  0  0  0  0  0  0  0  0
  1  2  3  0
  1  4  1  0
  2  3  1  0
  3  6  1  0
  3  7  1  0
  5  9  1  0
  8  9  2  3
  8 12  1  0
  8 13  1  0
  9 10  1  0
 10 11  2  3
 10 14  1  0
 11 15  1  0
 11 16  1  0
M  RAD  1   3   2
M  END
>  <reaction>  (15) 
rxn_1232

>  <mol_properties>  (15) 
{"1": {"label": "*0", "atom_type": "Ct"}, "2": {"label": "*1", "atom_type": "Cs"}, "4": {"label": "*2", "atom_type": "H0"}, "8": {"label": "*3", "atom_type": "Cd"}, "9": {"label": "*4", "atom_type": "Cd"}}

>  <type>  (15) 
unop_11

>  <geom_source>  (15) 
Heuristics

$$$$

     RDKit          3D

 16 14  0  0  0  0  0  0  0  0999 V2000
   -0.1562   -1.7089   -2.3380 C   0  0  0  0  0  0  0  0  0  0  0  0
   -0.1562   -1.7089   -1.1410 C   0  0  0  0  0  0  0  0  0  0  0  0
   -0.1562   -1.7089    0.3145 C   0  0  0  0  0  3  0  0  0  0  0  0
   -0.1562   -1.7089   -3.4013 H   0  0  0  0  0  0  0  0  0  0  0  0
   -0.0447   -0.4893    0.7769 H   0  0  0  0  0  0  0  0  0  0  0  0
    0.6775   -2.2975    0.6998 H   0  0  0  0  0  0  0  0  0  0  0  0
   -1.0828   -2.1366    0.6998 H   0  0  0  0  0  0  0  0  0  0  0  0
    0.0850    0.9304    2.5504 C   0  0  0  0  0  0  0  0  0  0  0  0
    0.0663    0.7255    1.2375 C   0  0  0  0  0  0  0  0  0  0  0  0
    0.1634    1.7877    0.2452 C   0  0  0  0  0  0  0  0  0  0  0  0
    0.1447    1.5828   -1.0677 C   0  0  0  0  0  0  0  0  0  0  0  0
    0.0102    0.1112    3.2534 H   0  0  0  0  0  0  0  0  0  0  0  0
    0.1763    1.9289    2.9636 H   0  0  0  0  0  0  0  0  0  0  0  0
    0.2559    2.8001    0.6291 H   0  0  0  0  0  0  0  0  0  0  0  0
    0.2195    2.4020   -1.7707 H   0  0  0  0  0  0  0  0  0  0  0  0
    0.0534    0.5843   -1.4809 H   0  0  0  0  0  0  0  0  0  0  0  0
  1  2  3  0
  1  4  1  0
  2  3  1  0
  3  6  1  0
  3  7  1  0
  5  9  1  0
  8  9  2  3
  8 12  1  0
  8 13  1  0
  9 10  1  0
 10 11  2  3
 10 14  1  0
 11 15  1  0
 11 16  1  0
M  RAD  1   3   2
M  END
>  <reaction>  (16) 
rxn_1232

>  <mol_properties>  (16) 
{"1": {"label": "*0", "atom_type": "Ct"}, "2": {"label": "*1", "atom_type": "Cs"}, "4": {"label": "*2", "atom_type": "H0"}, "8": {"label": "*3", "atom_type": "Cd"}, "9": {"label": "*4", "atom_type": "Cd"}}

>  <type>  (16) 
unop_12

>  <geom_source>  (16) 
Heuristics

$$$$

     RDKit          3D

 16 14  0  0  0  0  0  0  0  0999 V2000
   -0.8632    0.7422   -0.2542 C   0  0  0  0  0  0  0  0  0  0  0  0
   -1.9804   -0.1428    0.1068 C   0  0  0  0  0  0  0  0  0  0  0  0
   -0.9805    2.0643   -0.1826 C   0  0  0  0  0  0  0  0  0  0  0  0
   -1.8577   -1.4643    0.0333 C   0  0  0  0  0  0  0  0  0  0  0  0
    1.2903   -0.6952   -0.4051 C   0  0  0  0  0  3  0  0  0  0  0  0
    2.4615   -0.3259    0.3902 C   0  0  0  0  0  0  0  0  0  0  0  0
    3.4263   -0.0216    1.0457 C   0  0  0  0  0  0  0  0  0  0  0  0
    0.2231    0.2499   -0.6375 H   0  0  0  0  0  0  0  0  0  0  0  0
   -2.9213    0.2807    0.4386 H   0  0  0  0  0  0  0  0  0  0  0  0
   -0.1435    2.6937   -0.4538 H   0  0  0  0  0  0  0  0  0  0  0  0
   -1.9024    2.5297    0.1438 H   0  0  0  0  0  0  0  0  0  0  0  0
   -0.9337   -1.9250   -0.2937 H   0  0  0  0  0  0  0  0  0  0  0  0
   -2.6907   -2.1004    0.3030 H   0  0  0  0  0  0  0  0  0  0  0  0
    1.4196   -0.3318   -1.4454 H   0  0  0  0  0  0  0  0  0  0  0  0
    1.1792   -1.7991   -0.4102 H   0  0  0  0  0  0  0  0  0  0  0  0
    4.2734    0.2456    1.6211 H   0  0  0  0  0  0  0  0  0  0  0  0
  1  3  2  3
  1  2  1  0
  1  8  1  0
  2  4  2  3
  2  9  1  0
  3 10  1  0
  3 11  1  0
  4 12  1  0
  4 13  1  0
  5  6  1  0
  5 14  1  0
  5 15  1  0
  6  7  3  0
  7 16  1  0
M  RAD  1   5   2
M  END
>  <reaction>  (17) 
rxn_1232

>  <mol_properties>  (17) 
{"1": {"label": "*0", "atom_type": "Ct"}, "2": {"label": "*1", "atom_type": "Cs"}, "4": {"label": "*2", "atom_type": "H0"}, "8": {"label": "*3", "atom_type": "Cd"}, "9": {"label": "*4", "atom_type": "Cd"}}

>  <type>  (17) 
unop_13

>  <geom_source>  (17) 
AutoTST

$$$$
