
     RDKit          3D

  8  7  0  0  0  0  0  0  0  0999 V2000
    0.7610    0.0250    0.0051 C   0  0  0  0  0  0  0  0  0  0  0  0
   -0.7610   -0.0250   -0.0051 C   0  0  0  0  0  0  0  0  0  0  0  0
    1.1904   -0.9237   -0.3217 H   0  0  0  0  0  0  0  0  0  0  0  0
    1.1359    0.8041   -0.6609 H   0  0  0  0  0  0  0  0  0  0  0  0
    1.1435    0.2336    1.0058 H   0  0  0  0  0  0  0  0  0  0  0  0
   -1.1435   -0.2336   -1.0058 H   0  0  0  0  0  0  0  0  0  0  0  0
   -1.1904    0.9237    0.3216 H   0  0  0  0  0  0  0  0  0  0  0  0
   -1.1359   -0.8041    0.6609 H   0  0  0  0  0  0  0  0  0  0  0  0
  1  2  1  0
  1  3  1  0
  1  4  1  0
  1  5  1  0
  2  6  1  0
  2  7  1  0
  2  8  1  0
M  END
>  <reaction>  (1) 
rxn_132

>  <mol_properties>  (1) 
{"1": {"label": "donator", "atom_type": "Cs"}, "5": {"label": "d_hydrogen", "atom_type": "H0"}}

>  <type>  (1) 
r1h

$$$$

     RDKit          3D

  1  0  0  0  0  0  0  0  0  0999 V2000
    0.0000    0.0000    0.0000 Cl  0  0  0  0  0 15  0  0  0  0  0  0
M  END
>  <reaction>  (2) 
rxn_132

>  <mol_properties>  (2) 
{"0": {"label": "acceptor", "atom_type": "Cl1s"}}

>  <type>  (2) 
r2

$$$$

     RDKit          3D

  2  1  0  0  0  0  0  0  0  0999 V2000
    0.0000    0.0000    0.6391 Cl  0  0  0  0  0  0  0  0  0  0  0  0
    0.0000    0.0000   -0.6391 H   0  0  0  0  0  0  0  0  0  0  0  0
  1  2  1  0
M  END
>  <reaction>  (3) 
rxn_132

>  <mol_properties>  (3) 
{"0": {"label": "acceptor", "atom_type": "Cl1s"}, "1": {"label": "a_hydrogen", "atom_type": "H0"}}

>  <type>  (3) 
r2h

$$$$

     RDKit          3D

  9  7  0  0  0  0  0  0  0  0999 V2000
    0.0000    1.1598    0.6980 Cl  0  0  0  0  0 15  0  0  0  0  0  0
   -0.0000   -1.4080   -1.7140 C   0  0  0  0  0  0  0  0  0  0  0  0
    0.0000   -1.5399   -0.2278 C   0  0  0  0  0  0  0  0  0  0  0  0
   -0.8861   -0.8822   -2.0691 H   0  0  0  0  0  0  0  0  0  0  0  0
    0.8861   -0.8822   -2.0692 H   0  0  0  0  0  0  0  0  0  0  0  0
   -0.0000   -2.4044   -2.1713 H   0  0  0  0  0  0  0  0  0  0  0  0
    0.0000   -0.2394    0.2566 H   0  0  0  0  0  0  0  0  0  0  0  0
    0.9112   -1.9033    0.2398 H   0  0  0  0  0  0  0  0  0  0  0  0
   -0.9111   -1.9033    0.2398 H   0  0  0  0  0  0  0  0  0  0  0  0
  2  3  1  0
  2  4  1  0
  2  5  1  0
  2  6  1  0
  3  7  1  0
  3  8  1  0
  3  9  1  0
M  END
>  <reaction>  (4) 
rxn_132

>  <mol_properties>  (4) 
{"0": {"label": "*3", "atom_type": "Cl1s"}, "1": {"label": "*0", "atom_type": "Cs"}, "2": {"label": "*1", "atom_type": "Cs"}, "6": {"label": "*2", "atom_type": "H0"}}

>  <type>  (4) 
ts

$$$$

     RDKit          3D

  9  7  0  0  0  0  0  0  0  0999 V2000
   -0.0000    1.2215    0.8273 Cl  0  0  0  0  0 15  0  0  0  0  0  0
   -0.0000   -1.4285   -1.7269 C   0  0  0  0  0  0  0  0  0  0  0  0
   -0.0000   -1.4285   -0.2041 C   0  0  0  0  0  0  0  0  0  0  0  0
   -0.8808   -0.9199   -2.1227 H   0  0  0  0  0  0  0  0  0  0  0  0
    0.8808   -0.9199   -2.1227 H   0  0  0  0  0  0  0  0  0  0  0  0
   -0.0000   -2.4456   -2.1227 H   0  0  0  0  0  0  0  0  0  0  0  0
   -0.0000   -0.2079    0.2710 H   0  0  0  0  0  0  0  0  0  0  0  0
    0.8808   -1.9370    0.1918 H   0  0  0  0  0  0  0  0  0  0  0  0
   -0.8808   -1.9370    0.1918 H   0  0  0  0  0  0  0  0  0  0  0  0
  2  3  1  0
  2  4  1  0
  2  5  1  0
  2  6  1  0
  3  7  1  0
  3  8  1  0
  3  9  1  0
M  END
>  <reaction>  (5) 
rxn_132

>  <mol_properties>  (5) 
{"0": {"label": "*3", "atom_type": "Cl1s"}, "1": {"label": "*0", "atom_type": "Cs"}, "2": {"label": "*1", "atom_type": "Cs"}, "6": {"label": "*2", "atom_type": "H0"}}

>  <type>  (5) 
unop_1

>  <geom_source>  (5) 
Heuristics

$$$$
