
     RDKit          3D

 16 15  0  0  0  0  0  0  0  0999 V2000
    1.7961   -0.3807    1.6176 C   0  0  0  0  0  0  0  0  0  0  0  0
    0.8562   -0.8708    0.8256 C   0  0  0  0  0  0  0  0  0  0  0  0
    0.0895   -0.0826   -0.2048 C   0  0  0  0  0  0  0  0  0  0  0  0
   -1.4061   -0.1111    0.0982 C   0  0  0  0  0  0  0  0  0  0  0  0
    0.4476   -0.5902   -1.5797 C   0  0  0  0  0  0  0  0  0  0  0  0
   -0.3793   -1.1113   -2.4728 C   0  0  0  0  0  0  0  0  0  0  0  0
    2.3110   -1.0032    2.3386 H   0  0  0  0  0  0  0  0  0  0  0  0
    2.0846    0.6643    1.5737 H   0  0  0  0  0  0  0  0  0  0  0  0
    0.5921   -1.9241    0.8925 H   0  0  0  0  0  0  0  0  0  0  0  0
    0.4358    0.9557   -0.1462 H   0  0  0  0  0  0  0  0  0  0  0  0
   -1.5968    0.3080    1.0865 H   0  0  0  0  0  0  0  0  0  0  0  0
   -1.9674    0.4693   -0.6359 H   0  0  0  0  0  0  0  0  0  0  0  0
   -1.7902   -1.1338    0.0883 H   0  0  0  0  0  0  0  0  0  0  0  0
    1.5049   -0.5197   -1.8214 H   0  0  0  0  0  0  0  0  0  0  0  0
   -1.4421   -1.2131   -2.2889 H   0  0  0  0  0  0  0  0  0  0  0  0
   -0.0162   -1.4558   -3.4328 H   0  0  0  0  0  0  0  0  0  0  0  0
  1  2  2  3
  1  7  1  0
  1  8  1  0
  2  3  1  0
  2  9  1  0
  3  4  1  0
  3  5  1  0
  3 10  1  0
  4 11  1  0
  4 12  1  0
  4 13  1  0
  5  6  2  3
  5 14  1  0
  6 15  1  0
  6 16  1  0
M  END
>  <reaction>  (1) 
rxn_1181

>  <mol_properties>  (1) 
{"2": {"label": "donator", "atom_type": "Cs"}, "9": {"label": "d_hydrogen", "atom_type": "H0"}}

>  <type>  (1) 
r1h

$$$$

     RDKit          3D

  8  7  0  0  0  0  0  0  0  0999 V2000
   -2.2129    0.4855    0.7390 C   0  0  0  0  0  0  0  0  0  0  0  0
   -1.2226    0.0526    0.1974 C   0  0  0  0  0  0  0  0  0  0  0  0
   -0.1006   -0.4575   -0.4419 C   0  0  0  0  0  3  0  0  0  0  0  0
    1.1960   -0.1737   -0.0342 C   0  0  0  0  0  0  0  0  0  0  0  0
    2.3329    0.0603    0.3036 C   0  0  0  0  0  0  0  0  0  0  0  0
   -3.0803    0.8696    1.2198 H   0  0  0  0  0  0  0  0  0  0  0  0
   -0.2433   -1.1067   -1.2980 H   0  0  0  0  0  0  0  0  0  0  0  0
    3.3308    0.2700    0.6058 H   0  0  0  0  0  0  0  0  0  0  0  0
  1  2  3  0
  1  6  1  0
  2  3  1  0
  3  4  1  0
  3  7  1  0
  4  5  3  0
  5  8  1  0
M  RAD  1   3   2
M  END
>  <reaction>  (2) 
rxn_1181

>  <mol_properties>  (2) 
{"2": {"label": "acceptor", "atom_type": "Cs"}}

>  <type>  (2) 
r2

$$$$

     RDKit          3D

  9  8  0  0  0  0  0  0  0  0999 V2000
   -2.1022   -0.6873    0.3932 C   0  0  0  0  0  0  0  0  0  0  0  0
   -1.2072   -0.1086   -0.1482 C   0  0  0  0  0  0  0  0  0  0  0  0
   -0.1242    0.6105   -0.8193 C   0  0  0  0  0  0  0  0  0  0  0  0
    1.2067    0.1106   -0.4741 C   0  0  0  0  0  0  0  0  0  0  0  0
    2.3005   -0.2875   -0.2012 C   0  0  0  0  0  0  0  0  0  0  0  0
   -2.8942   -1.2059    0.8778 H   0  0  0  0  0  0  0  0  0  0  0  0
   -0.1862    1.6723   -0.5649 H   0  0  0  0  0  0  0  0  0  0  0  0
   -0.2641    0.5418   -1.9017 H   0  0  0  0  0  0  0  0  0  0  0  0
    3.2709   -0.6459    0.0455 H   0  0  0  0  0  0  0  0  0  0  0  0
  1  2  3  0
  1  6  1  0
  2  3  1  0
  3  4  1  0
  3  7  1  0
  3  8  1  0
  4  5  3  0
  5  9  1  0
M  END
>  <reaction>  (3) 
rxn_1181

>  <mol_properties>  (3) 
{"2": {"label": "acceptor", "atom_type": "Cs"}, "8": {"label": "a_hydrogen", "atom_type": "H0"}}

>  <type>  (3) 
r2h

$$$$

     RDKit          3D

 24 22  0  0  0  0  0  0  0  0999 V2000
    0.0212    0.5494   -3.0247 C   0  0  0  0  0  0  0  0  0  0  0  0
   -0.3085    0.9270   -1.9326 C   0  0  0  0  0  0  0  0  0  0  0  0
   -0.6969    1.3040   -0.6160 C   0  0  0  0  0  3  0  0  0  0  0  0
    0.0790    2.2790    0.0723 C   0  0  0  0  0  0  0  0  0  0  0  0
    0.7411    3.0611    0.6999 C   0  0  0  0  0  0  0  0  0  0  0  0
    0.3074    0.2345   -3.9991 H   0  0  0  0  0  0  0  0  0  0  0  0
   -1.7715    1.3907   -0.4668 H   0  0  0  0  0  0  0  0  0  0  0  0
    1.3204    3.7689    1.2421 H   0  0  0  0  0  0  0  0  0  0  0  0
   -0.5418   -2.8034   -0.8408 C   0  0  0  0  0  0  0  0  0  0  0  0
   -0.9300   -1.9896    0.1384 C   0  0  0  0  0  0  0  0  0  0  0  0
   -0.1162   -0.9502    0.7919 C   0  0  0  0  0  0  0  0  0  0  0  0
    1.3636   -0.9346    0.4953 C   0  0  0  0  0  0  0  0  0  0  0  0
   -0.5384   -0.6232    2.1646 C   0  0  0  0  0  0  0  0  0  0  0  0
    0.2262   -0.1236    3.1330 C   0  0  0  0  0  0  0  0  0  0  0  0
   -1.2311   -3.5179   -1.2714 H   0  0  0  0  0  0  0  0  0  0  0  0
    0.4644   -2.7928   -1.2394 H   0  0  0  0  0  0  0  0  0  0  0  0
   -1.9567   -2.0605    0.4890 H   0  0  0  0  0  0  0  0  0  0  0  0
   -0.4931    0.1202    0.1429 H   0  0  0  0  0  0  0  0  0  0  0  0
    1.5433   -0.9827   -0.5786 H   0  0  0  0  0  0  0  0  0  0  0  0
    1.8210   -0.0141    0.8578 H   0  0  0  0  0  0  0  0  0  0  0  0
    1.8641   -1.7822    0.9702 H   0  0  0  0  0  0  0  0  0  0  0  0
   -1.5921   -0.7885    2.3754 H   0  0  0  0  0  0  0  0  0  0  0  0
    1.2835    0.0649    2.9983 H   0  0  0  0  0  0  0  0  0  0  0  0
   -0.1921    0.1069    4.1039 H   0  0  0  0  0  0  0  0  0  0  0  0
  1  2  3  0
  1  6  1  0
  2  3  1  0
  3  4  1  0
  3  7  1  0
  4  5  3  0
  5  8  1  0
  9 10  2  3
  9 15  1  0
  9 16  1  0
 10 11  1  0
 10 17  1  0
 11 12  1  0
 11 13  1  0
 11 18  1  0
 12 19  1  0
 12 20  1  0
 12 21  1  0
 13 14  2  3
 13 22  1  0
 14 23  1  0
 14 24  1  0
M  RAD  1   3   2
M  END
>  <reaction>  (4) 
rxn_1181

>  <mol_properties>  (4) 
{"1": {"label": "*4", "atom_type": "Ct"}, "2": {"label": "*3", "atom_type": "Cs"}, "9": {"label": "*0", "atom_type": "Cd"}, "10": {"label": "*1", "atom_type": "Cs"}, "17": {"label": "*2", "atom_type": "H0"}}

>  <type>  (4) 
ts

$$$$

     RDKit          3D

 24 22  0  0  0  0  0  0  0  0999 V2000
   -1.8592    2.6121   -0.2978 C   0  0  0  0  0  0  0  0  0  0  0  0
   -0.8878    1.9407   -0.4844 C   0  0  0  0  0  0  0  0  0  0  0  0
    0.3010    1.1192   -0.7127 C   0  0  0  0  0  0  0  0  0  0  0  0
    0.9518    1.3827   -1.9962 C   0  0  0  0  0  0  0  0  0  0  0  0
    1.4836    1.5980   -3.0451 C   0  0  0  0  0  0  0  0  0  0  0  0
   -2.7234    3.2093   -0.1318 H   0  0  0  0  0  0  0  0  0  0  0  0
    1.0174    1.2916    0.0954 H   0  0  0  0  0  0  0  0  0  0  0  0
    1.9567    1.7896   -3.9781 H   0  0  0  0  0  0  0  0  0  0  0  0
    0.2279   -2.1978   -1.3095 C   0  0  0  0  0  0  0  0  0  0  0  0
    0.2279   -2.1978    0.0137 C   0  0  0  0  0  0  0  0  0  0  0  0
    0.2279   -0.9671    0.8831 C   0  0  0  0  0  3  0  0  0  0  0  0
    1.4663   -0.9373    1.7747 C   0  0  0  0  0  0  0  0  0  0  0  0
   -1.0756   -0.8985    1.6396 C   0  0  0  0  0  0  0  0  0  0  0  0
   -1.2302   -0.8982    2.9545 C   0  0  0  0  0  0  0  0  0  0  0  0
    0.2272   -3.1205   -1.8762 H   0  0  0  0  0  0  0  0  0  0  0  0
    0.2297   -1.2721   -1.8752 H   0  0  0  0  0  0  0  0  0  0  0  0
    0.2232   -3.1437    0.5513 H   0  0  0  0  0  0  0  0  0  0  0  0
    0.2645    0.0773    0.0843 H   0  0  0  0  0  0  0  0  0  0  0  0
    2.3691   -0.9456    1.1635 H   0  0  0  0  0  0  0  0  0  0  0  0
    1.4810   -0.0415    2.3978 H   0  0  0  0  0  0  0  0  0  0  0  0
    1.4989   -1.8090    2.4323 H   0  0  0  0  0  0  0  0  0  0  0  0
   -1.9587   -0.8628    1.0071 H   0  0  0  0  0  0  0  0  0  0  0  0
   -0.3898   -0.9376    3.6371 H   0  0  0  0  0  0  0  0  0  0  0  0
   -2.2166   -0.8551    3.3988 H   0  0  0  0  0  0  0  0  0  0  0  0
  1  2  3  0
  1  6  1  0
  2  3  1  0
  3  4  1  0
  3  7  1  0
  3 18  1  0
  4  5  3  0
  5  8  1  0
  9 10  2  3
  9 15  1  0
  9 16  1  0
 10 11  1  0
 10 17  1  0
 11 12  1  0
 11 13  1  0
 12 19  1  0
 12 20  1  0
 12 21  1  0
 13 14  2  3
 13 22  1  0
 14 23  1  0
 14 24  1  0
M  RAD  1  11   2
M  END
>  <reaction>  (5) 
rxn_1181

>  <mol_properties>  (5) 
{"1": {"label": "*4", "atom_type": "Ct"}, "2": {"label": "*3", "atom_type": "Cs"}, "9": {"label": "*0", "atom_type": "Cd"}, "10": {"label": "*1", "atom_type": "Cs"}, "17": {"label": "*2", "atom_type": "H0"}}

>  <type>  (5) 
unop_1

>  <geom_source>  (5) 
Heuristics

$$$$

     RDKit          3D

 24 22  0  0  0  0  0  0  0  0999 V2000
   -1.1712    0.6630   -2.9029 C   0  0  0  0  0  0  0  0  0  0  0  0
   -0.6263    0.9360   -1.8745 C   0  0  0  0  0  0  0  0  0  0  0  0
    0.0405    1.2702   -0.6159 C   0  0  0  0  0  0  0  0  0  0  0  0
    1.2479    2.0769   -0.7942 C   0  0  0  0  0  0  0  0  0  0  0  0
    2.2345    2.7362   -0.9399 C   0  0  0  0  0  0  0  0  0  0  0  0
   -1.6560    0.4202   -3.8178 H   0  0  0  0  0  0  0  0  0  0  0  0
   -0.6592    1.8085    0.0295 H   0  0  0  0  0  0  0  0  0  0  0  0
    3.1121    3.3227   -1.0696 H   0  0  0  0  0  0  0  0  0  0  0  0
   -0.0326   -2.0469   -1.2127 C   0  0  0  0  0  0  0  0  0  0  0  0
   -0.0326   -2.0469    0.1105 C   0  0  0  0  0  0  0  0  0  0  0  0
   -0.0326   -0.8161    0.9799 C   0  0  0  0  0  3  0  0  0  0  0  0
    1.2058   -0.7863    1.8715 C   0  0  0  0  0  0  0  0  0  0  0  0
   -1.3361   -0.7475    1.7364 C   0  0  0  0  0  0  0  0  0  0  0  0
   -1.4907   -0.7473    3.0514 C   0  0  0  0  0  0  0  0  0  0  0  0
   -0.0333   -2.9695   -1.7794 H   0  0  0  0  0  0  0  0  0  0  0  0
   -0.0308   -1.1211   -1.7784 H   0  0  0  0  0  0  0  0  0  0  0  0
   -0.0373   -2.9927    0.6481 H   0  0  0  0  0  0  0  0  0  0  0  0
    0.0040    0.2282    0.1811 H   0  0  0  0  0  0  0  0  0  0  0  0
    2.1086   -0.7947    1.2603 H   0  0  0  0  0  0  0  0  0  0  0  0
    1.2205    0.1094    2.4946 H   0  0  0  0  0  0  0  0  0  0  0  0
    1.2384   -1.6581    2.5291 H   0  0  0  0  0  0  0  0  0  0  0  0
   -2.2192   -0.7118    1.1039 H   0  0  0  0  0  0  0  0  0  0  0  0
   -0.6503   -0.7866    3.7339 H   0  0  0  0  0  0  0  0  0  0  0  0
   -2.4771   -0.7042    3.4956 H   0  0  0  0  0  0  0  0  0  0  0  0
  1  2  3  0
  1  6  1  0
  2  3  1  0
  3  4  1  0
  3  7  1  0
  3 18  1  0
  4  5  3  0
  5  8  1  0
  9 10  2  3
  9 15  1  0
  9 16  1  0
 10 11  1  0
 10 17  1  0
 11 12  1  0
 11 13  1  0
 12 19  1  0
 12 20  1  0
 12 21  1  0
 13 14  2  3
 13 22  1  0
 14 23  1  0
 14 24  1  0
M  RAD  1  11   2
M  END
>  <reaction>  (6) 
rxn_1181

>  <mol_properties>  (6) 
{"1": {"label": "*4", "atom_type": "Ct"}, "2": {"label": "*3", "atom_type": "Cs"}, "9": {"label": "*0", "atom_type": "Cd"}, "10": {"label": "*1", "atom_type": "Cs"}, "17": {"label": "*2", "atom_type": "H0"}}

>  <type>  (6) 
unop_2

>  <geom_source>  (6) 
Heuristics

$$$$

     RDKit          3D

 24 22  0  0  0  0  0  0  0  0999 V2000
   -0.8912    3.1416    0.3981 C   0  0  0  0  0  0  0  0  0  0  0  0
   -0.3292    2.2260   -0.1265 C   0  0  0  0  0  0  0  0  0  0  0  0
    0.3584    1.1056   -0.7686 C   0  0  0  0  0  0  0  0  0  0  0  0
    0.2698    1.1291   -2.2287 C   0  0  0  0  0  0  0  0  0  0  0  0
    0.1975    1.1482   -3.4218 C   0  0  0  0  0  0  0  0  0  0  0  0
   -1.3910    3.9560    0.8648 H   0  0  0  0  0  0  0  0  0  0  0  0
    1.4111    1.1130   -0.4724 H   0  0  0  0  0  0  0  0  0  0  0  0
    0.1331    1.1653   -4.4832 H   0  0  0  0  0  0  0  0  0  0  0  0
    0.2853   -2.2114   -1.3654 C   0  0  0  0  0  0  0  0  0  0  0  0
    0.2853   -2.2114   -0.0422 C   0  0  0  0  0  0  0  0  0  0  0  0
    0.2853   -0.9807    0.8272 C   0  0  0  0  0  3  0  0  0  0  0  0
    1.5237   -0.9509    1.7188 C   0  0  0  0  0  0  0  0  0  0  0  0
   -1.0182   -0.9121    1.5837 C   0  0  0  0  0  0  0  0  0  0  0  0
   -1.1728   -0.9118    2.8987 C   0  0  0  0  0  0  0  0  0  0  0  0
    0.2846   -3.1341   -1.9321 H   0  0  0  0  0  0  0  0  0  0  0  0
    0.2871   -1.2857   -1.9311 H   0  0  0  0  0  0  0  0  0  0  0  0
    0.2806   -3.1573    0.4954 H   0  0  0  0  0  0  0  0  0  0  0  0
    0.3219    0.0637    0.0284 H   0  0  0  0  0  0  0  0  0  0  0  0
    2.4264   -0.9592    1.1076 H   0  0  0  0  0  0  0  0  0  0  0  0
    1.5384   -0.0551    2.3419 H   0  0  0  0  0  0  0  0  0  0  0  0
    1.5563   -1.8226    2.3764 H   0  0  0  0  0  0  0  0  0  0  0  0
   -1.9014   -0.8764    0.9512 H   0  0  0  0  0  0  0  0  0  0  0  0
   -0.3325   -0.9512    3.5812 H   0  0  0  0  0  0  0  0  0  0  0  0
   -2.1592   -0.8687    3.3429 H   0  0  0  0  0  0  0  0  0  0  0  0
  1  2  3  0
  1  6  1  0
  2  3  1  0
  3  4  1  0
  3  7  1  0
  3 18  1  0
  4  5  3  0
  5  8  1  0
  9 10  2  3
  9 15  1  0
  9 16  1  0
 10 11  1  0
 10 17  1  0
 11 12  1  0
 11 13  1  0
 12 19  1  0
 12 20  1  0
 12 21  1  0
 13 14  2  3
 13 22  1  0
 14 23  1  0
 14 24  1  0
M  RAD  1  11   2
M  END
>  <reaction>  (7) 
rxn_1181

>  <mol_properties>  (7) 
{"1": {"label": "*4", "atom_type": "Ct"}, "2": {"label": "*3", "atom_type": "Cs"}, "9": {"label": "*0", "atom_type": "Cd"}, "10": {"label": "*1", "atom_type": "Cs"}, "17": {"label": "*2", "atom_type": "H0"}}

>  <type>  (7) 
unop_3

>  <geom_source>  (7) 
Heuristics

$$$$

     RDKit          3D

 24 22  0  0  0  0  0  0  0  0999 V2000
    2.0367    1.1159   -2.5550 C   0  0  0  0  0  0  0  0  0  0  0  0
    1.0434    1.1637   -1.8915 C   0  0  0  0  0  0  0  0  0  0  0  0
   -0.1722    1.2221   -1.0795 C   0  0  0  0  0  0  0  0  0  0  0  0
    0.0041    1.9466    0.1792 C   0  0  0  0  0  0  0  0  0  0  0  0
    0.1481    2.5386    1.2078 C   0  0  0  0  0  0  0  0  0  0  0  0
    2.9203    1.0734   -3.1453 H   0  0  0  0  0  0  0  0  0  0  0  0
   -0.9687    1.6973   -1.6589 H   0  0  0  0  0  0  0  0  0  0  0  0
    0.2762    3.0653    2.1228 H   0  0  0  0  0  0  0  0  0  0  0  0
   -0.2453   -2.0949   -1.6764 C   0  0  0  0  0  0  0  0  0  0  0  0
   -0.2453   -2.0949   -0.3531 C   0  0  0  0  0  0  0  0  0  0  0  0
   -0.2453   -0.8641    0.5163 C   0  0  0  0  0  3  0  0  0  0  0  0
    0.9931   -0.8343    1.4079 C   0  0  0  0  0  0  0  0  0  0  0  0
   -1.5488   -0.7956    1.2728 C   0  0  0  0  0  0  0  0  0  0  0  0
   -1.7034   -0.7953    2.5877 C   0  0  0  0  0  0  0  0  0  0  0  0
   -0.2460   -3.0175   -2.2431 H   0  0  0  0  0  0  0  0  0  0  0  0
   -0.2435   -1.1691   -2.2421 H   0  0  0  0  0  0  0  0  0  0  0  0
   -0.2500   -3.0407    0.1845 H   0  0  0  0  0  0  0  0  0  0  0  0
   -0.2087    0.1802   -0.2825 H   0  0  0  0  0  0  0  0  0  0  0  0
    1.8959   -0.8427    0.7966 H   0  0  0  0  0  0  0  0  0  0  0  0
    1.0078    0.0614    2.0310 H   0  0  0  0  0  0  0  0  0  0  0  0
    1.0257   -1.7061    2.0655 H   0  0  0  0  0  0  0  0  0  0  0  0
   -2.4320   -0.7598    0.6403 H   0  0  0  0  0  0  0  0  0  0  0  0
   -0.8631   -0.8346    3.2703 H   0  0  0  0  0  0  0  0  0  0  0  0
   -2.6898   -0.7522    3.0319 H   0  0  0  0  0  0  0  0  0  0  0  0
  1  2  3  0
  1  6  1  0
  2  3  1  0
  3  4  1  0
  3  7  1  0
  3 18  1  0
  4  5  3  0
  5  8  1  0
  9 10  2  3
  9 15  1  0
  9 16  1  0
 10 11  1  0
 10 17  1  0
 11 12  1  0
 11 13  1  0
 12 19  1  0
 12 20  1  0
 12 21  1  0
 13 14  2  3
 13 22  1  0
 14 23  1  0
 14 24  1  0
M  RAD  1  11   2
M  END
>  <reaction>  (8) 
rxn_1181

>  <mol_properties>  (8) 
{"1": {"label": "*4", "atom_type": "Ct"}, "2": {"label": "*3", "atom_type": "Cs"}, "9": {"label": "*0", "atom_type": "Cd"}, "10": {"label": "*1", "atom_type": "Cs"}, "17": {"label": "*2", "atom_type": "H0"}}

>  <type>  (8) 
unop_4

>  <geom_source>  (8) 
Heuristics

$$$$

     RDKit          3D

 24 22  0  0  0  0  0  0  0  0999 V2000
    0.4471    3.3247    0.5298 C   0  0  0  0  0  0  0  0  0  0  0  0
    0.4460    2.3267   -0.1285 C   0  0  0  0  0  0  0  0  0  0  0  0
    0.4446    1.1055   -0.9339 C   0  0  0  0  0  0  0  0  0  0  0  0
   -0.6737    1.0307   -1.8742 C   0  0  0  0  0  0  0  0  0  0  0  0
   -1.5876    0.9695   -2.6425 C   0  0  0  0  0  0  0  0  0  0  0  0
    0.4481    4.2125    1.1153 H   0  0  0  0  0  0  0  0  0  0  0  0
    1.3850    1.0397   -1.4883 H   0  0  0  0  0  0  0  0  0  0  0  0
   -2.4005    0.9152   -3.3260 H   0  0  0  0  0  0  0  0  0  0  0  0
    0.3715   -2.2116   -1.5308 C   0  0  0  0  0  0  0  0  0  0  0  0
    0.3715   -2.2116   -0.2075 C   0  0  0  0  0  0  0  0  0  0  0  0
    0.3715   -0.9808    0.6619 C   0  0  0  0  0  3  0  0  0  0  0  0
    1.6099   -0.9510    1.5535 C   0  0  0  0  0  0  0  0  0  0  0  0
   -0.9320   -0.9122    1.4184 C   0  0  0  0  0  0  0  0  0  0  0  0
   -1.0867   -0.9120    2.7333 C   0  0  0  0  0  0  0  0  0  0  0  0
    0.3707   -3.1342   -2.0975 H   0  0  0  0  0  0  0  0  0  0  0  0
    0.3733   -1.2858   -2.0965 H   0  0  0  0  0  0  0  0  0  0  0  0
    0.3667   -3.1574    0.3301 H   0  0  0  0  0  0  0  0  0  0  0  0
    0.4081    0.0635   -0.1370 H   0  0  0  0  0  0  0  0  0  0  0  0
    2.5126   -0.9594    0.9422 H   0  0  0  0  0  0  0  0  0  0  0  0
    1.6245   -0.0553    2.1766 H   0  0  0  0  0  0  0  0  0  0  0  0
    1.6424   -1.8228    2.2111 H   0  0  0  0  0  0  0  0  0  0  0  0
   -1.8152   -0.8765    0.7858 H   0  0  0  0  0  0  0  0  0  0  0  0
   -0.2463   -0.9513    3.4158 H   0  0  0  0  0  0  0  0  0  0  0  0
   -2.0731   -0.8689    3.1775 H   0  0  0  0  0  0  0  0  0  0  0  0
  1  2  3  0
  1  6  1  0
  2  3  1  0
  3  4  1  0
  3  7  1  0
  3 18  1  0
  4  5  3  0
  5  8  1  0
  9 10  2  3
  9 15  1  0
  9 16  1  0
 10 11  1  0
 10 17  1  0
 11 12  1  0
 11 13  1  0
 12 19  1  0
 12 20  1  0
 12 21  1  0
 13 14  2  3
 13 22  1  0
 14 23  1  0
 14 24  1  0
M  RAD  1  11   2
M  END
>  <reaction>  (9) 
rxn_1181

>  <mol_properties>  (9) 
{"1": {"label": "*4", "atom_type": "Ct"}, "2": {"label": "*3", "atom_type": "Cs"}, "9": {"label": "*0", "atom_type": "Cd"}, "10": {"label": "*1", "atom_type": "Cs"}, "17": {"label": "*2", "atom_type": "H0"}}

>  <type>  (9) 
unop_5

>  <geom_source>  (9) 
Heuristics

$$$$

     RDKit          3D

 24 22  0  0  0  0  0  0  0  0999 V2000
    2.4896    1.8145   -1.6861 C   0  0  0  0  0  0  0  0  0  0  0  0
    1.3500    1.5217   -1.4745 C   0  0  0  0  0  0  0  0  0  0  0  0
   -0.0446    1.1634   -1.2156 C   0  0  0  0  0  0  0  0  0  0  0  0
   -0.5612    1.7087    0.0398 C   0  0  0  0  0  0  0  0  0  0  0  0
   -0.9834    2.1543    1.0657 C   0  0  0  0  0  0  0  0  0  0  0  0
    3.5034    2.0749   -1.8743 H   0  0  0  0  0  0  0  0  0  0  0  0
   -0.6658    1.5167   -2.0433 H   0  0  0  0  0  0  0  0  0  0  0  0
   -1.3590    2.5508    1.9783 H   0  0  0  0  0  0  0  0  0  0  0  0
   -0.1177   -2.1536   -1.8124 C   0  0  0  0  0  0  0  0  0  0  0  0
   -0.1177   -2.1536   -0.4892 C   0  0  0  0  0  0  0  0  0  0  0  0
   -0.1177   -0.9228    0.3802 C   0  0  0  0  0  3  0  0  0  0  0  0
    1.1207   -0.8931    1.2718 C   0  0  0  0  0  0  0  0  0  0  0  0
   -1.4212   -0.8543    1.1367 C   0  0  0  0  0  0  0  0  0  0  0  0
   -1.5758   -0.8540    2.4517 C   0  0  0  0  0  0  0  0  0  0  0  0
   -0.1184   -3.0762   -2.3791 H   0  0  0  0  0  0  0  0  0  0  0  0
   -0.1159   -1.2278   -2.3781 H   0  0  0  0  0  0  0  0  0  0  0  0
   -0.1224   -3.0994    0.0484 H   0  0  0  0  0  0  0  0  0  0  0  0
   -0.0811    0.1215   -0.4186 H   0  0  0  0  0  0  0  0  0  0  0  0
    2.0234   -0.9014    0.6606 H   0  0  0  0  0  0  0  0  0  0  0  0
    1.1354    0.0027    1.8949 H   0  0  0  0  0  0  0  0  0  0  0  0
    1.1533   -1.7648    1.9294 H   0  0  0  0  0  0  0  0  0  0  0  0
   -2.3044   -0.8185    0.5042 H   0  0  0  0  0  0  0  0  0  0  0  0
   -0.7355   -0.8934    3.1342 H   0  0  0  0  0  0  0  0  0  0  0  0
   -2.5622   -0.8109    2.8959 H   0  0  0  0  0  0  0  0  0  0  0  0
  1  2  3  0
  1  6  1  0
  2  3  1  0
  3  4  1  0
  3  7  1  0
  3 18  1  0
  4  5  3  0
  5  8  1  0
  9 10  2  3
  9 15  1  0
  9 16  1  0
 10 11  1  0
 10 17  1  0
 11 12  1  0
 11 13  1  0
 12 19  1  0
 12 20  1  0
 12 21  1  0
 13 14  2  3
 13 22  1  0
 14 23  1  0
 14 24  1  0
M  RAD  1  11   2
M  END
>  <reaction>  (10) 
rxn_1181

>  <mol_properties>  (10) 
{"1": {"label": "*4", "atom_type": "Ct"}, "2": {"label": "*3", "atom_type": "Cs"}, "9": {"label": "*0", "atom_type": "Cd"}, "10": {"label": "*1", "atom_type": "Cs"}, "17": {"label": "*2", "atom_type": "H0"}}

>  <type>  (10) 
unop_6

>  <geom_source>  (10) 
Heuristics

$$$$

     RDKit          3D

 24 22  0  0  0  0  0  0  0  0999 V2000
    2.3377    2.5405   -0.7435 C   0  0  0  0  0  0  0  0  0  0  0  0
    1.3542    1.9021   -0.9766 C   0  0  0  0  0  0  0  0  0  0  0  0
    0.1507    1.1208   -1.2620 C   0  0  0  0  0  0  0  0  0  0  0  0
   -0.9624    1.4178   -0.3602 C   0  0  0  0  0  0  0  0  0  0  0  0
   -1.8719    1.6606    0.3767 C   0  0  0  0  0  0  0  0  0  0  0  0
    3.2126    3.1084   -0.5361 H   0  0  0  0  0  0  0  0  0  0  0  0
   -0.1627    1.3074   -2.2929 H   0  0  0  0  0  0  0  0  0  0  0  0
   -2.6810    1.8765    1.0323 H   0  0  0  0  0  0  0  0  0  0  0  0
    0.0775   -2.1963   -1.8588 C   0  0  0  0  0  0  0  0  0  0  0  0
    0.0775   -2.1963   -0.5356 C   0  0  0  0  0  0  0  0  0  0  0  0
    0.0775   -0.9655    0.3338 C   0  0  0  0  0  3  0  0  0  0  0  0
    1.3159   -0.9357    1.2254 C   0  0  0  0  0  0  0  0  0  0  0  0
   -1.2260   -0.8969    1.0903 C   0  0  0  0  0  0  0  0  0  0  0  0
   -1.3806   -0.8967    2.4053 C   0  0  0  0  0  0  0  0  0  0  0  0
    0.0768   -3.1189   -2.4255 H   0  0  0  0  0  0  0  0  0  0  0  0
    0.0793   -1.2705   -2.4245 H   0  0  0  0  0  0  0  0  0  0  0  0
    0.0728   -3.1421    0.0021 H   0  0  0  0  0  0  0  0  0  0  0  0
    0.1141    0.0789   -0.4650 H   0  0  0  0  0  0  0  0  0  0  0  0
    2.2187   -0.9441    0.6142 H   0  0  0  0  0  0  0  0  0  0  0  0
    1.3306   -0.0399    1.8485 H   0  0  0  0  0  0  0  0  0  0  0  0
    1.3485   -1.8075    1.8831 H   0  0  0  0  0  0  0  0  0  0  0  0
   -2.1091   -0.8612    0.4578 H   0  0  0  0  0  0  0  0  0  0  0  0
   -0.5402   -0.9360    3.0878 H   0  0  0  0  0  0  0  0  0  0  0  0
   -2.3670   -0.8536    2.8495 H   0  0  0  0  0  0  0  0  0  0  0  0
  1  2  3  0
  1  6  1  0
  2  3  1  0
  3  4  1  0
  3  7  1  0
  3 18  1  0
  4  5  3  0
  5  8  1  0
  9 10  2  3
  9 15  1  0
  9 16  1  0
 10 11  1  0
 10 17  1  0
 11 12  1  0
 11 13  1  0
 12 19  1  0
 12 20  1  0
 12 21  1  0
 13 14  2  3
 13 22  1  0
 14 23  1  0
 14 24  1  0
M  RAD  1  11   2
M  END
>  <reaction>  (11) 
rxn_1181

>  <mol_properties>  (11) 
{"1": {"label": "*4", "atom_type": "Ct"}, "2": {"label": "*3", "atom_type": "Cs"}, "9": {"label": "*0", "atom_type": "Cd"}, "10": {"label": "*1", "atom_type": "Cs"}, "17": {"label": "*2", "atom_type": "H0"}}

>  <type>  (11) 
unop_7

>  <geom_source>  (11) 
Heuristics

$$$$

     RDKit          3D

 24 22  0  0  0  0  0  0  0  0999 V2000
   -2.2232    1.8947   -1.2521 C   0  0  0  0  0  0  0  0  0  0  0  0
   -1.1055    1.5640   -0.9868 C   0  0  0  0  0  0  0  0  0  0  0  0
    0.2624    1.1592   -0.6620 C   0  0  0  0  0  0  0  0  0  0  0  0
    1.2594    1.6752   -1.6002 C   0  0  0  0  0  0  0  0  0  0  0  0
    2.0741    2.0968   -2.3668 C   0  0  0  0  0  0  0  0  0  0  0  0
   -3.2176    2.1890   -1.4882 H   0  0  0  0  0  0  0  0  0  0  0  0
    0.5081    1.5011    0.3473 H   0  0  0  0  0  0  0  0  0  0  0  0
    2.7988    2.4719   -3.0488 H   0  0  0  0  0  0  0  0  0  0  0  0
    0.1893   -2.1578   -1.2589 C   0  0  0  0  0  0  0  0  0  0  0  0
    0.1893   -2.1578    0.0644 C   0  0  0  0  0  0  0  0  0  0  0  0
    0.1893   -0.9271    0.9338 C   0  0  0  0  0  3  0  0  0  0  0  0
    1.4277   -0.8973    1.8254 C   0  0  0  0  0  0  0  0  0  0  0  0
   -1.1142   -0.8585    1.6903 C   0  0  0  0  0  0  0  0  0  0  0  0
   -1.2688   -0.8582    3.0052 C   0  0  0  0  0  0  0  0  0  0  0  0
    0.1886   -3.0805   -1.8256 H   0  0  0  0  0  0  0  0  0  0  0  0
    0.1911   -1.2320   -1.8246 H   0  0  0  0  0  0  0  0  0  0  0  0
    0.1846   -3.1037    0.6020 H   0  0  0  0  0  0  0  0  0  0  0  0
    0.2259    0.1173    0.1349 H   0  0  0  0  0  0  0  0  0  0  0  0
    2.3304   -0.9056    1.2141 H   0  0  0  0  0  0  0  0  0  0  0  0
    1.4424   -0.0015    2.4485 H   0  0  0  0  0  0  0  0  0  0  0  0
    1.4603   -1.7690    2.4830 H   0  0  0  0  0  0  0  0  0  0  0  0
   -1.9974   -0.8227    1.0577 H   0  0  0  0  0  0  0  0  0  0  0  0
   -0.4285   -0.8976    3.6878 H   0  0  0  0  0  0  0  0  0  0  0  0
   -2.2552   -0.8151    3.4494 H   0  0  0  0  0  0  0  0  0  0  0  0
  1  2  3  0
  1  6  1  0
  2  3  1  0
  3  4  1  0
  3  7  1  0
  3 18  1  0
  4  5  3  0
  5  8  1  0
  9 10  2  3
  9 15  1  0
  9 16  1  0
 10 11  1  0
 10 17  1  0
 11 12  1  0
 11 13  1  0
 12 19  1  0
 12 20  1  0
 12 21  1  0
 13 14  2  3
 13 22  1  0
 14 23  1  0
 14 24  1  0
M  RAD  1  11   2
M  END
>  <reaction>  (12) 
rxn_1181

>  <mol_properties>  (12) 
{"1": {"label": "*4", "atom_type": "Ct"}, "2": {"label": "*3", "atom_type": "Cs"}, "9": {"label": "*0", "atom_type": "Cd"}, "10": {"label": "*1", "atom_type": "Cs"}, "17": {"label": "*2", "atom_type": "H0"}}

>  <type>  (12) 
unop_8

>  <geom_source>  (12) 
Heuristics

$$$$

     RDKit          3D

 24 22  0  0  0  0  0  0  0  0999 V2000
    1.0975    0.6244   -3.1201 C   0  0  0  0  0  0  0  0  0  0  0  0
    0.5138    0.9164   -2.1185 C   0  0  0  0  0  0  0  0  0  0  0  0
   -0.2006    1.2737   -0.8928 C   0  0  0  0  0  0  0  0  0  0  0  0
    0.5936    2.0894    0.0260 C   0  0  0  0  0  0  0  0  0  0  0  0
    1.2427    2.7559    0.7768 C   0  0  0  0  0  0  0  0  0  0  0  0
    1.6168    0.3646   -4.0111 H   0  0  0  0  0  0  0  0  0  0  0  0
   -1.1147    1.8142   -1.1544 H   0  0  0  0  0  0  0  0  0  0  0  0
    1.8200    3.3488    1.4447 H   0  0  0  0  0  0  0  0  0  0  0  0
   -0.2737   -2.0433   -1.4897 C   0  0  0  0  0  0  0  0  0  0  0  0
   -0.2737   -2.0433   -0.1664 C   0  0  0  0  0  0  0  0  0  0  0  0
   -0.2737   -0.8125    0.7030 C   0  0  0  0  0  3  0  0  0  0  0  0
    0.9646   -0.7827    1.5946 C   0  0  0  0  0  0  0  0  0  0  0  0
   -1.5773   -0.7439    1.4595 C   0  0  0  0  0  0  0  0  0  0  0  0
   -1.7319   -0.7437    2.7744 C   0  0  0  0  0  0  0  0  0  0  0  0
   -0.2745   -2.9659   -2.0564 H   0  0  0  0  0  0  0  0  0  0  0  0
   -0.2720   -1.1175   -2.0554 H   0  0  0  0  0  0  0  0  0  0  0  0
   -0.2785   -2.9891    0.3712 H   0  0  0  0  0  0  0  0  0  0  0  0
   -0.2372    0.2318   -0.0959 H   0  0  0  0  0  0  0  0  0  0  0  0
    1.8674   -0.7911    0.9833 H   0  0  0  0  0  0  0  0  0  0  0  0
    0.9793    0.1130    2.2177 H   0  0  0  0  0  0  0  0  0  0  0  0
    0.9972   -1.6545    2.2522 H   0  0  0  0  0  0  0  0  0  0  0  0
   -2.4604   -0.7082    0.8269 H   0  0  0  0  0  0  0  0  0  0  0  0
   -0.8915   -0.7830    3.4569 H   0  0  0  0  0  0  0  0  0  0  0  0
   -2.7183   -0.7006    3.2186 H   0  0  0  0  0  0  0  0  0  0  0  0
  1  2  3  0
  1  6  1  0
  2  3  1  0
  3  4  1  0
  3  7  1  0
  3 18  1  0
  4  5  3  0
  5  8  1  0
  9 10  2  3
  9 15  1  0
  9 16  1  0
 10 11  1  0
 10 17  1  0
 11 12  1  0
 11 13  1  0
 12 19  1  0
 12 20  1  0
 12 21  1  0
 13 14  2  3
 13 22  1  0
 14 23  1  0
 14 24  1  0
M  RAD  1  11   2
M  END
>  <reaction>  (13) 
rxn_1181

>  <mol_properties>  (13) 
{"1": {"label": "*4", "atom_type": "Ct"}, "2": {"label": "*3", "atom_type": "Cs"}, "9": {"label": "*0", "atom_type": "Cd"}, "10": {"label": "*1", "atom_type": "Cs"}, "17": {"label": "*2", "atom_type": "H0"}}

>  <type>  (13) 
unop_9

>  <geom_source>  (13) 
Heuristics

$$$$

     RDKit          3D

 24 22  0  0  0  0  0  0  0  0999 V2000
   -1.9567    1.1839   -2.1934 C   0  0  0  0  0  0  0  0  0  0  0  0
   -0.9951    1.1987   -1.4833 C   0  0  0  0  0  0  0  0  0  0  0  0
    0.1818    1.2170   -0.6143 C   0  0  0  0  0  0  0  0  0  0  0  0
    1.3236    1.9220   -1.1970 C   0  0  0  0  0  0  0  0  0  0  0  0
    2.2567    2.4980   -1.6732 C   0  0  0  0  0  0  0  0  0  0  0  0
   -2.8122    1.1706   -2.8251 H   0  0  0  0  0  0  0  0  0  0  0  0
   -0.0820    1.6858    0.3378 H   0  0  0  0  0  0  0  0  0  0  0  0
    3.0867    3.0105   -2.0968 H   0  0  0  0  0  0  0  0  0  0  0  0
    0.1086   -2.1001   -1.2112 C   0  0  0  0  0  0  0  0  0  0  0  0
    0.1086   -2.1001    0.1121 C   0  0  0  0  0  0  0  0  0  0  0  0
    0.1086   -0.8693    0.9815 C   0  0  0  0  0  3  0  0  0  0  0  0
    1.3470   -0.8395    1.8731 C   0  0  0  0  0  0  0  0  0  0  0  0
   -1.1949   -0.8007    1.7380 C   0  0  0  0  0  0  0  0  0  0  0  0
   -1.3495   -0.8005    3.0529 C   0  0  0  0  0  0  0  0  0  0  0  0
    0.1079   -3.0227   -1.7779 H   0  0  0  0  0  0  0  0  0  0  0  0
    0.1104   -1.1743   -1.7769 H   0  0  0  0  0  0  0  0  0  0  0  0
    0.1039   -3.0459    0.6497 H   0  0  0  0  0  0  0  0  0  0  0  0
    0.1452    0.1750    0.1827 H   0  0  0  0  0  0  0  0  0  0  0  0
    2.2498   -0.8479    1.2618 H   0  0  0  0  0  0  0  0  0  0  0  0
    1.3617    0.0562    2.4962 H   0  0  0  0  0  0  0  0  0  0  0  0
    1.3796   -1.7113    2.5307 H   0  0  0  0  0  0  0  0  0  0  0  0
   -2.0780   -0.7650    1.1055 H   0  0  0  0  0  0  0  0  0  0  0  0
   -0.5091   -0.8398    3.7355 H   0  0  0  0  0  0  0  0  0  0  0  0
   -2.3359   -0.7574    3.4972 H   0  0  0  0  0  0  0  0  0  0  0  0
  1  2  3  0
  1  6  1  0
  2  3  1  0
  3  4  1  0
  3  7  1  0
  3 18  1  0
  4  5  3  0
  5  8  1  0
  9 10  2  3
  9 15  1  0
  9 16  1  0
 10 11  1  0
 10 17  1  0
 11 12  1  0
 11 13  1  0
 12 19  1  0
 12 20  1  0
 12 21  1  0
 13 14  2  3
 13 22  1  0
 14 23  1  0
 14 24  1  0
M  RAD  1  11   2
M  END
>  <reaction>  (14) 
rxn_1181

>  <mol_properties>  (14) 
{"1": {"label": "*4", "atom_type": "Ct"}, "2": {"label": "*3", "atom_type": "Cs"}, "9": {"label": "*0", "atom_type": "Cd"}, "10": {"label": "*1", "atom_type": "Cs"}, "17": {"label": "*2", "atom_type": "H0"}}

>  <type>  (14) 
unop_10

>  <geom_source>  (14) 
Heuristics

$$$$

     RDKit          3D

 24 22  0  0  0  0  0  0  0  0999 V2000
    1.6204    3.0986    0.0544 C   0  0  0  0  0  0  0  0  0  0  0  0
    1.0536    2.2020   -0.4971 C   0  0  0  0  0  0  0  0  0  0  0  0
    0.3600    1.1049   -1.1720 C   0  0  0  0  0  0  0  0  0  0  0  0
   -1.0940    1.1542   -1.0177 C   0  0  0  0  0  0  0  0  0  0  0  0
   -2.2821    1.1945   -0.8916 C   0  0  0  0  0  0  0  0  0  0  0  0
    2.1246    3.8962    0.5450 H   0  0  0  0  0  0  0  0  0  0  0  0
    0.6091    1.1234   -2.2367 H   0  0  0  0  0  0  0  0  0  0  0  0
   -3.3391    1.2303   -0.7794 H   0  0  0  0  0  0  0  0  0  0  0  0
    0.2869   -2.2122   -1.7689 C   0  0  0  0  0  0  0  0  0  0  0  0
    0.2869   -2.2122   -0.4456 C   0  0  0  0  0  0  0  0  0  0  0  0
    0.2869   -0.9814    0.4238 C   0  0  0  0  0  3  0  0  0  0  0  0
    1.5253   -0.9516    1.3154 C   0  0  0  0  0  0  0  0  0  0  0  0
   -1.0166   -0.9128    1.1803 C   0  0  0  0  0  0  0  0  0  0  0  0
   -1.1712   -0.9126    2.4952 C   0  0  0  0  0  0  0  0  0  0  0  0
    0.2862   -3.1348   -2.3356 H   0  0  0  0  0  0  0  0  0  0  0  0
    0.2887   -1.2864   -2.3346 H   0  0  0  0  0  0  0  0  0  0  0  0
    0.2822   -3.1580    0.0920 H   0  0  0  0  0  0  0  0  0  0  0  0
    0.3235    0.0630   -0.3750 H   0  0  0  0  0  0  0  0  0  0  0  0
    2.4281   -0.9600    0.7041 H   0  0  0  0  0  0  0  0  0  0  0  0
    1.5400   -0.0558    1.9385 H   0  0  0  0  0  0  0  0  0  0  0  0
    1.5579   -1.8234    1.9730 H   0  0  0  0  0  0  0  0  0  0  0  0
   -1.8998   -0.8771    0.5477 H   0  0  0  0  0  0  0  0  0  0  0  0
   -0.3309   -0.9519    3.1778 H   0  0  0  0  0  0  0  0  0  0  0  0
   -2.1576   -0.8695    2.9394 H   0  0  0  0  0  0  0  0  0  0  0  0
  1  2  3  0
  1  6  1  0
  2  3  1  0
  3  4  1  0
  3  7  1  0
  3 18  1  0
  4  5  3  0
  5  8  1  0
  9 10  2  3
  9 15  1  0
  9 16  1  0
 10 11  1  0
 10 17  1  0
 11 12  1  0
 11 13  1  0
 12 19  1  0
 12 20  1  0
 12 21  1  0
 13 14  2  3
 13 22  1  0
 14 23  1  0
 14 24  1  0
M  RAD  1  11   2
M  END
>  <reaction>  (15) 
rxn_1181

>  <mol_properties>  (15) 
{"1": {"label": "*4", "atom_type": "Ct"}, "2": {"label": "*3", "atom_type": "Cs"}, "9": {"label": "*0", "atom_type": "Cd"}, "10": {"label": "*1", "atom_type": "Cs"}, "17": {"label": "*2", "atom_type": "H0"}}

>  <type>  (15) 
unop_11

>  <geom_source>  (15) 
Heuristics

$$$$

     RDKit          3D

 24 22  0  0  0  0  0  0  0  0999 V2000
   -0.0697    0.4606   -3.2383 C   0  0  0  0  0  0  0  0  0  0  0  0
   -0.0904    0.8351   -2.1031 C   0  0  0  0  0  0  0  0  0  0  0  0
   -0.1158    1.2933   -0.7140 C   0  0  0  0  0  0  0  0  0  0  0  0
    1.0293    2.1312   -0.3574 C   0  0  0  0  0  0  0  0  0  0  0  0
    1.9650    2.8158   -0.0660 C   0  0  0  0  0  0  0  0  0  0  0  0
   -0.0512    0.1275   -4.2481 H   0  0  0  0  0  0  0  0  0  0  0  0
   -1.0389    1.8523   -0.5370 H   0  0  0  0  0  0  0  0  0  0  0  0
    2.7974    3.4249    0.1932 H   0  0  0  0  0  0  0  0  0  0  0  0
   -0.1889   -2.0237   -1.3108 C   0  0  0  0  0  0  0  0  0  0  0  0
   -0.1889   -2.0237    0.0124 C   0  0  0  0  0  0  0  0  0  0  0  0
   -0.1889   -0.7929    0.8818 C   0  0  0  0  0  3  0  0  0  0  0  0
    1.0495   -0.7631    1.7734 C   0  0  0  0  0  0  0  0  0  0  0  0
   -1.4924   -0.7244    1.6383 C   0  0  0  0  0  0  0  0  0  0  0  0
   -1.6471   -0.7241    2.9533 C   0  0  0  0  0  0  0  0  0  0  0  0
   -0.1897   -2.9463   -1.8775 H   0  0  0  0  0  0  0  0  0  0  0  0
   -0.1871   -1.0979   -1.8765 H   0  0  0  0  0  0  0  0  0  0  0  0
   -0.1937   -2.9695    0.5500 H   0  0  0  0  0  0  0  0  0  0  0  0
   -0.1523    0.2514    0.0830 H   0  0  0  0  0  0  0  0  0  0  0  0
    1.9522   -0.7715    1.1622 H   0  0  0  0  0  0  0  0  0  0  0  0
    1.0641    0.1326    2.3965 H   0  0  0  0  0  0  0  0  0  0  0  0
    1.0820   -1.6349    2.4310 H   0  0  0  0  0  0  0  0  0  0  0  0
   -2.3756   -0.6886    1.0058 H   0  0  0  0  0  0  0  0  0  0  0  0
   -0.8067   -0.7634    3.6358 H   0  0  0  0  0  0  0  0  0  0  0  0
   -2.6335   -0.6810    3.3975 H   0  0  0  0  0  0  0  0  0  0  0  0
  1  2  3  0
  1  6  1  0
  2  3  1  0
  3  4  1  0
  3  7  1  0
  3 18  1  0
  4  5  3  0
  5  8  1  0
  9 10  2  3
  9 15  1  0
  9 16  1  0
 10 11  1  0
 10 17  1  0
 11 12  1  0
 11 13  1  0
 12 19  1  0
 12 20  1  0
 12 21  1  0
 13 14  2  3
 13 22  1  0
 14 23  1  0
 14 24  1  0
M  RAD  1  11   2
M  END
>  <reaction>  (16) 
rxn_1181

>  <mol_properties>  (16) 
{"1": {"label": "*4", "atom_type": "Ct"}, "2": {"label": "*3", "atom_type": "Cs"}, "9": {"label": "*0", "atom_type": "Cd"}, "10": {"label": "*1", "atom_type": "Cs"}, "17": {"label": "*2", "atom_type": "H0"}}

>  <type>  (16) 
unop_12

>  <geom_source>  (16) 
Heuristics

$$$$

     RDKit          3D

 24 22  0  0  0  0  0  0  0  0999 V2000
   -1.2713   -1.5748   -0.2807 C   0  0  0  0  0  0  0  0  0  0  0  0
    1.2389    0.1869   -0.7565 C   0  0  0  0  0  3  0  0  0  0  0  0
   -1.0618   -0.2341    0.4180 C   0  0  0  0  0  0  0  0  0  0  0  0
   -0.7437    0.8460   -0.5719 C   0  0  0  0  0  0  0  0  0  0  0  0
   -2.2635    0.1441    1.2308 C   0  0  0  0  0  0  0  0  0  0  0  0
    0.4047    1.5190   -0.4938 C   0  0  0  0  0  0  0  0  0  0  0  0
   -2.1583    0.3353    2.5461 C   0  0  0  0  0  0  0  0  0  0  0  0
    1.7416   -1.0141   -1.4263 C   0  0  0  0  0  0  0  0  0  0  0  0
    2.3123    0.8023    0.0264 C   0  0  0  0  0  0  0  0  0  0  0  0
    2.1536   -2.0036   -1.9785 C   0  0  0  0  0  0  0  0  0  0  0  0
    3.1949    1.3103    0.6719 C   0  0  0  0  0  0  0  0  0  0  0  0
    0.8754    0.9090   -1.5165 H   0  0  0  0  0  0  0  0  0  0  0  0
    0.2102   -0.1536    0.0734 H   0  0  0  0  0  0  0  0  0  0  0  0
   -1.4677   -2.3657    0.4738 H   0  0  0  0  0  0  0  0  0  0  0  0
   -2.1302   -1.5229   -0.9846 H   0  0  0  0  0  0  0  0  0  0  0  0
   -0.3558   -1.8522   -0.8449 H   0  0  0  0  0  0  0  0  0  0  0  0
   -1.4557    1.0872   -1.3565 H   0  0  0  0  0  0  0  0  0  0  0  0
   -3.2274    0.2690    0.7449 H   0  0  0  0  0  0  0  0  0  0  0  0
    0.6259    2.3011   -1.2127 H   0  0  0  0  0  0  0  0  0  0  0  0
    1.1294    1.2965    0.2839 H   0  0  0  0  0  0  0  0  0  0  0  0
   -1.2042    0.2188    3.0517 H   0  0  0  0  0  0  0  0  0  0  0  0
   -3.0325    0.6115    3.1265 H   0  0  0  0  0  0  0  0  0  0  0  0
    2.5154   -2.8720   -2.4631 H   0  0  0  0  0  0  0  0  0  0  0  0
    3.9697    1.7561    1.2384 H   0  0  0  0  0  0  0  0  0  0  0  0
  1  3  1  0
  1 14  1  0
  1 15  1  0
  1 16  1  0
  2  8  1  0
  2  9  1  0
  2 12  1  0
  3  4  1  0
  3  5  1  0
  3 13  1  0
  4  6  2  3
  4 17  1  0
  5  7  2  3
  5 18  1  0
  6 19  1  0
  6 20  1  0
  7 21  1  0
  7 22  1  0
  8 10  3  0
  9 11  3  0
 10 23  1  0
 11 24  1  0
M  RAD  1   2   2
M  END
>  <reaction>  (17) 
rxn_1181

>  <mol_properties>  (17) 
{"1": {"label": "*4", "atom_type": "Ct"}, "2": {"label": "*3", "atom_type": "Cs"}, "9": {"label": "*0", "atom_type": "Cd"}, "10": {"label": "*1", "atom_type": "Cs"}, "17": {"label": "*2", "atom_type": "H0"}}

>  <type>  (17) 
unop_13

>  <geom_source>  (17) 
AutoTST

$$$$
