
     RDKit          3D

  7  6  0  0  0  0  0  0  0  0999 V2000
   -0.8134   -0.1164    0.3300 C   0  0  0  0  0  0  0  0  0  0  0  0
    0.2313    0.4515   -0.2553 C   0  0  0  0  0  0  0  0  0  0  0  0
    1.4449   -0.1043   -0.4662 O   0  0  0  0  0  0  0  0  0  0  0  0
   -1.7342    0.4365    0.4394 H   0  0  0  0  0  0  0  0  0  0  0  0
   -0.7819   -1.1311    0.7105 H   0  0  0  0  0  0  0  0  0  0  0  0
    0.2022    1.4650   -0.6362 H   0  0  0  0  0  0  0  0  0  0  0  0
    1.4512   -1.0012   -0.1223 H   0  0  0  0  0  0  0  0  0  0  0  0
  1  2  2  3
  1  4  1  0
  1  5  1  0
  2  3  1  0
  2  6  1  0
  3  7  1  0
M  END
>  <reaction>  (1) 
rxn_480

>  <mol_properties>  (1) 
{"2": {"label": "donator", "atom_type": "O2s"}, "6": {"label": "d_hydrogen", "atom_type": "H0"}}

>  <type>  (1) 
r1h

$$$$

     RDKit          3D

  2  1  0  0  0  0  0  0  0  0999 V2000
    0.0000    0.0000    0.6715 S   0  0  0  0  0  1  0  0  0  0  0  0
    0.0000    0.0000   -0.6715 H   0  0  0  0  0  0  0  0  0  0  0  0
  1  2  1  0
M  RAD  1   1   2
M  END
>  <reaction>  (2) 
rxn_480

>  <mol_properties>  (2) 
{"0": {"label": "acceptor", "atom_type": "S2s"}}

>  <type>  (2) 
r2

$$$$

     RDKit          3D

  3  2  0  0  0  0  0  0  0  0999 V2000
   -0.0007    0.6157    0.0000 S   0  0  0  0  0  0  0  0  0  0  0  0
   -0.9686   -0.3090    0.0000 H   0  0  0  0  0  0  0  0  0  0  0  0
    0.9693   -0.3067    0.0000 H   0  0  0  0  0  0  0  0  0  0  0  0
  1  2  1  0
  1  3  1  0
M  END
>  <reaction>  (3) 
rxn_480

>  <mol_properties>  (3) 
{"0": {"label": "acceptor", "atom_type": "S2s"}, "2": {"label": "a_hydrogen", "atom_type": "H0"}}

>  <type>  (3) 
r2h

$$$$

     RDKit          3D

  9  7  0  0  0  0  0  0  0  0999 V2000
    0.4547    1.2710   -0.2324 S   0  0  0  0  0  1  0  0  0  0  0  0
   -0.7276    1.7590   -0.6333 H   0  0  0  0  0  0  0  0  0  0  0  0
   -0.1878   -1.3679   -0.8724 C   0  0  0  0  0  0  0  0  0  0  0  0
    0.0294   -1.6442    0.4769 C   0  0  0  0  0  0  0  0  0  0  0  0
   -0.2831   -0.8539    1.4134 O   0  0  0  0  0  0  0  0  0  0  0  0
    0.3059   -1.9629   -1.6281 H   0  0  0  0  0  0  0  0  0  0  0  0
   -1.0055   -0.7374   -1.1833 H   0  0  0  0  0  0  0  0  0  0  0  0
    0.5281   -2.5769    0.7564 H   0  0  0  0  0  0  0  0  0  0  0  0
   -0.1356    0.2568    0.8577 H   0  0  0  0  0  0  0  0  0  0  0  0
  1  2  1  0
  3  4  2  3
  3  6  1  0
  3  7  1  0
  4  5  1  0
  4  8  1  0
  5  9  1  0
M  RAD  1   1   2
M  END
>  <reaction>  (4) 
rxn_480

>  <mol_properties>  (4) 
{"0": {"label": "*3", "atom_type": "S2s"}, "1": {"label": "*4", "atom_type": "H0"}, "3": {"label": "*0", "atom_type": "Cd"}, "4": {"label": "*1", "atom_type": "O2s"}, "8": {"label": "*2", "atom_type": "H0"}}

>  <type>  (4) 
ts

$$$$

     RDKit          3D

  9  7  0  0  0  0  0  0  0  0999 V2000
    0.0152    1.6875   -0.3378 S   0  0  0  0  0  1  0  0  0  0  0  0
   -1.1428    2.1108    0.1837 H   0  0  0  0  0  0  0  0  0  0  0  0
    0.0152   -1.6917   -0.9489 C   0  0  0  0  0  0  0  0  0  0  0  0
    0.0152   -1.6917    0.3764 C   0  0  0  0  0  0  0  0  0  0  0  0
    0.0152   -0.6112    1.1881 O   0  0  0  0  0  0  0  0  0  0  0  0
    0.0152   -2.6280   -1.4861 H   0  0  0  0  0  0  0  0  0  0  0  0
    0.0152   -0.7745   -1.5269 H   0  0  0  0  0  0  0  0  0  0  0  0
    0.0152   -2.6068    0.9559 H   0  0  0  0  0  0  0  0  0  0  0  0
    0.0152    0.3492    0.5506 H   0  0  0  0  0  0  0  0  0  0  0  0
  1  2  1  0
  3  4  2  3
  3  6  1  0
  3  7  1  0
  4  5  1  0
  4  8  1  0
  5  9  1  0
M  RAD  1   1   2
M  END
>  <reaction>  (5) 
rxn_480

>  <mol_properties>  (5) 
{"0": {"label": "*3", "atom_type": "S2s"}, "1": {"label": "*4", "atom_type": "H0"}, "3": {"label": "*0", "atom_type": "Cd"}, "4": {"label": "*1", "atom_type": "O2s"}, "8": {"label": "*2", "atom_type": "H0"}}

>  <type>  (5) 
unop_1

>  <geom_source>  (5) 
Heuristics

$$$$

     RDKit          3D

  9  7  0  0  0  0  0  0  0  0999 V2000
    0.0088    1.7008   -0.3179 S   0  0  0  0  0  1  0  0  0  0  0  0
   -0.6598    1.1139   -1.3181 H   0  0  0  0  0  0  0  0  0  0  0  0
    0.0087   -1.6785   -0.9290 C   0  0  0  0  0  0  0  0  0  0  0  0
    0.0087   -1.6785    0.3963 C   0  0  0  0  0  0  0  0  0  0  0  0
    0.0087   -0.5980    1.2080 O   0  0  0  0  0  0  0  0  0  0  0  0
    0.0087   -2.6148   -1.4662 H   0  0  0  0  0  0  0  0  0  0  0  0
    0.0087   -0.7613   -1.5070 H   0  0  0  0  0  0  0  0  0  0  0  0
    0.0087   -2.5935    0.9759 H   0  0  0  0  0  0  0  0  0  0  0  0
    0.0087    0.3624    0.5705 H   0  0  0  0  0  0  0  0  0  0  0  0
  1  2  1  0
  3  4  2  3
  3  6  1  0
  3  7  1  0
  4  5  1  0
  4  8  1  0
  5  9  1  0
M  RAD  1   1   2
M  END
>  <reaction>  (6) 
rxn_480

>  <mol_properties>  (6) 
{"0": {"label": "*3", "atom_type": "S2s"}, "1": {"label": "*4", "atom_type": "H0"}, "3": {"label": "*0", "atom_type": "Cd"}, "4": {"label": "*1", "atom_type": "O2s"}, "8": {"label": "*2", "atom_type": "H0"}}

>  <type>  (6) 
unop_2

>  <geom_source>  (6) 
Heuristics

$$$$

     RDKit          3D

  9  7  0  0  0  0  0  0  0  0999 V2000
    0.0088    1.6840   -0.3431 S   0  0  0  0  0  1  0  0  0  0  0  0
   -0.6598    2.3779    0.5861 H   0  0  0  0  0  0  0  0  0  0  0  0
    0.0087   -1.6952   -0.9543 C   0  0  0  0  0  0  0  0  0  0  0  0
    0.0087   -1.6952    0.3710 C   0  0  0  0  0  0  0  0  0  0  0  0
    0.0087   -0.6148    1.1827 O   0  0  0  0  0  0  0  0  0  0  0  0
    0.0087   -2.6316   -1.4915 H   0  0  0  0  0  0  0  0  0  0  0  0
    0.0087   -0.7780   -1.5322 H   0  0  0  0  0  0  0  0  0  0  0  0
    0.0087   -2.6103    0.9506 H   0  0  0  0  0  0  0  0  0  0  0  0
    0.0087    0.3456    0.5452 H   0  0  0  0  0  0  0  0  0  0  0  0
  1  2  1  0
  3  4  2  3
  3  6  1  0
  3  7  1  0
  4  5  1  0
  4  8  1  0
  5  9  1  0
M  RAD  1   1   2
M  END
>  <reaction>  (7) 
rxn_480

>  <mol_properties>  (7) 
{"0": {"label": "*3", "atom_type": "S2s"}, "1": {"label": "*4", "atom_type": "H0"}, "3": {"label": "*0", "atom_type": "Cd"}, "4": {"label": "*1", "atom_type": "O2s"}, "8": {"label": "*2", "atom_type": "H0"}}

>  <type>  (7) 
unop_3

>  <geom_source>  (7) 
Heuristics

$$$$

     RDKit          3D

  9  7  0  0  0  0  0  0  0  0999 V2000
   -0.0152    1.6972   -0.3232 S   0  0  0  0  0  1  0  0  0  0  0  0
    1.1428    1.3810   -0.9157 H   0  0  0  0  0  0  0  0  0  0  0  0
   -0.0152   -1.6820   -0.9343 C   0  0  0  0  0  0  0  0  0  0  0  0
   -0.0152   -1.6820    0.3909 C   0  0  0  0  0  0  0  0  0  0  0  0
   -0.0152   -0.6015    1.2027 O   0  0  0  0  0  0  0  0  0  0  0  0
   -0.0152   -2.6184   -1.4715 H   0  0  0  0  0  0  0  0  0  0  0  0
   -0.0152   -0.7648   -1.5123 H   0  0  0  0  0  0  0  0  0  0  0  0
   -0.0152   -2.5971    0.9705 H   0  0  0  0  0  0  0  0  0  0  0  0
   -0.0152    0.3589    0.5652 H   0  0  0  0  0  0  0  0  0  0  0  0
  1  2  1  0
  3  4  2  3
  3  6  1  0
  3  7  1  0
  4  5  1  0
  4  8  1  0
  5  9  1  0
M  RAD  1   1   2
M  END
>  <reaction>  (8) 
rxn_480

>  <mol_properties>  (8) 
{"0": {"label": "*3", "atom_type": "S2s"}, "1": {"label": "*4", "atom_type": "H0"}, "3": {"label": "*0", "atom_type": "Cd"}, "4": {"label": "*1", "atom_type": "O2s"}, "8": {"label": "*2", "atom_type": "H0"}}

>  <type>  (8) 
unop_4

>  <geom_source>  (8) 
Heuristics

$$$$

     RDKit          3D

  9  7  0  0  0  0  0  0  0  0999 V2000
    0.0000    1.6827   -0.3451 S   0  0  0  0  0  1  0  0  0  0  0  0
    0.0000    2.4757    0.7334 H   0  0  0  0  0  0  0  0  0  0  0  0
   -0.0000   -1.6965   -0.9562 C   0  0  0  0  0  0  0  0  0  0  0  0
   -0.0000   -1.6965    0.3691 C   0  0  0  0  0  0  0  0  0  0  0  0
   -0.0000   -0.6161    1.1808 O   0  0  0  0  0  0  0  0  0  0  0  0
   -0.0000   -2.6329   -1.4934 H   0  0  0  0  0  0  0  0  0  0  0  0
   -0.0000   -0.7793   -1.5342 H   0  0  0  0  0  0  0  0  0  0  0  0
   -0.0000   -2.6116    0.9487 H   0  0  0  0  0  0  0  0  0  0  0  0
   -0.0000    0.3444    0.5433 H   0  0  0  0  0  0  0  0  0  0  0  0
  1  2  1  0
  3  4  2  3
  3  6  1  0
  3  7  1  0
  4  5  1  0
  4  8  1  0
  5  9  1  0
M  RAD  1   1   2
M  END
>  <reaction>  (9) 
rxn_480

>  <mol_properties>  (9) 
{"0": {"label": "*3", "atom_type": "S2s"}, "1": {"label": "*4", "atom_type": "H0"}, "3": {"label": "*0", "atom_type": "Cd"}, "4": {"label": "*1", "atom_type": "O2s"}, "8": {"label": "*2", "atom_type": "H0"}}

>  <type>  (9) 
unop_5

>  <geom_source>  (9) 
Heuristics

$$$$

     RDKit          3D

  9  7  0  0  0  0  0  0  0  0999 V2000
   -0.0175    1.6924   -0.3305 S   0  0  0  0  0  1  0  0  0  0  0  0
    1.3196    1.7459   -0.3660 H   0  0  0  0  0  0  0  0  0  0  0  0
   -0.0175   -1.6869   -0.9416 C   0  0  0  0  0  0  0  0  0  0  0  0
   -0.0175   -1.6869    0.3837 C   0  0  0  0  0  0  0  0  0  0  0  0
   -0.0175   -0.6064    1.1954 O   0  0  0  0  0  0  0  0  0  0  0  0
   -0.0175   -2.6232   -1.4788 H   0  0  0  0  0  0  0  0  0  0  0  0
   -0.0175   -0.7696   -1.5196 H   0  0  0  0  0  0  0  0  0  0  0  0
   -0.0175   -2.6019    0.9632 H   0  0  0  0  0  0  0  0  0  0  0  0
   -0.0175    0.3540    0.5579 H   0  0  0  0  0  0  0  0  0  0  0  0
  1  2  1  0
  3  4  2  3
  3  6  1  0
  3  7  1  0
  4  5  1  0
  4  8  1  0
  5  9  1  0
M  RAD  1   1   2
M  END
>  <reaction>  (10) 
rxn_480

>  <mol_properties>  (10) 
{"0": {"label": "*3", "atom_type": "S2s"}, "1": {"label": "*4", "atom_type": "H0"}, "3": {"label": "*0", "atom_type": "Cd"}, "4": {"label": "*1", "atom_type": "O2s"}, "8": {"label": "*2", "atom_type": "H0"}}

>  <type>  (10) 
unop_6

>  <geom_source>  (10) 
Heuristics

$$$$

     RDKit          3D

  9  7  0  0  0  0  0  0  0  0999 V2000
   -0.0152    1.6875   -0.3378 S   0  0  0  0  0  1  0  0  0  0  0  0
    1.1428    2.1108    0.1837 H   0  0  0  0  0  0  0  0  0  0  0  0
   -0.0152   -1.6917   -0.9489 C   0  0  0  0  0  0  0  0  0  0  0  0
   -0.0152   -1.6917    0.3764 C   0  0  0  0  0  0  0  0  0  0  0  0
   -0.0152   -0.6112    1.1881 O   0  0  0  0  0  0  0  0  0  0  0  0
   -0.0152   -2.6280   -1.4861 H   0  0  0  0  0  0  0  0  0  0  0  0
   -0.0152   -0.7745   -1.5269 H   0  0  0  0  0  0  0  0  0  0  0  0
   -0.0152   -2.6068    0.9559 H   0  0  0  0  0  0  0  0  0  0  0  0
   -0.0152    0.3492    0.5506 H   0  0  0  0  0  0  0  0  0  0  0  0
  1  2  1  0
  3  4  2  3
  3  6  1  0
  3  7  1  0
  4  5  1  0
  4  8  1  0
  5  9  1  0
M  RAD  1   1   2
M  END
>  <reaction>  (11) 
rxn_480

>  <mol_properties>  (11) 
{"0": {"label": "*3", "atom_type": "S2s"}, "1": {"label": "*4", "atom_type": "H0"}, "3": {"label": "*0", "atom_type": "Cd"}, "4": {"label": "*1", "atom_type": "O2s"}, "8": {"label": "*2", "atom_type": "H0"}}

>  <type>  (11) 
unop_7

>  <geom_source>  (11) 
Heuristics

$$$$

     RDKit          3D

  9  7  0  0  0  0  0  0  0  0999 V2000
    0.0175    1.6924   -0.3305 S   0  0  0  0  0  1  0  0  0  0  0  0
   -1.3196    1.7459   -0.3660 H   0  0  0  0  0  0  0  0  0  0  0  0
    0.0175   -1.6869   -0.9416 C   0  0  0  0  0  0  0  0  0  0  0  0
    0.0175   -1.6869    0.3837 C   0  0  0  0  0  0  0  0  0  0  0  0
    0.0175   -0.6064    1.1954 O   0  0  0  0  0  0  0  0  0  0  0  0
    0.0175   -2.6232   -1.4788 H   0  0  0  0  0  0  0  0  0  0  0  0
    0.0175   -0.7696   -1.5196 H   0  0  0  0  0  0  0  0  0  0  0  0
    0.0175   -2.6019    0.9632 H   0  0  0  0  0  0  0  0  0  0  0  0
    0.0175    0.3540    0.5579 H   0  0  0  0  0  0  0  0  0  0  0  0
  1  2  1  0
  3  4  2  3
  3  6  1  0
  3  7  1  0
  4  5  1  0
  4  8  1  0
  5  9  1  0
M  RAD  1   1   2
M  END
>  <reaction>  (12) 
rxn_480

>  <mol_properties>  (12) 
{"0": {"label": "*3", "atom_type": "S2s"}, "1": {"label": "*4", "atom_type": "H0"}, "3": {"label": "*0", "atom_type": "Cd"}, "4": {"label": "*1", "atom_type": "O2s"}, "8": {"label": "*2", "atom_type": "H0"}}

>  <type>  (12) 
unop_8

>  <geom_source>  (12) 
Heuristics

$$$$

     RDKit          3D

  9  7  0  0  0  0  0  0  0  0999 V2000
   -0.0087    1.7008   -0.3179 S   0  0  0  0  0  1  0  0  0  0  0  0
    0.6598    1.1139   -1.3181 H   0  0  0  0  0  0  0  0  0  0  0  0
   -0.0088   -1.6785   -0.9290 C   0  0  0  0  0  0  0  0  0  0  0  0
   -0.0088   -1.6785    0.3963 C   0  0  0  0  0  0  0  0  0  0  0  0
   -0.0088   -0.5980    1.2080 O   0  0  0  0  0  0  0  0  0  0  0  0
   -0.0088   -2.6148   -1.4662 H   0  0  0  0  0  0  0  0  0  0  0  0
   -0.0088   -0.7613   -1.5070 H   0  0  0  0  0  0  0  0  0  0  0  0
   -0.0088   -2.5935    0.9759 H   0  0  0  0  0  0  0  0  0  0  0  0
   -0.0087    0.3624    0.5705 H   0  0  0  0  0  0  0  0  0  0  0  0
  1  2  1  0
  3  4  2  3
  3  6  1  0
  3  7  1  0
  4  5  1  0
  4  8  1  0
  5  9  1  0
M  RAD  1   1   2
M  END
>  <reaction>  (13) 
rxn_480

>  <mol_properties>  (13) 
{"0": {"label": "*3", "atom_type": "S2s"}, "1": {"label": "*4", "atom_type": "H0"}, "3": {"label": "*0", "atom_type": "Cd"}, "4": {"label": "*1", "atom_type": "O2s"}, "8": {"label": "*2", "atom_type": "H0"}}

>  <type>  (13) 
unop_9

>  <geom_source>  (13) 
Heuristics

$$$$

     RDKit          3D

  9  7  0  0  0  0  0  0  0  0999 V2000
    0.0152    1.6972   -0.3232 S   0  0  0  0  0  1  0  0  0  0  0  0
   -1.1428    1.3810   -0.9157 H   0  0  0  0  0  0  0  0  0  0  0  0
    0.0152   -1.6820   -0.9343 C   0  0  0  0  0  0  0  0  0  0  0  0
    0.0152   -1.6820    0.3909 C   0  0  0  0  0  0  0  0  0  0  0  0
    0.0152   -0.6015    1.2027 O   0  0  0  0  0  0  0  0  0  0  0  0
    0.0152   -2.6184   -1.4715 H   0  0  0  0  0  0  0  0  0  0  0  0
    0.0152   -0.7648   -1.5123 H   0  0  0  0  0  0  0  0  0  0  0  0
    0.0152   -2.5971    0.9705 H   0  0  0  0  0  0  0  0  0  0  0  0
    0.0152    0.3589    0.5652 H   0  0  0  0  0  0  0  0  0  0  0  0
  1  2  1  0
  3  4  2  3
  3  6  1  0
  3  7  1  0
  4  5  1  0
  4  8  1  0
  5  9  1  0
M  RAD  1   1   2
M  END
>  <reaction>  (14) 
rxn_480

>  <mol_properties>  (14) 
{"0": {"label": "*3", "atom_type": "S2s"}, "1": {"label": "*4", "atom_type": "H0"}, "3": {"label": "*0", "atom_type": "Cd"}, "4": {"label": "*1", "atom_type": "O2s"}, "8": {"label": "*2", "atom_type": "H0"}}

>  <type>  (14) 
unop_10

>  <geom_source>  (14) 
Heuristics

$$$$

     RDKit          3D

  9  7  0  0  0  0  0  0  0  0999 V2000
   -0.0087    1.6840   -0.3431 S   0  0  0  0  0  1  0  0  0  0  0  0
    0.6598    2.3779    0.5861 H   0  0  0  0  0  0  0  0  0  0  0  0
   -0.0088   -1.6952   -0.9543 C   0  0  0  0  0  0  0  0  0  0  0  0
   -0.0088   -1.6952    0.3710 C   0  0  0  0  0  0  0  0  0  0  0  0
   -0.0088   -0.6148    1.1827 O   0  0  0  0  0  0  0  0  0  0  0  0
   -0.0088   -2.6316   -1.4915 H   0  0  0  0  0  0  0  0  0  0  0  0
   -0.0088   -0.7780   -1.5322 H   0  0  0  0  0  0  0  0  0  0  0  0
   -0.0088   -2.6103    0.9506 H   0  0  0  0  0  0  0  0  0  0  0  0
   -0.0087    0.3456    0.5452 H   0  0  0  0  0  0  0  0  0  0  0  0
  1  2  1  0
  3  4  2  3
  3  6  1  0
  3  7  1  0
  4  5  1  0
  4  8  1  0
  5  9  1  0
M  RAD  1   1   2
M  END
>  <reaction>  (15) 
rxn_480

>  <mol_properties>  (15) 
{"0": {"label": "*3", "atom_type": "S2s"}, "1": {"label": "*4", "atom_type": "H0"}, "3": {"label": "*0", "atom_type": "Cd"}, "4": {"label": "*1", "atom_type": "O2s"}, "8": {"label": "*2", "atom_type": "H0"}}

>  <type>  (15) 
unop_11

>  <geom_source>  (15) 
Heuristics

$$$$

     RDKit          3D

  9  7  0  0  0  0  0  0  0  0999 V2000
    0.0000    1.7021   -0.3159 S   0  0  0  0  0  1  0  0  0  0  0  0
    0.0000    1.0161   -1.4654 H   0  0  0  0  0  0  0  0  0  0  0  0
   -0.0000   -1.6772   -0.9271 C   0  0  0  0  0  0  0  0  0  0  0  0
   -0.0000   -1.6772    0.3982 C   0  0  0  0  0  0  0  0  0  0  0  0
   -0.0000   -0.5967    1.2099 O   0  0  0  0  0  0  0  0  0  0  0  0
   -0.0000   -2.6135   -1.4643 H   0  0  0  0  0  0  0  0  0  0  0  0
   -0.0000   -0.7600   -1.5050 H   0  0  0  0  0  0  0  0  0  0  0  0
   -0.0000   -2.5922    0.9778 H   0  0  0  0  0  0  0  0  0  0  0  0
   -0.0000    0.3637    0.5725 H   0  0  0  0  0  0  0  0  0  0  0  0
  1  2  1  0
  3  4  2  3
  3  6  1  0
  3  7  1  0
  4  5  1  0
  4  8  1  0
  5  9  1  0
M  RAD  1   1   2
M  END
>  <reaction>  (16) 
rxn_480

>  <mol_properties>  (16) 
{"0": {"label": "*3", "atom_type": "S2s"}, "1": {"label": "*4", "atom_type": "H0"}, "3": {"label": "*0", "atom_type": "Cd"}, "4": {"label": "*1", "atom_type": "O2s"}, "8": {"label": "*2", "atom_type": "H0"}}

>  <type>  (16) 
unop_12

>  <geom_source>  (16) 
Heuristics

$$$$
