
     RDKit          3D

  6  5  0  0  0  0  0  0  0  0999 V2000
   -0.5072   -0.0291   -0.0097 C   0  0  0  0  0  0  0  0  0  0  0  0
    1.1321   -0.1527   -0.7687 S   0  0  0  0  0  0  0  0  0  0  0  0
   -0.6174   -0.7330    0.8127 H   0  0  0  0  0  0  0  0  0  0  0  0
   -0.5863    0.9827    0.3845 H   0  0  0  0  0  0  0  0  0  0  0  0
   -1.2962   -0.1800   -0.7434 H   0  0  0  0  0  0  0  0  0  0  0  0
    1.0312   -1.4237   -1.1764 H   0  0  0  0  0  0  0  0  0  0  0  0
  1  2  1  0
  1  3  1  0
  1  4  1  0
  1  5  1  0
  2  6  1  0
M  END
>  <reaction>  (1) 
rxn_89

>  <mol_properties>  (1) 
{"1": {"label": "donator", "atom_type": "S2s"}, "5": {"label": "d_hydrogen", "atom_type": "H0"}}

>  <type>  (1) 
r1h

$$$$

     RDKit          3D

  1  0  0  0  0  0  0  0  0  0999 V2000
    0.0000    0.0000    0.0000 H   0  0  0  0  0 15  0  0  0  0  0  0
M  END
>  <reaction>  (2) 
rxn_89

>  <mol_properties>  (2) 
{"0": {"label": "acceptor", "atom_type": "H0"}}

>  <type>  (2) 
r2

$$$$

     RDKit          3D

  2  1  0  0  0  0  0  0  0  0999 V2000
    0.0000    0.0000    0.3721 H   0  0  0  0  0  0  0  0  0  0  0  0
    0.0000    0.0000   -0.3721 H   0  0  0  0  0  0  0  0  0  0  0  0
  1  2  1  0
M  END
>  <reaction>  (3) 
rxn_89

>  <mol_properties>  (3) 
{"0": {"label": "a_hydrogen", "atom_type": "H0"}, "1": {"label": "acceptor", "atom_type": "H0"}}

>  <type>  (3) 
r2h

$$$$

     RDKit          3D

  7  5  0  0  0  0  0  0  0  0999 V2000
    0.0000   -0.0790   -1.2187 C   0  0  0  0  0  0  0  0  0  0  0  0
    0.0000   -0.1162    0.5890 S   0  0  0  0  0  0  0  0  0  0  0  0
    0.8931    0.4073   -1.6056 H   0  0  0  0  0  0  0  0  0  0  0  0
    0.0000   -1.1181   -1.5455 H   0  0  0  0  0  0  0  0  0  0  0  0
   -0.8931    0.4073   -1.6056 H   0  0  0  0  0  0  0  0  0  0  0  0
    0.0000    1.2617    0.7739 H   0  0  0  0  0  0  0  0  0  0  0  0
    0.0000    2.5896    0.7335 H   0  0  0  0  0 15  0  0  0  0  0  0
  1  2  1  0
  1  3  1  0
  1  4  1  0
  1  5  1  0
  2  6  1  0
M  END
>  <reaction>  (4) 
rxn_89

>  <mol_properties>  (4) 
{"0": {"label": "*4", "atom_type": "Cs"}, "1": {"label": "*3", "atom_type": "S2s"}, "5": {"label": "*2", "atom_type": "H0"}, "6": {"label": "*1", "atom_type": "H0"}}

>  <type>  (4) 
ts

$$$$

     RDKit          3D

  7  5  0  0  0  0  0  0  0  0999 V2000
    0.0000   -0.0820   -1.2435 C   0  0  0  0  0  0  0  0  0  0  0  0
    0.0000   -0.0820    0.5671 S   0  0  0  0  0  0  0  0  0  0  0  0
    0.8927    0.3972   -1.6400 H   0  0  0  0  0  0  0  0  0  0  0  0
    0.0000   -1.1269   -1.5495 H   0  0  0  0  0  0  0  0  0  0  0  0
   -0.8927    0.3972   -1.6400 H   0  0  0  0  0  0  0  0  0  0  0  0
    0.0000    1.5119    0.7668 H   0  0  0  0  0  0  0  0  0  0  0  0
    0.0000    2.3979    0.8778 H   0  0  0  0  0 15  0  0  0  0  0  0
  1  2  1  0
  1  3  1  0
  1  4  1  0
  1  5  1  0
  2  6  1  0
M  END
>  <reaction>  (5) 
rxn_89

>  <mol_properties>  (5) 
{"0": {"label": "*4", "atom_type": "Cs"}, "1": {"label": "*3", "atom_type": "S2s"}, "5": {"label": "*2", "atom_type": "H0"}, "6": {"label": "*1", "atom_type": "H0"}}

>  <type>  (5) 
unop_1

>  <geom_source>  (5) 
Heuristics

$$$$
