
     RDKit          3D

 15 14  0  0  0  0  0  0  0  0999 V2000
   -0.6986    1.3249   -0.1641 C   0  0  0  0  0  0  0  0  0  0  0  0
   -0.2590   -0.0344    0.3671 C   0  0  0  0  0  0  0  0  0  0  0  0
   -0.4734   -0.1429    1.8733 C   0  0  0  0  0  0  0  0  0  0  0  0
   -0.9841   -1.1722   -0.3462 C   0  0  0  0  0  0  0  0  0  0  0  0
   -0.7805   -1.1911   -1.7444 O   0  0  0  0  0  0  0  0  0  0  0  0
   -0.1246    2.1306    0.2976 H   0  0  0  0  0  0  0  0  0  0  0  0
   -1.7557    1.4964    0.0581 H   0  0  0  0  0  0  0  0  0  0  0  0
   -0.5709    1.3852   -1.2449 H   0  0  0  0  0  0  0  0  0  0  0  0
    0.8141   -0.1541    0.1667 H   0  0  0  0  0  0  0  0  0  0  0  0
   -1.5346   -0.0466    2.1192 H   0  0  0  0  0  0  0  0  0  0  0  0
    0.0611    0.6480    2.4019 H   0  0  0  0  0  0  0  0  0  0  0  0
   -0.1249   -1.1023    2.2618 H   0  0  0  0  0  0  0  0  0  0  0  0
   -0.6918   -2.1316    0.1011 H   0  0  0  0  0  0  0  0  0  0  0  0
   -2.0629   -1.0627   -0.2056 H   0  0  0  0  0  0  0  0  0  0  0  0
    0.1528   -1.3298   -1.9125 H   0  0  0  0  0  0  0  0  0  0  0  0
  1  2  1  0
  1  6  1  0
  1  7  1  0
  1  8  1  0
  2  3  1  0
  2  4  1  0
  2  9  1  0
  3 10  1  0
  3 11  1  0
  3 12  1  0
  4  5  1  0
  4 13  1  0
  4 14  1  0
  5 15  1  0
M  END
>  <reaction>  (1) 
rxn_776

>  <mol_properties>  (1) 
{"1": {"label": "donator", "atom_type": "Cs"}, "8": {"label": "d_hydrogen", "atom_type": "H0"}}

>  <type>  (1) 
r1h

$$$$

     RDKit          3D

  1  0  0  0  0  0  0  0  0  0999 V2000
    0.0000    0.0000    0.0000 O   0  0  0  0  0 15  0  0  0  0  0  0
M  END
>  <reaction>  (2) 
rxn_776

>  <mol_properties>  (2) 
{"0": {"label": "acceptor", "atom_type": "O2s"}}

>  <type>  (2) 
r2

$$$$

     RDKit          3D

  2  1  0  0  0  0  0  0  0  0999 V2000
    0.0000    0.0000    0.4855 O   0  0  0  0  0  1  0  0  0  0  0  0
    0.0000    0.0000   -0.4855 H   0  0  0  0  0  0  0  0  0  0  0  0
  1  2  1  0
M  RAD  1   1   2
M  END
>  <reaction>  (3) 
rxn_776

>  <mol_properties>  (3) 
{"0": {"label": "a_hydrogen", "atom_type": "H0"}, "1": {"label": "acceptor", "atom_type": "O2s"}}

>  <type>  (3) 
r2h

$$$$

     RDKit          3D

 16 14  0  0  0  0  0  0  0  0999 V2000
    0.0452    0.4900   -1.6343 C   0  0  0  0  0  0  0  0  0  0  0  0
   -0.0249    0.5417   -0.1248 C   0  0  0  0  0  0  0  0  0  0  0  0
    0.0413    1.9348    0.4581 C   0  0  0  0  0  0  0  0  0  0  0  0
   -1.1326   -0.3108    0.4740 C   0  0  0  0  0  0  0  0  0  0  0  0
   -1.0675   -1.6597    0.0882 O   0  0  0  0  0  0  0  0  0  0  0  0
    0.9475    0.9772   -2.0059 H   0  0  0  0  0  0  0  0  0  0  0  0
   -0.8180    1.0148   -2.0574 H   0  0  0  0  0  0  0  0  0  0  0  0
    0.0210   -0.5377   -1.9941 H   0  0  0  0  0  0  0  0  0  0  0  0
    0.9735   -0.0259    0.2543 H   0  0  0  0  0  0  0  0  0  0  0  0
   -0.8546    2.4979    0.1760 H   0  0  0  0  0  0  0  0  0  0  0  0
    0.9069    2.4798    0.0804 H   0  0  0  0  0  0  0  0  0  0  0  0
    0.0942    1.9146    1.5476 H   0  0  0  0  0  0  0  0  0  0  0  0
   -1.1175   -0.2082    1.5668 H   0  0  0  0  0  0  0  0  0  0  0  0
   -2.0993    0.0670    0.1241 H   0  0  0  0  0  0  0  0  0  0  0  0
   -0.2105   -1.9976    0.3673 H   0  0  0  0  0  0  0  0  0  0  0  0
    1.8933   -0.9365    0.6957 O   0  0  0  0  0 15  0  0  0  0  0  0
  1  2  1  0
  1  6  1  0
  1  7  1  0
  1  8  1  0
  2  3  1  0
  2  4  1  0
  2  9  1  0
  3 10  1  0
  3 11  1  0
  3 12  1  0
  4  5  1  0
  4 13  1  0
  4 14  1  0
  5 15  1  0
M  END
>  <reaction>  (4) 
rxn_776

>  <mol_properties>  (4) 
{"1": {"label": "*1", "atom_type": "Cs"}, "3": {"label": "*0", "atom_type": "Cs"}, "8": {"label": "*2", "atom_type": "H0"}, "15": {"label": "*3", "atom_type": "O2s"}}

>  <type>  (4) 
ts

$$$$

     RDKit          3D

 16 14  0  0  0  0  0  0  0  0999 V2000
    0.0395    0.4824   -1.6247 C   0  0  0  0  0  0  0  0  0  0  0  0
    0.0395    0.4824   -0.1006 C   0  0  0  0  0  3  0  0  0  0  0  0
    0.0395    1.9011    0.4593 C   0  0  0  0  0  0  0  0  0  0  0  0
   -1.1480   -0.2980    0.4563 C   0  0  0  0  0  0  0  0  0  0  0  0
   -1.1868   -1.6493    0.0446 O   0  0  0  0  0  0  0  0  0  0  0  0
    0.9292    0.9789   -2.0168 H   0  0  0  0  0  0  0  0  0  0  0  0
   -0.8368    1.0151   -2.0052 H   0  0  0  0  0  0  0  0  0  0  0  0
    0.0091   -0.5336   -2.0184 H   0  0  0  0  0  0  0  0  0  0  0  0
    1.1349   -0.1206    0.3151 H   0  0  0  0  0  0  0  0  0  0  0  0
   -0.8638    2.4361    0.1530 H   0  0  0  0  0  0  0  0  0  0  0  0
    0.8981    2.4658    0.0923 H   0  0  0  0  0  0  0  0  0  0  0  0
    0.0768    1.9035    1.5508 H   0  0  0  0  0  0  0  0  0  0  0  0
   -1.1532   -0.2264    1.5521 H   0  0  0  0  0  0  0  0  0  0  0  0
   -2.0792    0.1479    0.0966 H   0  0  0  0  0  0  0  0  0  0  0  0
   -0.4042   -2.0901    0.3789 H   0  0  0  0  0  0  0  0  0  0  0  0
    2.1035   -0.6538    0.6828 O   0  0  0  0  0  1  0  0  0  0  0  0
  1  2  1  0
  1  6  1  0
  1  7  1  0
  1  8  1  0
  2  3  1  0
  2  4  1  0
  3 10  1  0
  3 11  1  0
  3 12  1  0
  4  5  1  0
  4 13  1  0
  4 14  1  0
  5 15  1  0
  9 16  1  0
M  RAD  2   2   2  16   2
M  END
>  <reaction>  (5) 
rxn_776

>  <mol_properties>  (5) 
{"1": {"label": "*1", "atom_type": "Cs"}, "3": {"label": "*0", "atom_type": "Cs"}, "8": {"label": "*2", "atom_type": "H0"}, "15": {"label": "*3", "atom_type": "O2s"}}

>  <type>  (5) 
unop_1

>  <geom_source>  (5) 
Heuristics

$$$$

     RDKit          3D

 16 14  0  0  0  0  0  0  0  0999 V2000
   -1.2864   -1.6782    0.3836 O   0  0  0  0  0  0  0  0  0  0  0  0
    0.2895   -0.9084    2.3082 O   0  0  0  0  0  1  0  0  0  0  0  0
   -0.2764   -1.1229   -0.4117 C   0  0  0  0  0  0  0  0  0  0  0  0
   -0.9329    1.2529    0.1969 C   0  0  0  0  0  0  0  0  0  0  0  0
    1.4315    0.7395   -0.5238 C   0  0  0  0  0  0  0  0  0  0  0  0
    0.1876    0.2080    0.1926 C   0  0  0  0  0  3  0  0  0  0  0  0
   -0.6527   -0.9597   -1.4472 H   0  0  0  0  0  0  0  0  0  0  0  0
    0.5830   -1.8291   -0.4513 H   0  0  0  0  0  0  0  0  0  0  0  0
   -1.8012    0.8813    0.7801 H   0  0  0  0  0  0  0  0  0  0  0  0
   -0.5759    2.1892    0.6754 H   0  0  0  0  0  0  0  0  0  0  0  0
   -1.2618    1.4789   -0.8402 H   0  0  0  0  0  0  0  0  0  0  0  0
    1.7771    1.6770   -0.0393 H   0  0  0  0  0  0  0  0  0  0  0  0
    2.2538   -0.0037   -0.4586 H   0  0  0  0  0  0  0  0  0  0  0  0
    1.2099    0.9435   -1.5935 H   0  0  0  0  0  0  0  0  0  0  0  0
   -1.5562   -2.5223   -0.0634 H   0  0  0  0  0  0  0  0  0  0  0  0
    0.6109   -0.3462    1.2923 H   0  0  0  0  0  0  0  0  0  0  0  0
  1  3  1  0
  1 15  1  0
  2 16  1  0
  3  6  1  0
  3  7  1  0
  3  8  1  0
  4  6  1  0
  4  9  1  0
  4 10  1  0
  4 11  1  0
  5  6  1  0
  5 12  1  0
  5 13  1  0
  5 14  1  0
M  RAD  2   2   2   6   2
M  END
>  <reaction>  (6) 
rxn_776

>  <mol_properties>  (6) 
{"1": {"label": "*1", "atom_type": "Cs"}, "3": {"label": "*0", "atom_type": "Cs"}, "8": {"label": "*2", "atom_type": "H0"}, "15": {"label": "*3", "atom_type": "O2s"}}

>  <type>  (6) 
unop_2

>  <geom_source>  (6) 
AutoTST

$$$$
