
     RDKit          3D

  9  8  0  0  0  0  0  0  0  0999 V2000
    1.1303   -0.2933   -0.7510 C   0  0  0  0  0  0  0  0  0  0  0  0
    0.2866    0.4560   -0.0588 C   0  0  0  0  0  0  0  0  0  0  0  0
   -0.9719   -0.0331    0.5823 C   0  0  0  0  0  0  0  0  0  0  0  0
    2.0274    0.1230   -1.1916 H   0  0  0  0  0  0  0  0  0  0  0  0
    0.9532   -1.3530   -0.9023 H   0  0  0  0  0  0  0  0  0  0  0  0
    0.5065    1.5132    0.0659 H   0  0  0  0  0  0  0  0  0  0  0  0
   -0.9526    0.1426    1.6610 H   0  0  0  0  0  0  0  0  0  0  0  0
   -1.1182   -1.1002    0.4106 H   0  0  0  0  0  0  0  0  0  0  0  0
   -1.8412    0.5010    0.1901 H   0  0  0  0  0  0  0  0  0  0  0  0
  1  2  2  3
  1  4  1  0
  1  5  1  0
  2  3  1  0
  2  6  1  0
  3  7  1  0
  3  8  1  0
  3  9  1  0
M  END
>  <reaction>  (1) 
rxn_1028

>  <mol_properties>  (1) 
{"2": {"label": "donator", "atom_type": "Cs"}, "6": {"label": "d_hydrogen", "atom_type": "H0"}}

>  <type>  (1) 
r1h

$$$$

     RDKit          3D

  7  6  0  0  0  0  0  0  0  0999 V2000
    1.8092   -0.3013   -0.2242 S   0  0  0  0  0  0  0  0  0  0  0  0
    0.1552   -0.6967   -0.1137 C   0  0  0  0  0  0  0  0  0  0  0  0
   -0.8921    0.1788    0.1148 C   0  0  0  0  0  0  0  0  0  0  0  0
   -0.7548    1.8245    0.3328 S   0  0  0  0  0  1  0  0  0  0  0  0
    1.6168    1.0210   -0.0187 H   0  0  0  0  0  0  0  0  0  0  0  0
   -0.0550   -1.7522   -0.2412 H   0  0  0  0  0  0  0  0  0  0  0  0
   -1.8791   -0.2740    0.1502 H   0  0  0  0  0  0  0  0  0  0  0  0
  1  2  1  0
  1  5  1  0
  2  3  2  3
  2  6  1  0
  3  4  1  0
  3  7  1  0
M  RAD  1   4   2
M  END
>  <reaction>  (2) 
rxn_1028

>  <mol_properties>  (2) 
{"1": {"label": "acceptor", "atom_type": "Cs"}}

>  <type>  (2) 
r2

$$$$

     RDKit          3D

  8  7  0  0  0  0  0  0  0  0999 V2000
    1.7301   -0.0562    0.5281 S   0  0  0  0  0  0  0  0  0  0  0  0
    0.1858    0.6127   -0.1669 C   0  0  0  0  0  0  0  0  0  0  0  0
   -0.9621   -0.2567    0.2171 C   0  0  0  0  0  0  0  0  0  0  0  0
   -1.8663   -1.1002   -0.8086 S   0  0  0  0  0  0  0  0  0  0  0  0
    1.7025   -1.2092   -0.1540 H   0  0  0  0  0  0  0  0  0  0  0  0
    0.2619    0.7246   -1.2458 H   0  0  0  0  0  0  0  0  0  0  0  0
    0.0809    1.5982    0.2929 H   0  0  0  0  0  0  0  0  0  0  0  0
   -1.1456   -0.3126    1.2907 H   0  0  0  0  0  0  0  0  0  0  0  0
  1  2  1  0
  1  5  1  0
  2  3  1  0
  2  6  1  0
  2  7  1  0
  3  4  2  0
  3  8  1  0
M  END
>  <reaction>  (3) 
rxn_1028

>  <mol_properties>  (3) 
{"1": {"label": "acceptor", "atom_type": "Cs"}, "7": {"label": "a_hydrogen", "atom_type": "H0"}}

>  <type>  (3) 
r2h

$$$$

     RDKit          3D

 16 14  0  0  0  0  0  0  0  0999 V2000
   -0.9296   -1.7391    0.8158 S   0  0  0  0  0  0  0  0  0  0  0  0
   -0.2603   -0.1305    1.1180 C   0  0  0  0  0  0  0  0  0  0  0  0
   -0.8001    1.0378    0.4565 C   0  0  0  0  0  0  0  0  0  0  0  0
   -1.7100    1.0843   -0.8900 S   0  0  0  0  0  0  0  0  0  0  0  0
   -1.4775   -1.4090   -0.3686 H   0  0  0  0  0  0  0  0  0  0  0  0
   -0.0492    0.0153    2.1753 H   0  0  0  0  0  0  0  0  0  0  0  0
   -0.4669    1.9766    0.8995 H   0  0  0  0  0  0  0  0  0  0  0  0
    1.4977   -0.8767   -2.2953 C   0  0  0  0  0  0  0  0  0  0  0  0
    1.9489   -1.2172   -1.0719 C   0  0  0  0  0  0  0  0  0  0  0  0
    2.2133   -0.2775   -0.0284 C   0  0  0  0  0  3  0  0  0  0  0  0
    1.2693   -1.6266   -3.0405 H   0  0  0  0  0  0  0  0  0  0  0  0
    1.3495    0.1610   -2.5709 H   0  0  0  0  0  0  0  0  0  0  0  0
    2.0673   -2.2689   -0.8343 H   0  0  0  0  0  0  0  0  0  0  0  0
    0.9382   -0.1546    0.6260 H   0  0  0  0  0  0  0  0  0  0  0  0
    2.3287    0.7660   -0.3099 H   0  0  0  0  0  0  0  0  0  0  0  0
    2.8251   -0.5977    0.8084 H   0  0  0  0  0  0  0  0  0  0  0  0
  1  2  1  0
  1  5  1  0
  2  3  1  0
  2  6  1  0
  2 14  1  0
  3  4  2  0
  3  7  1  0
  8  9  2  3
  8 11  1  0
  8 12  1  0
  9 10  1  0
  9 13  1  0
 10 15  1  0
 10 16  1  0
M  RAD  1  10   2
M  END
>  <reaction>  (4) 
rxn_1028

>  <mol_properties>  (4) 
{"1": {"label": "*1", "atom_type": "Cs"}, "2": {"label": "*0", "atom_type": "CS"}, "8": {"label": "*4", "atom_type": "Cd"}, "9": {"label": "*3", "atom_type": "Cs"}, "13": {"label": "*2", "atom_type": "H0"}}

>  <type>  (4) 
ts

$$$$

     RDKit          3D

 16 14  0  0  0  0  0  0  0  0999 V2000
    0.3295    0.7221    2.3332 S   0  0  0  0  0  0  0  0  0  0  0  0
   -0.1618    0.7016    0.5800 C   0  0  0  0  0  0  0  0  0  0  0  0
   -1.5978    0.3218    0.4596 C   0  0  0  0  0  0  0  0  0  0  0  0
   -2.1449   -1.0103   -0.2528 S   0  0  0  0  0  0  0  0  0  0  0  0
    0.1185   -0.5827    2.5527 H   0  0  0  0  0  0  0  0  0  0  0  0
   -0.0155    1.7299    0.2408 H   0  0  0  0  0  0  0  0  0  0  0  0
   -2.2898    1.0208    0.9306 H   0  0  0  0  0  0  0  0  0  0  0  0
    1.9392   -0.5616   -3.1632 C   0  0  0  0  0  0  0  0  0  0  0  0
    1.9392   -0.5616   -1.8394 C   0  0  0  0  0  0  0  0  0  0  0  0
    1.9392    0.6606   -0.9789 C   0  0  0  0  0  3  0  0  0  0  0  0
    1.9392   -1.4843   -3.7296 H   0  0  0  0  0  0  0  0  0  0  0  0
    1.9392    0.3640   -3.7292 H   0  0  0  0  0  0  0  0  0  0  0  0
    1.9392   -1.5142   -1.3159 H   0  0  0  0  0  0  0  0  0  0  0  0
    0.8860    0.6812   -0.1974 H   0  0  0  0  0  0  0  0  0  0  0  0
    1.9392    1.5711   -1.5795 H   0  0  0  0  0  0  0  0  0  0  0  0
    2.8169    0.6777   -0.3277 H   0  0  0  0  0  0  0  0  0  0  0  0
  1  2  1  0
  1  5  1  0
  2  3  1  0
  2  6  1  0
  2 14  1  0
  3  4  2  0
  3  7  1  0
  8  9  2  3
  8 11  1  0
  8 12  1  0
  9 10  1  0
  9 13  1  0
 10 15  1  0
 10 16  1  0
M  RAD  1  10   2
M  END
>  <reaction>  (5) 
rxn_1028

>  <mol_properties>  (5) 
{"1": {"label": "*1", "atom_type": "Cs"}, "2": {"label": "*0", "atom_type": "CS"}, "8": {"label": "*4", "atom_type": "Cd"}, "9": {"label": "*3", "atom_type": "Cs"}, "13": {"label": "*2", "atom_type": "H0"}}

>  <type>  (5) 
unop_1

>  <geom_source>  (5) 
Heuristics

$$$$

     RDKit          3D

 16 14  0  0  0  0  0  0  0  0999 V2000
   -0.5614   -1.4783    1.5089 S   0  0  0  0  0  0  0  0  0  0  0  0
   -0.0240    0.2121    1.0973 C   0  0  0  0  0  0  0  0  0  0  0  0
   -1.2128    1.0893    0.9020 C   0  0  0  0  0  0  0  0  0  0  0  0
   -1.6221    1.7967   -0.4812 S   0  0  0  0  0  0  0  0  0  0  0  0
   -1.1920   -1.7106    0.3497 H   0  0  0  0  0  0  0  0  0  0  0  0
    0.5457    0.5402    1.9700 H   0  0  0  0  0  0  0  0  0  0  0  0
   -1.8361    1.2076    1.7890 H   0  0  0  0  0  0  0  0  0  0  0  0
    2.0770   -1.0511   -2.6458 C   0  0  0  0  0  0  0  0  0  0  0  0
    2.0770   -1.0511   -1.3221 C   0  0  0  0  0  0  0  0  0  0  0  0
    2.0770    0.1711   -0.4616 C   0  0  0  0  0  3  0  0  0  0  0  0
    2.0770   -1.9738   -3.2123 H   0  0  0  0  0  0  0  0  0  0  0  0
    2.0770   -0.1255   -3.2118 H   0  0  0  0  0  0  0  0  0  0  0  0
    2.0770   -2.0037   -0.7986 H   0  0  0  0  0  0  0  0  0  0  0  0
    1.0238    0.1916    0.3199 H   0  0  0  0  0  0  0  0  0  0  0  0
    2.0770    1.0815   -1.0622 H   0  0  0  0  0  0  0  0  0  0  0  0
    2.9547    0.1882    0.1896 H   0  0  0  0  0  0  0  0  0  0  0  0
  1  2  1  0
  1  5  1  0
  2  3  1  0
  2  6  1  0
  2 14  1  0
  3  4  2  0
  3  7  1  0
  8  9  2  3
  8 11  1  0
  8 12  1  0
  9 10  1  0
  9 13  1  0
 10 15  1  0
 10 16  1  0
M  RAD  1  10   2
M  END
>  <reaction>  (6) 
rxn_1028

>  <mol_properties>  (6) 
{"1": {"label": "*1", "atom_type": "Cs"}, "2": {"label": "*0", "atom_type": "CS"}, "8": {"label": "*4", "atom_type": "Cd"}, "9": {"label": "*3", "atom_type": "Cs"}, "13": {"label": "*2", "atom_type": "H0"}}

>  <type>  (6) 
unop_2

>  <geom_source>  (6) 
Heuristics

$$$$

     RDKit          3D

 16 14  0  0  0  0  0  0  0  0999 V2000
   -0.0581    1.6352    1.9359 S   0  0  0  0  0  0  0  0  0  0  0  0
   -0.4213    0.7657    0.3778 C   0  0  0  0  0  0  0  0  0  0  0  0
   -1.5034   -0.2355    0.5954 C   0  0  0  0  0  0  0  0  0  0  0  0
   -1.3329   -1.8266    0.4518 S   0  0  0  0  0  0  0  0  0  0  0  0
    0.3638    0.5533    2.6045 H   0  0  0  0  0  0  0  0  0  0  0  0
   -0.7657    1.5495   -0.3012 H   0  0  0  0  0  0  0  0  0  0  0  0
   -2.4590    0.1927    0.9001 H   0  0  0  0  0  0  0  0  0  0  0  0
    1.6798   -0.4974   -3.3654 C   0  0  0  0  0  0  0  0  0  0  0  0
    1.6798   -0.4974   -2.0416 C   0  0  0  0  0  0  0  0  0  0  0  0
    1.6798    0.7248   -1.1811 C   0  0  0  0  0  3  0  0  0  0  0  0
    1.6798   -1.4201   -3.9319 H   0  0  0  0  0  0  0  0  0  0  0  0
    1.6798    0.4282   -3.9314 H   0  0  0  0  0  0  0  0  0  0  0  0
    1.6798   -1.4500   -1.5181 H   0  0  0  0  0  0  0  0  0  0  0  0
    0.6265    0.7453   -0.3997 H   0  0  0  0  0  0  0  0  0  0  0  0
    1.6798    1.6352   -1.7817 H   0  0  0  0  0  0  0  0  0  0  0  0
    2.5575    0.7419   -0.5299 H   0  0  0  0  0  0  0  0  0  0  0  0
  1  2  1  0
  1  5  1  0
  2  3  1  0
  2  6  1  0
  2 14  1  0
  3  4  2  0
  3  7  1  0
  8  9  2  3
  8 11  1  0
  8 12  1  0
  9 10  1  0
  9 13  1  0
 10 15  1  0
 10 16  1  0
M  RAD  1  10   2
M  END
>  <reaction>  (7) 
rxn_1028

>  <mol_properties>  (7) 
{"1": {"label": "*1", "atom_type": "Cs"}, "2": {"label": "*0", "atom_type": "CS"}, "8": {"label": "*4", "atom_type": "Cd"}, "9": {"label": "*3", "atom_type": "Cs"}, "13": {"label": "*2", "atom_type": "H0"}}

>  <type>  (7) 
unop_3

>  <geom_source>  (7) 
Heuristics

$$$$

     RDKit          3D

 16 14  0  0  0  0  0  0  0  0999 V2000
   -2.2765   -0.3863    0.0926 S   0  0  0  0  0  0  0  0  0  0  0  0
   -0.7408   -0.3861    1.0709 C   0  0  0  0  0  0  0  0  0  0  0  0
   -0.3294    1.0147    1.3699 C   0  0  0  0  0  0  0  0  0  0  0  0
    1.0148    1.7165    0.8390 S   0  0  0  0  0  0  0  0  0  0  0  0
   -1.7628    0.2417   -0.9738 H   0  0  0  0  0  0  0  0  0  0  0  0
   -1.0031   -0.9061    1.9954 H   0  0  0  0  0  0  0  0  0  0  0  0
   -1.0421    1.5738    1.9773 H   0  0  0  0  0  0  0  0  0  0  0  0
    1.3603   -1.6493   -2.6722 C   0  0  0  0  0  0  0  0  0  0  0  0
    1.3603   -1.6493   -1.3484 C   0  0  0  0  0  0  0  0  0  0  0  0
    1.3603   -0.4271   -0.4879 C   0  0  0  0  0  3  0  0  0  0  0  0
    1.3603   -2.5720   -3.2387 H   0  0  0  0  0  0  0  0  0  0  0  0
    1.3603   -0.7237   -3.2382 H   0  0  0  0  0  0  0  0  0  0  0  0
    1.3603   -2.6019   -0.8249 H   0  0  0  0  0  0  0  0  0  0  0  0
    0.3070   -0.4066    0.2935 H   0  0  0  0  0  0  0  0  0  0  0  0
    1.3603    0.4834   -1.0885 H   0  0  0  0  0  0  0  0  0  0  0  0
    2.2380   -0.4100    0.1633 H   0  0  0  0  0  0  0  0  0  0  0  0
  1  2  1  0
  1  5  1  0
  2  3  1  0
  2  6  1  0
  2 14  1  0
  3  4  2  0
  3  7  1  0
  8  9  2  3
  8 11  1  0
  8 12  1  0
  9 10  1  0
  9 13  1  0
 10 15  1  0
 10 16  1  0
M  RAD  1  10   2
M  END
>  <reaction>  (8) 
rxn_1028

>  <mol_properties>  (8) 
{"1": {"label": "*1", "atom_type": "Cs"}, "2": {"label": "*0", "atom_type": "CS"}, "8": {"label": "*4", "atom_type": "Cd"}, "9": {"label": "*3", "atom_type": "Cs"}, "13": {"label": "*2", "atom_type": "H0"}}

>  <type>  (8) 
unop_4

>  <geom_source>  (8) 
Heuristics

$$$$

     RDKit          3D

 16 14  0  0  0  0  0  0  0  0999 V2000
   -0.9083    2.0644    1.2740 S   0  0  0  0  0  0  0  0  0  0  0  0
   -0.9061    0.5764    0.2247 C   0  0  0  0  0  0  0  0  0  0  0  0
   -0.9849   -0.6447    1.0752 C   0  0  0  0  0  0  0  0  0  0  0  0
    0.1611   -1.7646    1.1931 S   0  0  0  0  0  0  0  0  0  0  0  0
    0.2445    1.7947    1.9015 H   0  0  0  0  0  0  0  0  0  0  0  0
   -1.8078    0.6681   -0.3854 H   0  0  0  0  0  0  0  0  0  0  0  0
   -1.8992   -0.7254    1.6642 H   0  0  0  0  0  0  0  0  0  0  0  0
    1.1950   -0.6868   -3.5185 C   0  0  0  0  0  0  0  0  0  0  0  0
    1.1950   -0.6868   -2.1947 C   0  0  0  0  0  0  0  0  0  0  0  0
    1.1950    0.5354   -1.3342 C   0  0  0  0  0  3  0  0  0  0  0  0
    1.1950   -1.6095   -4.0850 H   0  0  0  0  0  0  0  0  0  0  0  0
    1.1950    0.2388   -4.0845 H   0  0  0  0  0  0  0  0  0  0  0  0
    1.1950   -1.6394   -1.6712 H   0  0  0  0  0  0  0  0  0  0  0  0
    0.1417    0.5559   -0.5528 H   0  0  0  0  0  0  0  0  0  0  0  0
    1.1950    1.4458   -1.9348 H   0  0  0  0  0  0  0  0  0  0  0  0
    2.0727    0.5525   -0.6830 H   0  0  0  0  0  0  0  0  0  0  0  0
  1  2  1  0
  1  5  1  0
  2  3  1  0
  2  6  1  0
  2 14  1  0
  3  4  2  0
  3  7  1  0
  8  9  2  3
  8 11  1  0
  8 12  1  0
  9 10  1  0
  9 13  1  0
 10 15  1  0
 10 16  1  0
M  RAD  1  10   2
M  END
>  <reaction>  (9) 
rxn_1028

>  <mol_properties>  (9) 
{"1": {"label": "*1", "atom_type": "Cs"}, "2": {"label": "*0", "atom_type": "CS"}, "8": {"label": "*4", "atom_type": "Cd"}, "9": {"label": "*3", "atom_type": "Cs"}, "13": {"label": "*2", "atom_type": "H0"}}

>  <type>  (9) 
unop_5

>  <geom_source>  (9) 
Heuristics

$$$$

     RDKit          3D

 16 14  0  0  0  0  0  0  0  0999 V2000
   -2.3757    0.4897    0.0671 S   0  0  0  0  0  0  0  0  0  0  0  0
   -0.9834   -0.3617    0.8746 C   0  0  0  0  0  0  0  0  0  0  0  0
   -0.0947    0.6342    1.5372 C   0  0  0  0  0  0  0  0  0  0  0  0
    1.4312    0.9273    1.1288 S   0  0  0  0  0  0  0  0  0  0  0  0
   -1.6298    1.1804   -0.8059 H   0  0  0  0  0  0  0  0  0  0  0  0
   -1.4511   -1.0051    1.6237 H   0  0  0  0  0  0  0  0  0  0  0  0
   -0.5714    1.2012    2.3377 H   0  0  0  0  0  0  0  0  0  0  0  0
    1.1176   -1.6249   -2.8686 C   0  0  0  0  0  0  0  0  0  0  0  0
    1.1176   -1.6249   -1.5448 C   0  0  0  0  0  0  0  0  0  0  0  0
    1.1176   -0.4027   -0.6843 C   0  0  0  0  0  3  0  0  0  0  0  0
    1.1176   -2.5476   -3.4351 H   0  0  0  0  0  0  0  0  0  0  0  0
    1.1176   -0.6993   -3.4346 H   0  0  0  0  0  0  0  0  0  0  0  0
    1.1176   -2.5775   -1.0213 H   0  0  0  0  0  0  0  0  0  0  0  0
    0.0644   -0.3822    0.0971 H   0  0  0  0  0  0  0  0  0  0  0  0
    1.1176    0.5077   -1.2849 H   0  0  0  0  0  0  0  0  0  0  0  0
    1.9953   -0.3856   -0.0331 H   0  0  0  0  0  0  0  0  0  0  0  0
  1  2  1  0
  1  5  1  0
  2  3  1  0
  2  6  1  0
  2 14  1  0
  3  4  2  0
  3  7  1  0
  8  9  2  3
  8 11  1  0
  8 12  1  0
  9 10  1  0
  9 13  1  0
 10 15  1  0
 10 16  1  0
M  RAD  1  10   2
M  END
>  <reaction>  (10) 
rxn_1028

>  <mol_properties>  (10) 
{"1": {"label": "*1", "atom_type": "Cs"}, "2": {"label": "*0", "atom_type": "CS"}, "8": {"label": "*4", "atom_type": "Cd"}, "9": {"label": "*3", "atom_type": "Cs"}, "13": {"label": "*2", "atom_type": "H0"}}

>  <type>  (10) 
unop_6

>  <geom_source>  (10) 
Heuristics

$$$$

     RDKit          3D

 16 14  0  0  0  0  0  0  0  0999 V2000
   -2.1750    1.2677    0.3241 S   0  0  0  0  0  0  0  0  0  0  0  0
   -1.1592   -0.2100    0.6405 C   0  0  0  0  0  0  0  0  0  0  0  0
   -0.0596    0.1235    1.5893 C   0  0  0  0  0  0  0  0  0  0  0  0
    1.5079    0.0804    1.2394 S   0  0  0  0  0  0  0  0  0  0  0  0
   -1.1996    1.9883   -0.2458 H   0  0  0  0  0  0  0  0  0  0  0  0
   -1.8473   -0.9242    1.0990 H   0  0  0  0  0  0  0  0  0  0  0  0
   -0.3970    0.4414    2.5764 H   0  0  0  0  0  0  0  0  0  0  0  0
    0.9418   -1.4731   -3.1027 C   0  0  0  0  0  0  0  0  0  0  0  0
    0.9418   -1.4731   -1.7789 C   0  0  0  0  0  0  0  0  0  0  0  0
    0.9418   -0.2510   -0.9184 C   0  0  0  0  0  3  0  0  0  0  0  0
    0.9418   -2.3959   -3.6692 H   0  0  0  0  0  0  0  0  0  0  0  0
    0.9418   -0.5475   -3.6687 H   0  0  0  0  0  0  0  0  0  0  0  0
    0.9418   -2.4258   -1.2554 H   0  0  0  0  0  0  0  0  0  0  0  0
   -0.1114   -0.2304   -0.1370 H   0  0  0  0  0  0  0  0  0  0  0  0
    0.9418    0.6595   -1.5190 H   0  0  0  0  0  0  0  0  0  0  0  0
    1.8195   -0.2339   -0.2672 H   0  0  0  0  0  0  0  0  0  0  0  0
  1  2  1  0
  1  5  1  0
  2  3  1  0
  2  6  1  0
  2 14  1  0
  3  4  2  0
  3  7  1  0
  8  9  2  3
  8 11  1  0
  8 12  1  0
  9 10  1  0
  9 13  1  0
 10 15  1  0
 10 16  1  0
M  RAD  1  10   2
M  END
>  <reaction>  (11) 
rxn_1028

>  <mol_properties>  (11) 
{"1": {"label": "*1", "atom_type": "Cs"}, "2": {"label": "*0", "atom_type": "CS"}, "8": {"label": "*4", "atom_type": "Cd"}, "9": {"label": "*3", "atom_type": "Cs"}, "13": {"label": "*2", "atom_type": "H0"}}

>  <type>  (11) 
unop_7

>  <geom_source>  (11) 
Heuristics

$$$$

     RDKit          3D

 16 14  0  0  0  0  0  0  0  0999 V2000
    0.3071   -0.2444    2.3334 S   0  0  0  0  0  0  0  0  0  0  0  0
   -0.0409    0.5867    0.7511 C   0  0  0  0  0  0  0  0  0  0  0  0
   -1.5126    0.7272    0.5643 C   0  0  0  0  0  0  0  0  0  0  0  0
   -2.3689    0.0188   -0.5960 S   0  0  0  0  0  0  0  0  0  0  0  0
   -0.2880   -1.4025    2.0168 H   0  0  0  0  0  0  0  0  0  0  0  0
    0.4210    1.5719    0.8500 H   0  0  0  0  0  0  0  0  0  0  0  0
   -2.0049    1.3473    1.3144 H   0  0  0  0  0  0  0  0  0  0  0  0
    2.0602   -0.6765   -2.9921 C   0  0  0  0  0  0  0  0  0  0  0  0
    2.0602   -0.6765   -1.6683 C   0  0  0  0  0  0  0  0  0  0  0  0
    2.0602    0.5457   -0.8078 C   0  0  0  0  0  3  0  0  0  0  0  0
    2.0602   -1.5992   -3.5585 H   0  0  0  0  0  0  0  0  0  0  0  0
    2.0602    0.2491   -3.5581 H   0  0  0  0  0  0  0  0  0  0  0  0
    2.0602   -1.6291   -1.1448 H   0  0  0  0  0  0  0  0  0  0  0  0
    1.0069    0.5663   -0.0263 H   0  0  0  0  0  0  0  0  0  0  0  0
    2.0602    1.4562   -1.4084 H   0  0  0  0  0  0  0  0  0  0  0  0
    2.9379    0.5628   -0.1566 H   0  0  0  0  0  0  0  0  0  0  0  0
  1  2  1  0
  1  5  1  0
  2  3  1  0
  2  6  1  0
  2 14  1  0
  3  4  2  0
  3  7  1  0
  8  9  2  3
  8 11  1  0
  8 12  1  0
  9 10  1  0
  9 13  1  0
 10 15  1  0
 10 16  1  0
M  RAD  1  10   2
M  END
>  <reaction>  (12) 
rxn_1028

>  <mol_properties>  (12) 
{"1": {"label": "*1", "atom_type": "Cs"}, "2": {"label": "*0", "atom_type": "CS"}, "8": {"label": "*4", "atom_type": "Cd"}, "9": {"label": "*3", "atom_type": "Cs"}, "13": {"label": "*2", "atom_type": "H0"}}

>  <type>  (12) 
unop_8

>  <geom_source>  (12) 
Heuristics

$$$$

     RDKit          3D

 16 14  0  0  0  0  0  0  0  0999 V2000
   -1.8625   -1.1321    0.4174 S   0  0  0  0  0  0  0  0  0  0  0  0
   -0.4550   -0.2831    1.2006 C   0  0  0  0  0  0  0  0  0  0  0  0
   -0.6702    1.1912    1.1694 C   0  0  0  0  0  0  0  0  0  0  0  0
    0.2416    2.2416    0.3652 S   0  0  0  0  0  0  0  0  0  0  0  0
   -1.6810   -0.6076   -0.8022 H   0  0  0  0  0  0  0  0  0  0  0  0
   -0.4570   -0.6413    2.2329 H   0  0  0  0  0  0  0  0  0  0  0  0
   -1.5422    1.5313    1.7292 H   0  0  0  0  0  0  0  0  0  0  0  0
    1.6461   -1.5462   -2.5425 C   0  0  0  0  0  0  0  0  0  0  0  0
    1.6461   -1.5462   -1.2188 C   0  0  0  0  0  0  0  0  0  0  0  0
    1.6461   -0.3240   -0.3582 C   0  0  0  0  0  3  0  0  0  0  0  0
    1.6461   -2.4689   -3.1090 H   0  0  0  0  0  0  0  0  0  0  0  0
    1.6461   -0.6206   -3.1085 H   0  0  0  0  0  0  0  0  0  0  0  0
    1.6461   -2.4988   -0.6952 H   0  0  0  0  0  0  0  0  0  0  0  0
    0.5928   -0.3035    0.4232 H   0  0  0  0  0  0  0  0  0  0  0  0
    1.6461    0.5864   -0.9588 H   0  0  0  0  0  0  0  0  0  0  0  0
    2.5238   -0.3069    0.2930 H   0  0  0  0  0  0  0  0  0  0  0  0
  1  2  1  0
  1  5  1  0
  2  3  1  0
  2  6  1  0
  2 14  1  0
  3  4  2  0
  3  7  1  0
  8  9  2  3
  8 11  1  0
  8 12  1  0
  9 10  1  0
  9 13  1  0
 10 15  1  0
 10 16  1  0
M  RAD  1  10   2
M  END
>  <reaction>  (13) 
rxn_1028

>  <mol_properties>  (13) 
{"1": {"label": "*1", "atom_type": "Cs"}, "2": {"label": "*0", "atom_type": "CS"}, "8": {"label": "*4", "atom_type": "Cd"}, "9": {"label": "*3", "atom_type": "Cs"}, "13": {"label": "*2", "atom_type": "H0"}}

>  <type>  (13) 
unop_9

>  <geom_source>  (13) 
Heuristics

$$$$

     RDKit          3D

 16 14  0  0  0  0  0  0  0  0999 V2000
   -0.0190   -1.0245    2.0152 S   0  0  0  0  0  0  0  0  0  0  0  0
    0.0096    0.4329    0.9239 C   0  0  0  0  0  0  0  0  0  0  0  0
   -1.3723    0.9617    0.7468 C   0  0  0  0  0  0  0  0  0  0  0  0
   -2.1774    0.9970   -0.6431 S   0  0  0  0  0  0  0  0  0  0  0  0
   -0.7668   -1.7889    1.2078 H   0  0  0  0  0  0  0  0  0  0  0  0
    0.6259    1.1624    1.4547 H   0  0  0  0  0  0  0  0  0  0  0  0
   -1.8405    1.3159    1.6659 H   0  0  0  0  0  0  0  0  0  0  0  0
    2.1107   -0.8303   -2.8192 C   0  0  0  0  0  0  0  0  0  0  0  0
    2.1107   -0.8303   -1.4955 C   0  0  0  0  0  0  0  0  0  0  0  0
    2.1107    0.3919   -0.6350 C   0  0  0  0  0  3  0  0  0  0  0  0
    2.1107   -1.7530   -3.3857 H   0  0  0  0  0  0  0  0  0  0  0  0
    2.1107    0.0953   -3.3852 H   0  0  0  0  0  0  0  0  0  0  0  0
    2.1107   -1.7829   -0.9719 H   0  0  0  0  0  0  0  0  0  0  0  0
    1.0574    0.4124    0.1465 H   0  0  0  0  0  0  0  0  0  0  0  0
    2.1107    1.3024   -1.2355 H   0  0  0  0  0  0  0  0  0  0  0  0
    2.9884    0.4090    0.0163 H   0  0  0  0  0  0  0  0  0  0  0  0
  1  2  1  0
  1  5  1  0
  2  3  1  0
  2  6  1  0
  2 14  1  0
  3  4  2  0
  3  7  1  0
  8  9  2  3
  8 11  1  0
  8 12  1  0
  9 10  1  0
  9 13  1  0
 10 15  1  0
 10 16  1  0
M  RAD  1  10   2
M  END
>  <reaction>  (14) 
rxn_1028

>  <mol_properties>  (14) 
{"1": {"label": "*1", "atom_type": "Cs"}, "2": {"label": "*0", "atom_type": "CS"}, "8": {"label": "*4", "atom_type": "Cd"}, "9": {"label": "*3", "atom_type": "Cs"}, "13": {"label": "*2", "atom_type": "H0"}}

>  <type>  (14) 
unop_10

>  <geom_source>  (14) 
Heuristics

$$$$

     RDKit          3D

 16 14  0  0  0  0  0  0  0  0999 V2000
   -1.7103    1.8202    0.7438 S   0  0  0  0  0  0  0  0  0  0  0  0
   -1.2034    0.1095    0.3806 C   0  0  0  0  0  0  0  0  0  0  0  0
   -0.3267   -0.4027    1.4714 C   0  0  0  0  0  0  0  0  0  0  0  0
    1.2176   -0.8121    1.3007 S   0  0  0  0  0  0  0  0  0  0  0  0
   -0.4770    2.3425    0.7057 H   0  0  0  0  0  0  0  0  0  0  0  0
   -2.1384   -0.4552    0.3538 H   0  0  0  0  0  0  0  0  0  0  0  0
   -0.8092   -0.4607    2.4477 H   0  0  0  0  0  0  0  0  0  0  0  0
    0.8977   -1.1537   -3.3626 C   0  0  0  0  0  0  0  0  0  0  0  0
    0.8977   -1.1537   -2.0388 C   0  0  0  0  0  0  0  0  0  0  0  0
    0.8977    0.0685   -1.1783 C   0  0  0  0  0  3  0  0  0  0  0  0
    0.8977   -2.0764   -3.9290 H   0  0  0  0  0  0  0  0  0  0  0  0
    0.8977   -0.2281   -3.9286 H   0  0  0  0  0  0  0  0  0  0  0  0
    0.8977   -2.1063   -1.5153 H   0  0  0  0  0  0  0  0  0  0  0  0
   -0.1556    0.0890   -0.3968 H   0  0  0  0  0  0  0  0  0  0  0  0
    0.8977    0.9789   -1.7789 H   0  0  0  0  0  0  0  0  0  0  0  0
    1.7754    0.0856   -0.5271 H   0  0  0  0  0  0  0  0  0  0  0  0
  1  2  1  0
  1  5  1  0
  2  3  1  0
  2  6  1  0
  2 14  1  0
  3  4  2  0
  3  7  1  0
  8  9  2  3
  8 11  1  0
  8 12  1  0
  9 10  1  0
  9 13  1  0
 10 15  1  0
 10 16  1  0
M  RAD  1  10   2
M  END
>  <reaction>  (15) 
rxn_1028

>  <mol_properties>  (15) 
{"1": {"label": "*1", "atom_type": "Cs"}, "2": {"label": "*0", "atom_type": "CS"}, "8": {"label": "*4", "atom_type": "Cd"}, "9": {"label": "*3", "atom_type": "Cs"}, "13": {"label": "*2", "atom_type": "H0"}}

>  <type>  (15) 
unop_11

>  <geom_source>  (15) 
Heuristics

$$$$

     RDKit          3D

 16 14  0  0  0  0  0  0  0  0999 V2000
   -1.2276   -1.5261    0.9380 S   0  0  0  0  0  0  0  0  0  0  0  0
   -0.1855   -0.0584    1.2125 C   0  0  0  0  0  0  0  0  0  0  0  0
   -0.9915    1.1800    1.0184 C   0  0  0  0  0  0  0  0  0  0  0  0
   -0.7443    2.2726   -0.1333 S   0  0  0  0  0  0  0  0  0  0  0  0
   -1.4874   -1.2737   -0.3521 H   0  0  0  0  0  0  0  0  0  0  0  0
    0.1347   -0.1388    2.2540 H   0  0  0  0  0  0  0  0  0  0  0  0
   -1.8178    1.2946    1.7208 H   0  0  0  0  0  0  0  0  0  0  0  0
    1.9155   -1.3215   -2.5307 C   0  0  0  0  0  0  0  0  0  0  0  0
    1.9155   -1.3215   -1.2069 C   0  0  0  0  0  0  0  0  0  0  0  0
    1.9155   -0.0994   -0.3464 C   0  0  0  0  0  3  0  0  0  0  0  0
    1.9155   -2.2443   -3.0972 H   0  0  0  0  0  0  0  0  0  0  0  0
    1.9155   -0.3959   -3.0967 H   0  0  0  0  0  0  0  0  0  0  0  0
    1.9155   -2.2742   -0.6834 H   0  0  0  0  0  0  0  0  0  0  0  0
    0.8623   -0.0788    0.4350 H   0  0  0  0  0  0  0  0  0  0  0  0
    1.9155    0.8111   -0.9470 H   0  0  0  0  0  0  0  0  0  0  0  0
    2.7932   -0.0823    0.3048 H   0  0  0  0  0  0  0  0  0  0  0  0
  1  2  1  0
  1  5  1  0
  2  3  1  0
  2  6  1  0
  2 14  1  0
  3  4  2  0
  3  7  1  0
  8  9  2  3
  8 11  1  0
  8 12  1  0
  9 10  1  0
  9 13  1  0
 10 15  1  0
 10 16  1  0
M  RAD  1  10   2
M  END
>  <reaction>  (16) 
rxn_1028

>  <mol_properties>  (16) 
{"1": {"label": "*1", "atom_type": "Cs"}, "2": {"label": "*0", "atom_type": "CS"}, "8": {"label": "*4", "atom_type": "Cd"}, "9": {"label": "*3", "atom_type": "Cs"}, "13": {"label": "*2", "atom_type": "H0"}}

>  <type>  (16) 
unop_12

>  <geom_source>  (16) 
Heuristics

$$$$

     RDKit          3D

 16 14  0  0  0  0  0  0  0  0999 V2000
   -2.5499    1.6506    0.3861 S   0  0  0  0  0  0  0  0  0  0  0  0
   -2.1155   -1.7087    0.9797 S   0  0  0  0  0  0  0  0  0  0  0  0
   -1.5201    0.3649   -0.3901 C   0  0  0  0  0  0  0  0  0  0  0  0
    1.5454   -0.4406    0.3084 C   0  0  0  0  0  0  0  0  0  0  0  0
   -2.1620   -0.9842   -0.2599 C   0  0  0  0  0  0  0  0  0  0  0  0
    0.9365    0.9238    0.3663 C   0  0  0  0  0  0  0  0  0  0  0  0
    2.6753   -0.6666   -0.3653 C   0  0  0  0  0  3  0  0  0  0  0  0
   -1.4134    0.6113   -1.4672 H   0  0  0  0  0  0  0  0  0  0  0  0
   -0.2859    0.3619    0.1688 H   0  0  0  0  0  0  0  0  0  0  0  0
    1.0546   -1.2583    0.8260 H   0  0  0  0  0  0  0  0  0  0  0  0
   -2.5441   -1.4798   -1.1465 H   0  0  0  0  0  0  0  0  0  0  0  0
    3.1825    0.1377   -0.8900 H   0  0  0  0  0  0  0  0  0  0  0  0
    3.1000   -1.6648   -0.3942 H   0  0  0  0  0  0  0  0  0  0  0  0
    0.6740    1.2720   -0.6550 H   0  0  0  0  0  0  0  0  0  0  0  0
    1.6399    1.6396    0.8418 H   0  0  0  0  0  0  0  0  0  0  0  0
   -2.2171    1.2413    1.6913 H   0  0  0  0  0  0  0  0  0  0  0  0
  1  3  1  0
  1 16  1  0
  2  5  2  0
  3  5  1  0
  3  8  1  0
  3  9  1  0
  4  6  2  3
  4  7  1  0
  4 10  1  0
  5 11  1  0
  6 14  1  0
  6 15  1  0
  7 12  1  0
  7 13  1  0
M  RAD  1   7   2
M  END
>  <reaction>  (17) 
rxn_1028

>  <mol_properties>  (17) 
{"1": {"label": "*1", "atom_type": "Cs"}, "2": {"label": "*0", "atom_type": "CS"}, "8": {"label": "*4", "atom_type": "Cd"}, "9": {"label": "*3", "atom_type": "Cs"}, "13": {"label": "*2", "atom_type": "H0"}}

>  <type>  (17) 
unop_13

>  <geom_source>  (17) 
AutoTST

$$$$

     RDKit          3D

 16 14  0  0  0  0  0  0  0  0999 V2000
   -0.5614   -1.4783    1.5089 S   0  0  0  0  0  0  0  0  0  0  0  0
   -0.0240    0.2121    1.0973 C   0  0  0  0  0  0  0  0  0  0  0  0
   -1.2128    1.0893    0.9020 C   0  0  0  0  0  0  0  0  0  0  0  0
   -1.6221    1.7967   -0.4812 S   0  0  0  0  0  0  0  0  0  0  0  0
   -1.1920   -1.7106    0.3497 H   0  0  0  0  0  0  0  0  0  0  0  0
    0.5457    0.5402    1.9700 H   0  0  0  0  0  0  0  0  0  0  0  0
   -1.8361    1.2076    1.7890 H   0  0  0  0  0  0  0  0  0  0  0  0
    2.0770   -1.0511   -2.6458 C   0  0  0  0  0  0  0  0  0  0  0  0
    2.0770   -1.0511   -1.3221 C   0  0  0  0  0  0  0  0  0  0  0  0
    2.0770    0.1711   -0.4616 C   0  0  0  0  0  3  0  0  0  0  0  0
    2.0770   -1.9738   -3.2123 H   0  0  0  0  0  0  0  0  0  0  0  0
    2.0770   -0.1255   -3.2119 H   0  0  0  0  0  0  0  0  0  0  0  0
    2.0770   -2.0037   -0.7986 H   0  0  0  0  0  0  0  0  0  0  0  0
    1.0238    0.1916    0.3199 H   0  0  0  0  0  0  0  0  0  0  0  0
    2.0770    1.0816   -1.0622 H   0  0  0  0  0  0  0  0  0  0  0  0
    2.9547    0.1882    0.1896 H   0  0  0  0  0  0  0  0  0  0  0  0
  1  2  1  0
  1  5  1  0
  2  3  1  0
  2  6  1  0
  2 14  1  0
  3  4  2  0
  3  7  1  0
  8  9  2  3
  8 11  1  0
  8 12  1  0
  9 10  1  0
  9 13  1  0
 10 15  1  0
 10 16  1  0
M  RAD  1  10   2
M  END
>  <reaction>  (18) 
rxn_1028

>  <mol_properties>  (18) 
{"1": {"label": "*1", "atom_type": "Cs"}, "2": {"label": "*0", "atom_type": "CS"}, "8": {"label": "*4", "atom_type": "Cd"}, "9": {"label": "*3", "atom_type": "Cs"}, "13": {"label": "*2", "atom_type": "H0"}}

>  <type>  (18) 
unop_14

>  <geom_source>  (18) 
gaussian_log

$$$$
