
     RDKit          3D

  9  8  0  0  0  0  0  0  0  0999 V2000
   -2.1022   -0.6873    0.3932 C   0  0  0  0  0  0  0  0  0  0  0  0
   -1.2072   -0.1086   -0.1482 C   0  0  0  0  0  0  0  0  0  0  0  0
   -0.1242    0.6105   -0.8193 C   0  0  0  0  0  0  0  0  0  0  0  0
    1.2067    0.1106   -0.4741 C   0  0  0  0  0  0  0  0  0  0  0  0
    2.3005   -0.2875   -0.2012 C   0  0  0  0  0  0  0  0  0  0  0  0
   -2.8942   -1.2059    0.8778 H   0  0  0  0  0  0  0  0  0  0  0  0
   -0.1862    1.6723   -0.5649 H   0  0  0  0  0  0  0  0  0  0  0  0
   -0.2641    0.5418   -1.9017 H   0  0  0  0  0  0  0  0  0  0  0  0
    3.2709   -0.6459    0.0455 H   0  0  0  0  0  0  0  0  0  0  0  0
  1  2  3  0
  1  6  1  0
  2  3  1  0
  3  4  1  0
  3  7  1  0
  3  8  1  0
  4  5  3  0
  5  9  1  0
M  END
>  <reaction>  (1) 
rxn_1376

>  <mol_properties>  (1) 
{"2": {"label": "donator", "atom_type": "Cs"}, "6": {"label": "d_hydrogen", "atom_type": "H0"}}

>  <type>  (1) 
r1h

$$$$

     RDKit          3D

 12 11  0  0  0  0  0  0  0  0999 V2000
   -0.9951    0.1196   -0.8321 C   0  0  0  0  0  0  0  0  0  0  0  0
   -0.3760    0.2571    0.5231 C   0  0  0  0  0  3  0  0  0  0  0  0
    0.9330   -0.1537    0.7810 C   0  0  0  0  0  0  0  0  0  0  0  0
    1.5987   -0.1880    1.9734 C   0  0  0  0  0  0  0  0  0  0  0  0
   -1.4483    0.9449    1.7152 S   0  0  0  0  0  0  0  0  0  0  0  0
   -1.9164   -0.4696   -0.7936 H   0  0  0  0  0  0  0  0  0  0  0  0
   -1.2565    1.0958   -1.2506 H   0  0  0  0  0  0  0  0  0  0  0  0
   -0.3088   -0.3780   -1.5170 H   0  0  0  0  0  0  0  0  0  0  0  0
    1.4783   -0.4898   -0.0971 H   0  0  0  0  0  0  0  0  0  0  0  0
    2.6278   -0.5153    2.0142 H   0  0  0  0  0  0  0  0  0  0  0  0
    1.1316    0.0690    2.9151 H   0  0  0  0  0  0  0  0  0  0  0  0
   -0.5306    1.3052    2.6211 H   0  0  0  0  0  0  0  0  0  0  0  0
  1  2  1  0
  1  6  1  0
  1  7  1  0
  1  8  1  0
  2  3  1  0
  2  5  1  0
  3  4  2  3
  3  9  1  0
  4 10  1  0
  4 11  1  0
  5 12  1  0
M  RAD  1   2   2
M  END
>  <reaction>  (2) 
rxn_1376

>  <mol_properties>  (2) 
{"1": {"label": "acceptor", "atom_type": "Cs"}}

>  <type>  (2) 
r2

$$$$

     RDKit          3D

 13 12  0  0  0  0  0  0  0  0999 V2000
   -1.1828    0.8269   -0.1645 C   0  0  0  0  0  0  0  0  0  0  0  0
   -0.4827   -0.4584   -0.5736 C   0  0  1  0  0  0  0  0  0  0  0  0
   -0.9759   -1.7030    0.1030 C   0  0  0  0  0  0  0  0  0  0  0  0
   -2.0084   -1.7831    0.9287 C   0  0  0  0  0  0  0  0  0  0  0  0
   -0.4908   -0.7025   -2.3913 S   0  0  0  0  0  0  0  0  0  0  0  0
   -1.0941    0.9860    0.9125 H   0  0  0  0  0  0  0  0  0  0  0  0
   -0.7405    1.6784   -0.6793 H   0  0  0  0  0  0  0  0  0  0  0  0
   -2.2437    0.7943   -0.4195 H   0  0  0  0  0  0  0  0  0  0  0  0
    0.5870   -0.3637   -0.3637 H   0  0  0  0  0  0  0  0  0  0  0  0
   -0.4209   -2.6026   -0.1443 H   0  0  0  0  0  0  0  0  0  0  0  0
   -2.2982   -2.7315    1.3623 H   0  0  0  0  0  0  0  0  0  0  0  0
   -2.5999   -0.9190    1.2055 H   0  0  0  0  0  0  0  0  0  0  0  0
   -1.8040   -0.9489   -2.4971 H   0  0  0  0  0  0  0  0  0  0  0  0
  1  2  1  0
  1  6  1  0
  1  7  1  0
  1  8  1  0
  2  3  1  0
  2  5  1  0
  2  9  1  1
  3  4  2  3
  3 10  1  0
  4 11  1  0
  4 12  1  0
  5 13  1  0
M  END
>  <reaction>  (3) 
rxn_1376

>  <mol_properties>  (3) 
{"0": {"label": "a_hydrogen", "atom_type": "H0"}, "2": {"label": "acceptor", "atom_type": "Cs"}}

>  <type>  (3) 
r2h

$$$$

     RDKit          3D

 21 19  0  0  0  0  0  0  0  0999 V2000
   -0.8608   -0.5653   -2.8083 C   0  0  0  0  0  0  0  0  0  0  0  0
   -0.7469   -1.0470   -1.7139 C   0  0  0  0  0  0  0  0  0  0  0  0
   -0.5468   -1.5453   -0.3906 C   0  0  0  0  0  3  0  0  0  0  0  0
   -1.6845   -1.6765    0.4614 C   0  0  0  0  0  0  0  0  0  0  0  0
   -2.6096   -1.7506    1.2240 C   0  0  0  0  0  0  0  0  0  0  0  0
   -0.9868   -0.1693   -3.7871 H   0  0  0  0  0  0  0  0  0  0  0  0
    0.1983   -0.5504    0.1816 H   0  0  0  0  0  0  0  0  0  0  0  0
    0.1641   -2.3677   -0.3265 H   0  0  0  0  0  0  0  0  0  0  0  0
   -3.4420   -1.8306    1.8807 H   0  0  0  0  0  0  0  0  0  0  0  0
    1.0124   -0.0382    2.1749 C   0  0  0  0  0  0  0  0  0  0  0  0
    0.8952    0.4312    0.7450 C   0  0  1  0  0  0  0  0  0  0  0  0
    0.0547    1.5991    0.4617 C   0  0  0  0  0  0  0  0  0  0  0  0
   -0.8273    2.1344    1.3037 C   0  0  0  0  0  0  0  0  0  0  0  0
    2.4670    0.3583   -0.1027 S   0  0  0  0  0  0  0  0  0  0  0  0
    1.4581    0.7325    2.8089 H   0  0  0  0  0  0  0  0  0  0  0  0
    0.0247   -0.2811    2.5698 H   0  0  0  0  0  0  0  0  0  0  0  0
    1.6267   -0.9368    2.2386 H   0  0  0  0  0  0  0  0  0  0  0  0
    0.1308    2.0048   -0.5421 H   0  0  0  0  0  0  0  0  0  0  0  0
   -1.4490    2.9650    0.9968 H   0  0  0  0  0  0  0  0  0  0  0  0
   -0.9575    1.7715    2.3152 H   0  0  0  0  0  0  0  0  0  0  0  0
    2.0221    0.7646   -1.3000 H   0  0  0  0  0  0  0  0  0  0  0  0
  1  2  3  0
  1  6  1  0
  2  3  1  0
  3  4  1  0
  3  8  1  0
  4  5  3  0
  5  9  1  0
 11  7  1  6
 10 11  1  0
 10 15  1  0
 10 16  1  0
 10 17  1  0
 11 12  1  0
 11 14  1  0
 12 13  2  3
 12 18  1  0
 13 19  1  0
 13 20  1  0
 14 21  1  0
M  RAD  1   3   2
M  END
>  <reaction>  (4) 
rxn_1376

>  <mol_properties>  (4) 
{"1": {"label": "*4", "atom_type": "Ct"}, "2": {"label": "*3", "atom_type": "Cs"}, "6": {"label": "*2", "atom_type": "H0"}, "10": {"label": "*1", "atom_type": "Cs"}, "13": {"label": "*0", "atom_type": "S2s"}}

>  <type>  (4) 
ts

$$$$

     RDKit          3D

 21 19  0  0  0  0  0  0  0  0999 V2000
   -0.9515   -1.0431   -3.1607 C   0  0  0  0  0  0  0  0  0  0  0  0
   -0.9515   -1.0431   -1.9652 C   0  0  0  0  0  0  0  0  0  0  0  0
   -0.9515   -1.0431   -0.5022 C   0  0  0  0  0  0  0  0  0  0  0  0
   -2.2655   -0.7675    0.0789 C   0  0  0  0  0  0  0  0  0  0  0  0
   -3.3393   -0.5422    0.5538 C   0  0  0  0  0  0  0  0  0  0  0  0
   -0.9515   -1.0431   -4.2242 H   0  0  0  0  0  0  0  0  0  0  0  0
   -0.0934   -0.1487   -0.0712 H   0  0  0  0  0  0  0  0  0  0  0  0
   -0.5962   -2.0129   -0.1430 H   0  0  0  0  0  0  0  0  0  0  0  0
   -4.2945   -0.3419    0.9763 H   0  0  0  0  0  0  0  0  0  0  0  0
    0.0276    1.7748    1.2012 C   0  0  0  0  0  0  0  0  0  0  0  0
    0.7653    0.7463    0.3601 C   0  0  0  0  0  3  0  0  0  0  0  0
    2.0979    1.1853   -0.1703 C   0  0  0  0  0  0  0  0  0  0  0  0
    2.7098    2.3260    0.1100 C   0  0  0  0  0  0  0  0  0  0  0  0
    0.9484   -0.8573    1.2313 S   0  0  0  0  0  0  0  0  0  0  0  0
    0.5950    2.0278    2.0987 H   0  0  0  0  0  0  0  0  0  0  0  0
   -0.1364    2.6912    0.6298 H   0  0  0  0  0  0  0  0  0  0  0  0
   -0.9388    1.3832    1.5151 H   0  0  0  0  0  0  0  0  0  0  0  0
    2.5815    0.4691   -0.8273 H   0  0  0  0  0  0  0  0  0  0  0  0
    3.6798    2.5525   -0.3134 H   0  0  0  0  0  0  0  0  0  0  0  0
    2.2758    3.0734    0.7628 H   0  0  0  0  0  0  0  0  0  0  0  0
    1.8313   -0.4254    2.1426 H   0  0  0  0  0  0  0  0  0  0  0  0
  1  2  3  0
  1  6  1  0
  2  3  1  0
  3  4  1  0
  3  7  1  0
  3  8  1  0
  4  5  3  0
  5  9  1  0
 10 11  1  0
 10 15  1  0
 10 16  1  0
 10 17  1  0
 11 12  1  0
 11 14  1  0
 12 13  2  3
 12 18  1  0
 13 19  1  0
 13 20  1  0
 14 21  1  0
M  RAD  1  11   2
M  END
>  <reaction>  (5) 
rxn_1376

>  <mol_properties>  (5) 
{"1": {"label": "*4", "atom_type": "Ct"}, "2": {"label": "*3", "atom_type": "Cs"}, "6": {"label": "*2", "atom_type": "H0"}, "10": {"label": "*1", "atom_type": "Cs"}, "13": {"label": "*0", "atom_type": "S2s"}}

>  <type>  (5) 
unop_1

>  <geom_source>  (5) 
Heuristics

$$$$

     RDKit          3D

 21 19  0  0  0  0  0  0  0  0999 V2000
   -0.7780   -1.2752   -3.2311 C   0  0  0  0  0  0  0  0  0  0  0  0
   -0.7780   -1.2752   -2.0356 C   0  0  0  0  0  0  0  0  0  0  0  0
   -0.7780   -1.2752   -0.5726 C   0  0  0  0  0  0  0  0  0  0  0  0
   -2.0920   -0.9996    0.0086 C   0  0  0  0  0  0  0  0  0  0  0  0
   -3.1658   -0.7744    0.4835 C   0  0  0  0  0  0  0  0  0  0  0  0
   -0.7780   -1.2752   -4.2946 H   0  0  0  0  0  0  0  0  0  0  0  0
    0.0801   -0.3809   -0.1415 H   0  0  0  0  0  0  0  0  0  0  0  0
   -0.4227   -2.2451   -0.2134 H   0  0  0  0  0  0  0  0  0  0  0  0
   -4.1210   -0.5741    0.9059 H   0  0  0  0  0  0  0  0  0  0  0  0
    1.0269    1.6437   -0.7230 C   0  0  0  0  0  0  0  0  0  0  0  0
    0.9388    0.5141    0.2898 C   0  0  0  0  0  3  0  0  0  0  0  0
    2.2429    0.0942    0.9004 C   0  0  0  0  0  0  0  0  0  0  0  0
    3.4161    0.6782    0.7083 C   0  0  0  0  0  0  0  0  0  0  0  0
   -0.2758    0.8684    1.6176 S   0  0  0  0  0  0  0  0  0  0  0  0
    1.4043    2.5573   -0.2601 H   0  0  0  0  0  0  0  0  0  0  0  0
    1.6967    1.3728   -1.5423 H   0  0  0  0  0  0  0  0  0  0  0  0
    0.0424    1.8590   -1.1355 H   0  0  0  0  0  0  0  0  0  0  0  0
    2.1761   -0.7594    1.5676 H   0  0  0  0  0  0  0  0  0  0  0  0
    4.3056    0.3097    1.2028 H   0  0  0  0  0  0  0  0  0  0  0  0
    3.5392    1.5356    0.0579 H   0  0  0  0  0  0  0  0  0  0  0  0
    0.4364    1.8379    2.2085 H   0  0  0  0  0  0  0  0  0  0  0  0
  1  2  3  0
  1  6  1  0
  2  3  1  0
  3  4  1  0
  3  7  1  0
  3  8  1  0
  4  5  3  0
  5  9  1  0
 10 11  1  0
 10 15  1  0
 10 16  1  0
 10 17  1  0
 11 12  1  0
 11 14  1  0
 12 13  2  3
 12 18  1  0
 13 19  1  0
 13 20  1  0
 14 21  1  0
M  RAD  1  11   2
M  END
>  <reaction>  (6) 
rxn_1376

>  <mol_properties>  (6) 
{"1": {"label": "*4", "atom_type": "Ct"}, "2": {"label": "*3", "atom_type": "Cs"}, "6": {"label": "*2", "atom_type": "H0"}, "10": {"label": "*1", "atom_type": "Cs"}, "13": {"label": "*0", "atom_type": "S2s"}}

>  <type>  (6) 
unop_2

>  <geom_source>  (6) 
Heuristics

$$$$

     RDKit          3D

 21 19  0  0  0  0  0  0  0  0999 V2000
   -1.0235   -1.1075   -3.0093 C   0  0  0  0  0  0  0  0  0  0  0  0
   -1.0235   -1.1075   -1.8138 C   0  0  0  0  0  0  0  0  0  0  0  0
   -1.0235   -1.1075   -0.3508 C   0  0  0  0  0  0  0  0  0  0  0  0
   -2.3375   -0.8319    0.2303 C   0  0  0  0  0  0  0  0  0  0  0  0
   -3.4113   -0.6067    0.7052 C   0  0  0  0  0  0  0  0  0  0  0  0
   -1.0235   -1.1075   -4.0728 H   0  0  0  0  0  0  0  0  0  0  0  0
   -0.1654   -0.2131    0.0802 H   0  0  0  0  0  0  0  0  0  0  0  0
   -0.6682   -2.0774    0.0084 H   0  0  0  0  0  0  0  0  0  0  0  0
   -4.3665   -0.4064    1.1277 H   0  0  0  0  0  0  0  0  0  0  0  0
    0.2155    1.2215    1.8493 C   0  0  0  0  0  0  0  0  0  0  0  0
    0.6933    0.6818    0.5115 C   0  0  0  0  0  3  0  0  0  0  0  0
    1.4684    1.6494   -0.3328 C   0  0  0  0  0  0  0  0  0  0  0  0
    1.8446    2.8677    0.0258 C   0  0  0  0  0  0  0  0  0  0  0  0
    1.6456   -0.8750    0.6936 S   0  0  0  0  0  0  0  0  0  0  0  0
    1.0587    1.5031    2.4827 H   0  0  0  0  0  0  0  0  0  0  0  0
   -0.4137    2.1027    1.7048 H   0  0  0  0  0  0  0  0  0  0  0  0
   -0.3623    0.4646    2.3775 H   0  0  0  0  0  0  0  0  0  0  0  0
    1.7420    1.2750   -1.3144 H   0  0  0  0  0  0  0  0  0  0  0  0
    2.4137    3.4928   -0.6501 H   0  0  0  0  0  0  0  0  0  0  0  0
    1.6036    3.2891    0.9940 H   0  0  0  0  0  0  0  0  0  0  0  0
    2.7199   -0.3193    1.2712 H   0  0  0  0  0  0  0  0  0  0  0  0
  1  2  3  0
  1  6  1  0
  2  3  1  0
  3  4  1  0
  3  7  1  0
  3  8  1  0
  4  5  3  0
  5  9  1  0
 10 11  1  0
 10 15  1  0
 10 16  1  0
 10 17  1  0
 11 12  1  0
 11 14  1  0
 12 13  2  3
 12 18  1  0
 13 19  1  0
 13 20  1  0
 14 21  1  0
M  RAD  1  11   2
M  END
>  <reaction>  (7) 
rxn_1376

>  <mol_properties>  (7) 
{"1": {"label": "*4", "atom_type": "Ct"}, "2": {"label": "*3", "atom_type": "Cs"}, "6": {"label": "*2", "atom_type": "H0"}, "10": {"label": "*1", "atom_type": "Cs"}, "13": {"label": "*0", "atom_type": "S2s"}}

>  <type>  (7) 
unop_3

>  <geom_source>  (7) 
Heuristics

$$$$

     RDKit          3D

 21 19  0  0  0  0  0  0  0  0999 V2000
   -0.7770   -1.2810   -3.2277 C   0  0  0  0  0  0  0  0  0  0  0  0
   -0.7770   -1.2810   -2.0322 C   0  0  0  0  0  0  0  0  0  0  0  0
   -0.7770   -1.2810   -0.5692 C   0  0  0  0  0  0  0  0  0  0  0  0
   -2.0910   -1.0054    0.0119 C   0  0  0  0  0  0  0  0  0  0  0  0
   -3.1648   -0.7802    0.4868 C   0  0  0  0  0  0  0  0  0  0  0  0
   -0.7770   -1.2810   -4.2912 H   0  0  0  0  0  0  0  0  0  0  0  0
    0.0811   -0.3866   -0.1382 H   0  0  0  0  0  0  0  0  0  0  0  0
   -0.4216   -2.2508   -0.2100 H   0  0  0  0  0  0  0  0  0  0  0  0
   -4.1200   -0.5798    0.9093 H   0  0  0  0  0  0  0  0  0  0  0  0
    2.3246    0.1544   -0.2229 C   0  0  0  0  0  0  0  0  0  0  0  0
    0.9398    0.5084    0.2931 C   0  0  0  0  0  3  0  0  0  0  0  0
    0.5741   -0.0919    1.6182 C   0  0  0  0  0  0  0  0  0  0  0  0
    1.3745   -0.8027    2.3982 C   0  0  0  0  0  0  0  0  0  0  0  0
    0.6616    2.3206    0.3415 S   0  0  0  0  0  0  0  0  0  0  0  0
    3.1005    0.5203    0.4522 H   0  0  0  0  0  0  0  0  0  0  0  0
    2.4342   -0.9285   -0.3158 H   0  0  0  0  0  0  0  0  0  0  0  0
    2.4905    0.6057   -1.1999 H   0  0  0  0  0  0  0  0  0  0  0  0
   -0.4423    0.1102    1.9414 H   0  0  0  0  0  0  0  0  0  0  0  0
    1.0241   -1.1877    3.3471 H   0  0  0  0  0  0  0  0  0  0  0  0
    2.3985   -1.0297    2.1277 H   0  0  0  0  0  0  0  0  0  0  0  0
    1.5057    2.5683    1.3528 H   0  0  0  0  0  0  0  0  0  0  0  0
  1  2  3  0
  1  6  1  0
  2  3  1  0
  3  4  1  0
  3  7  1  0
  3  8  1  0
  4  5  3  0
  5  9  1  0
 10 11  1  0
 10 15  1  0
 10 16  1  0
 10 17  1  0
 11 12  1  0
 11 14  1  0
 12 13  2  3
 12 18  1  0
 13 19  1  0
 13 20  1  0
 14 21  1  0
M  RAD  1  11   2
M  END
>  <reaction>  (8) 
rxn_1376

>  <mol_properties>  (8) 
{"1": {"label": "*4", "atom_type": "Ct"}, "2": {"label": "*3", "atom_type": "Cs"}, "6": {"label": "*2", "atom_type": "H0"}, "10": {"label": "*1", "atom_type": "Cs"}, "13": {"label": "*0", "atom_type": "S2s"}}

>  <type>  (8) 
unop_4

>  <geom_source>  (8) 
Heuristics

$$$$

     RDKit          3D

 21 19  0  0  0  0  0  0  0  0999 V2000
   -0.9488   -1.3137   -2.8991 C   0  0  0  0  0  0  0  0  0  0  0  0
   -0.9488   -1.3137   -1.7036 C   0  0  0  0  0  0  0  0  0  0  0  0
   -0.9488   -1.3137   -0.2406 C   0  0  0  0  0  0  0  0  0  0  0  0
   -2.2628   -1.0381    0.3405 C   0  0  0  0  0  0  0  0  0  0  0  0
   -3.3366   -0.8129    0.8154 C   0  0  0  0  0  0  0  0  0  0  0  0
   -0.9488   -1.3137   -3.9626 H   0  0  0  0  0  0  0  0  0  0  0  0
   -0.0907   -0.4193    0.1904 H   0  0  0  0  0  0  0  0  0  0  0  0
   -0.5934   -2.2836    0.1186 H   0  0  0  0  0  0  0  0  0  0  0  0
   -4.2918   -0.6125    1.2379 H   0  0  0  0  0  0  0  0  0  0  0  0
    0.7649    0.4724    2.1414 C   0  0  0  0  0  0  0  0  0  0  0  0
    0.7680    0.4756    0.6217 C   0  0  0  0  0  3  0  0  0  0  0  0
    0.4259    1.7878   -0.0195 C   0  0  0  0  0  0  0  0  0  0  0  0
    0.2255    2.9343    0.6126 C   0  0  0  0  0  0  0  0  0  0  0  0
    2.3469   -0.1526   -0.0684 S   0  0  0  0  0  0  0  0  0  0  0  0
    1.5152    1.1594    2.5369 H   0  0  0  0  0  0  0  0  0  0  0  0
   -0.2126    0.7754    2.5235 H   0  0  0  0  0  0  0  0  0  0  0  0
    0.9915   -0.5241    2.5175 H   0  0  0  0  0  0  0  0  0  0  0  0
    0.3619    1.7589   -1.1028 H   0  0  0  0  0  0  0  0  0  0  0  0
   -0.0070    3.8367    0.0622 H   0  0  0  0  0  0  0  0  0  0  0  0
    0.2821    3.0213    1.6908 H   0  0  0  0  0  0  0  0  0  0  0  0
    3.0936    0.8965    0.3035 H   0  0  0  0  0  0  0  0  0  0  0  0
  1  2  3  0
  1  6  1  0
  2  3  1  0
  3  4  1  0
  3  7  1  0
  3  8  1  0
  4  5  3  0
  5  9  1  0
 10 11  1  0
 10 15  1  0
 10 16  1  0
 10 17  1  0
 11 12  1  0
 11 14  1  0
 12 13  2  3
 12 18  1  0
 13 19  1  0
 13 20  1  0
 14 21  1  0
M  RAD  1  11   2
M  END
>  <reaction>  (9) 
rxn_1376

>  <mol_properties>  (9) 
{"1": {"label": "*4", "atom_type": "Ct"}, "2": {"label": "*3", "atom_type": "Cs"}, "6": {"label": "*2", "atom_type": "H0"}, "10": {"label": "*1", "atom_type": "Cs"}, "13": {"label": "*0", "atom_type": "S2s"}}

>  <type>  (9) 
unop_5

>  <geom_source>  (9) 
Heuristics

$$$$

     RDKit          3D

 21 19  0  0  0  0  0  0  0  0999 V2000
   -0.7072   -1.3307   -3.2049 C   0  0  0  0  0  0  0  0  0  0  0  0
   -0.7072   -1.3307   -2.0094 C   0  0  0  0  0  0  0  0  0  0  0  0
   -0.7072   -1.3307   -0.5464 C   0  0  0  0  0  0  0  0  0  0  0  0
   -2.0212   -1.0551    0.0348 C   0  0  0  0  0  0  0  0  0  0  0  0
   -3.0950   -0.8299    0.5097 C   0  0  0  0  0  0  0  0  0  0  0  0
   -0.7072   -1.3307   -4.2683 H   0  0  0  0  0  0  0  0  0  0  0  0
    0.1509   -0.4364   -0.1153 H   0  0  0  0  0  0  0  0  0  0  0  0
   -0.3519   -2.3006   -0.1872 H   0  0  0  0  0  0  0  0  0  0  0  0
   -4.0502   -0.6296    0.9322 H   0  0  0  0  0  0  0  0  0  0  0  0
    2.3700   -0.1989    0.4785 C   0  0  0  0  0  0  0  0  0  0  0  0
    1.0096    0.4586    0.3160 C   0  0  0  0  0  3  0  0  0  0  0  0
    0.0616    0.2678    1.4627 C   0  0  0  0  0  0  0  0  0  0  0  0
    0.3415   -0.3250    2.6136 C   0  0  0  0  0  0  0  0  0  0  0  0
    1.1468    2.2448   -0.0773 S   0  0  0  0  0  0  0  0  0  0  0  0
    2.9072    0.2167    1.3330 H   0  0  0  0  0  0  0  0  0  0  0  0
    2.2600   -1.2746    0.6332 H   0  0  0  0  0  0  0  0  0  0  0  0
    2.9770   -0.0358   -0.4106 H   0  0  0  0  0  0  0  0  0  0  0  0
   -0.9295    0.6811    1.3039 H   0  0  0  0  0  0  0  0  0  0  0  0
   -0.4073   -0.4067    3.3908 H   0  0  0  0  0  0  0  0  0  0  0  0
    1.3147   -0.7499    2.8271 H   0  0  0  0  0  0  0  0  0  0  0  0
    1.5968    2.6227    1.1273 H   0  0  0  0  0  0  0  0  0  0  0  0
  1  2  3  0
  1  6  1  0
  2  3  1  0
  3  4  1  0
  3  7  1  0
  3  8  1  0
  4  5  3  0
  5  9  1  0
 10 11  1  0
 10 15  1  0
 10 16  1  0
 10 17  1  0
 11 12  1  0
 11 14  1  0
 12 13  2  3
 12 18  1  0
 13 19  1  0
 13 20  1  0
 14 21  1  0
M  RAD  1  11   2
M  END
>  <reaction>  (10) 
rxn_1376

>  <mol_properties>  (10) 
{"1": {"label": "*4", "atom_type": "Ct"}, "2": {"label": "*3", "atom_type": "Cs"}, "6": {"label": "*2", "atom_type": "H0"}, "10": {"label": "*1", "atom_type": "Cs"}, "13": {"label": "*0", "atom_type": "S2s"}}

>  <type>  (10) 
unop_6

>  <geom_source>  (10) 
Heuristics

$$$$

     RDKit          3D

 21 19  0  0  0  0  0  0  0  0999 V2000
   -0.6779   -1.4030   -3.1141 C   0  0  0  0  0  0  0  0  0  0  0  0
   -0.6779   -1.4030   -1.9186 C   0  0  0  0  0  0  0  0  0  0  0  0
   -0.6779   -1.4030   -0.4556 C   0  0  0  0  0  0  0  0  0  0  0  0
   -1.9920   -1.1274    0.1255 C   0  0  0  0  0  0  0  0  0  0  0  0
   -3.0657   -0.9022    0.6004 C   0  0  0  0  0  0  0  0  0  0  0  0
   -0.6779   -1.4030   -4.1776 H   0  0  0  0  0  0  0  0  0  0  0  0
    0.1802   -0.5086   -0.0246 H   0  0  0  0  0  0  0  0  0  0  0  0
   -0.3226   -2.3728   -0.0964 H   0  0  0  0  0  0  0  0  0  0  0  0
   -4.0209   -0.7018    1.0229 H   0  0  0  0  0  0  0  0  0  0  0  0
    2.0970   -0.3081    1.2478 C   0  0  0  0  0  0  0  0  0  0  0  0
    1.0389    0.3864    0.4067 C   0  0  0  0  0  3  0  0  0  0  0  0
   -0.2361    0.7196    1.1233 C   0  0  0  0  0  0  0  0  0  0  0  0
   -0.4687    0.5525    2.4165 C   0  0  0  0  0  0  0  0  0  0  0  0
    1.6890    1.8882   -0.4215 S   0  0  0  0  0  0  0  0  0  0  0  0
    2.4207    0.3271    2.0743 H   0  0  0  0  0  0  0  0  0  0  0  0
    1.7058   -1.2392    1.6642 H   0  0  0  0  0  0  0  0  0  0  0  0
    2.9708   -0.5390    0.6405 H   0  0  0  0  0  0  0  0  0  0  0  0
   -1.0092    1.1501    0.4946 H   0  0  0  0  0  0  0  0  0  0  0  0
   -1.4203    0.8337    2.8487 H   0  0  0  0  0  0  0  0  0  0  0  0
    0.2682    0.1327    3.0902 H   0  0  0  0  0  0  0  0  0  0  0  0
    1.8147    2.6231    0.6923 H   0  0  0  0  0  0  0  0  0  0  0  0
  1  2  3  0
  1  6  1  0
  2  3  1  0
  3  4  1  0
  3  7  1  0
  3  8  1  0
  4  5  3  0
  5  9  1  0
 10 11  1  0
 10 15  1  0
 10 16  1  0
 10 17  1  0
 11 12  1  0
 11 14  1  0
 12 13  2  3
 12 18  1  0
 13 19  1  0
 13 20  1  0
 14 21  1  0
M  RAD  1  11   2
M  END
>  <reaction>  (11) 
rxn_1376

>  <mol_properties>  (11) 
{"1": {"label": "*4", "atom_type": "Ct"}, "2": {"label": "*3", "atom_type": "Cs"}, "6": {"label": "*2", "atom_type": "H0"}, "10": {"label": "*1", "atom_type": "Cs"}, "13": {"label": "*0", "atom_type": "S2s"}}

>  <type>  (11) 
unop_7

>  <geom_source>  (11) 
Heuristics

$$$$

     RDKit          3D

 21 19  0  0  0  0  0  0  0  0999 V2000
   -0.8520   -1.0942   -3.2515 C   0  0  0  0  0  0  0  0  0  0  0  0
   -0.8520   -1.0942   -2.0560 C   0  0  0  0  0  0  0  0  0  0  0  0
   -0.8520   -1.0942   -0.5930 C   0  0  0  0  0  0  0  0  0  0  0  0
   -2.1661   -0.8186   -0.0119 C   0  0  0  0  0  0  0  0  0  0  0  0
   -3.2398   -0.5934    0.4630 C   0  0  0  0  0  0  0  0  0  0  0  0
   -0.8520   -1.0942   -4.3150 H   0  0  0  0  0  0  0  0  0  0  0  0
    0.0061   -0.1998   -0.1620 H   0  0  0  0  0  0  0  0  0  0  0  0
   -0.4967   -2.0640   -0.2338 H   0  0  0  0  0  0  0  0  0  0  0  0
   -4.1950   -0.3930    0.8855 H   0  0  0  0  0  0  0  0  0  0  0  0
    0.1515    2.0272    0.4318 C   0  0  0  0  0  0  0  0  0  0  0  0
    0.8648    0.6951    0.2693 C   0  0  0  0  0  3  0  0  0  0  0  0
    2.3591    0.7738    0.1665 C   0  0  0  0  0  0  0  0  0  0  0  0
    3.0921    1.8686    0.3025 C   0  0  0  0  0  0  0  0  0  0  0  0
    0.4009   -0.5025    1.5787 S   0  0  0  0  0  0  0  0  0  0  0  0
    0.4509    2.5223    1.3574 H   0  0  0  0  0  0  0  0  0  0  0  0
    0.3849    2.6916   -0.4032 H   0  0  0  0  0  0  0  0  0  0  0  0
   -0.9264    1.8769    0.4657 H   0  0  0  0  0  0  0  0  0  0  0  0
    2.8504   -0.1759   -0.0205 H   0  0  0  0  0  0  0  0  0  0  0  0
    4.1707    1.8262    0.2225 H   0  0  0  0  0  0  0  0  0  0  0  0
    2.6550    2.8407    0.4951 H   0  0  0  0  0  0  0  0  0  0  0  0
    1.0271    0.1306    2.5804 H   0  0  0  0  0  0  0  0  0  0  0  0
  1  2  3  0
  1  6  1  0
  2  3  1  0
  3  4  1  0
  3  7  1  0
  3  8  1  0
  4  5  3  0
  5  9  1  0
 10 11  1  0
 10 15  1  0
 10 16  1  0
 10 17  1  0
 11 12  1  0
 11 14  1  0
 12 13  2  3
 12 18  1  0
 13 19  1  0
 13 20  1  0
 14 21  1  0
M  RAD  1  11   2
M  END
>  <reaction>  (12) 
rxn_1376

>  <mol_properties>  (12) 
{"1": {"label": "*4", "atom_type": "Ct"}, "2": {"label": "*3", "atom_type": "Cs"}, "6": {"label": "*2", "atom_type": "H0"}, "10": {"label": "*1", "atom_type": "Cs"}, "13": {"label": "*0", "atom_type": "S2s"}}

>  <type>  (12) 
unop_8

>  <geom_source>  (12) 
Heuristics

$$$$

     RDKit          3D

 21 19  0  0  0  0  0  0  0  0999 V2000
   -0.8250   -1.2787   -3.2079 C   0  0  0  0  0  0  0  0  0  0  0  0
   -0.8250   -1.2787   -2.0124 C   0  0  0  0  0  0  0  0  0  0  0  0
   -0.8250   -1.2787   -0.5494 C   0  0  0  0  0  0  0  0  0  0  0  0
   -2.1390   -1.0031    0.0318 C   0  0  0  0  0  0  0  0  0  0  0  0
   -3.2128   -0.7779    0.5067 C   0  0  0  0  0  0  0  0  0  0  0  0
   -0.8250   -1.2787   -4.2714 H   0  0  0  0  0  0  0  0  0  0  0  0
    0.0332   -0.3843   -0.1183 H   0  0  0  0  0  0  0  0  0  0  0  0
   -0.4696   -2.2486   -0.1902 H   0  0  0  0  0  0  0  0  0  0  0  0
   -4.1679   -0.5776    0.9291 H   0  0  0  0  0  0  0  0  0  0  0  0
    2.0168    0.6454   -0.6998 C   0  0  0  0  0  0  0  0  0  0  0  0
    0.8918    0.5106    0.3130 C   0  0  0  0  0  3  0  0  0  0  0  0
    1.2260   -0.2775    1.5447 C   0  0  0  0  0  0  0  0  0  0  0  0
    2.4170   -0.7655    1.8571 C   0  0  0  0  0  0  0  0  0  0  0  0
    0.1954    2.1377    0.7944 S   0  0  0  0  0  0  0  0  0  0  0  0
    2.8681    1.1783   -0.2722 H   0  0  0  0  0  0  0  0  0  0  0  0
    2.3582   -0.3392   -1.0271 H   0  0  0  0  0  0  0  0  0  0  0  0
    1.6760    1.2026   -1.5711 H   0  0  0  0  0  0  0  0  0  0  0  0
    0.3942   -0.4266    2.2260 H   0  0  0  0  0  0  0  0  0  0  0  0
    2.5661   -1.3148    2.7777 H   0  0  0  0  0  0  0  0  0  0  0  0
    3.2821   -0.6419    1.2172 H   0  0  0  0  0  0  0  0  0  0  0  0
    1.2658    2.5528    1.4862 H   0  0  0  0  0  0  0  0  0  0  0  0
  1  2  3  0
  1  6  1  0
  2  3  1  0
  3  4  1  0
  3  7  1  0
  3  8  1  0
  4  5  3  0
  5  9  1  0
 10 11  1  0
 10 15  1  0
 10 16  1  0
 10 17  1  0
 11 12  1  0
 11 14  1  0
 12 13  2  3
 12 18  1  0
 13 19  1  0
 13 20  1  0
 14 21  1  0
M  RAD  1  11   2
M  END
>  <reaction>  (13) 
rxn_1376

>  <mol_properties>  (13) 
{"1": {"label": "*4", "atom_type": "Ct"}, "2": {"label": "*3", "atom_type": "Cs"}, "6": {"label": "*2", "atom_type": "H0"}, "10": {"label": "*1", "atom_type": "Cs"}, "13": {"label": "*0", "atom_type": "S2s"}}

>  <type>  (13) 
unop_9

>  <geom_source>  (13) 
Heuristics

$$$$

     RDKit          3D

 21 19  0  0  0  0  0  0  0  0999 V2000
   -0.7844   -1.1922   -3.2668 C   0  0  0  0  0  0  0  0  0  0  0  0
   -0.7844   -1.1922   -2.0713 C   0  0  0  0  0  0  0  0  0  0  0  0
   -0.7844   -1.1922   -0.6083 C   0  0  0  0  0  0  0  0  0  0  0  0
   -2.0984   -0.9166   -0.0271 C   0  0  0  0  0  0  0  0  0  0  0  0
   -3.1722   -0.6914    0.4478 C   0  0  0  0  0  0  0  0  0  0  0  0
   -0.7844   -1.1922   -4.3303 H   0  0  0  0  0  0  0  0  0  0  0  0
    0.0737   -0.2978   -0.1773 H   0  0  0  0  0  0  0  0  0  0  0  0
   -0.4290   -2.1621   -0.2491 H   0  0  0  0  0  0  0  0  0  0  0  0
   -4.1274   -0.4911    0.8702 H   0  0  0  0  0  0  0  0  0  0  0  0
    0.5214    1.9662   -0.2620 C   0  0  0  0  0  0  0  0  0  0  0  0
    0.9324    0.5971    0.2540 C   0  0  0  0  0  3  0  0  0  0  0  0
    2.3963    0.4278    0.5336 C   0  0  0  0  0  0  0  0  0  0  0  0
    3.3170    1.3775    0.4643 C   0  0  0  0  0  0  0  0  0  0  0  0
   -0.0370    0.0932    1.7272 S   0  0  0  0  0  0  0  0  0  0  0  0
    0.7384    2.7439    0.4726 H   0  0  0  0  0  0  0  0  0  0  0  0
    1.0577    2.2057   -1.1830 H   0  0  0  0  0  0  0  0  0  0  0  0
   -0.5478    1.9874   -0.4666 H   0  0  0  0  0  0  0  0  0  0  0  0
    2.6868   -0.5744    0.8331 H   0  0  0  0  0  0  0  0  0  0  0  0
    4.3522    1.1629    0.6959 H   0  0  0  0  0  0  0  0  0  0  0  0
    3.0822    2.3949    0.1763 H   0  0  0  0  0  0  0  0  0  0  0  0
    0.5081    0.9827    2.5688 H   0  0  0  0  0  0  0  0  0  0  0  0
  1  2  3  0
  1  6  1  0
  2  3  1  0
  3  4  1  0
  3  7  1  0
  3  8  1  0
  4  5  3  0
  5  9  1  0
 10 11  1  0
 10 15  1  0
 10 16  1  0
 10 17  1  0
 11 12  1  0
 11 14  1  0
 12 13  2  3
 12 18  1  0
 13 19  1  0
 13 20  1  0
 14 21  1  0
M  RAD  1  11   2
M  END
>  <reaction>  (14) 
rxn_1376

>  <mol_properties>  (14) 
{"1": {"label": "*4", "atom_type": "Ct"}, "2": {"label": "*3", "atom_type": "Cs"}, "6": {"label": "*2", "atom_type": "H0"}, "10": {"label": "*1", "atom_type": "Cs"}, "13": {"label": "*0", "atom_type": "S2s"}}

>  <type>  (14) 
unop_10

>  <geom_source>  (14) 
Heuristics

$$$$

     RDKit          3D

 21 19  0  0  0  0  0  0  0  0999 V2000
   -0.7565   -1.4356   -2.9749 C   0  0  0  0  0  0  0  0  0  0  0  0
   -0.7565   -1.4356   -1.7794 C   0  0  0  0  0  0  0  0  0  0  0  0
   -0.7565   -1.4356   -0.3165 C   0  0  0  0  0  0  0  0  0  0  0  0
   -2.0705   -1.1600    0.2647 C   0  0  0  0  0  0  0  0  0  0  0  0
   -3.1443   -0.9348    0.7396 C   0  0  0  0  0  0  0  0  0  0  0  0
   -0.7565   -1.4356   -4.0384 H   0  0  0  0  0  0  0  0  0  0  0  0
    0.1017   -0.5413    0.1146 H   0  0  0  0  0  0  0  0  0  0  0  0
   -0.4011   -2.4055    0.0427 H   0  0  0  0  0  0  0  0  0  0  0  0
   -4.0995   -0.7345    1.1621 H   0  0  0  0  0  0  0  0  0  0  0  0
    1.5193   -0.1013    1.8837 C   0  0  0  0  0  0  0  0  0  0  0  0
    0.9603    0.3537    0.5459 C   0  0  0  0  0  3  0  0  0  0  0  0
   -0.2216    1.2741    0.6220 C   0  0  0  0  0  0  0  0  0  0  0  0
   -0.7392    1.7865    1.7283 C   0  0  0  0  0  0  0  0  0  0  0  0
    2.2497    1.0964   -0.5264 S   0  0  0  0  0  0  0  0  0  0  0  0
    1.8862    0.7468    2.4648 H   0  0  0  0  0  0  0  0  0  0  0  0
    0.7492   -0.6096    2.4683 H   0  0  0  0  0  0  0  0  0  0  0  0
    2.3505   -0.7882    1.7319 H   0  0  0  0  0  0  0  0  0  0  0  0
   -0.6549    1.5345   -0.3386 H   0  0  0  0  0  0  0  0  0  0  0  0
   -1.5903    2.4537    1.6840 H   0  0  0  0  0  0  0  0  0  0  0  0
   -0.3437    1.5649    2.7120 H   0  0  0  0  0  0  0  0  0  0  0  0
    2.4169    2.2100    0.2007 H   0  0  0  0  0  0  0  0  0  0  0  0
  1  2  3  0
  1  6  1  0
  2  3  1  0
  3  4  1  0
  3  7  1  0
  3  8  1  0
  4  5  3  0
  5  9  1  0
 10 11  1  0
 10 15  1  0
 10 16  1  0
 10 17  1  0
 11 12  1  0
 11 14  1  0
 12 13  2  3
 12 18  1  0
 13 19  1  0
 13 20  1  0
 14 21  1  0
M  RAD  1  11   2
M  END
>  <reaction>  (15) 
rxn_1376

>  <mol_properties>  (15) 
{"1": {"label": "*4", "atom_type": "Ct"}, "2": {"label": "*3", "atom_type": "Cs"}, "6": {"label": "*2", "atom_type": "H0"}, "10": {"label": "*1", "atom_type": "Cs"}, "13": {"label": "*0", "atom_type": "S2s"}}

>  <type>  (15) 
unop_11

>  <geom_source>  (15) 
Heuristics

$$$$

     RDKit          3D

 21 19  0  0  0  0  0  0  0  0999 V2000
   -0.8143   -1.2982   -3.1990 C   0  0  0  0  0  0  0  0  0  0  0  0
   -0.8143   -1.2982   -2.0035 C   0  0  0  0  0  0  0  0  0  0  0  0
   -0.8143   -1.2982   -0.5405 C   0  0  0  0  0  0  0  0  0  0  0  0
   -2.1283   -1.0226    0.0406 C   0  0  0  0  0  0  0  0  0  0  0  0
   -3.2021   -0.7974    0.5155 C   0  0  0  0  0  0  0  0  0  0  0  0
   -0.8143   -1.2982   -4.2625 H   0  0  0  0  0  0  0  0  0  0  0  0
    0.0438   -0.4038   -0.1095 H   0  0  0  0  0  0  0  0  0  0  0  0
   -0.4589   -2.2681   -0.1814 H   0  0  0  0  0  0  0  0  0  0  0  0
   -4.1573   -0.5970    0.9380 H   0  0  0  0  0  0  0  0  0  0  0  0
    1.5528    1.1689   -0.8728 C   0  0  0  0  0  0  0  0  0  0  0  0
    0.9025    0.4911    0.3218 C   0  0  0  0  0  3  0  0  0  0  0  0
    1.8462   -0.1940    1.2652 C   0  0  0  0  0  0  0  0  0  0  0  0
    3.1687   -0.1710    1.1966 C   0  0  0  0  0  0  0  0  0  0  0  0
   -0.1826    1.6341    1.2600 S   0  0  0  0  0  0  0  0  0  0  0  0
    2.2265    1.9661   -0.5531 H   0  0  0  0  0  0  0  0  0  0  0  0
    2.1286    0.4473   -1.4567 H   0  0  0  0  0  0  0  0  0  0  0  0
    0.7934    1.6101   -1.5165 H   0  0  0  0  0  0  0  0  0  0  0  0
    1.3643   -0.7340    2.0743 H   0  0  0  0  0  0  0  0  0  0  0  0
    3.7703   -0.6887    1.9325 H   0  0  0  0  0  0  0  0  0  0  0  0
    3.7012    0.3560    0.4144 H   0  0  0  0  0  0  0  0  0  0  0  0
    0.8042    2.3917    1.7587 H   0  0  0  0  0  0  0  0  0  0  0  0
  1  2  3  0
  1  6  1  0
  2  3  1  0
  3  4  1  0
  3  7  1  0
  3  8  1  0
  4  5  3  0
  5  9  1  0
 10 11  1  0
 10 15  1  0
 10 16  1  0
 10 17  1  0
 11 12  1  0
 11 14  1  0
 12 13  2  3
 12 18  1  0
 13 19  1  0
 13 20  1  0
 14 21  1  0
M  RAD  1  11   2
M  END
>  <reaction>  (16) 
rxn_1376

>  <mol_properties>  (16) 
{"1": {"label": "*4", "atom_type": "Ct"}, "2": {"label": "*3", "atom_type": "Cs"}, "6": {"label": "*2", "atom_type": "H0"}, "10": {"label": "*1", "atom_type": "Cs"}, "13": {"label": "*0", "atom_type": "S2s"}}

>  <type>  (16) 
unop_12

>  <geom_source>  (16) 
Heuristics

$$$$

     RDKit          3D

 21 19  0  0  0  0  0  0  0  0999 V2000
   -1.0506    1.8809   -0.8115 S   0  0  0  0  0  0  0  0  0  0  0  0
   -0.9204    0.2447   -0.0144 C   0  0  0  0  0  0  0  0  0  0  0  0
   -1.5073    0.2844    1.3969 C   0  0  0  0  0  0  0  0  0  0  0  0
   -1.5850   -0.8101   -0.8620 C   0  0  0  0  0  0  0  0  0  0  0  0
   -2.8835   -0.7694   -1.1824 C   0  0  0  0  0  0  0  0  0  0  0  0
    1.6678    0.3885    0.2185 C   0  0  0  0  0  3  0  0  0  0  0  0
    2.3011   -0.6171    1.0738 C   0  0  0  0  0  0  0  0  0  0  0  0
    2.3575    0.4460   -1.0718 C   0  0  0  0  0  0  0  0  0  0  0  0
    2.8212   -1.4449    1.7796 C   0  0  0  0  0  0  0  0  0  0  0  0
    2.9240    0.4946   -2.1350 C   0  0  0  0  0  0  0  0  0  0  0  0
    0.3572   -0.0570    0.0833 H   0  0  0  0  0  0  0  0  0  0  0  0
   -2.5710    0.6031    1.3761 H   0  0  0  0  0  0  0  0  0  0  0  0
   -0.9335    1.0003    2.0220 H   0  0  0  0  0  0  0  0  0  0  0  0
   -1.4376   -0.7201    1.8660 H   0  0  0  0  0  0  0  0  0  0  0  0
   -0.9807   -1.6341   -1.2285 H   0  0  0  0  0  0  0  0  0  0  0  0
   -3.5214    0.0402   -0.8420 H   0  0  0  0  0  0  0  0  0  0  0  0
   -3.3150   -1.5531   -1.7965 H   0  0  0  0  0  0  0  0  0  0  0  0
    1.7215    1.3809    0.7116 H   0  0  0  0  0  0  0  0  0  0  0  0
   -0.1437    2.4765    0.0858 H   0  0  0  0  0  0  0  0  0  0  0  0
    3.2779   -2.1714    2.3989 H   0  0  0  0  0  0  0  0  0  0  0  0
    3.4215    0.5372   -3.0682 H   0  0  0  0  0  0  0  0  0  0  0  0
  1  2  1  0
  1 19  1  0
  2  3  1  0
  2  4  1  0
  2 11  1  0
  3 12  1  0
  3 13  1  0
  3 14  1  0
  4  5  2  3
  4 15  1  0
  5 16  1  0
  5 17  1  0
  6  7  1  0
  6  8  1  0
  6 18  1  0
  7  9  3  0
  8 10  3  0
  9 20  1  0
 10 21  1  0
M  RAD  1   6   2
M  END
>  <reaction>  (17) 
rxn_1376

>  <mol_properties>  (17) 
{"1": {"label": "*4", "atom_type": "Ct"}, "2": {"label": "*3", "atom_type": "Cs"}, "6": {"label": "*2", "atom_type": "H0"}, "10": {"label": "*1", "atom_type": "Cs"}, "13": {"label": "*0", "atom_type": "S2s"}}

>  <type>  (17) 
unop_13

>  <geom_source>  (17) 
AutoTST

$$$$

     RDKit          3D

 21 19  0  0  0  0  0  0  0  0999 V2000
   -0.7780   -1.2752   -3.2311 C   0  0  0  0  0  0  0  0  0  0  0  0
   -0.7780   -1.2752   -2.0356 C   0  0  0  0  0  0  0  0  0  0  0  0
   -0.7780   -1.2752   -0.5726 C   0  0  0  0  0  0  0  0  0  0  0  0
   -2.0920   -0.9996    0.0086 C   0  0  0  0  0  0  0  0  0  0  0  0
   -3.1658   -0.7744    0.4835 C   0  0  0  0  0  0  0  0  0  0  0  0
   -0.7780   -1.2752   -4.2946 H   0  0  0  0  0  0  0  0  0  0  0  0
    0.0801   -0.3809   -0.1416 H   0  0  0  0  0  0  0  0  0  0  0  0
   -0.4227   -2.2451   -0.2134 H   0  0  0  0  0  0  0  0  0  0  0  0
   -4.1210   -0.5741    0.9059 H   0  0  0  0  0  0  0  0  0  0  0  0
    1.0269    1.6437   -0.7230 C   0  0  0  0  0  0  0  0  0  0  0  0
    0.9388    0.5141    0.2898 C   0  0  0  0  0  3  0  0  0  0  0  0
    2.2429    0.0943    0.9004 C   0  0  0  0  0  0  0  0  0  0  0  0
    3.4161    0.6782    0.7083 C   0  0  0  0  0  0  0  0  0  0  0  0
   -0.2758    0.8684    1.6176 S   0  0  0  0  0  0  0  0  0  0  0  0
    1.4043    2.5573   -0.2601 H   0  0  0  0  0  0  0  0  0  0  0  0
    1.6967    1.3728   -1.5423 H   0  0  0  0  0  0  0  0  0  0  0  0
    0.0424    1.8590   -1.1355 H   0  0  0  0  0  0  0  0  0  0  0  0
    2.1761   -0.7594    1.5676 H   0  0  0  0  0  0  0  0  0  0  0  0
    4.3056    0.3097    1.2028 H   0  0  0  0  0  0  0  0  0  0  0  0
    3.5392    1.5356    0.0579 H   0  0  0  0  0  0  0  0  0  0  0  0
    0.4364    1.8379    2.2085 H   0  0  0  0  0  0  0  0  0  0  0  0
  1  2  3  0
  1  6  1  0
  2  3  1  0
  3  4  1  0
  3  7  1  0
  3  8  1  0
  4  5  3  0
  5  9  1  0
 10 11  1  0
 10 15  1  0
 10 16  1  0
 10 17  1  0
 11 12  1  0
 11 14  1  0
 12 13  2  3
 12 18  1  0
 13 19  1  0
 13 20  1  0
 14 21  1  0
M  RAD  1  11   2
M  END
>  <reaction>  (18) 
rxn_1376

>  <mol_properties>  (18) 
{"1": {"label": "*4", "atom_type": "Ct"}, "2": {"label": "*3", "atom_type": "Cs"}, "6": {"label": "*2", "atom_type": "H0"}, "10": {"label": "*1", "atom_type": "Cs"}, "13": {"label": "*0", "atom_type": "S2s"}}

>  <type>  (18) 
unop_14

>  <geom_source>  (18) 
gaussian_log

$$$$
