
     RDKit          3D

  6  5  0  0  0  0  0  0  0  0999 V2000
   -0.4901    0.0045    0.0014 C   0  0  0  0  0  0  0  0  0  0  0  0
    0.9645   -0.0089   -0.0027 C   0  0  0  0  0  0  0  0  0  0  0  0
    2.1108   -0.0195   -0.0059 N   0  0  0  0  0  0  0  0  0  0  0  0
   -0.8700   -0.6407   -0.7900 H   0  0  0  0  0  0  0  0  0  0  0  0
   -0.8625   -0.3540    0.9604 H   0  0  0  0  0  0  0  0  0  0  0  0
   -0.8530    1.0185   -0.1631 H   0  0  0  0  0  0  0  0  0  0  0  0
  1  2  1  0
  1  4  1  0
  1  5  1  0
  1  6  1  0
  2  3  3  0
M  END
>  <reaction>  (1) 
rxn_3215

>  <mol_properties>  (1) 
{"0": {"label": "donator", "atom_type": "Cs"}, "3": {"label": "d_hydrogen", "atom_type": "H0"}}

>  <type>  (1) 
r1h

$$$$

     RDKit          3D

  7  6  0  0  0  0  0  0  0  0999 V2000
   -1.3059    0.5497   -0.1304 N   0  0  0  0  0  2  0  0  0  0  0  0
   -0.2700   -0.4288    0.0448 C   0  0  0  0  0  0  0  0  0  0  0  0
    1.1109    0.0669    0.0401 C   0  0  0  0  0  0  0  0  0  0  0  0
    2.1758    0.4925    0.0308 N   0  0  0  0  0  0  0  0  0  0  0  0
   -0.8815    1.4733   -0.2339 H   0  0  0  0  0  0  0  0  0  0  0  0
   -0.3767   -1.1909   -0.7373 H   0  0  0  0  0  0  0  0  0  0  0  0
   -0.4527   -0.9628    0.9858 H   0  0  0  0  0  0  0  0  0  0  0  0
  1  2  1  0
  1  5  1  0
  2  3  1  0
  2  6  1  0
  2  7  1  0
  3  4  3  0
M  RAD  1   1   2
M  END
>  <reaction>  (2) 
rxn_3215

>  <mol_properties>  (2) 
{"0": {"label": "acceptor", "atom_type": "N3s"}}

>  <type>  (2) 
r2

$$$$

     RDKit          3D

  8  7  0  0  0  0  0  0  0  0999 V2000
   -1.0805    0.5317    0.0204 N   0  0  0  0  0  0  0  0  0  0  0  0
   -0.1080   -0.5393    0.0956 C   0  0  0  0  0  0  0  0  0  0  0  0
    1.2945   -0.1247   -0.1005 C   0  0  0  0  0  0  0  0  0  0  0  0
    2.3714    0.2386   -0.2580 N   0  0  0  0  0  0  0  0  0  0  0  0
   -1.0516    0.9857   -0.8822 H   0  0  0  0  0  0  0  0  0  0  0  0
   -0.9009    1.2352    0.7235 H   0  0  0  0  0  0  0  0  0  0  0  0
   -0.3427   -1.2965   -0.6542 H   0  0  0  0  0  0  0  0  0  0  0  0
   -0.1810   -1.0288    1.0680 H   0  0  0  0  0  0  0  0  0  0  0  0
  1  2  1  0
  1  5  1  0
  1  6  1  0
  2  3  1  0
  2  7  1  0
  2  8  1  0
  3  4  3  0
M  END
>  <reaction>  (3) 
rxn_3215

>  <mol_properties>  (3) 
{"0": {"label": "acceptor", "atom_type": "N3s"}, "7": {"label": "a_hydrogen", "atom_type": "H0"}}

>  <type>  (3) 
r2h

$$$$

     RDKit          3D

 13 11  0  0  0  0  0  0  0  0999 V2000
   -0.1019   -0.9679    1.6651 N   0  0  0  0  0  0  0  0  0  0  0  0
   -0.9129   -1.2330    0.4892 C   0  0  0  0  0  0  0  0  0  0  0  0
   -1.7226   -0.0927    0.0410 C   0  0  0  0  0  0  0  0  0  0  0  0
   -2.3277    0.8348   -0.2580 N   0  0  0  0  0  0  0  0  0  0  0  0
   -0.6498   -0.4072    2.3189 H   0  0  0  0  0  0  0  0  0  0  0  0
   -1.5840   -2.0682    0.7155 H   0  0  0  0  0  0  0  0  0  0  0  0
   -0.2689   -1.5557   -0.3312 H   0  0  0  0  0  0  0  0  0  0  0  0
    1.4846    0.8338    0.7373 C   0  0  0  0  0  0  0  0  0  0  0  0
    1.8536    0.3153   -0.5411 C   0  0  0  0  0  0  0  0  0  0  0  0
    2.1032   -0.1633   -1.5575 N   0  0  0  0  0  2  0  0  0  0  0  0
    0.7934   -0.1253    1.2887 H   0  0  0  0  0  0  0  0  0  0  0  0
    2.3222    0.9599    1.4183 H   0  0  0  0  0  0  0  0  0  0  0  0
    0.8337    1.7019    0.6805 H   0  0  0  0  0  0  0  0  0  0  0  0
  1  2  1  0
  1  5  1  0
  1 11  1  0
  2  3  1  0
  2  6  1  0
  2  7  1  0
  3  4  3  0
  8  9  2  0
  8 12  1  0
  8 13  1  0
  9 10  2  0
M  RAD  1  10   2
M  END
>  <reaction>  (4) 
rxn_3215

>  <mol_properties>  (4) 
{"0": {"label": "*1", "atom_type": "N3s"}, "1": {"label": "*0", "atom_type": "Cs"}, "7": {"label": "*3", "atom_type": "Cd"}, "8": {"label": "*4", "atom_type": "Cdd"}, "10": {"label": "*2", "atom_type": "H0"}}

>  <type>  (4) 
ts

$$$$

     RDKit          3D

 13 11  0  0  0  0  0  0  0  0999 V2000
   -1.0318    0.3106    0.8302 N   0  0  0  0  0  0  0  0  0  0  0  0
   -0.4931   -0.7606    1.6431 C   0  0  0  0  0  0  0  0  0  0  0  0
   -0.4083   -2.0721    0.9722 C   0  0  0  0  0  0  0  0  0  0  0  0
   -0.3591   -3.0738    0.4147 N   0  0  0  0  0  0  0  0  0  0  0  0
   -1.9711    0.0970    0.5243 H   0  0  0  0  0  0  0  0  0  0  0  0
   -1.1049   -0.8801    2.5386 H   0  0  0  0  0  0  0  0  0  0  0  0
    0.5084   -0.4911    1.9821 H   0  0  0  0  0  0  0  0  0  0  0  0
    0.8054    1.8062   -0.0298 C   0  0  0  0  0  0  0  0  0  0  0  0
    0.8054    1.8062   -1.4844 C   0  0  0  0  0  0  0  0  0  0  0  0
    0.8054    1.8062   -2.6308 N   0  0  0  0  0  2  0  0  0  0  0  0
   -0.1476    1.0303    0.4163 H   0  0  0  0  0  0  0  0  0  0  0  0
    1.7624    1.4416    0.3419 H   0  0  0  0  0  0  0  0  0  0  0  0
    0.6426    2.8172    0.3419 H   0  0  0  0  0  0  0  0  0  0  0  0
  1  2  1  0
  1  5  1  0
  1 11  1  0
  2  3  1  0
  2  6  1  0
  2  7  1  0
  3  4  3  0
  8  9  2  0
  8 12  1  0
  8 13  1  0
  9 10  2  0
M  RAD  1  10   2
M  END
>  <reaction>  (5) 
rxn_3215

>  <mol_properties>  (5) 
{"0": {"label": "*1", "atom_type": "N3s"}, "1": {"label": "*0", "atom_type": "Cs"}, "7": {"label": "*3", "atom_type": "Cd"}, "8": {"label": "*4", "atom_type": "Cdd"}, "10": {"label": "*2", "atom_type": "H0"}}

>  <type>  (5) 
unop_1

>  <geom_source>  (5) 
Heuristics

$$$$

     RDKit          3D

 13 11  0  0  0  0  0  0  0  0999 V2000
   -0.3529   -0.3209    1.7420 N   0  0  0  0  0  0  0  0  0  0  0  0
   -0.6153   -1.4061    0.8190 C   0  0  0  0  0  0  0  0  0  0  0  0
   -1.4382   -1.0456   -0.3516 C   0  0  0  0  0  0  0  0  0  0  0  0
   -2.0803   -0.7245   -1.2467 N   0  0  0  0  0  0  0  0  0  0  0  0
   -1.2139    0.0538    2.1161 H   0  0  0  0  0  0  0  0  0  0  0  0
   -1.1186   -2.2180    1.3464 H   0  0  0  0  0  0  0  0  0  0  0  0
    0.3305   -1.8092    0.4537 H   0  0  0  0  0  0  0  0  0  0  0  0
    1.4842    1.1747    0.8821 C   0  0  0  0  0  0  0  0  0  0  0  0
    1.4842    1.1747   -0.5726 C   0  0  0  0  0  0  0  0  0  0  0  0
    1.4842    1.1747   -1.7190 N   0  0  0  0  0  2  0  0  0  0  0  0
    0.5312    0.3989    1.3282 H   0  0  0  0  0  0  0  0  0  0  0  0
    2.4413    0.8102    1.2538 H   0  0  0  0  0  0  0  0  0  0  0  0
    1.3215    2.1858    1.2538 H   0  0  0  0  0  0  0  0  0  0  0  0
  1  2  1  0
  1  5  1  0
  1 11  1  0
  2  3  1  0
  2  6  1  0
  2  7  1  0
  3  4  3  0
  8  9  2  0
  8 12  1  0
  8 13  1  0
  9 10  2  0
M  RAD  1  10   2
M  END
>  <reaction>  (6) 
rxn_3215

>  <mol_properties>  (6) 
{"0": {"label": "*1", "atom_type": "N3s"}, "1": {"label": "*0", "atom_type": "Cs"}, "7": {"label": "*3", "atom_type": "Cd"}, "8": {"label": "*4", "atom_type": "Cdd"}, "10": {"label": "*2", "atom_type": "H0"}}

>  <type>  (6) 
unop_2

>  <geom_source>  (6) 
Heuristics

$$$$

     RDKit          3D

 13 11  0  0  0  0  0  0  0  0999 V2000
   -1.1844    0.1063    0.4121 N   0  0  0  0  0  0  0  0  0  0  0  0
   -0.8272   -0.4745    1.6902 C   0  0  0  0  0  0  0  0  0  0  0  0
   -0.1446   -1.7805    1.6141 C   0  0  0  0  0  0  0  0  0  0  0  0
    0.3834   -2.7941    1.5115 N   0  0  0  0  0  0  0  0  0  0  0  0
   -1.8089   -0.5008   -0.1007 H   0  0  0  0  0  0  0  0  0  0  0  0
   -1.7258   -0.5997    2.2963 H   0  0  0  0  0  0  0  0  0  0  0  0
   -0.1771    0.2134    2.2330 H   0  0  0  0  0  0  0  0  0  0  0  0
    0.6527    1.6019   -0.4478 C   0  0  0  0  0  0  0  0  0  0  0  0
    0.6527    1.6019   -1.9025 C   0  0  0  0  0  0  0  0  0  0  0  0
    0.6527    1.6019   -3.0489 N   0  0  0  0  0  2  0  0  0  0  0  0
   -0.3003    0.8261   -0.0017 H   0  0  0  0  0  0  0  0  0  0  0  0
    1.6098    1.2374   -0.0761 H   0  0  0  0  0  0  0  0  0  0  0  0
    0.4900    2.6130   -0.0761 H   0  0  0  0  0  0  0  0  0  0  0  0
  1  2  1  0
  1  5  1  0
  1 11  1  0
  2  3  1  0
  2  6  1  0
  2  7  1  0
  3  4  3  0
  8  9  2  0
  8 12  1  0
  8 13  1  0
  9 10  2  0
M  RAD  1  10   2
M  END
>  <reaction>  (7) 
rxn_3215

>  <mol_properties>  (7) 
{"0": {"label": "*1", "atom_type": "N3s"}, "1": {"label": "*0", "atom_type": "Cs"}, "7": {"label": "*3", "atom_type": "Cd"}, "8": {"label": "*4", "atom_type": "Cdd"}, "10": {"label": "*2", "atom_type": "H0"}}

>  <type>  (7) 
unop_3

>  <geom_source>  (7) 
Heuristics

$$$$

     RDKit          3D

 13 11  0  0  0  0  0  0  0  0999 V2000
   -0.2065   -1.3779    1.2111 N   0  0  0  0  0  0  0  0  0  0  0  0
   -1.5039   -0.9243    0.7533 C   0  0  0  0  0  0  0  0  0  0  0  0
   -1.5926    0.5186    0.4574 C   0  0  0  0  0  0  0  0  0  0  0  0
   -1.6199    1.6446    0.2386 N   0  0  0  0  0  0  0  0  0  0  0  0
    0.0635   -0.9055    2.0629 H   0  0  0  0  0  0  0  0  0  0  0  0
   -2.2577   -1.1601    1.5060 H   0  0  0  0  0  0  0  0  0  0  0  0
   -1.7819   -1.4703   -0.1496 H   0  0  0  0  0  0  0  0  0  0  0  0
    1.6307    0.1177    0.3511 C   0  0  0  0  0  0  0  0  0  0  0  0
    1.6307    0.1177   -1.1035 C   0  0  0  0  0  0  0  0  0  0  0  0
    1.6307    0.1177   -2.2500 N   0  0  0  0  0  2  0  0  0  0  0  0
    0.6776   -0.6581    0.7972 H   0  0  0  0  0  0  0  0  0  0  0  0
    2.5877   -0.2468    0.7228 H   0  0  0  0  0  0  0  0  0  0  0  0
    1.4679    1.1288    0.7228 H   0  0  0  0  0  0  0  0  0  0  0  0
  1  2  1  0
  1  5  1  0
  1 11  1  0
  2  3  1  0
  2  6  1  0
  2  7  1  0
  3  4  3  0
  8  9  2  0
  8 12  1  0
  8 13  1  0
  9 10  2  0
M  RAD  1  10   2
M  END
>  <reaction>  (8) 
rxn_3215

>  <mol_properties>  (8) 
{"0": {"label": "*1", "atom_type": "N3s"}, "1": {"label": "*0", "atom_type": "Cs"}, "7": {"label": "*3", "atom_type": "Cd"}, "8": {"label": "*4", "atom_type": "Cdd"}, "10": {"label": "*2", "atom_type": "H0"}}

>  <type>  (8) 
unop_4

>  <geom_source>  (8) 
Heuristics

$$$$

     RDKit          3D

 13 11  0  0  0  0  0  0  0  0999 V2000
   -1.2440   -0.4387    0.0696 N   0  0  0  0  0  0  0  0  0  0  0  0
   -1.2656   -0.4562    1.5180 C   0  0  0  0  0  0  0  0  0  0  0  0
   -0.0248   -0.9374    2.1555 C   0  0  0  0  0  0  0  0  0  0  0  0
    0.9571   -1.3173    2.6117 N   0  0  0  0  0  0  0  0  0  0  0  0
   -1.0850   -1.3649   -0.3024 H   0  0  0  0  0  0  0  0  0  0  0  0
   -2.0866   -1.0874    1.8615 H   0  0  0  0  0  0  0  0  0  0  0  0
   -1.4668    0.5493    1.8906 H   0  0  0  0  0  0  0  0  0  0  0  0
    0.5932    1.0569   -0.7903 C   0  0  0  0  0  0  0  0  0  0  0  0
    0.5932    1.0569   -2.2450 C   0  0  0  0  0  0  0  0  0  0  0  0
    0.5932    1.0569   -3.3914 N   0  0  0  0  0  2  0  0  0  0  0  0
   -0.3598    0.2811   -0.3442 H   0  0  0  0  0  0  0  0  0  0  0  0
    1.5502    0.6924   -0.4186 H   0  0  0  0  0  0  0  0  0  0  0  0
    0.4304    2.0680   -0.4186 H   0  0  0  0  0  0  0  0  0  0  0  0
  1  2  1  0
  1  5  1  0
  1 11  1  0
  2  3  1  0
  2  6  1  0
  2  7  1  0
  3  4  3  0
  8  9  2  0
  8 12  1  0
  8 13  1  0
  9 10  2  0
M  RAD  1  10   2
M  END
>  <reaction>  (9) 
rxn_3215

>  <mol_properties>  (9) 
{"0": {"label": "*1", "atom_type": "N3s"}, "1": {"label": "*0", "atom_type": "Cs"}, "7": {"label": "*3", "atom_type": "Cd"}, "8": {"label": "*4", "atom_type": "Cdd"}, "10": {"label": "*2", "atom_type": "H0"}}

>  <type>  (9) 
unop_5

>  <geom_source>  (9) 
Heuristics

$$$$

     RDKit          3D

 13 11  0  0  0  0  0  0  0  0999 V2000
   -0.3297   -1.5037    0.8066 N   0  0  0  0  0  0  0  0  0  0  0  0
   -1.5625   -0.7641    0.9841 C   0  0  0  0  0  0  0  0  0  0  0  0
   -1.4072    0.7016    1.0542 C   0  0  0  0  0  0  0  0  0  0  0  0
   -1.2436    1.8363    1.1037 N   0  0  0  0  0  0  0  0  0  0  0  0
    0.3103   -1.3312    1.5696 H   0  0  0  0  0  0  0  0  0  0  0  0
   -2.0555   -1.0940    1.8999 H   0  0  0  0  0  0  0  0  0  0  0  0
   -2.2439   -0.9910    0.1627 H   0  0  0  0  0  0  0  0  0  0  0  0
    1.5075   -0.0081   -0.0534 C   0  0  0  0  0  0  0  0  0  0  0  0
    1.5075   -0.0081   -1.5080 C   0  0  0  0  0  0  0  0  0  0  0  0
    1.5075   -0.0081   -2.6545 N   0  0  0  0  0  2  0  0  0  0  0  0
    0.5545   -0.7840    0.3927 H   0  0  0  0  0  0  0  0  0  0  0  0
    2.4645   -0.3727    0.3183 H   0  0  0  0  0  0  0  0  0  0  0  0
    1.3447    1.0029    0.3183 H   0  0  0  0  0  0  0  0  0  0  0  0
  1  2  1  0
  1  5  1  0
  1 11  1  0
  2  3  1  0
  2  6  1  0
  2  7  1  0
  3  4  3  0
  8  9  2  0
  8 12  1  0
  8 13  1  0
  9 10  2  0
M  RAD  1  10   2
M  END
>  <reaction>  (10) 
rxn_3215

>  <mol_properties>  (10) 
{"0": {"label": "*1", "atom_type": "N3s"}, "1": {"label": "*0", "atom_type": "Cs"}, "7": {"label": "*3", "atom_type": "Cd"}, "8": {"label": "*4", "atom_type": "Cdd"}, "10": {"label": "*2", "atom_type": "H0"}}

>  <type>  (10) 
unop_6

>  <geom_source>  (10) 
Heuristics

$$$$

     RDKit          3D

 13 11  0  0  0  0  0  0  0  0999 V2000
   -0.5824   -1.4402    0.3836 N   0  0  0  0  0  0  0  0  0  0  0  0
   -1.5220   -0.6955    1.1966 C   0  0  0  0  0  0  0  0  0  0  0  0
   -1.0298    0.6068    1.6858 C   0  0  0  0  0  0  0  0  0  0  0  0
   -0.6094    1.6119    2.0457 N   0  0  0  0  0  0  0  0  0  0  0  0
    0.2633   -1.6420    0.8990 H   0  0  0  0  0  0  0  0  0  0  0  0
   -1.8070   -1.2941    2.0631 H   0  0  0  0  0  0  0  0  0  0  0  0
   -2.4346   -0.5169    0.6258 H   0  0  0  0  0  0  0  0  0  0  0  0
    1.2548    0.0553   -0.4763 C   0  0  0  0  0  0  0  0  0  0  0  0
    1.2548    0.0553   -1.9310 C   0  0  0  0  0  0  0  0  0  0  0  0
    1.2548    0.0553   -3.0774 N   0  0  0  0  0  2  0  0  0  0  0  0
    0.3018   -0.7205   -0.0302 H   0  0  0  0  0  0  0  0  0  0  0  0
    2.2118   -0.3092   -0.1046 H   0  0  0  0  0  0  0  0  0  0  0  0
    1.0920    1.0664   -0.1046 H   0  0  0  0  0  0  0  0  0  0  0  0
  1  2  1  0
  1  5  1  0
  1 11  1  0
  2  3  1  0
  2  6  1  0
  2  7  1  0
  3  4  3  0
  8  9  2  0
  8 12  1  0
  8 13  1  0
  9 10  2  0
M  RAD  1  10   2
M  END
>  <reaction>  (11) 
rxn_3215

>  <mol_properties>  (11) 
{"0": {"label": "*1", "atom_type": "N3s"}, "1": {"label": "*0", "atom_type": "Cs"}, "7": {"label": "*3", "atom_type": "Cd"}, "8": {"label": "*4", "atom_type": "Cdd"}, "10": {"label": "*2", "atom_type": "H0"}}

>  <type>  (11) 
unop_7

>  <geom_source>  (11) 
Heuristics

$$$$

     RDKit          3D

 13 11  0  0  0  0  0  0  0  0999 V2000
   -0.8281    0.2882    1.2460 N   0  0  0  0  0  0  0  0  0  0  0  0
   -0.3539   -1.0691    1.4236 C   0  0  0  0  0  0  0  0  0  0  0  0
   -0.7349   -2.0092    0.3520 C   0  0  0  0  0  0  0  0  0  0  0  0
   -1.0519   -2.7077   -0.5014 N   0  0  0  0  0  0  0  0  0  0  0  0
   -1.8374    0.3172    1.2009 H   0  0  0  0  0  0  0  0  0  0  0  0
   -0.7309   -1.4651    2.3678 H   0  0  0  0  0  0  0  0  0  0  0  0
    0.7347   -1.0669    1.4975 H   0  0  0  0  0  0  0  0  0  0  0  0
    1.0091    1.7838    0.3861 C   0  0  0  0  0  0  0  0  0  0  0  0
    1.0091    1.7838   -1.0686 C   0  0  0  0  0  0  0  0  0  0  0  0
    1.0091    1.7838   -2.2150 N   0  0  0  0  0  2  0  0  0  0  0  0
    0.0561    1.0080    0.8322 H   0  0  0  0  0  0  0  0  0  0  0  0
    1.9661    1.4193    0.7578 H   0  0  0  0  0  0  0  0  0  0  0  0
    0.8463    2.7949    0.7578 H   0  0  0  0  0  0  0  0  0  0  0  0
  1  2  1  0
  1  5  1  0
  1 11  1  0
  2  3  1  0
  2  6  1  0
  2  7  1  0
  3  4  3  0
  8  9  2  0
  8 12  1  0
  8 13  1  0
  9 10  2  0
M  RAD  1  10   2
M  END
>  <reaction>  (12) 
rxn_3215

>  <mol_properties>  (12) 
{"0": {"label": "*1", "atom_type": "N3s"}, "1": {"label": "*0", "atom_type": "Cs"}, "7": {"label": "*3", "atom_type": "Cd"}, "8": {"label": "*4", "atom_type": "Cdd"}, "10": {"label": "*2", "atom_type": "H0"}}

>  <type>  (12) 
unop_8

>  <geom_source>  (12) 
Heuristics

$$$$

     RDKit          3D

 13 11  0  0  0  0  0  0  0  0999 V2000
   -0.1784   -1.1186    1.5247 N   0  0  0  0  0  0  0  0  0  0  0  0
   -1.2943   -1.1554    0.6017 C   0  0  0  0  0  0  0  0  0  0  0  0
   -1.6470    0.1430   -0.0043 C   0  0  0  0  0  0  0  0  0  0  0  0
   -1.8889    1.1710   -0.4530 N   0  0  0  0  0  0  0  0  0  0  0  0
   -0.3676   -0.4964    2.2984 H   0  0  0  0  0  0  0  0  0  0  0  0
   -2.1780   -1.5378    1.1150 H   0  0  0  0  0  0  0  0  0  0  0  0
   -1.0746   -1.8549   -0.2063 H   0  0  0  0  0  0  0  0  0  0  0  0
    1.6587    0.3770    0.6647 C   0  0  0  0  0  0  0  0  0  0  0  0
    1.6587    0.3770   -0.7899 C   0  0  0  0  0  0  0  0  0  0  0  0
    1.6587    0.3770   -1.9363 N   0  0  0  0  0  2  0  0  0  0  0  0
    0.7057   -0.3989    1.1108 H   0  0  0  0  0  0  0  0  0  0  0  0
    2.6158    0.0125    1.0364 H   0  0  0  0  0  0  0  0  0  0  0  0
    1.4960    1.3880    1.0365 H   0  0  0  0  0  0  0  0  0  0  0  0
  1  2  1  0
  1  5  1  0
  1 11  1  0
  2  3  1  0
  2  6  1  0
  2  7  1  0
  3  4  3  0
  8  9  2  0
  8 12  1  0
  8 13  1  0
  9 10  2  0
M  RAD  1  10   2
M  END
>  <reaction>  (13) 
rxn_3215

>  <mol_properties>  (13) 
{"0": {"label": "*1", "atom_type": "N3s"}, "1": {"label": "*0", "atom_type": "Cs"}, "7": {"label": "*3", "atom_type": "Cd"}, "8": {"label": "*4", "atom_type": "Cdd"}, "10": {"label": "*2", "atom_type": "H0"}}

>  <type>  (13) 
unop_9

>  <geom_source>  (13) 
Heuristics

$$$$

     RDKit          3D

 13 11  0  0  0  0  0  0  0  0999 V2000
   -0.5796    0.0622    1.5768 N   0  0  0  0  0  0  0  0  0  0  0  0
   -0.3986   -1.3002    1.1190 C   0  0  0  0  0  0  0  0  0  0  0  0
   -1.1121   -1.6406   -0.1270 C   0  0  0  0  0  0  0  0  0  0  0  0
   -1.6823   -1.8646   -1.0972 N   0  0  0  0  0  0  0  0  0  0  0  0
   -1.5547    0.2585    1.7560 H   0  0  0  0  0  0  0  0  0  0  0  0
   -0.7298   -1.9915    1.8955 H   0  0  0  0  0  0  0  0  0  0  0  0
    0.6638   -1.4925    0.9612 H   0  0  0  0  0  0  0  0  0  0  0  0
    1.2576    1.5578    0.7169 C   0  0  0  0  0  0  0  0  0  0  0  0
    1.2576    1.5578   -0.7378 C   0  0  0  0  0  0  0  0  0  0  0  0
    1.2576    1.5578   -1.8842 N   0  0  0  0  0  2  0  0  0  0  0  0
    0.3046    0.7819    1.1630 H   0  0  0  0  0  0  0  0  0  0  0  0
    2.2146    1.1932    1.0886 H   0  0  0  0  0  0  0  0  0  0  0  0
    1.0948    2.5688    1.0886 H   0  0  0  0  0  0  0  0  0  0  0  0
  1  2  1  0
  1  5  1  0
  1 11  1  0
  2  3  1  0
  2  6  1  0
  2  7  1  0
  3  4  3  0
  8  9  2  0
  8 12  1  0
  8 13  1  0
  9 10  2  0
M  RAD  1  10   2
M  END
>  <reaction>  (14) 
rxn_3215

>  <mol_properties>  (14) 
{"0": {"label": "*1", "atom_type": "N3s"}, "1": {"label": "*0", "atom_type": "Cs"}, "7": {"label": "*3", "atom_type": "Cd"}, "8": {"label": "*4", "atom_type": "Cdd"}, "10": {"label": "*2", "atom_type": "H0"}}

>  <type>  (14) 
unop_10

>  <geom_source>  (14) 
Heuristics

$$$$

     RDKit          3D

 13 11  0  0  0  0  0  0  0  0999 V2000
   -0.9532   -1.1047    0.0668 N   0  0  0  0  0  0  0  0  0  0  0  0
   -1.4495   -0.6371    1.3449 C   0  0  0  0  0  0  0  0  0  0  0  0
   -0.4673    0.0970    2.1658 C   0  0  0  0  0  0  0  0  0  0  0  0
    0.3258    0.6621    2.7727 N   0  0  0  0  0  0  0  0  0  0  0  0
   -0.1718   -1.7340    0.1890 H   0  0  0  0  0  0  0  0  0  0  0  0
   -1.8073   -1.4866    1.9287 H   0  0  0  0  0  0  0  0  0  0  0  0
   -2.3084    0.0163    1.1842 H   0  0  0  0  0  0  0  0  0  0  0  0
    0.8840    0.3909   -0.7931 C   0  0  0  0  0  0  0  0  0  0  0  0
    0.8840    0.3909   -2.2478 C   0  0  0  0  0  0  0  0  0  0  0  0
    0.8840    0.3909   -3.3942 N   0  0  0  0  0  2  0  0  0  0  0  0
   -0.0690   -0.3849   -0.3470 H   0  0  0  0  0  0  0  0  0  0  0  0
    1.8410    0.0264   -0.4214 H   0  0  0  0  0  0  0  0  0  0  0  0
    0.7212    1.4020   -0.4214 H   0  0  0  0  0  0  0  0  0  0  0  0
  1  2  1  0
  1  5  1  0
  1 11  1  0
  2  3  1  0
  2  6  1  0
  2  7  1  0
  3  4  3  0
  8  9  2  0
  8 12  1  0
  8 13  1  0
  9 10  2  0
M  RAD  1  10   2
M  END
>  <reaction>  (15) 
rxn_3215

>  <mol_properties>  (15) 
{"0": {"label": "*1", "atom_type": "N3s"}, "1": {"label": "*0", "atom_type": "Cs"}, "7": {"label": "*3", "atom_type": "Cd"}, "8": {"label": "*4", "atom_type": "Cdd"}, "10": {"label": "*2", "atom_type": "H0"}}

>  <type>  (15) 
unop_11

>  <geom_source>  (15) 
Heuristics

$$$$

     RDKit          3D

 13 11  0  0  0  0  0  0  0  0999 V2000
   -0.2191   -0.7524    1.7136 N   0  0  0  0  0  0  0  0  0  0  0  0
   -0.9562   -1.3524    0.6204 C   0  0  0  0  0  0  0  0  0  0  0  0
   -1.6117   -0.3948   -0.2911 C   0  0  0  0  0  0  0  0  0  0  0  0
   -2.1057    0.3823   -0.9756 N   0  0  0  0  0  0  0  0  0  0  0  0
   -0.8254   -0.1903    2.2951 H   0  0  0  0  0  0  0  0  0  0  0  0
   -1.7247   -2.0153    1.0209 H   0  0  0  0  0  0  0  0  0  0  0  0
   -0.2842   -1.9748    0.0274 H   0  0  0  0  0  0  0  0  0  0  0  0
    1.6181    0.7432    0.8537 C   0  0  0  0  0  0  0  0  0  0  0  0
    1.6181    0.7432   -0.6009 C   0  0  0  0  0  0  0  0  0  0  0  0
    1.6181    0.7432   -1.7474 N   0  0  0  0  0  2  0  0  0  0  0  0
    0.6651   -0.0326    1.2998 H   0  0  0  0  0  0  0  0  0  0  0  0
    2.5751    0.3787    1.2254 H   0  0  0  0  0  0  0  0  0  0  0  0
    1.4553    1.7543    1.2254 H   0  0  0  0  0  0  0  0  0  0  0  0
  1  2  1  0
  1  5  1  0
  1 11  1  0
  2  3  1  0
  2  6  1  0
  2  7  1  0
  3  4  3  0
  8  9  2  0
  8 12  1  0
  8 13  1  0
  9 10  2  0
M  RAD  1  10   2
M  END
>  <reaction>  (16) 
rxn_3215

>  <mol_properties>  (16) 
{"0": {"label": "*1", "atom_type": "N3s"}, "1": {"label": "*0", "atom_type": "Cs"}, "7": {"label": "*3", "atom_type": "Cd"}, "8": {"label": "*4", "atom_type": "Cdd"}, "10": {"label": "*2", "atom_type": "H0"}}

>  <type>  (16) 
unop_12

>  <geom_source>  (16) 
Heuristics

$$$$

     RDKit          3D

 13 11  0  0  0  0  0  0  0  0999 V2000
   -0.3529   -0.3209    1.7420 N   0  0  0  0  0  0  0  0  0  0  0  0
   -0.6153   -1.4061    0.8190 C   0  0  0  0  0  0  0  0  0  0  0  0
   -1.4382   -1.0456   -0.3516 C   0  0  0  0  0  0  0  0  0  0  0  0
   -2.0803   -0.7245   -1.2467 N   0  0  0  0  0  0  0  0  0  0  0  0
   -1.2139    0.0538    2.1161 H   0  0  0  0  0  0  0  0  0  0  0  0
   -1.1186   -2.2180    1.3464 H   0  0  0  0  0  0  0  0  0  0  0  0
    0.3305   -1.8092    0.4537 H   0  0  0  0  0  0  0  0  0  0  0  0
    1.4842    1.1747    0.8821 C   0  0  0  0  0  0  0  0  0  0  0  0
    1.4842    1.1747   -0.5726 C   0  0  0  0  0  0  0  0  0  0  0  0
    1.4842    1.1747   -1.7190 N   0  0  0  0  0  2  0  0  0  0  0  0
    0.5312    0.3989    1.3281 H   0  0  0  0  0  0  0  0  0  0  0  0
    2.4413    0.8102    1.2538 H   0  0  0  0  0  0  0  0  0  0  0  0
    1.3215    2.1858    1.2538 H   0  0  0  0  0  0  0  0  0  0  0  0
  1  2  1  0
  1  5  1  0
  1 11  1  0
  2  3  1  0
  2  6  1  0
  2  7  1  0
  3  4  3  0
  8  9  2  0
  8 12  1  0
  8 13  1  0
  9 10  2  0
M  RAD  1  10   2
M  END
>  <reaction>  (17) 
rxn_3215

>  <mol_properties>  (17) 
{"0": {"label": "*1", "atom_type": "N3s"}, "1": {"label": "*0", "atom_type": "Cs"}, "7": {"label": "*3", "atom_type": "Cd"}, "8": {"label": "*4", "atom_type": "Cdd"}, "10": {"label": "*2", "atom_type": "H0"}}

>  <type>  (17) 
unop_13

>  <geom_source>  (17) 
gaussian_log

$$$$
