
     RDKit          3D

 12 11  0  0  0  0  0  0  0  0999 V2000
    1.9877    0.1011    0.4814 C   0  0  0  0  0  0  0  0  0  0  0  0
    0.8179    0.5502    0.0525 C   0  0  0  0  0  0  0  0  0  0  0  0
   -0.2939   -0.2692   -0.5320 C   0  0  0  0  0  0  0  0  0  0  0  0
   -0.0292   -1.7631   -0.6328 C   0  0  0  0  0  0  0  0  0  0  0  0
    2.2522   -0.9490    0.4436 H   0  0  0  0  0  0  0  0  0  0  0  0
    2.7295    0.7757    0.8896 H   0  0  0  0  0  0  0  0  0  0  0  0
    0.6162    1.6164    0.1190 H   0  0  0  0  0  0  0  0  0  0  0  0
   -0.5268    0.1319   -1.5245 H   0  0  0  0  0  0  0  0  0  0  0  0
   -1.1959   -0.0938    0.0644 H   0  0  0  0  0  0  0  0  0  0  0  0
    0.1590   -2.1992    0.3502 H   0  0  0  0  0  0  0  0  0  0  0  0
    0.8382   -1.9701   -1.2626 H   0  0  0  0  0  0  0  0  0  0  0  0
   -0.8879   -2.2759   -1.0672 H   0  0  0  0  0  0  0  0  0  0  0  0
  1  2  2  3
  1  5  1  0
  1  6  1  0
  2  3  1  0
  2  7  1  0
  3  4  1  0
  3  8  1  0
  3  9  1  0
  4 10  1  0
  4 11  1  0
  4 12  1  0
M  END
>  <reaction>  (1) 
rxn_432

>  <mol_properties>  (1) 
{"2": {"label": "donator", "atom_type": "Cs"}, "7": {"label": "d_hydrogen", "atom_type": "H0"}}

>  <type>  (1) 
r1h

$$$$

     RDKit          3D

  3  2  0  0  0  0  0  0  0  0999 V2000
    0.9943   -0.1797    0.0000 O   0  0  0  0  0  1  0  0  0  0  0  0
   -0.1595    0.4394    0.0000 O   0  0  0  0  0  0  0  0  0  0  0  0
   -0.8348   -0.2597    0.0000 H   0  0  0  0  0  0  0  0  0  0  0  0
  1  2  1  0
  2  3  1  0
M  RAD  1   1   2
M  END
>  <reaction>  (2) 
rxn_432

>  <mol_properties>  (2) 
{"0": {"label": "acceptor", "atom_type": "O2s"}}

>  <type>  (2) 
r2

$$$$

     RDKit          3D

  4  3  0  0  0  0  0  0  0  0999 V2000
    0.5949   -0.3853    0.2659 O   0  0  0  0  0  0  0  0  0  0  0  0
   -0.5918    0.4028    0.2462 O   0  0  0  0  0  0  0  0  0  0  0  0
    1.1865    0.1539   -0.2689 H   0  0  0  0  0  0  0  0  0  0  0  0
   -1.1896   -0.1714   -0.2432 H   0  0  0  0  0  0  0  0  0  0  0  0
  1  2  1  0
  1  3  1  0
  2  4  1  0
M  END
>  <reaction>  (3) 
rxn_432

>  <mol_properties>  (3) 
{"0": {"label": "acceptor", "atom_type": "O2s"}, "3": {"label": "a_hydrogen", "atom_type": "H0"}}

>  <type>  (3) 
r2h

$$$$

     RDKit          3D

 15 13  0  0  0  0  0  0  0  0999 V2000
    1.2361    0.2985    1.3348 O   0  0  0  0  0  0  0  0  0  0  0  0
    1.6249   -0.9746    1.0033 O   0  0  0  0  0  0  0  0  0  0  0  0
    2.0431   -0.8714    0.1387 H   0  0  0  0  0  0  0  0  0  0  0  0
   -0.5023   -0.8202   -1.9189 C   0  0  0  0  0  0  0  0  0  0  0  0
   -0.9040   -0.7474   -0.6434 C   0  0  0  0  0  0  0  0  0  0  0  0
   -0.9948    0.4673    0.1526 C   0  0  0  0  0  3  0  0  0  0  0  0
   -0.9388    1.8142   -0.5228 C   0  0  0  0  0  0  0  0  0  0  0  0
   -0.2507    0.0625   -2.4945 H   0  0  0  0  0  0  0  0  0  0  0  0
   -0.4383   -1.7725   -2.4289 H   0  0  0  0  0  0  0  0  0  0  0  0
   -1.1441   -1.6705   -0.1259 H   0  0  0  0  0  0  0  0  0  0  0  0
    0.0958    0.4024    0.8437 H   0  0  0  0  0  0  0  0  0  0  0  0
   -1.7287    0.4009    0.9553 H   0  0  0  0  0  0  0  0  0  0  0  0
   -1.8013    1.9588   -1.1798 H   0  0  0  0  0  0  0  0  0  0  0  0
   -0.0366    1.9232   -1.1268 H   0  0  0  0  0  0  0  0  0  0  0  0
   -0.9401    2.6146    0.2166 H   0  0  0  0  0  0  0  0  0  0  0  0
  1  2  1  0
  1 11  1  0
  2  3  1  0
  4  5  2  3
  4  8  1  0
  4  9  1  0
  5  6  1  0
  5 10  1  0
  6  7  1  0
  6 12  1  0
  7 13  1  0
  7 14  1  0
  7 15  1  0
M  RAD  1   6   2
M  END
>  <reaction>  (4) 
rxn_432

>  <mol_properties>  (4) 
{"0": {"label": "*1", "atom_type": "O2s"}, "1": {"label": "*0", "atom_type": "O2s"}, "4": {"label": "*4", "atom_type": "Cd"}, "5": {"label": "*3", "atom_type": "Cs"}, "10": {"label": "*2", "atom_type": "H0"}}

>  <type>  (4) 
ts

$$$$

     RDKit          3D

 15 13  0  0  0  0  0  0  0  0999 V2000
    1.1035   -0.1918    1.5974 O   0  0  0  0  0  0  0  0  0  0  0  0
    1.8079    0.9976    1.2531 O   0  0  0  0  0  0  0  0  0  0  0  0
    1.2651    1.6672    1.6816 H   0  0  0  0  0  0  0  0  0  0  0  0
   -0.8565   -1.2431   -2.1153 C   0  0  0  0  0  0  0  0  0  0  0  0
   -0.8565   -1.2431   -0.7910 C   0  0  0  0  0  0  0  0  0  0  0  0
   -0.8565   -0.0386    0.1025 C   0  0  0  0  0  3  0  0  0  0  0  0
   -0.8565    1.3071   -0.6052 C   0  0  0  0  0  0  0  0  0  0  0  0
   -0.8565   -0.3262   -2.6928 H   0  0  0  0  0  0  0  0  0  0  0  0
   -0.8565   -2.1704   -2.6740 H   0  0  0  0  0  0  0  0  0  0  0  0
   -0.8565   -2.1988   -0.2728 H   0  0  0  0  0  0  0  0  0  0  0  0
    0.1868   -0.1202    0.8982 H   0  0  0  0  0  0  0  0  0  0  0  0
   -1.7259   -0.1066    0.7656 H   0  0  0  0  0  0  0  0  0  0  0  0
   -1.7389    1.4222   -1.2376 H   0  0  0  0  0  0  0  0  0  0  0  0
    0.0259    1.4222   -1.2376 H   0  0  0  0  0  0  0  0  0  0  0  0
   -0.8565    2.1215    0.1201 H   0  0  0  0  0  0  0  0  0  0  0  0
  1  2  1  0
  1 11  1  0
  2  3  1  0
  4  5  2  3
  4  8  1  0
  4  9  1  0
  5  6  1  0
  5 10  1  0
  6  7  1  0
  6 12  1  0
  7 13  1  0
  7 14  1  0
  7 15  1  0
M  RAD  1   6   2
M  END
>  <reaction>  (5) 
rxn_432

>  <mol_properties>  (5) 
{"0": {"label": "*1", "atom_type": "O2s"}, "1": {"label": "*0", "atom_type": "O2s"}, "4": {"label": "*4", "atom_type": "Cd"}, "5": {"label": "*3", "atom_type": "Cs"}, "10": {"label": "*2", "atom_type": "H0"}}

>  <type>  (5) 
unop_1

>  <geom_source>  (5) 
Heuristics

$$$$

     RDKit          3D

 15 13  0  0  0  0  0  0  0  0999 V2000
    1.0510    0.1715    1.6978 O   0  0  0  0  0  0  0  0  0  0  0  0
    1.9693   -0.5454    0.8777 O   0  0  0  0  0  0  0  0  0  0  0  0
    2.4536    0.1765    0.4641 H   0  0  0  0  0  0  0  0  0  0  0  0
   -0.9089   -0.8798   -2.0150 C   0  0  0  0  0  0  0  0  0  0  0  0
   -0.9089   -0.8798   -0.6906 C   0  0  0  0  0  0  0  0  0  0  0  0
   -0.9089    0.3247    0.2028 C   0  0  0  0  0  3  0  0  0  0  0  0
   -0.9089    1.6705   -0.5049 C   0  0  0  0  0  0  0  0  0  0  0  0
   -0.9089    0.0371   -2.5924 H   0  0  0  0  0  0  0  0  0  0  0  0
   -0.9089   -1.8071   -2.5737 H   0  0  0  0  0  0  0  0  0  0  0  0
   -0.9089   -1.8355   -0.1724 H   0  0  0  0  0  0  0  0  0  0  0  0
    0.1343    0.2432    0.9986 H   0  0  0  0  0  0  0  0  0  0  0  0
   -1.7783    0.2568    0.8660 H   0  0  0  0  0  0  0  0  0  0  0  0
   -1.7914    1.7855   -1.1373 H   0  0  0  0  0  0  0  0  0  0  0  0
   -0.0265    1.7855   -1.1373 H   0  0  0  0  0  0  0  0  0  0  0  0
   -0.9089    2.4849    0.2204 H   0  0  0  0  0  0  0  0  0  0  0  0
  1  2  1  0
  1 11  1  0
  2  3  1  0
  4  5  2  3
  4  8  1  0
  4  9  1  0
  5  6  1  0
  5 10  1  0
  6  7  1  0
  6 12  1  0
  7 13  1  0
  7 14  1  0
  7 15  1  0
M  RAD  1   6   2
M  END
>  <reaction>  (6) 
rxn_432

>  <mol_properties>  (6) 
{"0": {"label": "*1", "atom_type": "O2s"}, "1": {"label": "*0", "atom_type": "O2s"}, "4": {"label": "*4", "atom_type": "Cd"}, "5": {"label": "*3", "atom_type": "Cs"}, "10": {"label": "*2", "atom_type": "H0"}}

>  <type>  (6) 
unop_2

>  <geom_source>  (6) 
Heuristics

$$$$

     RDKit          3D

 15 13  0  0  0  0  0  0  0  0999 V2000
    1.1829   -0.2224    1.4865 O   0  0  0  0  0  0  0  0  0  0  0  0
    1.4731    1.1552    1.7045 O   0  0  0  0  0  0  0  0  0  0  0  0
    0.9001    1.3509    2.4528 H   0  0  0  0  0  0  0  0  0  0  0  0
   -0.7771   -1.2737   -2.2263 C   0  0  0  0  0  0  0  0  0  0  0  0
   -0.7771   -1.2737   -0.9020 C   0  0  0  0  0  0  0  0  0  0  0  0
   -0.7771   -0.0692   -0.0085 C   0  0  0  0  0  3  0  0  0  0  0  0
   -0.7771    1.2766   -0.7162 C   0  0  0  0  0  0  0  0  0  0  0  0
   -0.7771   -0.3568   -2.8038 H   0  0  0  0  0  0  0  0  0  0  0  0
   -0.7771   -2.2010   -2.7850 H   0  0  0  0  0  0  0  0  0  0  0  0
   -0.7771   -2.2294   -0.3838 H   0  0  0  0  0  0  0  0  0  0  0  0
    0.2662   -0.1507    0.7872 H   0  0  0  0  0  0  0  0  0  0  0  0
   -1.6465   -0.1371    0.6546 H   0  0  0  0  0  0  0  0  0  0  0  0
   -1.6595    1.3916   -1.3486 H   0  0  0  0  0  0  0  0  0  0  0  0
    0.1054    1.3916   -1.3486 H   0  0  0  0  0  0  0  0  0  0  0  0
   -0.7771    2.0909    0.0091 H   0  0  0  0  0  0  0  0  0  0  0  0
  1  2  1  0
  1 11  1  0
  2  3  1  0
  4  5  2  3
  4  8  1  0
  4  9  1  0
  5  6  1  0
  5 10  1  0
  6  7  1  0
  6 12  1  0
  7 13  1  0
  7 14  1  0
  7 15  1  0
M  RAD  1   6   2
M  END
>  <reaction>  (7) 
rxn_432

>  <mol_properties>  (7) 
{"0": {"label": "*1", "atom_type": "O2s"}, "1": {"label": "*0", "atom_type": "O2s"}, "4": {"label": "*4", "atom_type": "Cd"}, "5": {"label": "*3", "atom_type": "Cs"}, "10": {"label": "*2", "atom_type": "H0"}}

>  <type>  (7) 
unop_3

>  <geom_source>  (7) 
Heuristics

$$$$

     RDKit          3D

 15 13  0  0  0  0  0  0  0  0999 V2000
    1.2723    0.2800    1.4049 O   0  0  0  0  0  0  0  0  0  0  0  0
    1.0072   -0.9438    2.0843 O   0  0  0  0  0  0  0  0  0  0  0  0
    1.9002   -1.2580    2.2589 H   0  0  0  0  0  0  0  0  0  0  0  0
   -0.6876   -0.7713   -2.3079 C   0  0  0  0  0  0  0  0  0  0  0  0
   -0.6876   -0.7713   -0.9836 C   0  0  0  0  0  0  0  0  0  0  0  0
   -0.6876    0.4332   -0.0901 C   0  0  0  0  0  3  0  0  0  0  0  0
   -0.6876    1.7790   -0.7978 C   0  0  0  0  0  0  0  0  0  0  0  0
   -0.6876    0.1457   -2.8853 H   0  0  0  0  0  0  0  0  0  0  0  0
   -0.6876   -1.6986   -2.8666 H   0  0  0  0  0  0  0  0  0  0  0  0
   -0.6876   -1.7270   -0.4654 H   0  0  0  0  0  0  0  0  0  0  0  0
    0.3556    0.3517    0.7056 H   0  0  0  0  0  0  0  0  0  0  0  0
   -1.5570    0.3653    0.5730 H   0  0  0  0  0  0  0  0  0  0  0  0
   -1.5701    1.8940   -1.4302 H   0  0  0  0  0  0  0  0  0  0  0  0
    0.1948    1.8940   -1.4302 H   0  0  0  0  0  0  0  0  0  0  0  0
   -0.6876    2.5934   -0.0725 H   0  0  0  0  0  0  0  0  0  0  0  0
  1  2  1  0
  1 11  1  0
  2  3  1  0
  4  5  2  3
  4  8  1  0
  4  9  1  0
  5  6  1  0
  5 10  1  0
  6  7  1  0
  6 12  1  0
  7 13  1  0
  7 14  1  0
  7 15  1  0
M  RAD  1   6   2
M  END
>  <reaction>  (8) 
rxn_432

>  <mol_properties>  (8) 
{"0": {"label": "*1", "atom_type": "O2s"}, "1": {"label": "*0", "atom_type": "O2s"}, "4": {"label": "*4", "atom_type": "Cd"}, "5": {"label": "*3", "atom_type": "Cs"}, "10": {"label": "*2", "atom_type": "H0"}}

>  <type>  (8) 
unop_4

>  <geom_source>  (8) 
Heuristics

$$$$

     RDKit          3D

 15 13  0  0  0  0  0  0  0  0999 V2000
    1.2610   -0.1807    1.3802 O   0  0  0  0  0  0  0  0  0  0  0  0
    1.1181    1.0114    2.1472 O   0  0  0  0  0  0  0  0  0  0  0  0
    0.9475    0.6508    3.0232 H   0  0  0  0  0  0  0  0  0  0  0  0
   -0.6989   -1.2319   -2.3325 C   0  0  0  0  0  0  0  0  0  0  0  0
   -0.6989   -1.2319   -1.0082 C   0  0  0  0  0  0  0  0  0  0  0  0
   -0.6989   -0.0275   -0.1147 C   0  0  0  0  0  3  0  0  0  0  0  0
   -0.6989    1.3183   -0.8224 C   0  0  0  0  0  0  0  0  0  0  0  0
   -0.6989   -0.3150   -2.9100 H   0  0  0  0  0  0  0  0  0  0  0  0
   -0.6989   -2.1593   -2.8912 H   0  0  0  0  0  0  0  0  0  0  0  0
   -0.6989   -2.1877   -0.4900 H   0  0  0  0  0  0  0  0  0  0  0  0
    0.3443   -0.1090    0.6810 H   0  0  0  0  0  0  0  0  0  0  0  0
   -1.5683   -0.0954    0.5484 H   0  0  0  0  0  0  0  0  0  0  0  0
   -1.5814    1.4333   -1.4549 H   0  0  0  0  0  0  0  0  0  0  0  0
    0.1835    1.4333   -1.4549 H   0  0  0  0  0  0  0  0  0  0  0  0
   -0.6989    2.1327   -0.0971 H   0  0  0  0  0  0  0  0  0  0  0  0
  1  2  1  0
  1 11  1  0
  2  3  1  0
  4  5  2  3
  4  8  1  0
  4  9  1  0
  5  6  1  0
  5 10  1  0
  6  7  1  0
  6 12  1  0
  7 13  1  0
  7 14  1  0
  7 15  1  0
M  RAD  1   6   2
M  END
>  <reaction>  (9) 
rxn_432

>  <mol_properties>  (9) 
{"0": {"label": "*1", "atom_type": "O2s"}, "1": {"label": "*0", "atom_type": "O2s"}, "4": {"label": "*4", "atom_type": "Cd"}, "5": {"label": "*3", "atom_type": "Cs"}, "10": {"label": "*2", "atom_type": "H0"}}

>  <type>  (9) 
unop_5

>  <geom_source>  (9) 
Heuristics

$$$$

     RDKit          3D

 15 13  0  0  0  0  0  0  0  0999 V2000
    1.3278    0.1833    1.3214 O   0  0  0  0  0  0  0  0  0  0  0  0
    0.7783   -0.5290    2.4261 O   0  0  0  0  0  0  0  0  0  0  0  0
    1.5690   -0.9278    2.8034 H   0  0  0  0  0  0  0  0  0  0  0  0
   -0.6322   -0.8679   -2.3914 C   0  0  0  0  0  0  0  0  0  0  0  0
   -0.6322   -0.8679   -1.0670 C   0  0  0  0  0  0  0  0  0  0  0  0
   -0.6322    0.3366   -0.1736 C   0  0  0  0  0  3  0  0  0  0  0  0
   -0.6322    1.6823   -0.8813 C   0  0  0  0  0  0  0  0  0  0  0  0
   -0.6322    0.0490   -2.9688 H   0  0  0  0  0  0  0  0  0  0  0  0
   -0.6322   -1.7953   -2.9501 H   0  0  0  0  0  0  0  0  0  0  0  0
   -0.6322   -1.8237   -0.5489 H   0  0  0  0  0  0  0  0  0  0  0  0
    0.4111    0.2550    0.6222 H   0  0  0  0  0  0  0  0  0  0  0  0
   -1.5016    0.2686    0.4895 H   0  0  0  0  0  0  0  0  0  0  0  0
   -1.5146    1.7973   -1.5137 H   0  0  0  0  0  0  0  0  0  0  0  0
    0.2502    1.7973   -1.5137 H   0  0  0  0  0  0  0  0  0  0  0  0
   -0.6322    2.4967   -0.1560 H   0  0  0  0  0  0  0  0  0  0  0  0
  1  2  1  0
  1 11  1  0
  2  3  1  0
  4  5  2  3
  4  8  1  0
  4  9  1  0
  5  6  1  0
  5 10  1  0
  6  7  1  0
  6 12  1  0
  7 13  1  0
  7 14  1  0
  7 15  1  0
M  RAD  1   6   2
M  END
>  <reaction>  (10) 
rxn_432

>  <mol_properties>  (10) 
{"0": {"label": "*1", "atom_type": "O2s"}, "1": {"label": "*0", "atom_type": "O2s"}, "4": {"label": "*4", "atom_type": "Cd"}, "5": {"label": "*3", "atom_type": "Cs"}, "10": {"label": "*2", "atom_type": "H0"}}

>  <type>  (10) 
unop_6

>  <geom_source>  (10) 
Heuristics

$$$$

     RDKit          3D

 15 13  0  0  0  0  0  0  0  0999 V2000
    1.3442    0.0508    1.2864 O   0  0  0  0  0  0  0  0  0  0  0  0
    0.7165    0.0363    2.5653 O   0  0  0  0  0  0  0  0  0  0  0  0
    1.3751   -0.4282    3.0917 H   0  0  0  0  0  0  0  0  0  0  0  0
   -0.6158   -1.0004   -2.4263 C   0  0  0  0  0  0  0  0  0  0  0  0
   -0.6158   -1.0004   -1.1020 C   0  0  0  0  0  0  0  0  0  0  0  0
   -0.6158    0.2041   -0.2085 C   0  0  0  0  0  3  0  0  0  0  0  0
   -0.6158    1.5498   -0.9162 C   0  0  0  0  0  0  0  0  0  0  0  0
   -0.6158   -0.0835   -3.0038 H   0  0  0  0  0  0  0  0  0  0  0  0
   -0.6158   -1.9277   -2.9850 H   0  0  0  0  0  0  0  0  0  0  0  0
   -0.6158   -1.9561   -0.5838 H   0  0  0  0  0  0  0  0  0  0  0  0
    0.4275    0.1225    0.5872 H   0  0  0  0  0  0  0  0  0  0  0  0
   -1.4852    0.1361    0.4546 H   0  0  0  0  0  0  0  0  0  0  0  0
   -1.4982    1.6649   -1.5486 H   0  0  0  0  0  0  0  0  0  0  0  0
    0.2667    1.6649   -1.5486 H   0  0  0  0  0  0  0  0  0  0  0  0
   -0.6158    2.3642   -0.1909 H   0  0  0  0  0  0  0  0  0  0  0  0
  1  2  1  0
  1 11  1  0
  2  3  1  0
  4  5  2  3
  4  8  1  0
  4  9  1  0
  5  6  1  0
  5 10  1  0
  6  7  1  0
  6 12  1  0
  7 13  1  0
  7 14  1  0
  7 15  1  0
M  RAD  1   6   2
M  END
>  <reaction>  (11) 
rxn_432

>  <mol_properties>  (11) 
{"0": {"label": "*1", "atom_type": "O2s"}, "1": {"label": "*0", "atom_type": "O2s"}, "4": {"label": "*4", "atom_type": "Cd"}, "5": {"label": "*3", "atom_type": "Cs"}, "10": {"label": "*2", "atom_type": "H0"}}

>  <type>  (11) 
unop_7

>  <geom_source>  (11) 
Heuristics

$$$$

     RDKit          3D

 15 13  0  0  0  0  0  0  0  0999 V2000
    1.0463   -0.0970    1.6825 O   0  0  0  0  0  0  0  0  0  0  0  0
    2.0352    0.5810    0.9130 O   0  0  0  0  0  0  0  0  0  0  0  0
    1.7439    1.4946    0.9973 H   0  0  0  0  0  0  0  0  0  0  0  0
   -0.9136   -1.1482   -2.0302 C   0  0  0  0  0  0  0  0  0  0  0  0
   -0.9136   -1.1482   -0.7059 C   0  0  0  0  0  0  0  0  0  0  0  0
   -0.9136    0.0563    0.1876 C   0  0  0  0  0  3  0  0  0  0  0  0
   -0.9136    1.4020   -0.5201 C   0  0  0  0  0  0  0  0  0  0  0  0
   -0.9136   -0.2313   -2.6077 H   0  0  0  0  0  0  0  0  0  0  0  0
   -0.9136   -2.0756   -2.5889 H   0  0  0  0  0  0  0  0  0  0  0  0
   -0.9136   -2.1039   -0.1877 H   0  0  0  0  0  0  0  0  0  0  0  0
    0.1296   -0.0253    0.9833 H   0  0  0  0  0  0  0  0  0  0  0  0
   -1.7830   -0.0117    0.8507 H   0  0  0  0  0  0  0  0  0  0  0  0
   -1.7961    1.5171   -1.1526 H   0  0  0  0  0  0  0  0  0  0  0  0
   -0.0312    1.5171   -1.1526 H   0  0  0  0  0  0  0  0  0  0  0  0
   -0.9136    2.2164    0.2052 H   0  0  0  0  0  0  0  0  0  0  0  0
  1  2  1  0
  1 11  1  0
  2  3  1  0
  4  5  2  3
  4  8  1  0
  4  9  1  0
  5  6  1  0
  5 10  1  0
  6  7  1  0
  6 12  1  0
  7 13  1  0
  7 14  1  0
  7 15  1  0
M  RAD  1   6   2
M  END
>  <reaction>  (12) 
rxn_432

>  <mol_properties>  (12) 
{"0": {"label": "*1", "atom_type": "O2s"}, "1": {"label": "*0", "atom_type": "O2s"}, "4": {"label": "*4", "atom_type": "Cd"}, "5": {"label": "*3", "atom_type": "Cs"}, "10": {"label": "*2", "atom_type": "H0"}}

>  <type>  (12) 
unop_8

>  <geom_source>  (12) 
Heuristics

$$$$

     RDKit          3D

 15 13  0  0  0  0  0  0  0  0999 V2000
    1.1926    0.3135    1.5154 O   0  0  0  0  0  0  0  0  0  0  0  0
    1.3417   -1.0985    1.6325 O   0  0  0  0  0  0  0  0  0  0  0  0
    2.2931   -1.1958    1.5229 H   0  0  0  0  0  0  0  0  0  0  0  0
   -0.7674   -0.7378   -2.1973 C   0  0  0  0  0  0  0  0  0  0  0  0
   -0.7674   -0.7378   -0.8730 C   0  0  0  0  0  0  0  0  0  0  0  0
   -0.7674    0.4667    0.0205 C   0  0  0  0  0  3  0  0  0  0  0  0
   -0.7674    1.8125   -0.6872 C   0  0  0  0  0  0  0  0  0  0  0  0
   -0.7674    0.1791   -2.7748 H   0  0  0  0  0  0  0  0  0  0  0  0
   -0.7674   -1.6651   -2.7560 H   0  0  0  0  0  0  0  0  0  0  0  0
   -0.7674   -1.6935   -0.3548 H   0  0  0  0  0  0  0  0  0  0  0  0
    0.2759    0.3851    0.8162 H   0  0  0  0  0  0  0  0  0  0  0  0
   -1.6368    0.3987    0.6836 H   0  0  0  0  0  0  0  0  0  0  0  0
   -1.6498    1.9275   -1.3196 H   0  0  0  0  0  0  0  0  0  0  0  0
    0.1150    1.9275   -1.3196 H   0  0  0  0  0  0  0  0  0  0  0  0
   -0.7674    2.6268    0.0381 H   0  0  0  0  0  0  0  0  0  0  0  0
  1  2  1  0
  1 11  1  0
  2  3  1  0
  4  5  2  3
  4  8  1  0
  4  9  1  0
  5  6  1  0
  5 10  1  0
  6  7  1  0
  6 12  1  0
  7 13  1  0
  7 14  1  0
  7 15  1  0
M  RAD  1   6   2
M  END
>  <reaction>  (13) 
rxn_432

>  <mol_properties>  (13) 
{"0": {"label": "*1", "atom_type": "O2s"}, "1": {"label": "*0", "atom_type": "O2s"}, "4": {"label": "*4", "atom_type": "Cd"}, "5": {"label": "*3", "atom_type": "Cs"}, "10": {"label": "*2", "atom_type": "H0"}}

>  <type>  (13) 
unop_9

>  <geom_source>  (13) 
Heuristics

$$$$

     RDKit          3D

 15 13  0  0  0  0  0  0  0  0999 V2000
    1.0273    0.0360    1.7192 O   0  0  0  0  0  0  0  0  0  0  0  0
    2.0944    0.0162    0.7756 O   0  0  0  0  0  0  0  0  0  0  0  0
    2.1638    0.9500    0.5520 H   0  0  0  0  0  0  0  0  0  0  0  0
   -0.9327   -1.0152   -1.9935 C   0  0  0  0  0  0  0  0  0  0  0  0
   -0.9327   -1.0152   -0.6692 C   0  0  0  0  0  0  0  0  0  0  0  0
   -0.9327    0.1893    0.2243 C   0  0  0  0  0  3  0  0  0  0  0  0
   -0.9327    1.5350   -0.4834 C   0  0  0  0  0  0  0  0  0  0  0  0
   -0.9327   -0.0983   -2.5710 H   0  0  0  0  0  0  0  0  0  0  0  0
   -0.9327   -1.9426   -2.5522 H   0  0  0  0  0  0  0  0  0  0  0  0
   -0.9327   -1.9710   -0.1510 H   0  0  0  0  0  0  0  0  0  0  0  0
    0.1106    0.1077    1.0200 H   0  0  0  0  0  0  0  0  0  0  0  0
   -1.8021    0.1213    0.8874 H   0  0  0  0  0  0  0  0  0  0  0  0
   -1.8151    1.6500   -1.1158 H   0  0  0  0  0  0  0  0  0  0  0  0
   -0.0502    1.6500   -1.1158 H   0  0  0  0  0  0  0  0  0  0  0  0
   -0.9327    2.3494    0.2419 H   0  0  0  0  0  0  0  0  0  0  0  0
  1  2  1  0
  1 11  1  0
  2  3  1  0
  4  5  2  3
  4  8  1  0
  4  9  1  0
  5  6  1  0
  5 10  1  0
  6  7  1  0
  6 12  1  0
  7 13  1  0
  7 14  1  0
  7 15  1  0
M  RAD  1   6   2
M  END
>  <reaction>  (14) 
rxn_432

>  <mol_properties>  (14) 
{"0": {"label": "*1", "atom_type": "O2s"}, "1": {"label": "*0", "atom_type": "O2s"}, "4": {"label": "*4", "atom_type": "Cd"}, "5": {"label": "*3", "atom_type": "Cs"}, "10": {"label": "*2", "atom_type": "H0"}}

>  <type>  (14) 
unop_10

>  <geom_source>  (14) 
Heuristics

$$$$

     RDKit          3D

 15 13  0  0  0  0  0  0  0  0999 V2000
    1.3189   -0.0815    1.3080 O   0  0  0  0  0  0  0  0  0  0  0  0
    0.8400    0.6010    2.4632 O   0  0  0  0  0  0  0  0  0  0  0  0
    1.2226    0.0679    3.1675 H   0  0  0  0  0  0  0  0  0  0  0  0
   -0.6411   -1.1327   -2.4047 C   0  0  0  0  0  0  0  0  0  0  0  0
   -0.6411   -1.1327   -1.0804 C   0  0  0  0  0  0  0  0  0  0  0  0
   -0.6411    0.0718   -0.1869 C   0  0  0  0  0  3  0  0  0  0  0  0
   -0.6411    1.4175   -0.8946 C   0  0  0  0  0  0  0  0  0  0  0  0
   -0.6411   -0.2158   -2.9822 H   0  0  0  0  0  0  0  0  0  0  0  0
   -0.6411   -2.0600   -2.9634 H   0  0  0  0  0  0  0  0  0  0  0  0
   -0.6411   -2.0884   -0.5622 H   0  0  0  0  0  0  0  0  0  0  0  0
    0.4022   -0.0098    0.6088 H   0  0  0  0  0  0  0  0  0  0  0  0
   -1.5104    0.0038    0.4762 H   0  0  0  0  0  0  0  0  0  0  0  0
   -1.5235    1.5326   -1.5270 H   0  0  0  0  0  0  0  0  0  0  0  0
    0.2414    1.5326   -1.5270 H   0  0  0  0  0  0  0  0  0  0  0  0
   -0.6410    2.2319   -0.1693 H   0  0  0  0  0  0  0  0  0  0  0  0
  1  2  1  0
  1 11  1  0
  2  3  1  0
  4  5  2  3
  4  8  1  0
  4  9  1  0
  5  6  1  0
  5 10  1  0
  6  7  1  0
  6 12  1  0
  7 13  1  0
  7 14  1  0
  7 15  1  0
M  RAD  1   6   2
M  END
>  <reaction>  (15) 
rxn_432

>  <mol_properties>  (15) 
{"0": {"label": "*1", "atom_type": "O2s"}, "1": {"label": "*0", "atom_type": "O2s"}, "4": {"label": "*4", "atom_type": "Cd"}, "5": {"label": "*3", "atom_type": "Cs"}, "10": {"label": "*2", "atom_type": "H0"}}

>  <type>  (15) 
unop_11

>  <geom_source>  (15) 
Heuristics

$$$$

     RDKit          3D

 15 13  0  0  0  0  0  0  0  0999 V2000
    1.1112    0.2735    1.6232 O   0  0  0  0  0  0  0  0  0  0  0  0
    1.6935   -0.9530    1.1914 O   0  0  0  0  0  0  0  0  0  0  0  0
    2.5264   -0.6442    0.8204 H   0  0  0  0  0  0  0  0  0  0  0  0
   -0.8487   -0.7778   -2.0896 C   0  0  0  0  0  0  0  0  0  0  0  0
   -0.8487   -0.7778   -0.7652 C   0  0  0  0  0  0  0  0  0  0  0  0
   -0.8487    0.4267    0.1282 C   0  0  0  0  0  3  0  0  0  0  0  0
   -0.8487    1.7724   -0.5795 C   0  0  0  0  0  0  0  0  0  0  0  0
   -0.8487    0.1391   -2.6670 H   0  0  0  0  0  0  0  0  0  0  0  0
   -0.8487   -1.7051   -2.6483 H   0  0  0  0  0  0  0  0  0  0  0  0
   -0.8487   -1.7335   -0.2471 H   0  0  0  0  0  0  0  0  0  0  0  0
    0.1945    0.3451    0.9240 H   0  0  0  0  0  0  0  0  0  0  0  0
   -1.7181    0.3587    0.7914 H   0  0  0  0  0  0  0  0  0  0  0  0
   -1.7312    1.8875   -1.2119 H   0  0  0  0  0  0  0  0  0  0  0  0
    0.0337    1.8875   -1.2119 H   0  0  0  0  0  0  0  0  0  0  0  0
   -0.8487    2.5868    0.1458 H   0  0  0  0  0  0  0  0  0  0  0  0
  1  2  1  0
  1 11  1  0
  2  3  1  0
  4  5  2  3
  4  8  1  0
  4  9  1  0
  5  6  1  0
  5 10  1  0
  6  7  1  0
  6 12  1  0
  7 13  1  0
  7 14  1  0
  7 15  1  0
M  RAD  1   6   2
M  END
>  <reaction>  (16) 
rxn_432

>  <mol_properties>  (16) 
{"0": {"label": "*1", "atom_type": "O2s"}, "1": {"label": "*0", "atom_type": "O2s"}, "4": {"label": "*4", "atom_type": "Cd"}, "5": {"label": "*3", "atom_type": "Cs"}, "10": {"label": "*2", "atom_type": "H0"}}

>  <type>  (16) 
unop_12

>  <geom_source>  (16) 
Heuristics

$$$$

     RDKit          3D

 15 13  0  0  0  0  0  0  0  0999 V2000
    2.9746   -0.8655   -0.3417 O   0  0  0  0  0  0  0  0  0  0  0  0
    2.2371   -0.2058    0.5265 O   0  0  0  0  0  1  0  0  0  0  0  0
   -1.3216   -1.2006   -0.4011 C   0  0  0  0  0  0  0  0  0  0  0  0
   -0.1821   -0.4964    0.3263 C   0  0  0  0  0  0  0  0  0  0  0  0
   -0.5690    0.8944    0.7355 C   0  0  0  0  0  0  0  0  0  0  0  0
   -0.6573    1.8804   -0.1601 C   0  0  0  0  0  0  0  0  0  0  0  0
   -1.0037   -2.2289   -0.6717 H   0  0  0  0  0  0  0  0  0  0  0  0
   -1.5804   -0.6552   -1.3330 H   0  0  0  0  0  0  0  0  0  0  0  0
   -2.2177   -1.2621    0.2529 H   0  0  0  0  0  0  0  0  0  0  0  0
    0.0971   -1.0844    1.2267 H   0  0  0  0  0  0  0  0  0  0  0  0
   -0.7393    1.1114    1.7859 H   0  0  0  0  0  0  0  0  0  0  0  0
   -0.4668    1.6972   -1.2133 H   0  0  0  0  0  0  0  0  0  0  0  0
   -0.9194    2.8833    0.1606 H   0  0  0  0  0  0  0  0  0  0  0  0
    3.3091   -0.1712   -0.9641 H   0  0  0  0  0  0  0  0  0  0  0  0
    1.0394   -0.2967    0.0704 H   0  0  0  0  0  0  0  0  0  0  0  0
  1  2  1  0
  1 14  1  0
  3  4  1  0
  3  7  1  0
  3  8  1  0
  3  9  1  0
  4  5  1  0
  4 10  1  0
  4 15  1  0
  5  6  2  3
  5 11  1  0
  6 12  1  0
  6 13  1  0
M  RAD  1   2   2
M  END
>  <reaction>  (17) 
rxn_432

>  <mol_properties>  (17) 
{"0": {"label": "*1", "atom_type": "O2s"}, "1": {"label": "*0", "atom_type": "O2s"}, "4": {"label": "*4", "atom_type": "Cd"}, "5": {"label": "*3", "atom_type": "Cs"}, "10": {"label": "*2", "atom_type": "H0"}}

>  <type>  (17) 
unop_13

>  <geom_source>  (17) 
AutoTST

$$$$
