
     RDKit          3D

  6  5  0  0  0  0  0  0  0  0999 V2000
   -0.5072   -0.0291   -0.0097 C   0  0  0  0  0  0  0  0  0  0  0  0
    1.1321   -0.1527   -0.7687 S   0  0  0  0  0  0  0  0  0  0  0  0
   -0.6174   -0.7330    0.8127 H   0  0  0  0  0  0  0  0  0  0  0  0
   -0.5863    0.9827    0.3845 H   0  0  0  0  0  0  0  0  0  0  0  0
   -1.2962   -0.1800   -0.7434 H   0  0  0  0  0  0  0  0  0  0  0  0
    1.0312   -1.4237   -1.1764 H   0  0  0  0  0  0  0  0  0  0  0  0
  1  2  1  0
  1  3  1  0
  1  4  1  0
  1  5  1  0
  2  6  1  0
M  END
>  <reaction>  (1) 
rxn_1857

>  <mol_properties>  (1) 
{"0": {"label": "donator", "atom_type": "Cs"}, "2": {"label": "d_hydrogen", "atom_type": "H0"}}

>  <type>  (1) 
r1h

$$$$

     RDKit          3D

 18 18  0  0  0  0  0  0  0  0999 V2000
    2.7512    0.0489   -0.5734 C   0  0  0  0  0  0  0  0  0  0  0  0
    1.4277   -0.4568   -0.0957 C   0  0  0  0  0  3  0  0  0  0  0  0
    0.5787   -1.2468   -0.9255 C   0  0  0  0  0  0  0  0  0  0  0  0
    0.9949   -1.6342   -2.2194 C   0  0  0  0  0  0  0  0  0  0  0  0
    0.1850   -2.4001   -3.0330 C   0  0  0  0  0  0  0  0  0  0  0  0
   -1.0677   -2.8151   -2.5986 C   0  0  0  0  0  0  0  0  0  0  0  0
   -1.4988   -2.4481   -1.3288 C   0  0  0  0  0  0  0  0  0  0  0  0
   -0.6986   -1.6827   -0.5072 C   0  0  0  0  0  0  0  0  0  0  0  0
    0.9655   -0.2084    1.5666 S   0  0  0  0  0  0  0  0  0  0  0  0
    3.1739    0.7873    0.1063 H   0  0  0  0  0  0  0  0  0  0  0  0
    3.4796   -0.7649   -0.6651 H   0  0  0  0  0  0  0  0  0  0  0  0
    2.6603    0.5178   -1.5558 H   0  0  0  0  0  0  0  0  0  0  0  0
    1.9693   -1.3375   -2.5829 H   0  0  0  0  0  0  0  0  0  0  0  0
    0.5357   -2.6808   -4.0185 H   0  0  0  0  0  0  0  0  0  0  0  0
   -1.6995   -3.4158   -3.2398 H   0  0  0  0  0  0  0  0  0  0  0  0
   -2.4742   -2.7614   -0.9778 H   0  0  0  0  0  0  0  0  0  0  0  0
   -1.0689   -1.4003    0.4702 H   0  0  0  0  0  0  0  0  0  0  0  0
    1.8478    0.7580    1.8433 H   0  0  0  0  0  0  0  0  0  0  0  0
  1  2  1  0
  1 10  1  0
  1 11  1  0
  1 12  1  0
  2  3  1  0
  2  9  1  0
  3  4  2  0
  3  8  1  0
  4  5  1  0
  4 13  1  0
  5  6  2  0
  5 14  1  0
  6  7  1  0
  6 15  1  0
  7  8  2  0
  7 16  1  0
  8 17  1  0
  9 18  1  0
M  RAD  1   2   2
M  END
>  <reaction>  (2) 
rxn_1857

>  <mol_properties>  (2) 
{"1": {"label": "acceptor", "atom_type": "Cs"}}

>  <type>  (2) 
r2

$$$$

     RDKit          3D

 19 19  0  0  0  0  0  0  0  0999 V2000
    2.2396    0.0552    0.8759 C   0  0  0  0  0  0  0  0  0  0  0  0
    1.4030   -0.9182    0.0491 C   0  0  0  0  0  0  0  0  0  0  0  0
    1.9465   -1.1096   -1.3460 C   0  0  0  0  0  0  0  0  0  0  0  0
    3.2062   -1.6607   -1.5671 C   0  0  0  0  0  0  0  0  0  0  0  0
    3.7015   -1.7950   -2.8519 C   0  0  0  0  0  0  0  0  0  0  0  0
    2.9436   -1.3845   -3.9410 C   0  0  0  0  0  0  0  0  0  0  0  0
    1.6880   -0.8403   -3.7327 C   0  0  0  0  0  0  0  0  0  0  0  0
    1.1950   -0.7046   -2.4420 C   0  0  0  0  0  0  0  0  0  0  0  0
    1.2970   -2.4864    0.9925 S   0  0  0  0  0  0  0  0  0  0  0  0
    2.2863    1.0196    0.3684 H   0  0  0  0  0  0  0  0  0  0  0  0
    1.8023    0.2034    1.8644 H   0  0  0  0  0  0  0  0  0  0  0  0
    3.2592   -0.3118    1.0018 H   0  0  0  0  0  0  0  0  0  0  0  0
    0.3897   -0.5237   -0.0274 H   0  0  0  0  0  0  0  0  0  0  0  0
    3.7943   -2.0027   -0.7240 H   0  0  0  0  0  0  0  0  0  0  0  0
    4.6828   -2.2258   -3.0068 H   0  0  0  0  0  0  0  0  0  0  0  0
    3.3313   -1.4930   -4.9459 H   0  0  0  0  0  0  0  0  0  0  0  0
    1.0868   -0.5204   -4.5746 H   0  0  0  0  0  0  0  0  0  0  0  0
    0.2111   -0.2764   -2.2859 H   0  0  0  0  0  0  0  0  0  0  0  0
    0.6371   -3.1863    0.0608 H   0  0  0  0  0  0  0  0  0  0  0  0
  1  2  1  0
  1 10  1  0
  1 11  1  0
  1 12  1  0
  2  3  1  0
  2  9  1  0
  2 13  1  0
  3  4  2  0
  3  8  1  0
  4  5  1  0
  4 14  1  0
  5  6  2  0
  5 15  1  0
  6  7  1  0
  6 16  1  0
  7  8  2  0
  7 17  1  0
  8 18  1  0
  9 19  1  0
M  END
>  <reaction>  (3) 
rxn_1857

>  <mol_properties>  (3) 
{"1": {"label": "acceptor", "atom_type": "Cs"}, "18": {"label": "a_hydrogen", "atom_type": "H0"}}

>  <type>  (3) 
r2h

$$$$

     RDKit          3D

 24 23  0  0  0  0  0  0  0  0999 V2000
    1.7209    0.7509    1.6121 C   0  0  0  0  0  0  0  0  0  0  0  0
    0.8621    0.4139    0.4135 C   0  0  0  0  0  0  0  0  0  0  0  0
   -0.6134    0.3353    0.6286 C   0  0  0  0  0  0  0  0  0  0  0  0
   -1.2228    0.8431    1.7731 C   0  0  0  0  0  0  0  0  0  0  0  0
   -2.5933    0.7308    1.9573 C   0  0  0  0  0  0  0  0  0  0  0  0
   -3.3785    0.1021    1.0056 C   0  0  0  0  0  0  0  0  0  0  0  0
   -2.7820   -0.4187   -0.1343 C   0  0  0  0  0  0  0  0  0  0  0  0
   -1.4159   -0.3043   -0.3187 C   0  0  0  0  0  0  0  0  0  0  0  0
    1.3917    1.4140   -0.9881 S   0  0  0  0  0  0  0  0  0  0  0  0
    2.7782    0.6455    1.3629 H   0  0  0  0  0  0  0  0  0  0  0  0
    1.5625    1.7753    1.9590 H   0  0  0  0  0  0  0  0  0  0  0  0
    1.4977    0.0708    2.4358 H   0  0  0  0  0  0  0  0  0  0  0  0
   -0.6293    1.3402    2.5290 H   0  0  0  0  0  0  0  0  0  0  0  0
   -3.0474    1.1396    2.8514 H   0  0  0  0  0  0  0  0  0  0  0  0
   -4.4476    0.0139    1.1512 H   0  0  0  0  0  0  0  0  0  0  0  0
   -3.3835   -0.9223   -0.8807 H   0  0  0  0  0  0  0  0  0  0  0  0
   -0.9575   -0.7325   -1.2037 H   0  0  0  0  0  0  0  0  0  0  0  0
    0.4119    1.0715   -1.8329 H   0  0  0  0  0  0  0  0  0  0  0  0
    1.6527   -2.0887   -0.2228 C   0  0  0  0  0  3  0  0  0  0  0  0
    1.5172   -2.3222   -1.9636 S   0  0  0  0  0  0  0  0  0  0  0  0
    1.2171   -0.7960    0.1004 H   0  0  0  0  0  0  0  0  0  0  0  0
    0.9613   -2.7421    0.3022 H   0  0  0  0  0  0  0  0  0  0  0  0
    2.6644   -2.1288    0.1719 H   0  0  0  0  0  0  0  0  0  0  0  0
    2.4222   -1.4034   -2.3274 H   0  0  0  0  0  0  0  0  0  0  0  0
  1  2  1  0
  1 10  1  0
  1 11  1  0
  1 12  1  0
  2  3  1  0
  2  9  1  0
  2 21  1  0
  3  4  2  0
  3  8  1  0
  4  5  1  0
  4 13  1  0
  5  6  2  0
  5 14  1  0
  6  7  1  0
  6 15  1  0
  7  8  2  0
  7 16  1  0
  8 17  1  0
  9 18  1  0
 19 20  1  0
 19 22  1  0
 19 23  1  0
 20 24  1  0
M  RAD  1  19   2
M  END
>  <reaction>  (4) 
rxn_1857

>  <mol_properties>  (4) 
{"1": {"label": "*1", "atom_type": "Cs"}, "2": {"label": "*0", "atom_type": "Cd"}, "18": {"label": "*3", "atom_type": "Cs"}, "19": {"label": "*4", "atom_type": "S2s"}, "20": {"label": "*2", "atom_type": "H0"}}

>  <type>  (4) 
ts

$$$$

     RDKit          3D

 24 23  0  0  0  0  0  0  0  0999 V2000
   -1.8255   -0.0945    1.5645 C   0  0  0  0  0  0  0  0  0  0  0  0
   -0.5713   -0.2807    0.7140 C   0  0  0  0  0  3  0  0  0  0  0  0
    0.0066    1.0301    0.2385 C   0  0  0  0  0  0  0  0  0  0  0  0
    0.4888    1.9808    1.1348 C   0  0  0  0  0  0  0  0  0  0  0  0
    0.9818    3.1913    0.6813 C   0  0  0  0  0  0  0  0  0  0  0  0
    1.0062    3.4721   -0.6787 C   0  0  0  0  0  0  0  0  0  0  0  0
    0.5344    2.5320   -1.5785 C   0  0  0  0  0  0  0  0  0  0  0  0
    0.0378    1.3193   -1.1199 C   0  0  0  0  0  0  0  0  0  0  0  0
    0.6180   -1.2658    1.7017 S   0  0  0  0  0  0  0  0  0  0  0  0
   -2.2424   -1.0580    1.8612 H   0  0  0  0  0  0  0  0  0  0  0  0
   -1.6069    0.4788    2.4666 H   0  0  0  0  0  0  0  0  0  0  0  0
   -2.5785    0.4484    0.9916 H   0  0  0  0  0  0  0  0  0  0  0  0
    0.4926    1.7603    2.1955 H   0  0  0  0  0  0  0  0  0  0  0  0
    1.3534    3.9197    1.3912 H   0  0  0  0  0  0  0  0  0  0  0  0
    1.3952    4.4185   -1.0322 H   0  0  0  0  0  0  0  0  0  0  0  0
    0.5520    2.7387   -2.6413 H   0  0  0  0  0  0  0  0  0  0  0  0
   -0.3313    0.5879   -1.8301 H   0  0  0  0  0  0  0  0  0  0  0  0
    1.6322   -1.2093    0.8289 H   0  0  0  0  0  0  0  0  0  0  0  0
   -0.5713   -2.7147   -0.2385 C   0  0  0  0  0  0  0  0  0  0  0  0
   -0.5713   -2.7147   -2.0491 S   0  0  0  0  0  0  0  0  0  0  0  0
   -0.5713   -1.4988    0.2373 H   0  0  0  0  0  0  0  0  0  0  0  0
   -1.4919   -3.2088    0.0675 H   0  0  0  0  0  0  0  0  0  0  0  0
    0.2731   -3.2747    0.1580 H   0  0  0  0  0  0  0  0  0  0  0  0
    0.5990   -2.0865   -2.2155 H   0  0  0  0  0  0  0  0  0  0  0  0
  1  2  1  0
  1 10  1  0
  1 11  1  0
  1 12  1  0
  2  3  1  0
  2  9  1  0
  3  4  2  0
  3  8  1  0
  4  5  1  0
  4 13  1  0
  5  6  2  0
  5 14  1  0
  6  7  1  0
  6 15  1  0
  7  8  2  0
  7 16  1  0
  8 17  1  0
  9 18  1  0
 19 20  1  0
 19 21  1  0
 19 22  1  0
 19 23  1  0
 20 24  1  0
M  RAD  1   2   2
M  END
>  <reaction>  (5) 
rxn_1857

>  <mol_properties>  (5) 
{"1": {"label": "*1", "atom_type": "Cs"}, "2": {"label": "*0", "atom_type": "Cd"}, "18": {"label": "*3", "atom_type": "Cs"}, "19": {"label": "*4", "atom_type": "S2s"}, "20": {"label": "*2", "atom_type": "H0"}}

>  <type>  (5) 
unop_1

>  <geom_source>  (5) 
Heuristics

$$$$

     RDKit          3D

 24 23  0  0  0  0  0  0  0  0999 V2000
   -1.4726    1.0252   -1.0239 C   0  0  0  0  0  0  0  0  0  0  0  0
   -0.7485    0.1181   -0.0320 C   0  0  0  0  0  3  0  0  0  0  0  0
    0.4951    0.7569    0.5367 C   0  0  0  0  0  0  0  0  0  0  0  0
    0.4311    1.9160    1.3062 C   0  0  0  0  0  0  0  0  0  0  0  0
    1.5854    2.5066    1.7888 C   0  0  0  0  0  0  0  0  0  0  0  0
    2.8262    1.9461    1.5145 C   0  0  0  0  0  0  0  0  0  0  0  0
    2.9008    0.7911    0.7551 C   0  0  0  0  0  0  0  0  0  0  0  0
    1.7407    0.2024    0.2702 C   0  0  0  0  0  0  0  0  0  0  0  0
   -1.9592   -0.3562    1.2601 S   0  0  0  0  0  0  0  0  0  0  0  0
   -2.3441    0.5237   -1.4470 H   0  0  0  0  0  0  0  0  0  0  0  0
   -1.8049    1.9466   -0.5434 H   0  0  0  0  0  0  0  0  0  0  0  0
   -0.7961    1.2914   -1.8371 H   0  0  0  0  0  0  0  0  0  0  0  0
   -0.5344    2.3470    1.5421 H   0  0  0  0  0  0  0  0  0  0  0  0
    1.5184    3.4074    2.3860 H   0  0  0  0  0  0  0  0  0  0  0  0
    3.7283    2.4077    1.8954 H   0  0  0  0  0  0  0  0  0  0  0  0
    3.8624    0.3433    0.5383 H   0  0  0  0  0  0  0  0  0  0  0  0
    1.8063   -0.7015   -0.3250 H   0  0  0  0  0  0  0  0  0  0  0  0
   -1.1032   -1.0317    2.0375 H   0  0  0  0  0  0  0  0  0  0  0  0
   -0.7485   -2.3160   -0.9845 C   0  0  0  0  0  0  0  0  0  0  0  0
   -0.7485   -2.3160   -2.7952 S   0  0  0  0  0  0  0  0  0  0  0  0
   -0.7485   -1.1001   -0.5088 H   0  0  0  0  0  0  0  0  0  0  0  0
   -1.6691   -2.8101   -0.6786 H   0  0  0  0  0  0  0  0  0  0  0  0
    0.0959   -2.8760   -0.5880 H   0  0  0  0  0  0  0  0  0  0  0  0
    0.4219   -1.6878   -2.9616 H   0  0  0  0  0  0  0  0  0  0  0  0
  1  2  1  0
  1 10  1  0
  1 11  1  0
  1 12  1  0
  2  3  1  0
  2  9  1  0
  3  4  2  0
  3  8  1  0
  4  5  1  0
  4 13  1  0
  5  6  2  0
  5 14  1  0
  6  7  1  0
  6 15  1  0
  7  8  2  0
  7 16  1  0
  8 17  1  0
  9 18  1  0
 19 20  1  0
 19 21  1  0
 19 22  1  0
 19 23  1  0
 20 24  1  0
M  RAD  1   2   2
M  END
>  <reaction>  (6) 
rxn_1857

>  <mol_properties>  (6) 
{"1": {"label": "*1", "atom_type": "Cs"}, "2": {"label": "*0", "atom_type": "Cd"}, "18": {"label": "*3", "atom_type": "Cs"}, "19": {"label": "*4", "atom_type": "S2s"}, "20": {"label": "*2", "atom_type": "H0"}}

>  <type>  (6) 
unop_2

>  <geom_source>  (6) 
Heuristics

$$$$

     RDKit          3D

 24 23  0  0  0  0  0  0  0  0999 V2000
   -0.8134   -0.3595    2.3549 C   0  0  0  0  0  0  0  0  0  0  0  0
   -0.0893   -0.3525    1.0108 C   0  0  0  0  0  3  0  0  0  0  0  0
   -0.2807    0.9404    0.2559 C   0  0  0  0  0  0  0  0  0  0  0  0
    0.1822    2.1532    0.7604 C   0  0  0  0  0  0  0  0  0  0  0  0
   -0.0345    3.3326    0.0705 C   0  0  0  0  0  0  0  0  0  0  0  0
   -0.7147    3.3207   -1.1403 C   0  0  0  0  0  0  0  0  0  0  0  0
   -1.1743    2.1200   -1.6535 C   0  0  0  0  0  0  0  0  0  0  0  0
   -0.9574    0.9386   -0.9573 C   0  0  0  0  0  0  0  0  0  0  0  0
    1.6743   -0.7310    1.3377 S   0  0  0  0  0  0  0  0  0  0  0  0
   -0.6896   -1.3186    2.8599 H   0  0  0  0  0  0  0  0  0  0  0  0
   -0.4337    0.4261    3.0098 H   0  0  0  0  0  0  0  0  0  0  0  0
   -1.8785   -0.1847    2.1974 H   0  0  0  0  0  0  0  0  0  0  0  0
    0.7320    2.1675    1.6938 H   0  0  0  0  0  0  0  0  0  0  0  0
    0.3322    4.2672    0.4763 H   0  0  0  0  0  0  0  0  0  0  0  0
   -0.8807    4.2440   -1.6806 H   0  0  0  0  0  0  0  0  0  0  0  0
   -1.7025    2.0984   -2.5985 H   0  0  0  0  0  0  0  0  0  0  0  0
   -1.3211    0.0017   -1.3644 H   0  0  0  0  0  0  0  0  0  0  0  0
    2.1055   -0.5700    0.0801 H   0  0  0  0  0  0  0  0  0  0  0  0
   -0.0893   -2.7866    0.0583 C   0  0  0  0  0  0  0  0  0  0  0  0
   -0.0893   -2.7866   -1.7523 S   0  0  0  0  0  0  0  0  0  0  0  0
   -0.0893   -1.5707    0.5341 H   0  0  0  0  0  0  0  0  0  0  0  0
   -1.0099   -3.2807    0.3643 H   0  0  0  0  0  0  0  0  0  0  0  0
    0.7551   -3.3466    0.4548 H   0  0  0  0  0  0  0  0  0  0  0  0
    1.0810   -2.1584   -1.9187 H   0  0  0  0  0  0  0  0  0  0  0  0
  1  2  1  0
  1 10  1  0
  1 11  1  0
  1 12  1  0
  2  3  1  0
  2  9  1  0
  3  4  2  0
  3  8  1  0
  4  5  1  0
  4 13  1  0
  5  6  2  0
  5 14  1  0
  6  7  1  0
  6 15  1  0
  7  8  2  0
  7 16  1  0
  8 17  1  0
  9 18  1  0
 19 20  1  0
 19 21  1  0
 19 22  1  0
 19 23  1  0
 20 24  1  0
M  RAD  1   2   2
M  END
>  <reaction>  (7) 
rxn_1857

>  <mol_properties>  (7) 
{"1": {"label": "*1", "atom_type": "Cs"}, "2": {"label": "*0", "atom_type": "Cd"}, "18": {"label": "*3", "atom_type": "Cs"}, "19": {"label": "*4", "atom_type": "S2s"}, "20": {"label": "*2", "atom_type": "H0"}}

>  <type>  (7) 
unop_3

>  <geom_source>  (7) 
Heuristics

$$$$

     RDKit          3D

 24 23  0  0  0  0  0  0  0  0999 V2000
    1.1829    1.6757   -0.9585 C   0  0  0  0  0  0  0  0  0  0  0  0
   -0.0714    0.9617   -0.4603 C   0  0  0  0  0  3  0  0  0  0  0  0
    0.1609    0.2149    0.8306 C   0  0  0  0  0  0  0  0  0  0  0  0
    0.5148    0.8792    2.0023 C   0  0  0  0  0  0  0  0  0  0  0  0
    0.7584    0.1734    3.1671 C   0  0  0  0  0  0  0  0  0  0  0  0
    0.6479   -1.2109    3.1830 C   0  0  0  0  0  0  0  0  0  0  0  0
    0.2914   -1.8808    2.0252 C   0  0  0  0  0  0  0  0  0  0  0  0
    0.0503   -1.1697    0.8575 C   0  0  0  0  0  0  0  0  0  0  0  0
   -1.3992    2.2184   -0.3261 S   0  0  0  0  0  0  0  0  0  0  0  0
    0.9960    2.1739   -1.9109 H   0  0  0  0  0  0  0  0  0  0  0  0
    1.5214    2.4231   -0.2394 H   0  0  0  0  0  0  0  0  0  0  0  0
    1.9857    0.9504   -1.0974 H   0  0  0  0  0  0  0  0  0  0  0  0
    0.5822    1.9605    2.0028 H   0  0  0  0  0  0  0  0  0  0  0  0
    1.0323    0.7051    4.0698 H   0  0  0  0  0  0  0  0  0  0  0  0
    0.8358   -1.7616    4.0959 H   0  0  0  0  0  0  0  0  0  0  0  0
    0.1986   -2.9596    2.0270 H   0  0  0  0  0  0  0  0  0  0  0  0
   -0.2274   -1.7007   -0.0462 H   0  0  0  0  0  0  0  0  0  0  0  0
   -2.3259    1.4118    0.2068 H   0  0  0  0  0  0  0  0  0  0  0  0
   -0.0714   -1.4723   -1.4128 C   0  0  0  0  0  0  0  0  0  0  0  0
   -0.0714   -1.4723   -3.2234 S   0  0  0  0  0  0  0  0  0  0  0  0
   -0.0714   -0.2564   -0.9370 H   0  0  0  0  0  0  0  0  0  0  0  0
   -0.9920   -1.9664   -1.1068 H   0  0  0  0  0  0  0  0  0  0  0  0
    0.7730   -2.0323   -1.0163 H   0  0  0  0  0  0  0  0  0  0  0  0
    1.0990   -0.8441   -3.3898 H   0  0  0  0  0  0  0  0  0  0  0  0
  1  2  1  0
  1 10  1  0
  1 11  1  0
  1 12  1  0
  2  3  1  0
  2  9  1  0
  3  4  2  0
  3  8  1  0
  4  5  1  0
  4 13  1  0
  5  6  2  0
  5 14  1  0
  6  7  1  0
  6 15  1  0
  7  8  2  0
  7 16  1  0
  8 17  1  0
  9 18  1  0
 19 20  1  0
 19 21  1  0
 19 22  1  0
 19 23  1  0
 20 24  1  0
M  RAD  1   2   2
M  END
>  <reaction>  (8) 
rxn_1857

>  <mol_properties>  (8) 
{"1": {"label": "*1", "atom_type": "Cs"}, "2": {"label": "*0", "atom_type": "Cd"}, "18": {"label": "*3", "atom_type": "Cs"}, "19": {"label": "*4", "atom_type": "S2s"}, "20": {"label": "*2", "atom_type": "H0"}}

>  <type>  (8) 
unop_4

>  <geom_source>  (8) 
Heuristics

$$$$

     RDKit          3D

 24 23  0  0  0  0  0  0  0  0999 V2000
    0.7032   -0.1590    2.4907 C   0  0  0  0  0  0  0  0  0  0  0  0
    0.7032   -0.0813    0.9658 C   0  0  0  0  0  3  0  0  0  0  0  0
   -0.5042    0.6431    0.4223 C   0  0  0  0  0  0  0  0  0  0  0  0
   -0.7383    1.9855    0.7101 C   0  0  0  0  0  0  0  0  0  0  0  0
   -1.8695    2.6224    0.2318 C   0  0  0  0  0  0  0  0  0  0  0  0
   -2.7865    1.9293   -0.5478 C   0  0  0  0  0  0  0  0  0  0  0  0
   -2.5608    0.5961   -0.8443 C   0  0  0  0  0  0  0  0  0  0  0  0
   -1.4259   -0.0407   -0.3606 C   0  0  0  0  0  0  0  0  0  0  0  0
    2.2854    0.6924    0.4576 S   0  0  0  0  0  0  0  0  0  0  0  0
    1.5657   -0.7203    2.8528 H   0  0  0  0  0  0  0  0  0  0  0  0
    0.7293    0.8372    2.9348 H   0  0  0  0  0  0  0  0  0  0  0  0
   -0.2045   -0.6588    2.8313 H   0  0  0  0  0  0  0  0  0  0  0  0
   -0.0168    2.5382    1.2998 H   0  0  0  0  0  0  0  0  0  0  0  0
   -2.0366    3.6667    0.4643 H   0  0  0  0  0  0  0  0  0  0  0  0
   -3.6696    2.4299   -0.9239 H   0  0  0  0  0  0  0  0  0  0  0  0
   -3.2670    0.0470   -1.4543 H   0  0  0  0  0  0  0  0  0  0  0  0
   -1.2559   -1.0854   -0.5956 H   0  0  0  0  0  0  0  0  0  0  0  0
    2.0191    0.7486   -0.8536 H   0  0  0  0  0  0  0  0  0  0  0  0
    0.7032   -2.5153    0.0134 C   0  0  0  0  0  0  0  0  0  0  0  0
    0.7032   -2.5153   -1.7973 S   0  0  0  0  0  0  0  0  0  0  0  0
    0.7032   -1.2995    0.4891 H   0  0  0  0  0  0  0  0  0  0  0  0
   -0.2175   -3.0095    0.3193 H   0  0  0  0  0  0  0  0  0  0  0  0
    1.5476   -3.0753    0.4098 H   0  0  0  0  0  0  0  0  0  0  0  0
    1.8735   -1.8872   -1.9637 H   0  0  0  0  0  0  0  0  0  0  0  0
  1  2  1  0
  1 10  1  0
  1 11  1  0
  1 12  1  0
  2  3  1  0
  2  9  1  0
  3  4  2  0
  3  8  1  0
  4  5  1  0
  4 13  1  0
  5  6  2  0
  5 14  1  0
  6  7  1  0
  6 15  1  0
  7  8  2  0
  7 16  1  0
  8 17  1  0
  9 18  1  0
 19 20  1  0
 19 21  1  0
 19 22  1  0
 19 23  1  0
 20 24  1  0
M  RAD  1   2   2
M  END
>  <reaction>  (9) 
rxn_1857

>  <mol_properties>  (9) 
{"1": {"label": "*1", "atom_type": "Cs"}, "2": {"label": "*0", "atom_type": "Cd"}, "18": {"label": "*3", "atom_type": "Cs"}, "19": {"label": "*4", "atom_type": "S2s"}, "20": {"label": "*2", "atom_type": "H0"}}

>  <type>  (9) 
unop_5

>  <geom_source>  (9) 
Heuristics

$$$$

     RDKit          3D

 24 23  0  0  0  0  0  0  0  0999 V2000
    1.8854    1.4849   -0.1560 C   0  0  0  0  0  0  0  0  0  0  0  0
    0.4371    1.0348   -0.3321 C   0  0  0  0  0  3  0  0  0  0  0  0
   -0.0444    0.1715    0.8085 C   0  0  0  0  0  0  0  0  0  0  0  0
   -0.1242    0.6622    2.1094 C   0  0  0  0  0  0  0  0  0  0  0  0
   -0.5340   -0.1553    3.1476 C   0  0  0  0  0  0  0  0  0  0  0  0
   -0.8766   -1.4788    2.9032 C   0  0  0  0  0  0  0  0  0  0  0  0
   -0.8061   -1.9753    1.6129 C   0  0  0  0  0  0  0  0  0  0  0  0
   -0.3919   -1.1529    0.5739 C   0  0  0  0  0  0  0  0  0  0  0  0
   -0.5801    2.5424   -0.5618 S   0  0  0  0  0  0  0  0  0  0  0  0
    2.2179    2.0738   -1.0120 H   0  0  0  0  0  0  0  0  0  0  0  0
    2.0021    2.0897    0.7445 H   0  0  0  0  0  0  0  0  0  0  0  0
    2.5313    0.6108   -0.0637 H   0  0  0  0  0  0  0  0  0  0  0  0
    0.1211    1.6994    2.3042 H   0  0  0  0  0  0  0  0  0  0  0  0
   -0.5910    0.2418    4.1534 H   0  0  0  0  0  0  0  0  0  0  0  0
   -1.2001   -2.1164    3.7160 H   0  0  0  0  0  0  0  0  0  0  0  0
   -1.0744   -3.0045    1.4101 H   0  0  0  0  0  0  0  0  0  0  0  0
   -0.3378   -1.5485   -0.4342 H   0  0  0  0  0  0  0  0  0  0  0  0
   -1.7694    1.9275   -0.5869 H   0  0  0  0  0  0  0  0  0  0  0  0
    0.4371   -1.3992   -1.2846 C   0  0  0  0  0  0  0  0  0  0  0  0
    0.4371   -1.3992   -3.0952 S   0  0  0  0  0  0  0  0  0  0  0  0
    0.4371   -0.1834   -0.8088 H   0  0  0  0  0  0  0  0  0  0  0  0
   -0.4835   -1.8933   -0.9786 H   0  0  0  0  0  0  0  0  0  0  0  0
    1.2815   -1.9592   -0.8881 H   0  0  0  0  0  0  0  0  0  0  0  0
    1.6075   -0.7711   -3.2616 H   0  0  0  0  0  0  0  0  0  0  0  0
  1  2  1  0
  1 10  1  0
  1 11  1  0
  1 12  1  0
  2  3  1  0
  2  9  1  0
  3  4  2  0
  3  8  1  0
  4  5  1  0
  4 13  1  0
  5  6  2  0
  5 14  1  0
  6  7  1  0
  6 15  1  0
  7  8  2  0
  7 16  1  0
  8 17  1  0
  9 18  1  0
 19 20  1  0
 19 21  1  0
 19 22  1  0
 19 23  1  0
 20 24  1  0
M  RAD  1   2   2
M  END
>  <reaction>  (10) 
rxn_1857

>  <mol_properties>  (10) 
{"1": {"label": "*1", "atom_type": "Cs"}, "2": {"label": "*0", "atom_type": "Cd"}, "18": {"label": "*3", "atom_type": "Cs"}, "19": {"label": "*4", "atom_type": "S2s"}, "20": {"label": "*2", "atom_type": "H0"}}

>  <type>  (10) 
unop_6

>  <geom_source>  (10) 
Heuristics

$$$$

     RDKit          3D

 24 23  0  0  0  0  0  0  0  0999 V2000
    2.1245    1.0888    0.8469 C   0  0  0  0  0  0  0  0  0  0  0  0
    0.8702    0.9026   -0.0035 C   0  0  0  0  0  3  0  0  0  0  0  0
   -0.2369    0.1987    0.7427 C   0  0  0  0  0  0  0  0  0  0  0  0
   -0.8217    0.7589    1.8757 C   0  0  0  0  0  0  0  0  0  0  0  0
   -1.8107    0.0819    2.5668 C   0  0  0  0  0  0  0  0  0  0  0  0
   -2.2370   -1.1673    2.1347 C   0  0  0  0  0  0  0  0  0  0  0  0
   -1.6663   -1.7309    1.0065 C   0  0  0  0  0  0  0  0  0  0  0  0
   -0.6722   -1.0499    0.3168 C   0  0  0  0  0  0  0  0  0  0  0  0
    0.3746    2.5575   -0.6168 S   0  0  0  0  0  0  0  0  0  0  0  0
    2.9195    1.5645    0.2709 H   0  0  0  0  0  0  0  0  0  0  0  0
    1.9173    1.7056    1.7227 H   0  0  0  0  0  0  0  0  0  0  0  0
    2.4795    0.1171    1.1925 H   0  0  0  0  0  0  0  0  0  0  0  0
   -0.5092    1.7421    2.2065 H   0  0  0  0  0  0  0  0  0  0  0  0
   -2.2555    0.5315    3.4458 H   0  0  0  0  0  0  0  0  0  0  0  0
   -3.0132   -1.6945    2.6747 H   0  0  0  0  0  0  0  0  0  0  0  0
   -1.9935   -2.7025    0.6583 H   0  0  0  0  0  0  0  0  0  0  0  0
   -0.2286   -1.4977   -0.5654 H   0  0  0  0  0  0  0  0  0  0  0  0
   -0.7564    2.1695   -1.2200 H   0  0  0  0  0  0  0  0  0  0  0  0
    0.8702   -1.5314   -0.9560 C   0  0  0  0  0  0  0  0  0  0  0  0
    0.8702   -1.5314   -2.7667 S   0  0  0  0  0  0  0  0  0  0  0  0
    0.8702   -0.3155   -0.4802 H   0  0  0  0  0  0  0  0  0  0  0  0
   -0.0504   -2.0255   -0.6501 H   0  0  0  0  0  0  0  0  0  0  0  0
    1.7146   -2.0914   -0.5595 H   0  0  0  0  0  0  0  0  0  0  0  0
    2.0406   -0.9032   -2.9331 H   0  0  0  0  0  0  0  0  0  0  0  0
  1  2  1  0
  1 10  1  0
  1 11  1  0
  1 12  1  0
  2  3  1  0
  2  9  1  0
  3  4  2  0
  3  8  1  0
  4  5  1  0
  4 13  1  0
  5  6  2  0
  5 14  1  0
  6  7  1  0
  6 15  1  0
  7  8  2  0
  7 16  1  0
  8 17  1  0
  9 18  1  0
 19 20  1  0
 19 21  1  0
 19 22  1  0
 19 23  1  0
 20 24  1  0
M  RAD  1   2   2
M  END
>  <reaction>  (11) 
rxn_1857

>  <mol_properties>  (11) 
{"1": {"label": "*1", "atom_type": "Cs"}, "2": {"label": "*0", "atom_type": "Cd"}, "18": {"label": "*3", "atom_type": "Cs"}, "19": {"label": "*4", "atom_type": "S2s"}, "20": {"label": "*2", "atom_type": "H0"}}

>  <type>  (11) 
unop_7

>  <geom_source>  (11) 
Heuristics

$$$$

     RDKit          3D

 24 23  0  0  0  0  0  0  0  0999 V2000
   -2.1791    0.2963    0.5648 C   0  0  0  0  0  0  0  0  0  0  0  0
   -0.7308   -0.1538    0.3887 C   0  0  0  0  0  3  0  0  0  0  0  0
    0.2305    1.0067    0.3021 C   0  0  0  0  0  0  0  0  0  0  0  0
    0.4032    1.8896    1.3651 C   0  0  0  0  0  0  0  0  0  0  0  0
    1.2625    2.9682    1.2536 C   0  0  0  0  0  0  0  0  0  0  0  0
    1.9693    3.1815    0.0772 C   0  0  0  0  0  0  0  0  0  0  0  0
    1.8091    2.3068   -0.9837 C   0  0  0  0  0  0  0  0  0  0  0  0
    0.9441    1.2270   -0.8693 C   0  0  0  0  0  0  0  0  0  0  0  0
   -0.3421   -1.2981    1.7671 S   0  0  0  0  0  0  0  0  0  0  0  0
   -2.8542   -0.5604    0.5854 H   0  0  0  0  0  0  0  0  0  0  0  0
   -2.3061    0.8574    1.4918 H   0  0  0  0  0  0  0  0  0  0  0  0
   -2.4643    0.9436   -0.2655 H   0  0  0  0  0  0  0  0  0  0  0  0
   -0.1287    1.7176    2.2932 H   0  0  0  0  0  0  0  0  0  0  0  0
    1.3858    3.6452    2.0896 H   0  0  0  0  0  0  0  0  0  0  0  0
    2.6437    4.0241   -0.0075 H   0  0  0  0  0  0  0  0  0  0  0  0
    2.3580    2.4612   -1.9043 H   0  0  0  0  0  0  0  0  0  0  0  0
    0.8224    0.5464   -1.7046 H   0  0  0  0  0  0  0  0  0  0  0  0
    0.9530   -1.4666    1.4713 H   0  0  0  0  0  0  0  0  0  0  0  0
   -0.7308   -2.5878   -0.5638 C   0  0  0  0  0  0  0  0  0  0  0  0
   -0.7308   -2.5878   -2.3744 S   0  0  0  0  0  0  0  0  0  0  0  0
   -0.7308   -1.3720   -0.0880 H   0  0  0  0  0  0  0  0  0  0  0  0
   -1.6515   -3.0820   -0.2578 H   0  0  0  0  0  0  0  0  0  0  0  0
    0.1136   -3.1478   -0.1673 H   0  0  0  0  0  0  0  0  0  0  0  0
    0.4395   -1.9597   -2.5408 H   0  0  0  0  0  0  0  0  0  0  0  0
  1  2  1  0
  1 10  1  0
  1 11  1  0
  1 12  1  0
  2  3  1  0
  2  9  1  0
  3  4  2  0
  3  8  1  0
  4  5  1  0
  4 13  1  0
  5  6  2  0
  5 14  1  0
  6  7  1  0
  6 15  1  0
  7  8  2  0
  7 16  1  0
  8 17  1  0
  9 18  1  0
 19 20  1  0
 19 21  1  0
 19 22  1  0
 19 23  1  0
 20 24  1  0
M  RAD  1   2   2
M  END
>  <reaction>  (12) 
rxn_1857

>  <mol_properties>  (12) 
{"1": {"label": "*1", "atom_type": "Cs"}, "2": {"label": "*0", "atom_type": "Cd"}, "18": {"label": "*3", "atom_type": "Cs"}, "19": {"label": "*4", "atom_type": "S2s"}, "20": {"label": "*2", "atom_type": "H0"}}

>  <type>  (12) 
unop_8

>  <geom_source>  (12) 
Heuristics

$$$$

     RDKit          3D

 24 23  0  0  0  0  0  0  0  0999 V2000
    0.2239    1.6189   -1.3839 C   0  0  0  0  0  0  0  0  0  0  0  0
   -0.5003    0.7117   -0.3920 C   0  0  0  0  0  3  0  0  0  0  0  0
    0.3620    0.3398    0.7897 C   0  0  0  0  0  0  0  0  0  0  0  0
    0.8341    1.3029    1.6780 C   0  0  0  0  0  0  0  0  0  0  0  0
    1.6527    0.9466    2.7348 C   0  0  0  0  0  0  0  0  0  0  0  0
    2.0111   -0.3815    2.9260 C   0  0  0  0  0  0  0  0  0  0  0  0
    1.5430   -1.3476    2.0521 C   0  0  0  0  0  0  0  0  0  0  0  0
    0.7238   -0.9862    0.9910 C   0  0  0  0  0  0  0  0  0  0  0  0
   -2.0489    1.5620    0.0969 S   0  0  0  0  0  0  0  0  0  0  0  0
   -0.4088    1.8394   -2.2449 H   0  0  0  0  0  0  0  0  0  0  0  0
    0.5107    2.5621   -0.9166 H   0  0  0  0  0  0  0  0  0  0  0  0
    1.1305    1.1252   -1.7363 H   0  0  0  0  0  0  0  0  0  0  0  0
    0.5415    2.3379    1.5476 H   0  0  0  0  0  0  0  0  0  0  0  0
    2.0111    1.7076    3.4168 H   0  0  0  0  0  0  0  0  0  0  0  0
    2.6492   -0.6593    3.7552 H   0  0  0  0  0  0  0  0  0  0  0  0
    1.8129   -2.3866    2.1937 H   0  0  0  0  0  0  0  0  0  0  0  0
    0.3616   -1.7479    0.3095 H   0  0  0  0  0  0  0  0  0  0  0  0
   -2.4404    0.6635    1.0095 H   0  0  0  0  0  0  0  0  0  0  0  0
   -0.5003   -1.7223   -1.3445 C   0  0  0  0  0  0  0  0  0  0  0  0
   -0.5003   -1.7223   -3.1552 S   0  0  0  0  0  0  0  0  0  0  0  0
   -0.5003   -0.5065   -0.8687 H   0  0  0  0  0  0  0  0  0  0  0  0
   -1.4209   -2.2164   -1.0386 H   0  0  0  0  0  0  0  0  0  0  0  0
    0.3441   -2.2823   -0.9480 H   0  0  0  0  0  0  0  0  0  0  0  0
    0.6700   -1.0942   -3.3216 H   0  0  0  0  0  0  0  0  0  0  0  0
  1  2  1  0
  1 10  1  0
  1 11  1  0
  1 12  1  0
  2  3  1  0
  2  9  1  0
  3  4  2  0
  3  8  1  0
  4  5  1  0
  4 13  1  0
  5  6  2  0
  5 14  1  0
  6  7  1  0
  6 15  1  0
  7  8  2  0
  7 16  1  0
  8 17  1  0
  9 18  1  0
 19 20  1  0
 19 21  1  0
 19 22  1  0
 19 23  1  0
 20 24  1  0
M  RAD  1   2   2
M  END
>  <reaction>  (13) 
rxn_1857

>  <mol_properties>  (13) 
{"1": {"label": "*1", "atom_type": "Cs"}, "2": {"label": "*0", "atom_type": "Cd"}, "18": {"label": "*3", "atom_type": "Cs"}, "19": {"label": "*4", "atom_type": "S2s"}, "20": {"label": "*2", "atom_type": "H0"}}

>  <type>  (13) 
unop_9

>  <geom_source>  (13) 
Heuristics

$$$$

     RDKit          3D

 24 23  0  0  0  0  0  0  0  0999 V2000
   -2.0025    0.6788   -0.3540 C   0  0  0  0  0  0  0  0  0  0  0  0
   -0.7482   -0.0352    0.1442 C   0  0  0  0  0  3  0  0  0  0  0  0
    0.3947    0.9153    0.4058 C   0  0  0  0  0  0  0  0  0  0  0  0
    0.3072    1.9087    1.3780 C   0  0  0  0  0  0  0  0  0  0  0  0
    1.3520    2.7932    1.5784 C   0  0  0  0  0  0  0  0  0  0  0  0
    2.5068    2.6979    0.8127 C   0  0  0  0  0  0  0  0  0  0  0  0
    2.6063    1.7108   -0.1527 C   0  0  0  0  0  0  0  0  0  0  0  0
    1.5549    0.8265   -0.3530 C   0  0  0  0  0  0  0  0  0  0  0  0
   -1.2223   -1.0028    1.6273 S   0  0  0  0  0  0  0  0  0  0  0  0
   -2.7979   -0.0356   -0.5711 H   0  0  0  0  0  0  0  0  0  0  0  0
   -2.3706    1.3895    0.3874 H   0  0  0  0  0  0  0  0  0  0  0  0
   -1.7714    1.2296   -1.2667 H   0  0  0  0  0  0  0  0  0  0  0  0
   -0.5818    1.9758    1.9936 H   0  0  0  0  0  0  0  0  0  0  0  0
    1.2683    3.5597    2.3387 H   0  0  0  0  0  0  0  0  0  0  0  0
    3.3247    3.3888    0.9727 H   0  0  0  0  0  0  0  0  0  0  0  0
    3.5033    1.6248   -0.7530 H   0  0  0  0  0  0  0  0  0  0  0  0
    1.6390    0.0564   -1.1117 H   0  0  0  0  0  0  0  0  0  0  0  0
    0.0078   -1.4350    1.9330 H   0  0  0  0  0  0  0  0  0  0  0  0
   -0.7482   -2.4692   -0.8082 C   0  0  0  0  0  0  0  0  0  0  0  0
   -0.7482   -2.4692   -2.6189 S   0  0  0  0  0  0  0  0  0  0  0  0
   -0.7482   -1.2534   -0.3325 H   0  0  0  0  0  0  0  0  0  0  0  0
   -1.6689   -2.9634   -0.5023 H   0  0  0  0  0  0  0  0  0  0  0  0
    0.0962   -3.0292   -0.4118 H   0  0  0  0  0  0  0  0  0  0  0  0
    0.4221   -1.8411   -2.7853 H   0  0  0  0  0  0  0  0  0  0  0  0
  1  2  1  0
  1 10  1  0
  1 11  1  0
  1 12  1  0
  2  3  1  0
  2  9  1  0
  3  4  2  0
  3  8  1  0
  4  5  1  0
  4 13  1  0
  5  6  2  0
  5 14  1  0
  6  7  1  0
  6 15  1  0
  7  8  2  0
  7 16  1  0
  8 17  1  0
  9 18  1  0
 19 20  1  0
 19 21  1  0
 19 22  1  0
 19 23  1  0
 20 24  1  0
M  RAD  1   2   2
M  END
>  <reaction>  (14) 
rxn_1857

>  <mol_properties>  (14) 
{"1": {"label": "*1", "atom_type": "Cs"}, "2": {"label": "*0", "atom_type": "Cd"}, "18": {"label": "*3", "atom_type": "Cs"}, "19": {"label": "*4", "atom_type": "S2s"}, "20": {"label": "*2", "atom_type": "H0"}}

>  <type>  (14) 
unop_10

>  <geom_source>  (14) 
Heuristics

$$$$

     RDKit          3D

 24 23  0  0  0  0  0  0  0  0999 V2000
    1.7894    0.5107    1.8272 C   0  0  0  0  0  0  0  0  0  0  0  0
    1.0652    0.5177    0.4831 C   0  0  0  0  0  3  0  0  0  0  0  0
   -0.4254    0.3290    0.6267 C   0  0  0  0  0  0  0  0  0  0  0  0
   -1.2142    1.2546    1.3053 C   0  0  0  0  0  0  0  0  0  0  0  0
   -2.5734    1.0459    1.4572 C   0  0  0  0  0  0  0  0  0  0  0  0
   -3.1706   -0.0912    0.9286 C   0  0  0  0  0  0  0  0  0  0  0  0
   -2.3967   -1.0150    0.2476 C   0  0  0  0  0  0  0  0  0  0  0  0
   -1.0325   -0.8038    0.0993 C   0  0  0  0  0  0  0  0  0  0  0  0
    1.5057    2.0807   -0.3674 S   0  0  0  0  0  0  0  0  0  0  0  0
    2.8671    0.6100    1.6904 H   0  0  0  0  0  0  0  0  0  0  0  0
    1.4460    1.3283    2.4627 H   0  0  0  0  0  0  0  0  0  0  0  0
    1.5900   -0.4284    2.3451 H   0  0  0  0  0  0  0  0  0  0  0  0
   -0.7591    2.1542    1.7019 H   0  0  0  0  0  0  0  0  0  0  0  0
   -3.1728    1.7755    1.9873 H   0  0  0  0  0  0  0  0  0  0  0  0
   -4.2348   -0.2516    1.0456 H   0  0  0  0  0  0  0  0  0  0  0  0
   -2.8522   -1.9032   -0.1719 H   0  0  0  0  0  0  0  0  0  0  0  0
   -0.4319   -1.5320   -0.4343 H   0  0  0  0  0  0  0  0  0  0  0  0
    0.7034    1.9149   -1.4267 H   0  0  0  0  0  0  0  0  0  0  0  0
    1.0652   -1.9163   -0.4694 C   0  0  0  0  0  0  0  0  0  0  0  0
    1.0652   -1.9163   -2.2800 S   0  0  0  0  0  0  0  0  0  0  0  0
    1.0652   -0.7005    0.0064 H   0  0  0  0  0  0  0  0  0  0  0  0
    0.1446   -2.4105   -0.1634 H   0  0  0  0  0  0  0  0  0  0  0  0
    1.9096   -2.4763   -0.0729 H   0  0  0  0  0  0  0  0  0  0  0  0
    2.2356   -1.2882   -2.4464 H   0  0  0  0  0  0  0  0  0  0  0  0
  1  2  1  0
  1 10  1  0
  1 11  1  0
  1 12  1  0
  2  3  1  0
  2  9  1  0
  3  4  2  0
  3  8  1  0
  4  5  1  0
  4 13  1  0
  5  6  2  0
  5 14  1  0
  6  7  1  0
  6 15  1  0
  7  8  2  0
  7 16  1  0
  8 17  1  0
  9 18  1  0
 19 20  1  0
 19 21  1  0
 19 22  1  0
 19 23  1  0
 20 24  1  0
M  RAD  1   2   2
M  END
>  <reaction>  (15) 
rxn_1857

>  <mol_properties>  (15) 
{"1": {"label": "*1", "atom_type": "Cs"}, "2": {"label": "*0", "atom_type": "Cd"}, "18": {"label": "*3", "atom_type": "Cs"}, "19": {"label": "*4", "atom_type": "S2s"}, "20": {"label": "*2", "atom_type": "H0"}}

>  <type>  (15) 
unop_11

>  <geom_source>  (15) 
Heuristics

$$$$

     RDKit          3D

 24 23  0  0  0  0  0  0  0  0999 V2000
   -0.7151    1.3573   -1.3840 C   0  0  0  0  0  0  0  0  0  0  0  0
   -0.7151    0.3794   -0.2115 C   0  0  0  0  0  3  0  0  0  0  0  0
    0.4923    0.5425    0.6794 C   0  0  0  0  0  0  0  0  0  0  0  0
    0.7263    1.7236    1.3792 C   0  0  0  0  0  0  0  0  0  0  0  0
    1.8576    1.8668    2.1627 C   0  0  0  0  0  0  0  0  0  0  0  0
    2.7745    0.8287    2.2648 C   0  0  0  0  0  0  0  0  0  0  0  0
    2.5489   -0.3517    1.5777 C   0  0  0  0  0  0  0  0  0  0  0  0
    1.4140   -0.4910    0.7903 C   0  0  0  0  0  0  0  0  0  0  0  0
   -2.2973    0.6027    0.6870 S   0  0  0  0  0  0  0  0  0  0  0  0
   -1.5777    1.1908   -2.0309 H   0  0  0  0  0  0  0  0  0  0  0  0
   -0.7412    2.3903   -1.0341 H   0  0  0  0  0  0  0  0  0  0  0  0
    0.1926    1.2214   -1.9734 H   0  0  0  0  0  0  0  0  0  0  0  0
    0.0049    2.5298    1.3212 H   0  0  0  0  0  0  0  0  0  0  0  0
    2.0246    2.7916    2.7007 H   0  0  0  0  0  0  0  0  0  0  0  0
    3.6577    0.9410    2.8807 H   0  0  0  0  0  0  0  0  0  0  0  0
    3.2551   -1.1690    1.6530 H   0  0  0  0  0  0  0  0  0  0  0  0
    1.2440   -1.4178    0.2538 H   0  0  0  0  0  0  0  0  0  0  0  0
   -2.0310   -0.2460    1.6881 H   0  0  0  0  0  0  0  0  0  0  0  0
   -0.7151   -2.0546   -1.1639 C   0  0  0  0  0  0  0  0  0  0  0  0
   -0.7151   -2.0546   -2.9746 S   0  0  0  0  0  0  0  0  0  0  0  0
   -0.7151   -0.8388   -0.6882 H   0  0  0  0  0  0  0  0  0  0  0  0
   -1.6358   -2.5488   -0.8580 H   0  0  0  0  0  0  0  0  0  0  0  0
    0.1292   -2.6146   -0.7675 H   0  0  0  0  0  0  0  0  0  0  0  0
    0.4552   -1.4265   -3.1410 H   0  0  0  0  0  0  0  0  0  0  0  0
  1  2  1  0
  1 10  1  0
  1 11  1  0
  1 12  1  0
  2  3  1  0
  2  9  1  0
  3  4  2  0
  3  8  1  0
  4  5  1  0
  4 13  1  0
  5  6  2  0
  5 14  1  0
  6  7  1  0
  6 15  1  0
  7  8  2  0
  7 16  1  0
  8 17  1  0
  9 18  1  0
 19 20  1  0
 19 21  1  0
 19 22  1  0
 19 23  1  0
 20 24  1  0
M  RAD  1   2   2
M  END
>  <reaction>  (16) 
rxn_1857

>  <mol_properties>  (16) 
{"1": {"label": "*1", "atom_type": "Cs"}, "2": {"label": "*0", "atom_type": "Cd"}, "18": {"label": "*3", "atom_type": "Cs"}, "19": {"label": "*4", "atom_type": "S2s"}, "20": {"label": "*2", "atom_type": "H0"}}

>  <type>  (16) 
unop_12

>  <geom_source>  (16) 
Heuristics

$$$$

     RDKit          3D

 24 23  0  0  0  0  0  0  0  0999 V2000
    1.8056   -0.4958    1.4476 S   0  0  0  0  0  0  0  0  0  0  0  0
    3.7165    2.2618    0.3574 S   0  0  0  0  0  0  0  0  0  0  0  0
    0.9274   -0.1969   -0.1259 C   0  0  0  0  0  3  0  0  0  0  0  0
    1.4320   -1.1371   -1.2219 C   0  0  0  0  0  0  0  0  0  0  0  0
   -0.5700   -0.2987    0.0679 C   0  0  0  0  0  0  0  0  0  0  0  0
   -1.1865   -1.5254    0.3851 C   0  0  0  0  0  0  0  0  0  0  0  0
   -1.3684    0.8529   -0.0500 C   0  0  0  0  0  0  0  0  0  0  0  0
   -2.5706   -1.5946    0.5702 C   0  0  0  0  0  0  0  0  0  0  0  0
   -3.3529   -0.4446    0.4451 C   0  0  0  0  0  0  0  0  0  0  0  0
   -2.7523    0.7778    0.1362 C   0  0  0  0  0  0  0  0  0  0  0  0
    2.0902    2.0929   -0.4289 C   0  0  0  0  0  0  0  0  0  0  0  0
    1.2519    1.0660   -0.5159 H   0  0  0  0  0  0  0  0  0  0  0  0
    0.8925   -0.9344   -2.1714 H   0  0  0  0  0  0  0  0  0  0  0  0
    2.5150   -0.9619   -1.3919 H   0  0  0  0  0  0  0  0  0  0  0  0
    1.2863   -2.2014   -0.9428 H   0  0  0  0  0  0  0  0  0  0  0  0
   -0.6017   -2.4292    0.4898 H   0  0  0  0  0  0  0  0  0  0  0  0
   -3.0369   -2.5411    0.8119 H   0  0  0  0  0  0  0  0  0  0  0  0
   -4.4242   -0.5003    0.5892 H   0  0  0  0  0  0  0  0  0  0  0  0
   -3.3593    1.6689    0.0420 H   0  0  0  0  0  0  0  0  0  0  0  0
   -0.9246    1.8119   -0.2852 H   0  0  0  0  0  0  0  0  0  0  0  0
    2.0872    2.6426   -1.3924 H   0  0  0  0  0  0  0  0  0  0  0  0
    1.3092    2.5134    0.2377 H   0  0  0  0  0  0  0  0  0  0  0  0
    1.4900   -1.8655    1.5098 H   0  0  0  0  0  0  0  0  0  0  0  0
    3.3436    1.4386    1.4365 H   0  0  0  0  0  0  0  0  0  0  0  0
  1  3  1  0
  1 23  1  0
  2 11  1  0
  2 24  1  0
  3  4  1  0
  3  5  1  0
  4 13  1  0
  4 14  1  0
  4 15  1  0
  5  6  2  0
  5  7  1  0
  6  8  1  0
  6 16  1  0
  7 10  2  0
  7 20  1  0
  8  9  2  0
  8 17  1  0
  9 10  1  0
  9 18  1  0
 10 19  1  0
 11 12  1  0
 11 21  1  0
 11 22  1  0
M  RAD  1   3   2
M  END
>  <reaction>  (17) 
rxn_1857

>  <mol_properties>  (17) 
{"1": {"label": "*1", "atom_type": "Cs"}, "2": {"label": "*0", "atom_type": "Cd"}, "18": {"label": "*3", "atom_type": "Cs"}, "19": {"label": "*4", "atom_type": "S2s"}, "20": {"label": "*2", "atom_type": "H0"}}

>  <type>  (17) 
unop_13

>  <geom_source>  (17) 
AutoTST

$$$$
