
     RDKit          3D

  7  6  0  0  0  0  0  0  0  0999 V2000
    1.2985   -0.0065   -0.2721 C   0  0  0  0  0  0  0  0  0  0  0  0
    0.0000    0.0000   -0.2926 C   0  0  0  0  0  0  0  0  0  0  0  0
   -1.2985    0.0065   -0.3130 C   0  0  0  0  0  0  0  0  0  0  0  0
    1.8444   -0.7551    0.2895 H   0  0  0  0  0  0  0  0  0  0  0  0
    1.8693    0.7364   -0.8162 H   0  0  0  0  0  0  0  0  0  0  0  0
   -1.8658    0.5623    0.4239 H   0  0  0  0  0  0  0  0  0  0  0  0
   -1.8479   -0.5437   -1.0675 H   0  0  0  0  0  0  0  0  0  0  0  0
  1  2  2  0
  1  4  1  0
  1  5  1  0
  2  3  2  0
  3  6  1  0
  3  7  1  0
M  END
>  <reaction>  (1) 
rxn_1808

>  <mol_properties>  (1) 
{"0": {"label": "donator", "atom_type": "Cd"}, "3": {"label": "d_hydrogen", "atom_type": "H0"}}

>  <type>  (1) 
r1h

$$$$

     RDKit          3D

  9  8  0  0  0  0  0  0  0  0999 V2000
   -1.2704   -0.1236    0.1096 C   0  0  0  0  0  0  0  0  0  0  0  0
    0.0713   -0.5323    0.5887 C   0  0  0  0  0  0  0  0  0  0  0  0
    0.9521   -1.3639   -0.0464 C   0  0  0  0  0  0  0  0  0  0  0  0
    0.6900   -2.1109   -1.5335 S   0  0  0  0  0  1  0  0  0  0  0  0
   -1.3201    0.9657    0.0241 H   0  0  0  0  0  0  0  0  0  0  0  0
   -1.5103   -0.5706   -0.8526 H   0  0  0  0  0  0  0  0  0  0  0  0
   -2.0312   -0.4112    0.8411 H   0  0  0  0  0  0  0  0  0  0  0  0
    0.3863   -0.1265    1.5468 H   0  0  0  0  0  0  0  0  0  0  0  0
    1.8971   -1.5543    0.4552 H   0  0  0  0  0  0  0  0  0  0  0  0
  1  2  1  0
  1  5  1  0
  1  6  1  0
  1  7  1  0
  2  3  2  3
  2  8  1  0
  3  4  1  0
  3  9  1  0
M  RAD  1   4   2
M  END
>  <reaction>  (2) 
rxn_1808

>  <mol_properties>  (2) 
{"1": {"label": "acceptor", "atom_type": "Cs"}}

>  <type>  (2) 
r2

$$$$

     RDKit          3D

 10  9  0  0  0  0  0  0  0  0999 V2000
   -1.1508    0.0666    0.2839 C   0  0  0  0  0  0  0  0  0  0  0  0
    0.1022   -0.3749   -0.4771 C   0  0  0  0  0  0  0  0  0  0  0  0
    1.3428    0.1620    0.1542 C   0  0  0  0  0  0  0  0  0  0  0  0
    2.5613   -0.6971    0.7526 S   0  0  0  0  0  0  0  0  0  0  0  0
   -1.2137    1.1546    0.3481 H   0  0  0  0  0  0  0  0  0  0  0  0
   -2.0472   -0.2935   -0.2212 H   0  0  0  0  0  0  0  0  0  0  0  0
   -1.1467   -0.3334    1.2987 H   0  0  0  0  0  0  0  0  0  0  0  0
    0.1602   -1.4616   -0.5369 H   0  0  0  0  0  0  0  0  0  0  0  0
    0.0536    0.0174   -1.4997 H   0  0  0  0  0  0  0  0  0  0  0  0
    1.3824    1.2528    0.2110 H   0  0  0  0  0  0  0  0  0  0  0  0
  1  2  1  0
  1  5  1  0
  1  6  1  0
  1  7  1  0
  2  3  1  0
  2  8  1  0
  2  9  1  0
  3  4  2  0
  3 10  1  0
M  END
>  <reaction>  (3) 
rxn_1808

>  <mol_properties>  (3) 
{"0": {"label": "a_hydrogen", "atom_type": "H0"}, "2": {"label": "acceptor", "atom_type": "Cs"}}

>  <type>  (3) 
r2h

$$$$

     RDKit          3D

 16 14  0  0  0  0  0  0  0  0999 V2000
    0.0414   -0.2970   -1.5484 C   0  0  0  0  0  0  0  0  0  0  0  0
    1.1071    0.3753   -1.5991 C   0  0  0  0  0  0  0  0  0  0  0  0
    2.2176    1.0863   -1.4932 C   0  0  0  0  0  3  0  0  0  0  0  0
   -0.3511   -0.4903   -0.1804 H   0  0  0  0  0  0  0  0  0  0  0  0
   -0.6462   -0.7807   -2.2183 H   0  0  0  0  0  0  0  0  0  0  0  0
    3.1803    0.5997   -1.4047 H   0  0  0  0  0  0  0  0  0  0  0  0
    2.1888    2.1681   -1.5126 H   0  0  0  0  0  0  0  0  0  0  0  0
   -0.3803   -2.2956    1.0916 C   0  0  0  0  0  0  0  0  0  0  0  0
   -0.6133   -0.8079    1.0224 C   0  0  0  0  0  0  0  0  0  0  0  0
    0.2641    0.1000    1.7299 C   0  0  0  0  0  0  0  0  0  0  0  0
    1.7465   -0.2370    2.3106 S   0  0  0  0  0  0  0  0  0  0  0  0
    0.6543   -2.5382    0.8521 H   0  0  0  0  0  0  0  0  0  0  0  0
   -0.5829   -2.6705    2.0973 H   0  0  0  0  0  0  0  0  0  0  0  0
   -1.0363   -2.8170    0.3936 H   0  0  0  0  0  0  0  0  0  0  0  0
   -1.6608   -0.5092    1.0822 H   0  0  0  0  0  0  0  0  0  0  0  0
   -0.1094    1.1208    1.8126 H   0  0  0  0  0  0  0  0  0  0  0  0
  1  2  3  0
  1  5  1  0
  2  3  1  0
  3  6  1  0
  3  7  1  0
  4  9  1  0
  8  9  1  0
  8 12  1  0
  8 13  1  0
  8 14  1  0
  9 10  1  0
  9 15  1  0
 10 11  2  0
 10 16  1  0
M  RAD  1   3   2
M  END
>  <reaction>  (4) 
rxn_1808

>  <mol_properties>  (4) 
{"0": {"label": "*3", "atom_type": "Ct"}, "1": {"label": "*4", "atom_type": "Ct"}, "3": {"label": "*2", "atom_type": "H0"}, "8": {"label": "*1", "atom_type": "Cs"}, "9": {"label": "*0", "atom_type": "CS"}}

>  <type>  (4) 
ts

$$$$

     RDKit          3D

 16 15  0  0  0  0  0  0  0  0999 V2000
    0.8172    0.3512   -0.6393 C   0  0  0  0  0  0  0  0  0  0  0  0
    0.8172    0.3512   -1.9380 C   0  0  0  0  0  3  0  0  0  0  0  0
    0.8172    0.3512   -3.2366 C   0  0  0  0  0  0  0  0  0  0  0  0
    0.1536   -0.5438    0.0308 H   0  0  0  0  0  0  0  0  0  0  0  0
    1.3702    1.0969   -0.0809 H   0  0  0  0  0  0  0  0  0  0  0  0
    0.0714    0.9042   -3.7951 H   0  0  0  0  0  0  0  0  0  0  0  0
    1.5630   -0.2019   -3.7951 H   0  0  0  0  0  0  0  0  0  0  0  0
    0.4197   -2.2631    1.6001 C   0  0  0  0  0  0  0  0  0  0  0  0
   -0.5140   -1.4440    0.7049 C   0  0  0  0  0  0  0  0  0  0  0  0
   -0.9013   -0.1566    1.3519 C   0  0  0  0  0  0  0  0  0  0  0  0
   -0.6185    1.3211    0.7884 S   0  0  0  0  0  0  0  0  0  0  0  0
    1.3569   -1.7311    1.7690 H   0  0  0  0  0  0  0  0  0  0  0  0
   -0.0364   -2.4638    2.5714 H   0  0  0  0  0  0  0  0  0  0  0  0
    0.6501   -3.2201    1.1318 H   0  0  0  0  0  0  0  0  0  0  0  0
   -1.4320   -2.0171    0.5302 H   0  0  0  0  0  0  0  0  0  0  0  0
   -1.4128   -0.2716    2.3108 H   0  0  0  0  0  0  0  0  0  0  0  0
  1  2  1  0
  1 11  1  0
  1  4  1  0
  1  5  1  0
  2  3  2  3
  3  6  1  0
  3  7  1  0
  8  9  1  0
  8 12  1  0
  8 13  1  0
  8 14  1  0
  9 10  2  3
  9 15  1  0
 10 11  1  0
 10 16  1  0
M  RAD  1   2   2
M  END
>  <reaction>  (5) 
rxn_1808

>  <mol_properties>  (5) 
{"0": {"label": "*3", "atom_type": "Ct"}, "1": {"label": "*4", "atom_type": "Ct"}, "3": {"label": "*2", "atom_type": "H0"}, "8": {"label": "*1", "atom_type": "Cs"}, "9": {"label": "*0", "atom_type": "CS"}}

>  <type>  (5) 
unop_1

>  <geom_source>  (5) 
Heuristics

$$$$

     RDKit          3D

 16 14  0  0  0  0  0  0  0  0999 V2000
    0.1189    1.1284   -0.8079 C   0  0  0  0  0  0  0  0  0  0  0  0
    0.1189    1.1284   -2.1066 C   0  0  0  0  0  0  0  0  0  0  0  0
    0.1189    1.1284   -3.4053 C   0  0  0  0  0  0  0  0  0  0  0  0
   -0.5447    0.2334   -0.1378 H   0  0  0  0  0  0  0  0  0  0  0  0
    0.6719    1.8741   -0.2495 H   0  0  0  0  0  0  0  0  0  0  0  0
   -0.6268    1.6814   -3.9637 H   0  0  0  0  0  0  0  0  0  0  0  0
    0.8647    0.5754   -3.9637 H   0  0  0  0  0  0  0  0  0  0  0  0
   -1.2983   -1.9827   -0.2417 C   0  0  0  0  0  0  0  0  0  0  0  0
   -1.2123   -0.6668    0.5363 C   0  0  0  0  0  0  0  0  0  0  0  0
   -0.2247   -0.7544    1.6511 C   0  0  0  0  0  0  0  0  0  0  0  0
    1.0892    0.1509    1.8395 S   0  0  0  0  0  1  0  0  0  0  0  0
   -0.3443   -2.2120   -0.7182 H   0  0  0  0  0  0  0  0  0  0  0  0
   -1.5590   -2.8155    0.4142 H   0  0  0  0  0  0  0  0  0  0  0  0
   -2.0600   -1.9142   -1.0185 H   0  0  0  0  0  0  0  0  0  0  0  0
   -2.1922   -0.4499    0.9772 H   0  0  0  0  0  0  0  0  0  0  0  0
   -0.4428   -1.5348    2.3845 H   0  0  0  0  0  0  0  0  0  0  0  0
  1  2  2  0
  1  4  1  0
  1  5  1  0
  2  3  2  0
  3  6  1  0
  3  7  1  0
  8  9  1  0
  8 12  1  0
  8 13  1  0
  8 14  1  0
  9 10  2  3
  9 15  1  0
 10 11  1  0
 10 16  1  0
M  RAD  1  11   2
M  END
>  <reaction>  (6) 
rxn_1808

>  <mol_properties>  (6) 
{"0": {"label": "*3", "atom_type": "Ct"}, "1": {"label": "*4", "atom_type": "Ct"}, "3": {"label": "*2", "atom_type": "H0"}, "8": {"label": "*1", "atom_type": "Cs"}, "9": {"label": "*0", "atom_type": "CS"}}

>  <type>  (6) 
unop_2

>  <geom_source>  (6) 
Heuristics

$$$$

     RDKit          3D

 16 14  0  0  0  0  0  0  0  0999 V2000
    1.2125    0.3956   -0.4413 C   0  0  0  0  0  0  0  0  0  0  0  0
    1.2125    0.3956   -1.7400 C   0  0  0  0  0  0  0  0  0  0  0  0
    1.2125    0.3956   -3.0387 C   0  0  0  0  0  0  0  0  0  0  0  0
    0.5488   -0.4994    0.2288 H   0  0  0  0  0  0  0  0  0  0  0  0
    1.7655    1.1413    0.1171 H   0  0  0  0  0  0  0  0  0  0  0  0
    0.4667    0.9486   -3.5971 H   0  0  0  0  0  0  0  0  0  0  0  0
    1.9582   -0.1574   -3.5971 H   0  0  0  0  0  0  0  0  0  0  0  0
    0.5554   -1.6904    2.2465 C   0  0  0  0  0  0  0  0  0  0  0  0
   -0.1187   -1.3996    0.9029 C   0  0  0  0  0  0  0  0  0  0  0  0
   -1.1781   -0.3576    1.0369 C   0  0  0  0  0  0  0  0  0  0  0  0
   -1.2240    1.0628    0.2877 S   0  0  0  0  0  1  0  0  0  0  0  0
    1.0682   -0.8035    2.6206 H   0  0  0  0  0  0  0  0  0  0  0  0
   -0.1733   -2.0032    2.9968 H   0  0  0  0  0  0  0  0  0  0  0  0
    1.2897   -2.4885    2.1367 H   0  0  0  0  0  0  0  0  0  0  0  0
   -0.5986   -2.3161    0.5402 H   0  0  0  0  0  0  0  0  0  0  0  0
   -1.9776   -0.6168    1.7356 H   0  0  0  0  0  0  0  0  0  0  0  0
  1  2  2  0
  1  4  1  0
  1  5  1  0
  2  3  2  0
  3  6  1  0
  3  7  1  0
  8  9  1  0
  8 12  1  0
  8 13  1  0
  8 14  1  0
  9 10  2  3
  9 15  1  0
 10 11  1  0
 10 16  1  0
M  RAD  1  11   2
M  END
>  <reaction>  (7) 
rxn_1808

>  <mol_properties>  (7) 
{"0": {"label": "*3", "atom_type": "Ct"}, "1": {"label": "*4", "atom_type": "Ct"}, "3": {"label": "*2", "atom_type": "H0"}, "8": {"label": "*1", "atom_type": "Cs"}, "9": {"label": "*0", "atom_type": "CS"}}

>  <type>  (7) 
unop_3

>  <geom_source>  (7) 
Heuristics

$$$$

     RDKit          3D

 16 14  0  0  0  0  0  0  0  0999 V2000
    0.6075    1.9637   -0.3702 C   0  0  0  0  0  0  0  0  0  0  0  0
    0.6075    1.9637   -1.6689 C   0  0  0  0  0  0  0  0  0  0  0  0
    0.6075    1.9637   -2.9675 C   0  0  0  0  0  0  0  0  0  0  0  0
   -0.0561    1.0688    0.2999 H   0  0  0  0  0  0  0  0  0  0  0  0
    1.1606    2.7094    0.1882 H   0  0  0  0  0  0  0  0  0  0  0  0
   -0.1382    2.5167   -3.5260 H   0  0  0  0  0  0  0  0  0  0  0  0
    1.3533    1.4107   -3.5260 H   0  0  0  0  0  0  0  0  0  0  0  0
   -2.2174    0.2323    0.6443 C   0  0  0  0  0  0  0  0  0  0  0  0
   -0.7236    0.1685    0.9740 C   0  0  0  0  0  0  0  0  0  0  0  0
   -0.3246   -1.1909    1.4417 C   0  0  0  0  0  0  0  0  0  0  0  0
    0.7568   -2.1604    0.7548 S   0  0  0  0  0  1  0  0  0  0  0  0
   -2.4594   -0.4395   -0.1802 H   0  0  0  0  0  0  0  0  0  0  0  0
   -2.8264   -0.0527    1.5044 H   0  0  0  0  0  0  0  0  0  0  0  0
   -2.4981    1.2446    0.3534 H   0  0  0  0  0  0  0  0  0  0  0  0
   -0.5080    0.8748    1.7842 H   0  0  0  0  0  0  0  0  0  0  0  0
   -0.8543   -1.5325    2.3345 H   0  0  0  0  0  0  0  0  0  0  0  0
  1  2  2  0
  1  4  1  0
  1  5  1  0
  2  3  2  0
  3  6  1  0
  3  7  1  0
  8  9  1  0
  8 12  1  0
  8 13  1  0
  8 14  1  0
  9 10  2  3
  9 15  1  0
 10 11  1  0
 10 16  1  0
M  RAD  1  11   2
M  END
>  <reaction>  (8) 
rxn_1808

>  <mol_properties>  (8) 
{"0": {"label": "*3", "atom_type": "Ct"}, "1": {"label": "*4", "atom_type": "Ct"}, "3": {"label": "*2", "atom_type": "H0"}, "8": {"label": "*1", "atom_type": "Cs"}, "9": {"label": "*0", "atom_type": "CS"}}

>  <type>  (8) 
unop_4

>  <geom_source>  (8) 
Heuristics

$$$$

     RDKit          3D

 16 14  0  0  0  0  0  0  0  0999 V2000
    1.6043    0.8469   -0.1667 C   0  0  0  0  0  0  0  0  0  0  0  0
    1.6043    0.8469   -1.4654 C   0  0  0  0  0  0  0  0  0  0  0  0
    1.6043    0.8469   -2.7641 C   0  0  0  0  0  0  0  0  0  0  0  0
    0.9407   -0.0480    0.5034 H   0  0  0  0  0  0  0  0  0  0  0  0
    2.1574    1.5927    0.3917 H   0  0  0  0  0  0  0  0  0  0  0  0
    0.8586    1.3999   -3.3225 H   0  0  0  0  0  0  0  0  0  0  0  0
    2.3501    0.2939   -3.3225 H   0  0  0  0  0  0  0  0  0  0  0  0
    0.4320   -0.7341    2.6852 C   0  0  0  0  0  0  0  0  0  0  0  0
    0.2732   -0.9483    1.1775 C   0  0  0  0  0  0  0  0  0  0  0  0
   -1.1617   -0.9217    0.7697 C   0  0  0  0  0  0  0  0  0  0  0  0
   -1.8439    0.0998   -0.2658 S   0  0  0  0  0  1  0  0  0  0  0  0
    0.0674    0.2521    2.9751 H   0  0  0  0  0  0  0  0  0  0  0  0
   -0.1243   -1.4822    3.2533 H   0  0  0  0  0  0  0  0  0  0  0  0
    1.4817   -0.8071    2.9695 H   0  0  0  0  0  0  0  0  0  0  0  0
    0.6749   -1.9337    0.9142 H   0  0  0  0  0  0  0  0  0  0  0  0
   -1.7817   -1.6781    1.2575 H   0  0  0  0  0  0  0  0  0  0  0  0
  1  2  2  0
  1  4  1  0
  1  5  1  0
  2  3  2  0
  3  6  1  0
  3  7  1  0
  8  9  1  0
  8 12  1  0
  8 13  1  0
  8 14  1  0
  9 10  2  3
  9 15  1  0
 10 11  1  0
 10 16  1  0
M  RAD  1  11   2
M  END
>  <reaction>  (9) 
rxn_1808

>  <mol_properties>  (9) 
{"0": {"label": "*3", "atom_type": "Ct"}, "1": {"label": "*4", "atom_type": "Ct"}, "3": {"label": "*2", "atom_type": "H0"}, "8": {"label": "*1", "atom_type": "Cs"}, "9": {"label": "*0", "atom_type": "CS"}}

>  <type>  (9) 
unop_5

>  <geom_source>  (9) 
Heuristics

$$$$

     RDKit          3D

 16 14  0  0  0  0  0  0  0  0999 V2000
    0.8799    1.9798   -0.2115 C   0  0  0  0  0  0  0  0  0  0  0  0
    0.8799    1.9798   -1.5102 C   0  0  0  0  0  0  0  0  0  0  0  0
    0.8799    1.9798   -2.8088 C   0  0  0  0  0  0  0  0  0  0  0  0
    0.2163    1.0849    0.4586 H   0  0  0  0  0  0  0  0  0  0  0  0
    1.4329    2.7256    0.3469 H   0  0  0  0  0  0  0  0  0  0  0  0
    0.1342    2.5328   -3.3673 H   0  0  0  0  0  0  0  0  0  0  0  0
    1.6257    1.4268   -3.3673 H   0  0  0  0  0  0  0  0  0  0  0  0
   -1.8795    0.6584    1.4155 C   0  0  0  0  0  0  0  0  0  0  0  0
   -0.4513    0.1846    1.1327 C   0  0  0  0  0  0  0  0  0  0  0  0
   -0.3221   -1.2923    1.2995 C   0  0  0  0  0  0  0  0  0  0  0  0
    0.1203   -2.3479    0.1720 S   0  0  0  0  0  1  0  0  0  0  0  0
   -2.5786    0.2246    0.6994 H   0  0  0  0  0  0  0  0  0  0  0  0
   -2.2010    0.3735    2.4191 H   0  0  0  0  0  0  0  0  0  0  0  0
   -1.9408    1.7439    1.3375 H   0  0  0  0  0  0  0  0  0  0  0  0
    0.2293    0.6603    1.8485 H   0  0  0  0  0  0  0  0  0  0  0  0
   -0.5777   -1.6560    2.2979 H   0  0  0  0  0  0  0  0  0  0  0  0
  1  2  2  0
  1  4  1  0
  1  5  1  0
  2  3  2  0
  3  6  1  0
  3  7  1  0
  8  9  1  0
  8 12  1  0
  8 13  1  0
  8 14  1  0
  9 10  2  3
  9 15  1  0
 10 11  1  0
 10 16  1  0
M  RAD  1  11   2
M  END
>  <reaction>  (10) 
rxn_1808

>  <mol_properties>  (10) 
{"0": {"label": "*3", "atom_type": "Ct"}, "1": {"label": "*4", "atom_type": "Ct"}, "3": {"label": "*2", "atom_type": "H0"}, "8": {"label": "*1", "atom_type": "Cs"}, "9": {"label": "*0", "atom_type": "CS"}}

>  <type>  (10) 
unop_6

>  <geom_source>  (10) 
Heuristics

$$$$

     RDKit          3D

 16 14  0  0  0  0  0  0  0  0999 V2000
    1.1868    1.8612   -0.0727 C   0  0  0  0  0  0  0  0  0  0  0  0
    1.1868    1.8612   -1.3713 C   0  0  0  0  0  0  0  0  0  0  0  0
    1.1868    1.8612   -2.6700 C   0  0  0  0  0  0  0  0  0  0  0  0
    0.5232    0.9663    0.5974 H   0  0  0  0  0  0  0  0  0  0  0  0
    1.7398    2.6070    0.4858 H   0  0  0  0  0  0  0  0  0  0  0  0
    0.4411    2.4143   -3.2284 H   0  0  0  0  0  0  0  0  0  0  0  0
    1.9326    1.3082   -3.2284 H   0  0  0  0  0  0  0  0  0  0  0  0
   -1.1993    0.7217    2.1668 C   0  0  0  0  0  0  0  0  0  0  0  0
   -0.1444    0.0661    1.2715 C   0  0  0  0  0  0  0  0  0  0  0  0
   -0.4211   -1.3867    1.0743 C   0  0  0  0  0  0  0  0  0  0  0  0
   -0.6938   -2.1279   -0.3247 S   0  0  0  0  0  1  0  0  0  0  0  0
   -2.1839    0.6759    1.6996 H   0  0  0  0  0  0  0  0  0  0  0  0
   -1.2606    0.2253    3.1371 H   0  0  0  0  0  0  0  0  0  0  0  0
   -0.9517    1.7691    2.3391 H   0  0  0  0  0  0  0  0  0  0  0  0
    0.8360    0.1547    1.7540 H   0  0  0  0  0  0  0  0  0  0  0  0
   -0.4484   -1.9686    1.9990 H   0  0  0  0  0  0  0  0  0  0  0  0
  1  2  2  0
  1  4  1  0
  1  5  1  0
  2  3  2  0
  3  6  1  0
  3  7  1  0
  8  9  1  0
  8 12  1  0
  8 13  1  0
  8 14  1  0
  9 10  2  3
  9 15  1  0
 10 11  1  0
 10 16  1  0
M  RAD  1  11   2
M  END
>  <reaction>  (11) 
rxn_1808

>  <mol_properties>  (11) 
{"0": {"label": "*3", "atom_type": "Ct"}, "1": {"label": "*4", "atom_type": "Ct"}, "3": {"label": "*2", "atom_type": "H0"}, "8": {"label": "*1", "atom_type": "Cs"}, "9": {"label": "*0", "atom_type": "CS"}}

>  <type>  (11) 
unop_7

>  <geom_source>  (11) 
Heuristics

$$$$

     RDKit          3D

 16 15  0  0  0  0  0  0  0  0999 V2000
    0.5067    0.4881   -0.7731 C   0  0  0  0  0  0  0  0  0  0  0  0
    0.5067    0.4881   -2.0718 C   0  0  0  0  0  3  0  0  0  0  0  0
    0.5067    0.4881   -3.3705 C   0  0  0  0  0  0  0  0  0  0  0  0
   -0.1569   -0.4069   -0.1030 H   0  0  0  0  0  0  0  0  0  0  0  0
    1.0597    1.2338   -0.2147 H   0  0  0  0  0  0  0  0  0  0  0  0
   -0.2390    1.0411   -3.9289 H   0  0  0  0  0  0  0  0  0  0  0  0
    1.2525   -0.0650   -3.9289 H   0  0  0  0  0  0  0  0  0  0  0  0
    0.0437   -2.5362    0.8538 C   0  0  0  0  0  0  0  0  0  0  0  0
   -0.8244   -1.3071    0.5711 C   0  0  0  0  0  0  0  0  0  0  0  0
   -0.5885   -0.2286    1.5746 C   0  0  0  0  0  0  0  0  0  0  0  0
   -0.0576    1.2580    1.2753 S   0  0  0  0  0  0  0  0  0  0  0  0
    1.1025   -2.2884    0.7682 H   0  0  0  0  0  0  0  0  0  0  0  0
   -0.1338   -2.9251    1.8583 H   0  0  0  0  0  0  0  0  0  0  0  0
   -0.1799   -3.3298    0.1408 H   0  0  0  0  0  0  0  0  0  0  0  0
   -1.8802   -1.5952    0.6354 H   0  0  0  0  0  0  0  0  0  0  0  0
   -0.7937   -0.5226    2.6070 H   0  0  0  0  0  0  0  0  0  0  0  0
  1  2  1  0
  1 11  1  0
  1  4  1  0
  1  5  1  0
  2  3  2  3
  3  6  1  0
  3  7  1  0
  8  9  1  0
  8 12  1  0
  8 13  1  0
  8 14  1  0
  9 10  2  3
  9 15  1  0
 10 11  1  0
 10 16  1  0
M  RAD  1   2   2
M  END
>  <reaction>  (12) 
rxn_1808

>  <mol_properties>  (12) 
{"0": {"label": "*3", "atom_type": "Ct"}, "1": {"label": "*4", "atom_type": "Ct"}, "3": {"label": "*2", "atom_type": "H0"}, "8": {"label": "*1", "atom_type": "Cs"}, "9": {"label": "*0", "atom_type": "CS"}}

>  <type>  (12) 
unop_8

>  <geom_source>  (12) 
Heuristics

$$$$

     RDKit          3D

 16 14  0  0  0  0  0  0  0  0999 V2000
    0.3524    1.8215   -0.5328 C   0  0  0  0  0  0  0  0  0  0  0  0
    0.3524    1.8215   -1.8315 C   0  0  0  0  0  0  0  0  0  0  0  0
    0.3524    1.8215   -3.1301 C   0  0  0  0  0  0  0  0  0  0  0  0
   -0.3112    0.9266    0.1373 H   0  0  0  0  0  0  0  0  0  0  0  0
    0.9054    2.5673    0.0256 H   0  0  0  0  0  0  0  0  0  0  0  0
   -0.3934    2.3745   -3.6885 H   0  0  0  0  0  0  0  0  0  0  0  0
    1.0982    1.2685   -3.6886 H   0  0  0  0  0  0  0  0  0  0  0  0
   -2.2129   -0.4381    0.0334 C   0  0  0  0  0  0  0  0  0  0  0  0
   -0.9788    0.0264    0.8114 C   0  0  0  0  0  0  0  0  0  0  0  0
   -0.3173   -1.1100    1.5164 C   0  0  0  0  0  0  0  0  0  0  0  0
    1.1889   -1.6249    1.2991 S   0  0  0  0  0  1  0  0  0  0  0  0
   -1.9318   -1.1409   -0.7519 H   0  0  0  0  0  0  0  0  0  0  0  0
   -2.9330   -0.9316    0.6888 H   0  0  0  0  0  0  0  0  0  0  0  0
   -2.7095    0.4133   -0.4323 H   0  0  0  0  0  0  0  0  0  0  0  0
   -1.2902    0.7524    1.5715 H   0  0  0  0  0  0  0  0  0  0  0  0
   -0.9588   -1.6289    2.2331 H   0  0  0  0  0  0  0  0  0  0  0  0
  1  2  2  0
  1  4  1  0
  1  5  1  0
  2  3  2  0
  3  6  1  0
  3  7  1  0
  8  9  1  0
  8 12  1  0
  8 13  1  0
  8 14  1  0
  9 10  2  3
  9 15  1  0
 10 11  1  0
 10 16  1  0
M  RAD  1  11   2
M  END
>  <reaction>  (13) 
rxn_1808

>  <mol_properties>  (13) 
{"0": {"label": "*3", "atom_type": "Ct"}, "1": {"label": "*4", "atom_type": "Ct"}, "3": {"label": "*2", "atom_type": "H0"}, "8": {"label": "*1", "atom_type": "Cs"}, "9": {"label": "*0", "atom_type": "CS"}}

>  <type>  (13) 
unop_9

>  <geom_source>  (13) 
Heuristics

$$$$

     RDKit          3D

 16 14  0  0  0  0  0  0  0  0999 V2000
    0.2587    0.7542   -0.8365 C   0  0  0  0  0  0  0  0  0  0  0  0
    0.2587    0.7542   -2.1351 C   0  0  0  0  0  0  0  0  0  0  0  0
    0.2587    0.7542   -3.4338 C   0  0  0  0  0  0  0  0  0  0  0  0
   -0.4049   -0.1408   -0.1664 H   0  0  0  0  0  0  0  0  0  0  0  0
    0.8117    1.4999   -0.2781 H   0  0  0  0  0  0  0  0  0  0  0  0
   -0.4870    1.3072   -3.9922 H   0  0  0  0  0  0  0  0  0  0  0  0
    1.0045    0.2011   -3.9922 H   0  0  0  0  0  0  0  0  0  0  0  0
   -0.5776   -2.4519    0.1781 C   0  0  0  0  0  0  0  0  0  0  0  0
   -1.0725   -1.0410    0.5077 C   0  0  0  0  0  0  0  0  0  0  0  0
   -0.3381   -0.4617    1.6701 C   0  0  0  0  0  0  0  0  0  0  0  0
    0.5492    0.8776    1.6708 S   0  0  0  0  0  1  0  0  0  0  0  0
    0.4706   -2.4324   -0.1231 H   0  0  0  0  0  0  0  0  0  0  0  0
   -0.6712   -3.1168    1.0388 H   0  0  0  0  0  0  0  0  0  0  0  0
   -1.1599   -2.8759   -0.6401 H   0  0  0  0  0  0  0  0  0  0  0  0
   -2.1340   -1.0906    0.7770 H   0  0  0  0  0  0  0  0  0  0  0  0
   -0.4237   -1.0438    2.5911 H   0  0  0  0  0  0  0  0  0  0  0  0
  1  2  2  0
  1  4  1  0
  1  5  1  0
  2  3  2  0
  3  6  1  0
  3  7  1  0
  8  9  1  0
  8 12  1  0
  8 13  1  0
  8 14  1  0
  9 10  2  3
  9 15  1  0
 10 11  1  0
 10 16  1  0
M  RAD  1  11   2
M  END
>  <reaction>  (14) 
rxn_1808

>  <mol_properties>  (14) 
{"0": {"label": "*3", "atom_type": "Ct"}, "1": {"label": "*4", "atom_type": "Ct"}, "3": {"label": "*2", "atom_type": "H0"}, "8": {"label": "*1", "atom_type": "Cs"}, "9": {"label": "*0", "atom_type": "CS"}}

>  <type>  (14) 
unop_10

>  <geom_source>  (14) 
Heuristics

$$$$

     RDKit          3D

 16 14  0  0  0  0  0  0  0  0999 V2000
    1.5169    1.5131   -0.0147 C   0  0  0  0  0  0  0  0  0  0  0  0
    1.5169    1.5131   -1.3134 C   0  0  0  0  0  0  0  0  0  0  0  0
    1.5169    1.5131   -2.6121 C   0  0  0  0  0  0  0  0  0  0  0  0
    0.8532    0.6182    0.6554 H   0  0  0  0  0  0  0  0  0  0  0  0
    2.0699    2.2589    0.5437 H   0  0  0  0  0  0  0  0  0  0  0  0
    0.7711    2.0661   -3.1705 H   0  0  0  0  0  0  0  0  0  0  0  0
    2.2626    0.9601   -3.1705 H   0  0  0  0  0  0  0  0  0  0  0  0
   -0.2884    0.2785    2.6731 C   0  0  0  0  0  0  0  0  0  0  0  0
    0.1857   -0.2820    1.3295 C   0  0  0  0  0  0  0  0  0  0  0  0
   -0.7301   -1.3478    0.8280 C   0  0  0  0  0  0  0  0  0  0  0  0
   -1.5554   -1.3302   -0.5503 S   0  0  0  0  0  1  0  0  0  0  0  0
   -1.2617    0.7597    2.5684 H   0  0  0  0  0  0  0  0  0  0  0  0
   -0.3784   -0.5099    3.4228 H   0  0  0  0  0  0  0  0  0  0  0  0
    0.4199    1.0186    3.0457 H   0  0  0  0  0  0  0  0  0  0  0  0
    1.1769   -0.7313    1.4616 H   0  0  0  0  0  0  0  0  0  0  0  0
   -0.8361   -2.2025    1.5008 H   0  0  0  0  0  0  0  0  0  0  0  0
  1  2  2  0
  1  4  1  0
  1  5  1  0
  2  3  2  0
  3  6  1  0
  3  7  1  0
  8  9  1  0
  8 12  1  0
  8 13  1  0
  8 14  1  0
  9 10  2  3
  9 15  1  0
 10 11  1  0
 10 16  1  0
M  RAD  1  11   2
M  END
>  <reaction>  (15) 
rxn_1808

>  <mol_properties>  (15) 
{"0": {"label": "*3", "atom_type": "Ct"}, "1": {"label": "*4", "atom_type": "Ct"}, "3": {"label": "*2", "atom_type": "H0"}, "8": {"label": "*1", "atom_type": "Cs"}, "9": {"label": "*0", "atom_type": "CS"}}

>  <type>  (15) 
unop_11

>  <geom_source>  (15) 
Heuristics

$$$$

     RDKit          3D

 16 14  0  0  0  0  0  0  0  0999 V2000
    0.1564    1.5276   -0.6915 C   0  0  0  0  0  0  0  0  0  0  0  0
    0.1564    1.5276   -1.9902 C   0  0  0  0  0  0  0  0  0  0  0  0
    0.1564    1.5276   -3.2888 C   0  0  0  0  0  0  0  0  0  0  0  0
   -0.5072    0.6327   -0.0214 H   0  0  0  0  0  0  0  0  0  0  0  0
    0.7095    2.2734   -0.1331 H   0  0  0  0  0  0  0  0  0  0  0  0
   -0.5893    2.0806   -3.8473 H   0  0  0  0  0  0  0  0  0  0  0  0
    0.9022    0.9746   -3.8473 H   0  0  0  0  0  0  0  0  0  0  0  0
   -1.8936   -1.2370   -0.2894 C   0  0  0  0  0  0  0  0  0  0  0  0
   -1.1747   -0.2676    0.6527 C   0  0  0  0  0  0  0  0  0  0  0  0
   -0.2543   -0.9879    1.5800 C   0  0  0  0  0  0  0  0  0  0  0  0
    1.3351   -0.7860    1.6994 S   0  0  0  0  0  1  0  0  0  0  0  0
   -1.1785   -1.7506   -0.9333 H   0  0  0  0  0  0  0  0  0  0  0  0
   -2.4518   -1.9918    0.2678 H   0  0  0  0  0  0  0  0  0  0  0  0
   -2.5973   -0.6972   -0.9233 H   0  0  0  0  0  0  0  0  0  0  0  0
   -1.9211    0.2532    1.2639 H   0  0  0  0  0  0  0  0  0  0  0  0
   -0.7456   -1.7300    2.2142 H   0  0  0  0  0  0  0  0  0  0  0  0
  1  2  2  0
  1  4  1  0
  1  5  1  0
  2  3  2  0
  3  6  1  0
  3  7  1  0
  8  9  1  0
  8 12  1  0
  8 13  1  0
  8 14  1  0
  9 10  2  3
  9 15  1  0
 10 11  1  0
 10 16  1  0
M  RAD  1  11   2
M  END
>  <reaction>  (16) 
rxn_1808

>  <mol_properties>  (16) 
{"0": {"label": "*3", "atom_type": "Ct"}, "1": {"label": "*4", "atom_type": "Ct"}, "3": {"label": "*2", "atom_type": "H0"}, "8": {"label": "*1", "atom_type": "Cs"}, "9": {"label": "*0", "atom_type": "CS"}}

>  <type>  (16) 
unop_12

>  <geom_source>  (16) 
Heuristics

$$$$

     RDKit          3D

 16 14  0  0  0  0  0  0  0  0999 V2000
   -0.4538   -1.9001   -1.5896 S   0  0  0  0  0  1  0  0  0  0  0  0
   -1.0876    0.2251   -0.3375 C   0  0  0  0  0  0  0  0  0  0  0  0
   -2.1281    0.7400    0.6499 C   0  0  0  0  0  0  0  0  0  0  0  0
   -1.3546   -1.2036   -0.7161 C   0  0  0  0  0  0  0  0  0  0  0  0
    3.2888   -0.6703    0.1625 C   0  0  0  0  0  0  0  0  0  0  0  0
    2.2861    0.1539    0.2715 C   0  0  0  0  0  0  0  0  0  0  0  0
    1.2835    0.9782    0.3805 C   0  0  0  0  0  0  0  0  0  0  0  0
   -1.1054    0.8637   -1.2479 H   0  0  0  0  0  0  0  0  0  0  0  0
    0.2018    0.3225    0.2651 H   0  0  0  0  0  0  0  0  0  0  0  0
   -1.8974    1.7936    0.9122 H   0  0  0  0  0  0  0  0  0  0  0  0
   -2.1088    0.1307    1.5785 H   0  0  0  0  0  0  0  0  0  0  0  0
   -3.1430    0.6971    0.1998 H   0  0  0  0  0  0  0  0  0  0  0  0
   -2.2157   -1.7321   -0.3177 H   0  0  0  0  0  0  0  0  0  0  0  0
    3.8607   -0.7077   -0.7546 H   0  0  0  0  0  0  0  0  0  0  0  0
    3.5494   -1.3173    0.9889 H   0  0  0  0  0  0  0  0  0  0  0  0
    1.0242    1.6262   -0.4455 H   0  0  0  0  0  0  0  0  0  0  0  0
  1  4  1  0
  2  3  1  0
  2  4  2  3
  2  8  1  0
  3 10  1  0
  3 11  1  0
  3 12  1  0
  4 13  1  0
  5  6  2  0
  5 14  1  0
  5 15  1  0
  6  7  2  0
  7  9  1  0
  7 16  1  0
M  RAD  1   1   2
M  END
>  <reaction>  (17) 
rxn_1808

>  <mol_properties>  (17) 
{"0": {"label": "*3", "atom_type": "Ct"}, "1": {"label": "*4", "atom_type": "Ct"}, "3": {"label": "*2", "atom_type": "H0"}, "8": {"label": "*1", "atom_type": "Cs"}, "9": {"label": "*0", "atom_type": "CS"}}

>  <type>  (17) 
unop_13

>  <geom_source>  (17) 
AutoTST

$$$$
