
     RDKit          3D

 16 15  0  0  0  0  0  0  0  0999 V2000
    1.7961   -0.3807    1.6176 C   0  0  0  0  0  0  0  0  0  0  0  0
    0.8562   -0.8708    0.8256 C   0  0  0  0  0  0  0  0  0  0  0  0
    0.0895   -0.0826   -0.2048 C   0  0  0  0  0  0  0  0  0  0  0  0
   -1.4061   -0.1111    0.0982 C   0  0  0  0  0  0  0  0  0  0  0  0
    0.4476   -0.5902   -1.5797 C   0  0  0  0  0  0  0  0  0  0  0  0
   -0.3793   -1.1113   -2.4728 C   0  0  0  0  0  0  0  0  0  0  0  0
    2.3110   -1.0032    2.3386 H   0  0  0  0  0  0  0  0  0  0  0  0
    2.0846    0.6643    1.5737 H   0  0  0  0  0  0  0  0  0  0  0  0
    0.5921   -1.9241    0.8925 H   0  0  0  0  0  0  0  0  0  0  0  0
    0.4358    0.9557   -0.1462 H   0  0  0  0  0  0  0  0  0  0  0  0
   -1.5968    0.3080    1.0865 H   0  0  0  0  0  0  0  0  0  0  0  0
   -1.9674    0.4693   -0.6359 H   0  0  0  0  0  0  0  0  0  0  0  0
   -1.7902   -1.1338    0.0883 H   0  0  0  0  0  0  0  0  0  0  0  0
    1.5049   -0.5197   -1.8214 H   0  0  0  0  0  0  0  0  0  0  0  0
   -1.4421   -1.2131   -2.2889 H   0  0  0  0  0  0  0  0  0  0  0  0
   -0.0162   -1.4558   -3.4328 H   0  0  0  0  0  0  0  0  0  0  0  0
  1  2  2  3
  1  7  1  0
  1  8  1  0
  2  3  1  0
  2  9  1  0
  3  4  1  0
  3  5  1  0
  3 10  1  0
  4 11  1  0
  4 12  1  0
  4 13  1  0
  5  6  2  3
  5 14  1  0
  6 15  1  0
  6 16  1  0
M  END
>  <reaction>  (1) 
rxn_1185

>  <mol_properties>  (1) 
{"2": {"label": "donator", "atom_type": "Cs"}, "9": {"label": "d_hydrogen", "atom_type": "H0"}}

>  <type>  (1) 
r1h

$$$$

     RDKit          3D

 20 20  0  0  0  0  0  0  0  0999 V2000
   -2.4774    0.8083    0.1488 C   0  0  0  0  0  0  0  0  0  0  0  0
   -1.4172   -0.1696   -0.2476 C   0  0  0  0  0  3  0  0  0  0  0  0
   -0.2904    0.2932   -1.1156 C   0  0  0  0  0  0  0  0  0  0  0  0
   -1.4797   -1.5204    0.1947 C   0  0  0  0  0  0  0  0  0  0  0  0
   -0.4907   -2.4664   -0.1650 C   0  0  0  0  0  0  0  0  0  0  0  0
   -0.5559   -3.7750    0.2665 C   0  0  0  0  0  0  0  0  0  0  0  0
   -1.6038   -4.2041    1.0733 C   0  0  0  0  0  0  0  0  0  0  0  0
   -2.5899   -3.2959    1.4424 C   0  0  0  0  0  0  0  0  0  0  0  0
   -2.5339   -1.9852    1.0162 C   0  0  0  0  0  0  0  0  0  0  0  0
   -3.4697    0.4933   -0.1924 H   0  0  0  0  0  0  0  0  0  0  0  0
   -2.5434    0.9184    1.2368 H   0  0  0  0  0  0  0  0  0  0  0  0
   -2.2829    1.7944   -0.2706 H   0  0  0  0  0  0  0  0  0  0  0  0
   -0.2452   -0.2661   -2.0565 H   0  0  0  0  0  0  0  0  0  0  0  0
   -0.3905    1.3487   -1.3647 H   0  0  0  0  0  0  0  0  0  0  0  0
    0.6811    0.1589   -0.6274 H   0  0  0  0  0  0  0  0  0  0  0  0
    0.3373   -2.1635   -0.7918 H   0  0  0  0  0  0  0  0  0  0  0  0
    0.2187   -4.4725   -0.0281 H   0  0  0  0  0  0  0  0  0  0  0  0
   -1.6513   -5.2316    1.4097 H   0  0  0  0  0  0  0  0  0  0  0  0
   -3.4116   -3.6175    2.0706 H   0  0  0  0  0  0  0  0  0  0  0  0
   -3.3164   -1.3029    1.3205 H   0  0  0  0  0  0  0  0  0  0  0  0
  1  2  1  0
  1 10  1  0
  1 11  1  0
  1 12  1  0
  2  3  1  0
  2  4  1  0
  3 13  1  0
  3 14  1  0
  3 15  1  0
  4  5  2  0
  4  9  1  0
  5  6  1  0
  5 16  1  0
  6  7  2  0
  6 17  1  0
  7  8  1  0
  7 18  1  0
  8  9  2  0
  8 19  1  0
  9 20  1  0
M  RAD  1   2   2
M  END
>  <reaction>  (2) 
rxn_1185

>  <mol_properties>  (2) 
{"1": {"label": "acceptor", "atom_type": "Cs"}}

>  <type>  (2) 
r2

$$$$

     RDKit          3D

 21 21  0  0  0  0  0  0  0  0999 V2000
   -1.3695    1.3367   -1.0719 C   0  0  0  0  0  0  0  0  0  0  0  0
   -1.4091   -0.0981   -0.5428 C   0  0  0  0  0  0  0  0  0  0  0  0
   -0.1819   -0.3999    0.3191 C   0  0  0  0  0  0  0  0  0  0  0  0
   -1.5636   -1.1028   -1.6652 C   0  0  0  0  0  0  0  0  0  0  0  0
   -0.5920   -1.2314   -2.6553 C   0  0  0  0  0  0  0  0  0  0  0  0
   -0.7353   -2.1509   -3.6809 C   0  0  0  0  0  0  0  0  0  0  0  0
   -1.8582   -2.9642   -3.7377 C   0  0  0  0  0  0  0  0  0  0  0  0
   -2.8325   -2.8475   -2.7602 C   0  0  0  0  0  0  0  0  0  0  0  0
   -2.6828   -1.9241   -1.7351 C   0  0  0  0  0  0  0  0  0  0  0  0
   -0.4920    1.4974   -1.7025 H   0  0  0  0  0  0  0  0  0  0  0  0
   -2.2553    1.5607   -1.6679 H   0  0  0  0  0  0  0  0  0  0  0  0
   -1.3211    2.0496   -0.2461 H   0  0  0  0  0  0  0  0  0  0  0  0
   -2.2930   -0.1918    0.0948 H   0  0  0  0  0  0  0  0  0  0  0  0
   -0.1215    0.2955    1.1588 H   0  0  0  0  0  0  0  0  0  0  0  0
   -0.2200   -1.4155    0.7159 H   0  0  0  0  0  0  0  0  0  0  0  0
    0.7383   -0.3016   -0.2615 H   0  0  0  0  0  0  0  0  0  0  0  0
    0.2915   -0.6040   -2.6263 H   0  0  0  0  0  0  0  0  0  0  0  0
    0.0326   -2.2338   -4.4401 H   0  0  0  0  0  0  0  0  0  0  0  0
   -1.9712   -3.6833   -4.5391 H   0  0  0  0  0  0  0  0  0  0  0  0
   -3.7135   -3.4765   -2.7932 H   0  0  0  0  0  0  0  0  0  0  0  0
   -3.4509   -1.8400   -0.9743 H   0  0  0  0  0  0  0  0  0  0  0  0
  1  2  1  0
  1 10  1  0
  1 11  1  0
  1 12  1  0
  2  3  1  0
  2  4  1  0
  2 13  1  0
  3 14  1  0
  3 15  1  0
  3 16  1  0
  4  5  2  0
  4  9  1  0
  5  6  1  0
  5 17  1  0
  6  7  2  0
  6 18  1  0
  7  8  1  0
  7 19  1  0
  8  9  2  0
  8 20  1  0
  9 21  1  0
M  END
>  <reaction>  (3) 
rxn_1185

>  <mol_properties>  (3) 
{"0": {"label": "a_hydrogen", "atom_type": "H0"}, "2": {"label": "acceptor", "atom_type": "Cs"}}

>  <type>  (3) 
r2h

$$$$

     RDKit          3D

 36 35  0  0  0  0  0  0  0  0999 V2000
   -0.3524   -3.3755   -0.2658 C   0  0  0  0  0  0  0  0  0  0  0  0
    0.1638   -2.2608    0.2497 C   0  0  0  0  0  0  0  0  0  0  0  0
   -0.4243   -1.3851    1.2811 C   0  0  0  0  0  0  0  0  0  0  0  0
    0.5872   -0.8097    2.2497 C   0  0  0  0  0  0  0  0  0  0  0  0
   -1.7346   -1.7702    1.8258 C   0  0  0  0  0  0  0  0  0  0  0  0
   -2.1599   -1.5810    3.0732 C   0  0  0  0  0  0  0  0  0  0  0  0
    0.1690   -3.9141   -1.0465 H   0  0  0  0  0  0  0  0  0  0  0  0
   -1.2885   -3.7986    0.0768 H   0  0  0  0  0  0  0  0  0  0  0  0
    1.1212   -1.9161   -0.1333 H   0  0  0  0  0  0  0  0  0  0  0  0
   -0.7117   -0.3208    0.5654 H   0  0  0  0  0  0  0  0  0  0  0  0
    1.4586   -0.4367    1.7091 H   0  0  0  0  0  0  0  0  0  0  0  0
    0.1656    0.0208    2.8181 H   0  0  0  0  0  0  0  0  0  0  0  0
    0.9266   -1.5672    2.9619 H   0  0  0  0  0  0  0  0  0  0  0  0
   -2.4252   -2.2107    1.1124 H   0  0  0  0  0  0  0  0  0  0  0  0
   -1.5286   -1.1518    3.8416 H   0  0  0  0  0  0  0  0  0  0  0  0
   -3.1621   -1.8646    3.3675 H   0  0  0  0  0  0  0  0  0  0  0  0
   -2.0862    0.2166   -1.0827 C   0  0  0  0  0  0  0  0  0  0  0  0
   -1.0187    0.8064   -0.1904 C   0  0  0  0  0  3  0  0  0  0  0  0
   -1.5523    1.7502    0.8592 C   0  0  0  0  0  0  0  0  0  0  0  0
    0.2855    1.1133   -0.8036 C   0  0  0  0  0  0  0  0  0  0  0  0
    1.1766    2.0285   -0.2262 C   0  0  0  0  0  0  0  0  0  0  0  0
    2.4283    2.2587   -0.7698 C   0  0  0  0  0  0  0  0  0  0  0  0
    2.8366    1.5813   -1.9090 C   0  0  0  0  0  0  0  0  0  0  0  0
    1.9696    0.6742   -2.4998 C   0  0  0  0  0  0  0  0  0  0  0  0
    0.7171    0.4449   -1.9585 C   0  0  0  0  0  0  0  0  0  0  0  0
   -1.7715   -0.7259   -1.5338 H   0  0  0  0  0  0  0  0  0  0  0  0
   -2.9882    0.0138   -0.5042 H   0  0  0  0  0  0  0  0  0  0  0  0
   -2.3519    0.9040   -1.8925 H   0  0  0  0  0  0  0  0  0  0  0  0
   -1.8441    2.7097    0.4172 H   0  0  0  0  0  0  0  0  0  0  0  0
   -2.4329    1.3181    1.3361 H   0  0  0  0  0  0  0  0  0  0  0  0
   -0.8269    1.9559    1.6461 H   0  0  0  0  0  0  0  0  0  0  0  0
    0.8892    2.5767    0.6603 H   0  0  0  0  0  0  0  0  0  0  0  0
    3.0897    2.9758   -0.2995 H   0  0  0  0  0  0  0  0  0  0  0  0
    3.8158    1.7616   -2.3336 H   0  0  0  0  0  0  0  0  0  0  0  0
    2.2702    0.1396   -3.3925 H   0  0  0  0  0  0  0  0  0  0  0  0
    0.0666   -0.2719   -2.4401 H   0  0  0  0  0  0  0  0  0  0  0  0
  1  2  2  3
  1  7  1  0
  1  8  1  0
  2  3  1  0
  2  9  1  0
  3  4  1  0
  3  5  1  0
  3 10  1  0
  4 11  1  0
  4 12  1  0
  4 13  1  0
  5  6  2  3
  5 14  1  0
  6 15  1  0
  6 16  1  0
 17 18  1  0
 17 26  1  0
 17 27  1  0
 17 28  1  0
 18 19  1  0
 18 20  1  0
 19 29  1  0
 19 30  1  0
 19 31  1  0
 20 21  2  0
 20 25  1  0
 21 22  1  0
 21 32  1  0
 22 23  2  0
 22 33  1  0
 23 24  1  0
 23 34  1  0
 24 25  2  0
 24 35  1  0
 25 36  1  0
M  RAD  1  18   2
M  END
>  <reaction>  (4) 
rxn_1185

>  <mol_properties>  (4) 
{"1": {"label": "*0", "atom_type": "Cd"}, "2": {"label": "*1", "atom_type": "Cs"}, "9": {"label": "*2", "atom_type": "H0"}, "17": {"label": "*3", "atom_type": "Cs"}, "19": {"label": "*4", "atom_type": "Cd"}}

>  <type>  (4) 
ts

$$$$

     RDKit          3D

 36 35  0  0  0  0  0  0  0  0999 V2000
   -0.3381   -2.5741   -0.3607 C   0  0  0  0  0  0  0  0  0  0  0  0
   -0.3381   -2.5741    0.9625 C   0  0  0  0  0  0  0  0  0  0  0  0
   -0.3381   -1.3433    1.8319 C   0  0  0  0  0  3  0  0  0  0  0  0
    0.9003   -1.3135    2.7235 C   0  0  0  0  0  0  0  0  0  0  0  0
   -1.6416   -1.2747    2.5884 C   0  0  0  0  0  0  0  0  0  0  0  0
   -1.7963   -1.2745    3.9034 C   0  0  0  0  0  0  0  0  0  0  0  0
   -0.3389   -3.4967   -0.9274 H   0  0  0  0  0  0  0  0  0  0  0  0
   -0.3364   -1.6483   -0.9264 H   0  0  0  0  0  0  0  0  0  0  0  0
   -0.3429   -3.5199    1.5002 H   0  0  0  0  0  0  0  0  0  0  0  0
   -0.3015   -0.2989    1.0331 H   0  0  0  0  0  0  0  0  0  0  0  0
    1.8030   -1.3219    2.1123 H   0  0  0  0  0  0  0  0  0  0  0  0
    0.9149   -0.4177    3.3466 H   0  0  0  0  0  0  0  0  0  0  0  0
    0.9328   -2.1853    3.3811 H   0  0  0  0  0  0  0  0  0  0  0  0
   -2.5248   -1.2390    1.9559 H   0  0  0  0  0  0  0  0  0  0  0  0
   -0.9559   -1.3138    4.5859 H   0  0  0  0  0  0  0  0  0  0  0  0
   -2.7827   -1.2314    4.3476 H   0  0  0  0  0  0  0  0  0  0  0  0
   -1.5204    1.5754    0.5032 C   0  0  0  0  0  0  0  0  0  0  0  0
   -0.2650    0.7433    0.2359 C   0  0  0  0  0  0  0  0  0  0  0  0
    0.8001    0.9969    1.3042 C   0  0  0  0  0  0  0  0  0  0  0  0
    0.2755    0.9808   -1.1586 C   0  0  0  0  0  0  0  0  0  0  0  0
    0.7251    2.2395   -1.5518 C   0  0  0  0  0  0  0  0  0  0  0  0
    1.2191    2.4546   -2.8276 C   0  0  0  0  0  0  0  0  0  0  0  0
    1.2739    1.4107   -3.7403 C   0  0  0  0  0  0  0  0  0  0  0  0
    0.8304    0.1539   -3.3635 C   0  0  0  0  0  0  0  0  0  0  0  0
    0.3365   -0.0549   -2.0835 C   0  0  0  0  0  0  0  0  0  0  0  0
   -2.2896    1.3785   -0.2450 H   0  0  0  0  0  0  0  0  0  0  0  0
   -1.9317    1.3450    1.4882 H   0  0  0  0  0  0  0  0  0  0  0  0
   -1.2947    2.6440    0.4782 H   0  0  0  0  0  0  0  0  0  0  0  0
    1.1093    2.0446    1.3080 H   0  0  0  0  0  0  0  0  0  0  0  0
    0.4122    0.7606    2.2972 H   0  0  0  0  0  0  0  0  0  0  0  0
    1.6873    0.3870    1.1277 H   0  0  0  0  0  0  0  0  0  0  0  0
    0.6895    3.0661   -0.8515 H   0  0  0  0  0  0  0  0  0  0  0  0
    1.5632    3.4414   -3.1118 H   0  0  0  0  0  0  0  0  0  0  0  0
    1.6599    1.5779   -4.7379 H   0  0  0  0  0  0  0  0  0  0  0  0
    0.8679   -0.6690   -4.0665 H   0  0  0  0  0  0  0  0  0  0  0  0
   -0.0083   -1.0424   -1.7976 H   0  0  0  0  0  0  0  0  0  0  0  0
  1  2  2  3
  1  7  1  0
  1  8  1  0
  2  3  1  0
  2  9  1  0
  3  4  1  0
  3  5  1  0
  4 11  1  0
  4 12  1  0
  4 13  1  0
  5  6  2  3
  5 14  1  0
  6 15  1  0
  6 16  1  0
 10 18  1  0
 17 18  1  0
 17 26  1  0
 17 27  1  0
 17 28  1  0
 18 19  1  0
 18 20  1  0
 19 29  1  0
 19 30  1  0
 19 31  1  0
 20 21  2  0
 20 25  1  0
 21 22  1  0
 21 32  1  0
 22 23  2  0
 22 33  1  0
 23 24  1  0
 23 34  1  0
 24 25  2  0
 24 35  1  0
 25 36  1  0
M  RAD  1   3   2
M  END
>  <reaction>  (5) 
rxn_1185

>  <mol_properties>  (5) 
{"1": {"label": "*0", "atom_type": "Cd"}, "2": {"label": "*1", "atom_type": "Cs"}, "9": {"label": "*2", "atom_type": "H0"}, "17": {"label": "*3", "atom_type": "Cs"}, "19": {"label": "*4", "atom_type": "Cd"}}

>  <type>  (5) 
unop_1

>  <geom_source>  (5) 
Heuristics

$$$$

     RDKit          3D

 36 35  0  0  0  0  0  0  0  0999 V2000
   -0.7872   -2.8989   -1.0698 C   0  0  0  0  0  0  0  0  0  0  0  0
   -0.7872   -2.8989    0.2534 C   0  0  0  0  0  0  0  0  0  0  0  0
   -0.7872   -1.6681    1.1228 C   0  0  0  0  0  3  0  0  0  0  0  0
    0.4511   -1.6383    2.0144 C   0  0  0  0  0  0  0  0  0  0  0  0
   -2.0907   -1.5995    1.8793 C   0  0  0  0  0  0  0  0  0  0  0  0
   -2.2454   -1.5993    3.1942 C   0  0  0  0  0  0  0  0  0  0  0  0
   -0.7880   -3.8215   -1.6365 H   0  0  0  0  0  0  0  0  0  0  0  0
   -0.7855   -1.9731   -1.6355 H   0  0  0  0  0  0  0  0  0  0  0  0
   -0.7920   -3.8447    0.7910 H   0  0  0  0  0  0  0  0  0  0  0  0
   -0.7506   -0.6237    0.3240 H   0  0  0  0  0  0  0  0  0  0  0  0
    1.3539   -1.6467    1.4031 H   0  0  0  0  0  0  0  0  0  0  0  0
    0.4658   -0.7425    2.6375 H   0  0  0  0  0  0  0  0  0  0  0  0
    0.4837   -2.5101    2.6720 H   0  0  0  0  0  0  0  0  0  0  0  0
   -2.9739   -1.5638    1.2468 H   0  0  0  0  0  0  0  0  0  0  0  0
   -1.4050   -1.6386    3.8768 H   0  0  0  0  0  0  0  0  0  0  0  0
   -3.2318   -1.5562    3.6385 H   0  0  0  0  0  0  0  0  0  0  0  0
   -1.4188    0.0314   -1.7746 C   0  0  0  0  0  0  0  0  0  0  0  0
   -0.7141    0.4185   -0.4732 C   0  0  0  0  0  0  0  0  0  0  0  0
   -1.6462    1.2168    0.4400 C   0  0  0  0  0  0  0  0  0  0  0  0
    0.5786    1.1614   -0.7382 C   0  0  0  0  0  0  0  0  0  0  0  0
    0.5813    2.3898   -1.3954 C   0  0  0  0  0  0  0  0  0  0  0  0
    1.7646    3.0677   -1.6368 C   0  0  0  0  0  0  0  0  0  0  0  0
    2.9748    2.5285   -1.2239 C   0  0  0  0  0  0  0  0  0  0  0  0
    2.9875    1.3080   -0.5694 C   0  0  0  0  0  0  0  0  0  0  0  0
    1.7982    0.6339   -0.3306 C   0  0  0  0  0  0  0  0  0  0  0  0
   -0.7627   -0.5575   -2.4171 H   0  0  0  0  0  0  0  0  0  0  0  0
   -2.3148   -0.5570   -1.5661 H   0  0  0  0  0  0  0  0  0  0  0  0
   -1.7256    0.9189   -2.3328 H   0  0  0  0  0  0  0  0  0  0  0  0
   -1.9611    2.1469   -0.0386 H   0  0  0  0  0  0  0  0  0  0  0  0
   -2.5444    0.6403    0.6708 H   0  0  0  0  0  0  0  0  0  0  0  0
   -1.1523    1.4739    1.3781 H   0  0  0  0  0  0  0  0  0  0  0  0
   -0.3550    2.8255   -1.7248 H   0  0  0  0  0  0  0  0  0  0  0  0
    1.7432    4.0214   -2.1495 H   0  0  0  0  0  0  0  0  0  0  0  0
    3.9004    3.0576   -1.4121 H   0  0  0  0  0  0  0  0  0  0  0  0
    3.9255    0.8766   -0.2422 H   0  0  0  0  0  0  0  0  0  0  0  0
    1.8182   -0.3211    0.1826 H   0  0  0  0  0  0  0  0  0  0  0  0
  1  2  2  3
  1  7  1  0
  1  8  1  0
  2  3  1  0
  2  9  1  0
  3  4  1  0
  3  5  1  0
  4 11  1  0
  4 12  1  0
  4 13  1  0
  5  6  2  3
  5 14  1  0
  6 15  1  0
  6 16  1  0
 10 18  1  0
 17 18  1  0
 17 26  1  0
 17 27  1  0
 17 28  1  0
 18 19  1  0
 18 20  1  0
 19 29  1  0
 19 30  1  0
 19 31  1  0
 20 21  2  0
 20 25  1  0
 21 22  1  0
 21 32  1  0
 22 23  2  0
 22 33  1  0
 23 24  1  0
 23 34  1  0
 24 25  2  0
 24 35  1  0
 25 36  1  0
M  RAD  1   3   2
M  END
>  <reaction>  (6) 
rxn_1185

>  <mol_properties>  (6) 
{"1": {"label": "*0", "atom_type": "Cd"}, "2": {"label": "*1", "atom_type": "Cs"}, "9": {"label": "*2", "atom_type": "H0"}, "17": {"label": "*3", "atom_type": "Cs"}, "19": {"label": "*4", "atom_type": "Cd"}}

>  <type>  (6) 
unop_2

>  <geom_source>  (6) 
Heuristics

$$$$

     RDKit          3D

 36 35  0  0  0  0  0  0  0  0999 V2000
    0.1720   -2.4167   -0.2626 C   0  0  0  0  0  0  0  0  0  0  0  0
    0.1720   -2.4167    1.0607 C   0  0  0  0  0  0  0  0  0  0  0  0
    0.1720   -1.1860    1.9301 C   0  0  0  0  0  3  0  0  0  0  0  0
    1.4104   -1.1562    2.8217 C   0  0  0  0  0  0  0  0  0  0  0  0
   -1.1315   -1.1174    2.6866 C   0  0  0  0  0  0  0  0  0  0  0  0
   -1.2861   -1.1171    4.0015 C   0  0  0  0  0  0  0  0  0  0  0  0
    0.1713   -3.3394   -0.8293 H   0  0  0  0  0  0  0  0  0  0  0  0
    0.1738   -1.4910   -0.8283 H   0  0  0  0  0  0  0  0  0  0  0  0
    0.1673   -3.3626    1.5983 H   0  0  0  0  0  0  0  0  0  0  0  0
    0.2086   -0.1416    1.1313 H   0  0  0  0  0  0  0  0  0  0  0  0
    2.3132   -1.1645    2.2104 H   0  0  0  0  0  0  0  0  0  0  0  0
    1.4251   -0.2604    3.4448 H   0  0  0  0  0  0  0  0  0  0  0  0
    1.4430   -2.0279    3.4793 H   0  0  0  0  0  0  0  0  0  0  0  0
   -2.0147   -1.0817    2.0541 H   0  0  0  0  0  0  0  0  0  0  0  0
   -0.4458   -1.1565    4.6841 H   0  0  0  0  0  0  0  0  0  0  0  0
   -2.2725   -1.0740    4.4458 H   0  0  0  0  0  0  0  0  0  0  0  0
   -0.4815    2.0481    1.0378 C   0  0  0  0  0  0  0  0  0  0  0  0
    0.2451    0.9006    0.3340 C   0  0  0  0  0  0  0  0  0  0  0  0
    1.7390    0.9125    0.6628 C   0  0  0  0  0  0  0  0  0  0  0  0
    0.0024    0.9196   -1.1606 C   0  0  0  0  0  0  0  0  0  0  0  0
    0.4192    1.9935   -1.9441 C   0  0  0  0  0  0  0  0  0  0  0  0
    0.1963    2.0088   -3.3109 C   0  0  0  0  0  0  0  0  0  0  0  0
   -0.4509    0.9459   -3.9248 C   0  0  0  0  0  0  0  0  0  0  0  0
   -0.8710   -0.1286   -3.1585 C   0  0  0  0  0  0  0  0  0  0  0  0
   -0.6445   -0.1378   -1.7893 C   0  0  0  0  0  0  0  0  0  0  0  0
   -1.5508    2.0273    0.8226 H   0  0  0  0  0  0  0  0  0  0  0  0
   -0.3470    1.9821    2.1195 H   0  0  0  0  0  0  0  0  0  0  0  0
   -0.0932    3.0158    0.7122 H   0  0  0  0  0  0  0  0  0  0  0  0
    2.2073    1.8395    0.3237 H   0  0  0  0  0  0  0  0  0  0  0  0
    1.8960    0.8352    1.7407 H   0  0  0  0  0  0  0  0  0  0  0  0
    2.2548    0.0813    0.1799 H   0  0  0  0  0  0  0  0  0  0  0  0
    0.9263    2.8322   -1.4810 H   0  0  0  0  0  0  0  0  0  0  0  0
    0.5290    2.8541   -3.9006 H   0  0  0  0  0  0  0  0  0  0  0  0
   -0.6257    0.9570   -4.9931 H   0  0  0  0  0  0  0  0  0  0  0  0
   -1.3772   -0.9643   -3.6256 H   0  0  0  0  0  0  0  0  0  0  0  0
   -0.9770   -0.9835   -1.1976 H   0  0  0  0  0  0  0  0  0  0  0  0
  1  2  2  3
  1  7  1  0
  1  8  1  0
  2  3  1  0
  2  9  1  0
  3  4  1  0
  3  5  1  0
  4 11  1  0
  4 12  1  0
  4 13  1  0
  5  6  2  3
  5 14  1  0
  6 15  1  0
  6 16  1  0
 10 18  1  0
 17 18  1  0
 17 26  1  0
 17 27  1  0
 17 28  1  0
 18 19  1  0
 18 20  1  0
 19 29  1  0
 19 30  1  0
 19 31  1  0
 20 21  2  0
 20 25  1  0
 21 22  1  0
 21 32  1  0
 22 23  2  0
 22 33  1  0
 23 24  1  0
 23 34  1  0
 24 25  2  0
 24 35  1  0
 25 36  1  0
M  RAD  1   3   2
M  END
>  <reaction>  (7) 
rxn_1185

>  <mol_properties>  (7) 
{"1": {"label": "*0", "atom_type": "Cd"}, "2": {"label": "*1", "atom_type": "Cs"}, "9": {"label": "*2", "atom_type": "H0"}, "17": {"label": "*3", "atom_type": "Cs"}, "19": {"label": "*4", "atom_type": "Cd"}}

>  <type>  (7) 
unop_3

>  <geom_source>  (7) 
Heuristics

$$$$

     RDKit          3D

 36 34  0  0  0  0  0  0  0  0999 V2000
   -0.1492   -2.8572   -2.1696 C   0  0  0  0  0  3  0  0  0  0  0  0
   -0.1492   -2.8572   -0.8464 C   0  0  0  0  0  0  0  0  0  0  0  0
   -0.1492   -1.6265    0.0230 C   0  0  0  0  0  3  0  0  0  0  0  0
    1.0892   -1.5967    0.9146 C   0  0  0  0  0  3  0  0  0  0  0  0
   -1.4527   -1.5579    0.7795 C   0  0  0  0  0  0  0  0  0  0  0  0
   -1.6073   -1.5577    2.0945 C   0  0  0  0  0  0  0  0  0  0  0  0
   -0.1499   -3.7799   -2.7363 H   0  0  0  0  0  0  0  0  0  0  0  0
   -0.1474   -1.9315   -2.7353 H   0  0  0  0  0  0  0  0  0  0  0  0
   -0.1539   -3.8031   -0.3088 H   0  0  0  0  0  0  0  0  0  0  0  0
   -0.1126   -0.5821   -0.7758 H   0  0  0  0  0  0  0  0  0  0  0  0
    1.9920   -1.6050    0.3034 H   0  0  0  0  0  0  0  0  0  0  0  0
    1.1039   -0.7009    1.5377 H   0  0  0  0  0  0  0  0  0  0  0  0
    1.1218   -2.4684    1.5722 H   0  0  0  0  0  0  0  0  0  0  0  0
   -2.3359   -1.5222    0.1470 H   0  0  0  0  0  0  0  0  0  0  0  0
   -0.7670   -1.5970    2.7770 H   0  0  0  0  0  0  0  0  0  0  0  0
   -2.5937   -1.5145    2.5387 H   0  0  0  0  0  0  0  0  0  0  0  0
    1.2051    0.3638   -2.4032 C   0  0  0  0  0  0  0  0  0  0  0  0
   -0.0761    0.4601   -1.5730 C   0  0  0  0  0  0  0  0  0  0  0  0
   -1.1862    1.1639   -2.3555 C   0  0  0  0  0  0  0  0  0  0  0  0
    0.1737    1.1269   -0.2365 C   0  0  0  0  0  0  0  0  0  0  0  0
    0.6164    2.4457   -0.1614 C   0  0  0  0  0  0  0  0  0  0  0  0
    0.8442    3.0537    1.0619 C   0  0  0  0  0  0  0  0  0  0  0  0
    0.6330    2.3520    2.2404 C   0  0  0  0  0  0  0  0  0  0  0  0
    0.1929    1.0401    2.1812 C   0  0  0  0  0  0  0  0  0  0  0  0
   -0.0334    0.4368    0.9521 C   0  0  0  0  0  0  0  0  0  0  0  0
    1.9908   -0.1581   -1.8550 H   0  0  0  0  0  0  0  0  0  0  0  0
    1.0198   -0.1747   -3.3349 H   0  0  0  0  0  0  0  0  0  0  0  0
    1.5801    1.3569   -2.6614 H   0  0  0  0  0  0  0  0  0  0  0  0
   -0.8973    2.1857   -2.6120 H   0  0  0  0  0  0  0  0  0  0  0  0
   -1.3957    0.6334   -3.2867 H   0  0  0  0  0  0  0  0  0  0  0  0
   -2.1075    1.2130   -1.7732 H   0  0  0  0  0  0  0  0  0  0  0  0
    0.7865    3.0085   -1.0721 H   0  0  0  0  0  0  0  0  0  0  0  0
    1.1883    4.0800    1.0966 H   0  0  0  0  0  0  0  0  0  0  0  0
    0.8108    2.8264    3.1971 H   0  0  0  0  0  0  0  0  0  0  0  0
    0.0244    0.4818    3.0937 H   0  0  0  0  0  0  0  0  0  0  0  0
   -0.3779   -0.5907    0.9158 H   0  0  0  0  0  0  0  0  0  0  0  0
  1  2  1  0
  1  7  1  0
  1  8  1  0
  2  3  2  3
  2  9  1  0
  3  5  1  0
  4 11  1  0
  4 12  1  0
  4 13  1  0
  5  6  2  3
  5 14  1  0
  6 15  1  0
  6 16  1  0
 10 18  1  0
 17 18  1  0
 17 26  1  0
 17 27  1  0
 17 28  1  0
 18 19  1  0
 18 20  1  0
 19 29  1  0
 19 30  1  0
 19 31  1  0
 20 21  2  0
 20 25  1  0
 21 22  1  0
 21 32  1  0
 22 23  2  0
 22 33  1  0
 23 24  1  0
 23 34  1  0
 24 25  2  0
 24 35  1  0
 25 36  1  0
M  CHG  2   1   1   3  -1
M  RAD  1   4   2
M  END
>  <reaction>  (8) 
rxn_1185

>  <mol_properties>  (8) 
{"1": {"label": "*0", "atom_type": "Cd"}, "2": {"label": "*1", "atom_type": "Cs"}, "9": {"label": "*2", "atom_type": "H0"}, "17": {"label": "*3", "atom_type": "Cs"}, "19": {"label": "*4", "atom_type": "Cd"}}

>  <type>  (8) 
unop_4

>  <geom_source>  (8) 
Heuristics

$$$$

     RDKit          3D

 36 35  0  0  0  0  0  0  0  0999 V2000
    0.8710   -2.3515   -0.6480 C   0  0  0  0  0  0  0  0  0  0  0  0
    0.8710   -2.3515    0.6752 C   0  0  0  0  0  0  0  0  0  0  0  0
    0.8710   -1.1208    1.5446 C   0  0  0  0  0  3  0  0  0  0  0  0
    2.1093   -1.0910    2.4362 C   0  0  0  0  0  0  0  0  0  0  0  0
   -0.4326   -1.0522    2.3011 C   0  0  0  0  0  0  0  0  0  0  0  0
   -0.5872   -1.0519    3.6160 C   0  0  0  0  0  0  0  0  0  0  0  0
    0.8702   -3.2742   -1.2148 H   0  0  0  0  0  0  0  0  0  0  0  0
    0.8727   -1.4258   -1.2138 H   0  0  0  0  0  0  0  0  0  0  0  0
    0.8662   -3.2974    1.2128 H   0  0  0  0  0  0  0  0  0  0  0  0
    0.9076   -0.0764    0.7458 H   0  0  0  0  0  0  0  0  0  0  0  0
    3.0121   -1.0993    1.8249 H   0  0  0  0  0  0  0  0  0  0  0  0
    2.1240   -0.1952    3.0593 H   0  0  0  0  0  0  0  0  0  0  0  0
    2.1419   -1.9627    3.0938 H   0  0  0  0  0  0  0  0  0  0  0  0
   -1.3157   -1.0165    1.6686 H   0  0  0  0  0  0  0  0  0  0  0  0
    0.2532   -1.0913    4.2986 H   0  0  0  0  0  0  0  0  0  0  0  0
   -1.5736   -1.0088    4.0603 H   0  0  0  0  0  0  0  0  0  0  0  0
    0.9443    2.2197    0.8248 C   0  0  0  0  0  0  0  0  0  0  0  0
    0.9441    0.9658   -0.0515 C   0  0  0  0  0  0  0  0  0  0  0  0
    2.2281    0.8726   -0.8776 C   0  0  0  0  0  0  0  0  0  0  0  0
   -0.2893    0.8972   -0.9273 C   0  0  0  0  0  0  0  0  0  0  0  0
   -0.5437    1.8715   -1.8902 C   0  0  0  0  0  0  0  0  0  0  0  0
   -1.6723    1.8069   -2.6902 C   0  0  0  0  0  0  0  0  0  0  0  0
   -2.5736    0.7621   -2.5431 C   0  0  0  0  0  0  0  0  0  0  0  0
   -2.3337   -0.2138   -1.5900 C   0  0  0  0  0  0  0  0  0  0  0  0
   -1.2009   -0.1432   -0.7915 C   0  0  0  0  0  0  0  0  0  0  0  0
    0.0394    2.2757    1.4315 H   0  0  0  0  0  0  0  0  0  0  0  0
    1.8075    2.2210    1.4936 H   0  0  0  0  0  0  0  0  0  0  0  0
    0.9946    3.1242    0.2142 H   0  0  0  0  0  0  0  0  0  0  0  0
    2.3247    1.7286   -1.5494 H   0  0  0  0  0  0  0  0  0  0  0  0
    3.1043    0.8603   -0.2259 H   0  0  0  0  0  0  0  0  0  0  0  0
    2.2396   -0.0330   -1.4860 H   0  0  0  0  0  0  0  0  0  0  0  0
    0.1498    2.6946   -2.0185 H   0  0  0  0  0  0  0  0  0  0  0  0
   -1.8501    2.5753   -3.4324 H   0  0  0  0  0  0  0  0  0  0  0  0
   -3.4562    0.7107   -3.1680 H   0  0  0  0  0  0  0  0  0  0  0  0
   -3.0295   -1.0343   -1.4653 H   0  0  0  0  0  0  0  0  0  0  0  0
   -1.0216   -0.9119   -0.0480 H   0  0  0  0  0  0  0  0  0  0  0  0
  1  2  2  3
  1  7  1  0
  1  8  1  0
  2  3  1  0
  2  9  1  0
  3  4  1  0
  3  5  1  0
  4 11  1  0
  4 12  1  0
  4 13  1  0
  5  6  2  3
  5 14  1  0
  6 15  1  0
  6 16  1  0
 10 18  1  0
 17 18  1  0
 17 26  1  0
 17 27  1  0
 17 28  1  0
 18 19  1  0
 18 20  1  0
 19 29  1  0
 19 30  1  0
 19 31  1  0
 20 21  2  0
 20 25  1  0
 21 22  1  0
 21 32  1  0
 22 23  2  0
 22 33  1  0
 23 24  1  0
 23 34  1  0
 24 25  2  0
 24 35  1  0
 25 36  1  0
M  RAD  1   3   2
M  END
>  <reaction>  (9) 
rxn_1185

>  <mol_properties>  (9) 
{"1": {"label": "*0", "atom_type": "Cd"}, "2": {"label": "*1", "atom_type": "Cs"}, "9": {"label": "*2", "atom_type": "H0"}, "17": {"label": "*3", "atom_type": "Cs"}, "19": {"label": "*4", "atom_type": "Cd"}}

>  <type>  (9) 
unop_5

>  <geom_source>  (9) 
Heuristics

$$$$

     RDKit          3D

 36 33  0  0  0  0  0  0  0  0999 V2000
    0.3563   -2.7525   -2.1974 C   0  0  0  0  0  3  0  0  0  0  0  0
    0.3563   -2.7525   -0.8742 C   0  0  0  0  0  0  0  0  0  0  0  0
    0.3563   -1.5217   -0.0048 C   0  0  0  0  0  2  0  0  0  0  0  0
    1.5946   -1.4919    0.8868 C   0  0  0  0  0  3  0  0  0  0  0  0
   -0.9473   -1.4531    0.7517 C   0  0  0  0  0  0  0  0  0  0  0  0
   -1.1019   -1.4529    2.0666 C   0  0  0  0  0  0  0  0  0  0  0  0
    0.3555   -3.6751   -2.7641 H   0  0  0  0  0  0  0  0  0  0  0  0
    0.3580   -1.8267   -2.7631 H   0  0  0  0  0  0  0  0  0  0  0  0
    0.3515   -3.6983   -0.3366 H   0  0  0  0  0  0  0  0  0  0  0  0
    0.3929   -0.4774   -0.8036 H   0  0  0  0  0  0  0  0  0  0  0  0
    2.4974   -1.5003    0.2756 H   0  0  0  0  0  0  0  0  0  0  0  0
    1.6093   -0.5962    1.5099 H   0  0  0  0  0  0  0  0  0  0  0  0
    1.6272   -2.3637    1.5444 H   0  0  0  0  0  0  0  0  0  0  0  0
   -1.8304   -1.4174    0.1192 H   0  0  0  0  0  0  0  0  0  0  0  0
   -0.2615   -1.4922    2.7492 H   0  0  0  0  0  0  0  0  0  0  0  0
   -2.0883   -1.4098    2.5109 H   0  0  0  0  0  0  0  0  0  0  0  0
    1.8995    0.9083   -1.8476 C   0  0  0  0  0  0  0  0  0  0  0  0
    0.4294    0.5649   -1.6008 C   0  0  0  0  0  0  0  0  0  0  0  0
   -0.4546    1.0867   -2.7350 C   0  0  0  0  0  0  0  0  0  0  0  0
   -0.0415    1.0645   -0.2511 C   0  0  0  0  0  0  0  0  0  0  0  0
   -0.0518    2.4247    0.0497 C   0  0  0  0  0  0  0  0  0  0  0  0
   -0.4829    2.8795    1.2847 C   0  0  0  0  0  0  0  0  0  0  0  0
   -0.9145    1.9793    2.2485 C   0  0  0  0  0  0  0  0  0  0  0  0
   -0.9098    0.6239    1.9637 C   0  0  0  0  0  0  0  0  0  0  0  0
   -0.4766    0.1747    0.7241 C   0  0  0  0  0  3  0  0  0  0  0  0
    2.5339    0.5169   -1.0510 H   0  0  0  0  0  0  0  0  0  0  0  0
    2.2387    0.4867   -2.7960 H   0  0  0  0  0  0  0  0  0  0  0  0
    2.0469    1.9898   -1.8921 H   0  0  0  0  0  0  0  0  0  0  0  0
   -0.3919    2.1747   -2.8115 H   0  0  0  0  0  0  0  0  0  0  0  0
   -0.1391    0.6669   -3.6924 H   0  0  0  0  0  0  0  0  0  0  0  0
   -1.5005    0.8227   -2.5718 H   0  0  0  0  0  0  0  0  0  0  0  0
    0.2820    3.1418   -0.6916 H   0  0  0  0  0  0  0  0  0  0  0  0
   -0.4823    3.9416    1.4968 H   0  0  0  0  0  0  0  0  0  0  0  0
   -1.2516    2.3339    3.2143 H   0  0  0  0  0  0  0  0  0  0  0  0
   -1.2442   -0.0888    2.7074 H   0  0  0  0  0  0  0  0  0  0  0  0
   -0.4766   -0.8883    0.5103 H   0  0  0  0  0  0  0  0  0  0  0  0
  1  2  1  0
  1  7  1  0
  1  8  1  0
  2  3  2  0
  2  9  1  0
  4 11  1  0
  4 12  1  0
  4 13  1  0
  5  6  2  3
  5 14  1  0
  5 36  1  0
  6 15  1  0
  6 16  1  0
 10 18  1  0
 17 18  1  0
 17 26  1  0
 17 27  1  0
 17 28  1  0
 18 19  1  0
 18 20  1  0
 19 29  1  0
 19 30  1  0
 19 31  1  0
 20 21  2  0
 20 25  1  0
 21 22  1  0
 21 32  1  0
 22 23  2  0
 22 33  1  0
 23 24  1  0
 23 34  1  0
 24 25  2  0
 24 35  1  0
M  CHG  2   1   1   3  -1
M  RAD  3   3   2   4   2  25   2
M  END
>  <reaction>  (10) 
rxn_1185

>  <mol_properties>  (10) 
{"1": {"label": "*0", "atom_type": "Cd"}, "2": {"label": "*1", "atom_type": "Cs"}, "9": {"label": "*2", "atom_type": "H0"}, "17": {"label": "*3", "atom_type": "Cs"}, "19": {"label": "*4", "atom_type": "Cd"}}

>  <type>  (10) 
unop_6

>  <geom_source>  (10) 
Heuristics

$$$$

     RDKit          3D

 36 33  0  0  0  0  0  0  0  0999 V2000
    0.8088   -2.5964   -1.9616 C   0  0  0  0  0  3  0  0  0  0  0  0
    0.8088   -2.5964   -0.6383 C   0  0  0  0  0  0  0  0  0  0  0  0
    0.8088   -1.3657    0.2311 C   0  0  0  0  0  2  0  0  0  0  0  0
    2.0472   -1.3359    1.1227 C   0  0  0  0  0  3  0  0  0  0  0  0
   -0.4947   -1.2971    0.9876 C   0  0  0  0  0  0  0  0  0  0  0  0
   -0.6493   -1.2968    2.3025 C   0  0  0  0  0  0  0  0  0  0  0  0
    0.8081   -3.5191   -2.5283 H   0  0  0  0  0  0  0  0  0  0  0  0
    0.8106   -1.6706   -2.5273 H   0  0  0  0  0  0  0  0  0  0  0  0
    0.8041   -3.5423   -0.1007 H   0  0  0  0  0  0  0  0  0  0  0  0
    0.8454   -0.3213   -0.5678 H   0  0  0  0  0  0  0  0  0  0  0  0
    2.9500   -1.3442    0.5114 H   0  0  0  0  0  0  0  0  0  0  0  0
    2.0619   -0.4401    1.7458 H   0  0  0  0  0  0  0  0  0  0  0  0
    2.0798   -2.2076    1.7803 H   0  0  0  0  0  0  0  0  0  0  0  0
   -1.3778   -1.2613    0.3550 H   0  0  0  0  0  0  0  0  0  0  0  0
    0.1911   -1.3362    2.9850 H   0  0  0  0  0  0  0  0  0  0  0  0
   -1.6357   -1.2537    2.7467 H   0  0  0  0  0  0  0  0  0  0  0  0
    2.1505    1.5106   -1.0375 C   0  0  0  0  0  0  0  0  0  0  0  0
    0.8820    0.7209   -1.3650 C   0  0  0  0  0  0  0  0  0  0  0  0
    0.4179    0.9956   -2.7965 C   0  0  0  0  0  0  0  0  0  0  0  0
   -0.2184    0.9907   -0.3602 C   0  0  0  0  0  0  0  0  0  0  0  0
   -0.7550    2.2670   -0.2053 C   0  0  0  0  0  0  0  0  0  0  0  0
   -1.7613    2.5115    0.7143 C   0  0  0  0  0  0  0  0  0  0  0  0
   -2.2537    1.4801    1.5013 C   0  0  0  0  0  0  0  0  0  0  0  0
   -1.7298    0.2060    1.3583 C   0  0  0  0  0  0  0  0  0  0  0  0
   -0.7216   -0.0323    0.4350 C   0  0  0  0  0  3  0  0  0  0  0  0
    2.4955    1.2982   -0.0246 H   0  0  0  0  0  0  0  0  0  0  0  0
    2.9519    1.2565   -1.7343 H   0  0  0  0  0  0  0  0  0  0  0  0
    1.9727    2.5859   -1.1121 H   0  0  0  0  0  0  0  0  0  0  0  0
    0.1778    2.0523   -2.9344 H   0  0  0  0  0  0  0  0  0  0  0  0
    1.2019    0.7363   -3.5110 H   0  0  0  0  0  0  0  0  0  0  0  0
   -0.4737    0.4156   -3.0391 H   0  0  0  0  0  0  0  0  0  0  0  0
   -0.3821    3.0843   -0.8119 H   0  0  0  0  0  0  0  0  0  0  0  0
   -2.1637    3.5117    0.8178 H   0  0  0  0  0  0  0  0  0  0  0  0
   -3.0403    1.6703    2.2204 H   0  0  0  0  0  0  0  0  0  0  0  0
   -2.1055   -0.6074    1.9666 H   0  0  0  0  0  0  0  0  0  0  0  0
   -0.3177   -1.0332    0.3302 H   0  0  0  0  0  0  0  0  0  0  0  0
  1  2  1  0
  1  7  1  0
  1  8  1  0
  2  3  2  0
  2  9  1  0
  4 11  1  0
  4 12  1  0
  4 13  1  0
  5  6  2  3
  5 14  1  0
  5 36  1  0
  6 15  1  0
  6 16  1  0
 10 18  1  0
 17 18  1  0
 17 26  1  0
 17 27  1  0
 17 28  1  0
 18 19  1  0
 18 20  1  0
 19 29  1  0
 19 30  1  0
 19 31  1  0
 20 21  2  0
 20 25  1  0
 21 22  1  0
 21 32  1  0
 22 23  2  0
 22 33  1  0
 23 24  1  0
 23 34  1  0
 24 25  2  0
 24 35  1  0
M  CHG  2   1   1   3  -1
M  RAD  3   3   2   4   2  25   2
M  END
>  <reaction>  (11) 
rxn_1185

>  <mol_properties>  (11) 
{"1": {"label": "*0", "atom_type": "Cd"}, "2": {"label": "*1", "atom_type": "Cs"}, "9": {"label": "*2", "atom_type": "H0"}, "17": {"label": "*3", "atom_type": "Cs"}, "19": {"label": "*4", "atom_type": "Cd"}}

>  <type>  (11) 
unop_7

>  <geom_source>  (11) 
Heuristics

$$$$

     RDKit          3D

 36 35  0  0  0  0  0  0  0  0999 V2000
   -0.5823   -2.7336   -0.5768 C   0  0  0  0  0  0  0  0  0  0  0  0
   -0.5823   -2.7336    0.7465 C   0  0  0  0  0  0  0  0  0  0  0  0
   -0.5823   -1.5028    1.6159 C   0  0  0  0  0  3  0  0  0  0  0  0
    0.6561   -1.4730    2.5075 C   0  0  0  0  0  0  0  0  0  0  0  0
   -1.8858   -1.4342    2.3724 C   0  0  0  0  0  0  0  0  0  0  0  0
   -2.0405   -1.4340    3.6873 C   0  0  0  0  0  0  0  0  0  0  0  0
   -0.5831   -3.6562   -1.1435 H   0  0  0  0  0  0  0  0  0  0  0  0
   -0.5805   -1.8078   -1.1425 H   0  0  0  0  0  0  0  0  0  0  0  0
   -0.5871   -3.6794    1.2841 H   0  0  0  0  0  0  0  0  0  0  0  0
   -0.5457   -0.4585    0.8171 H   0  0  0  0  0  0  0  0  0  0  0  0
    1.5588   -1.4814    1.8962 H   0  0  0  0  0  0  0  0  0  0  0  0
    0.6707   -0.5773    3.1306 H   0  0  0  0  0  0  0  0  0  0  0  0
    0.6886   -2.3448    3.1651 H   0  0  0  0  0  0  0  0  0  0  0  0
   -2.7690   -1.3985    1.7399 H   0  0  0  0  0  0  0  0  0  0  0  0
   -1.2001   -1.4733    4.3699 H   0  0  0  0  0  0  0  0  0  0  0  0
   -3.0269   -1.3909    4.1316 H   0  0  0  0  0  0  0  0  0  0  0  0
   -1.9535    0.9762   -0.2963 C   0  0  0  0  0  0  0  0  0  0  0  0
   -0.5092    0.5838    0.0198 C   0  0  0  0  0  0  0  0  0  0  0  0
   -0.0928    1.0884    1.4025 C   0  0  0  0  0  0  0  0  0  0  0  0
    0.4456    1.0547   -1.0571 C   0  0  0  0  0  0  0  0  0  0  0  0
    0.6120    2.4109   -1.3289 C   0  0  0  0  0  0  0  0  0  0  0  0
    1.4857    2.8395   -2.3142 C   0  0  0  0  0  0  0  0  0  0  0  0
    2.2142    1.9165   -3.0511 C   0  0  0  0  0  0  0  0  0  0  0  0
    2.0591    0.5649   -2.7920 C   0  0  0  0  0  0  0  0  0  0  0  0
    1.1819    0.1420   -1.8032 C   0  0  0  0  0  0  0  0  0  0  0  0
   -2.2594    0.5974   -1.2726 H   0  0  0  0  0  0  0  0  0  0  0  0
   -2.6345    0.5750    0.4572 H   0  0  0  0  0  0  0  0  0  0  0  0
   -2.0709    2.0623   -0.3068 H   0  0  0  0  0  0  0  0  0  0  0  0
   -0.1432    2.1786    1.4531 H   0  0  0  0  0  0  0  0  0  0  0  0
   -0.7550    0.6884    2.1732 H   0  0  0  0  0  0  0  0  0  0  0  0
    0.9295    0.7897    1.6389 H   0  0  0  0  0  0  0  0  0  0  0  0
    0.0509    3.1456   -0.7628 H   0  0  0  0  0  0  0  0  0  0  0  0
    1.5993    3.8989   -2.5086 H   0  0  0  0  0  0  0  0  0  0  0  0
    2.8975    2.2506   -3.8216 H   0  0  0  0  0  0  0  0  0  0  0  0
    2.6218   -0.1655   -3.3601 H   0  0  0  0  0  0  0  0  0  0  0  0
    1.0672   -0.9184   -1.6075 H   0  0  0  0  0  0  0  0  0  0  0  0
  1  2  2  3
  1  7  1  0
  1  8  1  0
  2  3  1  0
  2  9  1  0
  3  4  1  0
  3  5  1  0
  4 11  1  0
  4 12  1  0
  4 13  1  0
  5  6  2  3
  5 14  1  0
  6 15  1  0
  6 16  1  0
 10 18  1  0
 17 18  1  0
 17 26  1  0
 17 27  1  0
 17 28  1  0
 18 19  1  0
 18 20  1  0
 19 29  1  0
 19 30  1  0
 19 31  1  0
 20 21  2  0
 20 25  1  0
 21 22  1  0
 21 32  1  0
 22 23  2  0
 22 33  1  0
 23 24  1  0
 23 34  1  0
 24 25  2  0
 24 35  1  0
 25 36  1  0
M  RAD  1   3   2
M  END
>  <reaction>  (12) 
rxn_1185

>  <mol_properties>  (12) 
{"1": {"label": "*0", "atom_type": "Cd"}, "2": {"label": "*1", "atom_type": "Cs"}, "9": {"label": "*2", "atom_type": "H0"}, "17": {"label": "*3", "atom_type": "Cs"}, "19": {"label": "*4", "atom_type": "Cd"}}

>  <type>  (12) 
unop_8

>  <geom_source>  (12) 
Heuristics

$$$$

     RDKit          3D

 36 34  0  0  0  0  0  0  0  0999 V2000
   -0.5788   -2.9039   -1.8904 C   0  0  0  0  0  3  0  0  0  0  0  0
   -0.5788   -2.9039   -0.5672 C   0  0  0  0  0  0  0  0  0  0  0  0
   -0.5788   -1.6731    0.3022 C   0  0  0  0  0  3  0  0  0  0  0  0
    0.6595   -1.6434    1.1938 C   0  0  0  0  0  3  0  0  0  0  0  0
   -1.8824   -1.6046    1.0588 C   0  0  0  0  0  0  0  0  0  0  0  0
   -2.0370   -1.6043    2.3737 C   0  0  0  0  0  0  0  0  0  0  0  0
   -0.5796   -3.8266   -2.4571 H   0  0  0  0  0  0  0  0  0  0  0  0
   -0.5771   -1.9781   -2.4561 H   0  0  0  0  0  0  0  0  0  0  0  0
   -0.5836   -3.8498   -0.0295 H   0  0  0  0  0  0  0  0  0  0  0  0
   -0.5422   -0.6288   -0.4966 H   0  0  0  0  0  0  0  0  0  0  0  0
    1.5623   -1.6517    0.5826 H   0  0  0  0  0  0  0  0  0  0  0  0
    0.6742   -0.7476    1.8169 H   0  0  0  0  0  0  0  0  0  0  0  0
    0.6921   -2.5151    1.8515 H   0  0  0  0  0  0  0  0  0  0  0  0
   -2.7655   -1.5688    0.4262 H   0  0  0  0  0  0  0  0  0  0  0  0
   -1.1966   -1.6437    3.0562 H   0  0  0  0  0  0  0  0  0  0  0  0
   -3.0234   -1.5612    2.8179 H   0  0  0  0  0  0  0  0  0  0  0  0
    0.2468    0.0018   -2.5604 C   0  0  0  0  0  0  0  0  0  0  0  0
   -0.5057    0.4134   -1.2938 C   0  0  0  0  0  0  0  0  0  0  0  0
   -1.7626    1.2148   -1.6373 C   0  0  0  0  0  0  0  0  0  0  0  0
    0.3901    1.1654   -0.3319 C   0  0  0  0  0  0  0  0  0  0  0  0
    0.9637    2.3847   -0.6857 C   0  0  0  0  0  0  0  0  0  0  0  0
    1.7826    3.0708    0.1954 C   0  0  0  0  0  0  0  0  0  0  0  0
    2.0460    2.5492    1.4541 C   0  0  0  0  0  0  0  0  0  0  0  0
    1.4828    1.3379    1.8197 C   0  0  0  0  0  0  0  0  0  0  0  0
    0.6630    0.6554    0.9320 C   0  0  0  0  0  0  0  0  0  0  0  0
    1.1311   -0.5893   -2.3181 H   0  0  0  0  0  0  0  0  0  0  0  0
   -0.3959   -0.5924   -3.2132 H   0  0  0  0  0  0  0  0  0  0  0  0
    0.5742    0.8787   -3.1238 H   0  0  0  0  0  0  0  0  0  0  0  0
   -1.5075    2.1353   -2.1675 H   0  0  0  0  0  0  0  0  0  0  0  0
   -2.4256    0.6328   -2.2808 H   0  0  0  0  0  0  0  0  0  0  0  0
   -2.3125    1.4895   -0.7360 H   0  0  0  0  0  0  0  0  0  0  0  0
    0.7685    2.8067   -1.6650 H   0  0  0  0  0  0  0  0  0  0  0  0
    2.2179    4.0173   -0.1008 H   0  0  0  0  0  0  0  0  0  0  0  0
    2.6861    3.0848    2.1436 H   0  0  0  0  0  0  0  0  0  0  0  0
    1.6806    0.9202    2.7991 H   0  0  0  0  0  0  0  0  0  0  0  0
    0.2265   -0.2923    1.2272 H   0  0  0  0  0  0  0  0  0  0  0  0
  1  2  1  0
  1  7  1  0
  1  8  1  0
  2  3  2  3
  2  9  1  0
  3  5  1  0
  4 11  1  0
  4 12  1  0
  4 13  1  0
  5  6  2  3
  5 14  1  0
  6 15  1  0
  6 16  1  0
 10 18  1  0
 17 18  1  0
 17 26  1  0
 17 27  1  0
 17 28  1  0
 18 19  1  0
 18 20  1  0
 19 29  1  0
 19 30  1  0
 19 31  1  0
 20 21  2  0
 20 25  1  0
 21 22  1  0
 21 32  1  0
 22 23  2  0
 22 33  1  0
 23 24  1  0
 23 34  1  0
 24 25  2  0
 24 35  1  0
 25 36  1  0
M  CHG  2   1   1   3  -1
M  RAD  1   4   2
M  END
>  <reaction>  (13) 
rxn_1185

>  <mol_properties>  (13) 
{"1": {"label": "*0", "atom_type": "Cd"}, "2": {"label": "*1", "atom_type": "Cs"}, "9": {"label": "*2", "atom_type": "H0"}, "17": {"label": "*3", "atom_type": "Cs"}, "19": {"label": "*4", "atom_type": "Cd"}}

>  <type>  (13) 
unop_9

>  <geom_source>  (13) 
Heuristics

$$$$

     RDKit          3D

 36 35  0  0  0  0  0  0  0  0999 V2000
   -0.7019   -2.8453   -0.8002 C   0  0  0  0  0  0  0  0  0  0  0  0
   -0.7019   -2.8453    0.5230 C   0  0  0  0  0  0  0  0  0  0  0  0
   -0.7019   -1.6146    1.3924 C   0  0  0  0  0  3  0  0  0  0  0  0
    0.5364   -1.5848    2.2840 C   0  0  0  0  0  0  0  0  0  0  0  0
   -2.0055   -1.5460    2.1489 C   0  0  0  0  0  0  0  0  0  0  0  0
   -2.1601   -1.5457    3.4639 C   0  0  0  0  0  0  0  0  0  0  0  0
   -0.7027   -3.7680   -1.3669 H   0  0  0  0  0  0  0  0  0  0  0  0
   -0.7002   -1.9195   -1.3659 H   0  0  0  0  0  0  0  0  0  0  0  0
   -0.7067   -3.7912    1.0606 H   0  0  0  0  0  0  0  0  0  0  0  0
   -0.6653   -0.5702    0.5936 H   0  0  0  0  0  0  0  0  0  0  0  0
    1.4392   -1.5931    1.6728 H   0  0  0  0  0  0  0  0  0  0  0  0
    0.5511   -0.6890    2.9071 H   0  0  0  0  0  0  0  0  0  0  0  0
    0.5690   -2.4565    2.9416 H   0  0  0  0  0  0  0  0  0  0  0  0
   -2.8886   -1.5103    1.5164 H   0  0  0  0  0  0  0  0  0  0  0  0
   -1.3197   -1.5851    4.1464 H   0  0  0  0  0  0  0  0  0  0  0  0
   -3.1465   -1.5026    3.9081 H   0  0  0  0  0  0  0  0  0  0  0  0
   -1.8716    0.4182   -1.0939 C   0  0  0  0  0  0  0  0  0  0  0  0
   -0.6288    0.4720   -0.2036 C   0  0  0  0  0  0  0  0  0  0  0  0
   -0.9343    1.1662    1.1249 C   0  0  0  0  0  0  0  0  0  0  0  0
    0.5403    1.1194   -0.9158 C   0  0  0  0  0  0  0  0  0  0  0  0
    0.4813    2.4458   -1.3379 C   0  0  0  0  0  0  0  0  0  0  0  0
    1.5517    3.0360   -1.9891 C   0  0  0  0  0  0  0  0  0  0  0  0
    2.7081    2.3086   -2.2324 C   0  0  0  0  0  0  0  0  0  0  0  0
    2.7812    0.9889   -1.8184 C   0  0  0  0  0  0  0  0  0  0  0  0
    1.7050    0.4035   -1.1664 C   0  0  0  0  0  0  0  0  0  0  0  0
   -1.6611   -0.0968   -2.0324 H   0  0  0  0  0  0  0  0  0  0  0  0
   -2.6843   -0.1070   -0.5880 H   0  0  0  0  0  0  0  0  0  0  0  0
   -2.2241    1.4236   -1.3355 H   0  0  0  0  0  0  0  0  0  0  0  0
   -1.2531    2.1985    0.9631 H   0  0  0  0  0  0  0  0  0  0  0  0
   -1.7376    0.6485    1.6532 H   0  0  0  0  0  0  0  0  0  0  0  0
   -0.0548    1.1850    1.7701 H   0  0  0  0  0  0  0  0  0  0  0  0
   -0.4144    3.0286   -1.1560 H   0  0  0  0  0  0  0  0  0  0  0  0
    1.4838    4.0686   -2.3085 H   0  0  0  0  0  0  0  0  0  0  0  0
    3.5454    2.7691   -2.7413 H   0  0  0  0  0  0  0  0  0  0  0  0
    3.6781    0.4106   -2.0023 H   0  0  0  0  0  0  0  0  0  0  0  0
    1.7716   -0.6303   -0.8460 H   0  0  0  0  0  0  0  0  0  0  0  0
  1  2  2  3
  1  7  1  0
  1  8  1  0
  2  3  1  0
  2  9  1  0
  3  4  1  0
  3  5  1  0
  4 11  1  0
  4 12  1  0
  4 13  1  0
  5  6  2  3
  5 14  1  0
  6 15  1  0
  6 16  1  0
 10 18  1  0
 17 18  1  0
 17 26  1  0
 17 27  1  0
 17 28  1  0
 18 19  1  0
 18 20  1  0
 19 29  1  0
 19 30  1  0
 19 31  1  0
 20 21  2  0
 20 25  1  0
 21 22  1  0
 21 32  1  0
 22 23  2  0
 22 33  1  0
 23 24  1  0
 23 34  1  0
 24 25  2  0
 24 35  1  0
 25 36  1  0
M  RAD  1   3   2
M  END
>  <reaction>  (14) 
rxn_1185

>  <mol_properties>  (14) 
{"1": {"label": "*0", "atom_type": "Cd"}, "2": {"label": "*1", "atom_type": "Cs"}, "9": {"label": "*2", "atom_type": "H0"}, "17": {"label": "*3", "atom_type": "Cs"}, "19": {"label": "*4", "atom_type": "Cd"}}

>  <type>  (14) 
unop_10

>  <geom_source>  (14) 
Heuristics

$$$$

     RDKit          3D

 36 35  0  0  0  0  0  0  0  0999 V2000
    1.0822   -2.4343   -1.4284 C   0  0  0  0  0  0  0  0  0  0  0  0
    1.0822   -2.4343   -0.1052 C   0  0  0  0  0  0  0  0  0  0  0  0
    1.0822   -1.2035    0.7642 C   0  0  0  0  0  3  0  0  0  0  0  0
    2.3206   -1.1737    1.6558 C   0  0  0  0  0  0  0  0  0  0  0  0
   -0.2213   -1.1349    1.5207 C   0  0  0  0  0  0  0  0  0  0  0  0
   -0.3759   -1.1347    2.8356 C   0  0  0  0  0  0  0  0  0  0  0  0
    1.0815   -3.3569   -1.9952 H   0  0  0  0  0  0  0  0  0  0  0  0
    1.0840   -1.5085   -1.9942 H   0  0  0  0  0  0  0  0  0  0  0  0
    1.0775   -3.3801    0.4324 H   0  0  0  0  0  0  0  0  0  0  0  0
    1.1188   -0.1592   -0.0346 H   0  0  0  0  0  0  0  0  0  0  0  0
    3.2234   -1.1821    1.0445 H   0  0  0  0  0  0  0  0  0  0  0  0
    2.3353   -0.2780    2.2789 H   0  0  0  0  0  0  0  0  0  0  0  0
    2.3532   -2.0455    2.3134 H   0  0  0  0  0  0  0  0  0  0  0  0
   -1.1044   -1.0992    0.8882 H   0  0  0  0  0  0  0  0  0  0  0  0
    0.4645   -1.1740    3.5182 H   0  0  0  0  0  0  0  0  0  0  0  0
   -1.3623   -1.0916    3.2799 H   0  0  0  0  0  0  0  0  0  0  0  0
    1.8859    2.0060   -0.0934 C   0  0  0  0  0  0  0  0  0  0  0  0
    1.1554    0.8831   -0.8318 C   0  0  0  0  0  0  0  0  0  0  0  0
    1.4736    0.9114   -2.3278 C   0  0  0  0  0  0  0  0  0  0  0  0
   -0.3368    0.9264   -0.5777 C   0  0  0  0  0  0  0  0  0  0  0  0
   -1.1030    2.0210   -0.9726 C   0  0  0  0  0  0  0  0  0  0  0  0
   -2.4676    2.0586   -0.7392 C   0  0  0  0  0  0  0  0  0  0  0  0
   -3.0967    0.9977   -0.1034 C   0  0  0  0  0  0  0  0  0  0  0  0
   -2.3478   -0.0972    0.2948 C   0  0  0  0  0  0  0  0  0  0  0  0
   -0.9808   -0.1287    0.0580 C   0  0  0  0  0  0  0  0  0  0  0  0
    1.6780    1.9731    0.9771 H   0  0  0  0  0  0  0  0  0  0  0  0
    2.9651    1.9218   -0.2369 H   0  0  0  0  0  0  0  0  0  0  0  0
    1.5758    2.9855   -0.4648 H   0  0  0  0  0  0  0  0  0  0  0  0
    1.1487    1.8515   -2.7796 H   0  0  0  0  0  0  0  0  0  0  0  0
    2.5486    0.8162   -2.4939 H   0  0  0  0  0  0  0  0  0  0  0  0
    0.9713    0.0972   -2.8523 H   0  0  0  0  0  0  0  0  0  0  0  0
   -0.6277    2.8584   -1.4705 H   0  0  0  0  0  0  0  0  0  0  0  0
   -3.0436    2.9198   -1.0548 H   0  0  0  0  0  0  0  0  0  0  0  0
   -4.1634    1.0262    0.0795 H   0  0  0  0  0  0  0  0  0  0  0  0
   -2.8270   -0.9316    0.7919 H   0  0  0  0  0  0  0  0  0  0  0  0
   -0.4028   -0.9902    0.3734 H   0  0  0  0  0  0  0  0  0  0  0  0
  1  2  2  3
  1  7  1  0
  1  8  1  0
  2  3  1  0
  2  9  1  0
  3  4  1  0
  3  5  1  0
  4 11  1  0
  4 12  1  0
  4 13  1  0
  5  6  2  3
  5 14  1  0
  6 15  1  0
  6 16  1  0
 10 18  1  0
 17 18  1  0
 17 26  1  0
 17 27  1  0
 17 28  1  0
 18 19  1  0
 18 20  1  0
 19 29  1  0
 19 30  1  0
 19 31  1  0
 20 21  2  0
 20 25  1  0
 21 22  1  0
 21 32  1  0
 22 23  2  0
 22 33  1  0
 23 24  1  0
 23 34  1  0
 24 25  2  0
 24 35  1  0
 25 36  1  0
M  RAD  1   3   2
M  END
>  <reaction>  (15) 
rxn_1185

>  <mol_properties>  (15) 
{"1": {"label": "*0", "atom_type": "Cd"}, "2": {"label": "*1", "atom_type": "Cs"}, "9": {"label": "*2", "atom_type": "H0"}, "17": {"label": "*3", "atom_type": "Cs"}, "19": {"label": "*4", "atom_type": "Cd"}}

>  <type>  (15) 
unop_11

>  <geom_source>  (15) 
Heuristics

$$$$

     RDKit          3D

 36 35  0  0  0  0  0  0  0  0999 V2000
   -0.7927   -2.9130   -1.4583 C   0  0  0  0  0  0  0  0  0  0  0  0
   -0.7927   -2.9130   -0.1351 C   0  0  0  0  0  0  0  0  0  0  0  0
   -0.7927   -1.6823    0.7343 C   0  0  0  0  0  3  0  0  0  0  0  0
    0.4457   -1.6525    1.6259 C   0  0  0  0  0  0  0  0  0  0  0  0
   -2.0962   -1.6137    1.4908 C   0  0  0  0  0  0  0  0  0  0  0  0
   -2.2508   -1.6134    2.8057 C   0  0  0  0  0  0  0  0  0  0  0  0
   -0.7934   -3.8357   -2.0251 H   0  0  0  0  0  0  0  0  0  0  0  0
   -0.7909   -1.9873   -2.0241 H   0  0  0  0  0  0  0  0  0  0  0  0
   -0.7974   -3.8589    0.4025 H   0  0  0  0  0  0  0  0  0  0  0  0
   -0.7561   -0.6379   -0.0645 H   0  0  0  0  0  0  0  0  0  0  0  0
    1.3485   -1.6608    1.0146 H   0  0  0  0  0  0  0  0  0  0  0  0
    0.4604   -0.7567    2.2490 H   0  0  0  0  0  0  0  0  0  0  0  0
    0.4783   -2.5242    2.2835 H   0  0  0  0  0  0  0  0  0  0  0  0
   -2.9793   -1.5780    0.8583 H   0  0  0  0  0  0  0  0  0  0  0  0
   -1.4104   -1.6528    3.4883 H   0  0  0  0  0  0  0  0  0  0  0  0
   -3.2372   -1.5703    3.2500 H   0  0  0  0  0  0  0  0  0  0  0  0
   -0.6940   -0.1137   -2.3008 C   0  0  0  0  0  0  0  0  0  0  0  0
   -0.7195    0.4043   -0.8617 C   0  0  0  0  0  0  0  0  0  0  0  0
   -1.9778    1.2334   -0.5985 C   0  0  0  0  0  0  0  0  0  0  0  0
    0.5385    1.1766   -0.5241 C   0  0  0  0  0  0  0  0  0  0  0  0
    0.8681    2.3480   -1.2025 C   0  0  0  0  0  0  0  0  0  0  0  0
    2.0192    3.0528   -0.8922 C   0  0  0  0  0  0  0  0  0  0  0  0
    2.8679    2.5987    0.1073 C   0  0  0  0  0  0  0  0  0  0  0  0
    2.5531    1.4356    0.7902 C   0  0  0  0  0  0  0  0  0  0  0  0
    1.3981    0.7340    0.4744 C   0  0  0  0  0  0  0  0  0  0  0  0
    0.1915   -0.7242   -2.4835 H   0  0  0  0  0  0  0  0  0  0  0  0
   -1.5784   -0.7202   -2.5067 H   0  0  0  0  0  0  0  0  0  0  0  0
   -0.6836    0.7132   -3.0146 H   0  0  0  0  0  0  0  0  0  0  0  0
   -2.0136    2.1088   -1.2510 H   0  0  0  0  0  0  0  0  0  0  0  0
   -2.8752    0.6405   -0.7872 H   0  0  0  0  0  0  0  0  0  0  0  0
   -2.0087    1.5845    0.4340 H   0  0  0  0  0  0  0  0  0  0  0  0
    0.2164    2.7171   -1.9861 H   0  0  0  0  0  0  0  0  0  0  0  0
    2.2557    3.9611   -1.4326 H   0  0  0  0  0  0  0  0  0  0  0  0
    3.7679    3.1489    0.3506 H   0  0  0  0  0  0  0  0  0  0  0  0
    3.2073    1.0707    1.5724 H   0  0  0  0  0  0  0  0  0  0  0  0
    1.1600   -0.1755    1.0146 H   0  0  0  0  0  0  0  0  0  0  0  0
  1  2  2  3
  1  7  1  0
  1  8  1  0
  2  3  1  0
  2  9  1  0
  3  4  1  0
  3  5  1  0
  4 11  1  0
  4 12  1  0
  4 13  1  0
  5  6  2  3
  5 14  1  0
  6 15  1  0
  6 16  1  0
 10 18  1  0
 17 18  1  0
 17 26  1  0
 17 27  1  0
 17 28  1  0
 18 19  1  0
 18 20  1  0
 19 29  1  0
 19 30  1  0
 19 31  1  0
 20 21  2  0
 20 25  1  0
 21 22  1  0
 21 32  1  0
 22 23  2  0
 22 33  1  0
 23 24  1  0
 23 34  1  0
 24 25  2  0
 24 35  1  0
 25 36  1  0
M  RAD  1   3   2
M  END
>  <reaction>  (16) 
rxn_1185

>  <mol_properties>  (16) 
{"1": {"label": "*0", "atom_type": "Cd"}, "2": {"label": "*1", "atom_type": "Cs"}, "9": {"label": "*2", "atom_type": "H0"}, "17": {"label": "*3", "atom_type": "Cs"}, "19": {"label": "*4", "atom_type": "Cd"}}

>  <type>  (16) 
unop_12

>  <geom_source>  (16) 
Heuristics

$$$$

     RDKit          3D

 36 35  0  0  0  0  0  0  0  0999 V2000
    0.3204   -0.3685   -0.7644 C   0  0  0  0  0  0  0  0  0  0  0  0
    0.0816   -1.7999   -1.2560 C   0  0  0  0  0  0  0  0  0  0  0  0
    0.3359    0.6223   -1.9330 C   0  0  0  0  0  0  0  0  0  0  0  0
   -0.7701    1.4871    0.3891 C   0  0  0  0  0  0  0  0  0  0  0  0
    1.5953   -0.2747    0.0499 C   0  0  0  0  0  0  0  0  0  0  0  0
   -1.9320    0.5240    0.1611 C   0  0  0  0  0  3  0  0  0  0  0  0
    2.8491   -0.5664   -0.5230 C   0  0  0  0  0  0  0  0  0  0  0  0
    1.5374    0.1092    1.4015 C   0  0  0  0  0  0  0  0  0  0  0  0
   -3.1471    1.2517   -0.3305 C   0  0  0  0  0  0  0  0  0  0  0  0
   -2.2538   -0.2383    1.4113 C   0  0  0  0  0  0  0  0  0  0  0  0
    4.0153   -0.4748    0.2427 C   0  0  0  0  0  0  0  0  0  0  0  0
    3.9445   -0.0924    1.5841 C   0  0  0  0  0  0  0  0  0  0  0  0
    2.7071    0.1992    2.1626 C   0  0  0  0  0  0  0  0  0  0  0  0
   -3.6907    0.9430   -1.5082 C   0  0  0  0  0  0  0  0  0  0  0  0
   -2.1844   -1.5698    1.4291 C   0  0  0  0  0  0  0  0  0  0  0  0
   -0.7188   -0.0460   -0.0012 H   0  0  0  0  0  0  0  0  0  0  0  0
    0.0730   -2.4997   -0.3934 H   0  0  0  0  0  0  0  0  0  0  0  0
    0.8707   -2.1166   -1.9706 H   0  0  0  0  0  0  0  0  0  0  0  0
   -0.9038   -1.8645   -1.7641 H   0  0  0  0  0  0  0  0  0  0  0  0
    1.1315    0.3683   -2.6652 H   0  0  0  0  0  0  0  0  0  0  0  0
    0.5088    1.6520   -1.5539 H   0  0  0  0  0  0  0  0  0  0  0  0
   -0.6445    0.6055   -2.4545 H   0  0  0  0  0  0  0  0  0  0  0  0
   -0.5250    2.0121   -0.5583 H   0  0  0  0  0  0  0  0  0  0  0  0
    0.1285    0.9220    0.7159 H   0  0  0  0  0  0  0  0  0  0  0  0
   -1.0281    2.2398    1.1654 H   0  0  0  0  0  0  0  0  0  0  0  0
    2.9262   -0.8645   -1.5605 H   0  0  0  0  0  0  0  0  0  0  0  0
    4.9747   -0.7005   -0.2046 H   0  0  0  0  0  0  0  0  0  0  0  0
    0.5894    0.3398    1.8705 H   0  0  0  0  0  0  0  0  0  0  0  0
    4.8484   -0.0221    2.1753 H   0  0  0  0  0  0  0  0  0  0  0  0
    2.6537    0.4954    3.2023 H   0  0  0  0  0  0  0  0  0  0  0  0
   -3.5927    2.0334    0.2788 H   0  0  0  0  0  0  0  0  0  0  0  0
   -2.5514    0.2964    2.3092 H   0  0  0  0  0  0  0  0  0  0  0  0
   -4.5717    1.4728   -1.8554 H   0  0  0  0  0  0  0  0  0  0  0  0
   -3.2636    0.1633   -2.1320 H   0  0  0  0  0  0  0  0  0  0  0  0
   -1.8921   -2.1246    0.5425 H   0  0  0  0  0  0  0  0  0  0  0  0
   -2.4216   -2.1139    2.3375 H   0  0  0  0  0  0  0  0  0  0  0  0
  1  2  1  0
  1  3  1  0
  1  5  1  0
  1 16  1  0
  2 17  1  0
  2 18  1  0
  2 19  1  0
  3 20  1  0
  3 21  1  0
  3 22  1  0
  4  6  1  0
  4 23  1  0
  4 24  1  0
  4 25  1  0
  5  7  2  0
  5  8  1  0
  6  9  1  0
  6 10  1  0
  7 11  1  0
  7 26  1  0
  8 13  2  0
  8 28  1  0
  9 14  2  3
  9 31  1  0
 10 15  2  3
 10 32  1  0
 11 12  2  0
 11 27  1  0
 12 13  1  0
 12 29  1  0
 13 30  1  0
 14 33  1  0
 14 34  1  0
 15 35  1  0
 15 36  1  0
M  RAD  1   6   2
M  END
>  <reaction>  (17) 
rxn_1185

>  <mol_properties>  (17) 
{"1": {"label": "*0", "atom_type": "Cd"}, "2": {"label": "*1", "atom_type": "Cs"}, "9": {"label": "*2", "atom_type": "H0"}, "17": {"label": "*3", "atom_type": "Cs"}, "19": {"label": "*4", "atom_type": "Cd"}}

>  <type>  (17) 
unop_13

>  <geom_source>  (17) 
AutoTST

$$$$

     RDKit          3D

 36 35  0  0  0  0  0  0  0  0999 V2000
   -0.7872   -2.8989   -1.0698 C   0  0  0  0  0  0  0  0  0  0  0  0
   -0.7872   -2.8989    0.2534 C   0  0  0  0  0  0  0  0  0  0  0  0
   -0.7872   -1.6681    1.1228 C   0  0  0  0  0  3  0  0  0  0  0  0
    0.4511   -1.6383    2.0144 C   0  0  0  0  0  0  0  0  0  0  0  0
   -2.0907   -1.5995    1.8793 C   0  0  0  0  0  0  0  0  0  0  0  0
   -2.2454   -1.5993    3.1942 C   0  0  0  0  0  0  0  0  0  0  0  0
   -0.7880   -3.8215   -1.6365 H   0  0  0  0  0  0  0  0  0  0  0  0
   -0.7855   -1.9731   -1.6356 H   0  0  0  0  0  0  0  0  0  0  0  0
   -0.7920   -3.8447    0.7910 H   0  0  0  0  0  0  0  0  0  0  0  0
   -0.7506   -0.6238    0.3240 H   0  0  0  0  0  0  0  0  0  0  0  0
    1.3539   -1.6467    1.4031 H   0  0  0  0  0  0  0  0  0  0  0  0
    0.4658   -0.7426    2.6375 H   0  0  0  0  0  0  0  0  0  0  0  0
    0.4837   -2.5101    2.6720 H   0  0  0  0  0  0  0  0  0  0  0  0
   -2.9739   -1.5638    1.2468 H   0  0  0  0  0  0  0  0  0  0  0  0
   -1.4050   -1.6386    3.8768 H   0  0  0  0  0  0  0  0  0  0  0  0
   -3.2318   -1.5562    3.6385 H   0  0  0  0  0  0  0  0  0  0  0  0
   -1.4188    0.0314   -1.7746 C   0  0  0  0  0  0  0  0  0  0  0  0
   -0.7141    0.4185   -0.4732 C   0  0  0  0  0  0  0  0  0  0  0  0
   -1.6462    1.2168    0.4400 C   0  0  0  0  0  0  0  0  0  0  0  0
    0.5786    1.1614   -0.7382 C   0  0  0  0  0  0  0  0  0  0  0  0
    0.5813    2.3898   -1.3954 C   0  0  0  0  0  0  0  0  0  0  0  0
    1.7647    3.0676   -1.6368 C   0  0  0  0  0  0  0  0  0  0  0  0
    2.9748    2.5285   -1.2239 C   0  0  0  0  0  0  0  0  0  0  0  0
    2.9876    1.3080   -0.5694 C   0  0  0  0  0  0  0  0  0  0  0  0
    1.7982    0.6339   -0.3306 C   0  0  0  0  0  0  0  0  0  0  0  0
   -0.7627   -0.5575   -2.4171 H   0  0  0  0  0  0  0  0  0  0  0  0
   -2.3148   -0.5570   -1.5661 H   0  0  0  0  0  0  0  0  0  0  0  0
   -1.7256    0.9190   -2.3328 H   0  0  0  0  0  0  0  0  0  0  0  0
   -1.9611    2.1469   -0.0386 H   0  0  0  0  0  0  0  0  0  0  0  0
   -2.5444    0.6403    0.6708 H   0  0  0  0  0  0  0  0  0  0  0  0
   -1.1523    1.4739    1.3781 H   0  0  0  0  0  0  0  0  0  0  0  0
   -0.3550    2.8255   -1.7248 H   0  0  0  0  0  0  0  0  0  0  0  0
    1.7432    4.0214   -2.1495 H   0  0  0  0  0  0  0  0  0  0  0  0
    3.9004    3.0576   -1.4121 H   0  0  0  0  0  0  0  0  0  0  0  0
    3.9255    0.8766   -0.2422 H   0  0  0  0  0  0  0  0  0  0  0  0
    1.8182   -0.3211    0.1826 H   0  0  0  0  0  0  0  0  0  0  0  0
  1  2  2  3
  1  7  1  0
  1  8  1  0
  2  3  1  0
  2  9  1  0
  3  4  1  0
  3  5  1  0
  4 11  1  0
  4 12  1  0
  4 13  1  0
  5  6  2  3
  5 14  1  0
  6 15  1  0
  6 16  1  0
 10 18  1  0
 17 18  1  0
 17 26  1  0
 17 27  1  0
 17 28  1  0
 18 19  1  0
 18 20  1  0
 19 29  1  0
 19 30  1  0
 19 31  1  0
 20 21  2  0
 20 25  1  0
 21 22  1  0
 21 32  1  0
 22 23  2  0
 22 33  1  0
 23 24  1  0
 23 34  1  0
 24 25  2  0
 24 35  1  0
 25 36  1  0
M  RAD  1   3   2
M  END
>  <reaction>  (18) 
rxn_1185

>  <mol_properties>  (18) 
{"1": {"label": "*0", "atom_type": "Cd"}, "2": {"label": "*1", "atom_type": "Cs"}, "9": {"label": "*2", "atom_type": "H0"}, "17": {"label": "*3", "atom_type": "Cs"}, "19": {"label": "*4", "atom_type": "Cd"}}

>  <type>  (18) 
unop_14

>  <geom_source>  (18) 
gaussian_log

$$$$
