
     RDKit          3D

 11 10  0  0  0  0  0  0  0  0999 V2000
   -1.2710    0.1907   -0.2084 C   0  0  0  0  0  0  0  0  0  0  0  0
    0.0202   -0.6130   -0.2928 C   0  0  0  0  0  0  0  0  0  0  0  0
    0.1086   -1.6953    0.7756 C   0  0  0  0  0  0  0  0  0  0  0  0
   -1.3607    0.6851    0.7620 H   0  0  0  0  0  0  0  0  0  0  0  0
   -2.1429   -0.4567   -0.3299 H   0  0  0  0  0  0  0  0  0  0  0  0
   -1.3158    0.9602   -0.9809 H   0  0  0  0  0  0  0  0  0  0  0  0
    0.8757    0.0616   -0.1992 H   0  0  0  0  0  0  0  0  0  0  0  0
    0.0997   -1.0712   -1.2825 H   0  0  0  0  0  0  0  0  0  0  0  0
   -0.7198   -2.4022    0.6850 H   0  0  0  0  0  0  0  0  0  0  0  0
    1.0395   -2.2596    0.6989 H   0  0  0  0  0  0  0  0  0  0  0  0
    0.0624   -1.2603    1.7770 H   0  0  0  0  0  0  0  0  0  0  0  0
  1  2  1  0
  1  4  1  0
  1  5  1  0
  1  6  1  0
  2  3  1  0
  2  7  1  0
  2  8  1  0
  3  9  1  0
  3 10  1  0
  3 11  1  0
M  END
>  <reaction>  (1) 
rxn_950

>  <mol_properties>  (1) 
{"1": {"label": "donator", "atom_type": "Cs"}, "6": {"label": "d_hydrogen", "atom_type": "H0"}}

>  <type>  (1) 
r1h

$$$$

     RDKit          3D

  7  6  0  0  0  0  0  0  0  0999 V2000
   -0.6904   -0.9066   -0.0346 C   0  0  0  0  0  0  0  0  0  0  0  0
    0.1413    0.0254   -0.6161 C   0  0  0  0  0  0  0  0  0  0  0  0
    0.4603    0.1105   -1.9267 C   0  0  0  0  0  3  0  0  0  0  0  0
    0.8318    0.2180   -3.4201 S   0  0  0  0  0  0  0  0  0  0  0  0
   -0.8731   -0.8770    1.0287 H   0  0  0  0  0  0  0  0  0  0  0  0
   -1.1718   -1.6767   -0.6199 H   0  0  0  0  0  0  0  0  0  0  0  0
    0.6090    0.7866    0.0044 H   0  0  0  0  0  0  0  0  0  0  0  0
  1  2  2  3
  1  5  1  0
  1  6  1  0
  2  3  1  0
  2  7  1  0
  3  4  2  0
M  RAD  1   3   2
M  END
>  <reaction>  (2) 
rxn_950

>  <mol_properties>  (2) 
{"2": {"label": "acceptor", "atom_type": "CS"}}

>  <type>  (2) 
r2

$$$$

     RDKit          3D

  8  7  0  0  0  0  0  0  0  0999 V2000
   -1.1617    0.0338    0.5053 C   0  0  0  0  0  0  0  0  0  0  0  0
   -0.1023    0.4503   -0.1863 C   0  0  0  0  0  0  0  0  0  0  0  0
    1.0978   -0.3557   -0.3104 C   0  0  0  0  0  0  0  0  0  0  0  0
    2.4251    0.0667   -1.1256 S   0  0  0  0  0  0  0  0  0  0  0  0
   -1.1653   -0.9292    1.0039 H   0  0  0  0  0  0  0  0  0  0  0  0
   -2.0546    0.6389    0.5948 H   0  0  0  0  0  0  0  0  0  0  0  0
   -0.0991    1.4132   -0.6847 H   0  0  0  0  0  0  0  0  0  0  0  0
    1.0601   -1.3180    0.2032 H   0  0  0  0  0  0  0  0  0  0  0  0
  1  2  2  3
  1  5  1  0
  1  6  1  0
  2  3  1  0
  2  7  1  0
  3  4  2  0
  3  8  1  0
M  END
>  <reaction>  (3) 
rxn_950

>  <mol_properties>  (3) 
{"2": {"label": "acceptor", "atom_type": "CS"}, "7": {"label": "a_hydrogen", "atom_type": "H0"}}

>  <type>  (3) 
r2h

$$$$

     RDKit          3D

 18 16  0  0  0  0  0  0  0  0999 V2000
    1.2053    0.8423    1.9256 C   0  0  0  0  0  0  0  0  0  0  0  0
    1.7649    0.1584    0.9285 C   0  0  0  0  0  0  0  0  0  0  0  0
    1.0698   -0.0914   -0.3168 C   0  0  0  0  0  0  0  0  0  0  0  0
    1.6234   -0.7963   -1.6384 S   0  0  0  0  0  0  0  0  0  0  0  0
    1.7386    1.0309    2.8485 H   0  0  0  0  0  0  0  0  0  0  0  0
    0.1992    1.2350    1.8422 H   0  0  0  0  0  0  0  0  0  0  0  0
    2.7761   -0.2289    1.0212 H   0  0  0  0  0  0  0  0  0  0  0  0
   -2.0133    0.2162   -1.6013 C   0  0  0  0  0  0  0  0  0  0  0  0
   -1.3544    1.0669   -0.5514 C   0  0  0  0  0  3  0  0  0  0  0  0
   -0.9747    2.4629   -0.9648 C   0  0  0  0  0  0  0  0  0  0  0  0
   -1.3760    0.1299   -2.4851 H   0  0  0  0  0  0  0  0  0  0  0  0
   -2.9662    0.6530   -1.9223 H   0  0  0  0  0  0  0  0  0  0  0  0
   -2.2150   -0.7911   -1.2344 H   0  0  0  0  0  0  0  0  0  0  0  0
   -0.1594    0.4352   -0.3418 H   0  0  0  0  0  0  0  0  0  0  0  0
   -1.8421    1.0141    0.4233 H   0  0  0  0  0  0  0  0  0  0  0  0
   -1.8606    3.0601   -1.2081 H   0  0  0  0  0  0  0  0  0  0  0  0
   -0.4307    2.9857   -0.1755 H   0  0  0  0  0  0  0  0  0  0  0  0
   -0.3407    2.4428   -1.8549 H   0  0  0  0  0  0  0  0  0  0  0  0
  1  2  2  3
  1  5  1  0
  1  6  1  0
  2  3  1  0
  2  7  1  0
  3  4  2  0
  3 14  1  0
  8  9  1  0
  8 11  1  0
  8 12  1  0
  8 13  1  0
  9 10  1  0
  9 15  1  0
 10 16  1  0
 10 17  1  0
 10 18  1  0
M  RAD  1   9   2
M  END
>  <reaction>  (4) 
rxn_950

>  <mol_properties>  (4) 
{"2": {"label": "*1", "atom_type": "CS"}, "3": {"label": "*0", "atom_type": "S2d"}, "7": {"label": "*4", "atom_type": "Cs"}, "8": {"label": "*3", "atom_type": "Cs"}, "13": {"label": "*2", "atom_type": "H0"}}

>  <type>  (4) 
ts

$$$$

     RDKit          3D

 18 16  0  0  0  0  0  0  0  0999 V2000
    1.8947    1.4334    0.7382 C   0  0  0  0  0  0  0  0  0  0  0  0
    1.5737    0.1761    1.0382 C   0  0  0  0  0  0  0  0  0  0  0  0
    0.6671   -0.6015    0.2144 C   0  0  0  0  0  0  0  0  0  0  0  0
    0.2226   -2.1265    0.4997 S   0  0  0  0  0  0  0  0  0  0  0  0
    2.5715    2.0091    1.3561 H   0  0  0  0  0  0  0  0  0  0  0  0
    1.4873    1.9245   -0.1386 H   0  0  0  0  0  0  0  0  0  0  0  0
    1.9812   -0.3146    1.9150 H   0  0  0  0  0  0  0  0  0  0  0  0
   -1.4299    0.7085   -2.1818 C   0  0  0  0  0  0  0  0  0  0  0  0
   -1.4299    0.7085   -0.6585 C   0  0  0  0  0  3  0  0  0  0  0  0
   -1.4299    2.1143   -0.0717 C   0  0  0  0  0  0  0  0  0  0  0  0
   -0.5484    1.2228   -2.5724 H   0  0  0  0  0  0  0  0  0  0  0  0
   -2.3113    1.2228   -2.5724 H   0  0  0  0  0  0  0  0  0  0  0  0
   -1.4299   -0.3064   -2.5829 H   0  0  0  0  0  0  0  0  0  0  0  0
   -0.3804    0.0529   -0.2216 H   0  0  0  0  0  0  0  0  0  0  0  0
   -2.3044    0.1622   -0.2944 H   0  0  0  0  0  0  0  0  0  0  0  0
   -2.3113    2.6729   -0.3959 H   0  0  0  0  0  0  0  0  0  0  0  0
   -1.4299    2.0936    1.0194 H   0  0  0  0  0  0  0  0  0  0  0  0
   -0.5484    2.6729   -0.3959 H   0  0  0  0  0  0  0  0  0  0  0  0
  1  2  2  3
  1  5  1  0
  1  6  1  0
  2  3  1  0
  2  7  1  0
  3  4  2  0
  3 14  1  0
  8  9  1  0
  8 11  1  0
  8 12  1  0
  8 13  1  0
  9 10  1  0
  9 15  1  0
 10 16  1  0
 10 17  1  0
 10 18  1  0
M  RAD  1   9   2
M  END
>  <reaction>  (5) 
rxn_950

>  <mol_properties>  (5) 
{"2": {"label": "*1", "atom_type": "CS"}, "3": {"label": "*0", "atom_type": "S2d"}, "7": {"label": "*4", "atom_type": "Cs"}, "8": {"label": "*3", "atom_type": "Cs"}, "13": {"label": "*2", "atom_type": "H0"}}

>  <type>  (5) 
unop_1

>  <geom_source>  (5) 
Heuristics

$$$$

     RDKit          3D

 18 16  0  0  0  0  0  0  0  0999 V2000
    1.5883   -0.2224   -1.7638 C   0  0  0  0  0  0  0  0  0  0  0  0
    1.6860   -0.5731   -0.4826 C   0  0  0  0  0  0  0  0  0  0  0  0
    0.5271   -0.6250    0.3889 C   0  0  0  0  0  0  0  0  0  0  0  0
    0.5507   -1.0376    1.9490 S   0  0  0  0  0  0  0  0  0  0  0  0
    2.4559   -0.1852   -2.4097 H   0  0  0  0  0  0  0  0  0  0  0  0
    0.6326    0.0387   -2.2046 H   0  0  0  0  0  0  0  0  0  0  0  0
    2.6417   -0.8342   -0.0422 H   0  0  0  0  0  0  0  0  0  0  0  0
   -1.5699    0.6850   -2.0072 C   0  0  0  0  0  0  0  0  0  0  0  0
   -1.5699    0.6850   -0.4839 C   0  0  0  0  0  3  0  0  0  0  0  0
   -1.5699    2.0908    0.1028 C   0  0  0  0  0  0  0  0  0  0  0  0
   -0.6884    1.1992   -2.3979 H   0  0  0  0  0  0  0  0  0  0  0  0
   -2.4513    1.1992   -2.3979 H   0  0  0  0  0  0  0  0  0  0  0  0
   -1.5699   -0.3299   -2.4084 H   0  0  0  0  0  0  0  0  0  0  0  0
   -0.5204    0.0294   -0.0471 H   0  0  0  0  0  0  0  0  0  0  0  0
   -2.4444    0.1386   -0.1199 H   0  0  0  0  0  0  0  0  0  0  0  0
   -2.4513    2.6494   -0.2213 H   0  0  0  0  0  0  0  0  0  0  0  0
   -1.5699    2.0701    1.1939 H   0  0  0  0  0  0  0  0  0  0  0  0
   -0.6884    2.6494   -0.2213 H   0  0  0  0  0  0  0  0  0  0  0  0
  1  2  2  3
  1  5  1  0
  1  6  1  0
  2  3  1  0
  2  7  1  0
  3  4  2  0
  3 14  1  0
  8  9  1  0
  8 11  1  0
  8 12  1  0
  8 13  1  0
  9 10  1  0
  9 15  1  0
 10 16  1  0
 10 17  1  0
 10 18  1  0
M  RAD  1   9   2
M  END
>  <reaction>  (6) 
rxn_950

>  <mol_properties>  (6) 
{"2": {"label": "*1", "atom_type": "CS"}, "3": {"label": "*0", "atom_type": "S2d"}, "7": {"label": "*4", "atom_type": "Cs"}, "8": {"label": "*3", "atom_type": "Cs"}, "13": {"label": "*2", "atom_type": "H0"}}

>  <type>  (6) 
unop_2

>  <geom_source>  (6) 
Heuristics

$$$$

     RDKit          3D

 18 16  0  0  0  0  0  0  0  0999 V2000
    1.0946    1.1988    1.9147 C   0  0  0  0  0  0  0  0  0  0  0  0
    1.1853   -0.0734    1.5307 C   0  0  0  0  0  0  0  0  0  0  0  0
    0.6699   -0.5274    0.2526 C   0  0  0  0  0  0  0  0  0  0  0  0
    0.7354   -2.0445   -0.2941 S   0  0  0  0  0  0  0  0  0  0  0  0
    1.4807    1.5322    2.8692 H   0  0  0  0  0  0  0  0  0  0  0  0
    0.6292    1.9460    1.2815 H   0  0  0  0  0  0  0  0  0  0  0  0
    1.6507   -0.8203    2.1641 H   0  0  0  0  0  0  0  0  0  0  0  0
   -1.4270    0.7826   -2.1435 C   0  0  0  0  0  0  0  0  0  0  0  0
   -1.4270    0.7826   -0.6202 C   0  0  0  0  0  3  0  0  0  0  0  0
   -1.4270    2.1884   -0.0335 C   0  0  0  0  0  0  0  0  0  0  0  0
   -0.5456    1.2969   -2.5342 H   0  0  0  0  0  0  0  0  0  0  0  0
   -2.3085    1.2969   -2.5342 H   0  0  0  0  0  0  0  0  0  0  0  0
   -1.4270   -0.2323   -2.5447 H   0  0  0  0  0  0  0  0  0  0  0  0
   -0.3776    0.1270   -0.1834 H   0  0  0  0  0  0  0  0  0  0  0  0
   -2.3015    0.2363   -0.2562 H   0  0  0  0  0  0  0  0  0  0  0  0
   -2.3085    2.7470   -0.3576 H   0  0  0  0  0  0  0  0  0  0  0  0
   -1.4270    2.1678    1.0576 H   0  0  0  0  0  0  0  0  0  0  0  0
   -0.5456    2.7470   -0.3576 H   0  0  0  0  0  0  0  0  0  0  0  0
  1  2  2  3
  1  5  1  0
  1  6  1  0
  2  3  1  0
  2  7  1  0
  3  4  2  0
  3 14  1  0
  8  9  1  0
  8 11  1  0
  8 12  1  0
  8 13  1  0
  9 10  1  0
  9 15  1  0
 10 16  1  0
 10 17  1  0
 10 18  1  0
M  RAD  1   9   2
M  END
>  <reaction>  (7) 
rxn_950

>  <mol_properties>  (7) 
{"2": {"label": "*1", "atom_type": "CS"}, "3": {"label": "*0", "atom_type": "S2d"}, "7": {"label": "*4", "atom_type": "Cs"}, "8": {"label": "*3", "atom_type": "Cs"}, "13": {"label": "*2", "atom_type": "H0"}}

>  <type>  (7) 
unop_3

>  <geom_source>  (7) 
Heuristics

$$$$

     RDKit          3D

 18 16  0  0  0  0  0  0  0  0999 V2000
    0.2692   -2.2591   -1.2752 C   0  0  0  0  0  0  0  0  0  0  0  0
    0.7578   -1.8499   -0.1056 C   0  0  0  0  0  0  0  0  0  0  0  0
    0.6874   -0.4620    0.3116 C   0  0  0  0  0  0  0  0  0  0  0  0
    1.2510    0.1226    1.7063 S   0  0  0  0  0  0  0  0  0  0  0  0
    0.3242   -3.2956   -1.5817 H   0  0  0  0  0  0  0  0  0  0  0  0
   -0.2019   -1.5649   -1.9623 H   0  0  0  0  0  0  0  0  0  0  0  0
    1.2287   -2.5443    0.5811 H   0  0  0  0  0  0  0  0  0  0  0  0
   -1.4095    0.8480   -2.0845 C   0  0  0  0  0  0  0  0  0  0  0  0
   -1.4095    0.8480   -0.5612 C   0  0  0  0  0  3  0  0  0  0  0  0
   -1.4095    2.2538    0.0255 C   0  0  0  0  0  0  0  0  0  0  0  0
   -0.5281    1.3623   -2.4752 H   0  0  0  0  0  0  0  0  0  0  0  0
   -2.2910    1.3623   -2.4752 H   0  0  0  0  0  0  0  0  0  0  0  0
   -1.4095   -0.1669   -2.4857 H   0  0  0  0  0  0  0  0  0  0  0  0
   -0.3601    0.1924   -0.1244 H   0  0  0  0  0  0  0  0  0  0  0  0
   -2.2841    0.3017   -0.1972 H   0  0  0  0  0  0  0  0  0  0  0  0
   -2.2910    2.8124   -0.2986 H   0  0  0  0  0  0  0  0  0  0  0  0
   -1.4095    2.2332    1.1166 H   0  0  0  0  0  0  0  0  0  0  0  0
   -0.5281    2.8124   -0.2986 H   0  0  0  0  0  0  0  0  0  0  0  0
  1  2  2  3
  1  5  1  0
  1  6  1  0
  2  3  1  0
  2  7  1  0
  3  4  2  0
  3 14  1  0
  8  9  1  0
  8 11  1  0
  8 12  1  0
  8 13  1  0
  9 10  1  0
  9 15  1  0
 10 16  1  0
 10 17  1  0
 10 18  1  0
M  RAD  1   9   2
M  END
>  <reaction>  (8) 
rxn_950

>  <mol_properties>  (8) 
{"2": {"label": "*1", "atom_type": "CS"}, "3": {"label": "*0", "atom_type": "S2d"}, "7": {"label": "*4", "atom_type": "Cs"}, "8": {"label": "*3", "atom_type": "Cs"}, "13": {"label": "*2", "atom_type": "H0"}}

>  <type>  (8) 
unop_4

>  <geom_source>  (8) 
Heuristics

$$$$

     RDKit          3D

 18 16  0  0  0  0  0  0  0  0999 V2000
   -0.1864   -0.0673    2.5544 C   0  0  0  0  0  0  0  0  0  0  0  0
    0.7115   -0.6282    1.7461 C   0  0  0  0  0  0  0  0  0  0  0  0
    0.5946   -0.5552    0.3017 C   0  0  0  0  0  0  0  0  0  0  0  0
    1.6312   -1.2028   -0.7522 S   0  0  0  0  0  0  0  0  0  0  0  0
   -0.0945   -0.1247    3.6313 H   0  0  0  0  0  0  0  0  0  0  0  0
   -1.0428    0.4678    2.1593 H   0  0  0  0  0  0  0  0  0  0  0  0
    1.5677   -1.1631    2.1415 H   0  0  0  0  0  0  0  0  0  0  0  0
   -1.5024    0.7549   -2.0944 C   0  0  0  0  0  0  0  0  0  0  0  0
   -1.5024    0.7549   -0.5711 C   0  0  0  0  0  3  0  0  0  0  0  0
   -1.5024    2.1607    0.0156 C   0  0  0  0  0  0  0  0  0  0  0  0
   -0.6209    1.2691   -2.4851 H   0  0  0  0  0  0  0  0  0  0  0  0
   -2.3838    1.2691   -2.4851 H   0  0  0  0  0  0  0  0  0  0  0  0
   -1.5024   -0.2600   -2.4956 H   0  0  0  0  0  0  0  0  0  0  0  0
   -0.4529    0.0993   -0.1343 H   0  0  0  0  0  0  0  0  0  0  0  0
   -2.3769    0.2085   -0.2071 H   0  0  0  0  0  0  0  0  0  0  0  0
   -2.3838    2.7193   -0.3085 H   0  0  0  0  0  0  0  0  0  0  0  0
   -1.5024    2.1400    1.1067 H   0  0  0  0  0  0  0  0  0  0  0  0
   -0.6209    2.7193   -0.3085 H   0  0  0  0  0  0  0  0  0  0  0  0
  1  2  2  3
  1  5  1  0
  1  6  1  0
  2  3  1  0
  2  7  1  0
  3  4  2  0
  3 14  1  0
  8  9  1  0
  8 11  1  0
  8 12  1  0
  8 13  1  0
  9 10  1  0
  9 15  1  0
 10 16  1  0
 10 17  1  0
 10 18  1  0
M  RAD  1   9   2
M  END
>  <reaction>  (9) 
rxn_950

>  <mol_properties>  (9) 
{"2": {"label": "*1", "atom_type": "CS"}, "3": {"label": "*0", "atom_type": "S2d"}, "7": {"label": "*4", "atom_type": "Cs"}, "8": {"label": "*3", "atom_type": "Cs"}, "13": {"label": "*2", "atom_type": "H0"}}

>  <type>  (9) 
unop_5

>  <geom_source>  (9) 
Heuristics

$$$$

     RDKit          3D

 18 16  0  0  0  0  0  0  0  0999 V2000
   -0.2223   -2.6767   -0.4059 C   0  0  0  0  0  0  0  0  0  0  0  0
    0.4939   -1.9418    0.4432 C   0  0  0  0  0  0  0  0  0  0  0  0
    0.7028   -0.5204    0.2399 C   0  0  0  0  0  0  0  0  0  0  0  0
    1.5533    0.4462    1.2131 S   0  0  0  0  0  0  0  0  0  0  0  0
   -0.3751   -3.7367   -0.2496 H   0  0  0  0  0  0  0  0  0  0  0  0
   -0.6782   -2.2361   -1.2856 H   0  0  0  0  0  0  0  0  0  0  0  0
    0.9496   -2.3826    1.3228 H   0  0  0  0  0  0  0  0  0  0  0  0
   -1.3941    0.7896   -2.1562 C   0  0  0  0  0  0  0  0  0  0  0  0
   -1.3941    0.7896   -0.6329 C   0  0  0  0  0  3  0  0  0  0  0  0
   -1.3941    2.1954   -0.0462 C   0  0  0  0  0  0  0  0  0  0  0  0
   -0.5127    1.3039   -2.5469 H   0  0  0  0  0  0  0  0  0  0  0  0
   -2.2756    1.3039   -2.5469 H   0  0  0  0  0  0  0  0  0  0  0  0
   -1.3941   -0.2253   -2.5574 H   0  0  0  0  0  0  0  0  0  0  0  0
   -0.3447    0.1340   -0.1961 H   0  0  0  0  0  0  0  0  0  0  0  0
   -2.2687    0.2433   -0.2689 H   0  0  0  0  0  0  0  0  0  0  0  0
   -2.2756    2.7540   -0.3703 H   0  0  0  0  0  0  0  0  0  0  0  0
   -1.3941    2.1748    1.0449 H   0  0  0  0  0  0  0  0  0  0  0  0
   -0.5127    2.7540   -0.3703 H   0  0  0  0  0  0  0  0  0  0  0  0
  1  2  2  3
  1  5  1  0
  1  6  1  0
  2  3  1  0
  2  7  1  0
  3  4  2  0
  3 14  1  0
  8  9  1  0
  8 11  1  0
  8 12  1  0
  8 13  1  0
  9 10  1  0
  9 15  1  0
 10 16  1  0
 10 17  1  0
 10 18  1  0
M  RAD  1   9   2
M  END
>  <reaction>  (10) 
rxn_950

>  <mol_properties>  (10) 
{"2": {"label": "*1", "atom_type": "CS"}, "3": {"label": "*0", "atom_type": "S2d"}, "7": {"label": "*4", "atom_type": "Cs"}, "8": {"label": "*3", "atom_type": "Cs"}, "13": {"label": "*2", "atom_type": "H0"}}

>  <type>  (10) 
unop_6

>  <geom_source>  (10) 
Heuristics

$$$$

     RDKit          3D

 18 16  0  0  0  0  0  0  0  0999 V2000
   -0.6224   -2.5957    0.7381 C   0  0  0  0  0  0  0  0  0  0  0  0
    0.3668   -1.7558    1.0382 C   0  0  0  0  0  0  0  0  0  0  0  0
    0.6680   -0.6000    0.2144 C   0  0  0  0  0  0  0  0  0  0  0  0
    1.8436    0.4683    0.4997 S   0  0  0  0  0  0  0  0  0  0  0  0
   -0.8430   -3.4564    1.3561 H   0  0  0  0  0  0  0  0  0  0  0  0
   -1.2424   -2.4449   -0.1386 H   0  0  0  0  0  0  0  0  0  0  0  0
    0.9865   -1.9069    1.9150 H   0  0  0  0  0  0  0  0  0  0  0  0
   -1.4289    0.7100   -2.1818 C   0  0  0  0  0  0  0  0  0  0  0  0
   -1.4289    0.7100   -0.6585 C   0  0  0  0  0  3  0  0  0  0  0  0
   -1.4289    2.1159   -0.0717 C   0  0  0  0  0  0  0  0  0  0  0  0
   -0.5475    1.2243   -2.5724 H   0  0  0  0  0  0  0  0  0  0  0  0
   -2.3104    1.2243   -2.5724 H   0  0  0  0  0  0  0  0  0  0  0  0
   -1.4289   -0.3048   -2.5829 H   0  0  0  0  0  0  0  0  0  0  0  0
   -0.3795    0.0544   -0.2216 H   0  0  0  0  0  0  0  0  0  0  0  0
   -2.3035    0.1637   -0.2944 H   0  0  0  0  0  0  0  0  0  0  0  0
   -2.3104    2.6744   -0.3959 H   0  0  0  0  0  0  0  0  0  0  0  0
   -1.4289    2.0952    1.0194 H   0  0  0  0  0  0  0  0  0  0  0  0
   -0.5475    2.6744   -0.3959 H   0  0  0  0  0  0  0  0  0  0  0  0
  1  2  2  3
  1  5  1  0
  1  6  1  0
  2  3  1  0
  2  7  1  0
  3  4  2  0
  3 14  1  0
  8  9  1  0
  8 11  1  0
  8 12  1  0
  8 13  1  0
  9 10  1  0
  9 15  1  0
 10 16  1  0
 10 17  1  0
 10 18  1  0
M  RAD  1   9   2
M  END
>  <reaction>  (11) 
rxn_950

>  <mol_properties>  (11) 
{"2": {"label": "*1", "atom_type": "CS"}, "3": {"label": "*0", "atom_type": "S2d"}, "7": {"label": "*4", "atom_type": "Cs"}, "8": {"label": "*3", "atom_type": "Cs"}, "13": {"label": "*2", "atom_type": "H0"}}

>  <type>  (11) 
unop_7

>  <geom_source>  (11) 
Heuristics

$$$$

     RDKit          3D

 18 16  0  0  0  0  0  0  0  0999 V2000
    2.1430    1.1094   -0.4059 C   0  0  0  0  0  0  0  0  0  0  0  0
    1.7966    0.1434    0.4432 C   0  0  0  0  0  0  0  0  0  0  0  0
    0.6108   -0.6677    0.2399 C   0  0  0  0  0  0  0  0  0  0  0  0
    0.1151   -1.8560    1.2131 S   0  0  0  0  0  0  0  0  0  0  0  0
    3.0286    1.7116   -0.2496 H   0  0  0  0  0  0  0  0  0  0  0  0
    1.5471    1.3259   -1.2856 H   0  0  0  0  0  0  0  0  0  0  0  0
    2.3927   -0.0728    1.3228 H   0  0  0  0  0  0  0  0  0  0  0  0
   -1.4861    0.6423   -2.1562 C   0  0  0  0  0  0  0  0  0  0  0  0
   -1.4861    0.6423   -0.6329 C   0  0  0  0  0  3  0  0  0  0  0  0
   -1.4861    2.0481   -0.0462 C   0  0  0  0  0  0  0  0  0  0  0  0
   -0.6047    1.1566   -2.5469 H   0  0  0  0  0  0  0  0  0  0  0  0
   -2.3676    1.1566   -2.5469 H   0  0  0  0  0  0  0  0  0  0  0  0
   -1.4861   -0.3726   -2.5574 H   0  0  0  0  0  0  0  0  0  0  0  0
   -0.4367   -0.0133   -0.1961 H   0  0  0  0  0  0  0  0  0  0  0  0
   -2.3607    0.0960   -0.2689 H   0  0  0  0  0  0  0  0  0  0  0  0
   -2.3676    2.6067   -0.3703 H   0  0  0  0  0  0  0  0  0  0  0  0
   -1.4861    2.0275    1.0449 H   0  0  0  0  0  0  0  0  0  0  0  0
   -0.6047    2.6067   -0.3703 H   0  0  0  0  0  0  0  0  0  0  0  0
  1  2  2  3
  1  5  1  0
  1  6  1  0
  2  3  1  0
  2  7  1  0
  3  4  2  0
  3 14  1  0
  8  9  1  0
  8 11  1  0
  8 12  1  0
  8 13  1  0
  9 10  1  0
  9 15  1  0
 10 16  1  0
 10 17  1  0
 10 18  1  0
M  RAD  1   9   2
M  END
>  <reaction>  (12) 
rxn_950

>  <mol_properties>  (12) 
{"2": {"label": "*1", "atom_type": "CS"}, "3": {"label": "*0", "atom_type": "S2d"}, "7": {"label": "*4", "atom_type": "Cs"}, "8": {"label": "*3", "atom_type": "Cs"}, "13": {"label": "*2", "atom_type": "H0"}}

>  <type>  (12) 
unop_8

>  <geom_source>  (12) 
Heuristics

$$$$

     RDKit          3D

 18 16  0  0  0  0  0  0  0  0999 V2000
    0.7313   -1.5941   -1.7638 C   0  0  0  0  0  0  0  0  0  0  0  0
    1.0893   -1.5281   -0.4826 C   0  0  0  0  0  0  0  0  0  0  0  0
    0.6278   -0.4638    0.3889 C   0  0  0  0  0  0  0  0  0  0  0  0
    1.0089   -0.3041    1.9490 S   0  0  0  0  0  0  0  0  0  0  0  0
    1.0784   -2.3902   -2.4097 H   0  0  0  0  0  0  0  0  0  0  0  0
    0.0775   -0.8498   -2.2046 H   0  0  0  0  0  0  0  0  0  0  0  0
    1.7431   -2.2726   -0.0422 H   0  0  0  0  0  0  0  0  0  0  0  0
   -1.4692    0.8462   -2.0072 C   0  0  0  0  0  0  0  0  0  0  0  0
   -1.4692    0.8462   -0.4839 C   0  0  0  0  0  3  0  0  0  0  0  0
   -1.4692    2.2520    0.1028 C   0  0  0  0  0  0  0  0  0  0  0  0
   -0.5877    1.3605   -2.3979 H   0  0  0  0  0  0  0  0  0  0  0  0
   -2.3506    1.3605   -2.3979 H   0  0  0  0  0  0  0  0  0  0  0  0
   -1.4692   -0.1687   -2.4084 H   0  0  0  0  0  0  0  0  0  0  0  0
   -0.4197    0.1906   -0.0471 H   0  0  0  0  0  0  0  0  0  0  0  0
   -2.3437    0.2998   -0.1199 H   0  0  0  0  0  0  0  0  0  0  0  0
   -2.3506    2.8106   -0.2213 H   0  0  0  0  0  0  0  0  0  0  0  0
   -1.4692    2.2313    1.1939 H   0  0  0  0  0  0  0  0  0  0  0  0
   -0.5877    2.8106   -0.2213 H   0  0  0  0  0  0  0  0  0  0  0  0
  1  2  2  3
  1  5  1  0
  1  6  1  0
  2  3  1  0
  2  7  1  0
  3  4  2  0
  3 14  1  0
  8  9  1  0
  8 11  1  0
  8 12  1  0
  8 13  1  0
  9 10  1  0
  9 15  1  0
 10 16  1  0
 10 17  1  0
 10 18  1  0
M  RAD  1   9   2
M  END
>  <reaction>  (13) 
rxn_950

>  <mol_properties>  (13) 
{"2": {"label": "*1", "atom_type": "CS"}, "3": {"label": "*0", "atom_type": "S2d"}, "7": {"label": "*4", "atom_type": "Cs"}, "8": {"label": "*3", "atom_type": "Cs"}, "13": {"label": "*2", "atom_type": "H0"}}

>  <type>  (13) 
unop_9

>  <geom_source>  (13) 
Heuristics

$$$$

     RDKit          3D

 18 16  0  0  0  0  0  0  0  0999 V2000
    1.9832    0.4845   -1.2752 C   0  0  0  0  0  0  0  0  0  0  0  0
    1.8297   -0.1340   -0.1056 C   0  0  0  0  0  0  0  0  0  0  0  0
    0.5516   -0.6795    0.3116 C   0  0  0  0  0  0  0  0  0  0  0  0
    0.2733   -1.4423    1.7063 S   0  0  0  0  0  0  0  0  0  0  0  0
    2.9389    0.8896   -1.5817 H   0  0  0  0  0  0  0  0  0  0  0  0
    1.1528    0.6035   -1.9623 H   0  0  0  0  0  0  0  0  0  0  0  0
    2.6603   -0.2528    0.5811 H   0  0  0  0  0  0  0  0  0  0  0  0
   -1.5454    0.6306   -2.0845 C   0  0  0  0  0  0  0  0  0  0  0  0
   -1.5454    0.6306   -0.5612 C   0  0  0  0  0  3  0  0  0  0  0  0
   -1.5454    2.0364    0.0255 C   0  0  0  0  0  0  0  0  0  0  0  0
   -0.6639    1.1448   -2.4752 H   0  0  0  0  0  0  0  0  0  0  0  0
   -2.4268    1.1448   -2.4752 H   0  0  0  0  0  0  0  0  0  0  0  0
   -1.5454   -0.3843   -2.4857 H   0  0  0  0  0  0  0  0  0  0  0  0
   -0.4959   -0.0251   -0.1244 H   0  0  0  0  0  0  0  0  0  0  0  0
   -2.4199    0.0842   -0.1972 H   0  0  0  0  0  0  0  0  0  0  0  0
   -2.4268    2.5949   -0.2986 H   0  0  0  0  0  0  0  0  0  0  0  0
   -1.5454    2.0157    1.1166 H   0  0  0  0  0  0  0  0  0  0  0  0
   -0.6639    2.5949   -0.2986 H   0  0  0  0  0  0  0  0  0  0  0  0
  1  2  2  3
  1  5  1  0
  1  6  1  0
  2  3  1  0
  2  7  1  0
  3  4  2  0
  3 14  1  0
  8  9  1  0
  8 11  1  0
  8 12  1  0
  8 13  1  0
  9 10  1  0
  9 15  1  0
 10 16  1  0
 10 17  1  0
 10 18  1  0
M  RAD  1   9   2
M  END
>  <reaction>  (14) 
rxn_950

>  <mol_properties>  (14) 
{"2": {"label": "*1", "atom_type": "CS"}, "3": {"label": "*0", "atom_type": "S2d"}, "7": {"label": "*4", "atom_type": "Cs"}, "8": {"label": "*3", "atom_type": "Cs"}, "13": {"label": "*2", "atom_type": "H0"}}

>  <type>  (14) 
unop_10

>  <geom_source>  (14) 
Heuristics

$$$$

     RDKit          3D

 18 16  0  0  0  0  0  0  0  0999 V2000
   -0.7624   -1.7738    1.9147 C   0  0  0  0  0  0  0  0  0  0  0  0
    0.4207   -1.2973    1.5307 C   0  0  0  0  0  0  0  0  0  0  0  0
    0.6027   -0.6351    0.2526 C   0  0  0  0  0  0  0  0  0  0  0  0
    1.9948   -0.0286   -0.2941 S   0  0  0  0  0  0  0  0  0  0  0  0
   -0.8928   -2.2670    2.8692 H   0  0  0  0  0  0  0  0  0  0  0  0
   -1.6380   -1.6832    1.2815 H   0  0  0  0  0  0  0  0  0  0  0  0
    1.2960   -1.3880    2.1641 H   0  0  0  0  0  0  0  0  0  0  0  0
   -1.4943    0.6750   -2.1435 C   0  0  0  0  0  0  0  0  0  0  0  0
   -1.4943    0.6750   -0.6202 C   0  0  0  0  0  3  0  0  0  0  0  0
   -1.4943    2.0808   -0.0335 C   0  0  0  0  0  0  0  0  0  0  0  0
   -0.6128    1.1892   -2.5342 H   0  0  0  0  0  0  0  0  0  0  0  0
   -2.3757    1.1892   -2.5342 H   0  0  0  0  0  0  0  0  0  0  0  0
   -1.4943   -0.3399   -2.5447 H   0  0  0  0  0  0  0  0  0  0  0  0
   -0.4448    0.0193   -0.1834 H   0  0  0  0  0  0  0  0  0  0  0  0
   -2.3688    0.1286   -0.2562 H   0  0  0  0  0  0  0  0  0  0  0  0
   -2.3757    2.6393   -0.3576 H   0  0  0  0  0  0  0  0  0  0  0  0
   -1.4943    2.0601    1.0576 H   0  0  0  0  0  0  0  0  0  0  0  0
   -0.6128    2.6393   -0.3576 H   0  0  0  0  0  0  0  0  0  0  0  0
  1  2  2  3
  1  5  1  0
  1  6  1  0
  2  3  1  0
  2  7  1  0
  3  4  2  0
  3 14  1  0
  8  9  1  0
  8 11  1  0
  8 12  1  0
  8 13  1  0
  9 10  1  0
  9 15  1  0
 10 16  1  0
 10 17  1  0
 10 18  1  0
M  RAD  1   9   2
M  END
>  <reaction>  (15) 
rxn_950

>  <mol_properties>  (15) 
{"2": {"label": "*1", "atom_type": "CS"}, "3": {"label": "*0", "atom_type": "S2d"}, "7": {"label": "*4", "atom_type": "Cs"}, "8": {"label": "*3", "atom_type": "Cs"}, "13": {"label": "*2", "atom_type": "H0"}}

>  <type>  (15) 
unop_11

>  <geom_source>  (15) 
Heuristics

$$$$

     RDKit          3D

 18 16  0  0  0  0  0  0  0  0999 V2000
    1.1498   -0.9020   -1.9086 C   0  0  0  0  0  0  0  0  0  0  0  0
    1.4183   -1.0698   -0.6149 C   0  0  0  0  0  0  0  0  0  0  0  0
    0.5583   -0.5325    0.4229 C   0  0  0  0  0  0  0  0  0  0  0  0
    0.8041   -0.6861    2.0106 S   0  0  0  0  0  0  0  0  0  0  0  0
    1.7946   -1.3049   -2.6789 H   0  0  0  0  0  0  0  0  0  0  0  0
    0.2728   -0.3541   -2.2350 H   0  0  0  0  0  0  0  0  0  0  0  0
    2.2953   -1.6177   -0.2888 H   0  0  0  0  0  0  0  0  0  0  0  0
   -1.5387    0.7775   -1.9732 C   0  0  0  0  0  0  0  0  0  0  0  0
   -1.5387    0.7775   -0.4499 C   0  0  0  0  0  3  0  0  0  0  0  0
   -1.5387    2.1834    0.1368 C   0  0  0  0  0  0  0  0  0  0  0  0
   -0.6572    1.2918   -2.3639 H   0  0  0  0  0  0  0  0  0  0  0  0
   -2.4201    1.2918   -2.3639 H   0  0  0  0  0  0  0  0  0  0  0  0
   -1.5387   -0.2374   -2.3744 H   0  0  0  0  0  0  0  0  0  0  0  0
   -0.4892    0.1219   -0.0131 H   0  0  0  0  0  0  0  0  0  0  0  0
   -2.4132    0.2312   -0.0859 H   0  0  0  0  0  0  0  0  0  0  0  0
   -2.4201    2.7419   -0.1873 H   0  0  0  0  0  0  0  0  0  0  0  0
   -1.5387    2.1627    1.2279 H   0  0  0  0  0  0  0  0  0  0  0  0
   -0.6572    2.7419   -0.1873 H   0  0  0  0  0  0  0  0  0  0  0  0
  1  2  2  3
  1  5  1  0
  1  6  1  0
  2  3  1  0
  2  7  1  0
  3  4  2  0
  3 14  1  0
  8  9  1  0
  8 11  1  0
  8 12  1  0
  8 13  1  0
  9 10  1  0
  9 15  1  0
 10 16  1  0
 10 17  1  0
 10 18  1  0
M  RAD  1   9   2
M  END
>  <reaction>  (16) 
rxn_950

>  <mol_properties>  (16) 
{"2": {"label": "*1", "atom_type": "CS"}, "3": {"label": "*0", "atom_type": "S2d"}, "7": {"label": "*4", "atom_type": "Cs"}, "8": {"label": "*3", "atom_type": "Cs"}, "13": {"label": "*2", "atom_type": "H0"}}

>  <type>  (16) 
unop_12

>  <geom_source>  (16) 
Heuristics

$$$$

     RDKit          3D

 18 16  0  0  0  0  0  0  0  0999 V2000
    1.0865    2.4362    1.4044 S   0  0  0  0  0  0  0  0  0  0  0  0
   -2.1753    0.8445    0.2716 C   0  0  0  0  0  0  0  0  0  0  0  0
   -1.2926   -1.4432   -0.3150 C   0  0  0  0  0  0  0  0  0  0  0  0
   -0.9940    0.0503   -0.2719 C   0  0  0  0  0  3  0  0  0  0  0  0
    2.5548    0.5239    0.2097 C   0  0  0  0  0  0  0  0  0  0  0  0
    2.6921   -0.6460   -0.4054 C   0  0  0  0  0  0  0  0  0  0  0  0
    1.2380    0.9951    0.6494 C   0  0  0  0  0  0  0  0  0  0  0  0
   -2.4188    0.5106    1.3022 H   0  0  0  0  0  0  0  0  0  0  0  0
   -3.0642    0.7109   -0.3811 H   0  0  0  0  0  0  0  0  0  0  0  0
   -1.9103    1.9218    0.3014 H   0  0  0  0  0  0  0  0  0  0  0  0
   -0.4033   -1.9841   -0.7000 H   0  0  0  0  0  0  0  0  0  0  0  0
   -2.1548   -1.6461   -0.9854 H   0  0  0  0  0  0  0  0  0  0  0  0
   -1.5207   -1.8171    0.7054 H   0  0  0  0  0  0  0  0  0  0  0  0
   -0.7316    0.4124   -1.2893 H   0  0  0  0  0  0  0  0  0  0  0  0
    3.4315    1.1353    0.3868 H   0  0  0  0  0  0  0  0  0  0  0  0
    1.8371   -1.2824   -0.5985 H   0  0  0  0  0  0  0  0  0  0  0  0
    3.6719   -0.9780   -0.7231 H   0  0  0  0  0  0  0  0  0  0  0  0
    0.1538    0.2558    0.4389 H   0  0  0  0  0  0  0  0  0  0  0  0
  1  7  2  0
  2  4  1  0
  2  8  1  0
  2  9  1  0
  2 10  1  0
  3  4  1  0
  3 11  1  0
  3 12  1  0
  3 13  1  0
  4 14  1  0
  5  6  2  3
  5  7  1  0
  5 15  1  0
  6 16  1  0
  6 17  1  0
  7 18  1  0
M  RAD  1   4   2
M  END
>  <reaction>  (17) 
rxn_950

>  <mol_properties>  (17) 
{"2": {"label": "*1", "atom_type": "CS"}, "3": {"label": "*0", "atom_type": "S2d"}, "7": {"label": "*4", "atom_type": "Cs"}, "8": {"label": "*3", "atom_type": "Cs"}, "13": {"label": "*2", "atom_type": "H0"}}

>  <type>  (17) 
unop_13

>  <geom_source>  (17) 
AutoTST

$$$$
