
     RDKit          3D

  5  4  0  0  0  0  0  0  0  0999 V2000
    0.0000    0.0000    0.0000 C   0  0  0  0  0  0  0  0  0  0  0  0
   -0.6486   -0.7720   -0.4113 H   0  0  0  0  0  0  0  0  0  0  0  0
   -0.3482    0.9787   -0.3267 H   0  0  0  0  0  0  0  0  0  0  0  0
   -0.0223   -0.0487    1.0876 H   0  0  0  0  0  0  0  0  0  0  0  0
    1.0191   -0.1580   -0.3496 H   0  0  0  0  0  0  0  0  0  0  0  0
  1  2  1  0
  1  3  1  0
  1  4  1  0
  1  5  1  0
M  END
>  <reaction>  (1) 
rxn_860

>  <mol_properties>  (1) 
{"0": {"label": "donator", "atom_type": "Cs"}, "1": {"label": "d_hydrogen", "atom_type": "H0"}}

>  <type>  (1) 
r1h

$$$$

     RDKit          3D

 10  9  0  0  0  0  0  0  0  0999 V2000
   -1.2648    0.1959    0.8197 C   0  0  0  0  0  0  0  0  0  0  0  0
   -0.2805    0.0995   -0.3030 C   0  0  0  0  0  3  0  0  0  0  0  0
   -0.0444    1.1347   -1.1797 C   0  0  0  0  0  0  0  0  0  0  0  0
    0.1640    2.0467   -1.9525 C   0  0  0  0  0  0  0  0  0  0  0  0
    0.5686   -1.4168   -0.4488 S   0  0  0  0  0  0  0  0  0  0  0  0
   -2.0466   -0.5638    0.7258 H   0  0  0  0  0  0  0  0  0  0  0  0
   -0.7765    0.0454    1.7871 H   0  0  0  0  0  0  0  0  0  0  0  0
   -1.7371    1.1762    0.8222 H   0  0  0  0  0  0  0  0  0  0  0  0
    0.3433    2.8484   -2.6273 H   0  0  0  0  0  0  0  0  0  0  0  0
    1.3075   -1.0953   -1.5176 H   0  0  0  0  0  0  0  0  0  0  0  0
  1  2  1  0
  1  6  1  0
  1  7  1  0
  1  8  1  0
  2  3  1  0
  2  5  1  0
  3  4  3  0
  4  9  1  0
  5 10  1  0
M  RAD  1   2   2
M  END
>  <reaction>  (2) 
rxn_860

>  <mol_properties>  (2) 
{"1": {"label": "acceptor", "atom_type": "Cs"}}

>  <type>  (2) 
r2

$$$$

     RDKit          3D

 11 10  0  0  0  0  0  0  0  0999 V2000
   -1.2582   -0.5130    0.2160 C   0  0  0  0  0  0  0  0  0  0  0  0
   -0.1109    0.0509   -0.6210 C   0  0  0  0  0  0  0  0  0  0  0  0
    1.1862   -0.2025   -0.0072 C   0  0  0  0  0  0  0  0  0  0  0  0
    2.2351   -0.4206    0.5274 C   0  0  0  0  0  0  0  0  0  0  0  0
   -0.3298    1.8272   -1.0120 S   0  0  0  0  0  0  0  0  0  0  0  0
   -1.2875   -0.0327    1.1945 H   0  0  0  0  0  0  0  0  0  0  0  0
   -2.2088   -0.3391   -0.2866 H   0  0  0  0  0  0  0  0  0  0  0  0
   -1.1220   -1.5854    0.3655 H   0  0  0  0  0  0  0  0  0  0  0  0
   -0.1222   -0.4181   -1.6078 H   0  0  0  0  0  0  0  0  0  0  0  0
    3.1729   -0.6098    0.9920 H   0  0  0  0  0  0  0  0  0  0  0  0
   -0.1942    2.2663    0.2466 H   0  0  0  0  0  0  0  0  0  0  0  0
  1  2  1  0
  1  6  1  0
  1  7  1  0
  1  8  1  0
  2  3  1  0
  2  5  1  0
  2  9  1  0
  3  4  3  0
  4 10  1  0
  5 11  1  0
M  END
>  <reaction>  (3) 
rxn_860

>  <mol_properties>  (3) 
{"1": {"label": "acceptor", "atom_type": "Cs"}, "10": {"label": "a_hydrogen", "atom_type": "H0"}}

>  <type>  (3) 
r2h

$$$$

     RDKit          3D

 15 13  0  0  0  0  0  0  0  0999 V2000
   -1.5612    0.1654    0.8389 C   0  0  0  0  0  0  0  0  0  0  0  0
   -0.1872   -0.1425    0.2738 C   0  0  0  0  0  0  0  0  0  0  0  0
    0.7943   -0.5161    1.2522 C   0  0  0  0  0  0  0  0  0  0  0  0
    1.5994   -0.8603    2.0734 C   0  0  0  0  0  0  0  0  0  0  0  0
    0.4212    1.0507   -0.9469 S   0  0  0  0  0  0  0  0  0  0  0  0
   -1.5361    1.0732    1.4456 H   0  0  0  0  0  0  0  0  0  0  0  0
   -2.2743    0.3126    0.0281 H   0  0  0  0  0  0  0  0  0  0  0  0
   -1.9015   -0.6576    1.4699 H   0  0  0  0  0  0  0  0  0  0  0  0
    2.3192   -1.1562    2.7980 H   0  0  0  0  0  0  0  0  0  0  0  0
    0.7173    2.0292   -0.0789 H   0  0  0  0  0  0  0  0  0  0  0  0
   -0.6083   -2.3000   -1.3028 C   0  0  0  0  0  3  0  0  0  0  0  0
   -0.3543   -1.1578   -0.4621 H   0  0  0  0  0  0  0  0  0  0  0  0
    0.3858   -2.5372   -1.6652 H   0  0  0  0  0  0  0  0  0  0  0  0
   -1.0288   -3.0168   -0.6058 H   0  0  0  0  0  0  0  0  0  0  0  0
   -1.2966   -1.9224   -2.0512 H   0  0  0  0  0  0  0  0  0  0  0  0
  1  2  1  0
  1  6  1  0
  1  7  1  0
  1  8  1  0
  2  3  1  0
  2  5  1  0
  2 12  1  0
  3  4  3  0
  4  9  1  0
  5 10  1  0
 11 13  1  0
 11 14  1  0
 11 15  1  0
M  RAD  1  11   2
M  END
>  <reaction>  (4) 
rxn_860

>  <mol_properties>  (4) 
{"1": {"label": "*1", "atom_type": "Cs"}, "4": {"label": "*0", "atom_type": "S2s"}, "10": {"label": "*3", "atom_type": "Cs"}, "11": {"label": "*2", "atom_type": "H0"}, "12": {"label": "*4", "atom_type": "H0"}}

>  <type>  (4) 
ts

$$$$

     RDKit          3D

 15 13  0  0  0  0  0  0  0  0999 V2000
   -1.6356    0.3183    0.8231 C   0  0  0  0  0  0  0  0  0  0  0  0
   -0.3858    0.0855   -0.0245 C   0  0  0  0  0  3  0  0  0  0  0  0
    0.6675   -0.5807    0.7305 C   0  0  0  0  0  0  0  0  0  0  0  0
    1.5145   -1.1221    1.3811 C   0  0  0  0  0  0  0  0  0  0  0  0
    0.2268    1.6206   -0.8144 S   0  0  0  0  0  0  0  0  0  0  0  0
   -1.4078    0.9717    1.6659 H   0  0  0  0  0  0  0  0  0  0  0  0
   -2.4147    0.7842    0.2211 H   0  0  0  0  0  0  0  0  0  0  0  0
   -2.0046   -0.6305    1.2162 H   0  0  0  0  0  0  0  0  0  0  0  0
    2.2667   -1.6028    1.9590 H   0  0  0  0  0  0  0  0  0  0  0  0
    0.5910    2.2286    0.3226 H   0  0  0  0  0  0  0  0  0  0  0  0
   -0.3858   -2.3828   -0.8972 C   0  0  0  0  0  0  0  0  0  0  0  0
   -0.3858   -1.1508   -0.4616 H   0  0  0  0  0  0  0  0  0  0  0  0
    0.5033   -2.8961   -0.5342 H   0  0  0  0  0  0  0  0  0  0  0  0
   -1.2749   -2.8961   -0.5342 H   0  0  0  0  0  0  0  0  0  0  0  0
   -0.3858   -2.3828   -1.9861 H   0  0  0  0  0  0  0  0  0  0  0  0
  1  2  1  0
  1  6  1  0
  1  7  1  0
  1  8  1  0
  2  3  1  0
  2  5  1  0
  3  4  3  0
  4  9  1  0
  5 10  1  0
 11 12  1  0
 11 13  1  0
 11 14  1  0
 11 15  1  0
M  RAD  1   2   2
M  END
>  <reaction>  (5) 
rxn_860

>  <mol_properties>  (5) 
{"1": {"label": "*1", "atom_type": "Cs"}, "4": {"label": "*0", "atom_type": "S2s"}, "10": {"label": "*3", "atom_type": "Cs"}, "11": {"label": "*2", "atom_type": "H0"}, "12": {"label": "*4", "atom_type": "H0"}}

>  <type>  (5) 
unop_1

>  <geom_source>  (5) 
Heuristics

$$$$

     RDKit          3D

 15 13  0  0  0  0  0  0  0  0999 V2000
   -0.8221    1.0142   -1.3059 C   0  0  0  0  0  0  0  0  0  0  0  0
   -0.1005    0.1243   -0.2949 C   0  0  0  0  0  3  0  0  0  0  0  0
   -0.9440   -0.1934    0.8501 C   0  0  0  0  0  0  0  0  0  0  0  0
   -1.6605   -0.4292    1.7800 C   0  0  0  0  0  0  0  0  0  0  0  0
    1.5098    0.8195    0.2337 S   0  0  0  0  0  0  0  0  0  0  0  0
   -1.0874    1.9692   -0.8513 H   0  0  0  0  0  0  0  0  0  0  0  0
   -0.1788    1.2032   -2.1644 H   0  0  0  0  0  0  0  0  0  0  0  0
   -1.7397    0.5301   -1.6444 H   0  0  0  0  0  0  0  0  0  0  0  0
   -2.2969   -0.6387    2.6059 H   0  0  0  0  0  0  0  0  0  0  0  0
    1.0012    1.8753    0.8831 H   0  0  0  0  0  0  0  0  0  0  0  0
   -0.1005   -2.3439   -1.1675 C   0  0  0  0  0  0  0  0  0  0  0  0
   -0.1005   -1.1120   -0.7320 H   0  0  0  0  0  0  0  0  0  0  0  0
    0.7886   -2.8573   -0.8046 H   0  0  0  0  0  0  0  0  0  0  0  0
   -0.9896   -2.8573   -0.8046 H   0  0  0  0  0  0  0  0  0  0  0  0
   -0.1005   -2.3439   -2.2565 H   0  0  0  0  0  0  0  0  0  0  0  0
  1  2  1  0
  1  6  1  0
  1  7  1  0
  1  8  1  0
  2  3  1  0
  2  5  1  0
  3  4  3  0
  4  9  1  0
  5 10  1  0
 11 12  1  0
 11 13  1  0
 11 14  1  0
 11 15  1  0
M  RAD  1   2   2
M  END
>  <reaction>  (6) 
rxn_860

>  <mol_properties>  (6) 
{"1": {"label": "*1", "atom_type": "Cs"}, "4": {"label": "*0", "atom_type": "S2s"}, "10": {"label": "*3", "atom_type": "Cs"}, "11": {"label": "*2", "atom_type": "H0"}, "12": {"label": "*4", "atom_type": "H0"}}

>  <type>  (6) 
unop_2

>  <geom_source>  (6) 
Heuristics

$$$$

     RDKit          3D

 15 13  0  0  0  0  0  0  0  0999 V2000
   -1.0126    0.0235    1.5487 C   0  0  0  0  0  0  0  0  0  0  0  0
   -0.2910   -0.0332    0.2030 C   0  0  0  0  0  3  0  0  0  0  0  0
    1.1447   -0.2248    0.3630 C   0  0  0  0  0  0  0  0  0  0  0  0
    2.3208   -0.3753    0.5296 C   0  0  0  0  0  0  0  0  0  0  0  0
   -0.6580    1.4160   -0.8558 S   0  0  0  0  0  0  0  0  0  0  0  0
   -0.6577    0.8713    2.1356 H   0  0  0  0  0  0  0  0  0  0  0  0
   -2.0854    0.1311    1.3939 H   0  0  0  0  0  0  0  0  0  0  0  0
   -0.8213   -0.8889    2.1159 H   0  0  0  0  0  0  0  0  0  0  0  0
    3.3654   -0.5090    0.6775 H   0  0  0  0  0  0  0  0  0  0  0  0
   -0.0409    2.3174   -0.0798 H   0  0  0  0  0  0  0  0  0  0  0  0
   -0.2910   -2.5014   -0.6696 C   0  0  0  0  0  0  0  0  0  0  0  0
   -0.2910   -1.2694   -0.2341 H   0  0  0  0  0  0  0  0  0  0  0  0
    0.5981   -3.0147   -0.3067 H   0  0  0  0  0  0  0  0  0  0  0  0
   -1.1801   -3.0147   -0.3067 H   0  0  0  0  0  0  0  0  0  0  0  0
   -0.2910   -2.5014   -1.7586 H   0  0  0  0  0  0  0  0  0  0  0  0
  1  2  1  0
  1  6  1  0
  1  7  1  0
  1  8  1  0
  2  3  1  0
  2  5  1  0
  3  4  3  0
  4  9  1  0
  5 10  1  0
 11 12  1  0
 11 13  1  0
 11 14  1  0
 11 15  1  0
M  RAD  1   2   2
M  END
>  <reaction>  (7) 
rxn_860

>  <mol_properties>  (7) 
{"1": {"label": "*1", "atom_type": "Cs"}, "4": {"label": "*0", "atom_type": "S2s"}, "10": {"label": "*3", "atom_type": "Cs"}, "11": {"label": "*2", "atom_type": "H0"}, "12": {"label": "*4", "atom_type": "H0"}}

>  <type>  (7) 
unop_3

>  <geom_source>  (7) 
Heuristics

$$$$

     RDKit          3D

 15 13  0  0  0  0  0  0  0  0999 V2000
    1.3402    0.9746   -0.8680 C   0  0  0  0  0  0  0  0  0  0  0  0
    0.0904    0.2607   -0.3551 C   0  0  0  0  0  3  0  0  0  0  0  0
   -1.0141    1.1860   -0.1375 C   0  0  0  0  0  0  0  0  0  0  0  0
   -1.8987    1.9738    0.0376 C   0  0  0  0  0  0  0  0  0  0  0  0
    0.4182   -0.7513    1.1363 S   0  0  0  0  0  0  0  0  0  0  0  0
    1.6930    1.6995   -0.1338 H   0  0  0  0  0  0  0  0  0  0  0  0
    2.1340    0.2522   -1.0543 H   0  0  0  0  0  0  0  0  0  0  0  0
    1.1151    1.5072   -1.7935 H   0  0  0  0  0  0  0  0  0  0  0  0
   -2.6843    2.6735    0.1931 H   0  0  0  0  0  0  0  0  0  0  0  0
    0.6839    0.2792    1.9504 H   0  0  0  0  0  0  0  0  0  0  0  0
    0.0904   -2.2075   -1.2277 C   0  0  0  0  0  0  0  0  0  0  0  0
    0.0904   -0.9755   -0.7922 H   0  0  0  0  0  0  0  0  0  0  0  0
    0.9795   -2.7208   -0.8647 H   0  0  0  0  0  0  0  0  0  0  0  0
   -0.7987   -2.7208   -0.8647 H   0  0  0  0  0  0  0  0  0  0  0  0
    0.0904   -2.2075   -2.3167 H   0  0  0  0  0  0  0  0  0  0  0  0
  1  2  1  0
  1  6  1  0
  1  7  1  0
  1  8  1  0
  2  3  1  0
  2  5  1  0
  3  4  3  0
  4  9  1  0
  5 10  1  0
 11 12  1  0
 11 13  1  0
 11 14  1  0
 11 15  1  0
M  RAD  1   2   2
M  END
>  <reaction>  (8) 
rxn_860

>  <mol_properties>  (8) 
{"1": {"label": "*1", "atom_type": "Cs"}, "4": {"label": "*0", "atom_type": "S2s"}, "10": {"label": "*3", "atom_type": "Cs"}, "11": {"label": "*2", "atom_type": "H0"}, "12": {"label": "*4", "atom_type": "H0"}}

>  <type>  (8) 
unop_4

>  <geom_source>  (8) 
Heuristics

$$$$

     RDKit          3D

 15 13  0  0  0  0  0  0  0  0999 V2000
    0.0806   -0.0976    1.8425 C   0  0  0  0  0  0  0  0  0  0  0  0
    0.0806   -0.0899    0.3145 C   0  0  0  0  0  3  0  0  0  0  0  0
    1.2516    0.5881   -0.2263 C   0  0  0  0  0  0  0  0  0  0  0  0
    2.2211    1.1578   -0.6377 C   0  0  0  0  0  0  0  0  0  0  0  0
   -1.4689    0.5900   -0.3874 S   0  0  0  0  0  0  0  0  0  0  0  0
    0.0452    0.9216    2.2284 H   0  0  0  0  0  0  0  0  0  0  0  0
   -0.7869   -0.6417    2.2140 H   0  0  0  0  0  0  0  0  0  0  0  0
    0.9893   -0.5730    2.2154 H   0  0  0  0  0  0  0  0  0  0  0  0
    3.0821    1.6638   -1.0030 H   0  0  0  0  0  0  0  0  0  0  0  0
   -1.2808    1.8443    0.0444 H   0  0  0  0  0  0  0  0  0  0  0  0
    0.0806   -2.5581   -0.5581 C   0  0  0  0  0  0  0  0  0  0  0  0
    0.0806   -1.3262   -0.1226 H   0  0  0  0  0  0  0  0  0  0  0  0
    0.9697   -3.0715   -0.1952 H   0  0  0  0  0  0  0  0  0  0  0  0
   -0.8085   -3.0715   -0.1952 H   0  0  0  0  0  0  0  0  0  0  0  0
    0.0806   -2.5581   -1.6471 H   0  0  0  0  0  0  0  0  0  0  0  0
  1  2  1  0
  1  6  1  0
  1  7  1  0
  1  8  1  0
  2  3  1  0
  2  5  1  0
  3  4  3  0
  4  9  1  0
  5 10  1  0
 11 12  1  0
 11 13  1  0
 11 14  1  0
 11 15  1  0
M  RAD  1   2   2
M  END
>  <reaction>  (9) 
rxn_860

>  <mol_properties>  (9) 
{"1": {"label": "*1", "atom_type": "Cs"}, "4": {"label": "*0", "atom_type": "S2s"}, "10": {"label": "*3", "atom_type": "Cs"}, "11": {"label": "*2", "atom_type": "H0"}, "12": {"label": "*4", "atom_type": "H0"}}

>  <type>  (9) 
unop_5

>  <geom_source>  (9) 
Heuristics

$$$$

     RDKit          3D

 15 13  0  0  0  0  0  0  0  0999 V2000
    1.7181    0.7530   -0.1191 C   0  0  0  0  0  0  0  0  0  0  0  0
    0.2750    0.2797   -0.2865 C   0  0  0  0  0  3  0  0  0  0  0  0
   -0.6533    1.3964   -0.4081 C   0  0  0  0  0  0  0  0  0  0  0  0
   -1.3898    2.3362   -0.4977 C   0  0  0  0  0  0  0  0  0  0  0  0
   -0.2443   -0.8805    1.0326 S   0  0  0  0  0  0  0  0  0  0  0  0
    1.8240    1.3356    0.7965 H   0  0  0  0  0  0  0  0  0  0  0  0
    2.3893   -0.1034   -0.0673 H   0  0  0  0  0  0  0  0  0  0  0  0
    2.0061    1.3845   -0.9613 H   0  0  0  0  0  0  0  0  0  0  0  0
   -2.0439    3.1709   -0.5772 H   0  0  0  0  0  0  0  0  0  0  0  0
   -0.2025    0.0127    2.0305 H   0  0  0  0  0  0  0  0  0  0  0  0
    0.2750   -2.1885   -1.1591 C   0  0  0  0  0  0  0  0  0  0  0  0
    0.2750   -0.9565   -0.7236 H   0  0  0  0  0  0  0  0  0  0  0  0
    1.1641   -2.7018   -0.7962 H   0  0  0  0  0  0  0  0  0  0  0  0
   -0.6141   -2.7018   -0.7962 H   0  0  0  0  0  0  0  0  0  0  0  0
    0.2750   -2.1885   -2.2481 H   0  0  0  0  0  0  0  0  0  0  0  0
  1  2  1  0
  1  6  1  0
  1  7  1  0
  1  8  1  0
  2  3  1  0
  2  5  1  0
  3  4  3  0
  4  9  1  0
  5 10  1  0
 11 12  1  0
 11 13  1  0
 11 14  1  0
 11 15  1  0
M  RAD  1   2   2
M  END
>  <reaction>  (10) 
rxn_860

>  <mol_properties>  (10) 
{"1": {"label": "*1", "atom_type": "Cs"}, "4": {"label": "*0", "atom_type": "S2s"}, "10": {"label": "*3", "atom_type": "Cs"}, "11": {"label": "*2", "atom_type": "H0"}, "12": {"label": "*4", "atom_type": "H0"}}

>  <type>  (10) 
unop_6

>  <geom_source>  (10) 
Heuristics

$$$$

     RDKit          3D

 15 13  0  0  0  0  0  0  0  0999 V2000
    1.6696    0.4501    0.7368 C   0  0  0  0  0  0  0  0  0  0  0  0
    0.4198    0.2174   -0.1108 C   0  0  0  0  0  3  0  0  0  0  0  0
   -0.1402    1.4669   -0.6094 C   0  0  0  0  0  0  0  0  0  0  0  0
   -0.5786    2.5116   -0.9966 C   0  0  0  0  0  0  0  0  0  0  0  0
   -0.8457   -0.7825    0.7580 S   0  0  0  0  0  0  0  0  0  0  0  0
    1.4268    1.0456    1.6175 H   0  0  0  0  0  0  0  0  0  0  0  0
    2.0832   -0.5032    1.0635 H   0  0  0  0  0  0  0  0  0  0  0  0
    2.4215    0.9880    0.1571 H   0  0  0  0  0  0  0  0  0  0  0  0
   -0.9681    3.4396   -1.3405 H   0  0  0  0  0  0  0  0  0  0  0  0
   -1.1307    0.1332    1.6938 H   0  0  0  0  0  0  0  0  0  0  0  0
    0.4198   -2.2509   -0.9835 C   0  0  0  0  0  0  0  0  0  0  0  0
    0.4198   -1.0189   -0.5479 H   0  0  0  0  0  0  0  0  0  0  0  0
    1.3089   -2.7642   -0.6205 H   0  0  0  0  0  0  0  0  0  0  0  0
   -0.4694   -2.7642   -0.6205 H   0  0  0  0  0  0  0  0  0  0  0  0
    0.4198   -2.2509   -2.0724 H   0  0  0  0  0  0  0  0  0  0  0  0
  1  2  1  0
  1  6  1  0
  1  7  1  0
  1  8  1  0
  2  3  1  0
  2  5  1  0
  3  4  3  0
  4  9  1  0
  5 10  1  0
 11 12  1  0
 11 13  1  0
 11 14  1  0
 11 15  1  0
M  RAD  1   2   2
M  END
>  <reaction>  (11) 
rxn_860

>  <mol_properties>  (11) 
{"1": {"label": "*1", "atom_type": "Cs"}, "4": {"label": "*0", "atom_type": "S2s"}, "10": {"label": "*3", "atom_type": "Cs"}, "11": {"label": "*2", "atom_type": "H0"}, "12": {"label": "*4", "atom_type": "H0"}}

>  <type>  (11) 
unop_7

>  <geom_source>  (11) 
Heuristics

$$$$

     RDKit          3D

 15 13  0  0  0  0  0  0  0  0999 V2000
   -1.7514    0.6210   -0.0328 C   0  0  0  0  0  0  0  0  0  0  0  0
   -0.3082    0.1478   -0.2001 C   0  0  0  0  0  3  0  0  0  0  0  0
    0.1367   -0.6532    0.9330 C   0  0  0  0  0  0  0  0  0  0  0  0
    0.4730   -1.3009    1.8823 C   0  0  0  0  0  0  0  0  0  0  0  0
    0.8507    1.5249   -0.5413 S   0  0  0  0  0  0  0  0  0  0  0  0
   -1.8426    1.2616    0.8449 H   0  0  0  0  0  0  0  0  0  0  0  0
   -2.0644    1.1852   -0.9104 H   0  0  0  0  0  0  0  0  0  0  0  0
   -2.4145   -0.2356    0.0988 H   0  0  0  0  0  0  0  0  0  0  0  0
    0.7716   -1.8762    2.7253 H   0  0  0  0  0  0  0  0  0  0  0  0
    0.7312    2.1100    0.6581 H   0  0  0  0  0  0  0  0  0  0  0  0
   -0.3082   -2.3205   -1.0728 C   0  0  0  0  0  0  0  0  0  0  0  0
   -0.3082   -1.0885   -0.6372 H   0  0  0  0  0  0  0  0  0  0  0  0
    0.5809   -2.8338   -0.7098 H   0  0  0  0  0  0  0  0  0  0  0  0
   -1.1973   -2.8338   -0.7098 H   0  0  0  0  0  0  0  0  0  0  0  0
   -0.3082   -2.3205   -2.1617 H   0  0  0  0  0  0  0  0  0  0  0  0
  1  2  1  0
  1  6  1  0
  1  7  1  0
  1  8  1  0
  2  3  1  0
  2  5  1  0
  3  4  3  0
  4  9  1  0
  5 10  1  0
 11 12  1  0
 11 13  1  0
 11 14  1  0
 11 15  1  0
M  RAD  1   2   2
M  END
>  <reaction>  (12) 
rxn_860

>  <mol_properties>  (12) 
{"1": {"label": "*1", "atom_type": "Cs"}, "4": {"label": "*0", "atom_type": "S2s"}, "10": {"label": "*3", "atom_type": "Cs"}, "11": {"label": "*2", "atom_type": "H0"}, "12": {"label": "*4", "atom_type": "H0"}}

>  <type>  (12) 
unop_8

>  <geom_source>  (12) 
Heuristics

$$$$

     RDKit          3D

 15 13  0  0  0  0  0  0  0  0999 V2000
    0.6812    1.0797   -1.3488 C   0  0  0  0  0  0  0  0  0  0  0  0
   -0.0404    0.1898   -0.3378 C   0  0  0  0  0  3  0  0  0  0  0  0
   -1.2439    0.8243    0.1842 C   0  0  0  0  0  0  0  0  0  0  0  0
   -2.2222    1.3767    0.5983 C   0  0  0  0  0  0  0  0  0  0  0  0
    1.0580   -0.3748    1.0152 S   0  0  0  0  0  0  0  0  0  0  0  0
    1.0084    2.0059   -0.8754 H   0  0  0  0  0  0  0  0  0  0  0  0
    1.5543    0.5634   -1.7457 H   0  0  0  0  0  0  0  0  0  0  0  0
    0.0102    1.3345   -2.1708 H   0  0  0  0  0  0  0  0  0  0  0  0
   -3.0911    1.8673    0.9661 H   0  0  0  0  0  0  0  0  0  0  0  0
    1.2378    0.8339    1.5646 H   0  0  0  0  0  0  0  0  0  0  0  0
   -0.0404   -2.2784   -1.2104 C   0  0  0  0  0  0  0  0  0  0  0  0
   -0.0404   -1.0464   -0.7749 H   0  0  0  0  0  0  0  0  0  0  0  0
    0.8487   -2.7917   -0.8474 H   0  0  0  0  0  0  0  0  0  0  0  0
   -0.9295   -2.7917   -0.8474 H   0  0  0  0  0  0  0  0  0  0  0  0
   -0.0404   -2.2784   -2.2994 H   0  0  0  0  0  0  0  0  0  0  0  0
  1  2  1  0
  1  6  1  0
  1  7  1  0
  1  8  1  0
  2  3  1  0
  2  5  1  0
  3  4  3  0
  4  9  1  0
  5 10  1  0
 11 12  1  0
 11 13  1  0
 11 14  1  0
 11 15  1  0
M  RAD  1   2   2
M  END
>  <reaction>  (13) 
rxn_860

>  <mol_properties>  (13) 
{"1": {"label": "*1", "atom_type": "Cs"}, "4": {"label": "*0", "atom_type": "S2s"}, "10": {"label": "*3", "atom_type": "Cs"}, "11": {"label": "*2", "atom_type": "H0"}, "12": {"label": "*4", "atom_type": "H0"}}

>  <type>  (13) 
unop_9

>  <geom_source>  (13) 
Heuristics

$$$$

     RDKit          3D

 15 13  0  0  0  0  0  0  0  0999 V2000
   -1.4329    0.8642   -0.7958 C   0  0  0  0  0  0  0  0  0  0  0  0
   -0.1831    0.1504   -0.2829 C   0  0  0  0  0  3  0  0  0  0  0  0
   -0.4251   -0.5278    0.9840 C   0  0  0  0  0  0  0  0  0  0  0  0
   -0.6552   -1.0676    2.0277 C   0  0  0  0  0  0  0  0  0  0  0  0
    1.2708    1.2601   -0.1799 S   0  0  0  0  0  0  0  0  0  0  0  0
   -1.7450    1.6376   -0.0933 H   0  0  0  0  0  0  0  0  0  0  0  0
   -1.2292    1.3297   -1.7593 H   0  0  0  0  0  0  0  0  0  0  0  0
   -2.2527    0.1525   -0.9070 H   0  0  0  0  0  0  0  0  0  0  0  0
   -0.8597   -1.5470    2.9547 H   0  0  0  0  0  0  0  0  0  0  0  0
    0.7888    2.0330    0.8027 H   0  0  0  0  0  0  0  0  0  0  0  0
   -0.1831   -2.3179   -1.1555 C   0  0  0  0  0  0  0  0  0  0  0  0
   -0.1831   -1.0859   -0.7199 H   0  0  0  0  0  0  0  0  0  0  0  0
    0.7060   -2.8312   -0.7925 H   0  0  0  0  0  0  0  0  0  0  0  0
   -1.0722   -2.8312   -0.7925 H   0  0  0  0  0  0  0  0  0  0  0  0
   -0.1831   -2.3179   -2.2444 H   0  0  0  0  0  0  0  0  0  0  0  0
  1  2  1  0
  1  6  1  0
  1  7  1  0
  1  8  1  0
  2  3  1  0
  2  5  1  0
  3  4  3  0
  4  9  1  0
  5 10  1  0
 11 12  1  0
 11 13  1  0
 11 14  1  0
 11 15  1  0
M  RAD  1   2   2
M  END
>  <reaction>  (14) 
rxn_860

>  <mol_properties>  (14) 
{"1": {"label": "*1", "atom_type": "Cs"}, "4": {"label": "*0", "atom_type": "S2s"}, "10": {"label": "*3", "atom_type": "Cs"}, "11": {"label": "*2", "atom_type": "H0"}, "12": {"label": "*4", "atom_type": "H0"}}

>  <type>  (14) 
unop_10

>  <geom_source>  (14) 
Heuristics

$$$$

     RDKit          3D

 15 13  0  0  0  0  0  0  0  0999 V2000
    1.1239    0.1211    1.4849 C   0  0  0  0  0  0  0  0  0  0  0  0
    0.4023    0.0644    0.1392 C   0  0  0  0  0  3  0  0  0  0  0  0
    0.5845    1.2897   -0.6281 C   0  0  0  0  0  0  0  0  0  0  0  0
    0.7478    2.3124   -1.2291 C   0  0  0  0  0  0  0  0  0  0  0  0
   -1.3714   -0.3614    0.3073 S   0  0  0  0  0  0  0  0  0  0  0  0
    0.7201    0.9260    2.0998 H   0  0  0  0  0  0  0  0  0  0  0  0
    0.9983   -0.8211    2.0169 H   0  0  0  0  0  0  0  0  0  0  0  0
    2.1882    0.3083    1.3325 H   0  0  0  0  0  0  0  0  0  0  0  0
    0.8928    3.2206   -1.7630 H   0  0  0  0  0  0  0  0  0  0  0  0
   -1.7286    0.7675    0.9343 H   0  0  0  0  0  0  0  0  0  0  0  0
    0.4023   -2.4039   -0.7335 C   0  0  0  0  0  0  0  0  0  0  0  0
    0.4023   -1.1719   -0.2979 H   0  0  0  0  0  0  0  0  0  0  0  0
    1.2914   -2.9172   -0.3705 H   0  0  0  0  0  0  0  0  0  0  0  0
   -0.4868   -2.9172   -0.3705 H   0  0  0  0  0  0  0  0  0  0  0  0
    0.4023   -2.4039   -1.8224 H   0  0  0  0  0  0  0  0  0  0  0  0
  1  2  1  0
  1  6  1  0
  1  7  1  0
  1  8  1  0
  2  3  1  0
  2  5  1  0
  3  4  3  0
  4  9  1  0
  5 10  1  0
 11 12  1  0
 11 13  1  0
 11 14  1  0
 11 15  1  0
M  RAD  1   2   2
M  END
>  <reaction>  (15) 
rxn_860

>  <mol_properties>  (15) 
{"1": {"label": "*1", "atom_type": "Cs"}, "4": {"label": "*0", "atom_type": "S2s"}, "10": {"label": "*3", "atom_type": "Cs"}, "11": {"label": "*2", "atom_type": "H0"}, "12": {"label": "*4", "atom_type": "H0"}}

>  <type>  (15) 
unop_11

>  <geom_source>  (15) 
Heuristics

$$$$

     RDKit          3D

 15 13  0  0  0  0  0  0  0  0999 V2000
   -0.0806    1.0821   -1.4944 C   0  0  0  0  0  0  0  0  0  0  0  0
   -0.0806    0.1278   -0.3011 C   0  0  0  0  0  3  0  0  0  0  0  0
   -1.2516    0.3152    0.5456 C   0  0  0  0  0  0  0  0  0  0  0  0
   -2.2211    0.4997    1.2237 C   0  0  0  0  0  0  0  0  0  0  0  0
    1.4689    0.2154    0.6721 S   0  0  0  0  0  0  0  0  0  0  0  0
   -0.0452    2.1174   -1.1539 H   0  0  0  0  0  0  0  0  0  0  0  0
    0.7869    0.8925   -2.1253 H   0  0  0  0  0  0  0  0  0  0  0  0
   -0.9893    0.9468   -2.0833 H   0  0  0  0  0  0  0  0  0  0  0  0
   -3.0821    0.6636    1.8259 H   0  0  0  0  0  0  0  0  0  0  0  0
    1.2808    1.4624    1.1247 H   0  0  0  0  0  0  0  0  0  0  0  0
   -0.0806   -2.3405   -1.1738 C   0  0  0  0  0  0  0  0  0  0  0  0
   -0.0806   -1.1085   -0.7382 H   0  0  0  0  0  0  0  0  0  0  0  0
    0.8085   -2.8538   -0.8108 H   0  0  0  0  0  0  0  0  0  0  0  0
   -0.9697   -2.8538   -0.8108 H   0  0  0  0  0  0  0  0  0  0  0  0
   -0.0806   -2.3405   -2.2627 H   0  0  0  0  0  0  0  0  0  0  0  0
  1  2  1  0
  1  6  1  0
  1  7  1  0
  1  8  1  0
  2  3  1  0
  2  5  1  0
  3  4  3  0
  4  9  1  0
  5 10  1  0
 11 12  1  0
 11 13  1  0
 11 14  1  0
 11 15  1  0
M  RAD  1   2   2
M  END
>  <reaction>  (16) 
rxn_860

>  <mol_properties>  (16) 
{"1": {"label": "*1", "atom_type": "Cs"}, "4": {"label": "*0", "atom_type": "S2s"}, "10": {"label": "*3", "atom_type": "Cs"}, "11": {"label": "*2", "atom_type": "H0"}, "12": {"label": "*4", "atom_type": "H0"}}

>  <type>  (16) 
unop_12

>  <geom_source>  (16) 
Heuristics

$$$$

     RDKit          3D

 15 13  0  0  0  0  0  0  0  0999 V2000
    0.5413   -1.1782    1.6044 S   0  0  0  0  0  0  0  0  0  0  0  0
   -0.3096   -0.2693    0.2775 C   0  0  0  0  0  3  0  0  0  0  0  0
   -0.6234   -1.2019   -0.8882 C   0  0  0  0  0  0  0  0  0  0  0  0
    1.6941    1.1954   -0.4632 C   0  0  0  0  0  0  0  0  0  0  0  0
   -1.5457    0.3139    0.8109 C   0  0  0  0  0  0  0  0  0  0  0  0
   -2.5613    0.7946    1.2484 C   0  0  0  0  0  0  0  0  0  0  0  0
    0.5309    0.7784   -0.1773 H   0  0  0  0  0  0  0  0  0  0  0  0
    0.3193   -1.6182   -1.3012 H   0  0  0  0  0  0  0  0  0  0  0  0
   -1.2734   -2.0405   -0.5569 H   0  0  0  0  0  0  0  0  0  0  0  0
   -1.1380   -0.6406   -1.6972 H   0  0  0  0  0  0  0  0  0  0  0  0
    2.1244    0.9715    0.5346 H   0  0  0  0  0  0  0  0  0  0  0  0
    2.3270    0.7363   -1.2502 H   0  0  0  0  0  0  0  0  0  0  0  0
    1.6577    2.2941   -0.6121 H   0  0  0  0  0  0  0  0  0  0  0  0
    1.7094   -1.3518    0.8380 H   0  0  0  0  0  0  0  0  0  0  0  0
   -3.4526    1.2163    1.6325 H   0  0  0  0  0  0  0  0  0  0  0  0
  1  2  1  0
  1 14  1  0
  2  3  1  0
  2  5  1  0
  3  8  1  0
  3  9  1  0
  3 10  1  0
  4  7  1  0
  4 11  1  0
  4 12  1  0
  4 13  1  0
  5  6  3  0
  6 15  1  0
M  RAD  1   2   2
M  END
>  <reaction>  (17) 
rxn_860

>  <mol_properties>  (17) 
{"1": {"label": "*1", "atom_type": "Cs"}, "4": {"label": "*0", "atom_type": "S2s"}, "10": {"label": "*3", "atom_type": "Cs"}, "11": {"label": "*2", "atom_type": "H0"}, "12": {"label": "*4", "atom_type": "H0"}}

>  <type>  (17) 
unop_13

>  <geom_source>  (17) 
AutoTST

$$$$
