
     RDKit          3D

 15 14  0  0  0  0  0  0  0  0999 V2000
    2.1256    0.4849   -0.6284 C   0  0  0  0  0  0  0  0  0  0  0  0
    1.1128    0.2141    0.1794 C   0  0  0  0  0  0  0  0  0  0  0  0
   -0.3017   -0.0425   -0.2513 C   0  0  0  0  0  0  0  0  0  0  0  0
   -1.2427    1.0075    0.3423 C   0  0  0  0  0  0  0  0  0  0  0  0
   -0.7381   -1.4526    0.1504 C   0  0  0  0  0  0  0  0  0  0  0  0
    3.1243    0.6602   -0.2486 H   0  0  0  0  0  0  0  0  0  0  0  0
    1.9908    0.5411   -1.7036 H   0  0  0  0  0  0  0  0  0  0  0  0
    1.2888    0.1665    1.2533 H   0  0  0  0  0  0  0  0  0  0  0  0
   -0.3426    0.0343   -1.3424 H   0  0  0  0  0  0  0  0  0  0  0  0
   -0.9570    2.0133    0.0315 H   0  0  0  0  0  0  0  0  0  0  0  0
   -1.2189    0.9728    1.4350 H   0  0  0  0  0  0  0  0  0  0  0  0
   -2.2723    0.8287    0.0254 H   0  0  0  0  0  0  0  0  0  0  0  0
   -0.6964   -1.5744    1.2363 H   0  0  0  0  0  0  0  0  0  0  0  0
   -0.0911   -2.2079   -0.2978 H   0  0  0  0  0  0  0  0  0  0  0  0
   -1.7646   -1.6461   -0.1677 H   0  0  0  0  0  0  0  0  0  0  0  0
  1  2  2  3
  1  6  1  0
  1  7  1  0
  2  3  1  0
  2  8  1  0
  3  4  1  0
  3  5  1  0
  3  9  1  0
  4 10  1  0
  4 11  1  0
  4 12  1  0
  5 13  1  0
  5 14  1  0
  5 15  1  0
M  END
>  <reaction>  (1) 
rxn_104

>  <mol_properties>  (1) 
{"3": {"label": "donator", "atom_type": "Cs"}, "9": {"label": "d_hydrogen", "atom_type": "H0"}}

>  <type>  (1) 
r1h

$$$$

     RDKit          3D

  3  2  0  0  0  0  0  0  0  0999 V2000
    0.0002    0.4233    0.0000 N   0  0  0  0  0  2  0  0  0  0  0  0
   -0.8051   -0.2112    0.0000 H   0  0  0  0  0  0  0  0  0  0  0  0
    0.8049   -0.2121    0.0000 H   0  0  0  0  0  0  0  0  0  0  0  0
  1  2  1  0
  1  3  1  0
M  RAD  1   1   2
M  END
>  <reaction>  (2) 
rxn_104

>  <mol_properties>  (2) 
{"0": {"label": "acceptor", "atom_type": "N3s"}}

>  <type>  (2) 
r2

$$$$

     RDKit          3D

  4  3  0  0  0  0  0  0  0  0999 V2000
    0.0006   -0.0009    0.2762 N   0  0  0  0  0  0  0  0  0  0  0  0
   -0.4188    0.8439   -0.0883 H   0  0  0  0  0  0  0  0  0  0  0  0
   -0.5215   -0.7840   -0.0936 H   0  0  0  0  0  0  0  0  0  0  0  0
    0.9397   -0.0590   -0.0943 H   0  0  0  0  0  0  0  0  0  0  0  0
  1  2  1  0
  1  3  1  0
  1  4  1  0
M  END
>  <reaction>  (3) 
rxn_104

>  <mol_properties>  (3) 
{"0": {"label": "acceptor", "atom_type": "N3s"}, "3": {"label": "a_hydrogen", "atom_type": "H0"}}

>  <type>  (3) 
r2h

$$$$

     RDKit          3D

 18 16  0  0  0  0  0  0  0  0999 V2000
    2.5916    0.6586   -0.3658 N   0  0  0  0  0  2  0  0  0  0  0  0
    3.2549    0.0209    0.0782 H   0  0  0  0  0  0  0  0  0  0  0  0
    2.1662    0.1011   -1.1096 H   0  0  0  0  0  0  0  0  0  0  0  0
   -0.5653   -0.5703   -1.9598 C   0  0  0  0  0  0  0  0  0  0  0  0
   -0.5967   -0.7106   -0.6438 C   0  0  0  0  0  0  0  0  0  0  0  0
   -0.6232    0.4146    0.3500 C   0  0  0  0  0  0  0  0  0  0  0  0
    0.6005    0.3763    1.2433 C   0  0  0  0  0  0  0  0  0  0  0  0
   -1.9070    0.3563    1.1890 C   0  0  0  0  0  0  0  0  0  0  0  0
   -0.5540   -1.4272   -2.6217 H   0  0  0  0  0  0  0  0  0  0  0  0
   -0.5537    0.4111   -2.4224 H   0  0  0  0  0  0  0  0  0  0  0  0
   -0.6081   -1.7119   -0.2156 H   0  0  0  0  0  0  0  0  0  0  0  0
   -0.6161    1.3598   -0.2016 H   0  0  0  0  0  0  0  0  0  0  0  0
    1.6250    0.6105    0.4934 H   0  0  0  0  0  0  0  0  0  0  0  0
    0.7718   -0.5899    1.7191 H   0  0  0  0  0  0  0  0  0  0  0  0
    0.6440    1.1900    1.9672 H   0  0  0  0  0  0  0  0  0  0  0  0
   -1.9599   -0.5801    1.7500 H   0  0  0  0  0  0  0  0  0  0  0  0
   -2.7898    0.4195    0.5506 H   0  0  0  0  0  0  0  0  0  0  0  0
   -1.9386    1.1795    1.9048 H   0  0  0  0  0  0  0  0  0  0  0  0
  1  2  1  0
  1  3  1  0
  4  5  2  3
  4  9  1  0
  4 10  1  0
  5  6  1  0
  5 11  1  0
  6  7  1  0
  6  8  1  0
  6 12  1  0
  7 13  1  0
  7 14  1  0
  7 15  1  0
  8 16  1  0
  8 17  1  0
  8 18  1  0
M  RAD  1   1   2
M  END
>  <reaction>  (4) 
rxn_104

>  <mol_properties>  (4) 
{"0": {"label": "*3", "atom_type": "N3s"}, "1": {"label": "*4", "atom_type": "H0"}, "5": {"label": "*0", "atom_type": "Cs"}, "6": {"label": "*1", "atom_type": "Cs"}, "12": {"label": "*2", "atom_type": "H0"}}

>  <type>  (4) 
ts

$$$$

     RDKit          3D

 18 16  0  0  0  0  0  0  0  0999 V2000
    2.7109    0.4102   -0.2749 N   0  0  0  0  0  0  0  0  0  0  0  0
    3.2178    1.2593   -0.0634 H   0  0  0  0  0  0  0  0  0  0  0  0
    2.9555   -0.1584    0.5248 H   0  0  0  0  0  0  0  0  0  0  0  0
   -0.6331   -0.8653   -1.9179 C   0  0  0  0  0  0  0  0  0  0  0  0
   -0.6331   -0.8653   -0.5944 C   0  0  0  0  0  0  0  0  0  0  0  0
   -0.6331    0.3561    0.2777 C   0  0  0  0  0  0  0  0  0  0  0  0
    0.6262    0.3966    1.1453 C   0  0  0  0  0  3  0  0  0  0  0  0
   -1.8924    0.3966    1.1453 C   0  0  0  0  0  0  0  0  0  0  0  0
   -0.6331   -1.7870   -2.4861 H   0  0  0  0  0  0  0  0  0  0  0  0
   -0.6331    0.0613   -2.4824 H   0  0  0  0  0  0  0  0  0  0  0  0
   -0.6331   -1.8166   -0.0638 H   0  0  0  0  0  0  0  0  0  0  0  0
   -0.6331    1.2365   -0.3727 H   0  0  0  0  0  0  0  0  0  0  0  0
    1.7081    0.4036    0.4083 H   0  0  0  0  0  0  0  0  0  0  0  0
    0.6708   -0.4773    1.8011 H   0  0  0  0  0  0  0  0  0  0  0  0
    0.6338    1.2878    1.7763 H   0  0  0  0  0  0  0  0  0  0  0  0
   -1.9370   -0.4773    1.8011 H   0  0  0  0  0  0  0  0  0  0  0  0
   -2.7939    0.4025    0.5312 H   0  0  0  0  0  0  0  0  0  0  0  0
   -1.8999    1.2878    1.7763 H   0  0  0  0  0  0  0  0  0  0  0  0
  1  2  1  0
  1  3  1  0
  1 13  1  0
  4  5  2  3
  4  9  1  0
  4 10  1  0
  5  6  1  0
  5 11  1  0
  6  7  1  0
  6  8  1  0
  6 12  1  0
  7 14  1  0
  7 15  1  0
  8 16  1  0
  8 17  1  0
  8 18  1  0
M  RAD  1   7   2
M  END
>  <reaction>  (5) 
rxn_104

>  <mol_properties>  (5) 
{"0": {"label": "*3", "atom_type": "N3s"}, "1": {"label": "*4", "atom_type": "H0"}, "5": {"label": "*0", "atom_type": "Cs"}, "6": {"label": "*1", "atom_type": "Cs"}, "12": {"label": "*2", "atom_type": "H0"}}

>  <type>  (5) 
unop_1

>  <geom_source>  (5) 
Heuristics

$$$$

     RDKit          3D

 18 16  0  0  0  0  0  0  0  0999 V2000
    2.7198    0.4014   -0.2623 N   0  0  0  0  0  0  0  0  0  0  0  0
    2.4922    0.8631   -1.1327 H   0  0  0  0  0  0  0  0  0  0  0  0
    2.9399    0.9682    0.5457 H   0  0  0  0  0  0  0  0  0  0  0  0
   -0.6242   -0.8740   -1.9053 C   0  0  0  0  0  0  0  0  0  0  0  0
   -0.6242   -0.8740   -0.5818 C   0  0  0  0  0  0  0  0  0  0  0  0
   -0.6242    0.3474    0.2902 C   0  0  0  0  0  0  0  0  0  0  0  0
    0.6351    0.3878    1.1579 C   0  0  0  0  0  3  0  0  0  0  0  0
   -1.8835    0.3878    1.1579 C   0  0  0  0  0  0  0  0  0  0  0  0
   -0.6242   -1.7957   -2.4736 H   0  0  0  0  0  0  0  0  0  0  0  0
   -0.6242    0.0525   -2.4699 H   0  0  0  0  0  0  0  0  0  0  0  0
   -0.6242   -1.8253   -0.0513 H   0  0  0  0  0  0  0  0  0  0  0  0
   -0.6242    1.2277   -0.3601 H   0  0  0  0  0  0  0  0  0  0  0  0
    1.7170    0.3949    0.4209 H   0  0  0  0  0  0  0  0  0  0  0  0
    0.6797   -0.4860    1.8137 H   0  0  0  0  0  0  0  0  0  0  0  0
    0.6426    1.2790    1.7889 H   0  0  0  0  0  0  0  0  0  0  0  0
   -1.9281   -0.4860    1.8137 H   0  0  0  0  0  0  0  0  0  0  0  0
   -2.7850    0.3937    0.5437 H   0  0  0  0  0  0  0  0  0  0  0  0
   -1.8910    1.2790    1.7889 H   0  0  0  0  0  0  0  0  0  0  0  0
  1  2  1  0
  1  3  1  0
  1 13  1  0
  4  5  2  3
  4  9  1  0
  4 10  1  0
  5  6  1  0
  5 11  1  0
  6  7  1  0
  6  8  1  0
  6 12  1  0
  7 14  1  0
  7 15  1  0
  8 16  1  0
  8 17  1  0
  8 18  1  0
M  RAD  1   7   2
M  END
>  <reaction>  (6) 
rxn_104

>  <mol_properties>  (6) 
{"0": {"label": "*3", "atom_type": "N3s"}, "1": {"label": "*4", "atom_type": "H0"}, "5": {"label": "*0", "atom_type": "Cs"}, "6": {"label": "*1", "atom_type": "Cs"}, "12": {"label": "*2", "atom_type": "H0"}}

>  <type>  (6) 
unop_2

>  <geom_source>  (6) 
Heuristics

$$$$

     RDKit          3D

 18 16  0  0  0  0  0  0  0  0999 V2000
    2.7080    0.4179   -0.2736 N   0  0  0  0  0  0  0  0  0  0  0  0
    3.4202    0.9235    0.2360 H   0  0  0  0  0  0  0  0  0  0  0  0
    2.9962   -0.4673    0.1213 H   0  0  0  0  0  0  0  0  0  0  0  0
   -0.6360   -0.8575   -1.9166 C   0  0  0  0  0  0  0  0  0  0  0  0
   -0.6360   -0.8575   -0.5931 C   0  0  0  0  0  0  0  0  0  0  0  0
   -0.6360    0.3639    0.2789 C   0  0  0  0  0  0  0  0  0  0  0  0
    0.6233    0.4043    1.1466 C   0  0  0  0  0  3  0  0  0  0  0  0
   -1.8953    0.4043    1.1466 C   0  0  0  0  0  0  0  0  0  0  0  0
   -0.6360   -1.7792   -2.4849 H   0  0  0  0  0  0  0  0  0  0  0  0
   -0.6360    0.0690   -2.4812 H   0  0  0  0  0  0  0  0  0  0  0  0
   -0.6360   -1.8088   -0.0626 H   0  0  0  0  0  0  0  0  0  0  0  0
   -0.6360    1.2442   -0.3714 H   0  0  0  0  0  0  0  0  0  0  0  0
    1.7052    0.4114    0.4096 H   0  0  0  0  0  0  0  0  0  0  0  0
    0.6679   -0.4696    1.8024 H   0  0  0  0  0  0  0  0  0  0  0  0
    0.6308    1.2955    1.7776 H   0  0  0  0  0  0  0  0  0  0  0  0
   -1.9399   -0.4696    1.8024 H   0  0  0  0  0  0  0  0  0  0  0  0
   -2.7968    0.4102    0.5324 H   0  0  0  0  0  0  0  0  0  0  0  0
   -1.9028    1.2955    1.7776 H   0  0  0  0  0  0  0  0  0  0  0  0
  1  2  1  0
  1  3  1  0
  1 13  1  0
  4  5  2  3
  4  9  1  0
  4 10  1  0
  5  6  1  0
  5 11  1  0
  6  7  1  0
  6  8  1  0
  6 12  1  0
  7 14  1  0
  7 15  1  0
  8 16  1  0
  8 17  1  0
  8 18  1  0
M  RAD  1   7   2
M  END
>  <reaction>  (7) 
rxn_104

>  <mol_properties>  (7) 
{"0": {"label": "*3", "atom_type": "N3s"}, "1": {"label": "*4", "atom_type": "H0"}, "5": {"label": "*0", "atom_type": "Cs"}, "6": {"label": "*1", "atom_type": "Cs"}, "12": {"label": "*2", "atom_type": "H0"}}

>  <type>  (7) 
unop_3

>  <geom_source>  (7) 
Heuristics

$$$$

     RDKit          3D

 18 16  0  0  0  0  0  0  0  0999 V2000
    2.7159    0.4137   -0.2510 N   0  0  0  0  0  0  0  0  0  0  0  0
    2.7122   -0.4322   -0.8052 H   0  0  0  0  0  0  0  0  0  0  0  0
    3.0475    1.2434   -0.7244 H   0  0  0  0  0  0  0  0  0  0  0  0
   -0.6281   -0.8618   -1.8940 C   0  0  0  0  0  0  0  0  0  0  0  0
   -0.6281   -0.8618   -0.5705 C   0  0  0  0  0  0  0  0  0  0  0  0
   -0.6281    0.3596    0.3015 C   0  0  0  0  0  0  0  0  0  0  0  0
    0.6312    0.4000    1.1692 C   0  0  0  0  0  3  0  0  0  0  0  0
   -1.8874    0.4000    1.1692 C   0  0  0  0  0  0  0  0  0  0  0  0
   -0.6281   -1.7835   -2.4623 H   0  0  0  0  0  0  0  0  0  0  0  0
   -0.6281    0.0648   -2.4586 H   0  0  0  0  0  0  0  0  0  0  0  0
   -0.6281   -1.8131   -0.0400 H   0  0  0  0  0  0  0  0  0  0  0  0
   -0.6281    1.2399   -0.3488 H   0  0  0  0  0  0  0  0  0  0  0  0
    1.7130    0.4071    0.4322 H   0  0  0  0  0  0  0  0  0  0  0  0
    0.6758   -0.4738    1.8250 H   0  0  0  0  0  0  0  0  0  0  0  0
    0.6387    1.2912    1.8002 H   0  0  0  0  0  0  0  0  0  0  0  0
   -1.9320   -0.4738    1.8250 H   0  0  0  0  0  0  0  0  0  0  0  0
   -2.7890    0.4059    0.5550 H   0  0  0  0  0  0  0  0  0  0  0  0
   -1.8950    1.2912    1.8002 H   0  0  0  0  0  0  0  0  0  0  0  0
  1  2  1  0
  1  3  1  0
  1 13  1  0
  4  5  2  3
  4  9  1  0
  4 10  1  0
  5  6  1  0
  5 11  1  0
  6  7  1  0
  6  8  1  0
  6 12  1  0
  7 14  1  0
  7 15  1  0
  8 16  1  0
  8 17  1  0
  8 18  1  0
M  RAD  1   7   2
M  END
>  <reaction>  (8) 
rxn_104

>  <mol_properties>  (8) 
{"0": {"label": "*3", "atom_type": "N3s"}, "1": {"label": "*4", "atom_type": "H0"}, "5": {"label": "*0", "atom_type": "Cs"}, "6": {"label": "*1", "atom_type": "Cs"}, "12": {"label": "*2", "atom_type": "H0"}}

>  <type>  (8) 
unop_4

>  <geom_source>  (8) 
Heuristics

$$$$

     RDKit          3D

 18 16  0  0  0  0  0  0  0  0999 V2000
    2.7063    0.4233   -0.2660 N   0  0  0  0  0  0  0  0  0  0  0  0
    3.5004    0.4503    0.3594 H   0  0  0  0  0  0  0  0  0  0  0  0
    3.0640   -0.4473   -0.6356 H   0  0  0  0  0  0  0  0  0  0  0  0
   -0.6378   -0.8521   -1.9090 C   0  0  0  0  0  0  0  0  0  0  0  0
   -0.6378   -0.8521   -0.5855 C   0  0  0  0  0  0  0  0  0  0  0  0
   -0.6378    0.3693    0.2865 C   0  0  0  0  0  0  0  0  0  0  0  0
    0.6215    0.4097    1.1542 C   0  0  0  0  0  3  0  0  0  0  0  0
   -1.8971    0.4097    1.1542 C   0  0  0  0  0  0  0  0  0  0  0  0
   -0.6378   -1.7738   -2.4773 H   0  0  0  0  0  0  0  0  0  0  0  0
   -0.6378    0.0744   -2.4736 H   0  0  0  0  0  0  0  0  0  0  0  0
   -0.6378   -1.8034   -0.0550 H   0  0  0  0  0  0  0  0  0  0  0  0
   -0.6378    1.2496   -0.3639 H   0  0  0  0  0  0  0  0  0  0  0  0
    1.7034    0.4168    0.4172 H   0  0  0  0  0  0  0  0  0  0  0  0
    0.6661   -0.4641    1.8100 H   0  0  0  0  0  0  0  0  0  0  0  0
    0.6291    1.3009    1.7852 H   0  0  0  0  0  0  0  0  0  0  0  0
   -1.9417   -0.4641    1.8100 H   0  0  0  0  0  0  0  0  0  0  0  0
   -2.7986    0.4156    0.5400 H   0  0  0  0  0  0  0  0  0  0  0  0
   -1.9046    1.3009    1.7852 H   0  0  0  0  0  0  0  0  0  0  0  0
  1  2  1  0
  1  3  1  0
  1 13  1  0
  4  5  2  3
  4  9  1  0
  4 10  1  0
  5  6  1  0
  5 11  1  0
  6  7  1  0
  6  8  1  0
  6 12  1  0
  7 14  1  0
  7 15  1  0
  8 16  1  0
  8 17  1  0
  8 18  1  0
M  RAD  1   7   2
M  END
>  <reaction>  (9) 
rxn_104

>  <mol_properties>  (9) 
{"0": {"label": "*3", "atom_type": "N3s"}, "1": {"label": "*4", "atom_type": "H0"}, "5": {"label": "*0", "atom_type": "Cs"}, "6": {"label": "*1", "atom_type": "Cs"}, "12": {"label": "*2", "atom_type": "H0"}}

>  <type>  (9) 
unop_5

>  <geom_source>  (9) 
Heuristics

$$$$

     RDKit          3D

 18 16  0  0  0  0  0  0  0  0999 V2000
    2.7123    0.4180   -0.2524 N   0  0  0  0  0  0  0  0  0  0  0  0
    2.9825   -0.5443   -0.4058 H   0  0  0  0  0  0  0  0  0  0  0  0
    3.0748    0.9897   -1.0037 H   0  0  0  0  0  0  0  0  0  0  0  0
   -0.6317   -0.8574   -1.8954 C   0  0  0  0  0  0  0  0  0  0  0  0
   -0.6317   -0.8574   -0.5719 C   0  0  0  0  0  0  0  0  0  0  0  0
   -0.6317    0.3640    0.3001 C   0  0  0  0  0  0  0  0  0  0  0  0
    0.6276    0.4044    1.1678 C   0  0  0  0  0  3  0  0  0  0  0  0
   -1.8910    0.4044    1.1678 C   0  0  0  0  0  0  0  0  0  0  0  0
   -0.6317   -1.7791   -2.4637 H   0  0  0  0  0  0  0  0  0  0  0  0
   -0.6317    0.0691   -2.4600 H   0  0  0  0  0  0  0  0  0  0  0  0
   -0.6317   -1.8087   -0.0414 H   0  0  0  0  0  0  0  0  0  0  0  0
   -0.6317    1.2443   -0.3503 H   0  0  0  0  0  0  0  0  0  0  0  0
    1.7095    0.4115    0.4307 H   0  0  0  0  0  0  0  0  0  0  0  0
    0.6722   -0.4694    1.8236 H   0  0  0  0  0  0  0  0  0  0  0  0
    0.6352    1.2956    1.7987 H   0  0  0  0  0  0  0  0  0  0  0  0
   -1.9356   -0.4694    1.8236 H   0  0  0  0  0  0  0  0  0  0  0  0
   -2.7925    0.4103    0.5536 H   0  0  0  0  0  0  0  0  0  0  0  0
   -1.8985    1.2956    1.7987 H   0  0  0  0  0  0  0  0  0  0  0  0
  1  2  1  0
  1  3  1  0
  1 13  1  0
  4  5  2  3
  4  9  1  0
  4 10  1  0
  5  6  1  0
  5 11  1  0
  6  7  1  0
  6  8  1  0
  6 12  1  0
  7 14  1  0
  7 15  1  0
  8 16  1  0
  8 17  1  0
  8 18  1  0
M  RAD  1   7   2
M  END
>  <reaction>  (10) 
rxn_104

>  <mol_properties>  (10) 
{"0": {"label": "*3", "atom_type": "N3s"}, "1": {"label": "*4", "atom_type": "H0"}, "5": {"label": "*0", "atom_type": "Cs"}, "6": {"label": "*1", "atom_type": "Cs"}, "12": {"label": "*2", "atom_type": "H0"}}

>  <type>  (10) 
unop_6

>  <geom_source>  (10) 
Heuristics

$$$$

     RDKit          3D

 18 16  0  0  0  0  0  0  0  0999 V2000
    2.7089    0.4206   -0.2552 N   0  0  0  0  0  0  0  0  0  0  0  0
    3.2479   -0.4000   -0.0126 H   0  0  0  0  0  0  0  0  0  0  0  0
    3.0934    0.6353   -1.1655 H   0  0  0  0  0  0  0  0  0  0  0  0
   -0.6351   -0.8549   -1.8982 C   0  0  0  0  0  0  0  0  0  0  0  0
   -0.6351   -0.8549   -0.5747 C   0  0  0  0  0  0  0  0  0  0  0  0
   -0.6351    0.3665    0.2973 C   0  0  0  0  0  0  0  0  0  0  0  0
    0.6242    0.4069    1.1650 C   0  0  0  0  0  3  0  0  0  0  0  0
   -1.8944    0.4069    1.1650 C   0  0  0  0  0  0  0  0  0  0  0  0
   -0.6351   -1.7766   -2.4665 H   0  0  0  0  0  0  0  0  0  0  0  0
   -0.6351    0.0717   -2.4628 H   0  0  0  0  0  0  0  0  0  0  0  0
   -0.6351   -1.8062   -0.0442 H   0  0  0  0  0  0  0  0  0  0  0  0
   -0.6351    1.2468   -0.3530 H   0  0  0  0  0  0  0  0  0  0  0  0
    1.7061    0.4140    0.4280 H   0  0  0  0  0  0  0  0  0  0  0  0
    0.6688   -0.4669    1.8208 H   0  0  0  0  0  0  0  0  0  0  0  0
    0.6317    1.2981    1.7960 H   0  0  0  0  0  0  0  0  0  0  0  0
   -1.9390   -0.4669    1.8208 H   0  0  0  0  0  0  0  0  0  0  0  0
   -2.7959    0.4128    0.5508 H   0  0  0  0  0  0  0  0  0  0  0  0
   -1.9019    1.2981    1.7960 H   0  0  0  0  0  0  0  0  0  0  0  0
  1  2  1  0
  1  3  1  0
  1 13  1  0
  4  5  2  3
  4  9  1  0
  4 10  1  0
  5  6  1  0
  5 11  1  0
  6  7  1  0
  6  8  1  0
  6 12  1  0
  7 14  1  0
  7 15  1  0
  8 16  1  0
  8 17  1  0
  8 18  1  0
M  RAD  1   7   2
M  END
>  <reaction>  (11) 
rxn_104

>  <mol_properties>  (11) 
{"0": {"label": "*3", "atom_type": "N3s"}, "1": {"label": "*4", "atom_type": "H0"}, "5": {"label": "*0", "atom_type": "Cs"}, "6": {"label": "*1", "atom_type": "Cs"}, "12": {"label": "*2", "atom_type": "H0"}}

>  <type>  (11) 
unop_7

>  <geom_source>  (11) 
Heuristics

$$$$

     RDKit          3D

 18 16  0  0  0  0  0  0  0  0999 V2000
    2.7144    0.4047   -0.2721 N   0  0  0  0  0  0  0  0  0  0  0  0
    2.9474    1.3703   -0.4614 H   0  0  0  0  0  0  0  0  0  0  0  0
    2.9366    0.1909    0.6910 H   0  0  0  0  0  0  0  0  0  0  0  0
   -0.6296   -0.8708   -1.9151 C   0  0  0  0  0  0  0  0  0  0  0  0
   -0.6296   -0.8708   -0.5916 C   0  0  0  0  0  0  0  0  0  0  0  0
   -0.6296    0.3506    0.2804 C   0  0  0  0  0  0  0  0  0  0  0  0
    0.6297    0.3910    1.1481 C   0  0  0  0  0  3  0  0  0  0  0  0
   -1.8889    0.3910    1.1481 C   0  0  0  0  0  0  0  0  0  0  0  0
   -0.6296   -1.7925   -2.4834 H   0  0  0  0  0  0  0  0  0  0  0  0
   -0.6296    0.0558   -2.4797 H   0  0  0  0  0  0  0  0  0  0  0  0
   -0.6296   -1.8221   -0.0610 H   0  0  0  0  0  0  0  0  0  0  0  0
   -0.6296    1.2309   -0.3699 H   0  0  0  0  0  0  0  0  0  0  0  0
    1.7116    0.3981    0.4111 H   0  0  0  0  0  0  0  0  0  0  0  0
    0.6743   -0.4828    1.8039 H   0  0  0  0  0  0  0  0  0  0  0  0
    0.6372    1.2822    1.7791 H   0  0  0  0  0  0  0  0  0  0  0  0
   -1.9335   -0.4828    1.8039 H   0  0  0  0  0  0  0  0  0  0  0  0
   -2.7905    0.3969    0.5339 H   0  0  0  0  0  0  0  0  0  0  0  0
   -1.8964    1.2822    1.7791 H   0  0  0  0  0  0  0  0  0  0  0  0
  1  2  1  0
  1  3  1  0
  1 13  1  0
  4  5  2  3
  4  9  1  0
  4 10  1  0
  5  6  1  0
  5 11  1  0
  6  7  1  0
  6  8  1  0
  6 12  1  0
  7 14  1  0
  7 15  1  0
  8 16  1  0
  8 17  1  0
  8 18  1  0
M  RAD  1   7   2
M  END
>  <reaction>  (12) 
rxn_104

>  <mol_properties>  (12) 
{"0": {"label": "*3", "atom_type": "N3s"}, "1": {"label": "*4", "atom_type": "H0"}, "5": {"label": "*0", "atom_type": "Cs"}, "6": {"label": "*1", "atom_type": "Cs"}, "12": {"label": "*2", "atom_type": "H0"}}

>  <type>  (12) 
unop_8

>  <geom_source>  (12) 
Heuristics

$$$$

     RDKit          3D

 18 16  0  0  0  0  0  0  0  0999 V2000
    2.7188    0.4080   -0.2523 N   0  0  0  0  0  0  0  0  0  0  0  0
    2.5097   -0.0942   -1.1047 H   0  0  0  0  0  0  0  0  0  0  0  0
    3.0101    1.3743   -0.3162 H   0  0  0  0  0  0  0  0  0  0  0  0
   -0.6252   -0.8674   -1.8953 C   0  0  0  0  0  0  0  0  0  0  0  0
   -0.6252   -0.8674   -0.5718 C   0  0  0  0  0  0  0  0  0  0  0  0
   -0.6252    0.3540    0.3002 C   0  0  0  0  0  0  0  0  0  0  0  0
    0.6341    0.3944    1.1679 C   0  0  0  0  0  3  0  0  0  0  0  0
   -1.8845    0.3944    1.1679 C   0  0  0  0  0  0  0  0  0  0  0  0
   -0.6252   -1.7891   -2.4636 H   0  0  0  0  0  0  0  0  0  0  0  0
   -0.6252    0.0591   -2.4599 H   0  0  0  0  0  0  0  0  0  0  0  0
   -0.6252   -1.8187   -0.0413 H   0  0  0  0  0  0  0  0  0  0  0  0
   -0.6252    1.2343   -0.3501 H   0  0  0  0  0  0  0  0  0  0  0  0
    1.7159    0.4015    0.4309 H   0  0  0  0  0  0  0  0  0  0  0  0
    0.6786   -0.4794    1.8237 H   0  0  0  0  0  0  0  0  0  0  0  0
    0.6416    1.2856    1.7989 H   0  0  0  0  0  0  0  0  0  0  0  0
   -1.9291   -0.4794    1.8237 H   0  0  0  0  0  0  0  0  0  0  0  0
   -2.7861    0.4003    0.5537 H   0  0  0  0  0  0  0  0  0  0  0  0
   -1.8921    1.2856    1.7989 H   0  0  0  0  0  0  0  0  0  0  0  0
  1  2  1  0
  1  3  1  0
  1 13  1  0
  4  5  2  3
  4  9  1  0
  4 10  1  0
  5  6  1  0
  5 11  1  0
  6  7  1  0
  6  8  1  0
  6 12  1  0
  7 14  1  0
  7 15  1  0
  8 16  1  0
  8 17  1  0
  8 18  1  0
M  RAD  1   7   2
M  END
>  <reaction>  (13) 
rxn_104

>  <mol_properties>  (13) 
{"0": {"label": "*3", "atom_type": "N3s"}, "1": {"label": "*4", "atom_type": "H0"}, "5": {"label": "*0", "atom_type": "Cs"}, "6": {"label": "*1", "atom_type": "Cs"}, "12": {"label": "*2", "atom_type": "H0"}}

>  <type>  (13) 
unop_9

>  <geom_source>  (13) 
Heuristics

$$$$

     RDKit          3D

 18 16  0  0  0  0  0  0  0  0999 V2000
    2.7177    0.4019   -0.2676 N   0  0  0  0  0  0  0  0  0  0  0  0
    2.6819    1.2257   -0.8529 H   0  0  0  0  0  0  0  0  0  0  0  0
    2.9309    0.5684    0.7068 H   0  0  0  0  0  0  0  0  0  0  0  0
   -0.6264   -0.8736   -1.9106 C   0  0  0  0  0  0  0  0  0  0  0  0
   -0.6264   -0.8736   -0.5871 C   0  0  0  0  0  0  0  0  0  0  0  0
   -0.6264    0.3478    0.2849 C   0  0  0  0  0  0  0  0  0  0  0  0
    0.6329    0.3882    1.1526 C   0  0  0  0  0  3  0  0  0  0  0  0
   -1.8857    0.3882    1.1526 C   0  0  0  0  0  0  0  0  0  0  0  0
   -0.6264   -1.7953   -2.4789 H   0  0  0  0  0  0  0  0  0  0  0  0
   -0.6264    0.0530   -2.4752 H   0  0  0  0  0  0  0  0  0  0  0  0
   -0.6264   -1.8249   -0.0565 H   0  0  0  0  0  0  0  0  0  0  0  0
   -0.6264    1.2281   -0.3654 H   0  0  0  0  0  0  0  0  0  0  0  0
    1.7148    0.3953    0.4156 H   0  0  0  0  0  0  0  0  0  0  0  0
    0.6775   -0.4856    1.8084 H   0  0  0  0  0  0  0  0  0  0  0  0
    0.6405    1.2794    1.7836 H   0  0  0  0  0  0  0  0  0  0  0  0
   -1.9302   -0.4856    1.8084 H   0  0  0  0  0  0  0  0  0  0  0  0
   -2.7872    0.3941    0.5384 H   0  0  0  0  0  0  0  0  0  0  0  0
   -1.8932    1.2794    1.7836 H   0  0  0  0  0  0  0  0  0  0  0  0
  1  2  1  0
  1  3  1  0
  1 13  1  0
  4  5  2  3
  4  9  1  0
  4 10  1  0
  5  6  1  0
  5 11  1  0
  6  7  1  0
  6  8  1  0
  6 12  1  0
  7 14  1  0
  7 15  1  0
  8 16  1  0
  8 17  1  0
  8 18  1  0
M  RAD  1   7   2
M  END
>  <reaction>  (14) 
rxn_104

>  <mol_properties>  (14) 
{"0": {"label": "*3", "atom_type": "N3s"}, "1": {"label": "*4", "atom_type": "H0"}, "5": {"label": "*0", "atom_type": "Cs"}, "6": {"label": "*1", "atom_type": "Cs"}, "12": {"label": "*2", "atom_type": "H0"}}

>  <type>  (14) 
unop_10

>  <geom_source>  (14) 
Heuristics

$$$$

     RDKit          3D

 18 16  0  0  0  0  0  0  0  0999 V2000
    2.7066    0.4223   -0.2589 N   0  0  0  0  0  0  0  0  0  0  0  0
    3.4374   -0.0361    0.2687 H   0  0  0  0  0  0  0  0  0  0  0  0
    3.0992    0.1222   -1.1411 H   0  0  0  0  0  0  0  0  0  0  0  0
   -0.6374   -0.8531   -1.9019 C   0  0  0  0  0  0  0  0  0  0  0  0
   -0.6374   -0.8531   -0.5784 C   0  0  0  0  0  0  0  0  0  0  0  0
   -0.6374    0.3683    0.2936 C   0  0  0  0  0  0  0  0  0  0  0  0
    0.6219    0.4087    1.1613 C   0  0  0  0  0  3  0  0  0  0  0  0
   -1.8967    0.4087    1.1613 C   0  0  0  0  0  0  0  0  0  0  0  0
   -0.6374   -1.7748   -2.4701 H   0  0  0  0  0  0  0  0  0  0  0  0
   -0.6374    0.0735   -2.4664 H   0  0  0  0  0  0  0  0  0  0  0  0
   -0.6374   -1.8044   -0.0478 H   0  0  0  0  0  0  0  0  0  0  0  0
   -0.6374    1.2486   -0.3567 H   0  0  0  0  0  0  0  0  0  0  0  0
    1.7037    0.4158    0.4243 H   0  0  0  0  0  0  0  0  0  0  0  0
    0.6665   -0.4651    1.8171 H   0  0  0  0  0  0  0  0  0  0  0  0
    0.6294    1.2999    1.7923 H   0  0  0  0  0  0  0  0  0  0  0  0
   -1.9413   -0.4651    1.8171 H   0  0  0  0  0  0  0  0  0  0  0  0
   -2.7983    0.4146    0.5471 H   0  0  0  0  0  0  0  0  0  0  0  0
   -1.9043    1.2999    1.7923 H   0  0  0  0  0  0  0  0  0  0  0  0
  1  2  1  0
  1  3  1  0
  1 13  1  0
  4  5  2  3
  4  9  1  0
  4 10  1  0
  5  6  1  0
  5 11  1  0
  6  7  1  0
  6  8  1  0
  6 12  1  0
  7 14  1  0
  7 15  1  0
  8 16  1  0
  8 17  1  0
  8 18  1  0
M  RAD  1   7   2
M  END
>  <reaction>  (15) 
rxn_104

>  <mol_properties>  (15) 
{"0": {"label": "*3", "atom_type": "N3s"}, "1": {"label": "*4", "atom_type": "H0"}, "5": {"label": "*0", "atom_type": "Cs"}, "6": {"label": "*1", "atom_type": "Cs"}, "12": {"label": "*2", "atom_type": "H0"}}

>  <type>  (15) 
unop_11

>  <geom_source>  (15) 
Heuristics

$$$$

     RDKit          3D

 18 16  0  0  0  0  0  0  0  0999 V2000
    2.7202    0.4034   -0.2567 N   0  0  0  0  0  0  0  0  0  0  0  0
    2.4292    0.3797   -1.2248 H   0  0  0  0  0  0  0  0  0  0  0  0
    2.9686    1.2867    0.1683 H   0  0  0  0  0  0  0  0  0  0  0  0
   -0.6238   -0.8720   -1.8997 C   0  0  0  0  0  0  0  0  0  0  0  0
   -0.6238   -0.8720   -0.5762 C   0  0  0  0  0  0  0  0  0  0  0  0
   -0.6238    0.3493    0.2959 C   0  0  0  0  0  0  0  0  0  0  0  0
    0.6355    0.3898    1.1635 C   0  0  0  0  0  3  0  0  0  0  0  0
   -1.8831    0.3898    1.1635 C   0  0  0  0  0  0  0  0  0  0  0  0
   -0.6238   -1.7938   -2.4679 H   0  0  0  0  0  0  0  0  0  0  0  0
   -0.6238    0.0545   -2.4642 H   0  0  0  0  0  0  0  0  0  0  0  0
   -0.6238   -1.8234   -0.0456 H   0  0  0  0  0  0  0  0  0  0  0  0
   -0.6238    1.2297   -0.3545 H   0  0  0  0  0  0  0  0  0  0  0  0
    1.7174    0.3968    0.4265 H   0  0  0  0  0  0  0  0  0  0  0  0
    0.6801   -0.4841    1.8193 H   0  0  0  0  0  0  0  0  0  0  0  0
    0.6431    1.2810    1.7945 H   0  0  0  0  0  0  0  0  0  0  0  0
   -1.9277   -0.4841    1.8193 H   0  0  0  0  0  0  0  0  0  0  0  0
   -2.7846    0.3957    0.5494 H   0  0  0  0  0  0  0  0  0  0  0  0
   -1.8906    1.2810    1.7945 H   0  0  0  0  0  0  0  0  0  0  0  0
  1  2  1  0
  1  3  1  0
  1 13  1  0
  4  5  2  3
  4  9  1  0
  4 10  1  0
  5  6  1  0
  5 11  1  0
  6  7  1  0
  6  8  1  0
  6 12  1  0
  7 14  1  0
  7 15  1  0
  8 16  1  0
  8 17  1  0
  8 18  1  0
M  RAD  1   7   2
M  END
>  <reaction>  (16) 
rxn_104

>  <mol_properties>  (16) 
{"0": {"label": "*3", "atom_type": "N3s"}, "1": {"label": "*4", "atom_type": "H0"}, "5": {"label": "*0", "atom_type": "Cs"}, "6": {"label": "*1", "atom_type": "Cs"}, "12": {"label": "*2", "atom_type": "H0"}}

>  <type>  (16) 
unop_12

>  <geom_source>  (16) 
Heuristics

$$$$
