
     RDKit          3D

  9  8  0  0  0  0  0  0  0  0999 V2000
    1.1303   -0.2933   -0.7510 C   0  0  0  0  0  0  0  0  0  0  0  0
    0.2866    0.4560   -0.0588 C   0  0  0  0  0  0  0  0  0  0  0  0
   -0.9719   -0.0331    0.5823 C   0  0  0  0  0  0  0  0  0  0  0  0
    2.0274    0.1230   -1.1916 H   0  0  0  0  0  0  0  0  0  0  0  0
    0.9532   -1.3530   -0.9023 H   0  0  0  0  0  0  0  0  0  0  0  0
    0.5065    1.5132    0.0659 H   0  0  0  0  0  0  0  0  0  0  0  0
   -0.9526    0.1426    1.6610 H   0  0  0  0  0  0  0  0  0  0  0  0
   -1.1182   -1.1002    0.4106 H   0  0  0  0  0  0  0  0  0  0  0  0
   -1.8412    0.5010    0.1901 H   0  0  0  0  0  0  0  0  0  0  0  0
  1  2  2  3
  1  4  1  0
  1  5  1  0
  2  3  1  0
  2  6  1  0
  3  7  1  0
  3  8  1  0
  3  9  1  0
M  END
>  <reaction>  (1) 
rxn_1630

>  <mol_properties>  (1) 
{"1": {"label": "donator", "atom_type": "Cd"}, "5": {"label": "d_hydrogen", "atom_type": "H0"}}

>  <type>  (1) 
r1h

$$$$

     RDKit          3D

  6  5  0  0  0  0  0  0  0  0999 V2000
    1.7035    0.4954    0.0162 S   0  0  0  0  0  0  0  0  0  0  0  0
    0.1927   -0.1841   -0.3584 C   0  0  0  0  0  3  0  0  0  0  0  0
   -1.0558    0.0577   -0.0460 C   0  0  0  0  0  0  0  0  0  0  0  0
    2.3611   -0.6557    0.2254 H   0  0  0  0  0  0  0  0  0  0  0  0
   -1.8677   -0.4245   -0.5802 H   0  0  0  0  0  0  0  0  0  0  0  0
   -1.3294    0.7333    0.7635 H   0  0  0  0  0  0  0  0  0  0  0  0
  1  2  1  0
  1  4  1  0
  2  3  2  3
  3  5  1  0
  3  6  1  0
M  RAD  1   2   2
M  END
>  <reaction>  (2) 
rxn_1630

>  <mol_properties>  (2) 
{"1": {"label": "acceptor", "atom_type": "Cd"}}

>  <type>  (2) 
r2

$$$$

     RDKit          3D

  7  6  0  0  0  0  0  0  0  0999 V2000
    1.2020   -0.5069    1.0970 S   0  0  0  0  0  0  0  0  0  0  0  0
    0.2449    0.0208   -0.2711 C   0  0  0  0  0  0  0  0  0  0  0  0
    0.6491    0.2538   -1.5108 C   0  0  0  0  0  0  0  0  0  0  0  0
    2.3807   -0.5751    0.4630 H   0  0  0  0  0  0  0  0  0  0  0  0
   -0.7959    0.1526    0.0036 H   0  0  0  0  0  0  0  0  0  0  0  0
    1.6808    0.1320   -1.8181 H   0  0  0  0  0  0  0  0  0  0  0  0
   -0.0586    0.5786   -2.2618 H   0  0  0  0  0  0  0  0  0  0  0  0
  1  2  1  0
  1  4  1  0
  2  3  2  3
  2  5  1  0
  3  6  1  0
  3  7  1  0
M  END
>  <reaction>  (3) 
rxn_1630

>  <mol_properties>  (3) 
{"1": {"label": "acceptor", "atom_type": "Cd"}, "6": {"label": "a_hydrogen", "atom_type": "H0"}}

>  <type>  (3) 
r2h

$$$$

     RDKit          3D

 15 13  0  0  0  0  0  0  0  0999 V2000
   -1.1893   -1.0608    1.5219 S   0  0  0  0  0  0  0  0  0  0  0  0
   -0.1610   -1.0364    0.1294 C   0  0  0  0  0  3  0  0  0  0  0  0
    0.6294   -1.9322   -0.4268 C   0  0  0  0  0  0  0  0  0  0  0  0
   -0.8459   -2.2731    1.9923 H   0  0  0  0  0  0  0  0  0  0  0  0
    1.2054   -1.6767   -1.3086 H   0  0  0  0  0  0  0  0  0  0  0  0
    0.7353   -2.9401   -0.0349 H   0  0  0  0  0  0  0  0  0  0  0  0
   -0.5914    1.2104   -2.3835 C   0  0  0  0  0  0  0  0  0  0  0  0
   -0.1455    1.2907   -1.1498 C   0  0  0  0  0  0  0  0  0  0  0  0
    0.4195    2.4213   -0.3763 C   0  0  0  0  0  0  0  0  0  0  0  0
   -0.9790    0.2816   -2.7861 H   0  0  0  0  0  0  0  0  0  0  0  0
   -0.5894    2.0750   -3.0439 H   0  0  0  0  0  0  0  0  0  0  0  0
   -0.1928    0.1678   -0.4761 H   0  0  0  0  0  0  0  0  0  0  0  0
   -0.1790    2.6188    0.5159 H   0  0  0  0  0  0  0  0  0  0  0  0
    0.4504    3.3317   -0.9810 H   0  0  0  0  0  0  0  0  0  0  0  0
    1.4332    2.1922   -0.0408 H   0  0  0  0  0  0  0  0  0  0  0  0
  1  2  1  0
  1  4  1  0
  2  3  2  3
  3  5  1  0
  3  6  1  0
  7  8  2  3
  7 10  1  0
  7 11  1  0
  8  9  1  0
  8 12  1  0
  9 13  1  0
  9 14  1  0
  9 15  1  0
M  RAD  1   2   2
M  END
>  <reaction>  (4) 
rxn_1630

>  <mol_properties>  (4) 
{"0": {"label": "*4", "atom_type": "S2s"}, "1": {"label": "*3", "atom_type": "Cd"}, "6": {"label": "*0", "atom_type": "Cd"}, "7": {"label": "*1", "atom_type": "Cd"}, "11": {"label": "*2", "atom_type": "H0"}}

>  <type>  (4) 
ts

$$$$

     RDKit          3D

 15 13  0  0  0  0  0  0  0  0999 V2000
    1.1413   -1.1815    1.2150 S   0  0  0  0  0  0  0  0  0  0  0  0
   -0.2716   -1.0169    0.1937 C   0  0  0  0  0  0  0  0  0  0  0  0
   -1.5176   -1.3817    0.4564 C   0  0  0  0  0  0  0  0  0  0  0  0
    0.5302   -1.7609    2.2575 H   0  0  0  0  0  0  0  0  0  0  0  0
   -2.2980   -1.2176   -0.2746 H   0  0  0  0  0  0  0  0  0  0  0  0
   -1.8014   -1.8486    1.3919 H   0  0  0  0  0  0  0  0  0  0  0  0
   -0.2716    1.2667   -2.3850 C   0  0  0  0  0  0  0  0  0  0  0  0
   -0.2716    1.2667   -1.0612 C   0  0  0  0  0  3  0  0  0  0  0  0
   -0.2716    2.4889   -0.2007 C   0  0  0  0  0  0  0  0  0  0  0  0
   -0.2716    0.3440   -2.9515 H   0  0  0  0  0  0  0  0  0  0  0  0
   -0.2716    2.1923   -2.9510 H   0  0  0  0  0  0  0  0  0  0  0  0
   -0.2716    0.1235   -0.4330 H   0  0  0  0  0  0  0  0  0  0  0  0
   -1.1493    2.5060    0.4505 H   0  0  0  0  0  0  0  0  0  0  0  0
   -0.2716    3.3993   -0.8013 H   0  0  0  0  0  0  0  0  0  0  0  0
    0.6061    2.5060    0.4505 H   0  0  0  0  0  0  0  0  0  0  0  0
  1  2  1  0
  1  4  1  0
  2  3  2  3
  2 12  1  0
  3  5  1  0
  3  6  1  0
  7  8  2  3
  7 10  1  0
  7 11  1  0
  8  9  1  0
  9 13  1  0
  9 14  1  0
  9 15  1  0
M  RAD  1   8   2
M  END
>  <reaction>  (5) 
rxn_1630

>  <mol_properties>  (5) 
{"0": {"label": "*4", "atom_type": "S2s"}, "1": {"label": "*3", "atom_type": "Cd"}, "6": {"label": "*0", "atom_type": "Cd"}, "7": {"label": "*1", "atom_type": "Cd"}, "11": {"label": "*2", "atom_type": "H0"}}

>  <type>  (5) 
unop_1

>  <geom_source>  (5) 
Heuristics

$$$$

     RDKit          3D

 15 13  0  0  0  0  0  0  0  0999 V2000
    0.5887   -1.9552   -0.2523 S   0  0  0  0  0  0  0  0  0  0  0  0
   -0.2270   -0.7173    0.6795 C   0  0  0  0  0  0  0  0  0  0  0  0
   -0.5071   -0.7195    1.9742 C   0  0  0  0  0  0  0  0  0  0  0  0
    0.7964   -2.8155    0.7540 H   0  0  0  0  0  0  0  0  0  0  0  0
   -1.0207    0.1213    2.4211 H   0  0  0  0  0  0  0  0  0  0  0  0
   -0.2402   -1.5434    2.6249 H   0  0  0  0  0  0  0  0  0  0  0  0
   -0.2270    1.5664   -1.8992 C   0  0  0  0  0  0  0  0  0  0  0  0
   -0.2270    1.5664   -0.5754 C   0  0  0  0  0  3  0  0  0  0  0  0
   -0.2270    2.7885    0.2851 C   0  0  0  0  0  0  0  0  0  0  0  0
   -0.2270    0.6436   -2.4657 H   0  0  0  0  0  0  0  0  0  0  0  0
   -0.2270    2.4920   -2.4652 H   0  0  0  0  0  0  0  0  0  0  0  0
   -0.2270    0.4232    0.0528 H   0  0  0  0  0  0  0  0  0  0  0  0
   -1.1047    2.8057    0.9363 H   0  0  0  0  0  0  0  0  0  0  0  0
   -0.2270    3.6990   -0.3155 H   0  0  0  0  0  0  0  0  0  0  0  0
    0.6507    2.8057    0.9363 H   0  0  0  0  0  0  0  0  0  0  0  0
  1  2  1  0
  1  4  1  0
  2  3  2  3
  2 12  1  0
  3  5  1  0
  3  6  1  0
  7  8  2  3
  7 10  1  0
  7 11  1  0
  8  9  1  0
  9 13  1  0
  9 14  1  0
  9 15  1  0
M  RAD  1   8   2
M  END
>  <reaction>  (6) 
rxn_1630

>  <mol_properties>  (6) 
{"0": {"label": "*4", "atom_type": "S2s"}, "1": {"label": "*3", "atom_type": "Cd"}, "6": {"label": "*0", "atom_type": "Cd"}, "7": {"label": "*1", "atom_type": "Cd"}, "11": {"label": "*2", "atom_type": "H0"}}

>  <type>  (6) 
unop_2

>  <geom_source>  (6) 
Heuristics

$$$$

     RDKit          3D

 15 13  0  0  0  0  0  0  0  0999 V2000
    0.7014   -0.9176    1.6606 S   0  0  0  0  0  0  0  0  0  0  0  0
   -0.1143   -1.0406    0.1160 C   0  0  0  0  0  0  0  0  0  0  0  0
   -1.0997   -1.8572   -0.2258 C   0  0  0  0  0  0  0  0  0  0  0  0
    0.0093   -1.8742    2.2944 H   0  0  0  0  0  0  0  0  0  0  0  0
   -1.5121   -1.8235   -1.2254 H   0  0  0  0  0  0  0  0  0  0  0  0
   -1.5243   -2.5761    0.4644 H   0  0  0  0  0  0  0  0  0  0  0  0
   -0.1143    1.2431   -2.4628 C   0  0  0  0  0  0  0  0  0  0  0  0
   -0.1143    1.2431   -1.1390 C   0  0  0  0  0  3  0  0  0  0  0  0
   -0.1143    2.4653   -0.2785 C   0  0  0  0  0  0  0  0  0  0  0  0
   -0.1143    0.3203   -3.0292 H   0  0  0  0  0  0  0  0  0  0  0  0
   -0.1143    2.1687   -3.0288 H   0  0  0  0  0  0  0  0  0  0  0  0
   -0.1143    0.0999   -0.5108 H   0  0  0  0  0  0  0  0  0  0  0  0
   -0.9920    2.4824    0.3727 H   0  0  0  0  0  0  0  0  0  0  0  0
   -0.1143    3.3757   -0.8791 H   0  0  0  0  0  0  0  0  0  0  0  0
    0.7634    2.4824    0.3727 H   0  0  0  0  0  0  0  0  0  0  0  0
  1  2  1  0
  1  4  1  0
  2  3  2  3
  2 12  1  0
  3  5  1  0
  3  6  1  0
  7  8  2  3
  7 10  1  0
  7 11  1  0
  8  9  1  0
  9 13  1  0
  9 14  1  0
  9 15  1  0
M  RAD  1   8   2
M  END
>  <reaction>  (7) 
rxn_1630

>  <mol_properties>  (7) 
{"0": {"label": "*4", "atom_type": "S2s"}, "1": {"label": "*3", "atom_type": "Cd"}, "6": {"label": "*0", "atom_type": "Cd"}, "7": {"label": "*1", "atom_type": "Cd"}, "11": {"label": "*2", "atom_type": "H0"}}

>  <type>  (7) 
unop_3

>  <geom_source>  (7) 
Heuristics

$$$$

     RDKit          3D

 15 13  0  0  0  0  0  0  0  0999 V2000
   -1.0482   -1.7683    0.1204 S   0  0  0  0  0  0  0  0  0  0  0  0
    0.3647   -0.8179    0.5289 C   0  0  0  0  0  0  0  0  0  0  0  0
    1.0282   -0.7900    1.6751 C   0  0  0  0  0  0  0  0  0  0  0  0
   -1.1804   -2.3909    1.2997 H   0  0  0  0  0  0  0  0  0  0  0  0
    1.8922   -0.1488    1.7879 H   0  0  0  0  0  0  0  0  0  0  0  0
    0.7407   -1.3934    2.5276 H   0  0  0  0  0  0  0  0  0  0  0  0
    0.3647    1.4657   -2.0498 C   0  0  0  0  0  0  0  0  0  0  0  0
    0.3647    1.4657   -0.7261 C   0  0  0  0  0  3  0  0  0  0  0  0
    0.3647    2.6879    0.1344 C   0  0  0  0  0  0  0  0  0  0  0  0
    0.3647    0.5430   -2.6163 H   0  0  0  0  0  0  0  0  0  0  0  0
    0.3647    2.3913   -2.6158 H   0  0  0  0  0  0  0  0  0  0  0  0
    0.3647    0.3226   -0.0978 H   0  0  0  0  0  0  0  0  0  0  0  0
   -0.5130    2.7050    0.7857 H   0  0  0  0  0  0  0  0  0  0  0  0
    0.3647    3.5984   -0.4662 H   0  0  0  0  0  0  0  0  0  0  0  0
    1.2424    2.7050    0.7857 H   0  0  0  0  0  0  0  0  0  0  0  0
  1  2  1  0
  1  4  1  0
  2  3  2  3
  2 12  1  0
  3  5  1  0
  3  6  1  0
  7  8  2  3
  7 10  1  0
  7 11  1  0
  8  9  1  0
  9 13  1  0
  9 14  1  0
  9 15  1  0
M  RAD  1   8   2
M  END
>  <reaction>  (8) 
rxn_1630

>  <mol_properties>  (8) 
{"0": {"label": "*4", "atom_type": "S2s"}, "1": {"label": "*3", "atom_type": "Cd"}, "6": {"label": "*0", "atom_type": "Cd"}, "7": {"label": "*1", "atom_type": "Cd"}, "11": {"label": "*2", "atom_type": "H0"}}

>  <type>  (8) 
unop_4

>  <geom_source>  (8) 
Heuristics

$$$$

     RDKit          3D

 15 13  0  0  0  0  0  0  0  0999 V2000
    0.0000   -0.7957    1.8415 S   0  0  0  0  0  0  0  0  0  0  0  0
    0.0000   -1.0240    0.1054 C   0  0  0  0  0  0  0  0  0  0  0  0
    0.0000   -2.1637   -0.5697 C   0  0  0  0  0  0  0  0  0  0  0  0
    0.0000   -2.0917    2.1828 H   0  0  0  0  0  0  0  0  0  0  0  0
    0.0000   -2.1551   -1.6515 H   0  0  0  0  0  0  0  0  0  0  0  0
    0.0000   -3.1295   -0.0791 H   0  0  0  0  0  0  0  0  0  0  0  0
   -0.0000    1.2596   -2.4733 C   0  0  0  0  0  0  0  0  0  0  0  0
   -0.0000    1.2596   -1.1496 C   0  0  0  0  0  3  0  0  0  0  0  0
   -0.0000    2.4818   -0.2891 C   0  0  0  0  0  0  0  0  0  0  0  0
   -0.0000    0.3369   -3.0398 H   0  0  0  0  0  0  0  0  0  0  0  0
   -0.0000    2.1852   -3.0393 H   0  0  0  0  0  0  0  0  0  0  0  0
   -0.0000    0.1165   -0.5214 H   0  0  0  0  0  0  0  0  0  0  0  0
   -0.8777    2.4989    0.3621 H   0  0  0  0  0  0  0  0  0  0  0  0
   -0.0000    3.3923   -0.8897 H   0  0  0  0  0  0  0  0  0  0  0  0
    0.8777    2.4989    0.3621 H   0  0  0  0  0  0  0  0  0  0  0  0
  1  2  1  0
  1  4  1  0
  2  3  2  3
  2 12  1  0
  3  5  1  0
  3  6  1  0
  7  8  2  3
  7 10  1  0
  7 11  1  0
  8  9  1  0
  9 13  1  0
  9 14  1  0
  9 15  1  0
M  RAD  1   8   2
M  END
>  <reaction>  (9) 
rxn_1630

>  <mol_properties>  (9) 
{"0": {"label": "*4", "atom_type": "S2s"}, "1": {"label": "*3", "atom_type": "Cd"}, "6": {"label": "*0", "atom_type": "Cd"}, "7": {"label": "*1", "atom_type": "Cd"}, "11": {"label": "*2", "atom_type": "H0"}}

>  <type>  (9) 
unop_5

>  <geom_source>  (9) 
Heuristics

$$$$

     RDKit          3D

 15 13  0  0  0  0  0  0  0  0999 V2000
   -1.2563   -1.4896    0.6526 S   0  0  0  0  0  0  0  0  0  0  0  0
    0.3751   -0.9321    0.3463 C   0  0  0  0  0  0  0  0  0  0  0  0
    1.4291   -1.0087    1.1449 C   0  0  0  0  0  0  0  0  0  0  0  0
   -1.0416   -1.9735    1.8838 H   0  0  0  0  0  0  0  0  0  0  0  0
    2.3855   -0.6193    0.8223 H   0  0  0  0  0  0  0  0  0  0  0  0
    1.3795   -1.4540    2.1312 H   0  0  0  0  0  0  0  0  0  0  0  0
    0.3751    1.3516   -2.2325 C   0  0  0  0  0  0  0  0  0  0  0  0
    0.3751    1.3516   -0.9087 C   0  0  0  0  0  3  0  0  0  0  0  0
    0.3751    2.5737   -0.0482 C   0  0  0  0  0  0  0  0  0  0  0  0
    0.3751    0.4288   -2.7989 H   0  0  0  0  0  0  0  0  0  0  0  0
    0.3751    2.2771   -2.7985 H   0  0  0  0  0  0  0  0  0  0  0  0
    0.3751    0.2084   -0.2805 H   0  0  0  0  0  0  0  0  0  0  0  0
   -0.5026    2.5908    0.6030 H   0  0  0  0  0  0  0  0  0  0  0  0
    0.3751    3.4842   -0.6488 H   0  0  0  0  0  0  0  0  0  0  0  0
    1.2528    2.5908    0.6030 H   0  0  0  0  0  0  0  0  0  0  0  0
  1  2  1  0
  1  4  1  0
  2  3  2  3
  2 12  1  0
  3  5  1  0
  3  6  1  0
  7  8  2  3
  7 10  1  0
  7 11  1  0
  8  9  1  0
  9 13  1  0
  9 14  1  0
  9 15  1  0
M  RAD  1   8   2
M  END
>  <reaction>  (10) 
rxn_1630

>  <mol_properties>  (10) 
{"0": {"label": "*4", "atom_type": "S2s"}, "1": {"label": "*3", "atom_type": "Cd"}, "6": {"label": "*0", "atom_type": "Cd"}, "7": {"label": "*1", "atom_type": "Cd"}, "11": {"label": "*2", "atom_type": "H0"}}

>  <type>  (10) 
unop_6

>  <geom_source>  (10) 
Heuristics

$$$$

     RDKit          3D

 15 13  0  0  0  0  0  0  0  0999 V2000
   -1.1413   -1.1815    1.2150 S   0  0  0  0  0  0  0  0  0  0  0  0
    0.2716   -1.0169    0.1937 C   0  0  0  0  0  0  0  0  0  0  0  0
    1.5176   -1.3817    0.4564 C   0  0  0  0  0  0  0  0  0  0  0  0
   -0.5302   -1.7609    2.2575 H   0  0  0  0  0  0  0  0  0  0  0  0
    2.2980   -1.2176   -0.2746 H   0  0  0  0  0  0  0  0  0  0  0  0
    1.8014   -1.8486    1.3919 H   0  0  0  0  0  0  0  0  0  0  0  0
    0.2716    1.2667   -2.3850 C   0  0  0  0  0  0  0  0  0  0  0  0
    0.2716    1.2667   -1.0612 C   0  0  0  0  0  3  0  0  0  0  0  0
    0.2716    2.4889   -0.2007 C   0  0  0  0  0  0  0  0  0  0  0  0
    0.2716    0.3440   -2.9515 H   0  0  0  0  0  0  0  0  0  0  0  0
    0.2716    2.1923   -2.9510 H   0  0  0  0  0  0  0  0  0  0  0  0
    0.2716    0.1235   -0.4330 H   0  0  0  0  0  0  0  0  0  0  0  0
   -0.6061    2.5060    0.4505 H   0  0  0  0  0  0  0  0  0  0  0  0
    0.2716    3.3993   -0.8013 H   0  0  0  0  0  0  0  0  0  0  0  0
    1.1493    2.5060    0.4505 H   0  0  0  0  0  0  0  0  0  0  0  0
  1  2  1  0
  1  4  1  0
  2  3  2  3
  2 12  1  0
  3  5  1  0
  3  6  1  0
  7  8  2  3
  7 10  1  0
  7 11  1  0
  8  9  1  0
  9 13  1  0
  9 14  1  0
  9 15  1  0
M  RAD  1   8   2
M  END
>  <reaction>  (11) 
rxn_1630

>  <mol_properties>  (11) 
{"0": {"label": "*4", "atom_type": "S2s"}, "1": {"label": "*3", "atom_type": "Cd"}, "6": {"label": "*0", "atom_type": "Cd"}, "7": {"label": "*1", "atom_type": "Cd"}, "11": {"label": "*2", "atom_type": "H0"}}

>  <type>  (11) 
unop_7

>  <geom_source>  (11) 
Heuristics

$$$$

     RDKit          3D

 15 13  0  0  0  0  0  0  0  0999 V2000
    1.2563   -1.4896    0.6526 S   0  0  0  0  0  0  0  0  0  0  0  0
   -0.3751   -0.9321    0.3463 C   0  0  0  0  0  0  0  0  0  0  0  0
   -1.4291   -1.0088    1.1449 C   0  0  0  0  0  0  0  0  0  0  0  0
    1.0417   -1.9735    1.8838 H   0  0  0  0  0  0  0  0  0  0  0  0
   -2.3855   -0.6193    0.8223 H   0  0  0  0  0  0  0  0  0  0  0  0
   -1.3795   -1.4540    2.1312 H   0  0  0  0  0  0  0  0  0  0  0  0
   -0.3751    1.3516   -2.2325 C   0  0  0  0  0  0  0  0  0  0  0  0
   -0.3751    1.3516   -0.9087 C   0  0  0  0  0  3  0  0  0  0  0  0
   -0.3751    2.5737   -0.0482 C   0  0  0  0  0  0  0  0  0  0  0  0
   -0.3751    0.4288   -2.7989 H   0  0  0  0  0  0  0  0  0  0  0  0
   -0.3751    2.2771   -2.7985 H   0  0  0  0  0  0  0  0  0  0  0  0
   -0.3751    0.2084   -0.2805 H   0  0  0  0  0  0  0  0  0  0  0  0
   -1.2528    2.5908    0.6030 H   0  0  0  0  0  0  0  0  0  0  0  0
   -0.3751    3.4842   -0.6488 H   0  0  0  0  0  0  0  0  0  0  0  0
    0.5026    2.5908    0.6030 H   0  0  0  0  0  0  0  0  0  0  0  0
  1  2  1  0
  1  4  1  0
  2  3  2  3
  2 12  1  0
  3  5  1  0
  3  6  1  0
  7  8  2  3
  7 10  1  0
  7 11  1  0
  8  9  1  0
  9 13  1  0
  9 14  1  0
  9 15  1  0
M  RAD  1   8   2
M  END
>  <reaction>  (12) 
rxn_1630

>  <mol_properties>  (12) 
{"0": {"label": "*4", "atom_type": "S2s"}, "1": {"label": "*3", "atom_type": "Cd"}, "6": {"label": "*0", "atom_type": "Cd"}, "7": {"label": "*1", "atom_type": "Cd"}, "11": {"label": "*2", "atom_type": "H0"}}

>  <type>  (12) 
unop_8

>  <geom_source>  (12) 
Heuristics

$$$$

     RDKit          3D

 15 13  0  0  0  0  0  0  0  0999 V2000
   -0.5887   -1.9552   -0.2523 S   0  0  0  0  0  0  0  0  0  0  0  0
    0.2270   -0.7173    0.6795 C   0  0  0  0  0  0  0  0  0  0  0  0
    0.5071   -0.7195    1.9742 C   0  0  0  0  0  0  0  0  0  0  0  0
   -0.7964   -2.8155    0.7540 H   0  0  0  0  0  0  0  0  0  0  0  0
    1.0207    0.1213    2.4211 H   0  0  0  0  0  0  0  0  0  0  0  0
    0.2402   -1.5434    2.6249 H   0  0  0  0  0  0  0  0  0  0  0  0
    0.2270    1.5664   -1.8992 C   0  0  0  0  0  0  0  0  0  0  0  0
    0.2270    1.5664   -0.5754 C   0  0  0  0  0  3  0  0  0  0  0  0
    0.2270    2.7885    0.2851 C   0  0  0  0  0  0  0  0  0  0  0  0
    0.2270    0.6436   -2.4657 H   0  0  0  0  0  0  0  0  0  0  0  0
    0.2270    2.4920   -2.4652 H   0  0  0  0  0  0  0  0  0  0  0  0
    0.2270    0.4232    0.0528 H   0  0  0  0  0  0  0  0  0  0  0  0
   -0.6507    2.8057    0.9363 H   0  0  0  0  0  0  0  0  0  0  0  0
    0.2270    3.6990   -0.3155 H   0  0  0  0  0  0  0  0  0  0  0  0
    1.1047    2.8057    0.9363 H   0  0  0  0  0  0  0  0  0  0  0  0
  1  2  1  0
  1  4  1  0
  2  3  2  3
  2 12  1  0
  3  5  1  0
  3  6  1  0
  7  8  2  3
  7 10  1  0
  7 11  1  0
  8  9  1  0
  9 13  1  0
  9 14  1  0
  9 15  1  0
M  RAD  1   8   2
M  END
>  <reaction>  (13) 
rxn_1630

>  <mol_properties>  (13) 
{"0": {"label": "*4", "atom_type": "S2s"}, "1": {"label": "*3", "atom_type": "Cd"}, "6": {"label": "*0", "atom_type": "Cd"}, "7": {"label": "*1", "atom_type": "Cd"}, "11": {"label": "*2", "atom_type": "H0"}}

>  <type>  (13) 
unop_9

>  <geom_source>  (13) 
Heuristics

$$$$

     RDKit          3D

 15 13  0  0  0  0  0  0  0  0999 V2000
    1.0482   -1.7683    0.1204 S   0  0  0  0  0  0  0  0  0  0  0  0
   -0.3647   -0.8179    0.5289 C   0  0  0  0  0  0  0  0  0  0  0  0
   -1.0282   -0.7900    1.6751 C   0  0  0  0  0  0  0  0  0  0  0  0
    1.1804   -2.3909    1.2997 H   0  0  0  0  0  0  0  0  0  0  0  0
   -1.8922   -0.1488    1.7879 H   0  0  0  0  0  0  0  0  0  0  0  0
   -0.7407   -1.3934    2.5276 H   0  0  0  0  0  0  0  0  0  0  0  0
   -0.3647    1.4657   -2.0498 C   0  0  0  0  0  0  0  0  0  0  0  0
   -0.3647    1.4657   -0.7261 C   0  0  0  0  0  3  0  0  0  0  0  0
   -0.3647    2.6879    0.1344 C   0  0  0  0  0  0  0  0  0  0  0  0
   -0.3647    0.5430   -2.6163 H   0  0  0  0  0  0  0  0  0  0  0  0
   -0.3647    2.3913   -2.6158 H   0  0  0  0  0  0  0  0  0  0  0  0
   -0.3647    0.3226   -0.0978 H   0  0  0  0  0  0  0  0  0  0  0  0
   -1.2424    2.7050    0.7857 H   0  0  0  0  0  0  0  0  0  0  0  0
   -0.3647    3.5984   -0.4662 H   0  0  0  0  0  0  0  0  0  0  0  0
    0.5130    2.7050    0.7857 H   0  0  0  0  0  0  0  0  0  0  0  0
  1  2  1  0
  1  4  1  0
  2  3  2  3
  2 12  1  0
  3  5  1  0
  3  6  1  0
  7  8  2  3
  7 10  1  0
  7 11  1  0
  8  9  1  0
  9 13  1  0
  9 14  1  0
  9 15  1  0
M  RAD  1   8   2
M  END
>  <reaction>  (14) 
rxn_1630

>  <mol_properties>  (14) 
{"0": {"label": "*4", "atom_type": "S2s"}, "1": {"label": "*3", "atom_type": "Cd"}, "6": {"label": "*0", "atom_type": "Cd"}, "7": {"label": "*1", "atom_type": "Cd"}, "11": {"label": "*2", "atom_type": "H0"}}

>  <type>  (14) 
unop_10

>  <geom_source>  (14) 
Heuristics

$$$$

     RDKit          3D

 15 13  0  0  0  0  0  0  0  0999 V2000
   -0.7014   -0.9176    1.6606 S   0  0  0  0  0  0  0  0  0  0  0  0
    0.1143   -1.0406    0.1160 C   0  0  0  0  0  0  0  0  0  0  0  0
    1.0997   -1.8572   -0.2258 C   0  0  0  0  0  0  0  0  0  0  0  0
   -0.0093   -1.8742    2.2944 H   0  0  0  0  0  0  0  0  0  0  0  0
    1.5121   -1.8235   -1.2254 H   0  0  0  0  0  0  0  0  0  0  0  0
    1.5243   -2.5761    0.4644 H   0  0  0  0  0  0  0  0  0  0  0  0
    0.1143    1.2431   -2.4628 C   0  0  0  0  0  0  0  0  0  0  0  0
    0.1143    1.2431   -1.1390 C   0  0  0  0  0  3  0  0  0  0  0  0
    0.1143    2.4653   -0.2785 C   0  0  0  0  0  0  0  0  0  0  0  0
    0.1143    0.3204   -3.0292 H   0  0  0  0  0  0  0  0  0  0  0  0
    0.1143    2.1687   -3.0288 H   0  0  0  0  0  0  0  0  0  0  0  0
    0.1143    0.0999   -0.5108 H   0  0  0  0  0  0  0  0  0  0  0  0
   -0.7634    2.4824    0.3727 H   0  0  0  0  0  0  0  0  0  0  0  0
    0.1143    3.3757   -0.8791 H   0  0  0  0  0  0  0  0  0  0  0  0
    0.9920    2.4824    0.3727 H   0  0  0  0  0  0  0  0  0  0  0  0
  1  2  1  0
  1  4  1  0
  2  3  2  3
  2 12  1  0
  3  5  1  0
  3  6  1  0
  7  8  2  3
  7 10  1  0
  7 11  1  0
  8  9  1  0
  9 13  1  0
  9 14  1  0
  9 15  1  0
M  RAD  1   8   2
M  END
>  <reaction>  (15) 
rxn_1630

>  <mol_properties>  (15) 
{"0": {"label": "*4", "atom_type": "S2s"}, "1": {"label": "*3", "atom_type": "Cd"}, "6": {"label": "*0", "atom_type": "Cd"}, "7": {"label": "*1", "atom_type": "Cd"}, "11": {"label": "*2", "atom_type": "H0"}}

>  <type>  (15) 
unop_11

>  <geom_source>  (15) 
Heuristics

$$$$

     RDKit          3D

 15 13  0  0  0  0  0  0  0  0999 V2000
    0.0000   -2.0192   -0.3848 S   0  0  0  0  0  0  0  0  0  0  0  0
    0.0000   -0.6760    0.7387 C   0  0  0  0  0  0  0  0  0  0  0  0
    0.0000   -0.7171    2.0626 C   0  0  0  0  0  0  0  0  0  0  0  0
    0.0000   -3.0021    0.5263 H   0  0  0  0  0  0  0  0  0  0  0  0
   -0.0000    0.2007    2.6354 H   0  0  0  0  0  0  0  0  0  0  0  0
   -0.0000   -1.6490    2.6149 H   0  0  0  0  0  0  0  0  0  0  0  0
   -0.0000    1.6076   -1.8401 C   0  0  0  0  0  0  0  0  0  0  0  0
   -0.0000    1.6076   -0.5163 C   0  0  0  0  0  3  0  0  0  0  0  0
   -0.0000    2.8298    0.3442 C   0  0  0  0  0  0  0  0  0  0  0  0
   -0.0000    0.6849   -2.4065 H   0  0  0  0  0  0  0  0  0  0  0  0
   -0.0000    2.5332   -2.4061 H   0  0  0  0  0  0  0  0  0  0  0  0
   -0.0000    0.4645    0.1119 H   0  0  0  0  0  0  0  0  0  0  0  0
   -0.8777    2.8469    0.9954 H   0  0  0  0  0  0  0  0  0  0  0  0
   -0.0000    3.7403   -0.2564 H   0  0  0  0  0  0  0  0  0  0  0  0
    0.8777    2.8469    0.9954 H   0  0  0  0  0  0  0  0  0  0  0  0
  1  2  1  0
  1  4  1  0
  2  3  2  3
  2 12  1  0
  3  5  1  0
  3  6  1  0
  7  8  2  3
  7 10  1  0
  7 11  1  0
  8  9  1  0
  9 13  1  0
  9 14  1  0
  9 15  1  0
M  RAD  1   8   2
M  END
>  <reaction>  (16) 
rxn_1630

>  <mol_properties>  (16) 
{"0": {"label": "*4", "atom_type": "S2s"}, "1": {"label": "*3", "atom_type": "Cd"}, "6": {"label": "*0", "atom_type": "Cd"}, "7": {"label": "*1", "atom_type": "Cd"}, "11": {"label": "*2", "atom_type": "H0"}}

>  <type>  (16) 
unop_12

>  <geom_source>  (16) 
Heuristics

$$$$

     RDKit          3D

 15 13  0  0  0  0  0  0  0  0999 V2000
    1.8628    0.2807   -1.9747 S   0  0  0  0  0  0  0  0  0  0  0  0
   -2.1430   -0.7314    0.0672 C   0  0  0  0  0  0  0  0  0  0  0  0
    1.4856   -0.3700   -0.3486 C   0  0  0  0  0  0  0  0  0  0  0  0
    2.4374   -0.9289    0.3964 C   0  0  0  0  0  0  0  0  0  0  0  0
   -1.1127    1.4896    0.4027 C   0  0  0  0  0  0  0  0  0  0  0  0
   -0.9996    0.2284   -0.0153 C   0  0  0  0  0  3  0  0  0  0  0  0
   -1.8230   -1.7148   -0.3343 H   0  0  0  0  0  0  0  0  0  0  0  0
   -2.9984   -0.3564   -0.5335 H   0  0  0  0  0  0  0  0  0  0  0  0
   -2.4582   -0.8575    1.1246 H   0  0  0  0  0  0  0  0  0  0  0  0
    0.2468   -0.2935    0.1128 H   0  0  0  0  0  0  0  0  0  0  0  0
    3.4578   -0.9996    0.0331 H   0  0  0  0  0  0  0  0  0  0  0  0
    2.1950   -1.3192    1.3789 H   0  0  0  0  0  0  0  0  0  0  0  0
   -2.0453    1.8595    0.8183 H   0  0  0  0  0  0  0  0  0  0  0  0
   -0.2622    2.1579    0.3275 H   0  0  0  0  0  0  0  0  0  0  0  0
    2.1569    1.5553   -1.4552 H   0  0  0  0  0  0  0  0  0  0  0  0
  1  3  1  0
  1 15  1  0
  2  6  1  0
  2  7  1  0
  2  8  1  0
  2  9  1  0
  3  4  2  3
  3 10  1  0
  4 11  1  0
  4 12  1  0
  5  6  2  3
  5 13  1  0
  5 14  1  0
M  RAD  1   6   2
M  END
>  <reaction>  (17) 
rxn_1630

>  <mol_properties>  (17) 
{"0": {"label": "*4", "atom_type": "S2s"}, "1": {"label": "*3", "atom_type": "Cd"}, "6": {"label": "*0", "atom_type": "Cd"}, "7": {"label": "*1", "atom_type": "Cd"}, "11": {"label": "*2", "atom_type": "H0"}}

>  <type>  (17) 
unop_13

>  <geom_source>  (17) 
AutoTST

$$$$
