
     RDKit          3D

 12 11  0  0  0  0  0  0  0  0999 V2000
    1.2394   -0.3763   -0.3020 C   0  0  0  0  0  0  0  0  0  0  0  0
    0.1007    0.3023    0.4464 C   0  0  0  0  0  0  0  0  0  0  0  0
   -0.1187    2.0399   -0.0725 S   0  0  0  0  0  0  0  0  0  0  0  0
   -1.1974   -0.4877    0.3552 C   0  0  0  0  0  0  0  0  0  0  0  0
    2.1681    0.1849   -0.2048 H   0  0  0  0  0  0  0  0  0  0  0  0
    1.0031   -0.4606   -1.3656 H   0  0  0  0  0  0  0  0  0  0  0  0
    1.3994   -1.3856    0.0860 H   0  0  0  0  0  0  0  0  0  0  0  0
    0.3796    0.4050    1.4981 H   0  0  0  0  0  0  0  0  0  0  0  0
   -0.4500    1.7779   -1.3452 H   0  0  0  0  0  0  0  0  0  0  0  0
   -1.0545   -1.4978    0.7479 H   0  0  0  0  0  0  0  0  0  0  0  0
   -1.5206   -0.5759   -0.6849 H   0  0  0  0  0  0  0  0  0  0  0  0
   -1.9957   -0.0054    0.9183 H   0  0  0  0  0  0  0  0  0  0  0  0
  1  2  1  0
  1  5  1  0
  1  6  1  0
  1  7  1  0
  2  4  1  0
  2  3  1  0
  2  8  1  0
  3  9  1  0
  4 10  1  0
  4 11  1  0
  4 12  1  0
M  END
>  <reaction>  (1) 
rxn_1935

>  <mol_properties>  (1) 
{"1": {"label": "donator", "atom_type": "Cs"}, "7": {"label": "d_hydrogen", "atom_type": "H0"}}

>  <type>  (1) 
r1h

$$$$

     RDKit          3D

  6  5  0  0  0  0  0  0  0  0999 V2000
    1.7035    0.4954    0.0162 S   0  0  0  0  0  0  0  0  0  0  0  0
    0.1927   -0.1841   -0.3584 C   0  0  0  0  0  3  0  0  0  0  0  0
   -1.0558    0.0577   -0.0460 C   0  0  0  0  0  0  0  0  0  0  0  0
    2.3611   -0.6557    0.2254 H   0  0  0  0  0  0  0  0  0  0  0  0
   -1.8677   -0.4245   -0.5802 H   0  0  0  0  0  0  0  0  0  0  0  0
   -1.3294    0.7333    0.7635 H   0  0  0  0  0  0  0  0  0  0  0  0
  1  2  1  0
  1  4  1  0
  2  3  2  3
  3  5  1  0
  3  6  1  0
M  RAD  1   2   2
M  END
>  <reaction>  (2) 
rxn_1935

>  <mol_properties>  (2) 
{"1": {"label": "acceptor", "atom_type": "Cd"}}

>  <type>  (2) 
r2

$$$$

     RDKit          3D

  7  6  0  0  0  0  0  0  0  0999 V2000
    1.2020   -0.5069    1.0970 S   0  0  0  0  0  0  0  0  0  0  0  0
    0.2449    0.0208   -0.2711 C   0  0  0  0  0  0  0  0  0  0  0  0
    0.6491    0.2538   -1.5108 C   0  0  0  0  0  0  0  0  0  0  0  0
    2.3807   -0.5751    0.4630 H   0  0  0  0  0  0  0  0  0  0  0  0
   -0.7959    0.1526    0.0036 H   0  0  0  0  0  0  0  0  0  0  0  0
    1.6808    0.1320   -1.8181 H   0  0  0  0  0  0  0  0  0  0  0  0
   -0.0586    0.5786   -2.2618 H   0  0  0  0  0  0  0  0  0  0  0  0
  1  2  1  0
  1  4  1  0
  2  3  2  3
  2  5  1  0
  3  6  1  0
  3  7  1  0
M  END
>  <reaction>  (3) 
rxn_1935

>  <mol_properties>  (3) 
{"1": {"label": "acceptor", "atom_type": "Cd"}, "6": {"label": "a_hydrogen", "atom_type": "H0"}}

>  <type>  (3) 
r2h

$$$$

     RDKit          3D

 18 16  0  0  0  0  0  0  0  0999 V2000
   -2.4753   -0.5962   -0.6091 S   0  0  0  0  0  0  0  0  0  0  0  0
   -1.2601   -0.3074    0.5798 C   0  0  0  0  0  3  0  0  0  0  0  0
   -1.1192   -0.5970    1.8551 C   0  0  0  0  0  0  0  0  0  0  0  0
   -3.4657   -1.0148    0.2022 H   0  0  0  0  0  0  0  0  0  0  0  0
   -0.2459   -0.2505    2.3981 H   0  0  0  0  0  0  0  0  0  0  0  0
   -1.8539   -1.1800    2.4061 H   0  0  0  0  0  0  0  0  0  0  0  0
    1.0588    0.7534   -1.7490 C   0  0  0  0  0  0  0  0  0  0  0  0
    0.7385    1.2527   -0.3577 C   0  0  0  0  0  0  0  0  0  0  0  0
    2.0899    1.1200    0.8192 S   0  0  0  0  0  0  0  0  0  0  0  0
    0.1523    2.6477   -0.3163 C   0  0  0  0  0  0  0  0  0  0  0  0
    1.3952   -0.2843   -1.7335 H   0  0  0  0  0  0  0  0  0  0  0  0
    1.8424    1.3608   -2.2092 H   0  0  0  0  0  0  0  0  0  0  0  0
    0.1669    0.8100   -2.3779 H   0  0  0  0  0  0  0  0  0  0  0  0
   -0.1570    0.5087    0.0586 H   0  0  0  0  0  0  0  0  0  0  0  0
    2.4278   -0.1458    0.5385 H   0  0  0  0  0  0  0  0  0  0  0  0
   -0.7549    2.6802   -0.9225 H   0  0  0  0  0  0  0  0  0  0  0  0
    0.8563    3.3821   -0.7173 H   0  0  0  0  0  0  0  0  0  0  0  0
   -0.1100    2.9397    0.7013 H   0  0  0  0  0  0  0  0  0  0  0  0
  1  2  1  0
  1  4  1  0
  2  3  2  3
  3  5  1  0
  3  6  1  0
  7  8  1  0
  7 11  1  0
  7 12  1  0
  7 13  1  0
  8 10  1  0
  8  9  1  0
  8 14  1  0
  9 15  1  0
 10 16  1  0
 10 17  1  0
 10 18  1  0
M  RAD  1   2   2
M  END
>  <reaction>  (4) 
rxn_1935

>  <mol_properties>  (4) 
{"0": {"label": "*4", "atom_type": "S2s"}, "1": {"label": "*3", "atom_type": "Cd"}, "7": {"label": "*1", "atom_type": "Cs"}, "8": {"label": "*0", "atom_type": "S2s"}, "13": {"label": "*2", "atom_type": "H0"}}

>  <type>  (4) 
ts

$$$$

     RDKit          3D

 18 16  0  0  0  0  0  0  0  0999 V2000
   -1.0889   -1.7719    1.1320 S   0  0  0  0  0  0  0  0  0  0  0  0
   -1.5180   -0.3841    0.1541 C   0  0  0  0  0  0  0  0  0  0  0  0
   -2.5006    0.4823    0.3503 C   0  0  0  0  0  0  0  0  0  0  0  0
   -2.0453   -1.6278    2.0596 H   0  0  0  0  0  0  0  0  0  0  0  0
   -2.6509    1.3002   -0.3417 H   0  0  0  0  0  0  0  0  0  0  0  0
   -3.1791    0.4105    1.1917 H   0  0  0  0  0  0  0  0  0  0  0  0
    0.6095    0.8747   -2.2149 C   0  0  0  0  0  0  0  0  0  0  0  0
    0.6095    0.8747   -0.6925 C   0  0  0  0  0  3  0  0  0  0  0  0
    1.9645   -0.1417   -0.0089 S   0  0  0  0  0  0  0  0  0  0  0  0
    0.6095    2.2847   -0.1185 C   0  0  0  0  0  0  0  0  0  0  0  0
    0.5809   -0.1395   -2.6115 H   0  0  0  0  0  0  0  0  0  0  0  0
    1.5079    1.3645   -2.5985 H   0  0  0  0  0  0  0  0  0  0  0  0
   -0.2575    1.4222   -2.5937 H   0  0  0  0  0  0  0  0  0  0  0  0
   -0.4584    0.2429   -0.2675 H   0  0  0  0  0  0  0  0  0  0  0  0
    2.9708    0.5938   -0.5036 H   0  0  0  0  0  0  0  0  0  0  0  0
   -0.2575    2.8420   -0.4827 H   0  0  0  0  0  0  0  0  0  0  0  0
    1.5079    2.8247   -0.4274 H   0  0  0  0  0  0  0  0  0  0  0  0
    0.5809    2.2696    0.9705 H   0  0  0  0  0  0  0  0  0  0  0  0
  1  2  1  0
  1  4  1  0
  2  3  2  3
  2 14  1  0
  3  5  1  0
  3  6  1  0
  7  8  1  0
  7 11  1  0
  7 12  1  0
  7 13  1  0
  8 10  1  0
  8  9  1  0
  9 15  1  0
 10 16  1  0
 10 17  1  0
 10 18  1  0
M  RAD  1   8   2
M  END
>  <reaction>  (5) 
rxn_1935

>  <mol_properties>  (5) 
{"0": {"label": "*4", "atom_type": "S2s"}, "1": {"label": "*3", "atom_type": "Cd"}, "7": {"label": "*1", "atom_type": "Cs"}, "8": {"label": "*0", "atom_type": "S2s"}, "13": {"label": "*2", "atom_type": "H0"}}

>  <type>  (5) 
unop_1

>  <geom_source>  (5) 
Heuristics

$$$$

     RDKit          3D

 18 16  0  0  0  0  0  0  0  0999 V2000
   -1.8611   -1.5737   -0.5798 S   0  0  0  0  0  0  0  0  0  0  0  0
   -1.3646   -0.3321    0.5507 C   0  0  0  0  0  0  0  0  0  0  0  0
   -1.7003   -0.2054    1.8258 C   0  0  0  0  0  0  0  0  0  0  0  0
   -2.6334   -2.2721    0.2639 H   0  0  0  0  0  0  0  0  0  0  0  0
   -1.3151    0.6194    2.4104 H   0  0  0  0  0  0  0  0  0  0  0  0
   -2.3591   -0.9053    2.3254 H   0  0  0  0  0  0  0  0  0  0  0  0
    0.7629    0.9267   -1.8183 C   0  0  0  0  0  0  0  0  0  0  0  0
    0.7629    0.9267   -0.2959 C   0  0  0  0  0  3  0  0  0  0  0  0
    2.1179   -0.0897    0.3877 S   0  0  0  0  0  0  0  0  0  0  0  0
    0.7629    2.3367    0.2781 C   0  0  0  0  0  0  0  0  0  0  0  0
    0.7343   -0.0875   -2.2149 H   0  0  0  0  0  0  0  0  0  0  0  0
    1.6613    1.4165   -2.2019 H   0  0  0  0  0  0  0  0  0  0  0  0
   -0.1041    1.4741   -2.1971 H   0  0  0  0  0  0  0  0  0  0  0  0
   -0.3050    0.2949    0.1291 H   0  0  0  0  0  0  0  0  0  0  0  0
    3.1242    0.6458   -0.1070 H   0  0  0  0  0  0  0  0  0  0  0  0
   -0.1041    2.8940   -0.0860 H   0  0  0  0  0  0  0  0  0  0  0  0
    1.6613    2.8766   -0.0308 H   0  0  0  0  0  0  0  0  0  0  0  0
    0.7343    2.3216    1.3671 H   0  0  0  0  0  0  0  0  0  0  0  0
  1  2  1  0
  1  4  1  0
  2  3  2  3
  2 14  1  0
  3  5  1  0
  3  6  1  0
  7  8  1  0
  7 11  1  0
  7 12  1  0
  7 13  1  0
  8 10  1  0
  8  9  1  0
  9 15  1  0
 10 16  1  0
 10 17  1  0
 10 18  1  0
M  RAD  1   8   2
M  END
>  <reaction>  (6) 
rxn_1935

>  <mol_properties>  (6) 
{"0": {"label": "*4", "atom_type": "S2s"}, "1": {"label": "*3", "atom_type": "Cd"}, "7": {"label": "*1", "atom_type": "Cs"}, "8": {"label": "*0", "atom_type": "S2s"}, "13": {"label": "*2", "atom_type": "H0"}}

>  <type>  (6) 
unop_2

>  <geom_source>  (6) 
Heuristics

$$$$

     RDKit          3D

 18 16  0  0  0  0  0  0  0  0999 V2000
   -1.1729   -1.2645    1.6365 S   0  0  0  0  0  0  0  0  0  0  0  0
   -1.4644   -0.4892    0.0938 C   0  0  0  0  0  0  0  0  0  0  0  0
   -2.6081   -0.0209   -0.3831 C   0  0  0  0  0  0  0  0  0  0  0  0
   -2.4301   -1.2042    2.0967 H   0  0  0  0  0  0  0  0  0  0  0  0
   -2.6418    0.4383   -1.3621 H   0  0  0  0  0  0  0  0  0  0  0  0
   -3.5358   -0.0765    0.1734 H   0  0  0  0  0  0  0  0  0  0  0  0
    0.6630    0.7697   -2.2752 C   0  0  0  0  0  0  0  0  0  0  0  0
    0.6630    0.7697   -0.7529 C   0  0  0  0  0  3  0  0  0  0  0  0
    2.0180   -0.2468   -0.0693 S   0  0  0  0  0  0  0  0  0  0  0  0
    0.6630    2.1796   -0.1788 C   0  0  0  0  0  0  0  0  0  0  0  0
    0.6344   -0.2446   -2.6719 H   0  0  0  0  0  0  0  0  0  0  0  0
    1.5614    1.2594   -2.6588 H   0  0  0  0  0  0  0  0  0  0  0  0
   -0.2039    1.3171   -2.6540 H   0  0  0  0  0  0  0  0  0  0  0  0
   -0.4049    0.1378   -0.3279 H   0  0  0  0  0  0  0  0  0  0  0  0
    3.0243    0.4887   -0.5639 H   0  0  0  0  0  0  0  0  0  0  0  0
   -0.2039    2.7369   -0.5430 H   0  0  0  0  0  0  0  0  0  0  0  0
    1.5614    2.7196   -0.4878 H   0  0  0  0  0  0  0  0  0  0  0  0
    0.6344    2.1645    0.9101 H   0  0  0  0  0  0  0  0  0  0  0  0
  1  2  1  0
  1  4  1  0
  2  3  2  3
  2 14  1  0
  3  5  1  0
  3  6  1  0
  7  8  1  0
  7 11  1  0
  7 12  1  0
  7 13  1  0
  8 10  1  0
  8  9  1  0
  9 15  1  0
 10 16  1  0
 10 17  1  0
 10 18  1  0
M  RAD  1   8   2
M  END
>  <reaction>  (7) 
rxn_1935

>  <mol_properties>  (7) 
{"0": {"label": "*4", "atom_type": "S2s"}, "1": {"label": "*3", "atom_type": "Cd"}, "7": {"label": "*1", "atom_type": "Cs"}, "8": {"label": "*0", "atom_type": "S2s"}, "13": {"label": "*2", "atom_type": "H0"}}

>  <type>  (7) 
unop_3

>  <geom_source>  (7) 
Heuristics

$$$$

     RDKit          3D

 18 16  0  0  0  0  0  0  0  0999 V2000
   -2.6512    0.0338   -0.1388 S   0  0  0  0  0  0  0  0  0  0  0  0
   -1.1863   -0.7411    0.4268 C   0  0  0  0  0  0  0  0  0  0  0  0
   -0.9941   -1.3982    1.5607 C   0  0  0  0  0  0  0  0  0  0  0  0
   -3.4206   -0.2679    0.9161 H   0  0  0  0  0  0  0  0  0  0  0  0
   -0.0271   -1.8300    1.7820 H   0  0  0  0  0  0  0  0  0  0  0  0
   -1.7780   -1.5281    2.2970 H   0  0  0  0  0  0  0  0  0  0  0  0
    0.9412    0.5177   -1.9422 C   0  0  0  0  0  0  0  0  0  0  0  0
    0.9412    0.5177   -0.4199 C   0  0  0  0  0  3  0  0  0  0  0  0
    2.2962   -0.4987    0.2637 S   0  0  0  0  0  0  0  0  0  0  0  0
    0.9412    1.9277    0.1542 C   0  0  0  0  0  0  0  0  0  0  0  0
    0.9126   -0.4965   -2.3389 H   0  0  0  0  0  0  0  0  0  0  0  0
    1.8396    1.0075   -2.3258 H   0  0  0  0  0  0  0  0  0  0  0  0
    0.0742    1.0652   -2.3210 H   0  0  0  0  0  0  0  0  0  0  0  0
   -0.1267   -0.1141    0.0051 H   0  0  0  0  0  0  0  0  0  0  0  0
    3.3025    0.2368   -0.2309 H   0  0  0  0  0  0  0  0  0  0  0  0
    0.0742    2.4850   -0.2100 H   0  0  0  0  0  0  0  0  0  0  0  0
    1.8396    2.4677   -0.1548 H   0  0  0  0  0  0  0  0  0  0  0  0
    0.9126    1.9126    1.2431 H   0  0  0  0  0  0  0  0  0  0  0  0
  1  2  1  0
  1  4  1  0
  2  3  2  3
  2 14  1  0
  3  5  1  0
  3  6  1  0
  7  8  1  0
  7 11  1  0
  7 12  1  0
  7 13  1  0
  8 10  1  0
  8  9  1  0
  9 15  1  0
 10 16  1  0
 10 17  1  0
 10 18  1  0
M  RAD  1   8   2
M  END
>  <reaction>  (8) 
rxn_1935

>  <mol_properties>  (8) 
{"0": {"label": "*4", "atom_type": "S2s"}, "1": {"label": "*3", "atom_type": "Cd"}, "7": {"label": "*1", "atom_type": "Cs"}, "8": {"label": "*0", "atom_type": "S2s"}, "13": {"label": "*2", "atom_type": "H0"}}

>  <type>  (8) 
unop_4

>  <geom_source>  (8) 
Heuristics

$$$$

     RDKit          3D

 18 16  0  0  0  0  0  0  0  0999 V2000
   -1.4721   -0.5931    1.8377 S   0  0  0  0  0  0  0  0  0  0  0  0
   -1.4092   -0.5559    0.0881 C   0  0  0  0  0  0  0  0  0  0  0  0
   -2.2757   -1.0686   -0.7726 C   0  0  0  0  0  0  0  0  0  0  0  0
   -2.6213   -1.2731    1.9514 H   0  0  0  0  0  0  0  0  0  0  0  0
   -2.1086   -0.9698   -1.8369 H   0  0  0  0  0  0  0  0  0  0  0  0
   -3.1671   -1.5961   -0.4551 H   0  0  0  0  0  0  0  0  0  0  0  0
    0.7183    0.7029   -2.2809 C   0  0  0  0  0  0  0  0  0  0  0  0
    0.7183    0.7029   -0.7586 C   0  0  0  0  0  3  0  0  0  0  0  0
    2.0733   -0.3135   -0.0749 S   0  0  0  0  0  0  0  0  0  0  0  0
    0.7183    2.1129   -0.1845 C   0  0  0  0  0  0  0  0  0  0  0  0
    0.6897   -0.3113   -2.6775 H   0  0  0  0  0  0  0  0  0  0  0  0
    1.6167    1.1927   -2.6645 H   0  0  0  0  0  0  0  0  0  0  0  0
   -0.1487    1.2504   -2.6597 H   0  0  0  0  0  0  0  0  0  0  0  0
   -0.3496    0.0711   -0.3336 H   0  0  0  0  0  0  0  0  0  0  0  0
    3.0795    0.4220   -0.5696 H   0  0  0  0  0  0  0  0  0  0  0  0
   -0.1487    2.6702   -0.5487 H   0  0  0  0  0  0  0  0  0  0  0  0
    1.6167    2.6529   -0.4934 H   0  0  0  0  0  0  0  0  0  0  0  0
    0.6897    2.0978    0.9044 H   0  0  0  0  0  0  0  0  0  0  0  0
  1  2  1  0
  1  4  1  0
  2  3  2  3
  2 14  1  0
  3  5  1  0
  3  6  1  0
  7  8  1  0
  7 11  1  0
  7 12  1  0
  7 13  1  0
  8 10  1  0
  8  9  1  0
  9 15  1  0
 10 16  1  0
 10 17  1  0
 10 18  1  0
M  RAD  1   8   2
M  END
>  <reaction>  (9) 
rxn_1935

>  <mol_properties>  (9) 
{"0": {"label": "*4", "atom_type": "S2s"}, "1": {"label": "*3", "atom_type": "Cd"}, "7": {"label": "*1", "atom_type": "Cs"}, "8": {"label": "*0", "atom_type": "S2s"}, "13": {"label": "*2", "atom_type": "H0"}}

>  <type>  (9) 
unop_5

>  <geom_source>  (9) 
Heuristics

$$$$

     RDKit          3D

 18 16  0  0  0  0  0  0  0  0999 V2000
   -2.5833    0.3189    0.4836 S   0  0  0  0  0  0  0  0  0  0  0  0
   -1.2345   -0.7787    0.2775 C   0  0  0  0  0  0  0  0  0  0  0  0
   -0.8808   -1.7941    1.0511 C   0  0  0  0  0  0  0  0  0  0  0  0
   -3.0661   -0.2163    1.6134 H   0  0  0  0  0  0  0  0  0  0  0  0
   -0.0159   -2.3936    0.8001 H   0  0  0  0  0  0  0  0  0  0  0  0
   -1.4292   -2.0610    1.9464 H   0  0  0  0  0  0  0  0  0  0  0  0
    0.8929    0.4801   -2.0915 C   0  0  0  0  0  0  0  0  0  0  0  0
    0.8929    0.4801   -0.5692 C   0  0  0  0  0  3  0  0  0  0  0  0
    2.2479   -0.5363    0.1144 S   0  0  0  0  0  0  0  0  0  0  0  0
    0.8929    1.8901    0.0049 C   0  0  0  0  0  0  0  0  0  0  0  0
    0.8643   -0.5341   -2.4882 H   0  0  0  0  0  0  0  0  0  0  0  0
    1.7913    0.9698   -2.4751 H   0  0  0  0  0  0  0  0  0  0  0  0
    0.0259    1.0275   -2.4703 H   0  0  0  0  0  0  0  0  0  0  0  0
   -0.1750   -0.1518   -0.1442 H   0  0  0  0  0  0  0  0  0  0  0  0
    3.2542    0.1992   -0.3802 H   0  0  0  0  0  0  0  0  0  0  0  0
    0.0259    2.4473   -0.3593 H   0  0  0  0  0  0  0  0  0  0  0  0
    1.7913    2.4300   -0.3041 H   0  0  0  0  0  0  0  0  0  0  0  0
    0.8643    1.8750    1.0938 H   0  0  0  0  0  0  0  0  0  0  0  0
  1  2  1  0
  1  4  1  0
  2  3  2  3
  2 14  1  0
  3  5  1  0
  3  6  1  0
  7  8  1  0
  7 11  1  0
  7 12  1  0
  7 13  1  0
  8 10  1  0
  8  9  1  0
  9 15  1  0
 10 16  1  0
 10 17  1  0
 10 18  1  0
M  RAD  1   8   2
M  END
>  <reaction>  (10) 
rxn_1935

>  <mol_properties>  (10) 
{"0": {"label": "*4", "atom_type": "S2s"}, "1": {"label": "*3", "atom_type": "Cd"}, "7": {"label": "*1", "atom_type": "Cs"}, "8": {"label": "*0", "atom_type": "S2s"}, "13": {"label": "*2", "atom_type": "H0"}}

>  <type>  (10) 
unop_6

>  <geom_source>  (10) 
Heuristics

$$$$

     RDKit          3D

 18 16  0  0  0  0  0  0  0  0999 V2000
   -2.3209    0.3102    1.1320 S   0  0  0  0  0  0  0  0  0  0  0  0
   -1.3110   -0.7339    0.1541 C   0  0  0  0  0  0  0  0  0  0  0  0
   -1.0245   -2.0122    0.3503 C   0  0  0  0  0  0  0  0  0  0  0  0
   -2.6550   -0.5975    2.0596 H   0  0  0  0  0  0  0  0  0  0  0  0
   -0.3800   -2.5377   -0.3417 H   0  0  0  0  0  0  0  0  0  0  0  0
   -1.4141   -2.5724    1.1917 H   0  0  0  0  0  0  0  0  0  0  0  0
    0.8165    0.5249   -2.2149 C   0  0  0  0  0  0  0  0  0  0  0  0
    0.8165    0.5249   -0.6925 C   0  0  0  0  0  3  0  0  0  0  0  0
    2.1715   -0.4915   -0.0089 S   0  0  0  0  0  0  0  0  0  0  0  0
    0.8165    1.9349   -0.1185 C   0  0  0  0  0  0  0  0  0  0  0  0
    0.7879   -0.4894   -2.6115 H   0  0  0  0  0  0  0  0  0  0  0  0
    1.7149    1.0146   -2.5985 H   0  0  0  0  0  0  0  0  0  0  0  0
   -0.0505    1.0723   -2.5937 H   0  0  0  0  0  0  0  0  0  0  0  0
   -0.2514   -0.1070   -0.2675 H   0  0  0  0  0  0  0  0  0  0  0  0
    3.1778    0.2440   -0.5036 H   0  0  0  0  0  0  0  0  0  0  0  0
   -0.0505    2.4921   -0.4827 H   0  0  0  0  0  0  0  0  0  0  0  0
    1.7149    2.4748   -0.4274 H   0  0  0  0  0  0  0  0  0  0  0  0
    0.7879    1.9198    0.9705 H   0  0  0  0  0  0  0  0  0  0  0  0
  1  2  1  0
  1  4  1  0
  2  3  2  3
  2 14  1  0
  3  5  1  0
  3  6  1  0
  7  8  1  0
  7 11  1  0
  7 12  1  0
  7 13  1  0
  8 10  1  0
  8  9  1  0
  9 15  1  0
 10 16  1  0
 10 17  1  0
 10 18  1  0
M  RAD  1   8   2
M  END
>  <reaction>  (11) 
rxn_1935

>  <mol_properties>  (11) 
{"0": {"label": "*4", "atom_type": "S2s"}, "1": {"label": "*3", "atom_type": "Cd"}, "7": {"label": "*1", "atom_type": "Cs"}, "8": {"label": "*0", "atom_type": "S2s"}, "13": {"label": "*2", "atom_type": "H0"}}

>  <type>  (11) 
unop_7

>  <geom_source>  (11) 
Heuristics

$$$$

     RDKit          3D

 18 16  0  0  0  0  0  0  0  0999 V2000
   -1.2075   -2.0061    0.4836 S   0  0  0  0  0  0  0  0  0  0  0  0
   -1.5204   -0.2956    0.2775 C   0  0  0  0  0  0  0  0  0  0  0  0
   -2.2402    0.5033    1.0511 C   0  0  0  0  0  0  0  0  0  0  0  0
   -1.9091   -2.1717    1.6134 H   0  0  0  0  0  0  0  0  0  0  0  0
   -2.3493    1.5499    0.8001 H   0  0  0  0  0  0  0  0  0  0  0  0
   -2.7381    0.1510    1.9463 H   0  0  0  0  0  0  0  0  0  0  0  0
    0.6070    0.9633   -2.0915 C   0  0  0  0  0  0  0  0  0  0  0  0
    0.6070    0.9633   -0.5692 C   0  0  0  0  0  3  0  0  0  0  0  0
    1.9620   -0.0532    0.1144 S   0  0  0  0  0  0  0  0  0  0  0  0
    0.6070    2.3732    0.0049 C   0  0  0  0  0  0  0  0  0  0  0  0
    0.5784   -0.0510   -2.4882 H   0  0  0  0  0  0  0  0  0  0  0  0
    1.5054    1.4530   -2.4751 H   0  0  0  0  0  0  0  0  0  0  0  0
   -0.2600    1.5107   -2.4703 H   0  0  0  0  0  0  0  0  0  0  0  0
   -0.4609    0.3314   -0.1442 H   0  0  0  0  0  0  0  0  0  0  0  0
    2.9683    0.6823   -0.3802 H   0  0  0  0  0  0  0  0  0  0  0  0
   -0.2600    2.9305   -0.3593 H   0  0  0  0  0  0  0  0  0  0  0  0
    1.5054    2.9132   -0.3041 H   0  0  0  0  0  0  0  0  0  0  0  0
    0.5784    2.3582    1.0938 H   0  0  0  0  0  0  0  0  0  0  0  0
  1  2  1  0
  1  4  1  0
  2  3  2  3
  2 14  1  0
  3  5  1  0
  3  6  1  0
  7  8  1  0
  7 11  1  0
  7 12  1  0
  7 13  1  0
  8 10  1  0
  8  9  1  0
  9 15  1  0
 10 16  1  0
 10 17  1  0
 10 18  1  0
M  RAD  1   8   2
M  END
>  <reaction>  (12) 
rxn_1935

>  <mol_properties>  (12) 
{"0": {"label": "*4", "atom_type": "S2s"}, "1": {"label": "*3", "atom_type": "Cd"}, "7": {"label": "*1", "atom_type": "Cs"}, "8": {"label": "*0", "atom_type": "S2s"}, "13": {"label": "*2", "atom_type": "H0"}}

>  <type>  (12) 
unop_8

>  <geom_source>  (12) 
Heuristics

$$$$

     RDKit          3D

 18 16  0  0  0  0  0  0  0  0999 V2000
   -2.5189   -0.4620   -0.5798 S   0  0  0  0  0  0  0  0  0  0  0  0
   -1.1915   -0.6245    0.5507 C   0  0  0  0  0  0  0  0  0  0  0  0
   -1.2421   -0.9798    1.8258 C   0  0  0  0  0  0  0  0  0  0  0  0
   -3.5027   -0.8029    0.2639 H   0  0  0  0  0  0  0  0  0  0  0  0
   -0.3337   -1.0391    2.4104 H   0  0  0  0  0  0  0  0  0  0  0  0
   -2.1727   -1.2204    2.3254 H   0  0  0  0  0  0  0  0  0  0  0  0
    0.9359    0.6343   -1.8183 C   0  0  0  0  0  0  0  0  0  0  0  0
    0.9359    0.6343   -0.2959 C   0  0  0  0  0  3  0  0  0  0  0  0
    2.2909   -0.3821    0.3877 S   0  0  0  0  0  0  0  0  0  0  0  0
    0.9359    2.0443    0.2781 C   0  0  0  0  0  0  0  0  0  0  0  0
    0.9073   -0.3799   -2.2149 H   0  0  0  0  0  0  0  0  0  0  0  0
    1.8343    1.1241   -2.2019 H   0  0  0  0  0  0  0  0  0  0  0  0
    0.0689    1.1818   -2.1971 H   0  0  0  0  0  0  0  0  0  0  0  0
   -0.1320    0.0025    0.1291 H   0  0  0  0  0  0  0  0  0  0  0  0
    3.2972    0.3534   -0.1070 H   0  0  0  0  0  0  0  0  0  0  0  0
    0.0689    2.6016   -0.0860 H   0  0  0  0  0  0  0  0  0  0  0  0
    1.8343    2.5842   -0.0308 H   0  0  0  0  0  0  0  0  0  0  0  0
    0.9073    2.0292    1.3671 H   0  0  0  0  0  0  0  0  0  0  0  0
  1  2  1  0
  1  4  1  0
  2  3  2  3
  2 14  1  0
  3  5  1  0
  3  6  1  0
  7  8  1  0
  7 11  1  0
  7 12  1  0
  7 13  1  0
  8 10  1  0
  8  9  1  0
  9 15  1  0
 10 16  1  0
 10 17  1  0
 10 18  1  0
M  RAD  1   8   2
M  END
>  <reaction>  (13) 
rxn_1935

>  <mol_properties>  (13) 
{"0": {"label": "*4", "atom_type": "S2s"}, "1": {"label": "*3", "atom_type": "Cd"}, "7": {"label": "*1", "atom_type": "Cs"}, "8": {"label": "*0", "atom_type": "S2s"}, "13": {"label": "*2", "atom_type": "H0"}}

>  <type>  (13) 
unop_9

>  <geom_source>  (13) 
Heuristics

$$$$

     RDKit          3D

 18 16  0  0  0  0  0  0  0  0999 V2000
   -1.4901   -1.9284   -0.1388 S   0  0  0  0  0  0  0  0  0  0  0  0
   -1.4642   -0.2714    0.4268 C   0  0  0  0  0  0  0  0  0  0  0  0
   -1.9477    0.2135    1.5607 C   0  0  0  0  0  0  0  0  0  0  0  0
   -2.1249   -2.4576    0.9161 H   0  0  0  0  0  0  0  0  0  0  0  0
   -1.8608    1.2688    1.7820 H   0  0  0  0  0  0  0  0  0  0  0  0
   -2.4389   -0.4112    2.2970 H   0  0  0  0  0  0  0  0  0  0  0  0
    0.6632    0.9875   -1.9422 C   0  0  0  0  0  0  0  0  0  0  0  0
    0.6632    0.9875   -0.4199 C   0  0  0  0  0  3  0  0  0  0  0  0
    2.0182   -0.0290    0.2637 S   0  0  0  0  0  0  0  0  0  0  0  0
    0.6632    2.3974    0.1542 C   0  0  0  0  0  0  0  0  0  0  0  0
    0.6346   -0.0268   -2.3389 H   0  0  0  0  0  0  0  0  0  0  0  0
    1.5616    1.4772   -2.3258 H   0  0  0  0  0  0  0  0  0  0  0  0
   -0.2037    1.5349   -2.3210 H   0  0  0  0  0  0  0  0  0  0  0  0
   -0.4047    0.3556    0.0051 H   0  0  0  0  0  0  0  0  0  0  0  0
    3.0245    0.7065   -0.2309 H   0  0  0  0  0  0  0  0  0  0  0  0
   -0.2037    2.9547   -0.2100 H   0  0  0  0  0  0  0  0  0  0  0  0
    1.5616    2.9374   -0.1548 H   0  0  0  0  0  0  0  0  0  0  0  0
    0.6346    2.3824    1.2431 H   0  0  0  0  0  0  0  0  0  0  0  0
  1  2  1  0
  1  4  1  0
  2  3  2  3
  2 14  1  0
  3  5  1  0
  3  6  1  0
  7  8  1  0
  7 11  1  0
  7 12  1  0
  7 13  1  0
  8 10  1  0
  8  9  1  0
  9 15  1  0
 10 16  1  0
 10 17  1  0
 10 18  1  0
M  RAD  1   8   2
M  END
>  <reaction>  (14) 
rxn_1935

>  <mol_properties>  (14) 
{"0": {"label": "*4", "atom_type": "S2s"}, "1": {"label": "*3", "atom_type": "Cd"}, "7": {"label": "*1", "atom_type": "Cs"}, "8": {"label": "*0", "atom_type": "S2s"}, "13": {"label": "*2", "atom_type": "H0"}}

>  <type>  (14) 
unop_10

>  <geom_source>  (14) 
Heuristics

$$$$

     RDKit          3D

 18 16  0  0  0  0  0  0  0  0999 V2000
   -1.9166   -0.0077    1.6365 S   0  0  0  0  0  0  0  0  0  0  0  0
   -1.3773   -0.6364    0.0938 C   0  0  0  0  0  0  0  0  0  0  0  0
   -1.5173   -1.8642   -0.3831 C   0  0  0  0  0  0  0  0  0  0  0  0
   -2.4689   -1.1387    2.0967 H   0  0  0  0  0  0  0  0  0  0  0  0
   -1.1311   -2.1149   -1.3621 H   0  0  0  0  0  0  0  0  0  0  0  0
   -2.0127   -2.6507    0.1734 H   0  0  0  0  0  0  0  0  0  0  0  0
    0.7502    0.6224   -2.2752 C   0  0  0  0  0  0  0  0  0  0  0  0
    0.7502    0.6224   -0.7529 C   0  0  0  0  0  3  0  0  0  0  0  0
    2.1052   -0.3940   -0.0693 S   0  0  0  0  0  0  0  0  0  0  0  0
    0.7502    2.0324   -0.1788 C   0  0  0  0  0  0  0  0  0  0  0  0
    0.7216   -0.3918   -2.6719 H   0  0  0  0  0  0  0  0  0  0  0  0
    1.6486    1.1121   -2.6588 H   0  0  0  0  0  0  0  0  0  0  0  0
   -0.1168    1.1698   -2.6540 H   0  0  0  0  0  0  0  0  0  0  0  0
   -0.3177   -0.0095   -0.3279 H   0  0  0  0  0  0  0  0  0  0  0  0
    3.1114    0.3415   -0.5639 H   0  0  0  0  0  0  0  0  0  0  0  0
   -0.1168    2.5896   -0.5430 H   0  0  0  0  0  0  0  0  0  0  0  0
    1.6486    2.5723   -0.4878 H   0  0  0  0  0  0  0  0  0  0  0  0
    0.7216    2.0173    0.9101 H   0  0  0  0  0  0  0  0  0  0  0  0
  1  2  1  0
  1  4  1  0
  2  3  2  3
  2 14  1  0
  3  5  1  0
  3  6  1  0
  7  8  1  0
  7 11  1  0
  7 12  1  0
  7 13  1  0
  8 10  1  0
  8  9  1  0
  9 15  1  0
 10 16  1  0
 10 17  1  0
 10 18  1  0
M  RAD  1   8   2
M  END
>  <reaction>  (15) 
rxn_1935

>  <mol_properties>  (15) 
{"0": {"label": "*4", "atom_type": "S2s"}, "1": {"label": "*3", "atom_type": "Cd"}, "7": {"label": "*1", "atom_type": "Cs"}, "8": {"label": "*0", "atom_type": "S2s"}, "13": {"label": "*2", "atom_type": "H0"}}

>  <type>  (15) 
unop_11

>  <geom_source>  (15) 
Heuristics

$$$$

     RDKit          3D

 18 16  0  0  0  0  0  0  0  0999 V2000
   -2.2313   -1.0423   -0.7377 S   0  0  0  0  0  0  0  0  0  0  0  0
   -1.2584   -0.4667    0.5996 C   0  0  0  0  0  0  0  0  0  0  0  0
   -1.4888   -0.6030    1.8969 C   0  0  0  0  0  0  0  0  0  0  0  0
   -3.1992   -1.6150   -0.0089 H   0  0  0  0  0  0  0  0  0  0  0  0
   -0.7953   -0.1926    2.6187 H   0  0  0  0  0  0  0  0  0  0  0  0
   -2.3606   -1.1188    2.2810 H   0  0  0  0  0  0  0  0  0  0  0  0
    0.8690    0.7922   -1.7694 C   0  0  0  0  0  0  0  0  0  0  0  0
    0.8690    0.7922   -0.2470 C   0  0  0  0  0  3  0  0  0  0  0  0
    2.2241   -0.2243    0.4366 S   0  0  0  0  0  0  0  0  0  0  0  0
    0.8690    2.2021    0.3270 C   0  0  0  0  0  0  0  0  0  0  0  0
    0.8405   -0.2221   -2.1660 H   0  0  0  0  0  0  0  0  0  0  0  0
    1.7675    1.2819   -2.1530 H   0  0  0  0  0  0  0  0  0  0  0  0
    0.0021    1.3396   -2.1482 H   0  0  0  0  0  0  0  0  0  0  0  0
   -0.1988    0.1603    0.1780 H   0  0  0  0  0  0  0  0  0  0  0  0
    3.2303    0.5112   -0.0581 H   0  0  0  0  0  0  0  0  0  0  0  0
    0.0021    2.7594   -0.0371 H   0  0  0  0  0  0  0  0  0  0  0  0
    1.7675    2.7421    0.0181 H   0  0  0  0  0  0  0  0  0  0  0  0
    0.8405    2.1870    1.4160 H   0  0  0  0  0  0  0  0  0  0  0  0
  1  2  1  0
  1  4  1  0
  2  3  2  3
  2 14  1  0
  3  5  1  0
  3  6  1  0
  7  8  1  0
  7 11  1  0
  7 12  1  0
  7 13  1  0
  8 10  1  0
  8  9  1  0
  9 15  1  0
 10 16  1  0
 10 17  1  0
 10 18  1  0
M  RAD  1   8   2
M  END
>  <reaction>  (16) 
rxn_1935

>  <mol_properties>  (16) 
{"0": {"label": "*4", "atom_type": "S2s"}, "1": {"label": "*3", "atom_type": "Cd"}, "7": {"label": "*1", "atom_type": "Cs"}, "8": {"label": "*0", "atom_type": "S2s"}, "13": {"label": "*2", "atom_type": "H0"}}

>  <type>  (16) 
unop_12

>  <geom_source>  (16) 
Heuristics

$$$$

     RDKit          3D

 18 16  0  0  0  0  0  0  0  0999 V2000
   -0.2613    0.0947   -1.7684 S   0  0  0  0  0  0  0  0  0  0  0  0
    3.0758    0.1686   -1.4308 S   0  0  0  0  0  0  0  0  0  0  0  0
   -1.5900   -1.0332    0.3765 C   0  0  0  0  0  0  0  0  0  0  0  0
   -1.3542    1.4841    0.3561 C   0  0  0  0  0  0  0  0  0  0  0  0
   -0.7021    0.1503    0.0011 C   0  0  0  0  0  3  0  0  0  0  0  0
    1.8147   -0.3428   -0.2654 C   0  0  0  0  0  0  0  0  0  0  0  0
    2.1439   -0.9959    0.8475 C   0  0  0  0  0  0  0  0  0  0  0  0
   -1.7938   -1.0217    1.4679 H   0  0  0  0  0  0  0  0  0  0  0  0
   -2.5540   -0.9913   -0.1741 H   0  0  0  0  0  0  0  0  0  0  0  0
   -1.0713   -1.9829    0.1288 H   0  0  0  0  0  0  0  0  0  0  0  0
   -1.5549    1.5281    1.4472 H   0  0  0  0  0  0  0  0  0  0  0  0
   -2.3100    1.6131   -0.1953 H   0  0  0  0  0  0  0  0  0  0  0  0
   -0.6685    2.3168    0.0939 H   0  0  0  0  0  0  0  0  0  0  0  0
    0.6285   -0.0855   -0.5015 H   0  0  0  0  0  0  0  0  0  0  0  0
    1.3712   -1.3006    1.5452 H   0  0  0  0  0  0  0  0  0  0  0  0
    3.1808   -1.2290    1.0686 H   0  0  0  0  0  0  0  0  0  0  0  0
    3.2396    1.4112   -0.7906 H   0  0  0  0  0  0  0  0  0  0  0  0
   -1.5944    0.2160   -2.2066 H   0  0  0  0  0  0  0  0  0  0  0  0
  1  5  1  0
  1 18  1  0
  2  6  1  0
  2 17  1  0
  3  5  1  0
  3  8  1  0
  3  9  1  0
  3 10  1  0
  4  5  1  0
  4 11  1  0
  4 12  1  0
  4 13  1  0
  6  7  2  3
  6 14  1  0
  7 15  1  0
  7 16  1  0
M  RAD  1   5   2
M  END
>  <reaction>  (17) 
rxn_1935

>  <mol_properties>  (17) 
{"0": {"label": "*4", "atom_type": "S2s"}, "1": {"label": "*3", "atom_type": "Cd"}, "7": {"label": "*1", "atom_type": "Cs"}, "8": {"label": "*0", "atom_type": "S2s"}, "13": {"label": "*2", "atom_type": "H0"}}

>  <type>  (17) 
unop_13

>  <geom_source>  (17) 
AutoTST

$$$$
