
     RDKit          3D

 10  9  0  0  0  0  0  0  0  0999 V2000
   -1.1508    0.0666    0.2839 C   0  0  0  0  0  0  0  0  0  0  0  0
    0.1022   -0.3749   -0.4771 C   0  0  0  0  0  0  0  0  0  0  0  0
    1.3428    0.1620    0.1542 C   0  0  0  0  0  0  0  0  0  0  0  0
    2.5613   -0.6971    0.7526 S   0  0  0  0  0  0  0  0  0  0  0  0
   -1.2137    1.1546    0.3481 H   0  0  0  0  0  0  0  0  0  0  0  0
   -2.0472   -0.2935   -0.2212 H   0  0  0  0  0  0  0  0  0  0  0  0
   -1.1467   -0.3334    1.2987 H   0  0  0  0  0  0  0  0  0  0  0  0
    0.1602   -1.4616   -0.5369 H   0  0  0  0  0  0  0  0  0  0  0  0
    0.0536    0.0174   -1.4997 H   0  0  0  0  0  0  0  0  0  0  0  0
    1.3824    1.2528    0.2110 H   0  0  0  0  0  0  0  0  0  0  0  0
  1  2  1  0
  1  5  1  0
  1  6  1  0
  1  7  1  0
  2  3  1  0
  2  8  1  0
  2  9  1  0
  3  4  2  0
  3 10  1  0
M  END
>  <reaction>  (1) 
rxn_2013

>  <mol_properties>  (1) 
{"1": {"label": "donator", "atom_type": "Cs"}, "7": {"label": "d_hydrogen", "atom_type": "H0"}}

>  <type>  (1) 
r1h

$$$$

     RDKit          3D

  5  4  0  0  0  0  0  0  0  0999 V2000
    0.0397    0.7134    0.0000 C   0  0  0  0  0  3  0  0  0  0  0  0
    0.0458   -0.5870    0.0000 C   0  0  0  0  0  0  0  0  0  0  0  0
   -0.6871    1.5118    0.0000 H   0  0  0  0  0  0  0  0  0  0  0  0
   -0.8806   -1.1637    0.0000 H   0  0  0  0  0  0  0  0  0  0  0  0
    0.9690   -1.1600    0.0000 H   0  0  0  0  0  0  0  0  0  0  0  0
  1  2  2  3
  1  3  1  0
  2  4  1  0
  2  5  1  0
M  RAD  1   1   2
M  END
>  <reaction>  (2) 
rxn_2013

>  <mol_properties>  (2) 
{"0": {"label": "acceptor", "atom_type": "Cd"}}

>  <type>  (2) 
r2

$$$$

     RDKit          3D

  6  5  0  0  0  0  0  0  0  0999 V2000
    0.6594    0.0438   -0.0050 C   0  0  0  0  0  0  0  0  0  0  0  0
   -0.6594   -0.0438    0.0050 C   0  0  0  0  0  0  0  0  0  0  0  0
    1.1706    0.8681   -0.4881 H   0  0  0  0  0  0  0  0  0  0  0  0
    1.2824   -0.7051    0.4696 H   0  0  0  0  0  0  0  0  0  0  0  0
   -1.2824    0.7051   -0.4696 H   0  0  0  0  0  0  0  0  0  0  0  0
   -1.1706   -0.8681    0.4881 H   0  0  0  0  0  0  0  0  0  0  0  0
  1  2  2  3
  1  3  1  0
  1  4  1  0
  2  5  1  0
  2  6  1  0
M  END
>  <reaction>  (3) 
rxn_2013

>  <mol_properties>  (3) 
{"0": {"label": "acceptor", "atom_type": "Cd"}, "5": {"label": "a_hydrogen", "atom_type": "H0"}}

>  <type>  (3) 
r2h

$$$$

     RDKit          3D

 15 13  0  0  0  0  0  0  0  0999 V2000
   -1.0744   -2.1182   -0.0541 C   0  0  0  0  0  3  0  0  0  0  0  0
   -2.1542   -1.4580    0.2654 C   0  0  0  0  0  0  0  0  0  0  0  0
   -0.8592   -3.1676   -0.2011 H   0  0  0  0  0  0  0  0  0  0  0  0
   -3.1025   -1.9613    0.4458 H   0  0  0  0  0  0  0  0  0  0  0  0
   -2.1492   -0.3760    0.3712 H   0  0  0  0  0  0  0  0  0  0  0  0
    1.6855   -0.7592   -1.7423 C   0  0  0  0  0  0  0  0  0  0  0  0
    1.0334   -0.3591   -0.4308 C   0  0  0  0  0  0  0  0  0  0  0  0
    0.3698    0.9452   -0.4133 C   0  0  0  0  0  0  0  0  0  0  0  0
    0.2410    1.9384    0.8585 S   0  0  0  0  0  0  0  0  0  0  0  0
    2.5561   -0.1355   -1.9543 H   0  0  0  0  0  0  0  0  0  0  0  0
    2.0176   -1.7971   -1.7049 H   0  0  0  0  0  0  0  0  0  0  0  0
    0.9866   -0.6590   -2.5751 H   0  0  0  0  0  0  0  0  0  0  0  0
    0.1412   -1.1419   -0.2546 H   0  0  0  0  0  0  0  0  0  0  0  0
    1.6719   -0.5003    0.4408 H   0  0  0  0  0  0  0  0  0  0  0  0
   -0.1070    1.2270   -1.3552 H   0  0  0  0  0  0  0  0  0  0  0  0
  1  2  2  3
  1  3  1  0
  2  4  1  0
  2  5  1  0
  6  7  1  0
  6 10  1  0
  6 11  1  0
  6 12  1  0
  7  8  1  0
  7 13  1  0
  7 14  1  0
  8  9  2  0
  8 15  1  0
M  RAD  1   1   2
M  END
>  <reaction>  (4) 
rxn_2013

>  <mol_properties>  (4) 
{"0": {"label": "*3", "atom_type": "Cd"}, "1": {"label": "*4", "atom_type": "Cd"}, "6": {"label": "*1", "atom_type": "Cs"}, "7": {"label": "*0", "atom_type": "CS"}, "12": {"label": "*2", "atom_type": "H0"}}

>  <type>  (4) 
ts

$$$$

     RDKit          3D

 15 13  0  0  0  0  0  0  0  0999 V2000
   -1.1696   -1.6347    0.2592 C   0  0  0  0  0  0  0  0  0  0  0  0
   -1.0184   -2.6955    1.0329 C   0  0  0  0  0  0  0  0  0  0  0  0
   -1.8804   -0.8528    0.4992 H   0  0  0  0  0  0  0  0  0  0  0  0
   -1.5991   -2.8261    1.9384 H   0  0  0  0  0  0  0  0  0  0  0  0
   -0.3075   -3.4774    0.7929 H   0  0  0  0  0  0  0  0  0  0  0  0
    0.8798   -0.3197   -2.2065 C   0  0  0  0  0  0  0  0  0  0  0  0
    0.8798   -0.3197   -0.6754 C   0  0  0  0  0  0  0  0  0  0  0  0
    0.8798    1.0685   -0.1287 C   0  0  0  0  0  0  0  0  0  0  0  0
   -0.2397    1.7241    0.8188 S   0  0  0  0  0  1  0  0  0  0  0  0
    1.7351    0.2304   -2.6036 H   0  0  0  0  0  0  0  0  0  0  0  0
    0.9307   -1.3406   -2.5851 H   0  0  0  0  0  0  0  0  0  0  0  0
   -0.0296    0.1427   -2.5921 H   0  0  0  0  0  0  0  0  0  0  0  0
   -0.1478   -0.9791   -0.2067 H   0  0  0  0  0  0  0  0  0  0  0  0
    1.7902   -0.8164   -0.3200 H   0  0  0  0  0  0  0  0  0  0  0  0
    1.7353    1.6737   -0.4390 H   0  0  0  0  0  0  0  0  0  0  0  0
  1  2  2  3
  1  3  1  0
  1 13  1  0
  2  4  1  0
  2  5  1  0
  6  7  1  0
  6 10  1  0
  6 11  1  0
  6 12  1  0
  7  8  2  3
  7 14  1  0
  8  9  1  0
  8 15  1  0
M  RAD  1   9   2
M  END
>  <reaction>  (5) 
rxn_2013

>  <mol_properties>  (5) 
{"0": {"label": "*3", "atom_type": "Cd"}, "1": {"label": "*4", "atom_type": "Cd"}, "6": {"label": "*1", "atom_type": "Cs"}, "7": {"label": "*0", "atom_type": "CS"}, "12": {"label": "*2", "atom_type": "H0"}}

>  <type>  (5) 
unop_1

>  <geom_source>  (5) 
Heuristics

$$$$

     RDKit          3D

 15 13  0  0  0  0  0  0  0  0999 V2000
   -1.0737   -1.6356    0.4625 C   0  0  0  0  0  0  0  0  0  0  0  0
   -1.6086   -2.6473   -0.1989 C   0  0  0  0  0  0  0  0  0  0  0  0
   -1.2616   -1.4844    1.5189 H   0  0  0  0  0  0  0  0  0  0  0  0
   -2.2564   -3.3662    0.2887 H   0  0  0  0  0  0  0  0  0  0  0  0
   -1.4207   -2.7985   -1.2554 H   0  0  0  0  0  0  0  0  0  0  0  0
    0.9757   -0.3207   -2.0032 C   0  0  0  0  0  0  0  0  0  0  0  0
    0.9757   -0.3207   -0.4722 C   0  0  0  0  0  0  0  0  0  0  0  0
    0.9757    1.0675    0.0745 C   0  0  0  0  0  0  0  0  0  0  0  0
   -0.1439    1.7232    1.0221 S   0  0  0  0  0  1  0  0  0  0  0  0
    1.8309    0.2295   -2.4003 H   0  0  0  0  0  0  0  0  0  0  0  0
    1.0265   -1.3416   -2.3819 H   0  0  0  0  0  0  0  0  0  0  0  0
    0.0662    0.1417   -2.3889 H   0  0  0  0  0  0  0  0  0  0  0  0
   -0.0520   -0.9800   -0.0035 H   0  0  0  0  0  0  0  0  0  0  0  0
    1.8860   -0.8174   -0.1167 H   0  0  0  0  0  0  0  0  0  0  0  0
    1.8311    1.6728   -0.2358 H   0  0  0  0  0  0  0  0  0  0  0  0
  1  2  2  3
  1  3  1  0
  1 13  1  0
  2  4  1  0
  2  5  1  0
  6  7  1  0
  6 10  1  0
  6 11  1  0
  6 12  1  0
  7  8  2  3
  7 14  1  0
  8  9  1  0
  8 15  1  0
M  RAD  1   9   2
M  END
>  <reaction>  (6) 
rxn_2013

>  <mol_properties>  (6) 
{"0": {"label": "*3", "atom_type": "Cd"}, "1": {"label": "*4", "atom_type": "Cd"}, "6": {"label": "*1", "atom_type": "Cs"}, "7": {"label": "*0", "atom_type": "CS"}, "12": {"label": "*2", "atom_type": "H0"}}

>  <type>  (6) 
unop_2

>  <geom_source>  (6) 
Heuristics

$$$$

     RDKit          3D

 15 13  0  0  0  0  0  0  0  0999 V2000
   -1.1533   -1.6948    0.2082 C   0  0  0  0  0  0  0  0  0  0  0  0
   -1.1003   -2.3293    1.3665 C   0  0  0  0  0  0  0  0  0  0  0  0
   -2.0479   -1.1759   -0.1152 H   0  0  0  0  0  0  0  0  0  0  0  0
   -1.9493   -2.3561    2.0393 H   0  0  0  0  0  0  0  0  0  0  0  0
   -0.2056   -2.8483    1.6899 H   0  0  0  0  0  0  0  0  0  0  0  0
    0.8961   -0.3799   -2.2575 C   0  0  0  0  0  0  0  0  0  0  0  0
    0.8961   -0.3799   -0.7264 C   0  0  0  0  0  0  0  0  0  0  0  0
    0.8961    1.0083   -0.1797 C   0  0  0  0  0  0  0  0  0  0  0  0
   -0.2234    1.6640    0.7678 S   0  0  0  0  0  1  0  0  0  0  0  0
    1.7513    0.1703   -2.6546 H   0  0  0  0  0  0  0  0  0  0  0  0
    0.9470   -1.4008   -2.6361 H   0  0  0  0  0  0  0  0  0  0  0  0
   -0.0134    0.0825   -2.6431 H   0  0  0  0  0  0  0  0  0  0  0  0
   -0.1315   -1.0393   -0.2578 H   0  0  0  0  0  0  0  0  0  0  0  0
    1.8065   -0.8766   -0.3710 H   0  0  0  0  0  0  0  0  0  0  0  0
    1.7516    1.6135   -0.4901 H   0  0  0  0  0  0  0  0  0  0  0  0
  1  2  2  3
  1  3  1  0
  1 13  1  0
  2  4  1  0
  2  5  1  0
  6  7  1  0
  6 10  1  0
  6 11  1  0
  6 12  1  0
  7  8  2  3
  7 14  1  0
  8  9  1  0
  8 15  1  0
M  RAD  1   9   2
M  END
>  <reaction>  (7) 
rxn_2013

>  <mol_properties>  (7) 
{"0": {"label": "*3", "atom_type": "Cd"}, "1": {"label": "*4", "atom_type": "Cd"}, "6": {"label": "*1", "atom_type": "Cs"}, "7": {"label": "*0", "atom_type": "CS"}, "12": {"label": "*2", "atom_type": "H0"}}

>  <type>  (7) 
unop_3

>  <geom_source>  (7) 
Heuristics

$$$$

     RDKit          3D

 15 13  0  0  0  0  0  0  0  0999 V2000
   -0.9742   -1.8318    0.4069 C   0  0  0  0  0  0  0  0  0  0  0  0
   -2.2150   -1.4700    0.1301 C   0  0  0  0  0  0  0  0  0  0  0  0
   -0.7137   -2.2905    1.3535 H   0  0  0  0  0  0  0  0  0  0  0  0
   -3.0216   -1.6175    0.8385 H   0  0  0  0  0  0  0  0  0  0  0  0
   -2.4755   -1.0113   -0.8165 H   0  0  0  0  0  0  0  0  0  0  0  0
    1.0752   -0.5169   -2.0588 C   0  0  0  0  0  0  0  0  0  0  0  0
    1.0752   -0.5169   -0.5277 C   0  0  0  0  0  0  0  0  0  0  0  0
    1.0752    0.8713    0.0190 C   0  0  0  0  0  0  0  0  0  0  0  0
   -0.0444    1.5270    0.9665 S   0  0  0  0  0  1  0  0  0  0  0  0
    1.9304    0.0333   -2.4559 H   0  0  0  0  0  0  0  0  0  0  0  0
    1.1260   -1.5378   -2.4374 H   0  0  0  0  0  0  0  0  0  0  0  0
    0.1657   -0.0545   -2.4444 H   0  0  0  0  0  0  0  0  0  0  0  0
    0.0475   -1.1763   -0.0590 H   0  0  0  0  0  0  0  0  0  0  0  0
    1.9855   -1.0136   -0.1723 H   0  0  0  0  0  0  0  0  0  0  0  0
    1.9306    1.4765   -0.2913 H   0  0  0  0  0  0  0  0  0  0  0  0
  1  2  2  3
  1  3  1  0
  1 13  1  0
  2  4  1  0
  2  5  1  0
  6  7  1  0
  6 10  1  0
  6 11  1  0
  6 12  1  0
  7  8  2  3
  7 14  1  0
  8  9  1  0
  8 15  1  0
M  RAD  1   9   2
M  END
>  <reaction>  (8) 
rxn_2013

>  <mol_properties>  (8) 
{"0": {"label": "*3", "atom_type": "Cd"}, "1": {"label": "*4", "atom_type": "Cd"}, "6": {"label": "*1", "atom_type": "Cs"}, "7": {"label": "*0", "atom_type": "CS"}, "12": {"label": "*2", "atom_type": "H0"}}

>  <type>  (8) 
unop_4

>  <geom_source>  (8) 
Heuristics

$$$$

     RDKit          3D

 15 13  0  0  0  0  0  0  0  0999 V2000
   -1.1174   -1.7594    0.1915 C   0  0  0  0  0  0  0  0  0  0  0  0
   -1.3228   -1.8912    1.4905 C   0  0  0  0  0  0  0  0  0  0  0  0
   -1.7922   -2.1924   -0.5374 H   0  0  0  0  0  0  0  0  0  0  0  0
   -2.1742   -2.4375    1.8788 H   0  0  0  0  0  0  0  0  0  0  0  0
   -0.6479   -1.4582    2.2195 H   0  0  0  0  0  0  0  0  0  0  0  0
    0.9320   -0.4445   -2.2742 C   0  0  0  0  0  0  0  0  0  0  0  0
    0.9320   -0.4445   -0.7431 C   0  0  0  0  0  0  0  0  0  0  0  0
    0.9320    0.9437   -0.1964 C   0  0  0  0  0  0  0  0  0  0  0  0
   -0.1875    1.5994    0.7511 S   0  0  0  0  0  1  0  0  0  0  0  0
    1.7872    0.1057   -2.6713 H   0  0  0  0  0  0  0  0  0  0  0  0
    0.9828   -1.4654   -2.6528 H   0  0  0  0  0  0  0  0  0  0  0  0
    0.0225    0.0179   -2.6598 H   0  0  0  0  0  0  0  0  0  0  0  0
   -0.0957   -1.1038   -0.2744 H   0  0  0  0  0  0  0  0  0  0  0  0
    1.8424   -0.9412   -0.3877 H   0  0  0  0  0  0  0  0  0  0  0  0
    1.7875    1.5490   -0.5067 H   0  0  0  0  0  0  0  0  0  0  0  0
  1  2  2  3
  1  3  1  0
  1 13  1  0
  2  4  1  0
  2  5  1  0
  6  7  1  0
  6 10  1  0
  6 11  1  0
  6 12  1  0
  7  8  2  3
  7 14  1  0
  8  9  1  0
  8 15  1  0
M  RAD  1   9   2
M  END
>  <reaction>  (9) 
rxn_2013

>  <mol_properties>  (9) 
{"0": {"label": "*3", "atom_type": "Cd"}, "1": {"label": "*4", "atom_type": "Cd"}, "6": {"label": "*1", "atom_type": "Cs"}, "7": {"label": "*0", "atom_type": "CS"}, "12": {"label": "*2", "atom_type": "H0"}}

>  <type>  (9) 
unop_5

>  <geom_source>  (9) 
Heuristics

$$$$

     RDKit          3D

 15 13  0  0  0  0  0  0  0  0999 V2000
   -0.9888   -1.8638    0.3322 C   0  0  0  0  0  0  0  0  0  0  0  0
   -2.1413   -1.2662    0.5806 C   0  0  0  0  0  0  0  0  0  0  0  0
   -0.5708   -2.5973    1.0116 H   0  0  0  0  0  0  0  0  0  0  0  0
   -2.7144   -1.4857    1.4737 H   0  0  0  0  0  0  0  0  0  0  0  0
   -2.5593   -0.5328   -0.0987 H   0  0  0  0  0  0  0  0  0  0  0  0
    1.0606   -0.5489   -2.1335 C   0  0  0  0  0  0  0  0  0  0  0  0
    1.0606   -0.5489   -0.6024 C   0  0  0  0  0  0  0  0  0  0  0  0
    1.0606    0.8393   -0.0557 C   0  0  0  0  0  0  0  0  0  0  0  0
   -0.0589    1.4950    0.8918 S   0  0  0  0  0  1  0  0  0  0  0  0
    1.9158    0.0013   -2.5306 H   0  0  0  0  0  0  0  0  0  0  0  0
    1.1114   -1.5698   -2.5121 H   0  0  0  0  0  0  0  0  0  0  0  0
    0.1511   -0.0865   -2.5191 H   0  0  0  0  0  0  0  0  0  0  0  0
    0.0329   -1.2082   -0.1337 H   0  0  0  0  0  0  0  0  0  0  0  0
    1.9710   -1.0456   -0.2470 H   0  0  0  0  0  0  0  0  0  0  0  0
    1.9161    1.4446   -0.3661 H   0  0  0  0  0  0  0  0  0  0  0  0
  1  2  2  3
  1  3  1  0
  1 13  1  0
  2  4  1  0
  2  5  1  0
  6  7  1  0
  6 10  1  0
  6 11  1  0
  6 12  1  0
  7  8  2  3
  7 14  1  0
  8  9  1  0
  8 15  1  0
M  RAD  1   9   2
M  END
>  <reaction>  (10) 
rxn_2013

>  <mol_properties>  (10) 
{"0": {"label": "*3", "atom_type": "Cd"}, "1": {"label": "*4", "atom_type": "Cd"}, "6": {"label": "*1", "atom_type": "Cs"}, "7": {"label": "*0", "atom_type": "CS"}, "12": {"label": "*2", "atom_type": "H0"}}

>  <type>  (10) 
unop_6

>  <geom_source>  (10) 
Heuristics

$$$$

     RDKit          3D

 15 13  0  0  0  0  0  0  0  0999 V2000
   -1.0258   -1.8588    0.2592 C   0  0  0  0  0  0  0  0  0  0  0  0
   -1.9271   -1.2792    1.0329 C   0  0  0  0  0  0  0  0  0  0  0  0
   -0.6113   -2.8308    0.4992 H   0  0  0  0  0  0  0  0  0  0  0  0
   -2.2878   -1.7527    1.9384 H   0  0  0  0  0  0  0  0  0  0  0  0
   -2.3416   -0.3072    0.7929 H   0  0  0  0  0  0  0  0  0  0  0  0
    1.0237   -0.5439   -2.2065 C   0  0  0  0  0  0  0  0  0  0  0  0
    1.0237   -0.5439   -0.6754 C   0  0  0  0  0  0  0  0  0  0  0  0
    1.0237    0.8443   -0.1287 C   0  0  0  0  0  0  0  0  0  0  0  0
   -0.0959    1.5000    0.8188 S   0  0  0  0  0  1  0  0  0  0  0  0
    1.8789    0.0063   -2.6036 H   0  0  0  0  0  0  0  0  0  0  0  0
    1.0745   -1.5648   -2.5851 H   0  0  0  0  0  0  0  0  0  0  0  0
    0.1142   -0.0815   -2.5921 H   0  0  0  0  0  0  0  0  0  0  0  0
   -0.0040   -1.2032   -0.2067 H   0  0  0  0  0  0  0  0  0  0  0  0
    1.9340   -1.0406   -0.3200 H   0  0  0  0  0  0  0  0  0  0  0  0
    1.8791    1.4496   -0.4390 H   0  0  0  0  0  0  0  0  0  0  0  0
  1  2  2  3
  1  3  1  0
  1 13  1  0
  2  4  1  0
  2  5  1  0
  6  7  1  0
  6 10  1  0
  6 11  1  0
  6 12  1  0
  7  8  2  3
  7 14  1  0
  8  9  1  0
  8 15  1  0
M  RAD  1   9   2
M  END
>  <reaction>  (11) 
rxn_2013

>  <mol_properties>  (11) 
{"0": {"label": "*3", "atom_type": "Cd"}, "1": {"label": "*4", "atom_type": "Cd"}, "6": {"label": "*1", "atom_type": "Cs"}, "7": {"label": "*0", "atom_type": "CS"}, "12": {"label": "*2", "atom_type": "H0"}}

>  <type>  (11) 
unop_7

>  <geom_source>  (11) 
Heuristics

$$$$

     RDKit          3D

 15 13  0  0  0  0  0  0  0  0999 V2000
   -1.1587   -1.5990    0.3322 C   0  0  0  0  0  0  0  0  0  0  0  0
   -1.0958   -2.8956    0.5806 C   0  0  0  0  0  0  0  0  0  0  0  0
   -1.6512   -0.9133    1.0116 H   0  0  0  0  0  0  0  0  0  0  0  0
   -1.5342   -3.3252    1.4737 H   0  0  0  0  0  0  0  0  0  0  0  0
   -0.6033   -3.5813   -0.0987 H   0  0  0  0  0  0  0  0  0  0  0  0
    0.8907   -0.2840   -2.1335 C   0  0  0  0  0  0  0  0  0  0  0  0
    0.8907   -0.2840   -0.6024 C   0  0  0  0  0  0  0  0  0  0  0  0
    0.8907    1.1041   -0.0557 C   0  0  0  0  0  0  0  0  0  0  0  0
   -0.2289    1.7598    0.8918 S   0  0  0  0  0  1  0  0  0  0  0  0
    1.7459    0.2661   -2.5306 H   0  0  0  0  0  0  0  0  0  0  0  0
    0.9415   -1.3050   -2.5121 H   0  0  0  0  0  0  0  0  0  0  0  0
   -0.0188    0.1783   -2.5191 H   0  0  0  0  0  0  0  0  0  0  0  0
   -0.1370   -0.9434   -0.1337 H   0  0  0  0  0  0  0  0  0  0  0  0
    1.8010   -0.7807   -0.2470 H   0  0  0  0  0  0  0  0  0  0  0  0
    1.7461    1.7094   -0.3661 H   0  0  0  0  0  0  0  0  0  0  0  0
  1  2  2  3
  1  3  1  0
  1 13  1  0
  2  4  1  0
  2  5  1  0
  6  7  1  0
  6 10  1  0
  6 11  1  0
  6 12  1  0
  7  8  2  3
  7 14  1  0
  8  9  1  0
  8 15  1  0
M  RAD  1   9   2
M  END
>  <reaction>  (12) 
rxn_2013

>  <mol_properties>  (12) 
{"0": {"label": "*3", "atom_type": "Cd"}, "1": {"label": "*4", "atom_type": "Cd"}, "6": {"label": "*1", "atom_type": "Cs"}, "7": {"label": "*0", "atom_type": "CS"}, "12": {"label": "*2", "atom_type": "H0"}}

>  <type>  (12) 
unop_8

>  <geom_source>  (12) 
Heuristics

$$$$

     RDKit          3D

 15 13  0  0  0  0  0  0  0  0999 V2000
   -0.9867   -1.7713    0.4625 C   0  0  0  0  0  0  0  0  0  0  0  0
   -2.1292   -1.8358   -0.1989 C   0  0  0  0  0  0  0  0  0  0  0  0
   -0.9275   -2.0051    1.5189 H   0  0  0  0  0  0  0  0  0  0  0  0
   -3.0527   -2.1251    0.2887 H   0  0  0  0  0  0  0  0  0  0  0  0
   -2.1884   -1.6020   -1.2554 H   0  0  0  0  0  0  0  0  0  0  0  0
    1.0627   -0.4563   -2.0032 C   0  0  0  0  0  0  0  0  0  0  0  0
    1.0627   -0.4563   -0.4722 C   0  0  0  0  0  0  0  0  0  0  0  0
    1.0627    0.9318    0.0745 C   0  0  0  0  0  0  0  0  0  0  0  0
   -0.0568    1.5875    1.0221 S   0  0  0  0  0  1  0  0  0  0  0  0
    1.9179    0.0938   -2.4003 H   0  0  0  0  0  0  0  0  0  0  0  0
    1.1135   -1.4773   -2.3819 H   0  0  0  0  0  0  0  0  0  0  0  0
    0.1532    0.0060   -2.3889 H   0  0  0  0  0  0  0  0  0  0  0  0
    0.0351   -1.1157   -0.0035 H   0  0  0  0  0  0  0  0  0  0  0  0
    1.9731   -0.9530   -0.1167 H   0  0  0  0  0  0  0  0  0  0  0  0
    1.9182    1.5371   -0.2358 H   0  0  0  0  0  0  0  0  0  0  0  0
  1  2  2  3
  1  3  1  0
  1 13  1  0
  2  4  1  0
  2  5  1  0
  6  7  1  0
  6 10  1  0
  6 11  1  0
  6 12  1  0
  7  8  2  3
  7 14  1  0
  8  9  1  0
  8 15  1  0
M  RAD  1   9   2
M  END
>  <reaction>  (13) 
rxn_2013

>  <mol_properties>  (13) 
{"0": {"label": "*3", "atom_type": "Cd"}, "1": {"label": "*4", "atom_type": "Cd"}, "6": {"label": "*1", "atom_type": "Cs"}, "7": {"label": "*0", "atom_type": "CS"}, "12": {"label": "*2", "atom_type": "H0"}}

>  <type>  (13) 
unop_9

>  <geom_source>  (13) 
Heuristics

$$$$

     RDKit          3D

 15 13  0  0  0  0  0  0  0  0999 V2000
   -1.1236   -1.5991    0.4069 C   0  0  0  0  0  0  0  0  0  0  0  0
   -1.3118   -2.8777    0.1301 C   0  0  0  0  0  0  0  0  0  0  0  0
   -1.4320   -1.1711    1.3535 H   0  0  0  0  0  0  0  0  0  0  0  0
   -1.7820   -3.5494    0.8385 H   0  0  0  0  0  0  0  0  0  0  0  0
   -1.0034   -3.3057   -0.8165 H   0  0  0  0  0  0  0  0  0  0  0  0
    0.9258   -0.2841   -2.0588 C   0  0  0  0  0  0  0  0  0  0  0  0
    0.9258   -0.2841   -0.5277 C   0  0  0  0  0  0  0  0  0  0  0  0
    0.9258    1.1041    0.0190 C   0  0  0  0  0  0  0  0  0  0  0  0
   -0.1937    1.7598    0.9665 S   0  0  0  0  0  1  0  0  0  0  0  0
    1.7810    0.2660   -2.4559 H   0  0  0  0  0  0  0  0  0  0  0  0
    0.9767   -1.3050   -2.4374 H   0  0  0  0  0  0  0  0  0  0  0  0
    0.0163    0.1783   -2.4444 H   0  0  0  0  0  0  0  0  0  0  0  0
   -0.1018   -0.9435   -0.0590 H   0  0  0  0  0  0  0  0  0  0  0  0
    1.8362   -0.7808   -0.1723 H   0  0  0  0  0  0  0  0  0  0  0  0
    1.7813    1.7093   -0.2913 H   0  0  0  0  0  0  0  0  0  0  0  0
  1  2  2  3
  1  3  1  0
  1 13  1  0
  2  4  1  0
  2  5  1  0
  6  7  1  0
  6 10  1  0
  6 11  1  0
  6 12  1  0
  7  8  2  3
  7 14  1  0
  8  9  1  0
  8 15  1  0
M  RAD  1   9   2
M  END
>  <reaction>  (14) 
rxn_2013

>  <mol_properties>  (14) 
{"0": {"label": "*3", "atom_type": "Cd"}, "1": {"label": "*4", "atom_type": "Cd"}, "6": {"label": "*1", "atom_type": "Cs"}, "7": {"label": "*0", "atom_type": "CS"}, "12": {"label": "*2", "atom_type": "H0"}}

>  <type>  (14) 
unop_10

>  <geom_source>  (14) 
Heuristics

$$$$

     RDKit          3D

 15 13  0  0  0  0  0  0  0  0999 V2000
   -1.0737   -1.8189    0.2082 C   0  0  0  0  0  0  0  0  0  0  0  0
   -1.6284   -1.5063    1.3665 C   0  0  0  0  0  0  0  0  0  0  0  0
   -0.9748   -2.8484   -0.1152 H   0  0  0  0  0  0  0  0  0  0  0  0
   -2.0066   -2.2669    2.0393 H   0  0  0  0  0  0  0  0  0  0  0  0
   -1.7272   -0.4768    1.6899 H   0  0  0  0  0  0  0  0  0  0  0  0
    0.9757   -0.5040   -2.2575 C   0  0  0  0  0  0  0  0  0  0  0  0
    0.9757   -0.5040   -0.7264 C   0  0  0  0  0  0  0  0  0  0  0  0
    0.9757    0.8842   -0.1797 C   0  0  0  0  0  0  0  0  0  0  0  0
   -0.1438    1.5399    0.7678 S   0  0  0  0  0  1  0  0  0  0  0  0
    1.8309    0.0462   -2.6546 H   0  0  0  0  0  0  0  0  0  0  0  0
    1.0266   -1.5249   -2.6361 H   0  0  0  0  0  0  0  0  0  0  0  0
    0.0662   -0.0416   -2.6431 H   0  0  0  0  0  0  0  0  0  0  0  0
   -0.0519   -1.1633   -0.2578 H   0  0  0  0  0  0  0  0  0  0  0  0
    1.8861   -1.0007   -0.3710 H   0  0  0  0  0  0  0  0  0  0  0  0
    1.8312    1.4895   -0.4901 H   0  0  0  0  0  0  0  0  0  0  0  0
  1  2  2  3
  1  3  1  0
  1 13  1  0
  2  4  1  0
  2  5  1  0
  6  7  1  0
  6 10  1  0
  6 11  1  0
  6 12  1  0
  7  8  2  3
  7 14  1  0
  8  9  1  0
  8 15  1  0
M  RAD  1   9   2
M  END
>  <reaction>  (15) 
rxn_2013

>  <mol_properties>  (15) 
{"0": {"label": "*3", "atom_type": "Cd"}, "1": {"label": "*4", "atom_type": "Cd"}, "6": {"label": "*1", "atom_type": "Cs"}, "7": {"label": "*0", "atom_type": "CS"}, "12": {"label": "*2", "atom_type": "H0"}}

>  <type>  (15) 
unop_11

>  <geom_source>  (15) 
Heuristics

$$$$

     RDKit          3D

 15 13  0  0  0  0  0  0  0  0999 V2000
   -1.0233   -1.6990    0.4830 C   0  0  0  0  0  0  0  0  0  0  0  0
   -1.9074   -2.2663   -0.3192 C   0  0  0  0  0  0  0  0  0  0  0  0
   -1.1143   -1.7574    1.5612 H   0  0  0  0  0  0  0  0  0  0  0  0
   -2.7589   -2.8126    0.0691 H   0  0  0  0  0  0  0  0  0  0  0  0
   -1.8164   -2.2079   -1.3974 H   0  0  0  0  0  0  0  0  0  0  0  0
    1.0262   -0.3840   -1.9827 C   0  0  0  0  0  0  0  0  0  0  0  0
    1.0262   -0.3840   -0.4516 C   0  0  0  0  0  0  0  0  0  0  0  0
    1.0262    1.0041    0.0950 C   0  0  0  0  0  0  0  0  0  0  0  0
   -0.0934    1.6598    1.0426 S   0  0  0  0  0  1  0  0  0  0  0  0
    1.8814    0.1661   -2.3798 H   0  0  0  0  0  0  0  0  0  0  0  0
    1.0770   -1.4050   -2.3614 H   0  0  0  0  0  0  0  0  0  0  0  0
    0.1167    0.0783   -2.3684 H   0  0  0  0  0  0  0  0  0  0  0  0
   -0.0015   -1.0434    0.0170 H   0  0  0  0  0  0  0  0  0  0  0  0
    1.9365   -0.8808   -0.0962 H   0  0  0  0  0  0  0  0  0  0  0  0
    1.8816    1.6094   -0.2153 H   0  0  0  0  0  0  0  0  0  0  0  0
  1  2  2  3
  1  3  1  0
  1 13  1  0
  2  4  1  0
  2  5  1  0
  6  7  1  0
  6 10  1  0
  6 11  1  0
  6 12  1  0
  7  8  2  3
  7 14  1  0
  8  9  1  0
  8 15  1  0
M  RAD  1   9   2
M  END
>  <reaction>  (16) 
rxn_2013

>  <mol_properties>  (16) 
{"0": {"label": "*3", "atom_type": "Cd"}, "1": {"label": "*4", "atom_type": "Cd"}, "6": {"label": "*1", "atom_type": "Cs"}, "7": {"label": "*0", "atom_type": "CS"}, "12": {"label": "*2", "atom_type": "H0"}}

>  <type>  (16) 
unop_12

>  <geom_source>  (16) 
Heuristics

$$$$

     RDKit          3D

 15 13  0  0  0  0  0  0  0  0999 V2000
   -1.6064    2.1949   -0.9337 S   0  0  0  0  0  1  0  0  0  0  0  0
   -2.0510   -0.7236    0.4342 C   0  0  0  0  0  0  0  0  0  0  0  0
   -0.7955    0.1383    0.3606 C   0  0  0  0  0  0  0  0  0  0  0  0
   -0.7819    1.0201   -0.8548 C   0  0  0  0  0  0  0  0  0  0  0  0
    2.7303    0.1428    0.0786 C   0  0  0  0  0  0  0  0  0  0  0  0
    1.6465   -0.6057   -0.1103 C   0  0  0  0  0  0  0  0  0  0  0  0
   -1.9742   -1.4082    1.3042 H   0  0  0  0  0  0  0  0  0  0  0  0
   -2.1509   -1.3321   -0.4894 H   0  0  0  0  0  0  0  0  0  0  0  0
   -2.9526   -0.0869    0.5584 H   0  0  0  0  0  0  0  0  0  0  0  0
   -0.6642    0.7310    1.2924 H   0  0  0  0  0  0  0  0  0  0  0  0
    3.6526   -0.0881   -0.4444 H   0  0  0  0  0  0  0  0  0  0  0  0
    2.6965    0.9885    0.7573 H   0  0  0  0  0  0  0  0  0  0  0  0
    1.6776   -1.4522   -0.7886 H   0  0  0  0  0  0  0  0  0  0  0  0
    0.6263   -0.3479    0.4701 H   0  0  0  0  0  0  0  0  0  0  0  0
   -0.0531    0.8292   -1.6346 H   0  0  0  0  0  0  0  0  0  0  0  0
  1  4  1  0
  2  3  1  0
  2  7  1  0
  2  8  1  0
  2  9  1  0
  3  4  2  3
  3 10  1  0
  4 15  1  0
  5  6  2  3
  5 11  1  0
  5 12  1  0
  6 13  1  0
  6 14  1  0
M  RAD  1   1   2
M  END
>  <reaction>  (17) 
rxn_2013

>  <mol_properties>  (17) 
{"0": {"label": "*3", "atom_type": "Cd"}, "1": {"label": "*4", "atom_type": "Cd"}, "6": {"label": "*1", "atom_type": "Cs"}, "7": {"label": "*0", "atom_type": "CS"}, "12": {"label": "*2", "atom_type": "H0"}}

>  <type>  (17) 
unop_13

>  <geom_source>  (17) 
AutoTST

$$$$
