
     RDKit          3D

 19 20  0  0  0  0  0  0  0  0999 V2000
    1.1087   -0.4716   -0.9619 C   0  0  0  0  0  0  0  0  0  0  0  0
    0.9355    1.0407   -0.6470 C   0  0  0  0  0  0  0  0  0  0  0  0
   -0.0085    1.0377    0.5657 C   0  0  0  0  0  0  0  0  0  0  0  0
   -1.4093    0.6181    0.0927 C   0  0  0  0  0  0  0  0  0  0  0  0
   -1.2361   -0.8942   -0.2222 C   0  0  0  0  0  0  0  0  0  0  0  0
    0.2422   -1.1516    0.1099 C   0  0  0  0  0  0  0  0  0  0  0  0
    0.4537   -0.2211    1.3118 C   0  0  0  0  0  0  0  0  0  0  0  0
    2.1524   -0.7752   -0.8653 H   0  0  0  0  0  0  0  0  0  0  0  0
    0.7855   -0.7316   -1.9710 H   0  0  0  0  0  0  0  0  0  0  0  0
    1.8918    1.5001   -0.3916 H   0  0  0  0  0  0  0  0  0  0  0  0
    0.5184    1.6005   -1.4855 H   0  0  0  0  0  0  0  0  0  0  0  0
    0.0038    1.9661    1.1351 H   0  0  0  0  0  0  0  0  0  0  0  0
   -1.7351    1.1944   -0.7746 H   0  0  0  0  0  0  0  0  0  0  0  0
   -2.1465    0.7723    0.8824 H   0  0  0  0  0  0  0  0  0  0  0  0
   -1.4680   -1.1377   -1.2601 H   0  0  0  0  0  0  0  0  0  0  0  0
   -1.8859   -1.5030    0.4087 H   0  0  0  0  0  0  0  0  0  0  0  0
    0.4812   -2.2025    0.2673 H   0  0  0  0  0  0  0  0  0  0  0  0
    1.4942   -0.1701    1.6391 H   0  0  0  0  0  0  0  0  0  0  0  0
   -0.1779   -0.4714    2.1666 H   0  0  0  0  0  0  0  0  0  0  0  0
  1  2  1  0
  1  6  1  0
  1  8  1  0
  1  9  1  0
  2  3  1  0
  2 10  1  0
  2 11  1  0
  3  4  1  0
  3  7  1  0
  3 12  1  0
  4  5  1  0
  4 13  1  0
  4 14  1  0
  5  6  1  0
  5 15  1  0
  5 16  1  0
  6  7  1  0
  6 17  1  0
  7 18  1  0
  7 19  1  0
M  END
>  <reaction>  (1) 
rxn_733

>  <mol_properties>  (1) 
{"6": {"label": "donator", "atom_type": "Cs"}, "17": {"label": "d_hydrogen", "atom_type": "H0"}}

>  <type>  (1) 
r1h

$$$$

     RDKit          3D

  1  0  0  0  0  0  0  0  0  0999 V2000
    0.0000    0.0000    0.0000 H   0  0  0  0  0 15  0  0  0  0  0  0
M  END
>  <reaction>  (2) 
rxn_733

>  <mol_properties>  (2) 
{"0": {"label": "acceptor", "atom_type": "H0"}}

>  <type>  (2) 
r2

$$$$

     RDKit          3D

  2  1  0  0  0  0  0  0  0  0999 V2000
    0.0000    0.0000    0.3721 H   0  0  0  0  0  0  0  0  0  0  0  0
    0.0000    0.0000   -0.3721 H   0  0  0  0  0  0  0  0  0  0  0  0
  1  2  1  0
M  END
>  <reaction>  (3) 
rxn_733

>  <mol_properties>  (3) 
{"0": {"label": "acceptor", "atom_type": "H0"}, "1": {"label": "a_hydrogen", "atom_type": "H0"}}

>  <type>  (3) 
r2h

$$$$

     RDKit          3D

 20 20  0  0  0  0  0  0  0  0999 V2000
   -3.1313   -0.1752   -0.0000 H   0  0  0  0  0 15  0  0  0  0  0  0
   -0.2609   -1.2937   -0.7771 C   0  0  0  0  0  0  0  0  0  0  0  0
   -0.2609   -1.2937    0.7771 C   0  0  0  0  0  0  0  0  0  0  0  0
   -0.2361    0.2031    1.1295 C   0  0  0  0  0  0  0  0  0  0  0  0
    1.1589    0.7615    0.7783 C   0  0  0  0  0  0  0  0  0  0  0  0
    1.1589    0.7615   -0.7783 C   0  0  0  0  0  0  0  0  0  0  0  0
   -0.2361    0.2031   -1.1295 C   0  0  0  0  0  0  0  0  0  0  0  0
   -1.0590    0.7953   -0.0000 C   0  0  0  0  0  0  0  0  0  0  0  0
   -1.1644   -1.7643   -1.1662 H   0  0  0  0  0  0  0  0  0  0  0  0
    0.5952   -1.8215   -1.1992 H   0  0  0  0  0  0  0  0  0  0  0  0
   -1.1644   -1.7643    1.1662 H   0  0  0  0  0  0  0  0  0  0  0  0
    0.5952   -1.8215    1.1992 H   0  0  0  0  0  0  0  0  0  0  0  0
   -0.5620    0.4302    2.1426 H   0  0  0  0  0  0  0  0  0  0  0  0
    1.9553    0.1464    1.2007 H   0  0  0  0  0  0  0  0  0  0  0  0
    1.2814    1.7721    1.1703 H   0  0  0  0  0  0  0  0  0  0  0  0
    1.9553    0.1464   -1.2007 H   0  0  0  0  0  0  0  0  0  0  0  0
    1.2814    1.7721   -1.1703 H   0  0  0  0  0  0  0  0  0  0  0  0
   -0.5620    0.4302   -2.1426 H   0  0  0  0  0  0  0  0  0  0  0  0
   -2.3118    0.2395   -0.0000 H   0  0  0  0  0  0  0  0  0  0  0  0
   -1.2492    1.8673   -0.0000 H   0  0  0  0  0  0  0  0  0  0  0  0
  2  3  1  0
  2  7  1  0
  2  9  1  0
  2 10  1  0
  3  4  1  0
  3 11  1  0
  3 12  1  0
  4  5  1  0
  4  8  1  0
  4 13  1  0
  5  6  1  0
  5 14  1  0
  5 15  1  0
  6  7  1  0
  6 16  1  0
  6 17  1  0
  7  8  1  0
  7 18  1  0
  8 19  1  0
  8 20  1  0
M  END
>  <reaction>  (4) 
rxn_733

>  <mol_properties>  (4) 
{"0": {"label": "*1", "atom_type": "H0"}, "3": {"label": "*4", "atom_type": "Cs"}, "7": {"label": "*3", "atom_type": "Cs"}, "18": {"label": "*2", "atom_type": "H0"}}

>  <type>  (4) 
ts

$$$$

     RDKit          3D

 20 20  0  0  0  0  0  0  0  0999 V2000
   -3.1675   -0.0278   -0.0000 H   0  0  0  0  0 15  0  0  0  0  0  0
   -0.2408   -1.3126   -0.7772 C   0  0  0  0  0  0  0  0  0  0  0  0
   -0.2408   -1.3126    0.7772 C   0  0  0  0  0  0  0  0  0  0  0  0
   -0.2408    0.1843    1.1251 C   0  0  0  0  0  0  0  0  0  0  0  0
    1.1384    0.7662    0.7772 C   0  0  0  0  0  0  0  0  0  0  0  0
    1.1384    0.7662   -0.7772 C   0  0  0  0  0  0  0  0  0  0  0  0
   -0.2408    0.1843   -1.1251 C   0  0  0  0  0  0  0  0  0  0  0  0
   -1.1104    0.7613    0.0000 C   0  0  0  0  0  0  0  0  0  0  0  0
   -1.1345   -1.8008   -1.1693 H   0  0  0  0  0  0  0  0  0  0  0  0
    0.6237   -1.8279   -1.1985 H   0  0  0  0  0  0  0  0  0  0  0  0
   -1.1345   -1.8008    1.1693 H   0  0  0  0  0  0  0  0  0  0  0  0
    0.6237   -1.8279    1.1985 H   0  0  0  0  0  0  0  0  0  0  0  0
   -0.5652    0.3996    2.1423 H   0  0  0  0  0  0  0  0  0  0  0  0
    1.9492    0.1700    1.1985 H   0  0  0  0  0  0  0  0  0  0  0  0
    1.2409    1.7794    1.1693 H   0  0  0  0  0  0  0  0  0  0  0  0
    1.9492    0.1700   -1.1985 H   0  0  0  0  0  0  0  0  0  0  0  0
    1.2409    1.7794   -1.1693 H   0  0  0  0  0  0  0  0  0  0  0  0
   -0.5652    0.3996   -2.1423 H   0  0  0  0  0  0  0  0  0  0  0  0
   -2.3338    0.2920    0.0000 H   0  0  0  0  0  0  0  0  0  0  0  0
   -1.1463    1.8526    0.0000 H   0  0  0  0  0  0  0  0  0  0  0  0
  2  3  1  0
  2  7  1  0
  2  9  1  0
  2 10  1  0
  3  4  1  0
  3 11  1  0
  3 12  1  0
  4  5  1  0
  4  8  1  0
  4 13  1  0
  5  6  1  0
  5 14  1  0
  5 15  1  0
  6  7  1  0
  6 16  1  0
  6 17  1  0
  7  8  1  0
  7 18  1  0
  8 19  1  0
  8 20  1  0
M  END
>  <reaction>  (5) 
rxn_733

>  <mol_properties>  (5) 
{"0": {"label": "*1", "atom_type": "H0"}, "3": {"label": "*4", "atom_type": "Cs"}, "7": {"label": "*3", "atom_type": "Cs"}, "18": {"label": "*2", "atom_type": "H0"}}

>  <type>  (5) 
unop_1

>  <geom_source>  (5) 
Heuristics

$$$$

     RDKit          3D

 20 20  0  0  0  0  0  0  0  0999 V2000
    0.0914   -0.1368    1.1630 C   0  0  0  0  0  0  0  0  0  0  0  0
    0.2194   -0.0706   -1.0477 C   0  0  0  0  0  0  0  0  0  0  0  0
    0.2949    1.3615    0.8792 C   0  0  0  0  0  0  0  0  0  0  0  0
   -1.3256   -0.5410    0.7293 C   0  0  0  0  0  0  0  0  0  0  0  0
   -1.2367   -0.4951   -0.8052 C   0  0  0  0  0  0  0  0  0  0  0  0
    0.3837    1.4073   -0.6534 C   0  0  0  0  0  0  0  0  0  0  0  0
    0.9162   -0.7856    0.0813 C   0  0  0  0  0  0  0  0  0  0  0  0
    0.3565   -0.4463    2.1963 H   0  0  0  0  0  0  0  0  0  0  0  0
    0.6030   -0.3189   -2.0601 H   0  0  0  0  0  0  0  0  0  0  0  0
   -0.5473    1.9777    1.2630 H   0  0  0  0  0  0  0  0  0  0  0  0
    1.2460    1.7139    1.3359 H   0  0  0  0  0  0  0  0  0  0  0  0
   -1.5553   -1.5728    1.0763 H   0  0  0  0  0  0  0  0  0  0  0  0
   -2.0975    0.1579    1.1196 H   0  0  0  0  0  0  0  0  0  0  0  0
   -1.4213   -1.5035   -1.2372 H   0  0  0  0  0  0  0  0  0  0  0  0
   -1.9609    0.2285   -1.2395 H   0  0  0  0  0  0  0  0  0  0  0  0
   -0.4108    2.0483   -1.0944 H   0  0  0  0  0  0  0  0  0  0  0  0
    1.3798    1.7831   -0.9756 H   0  0  0  0  0  0  0  0  0  0  0  0
    1.9984   -0.5279    0.1517 H   0  0  0  0  0  0  0  0  0  0  0  0
    1.9375   -2.5818   -0.6784 H   0  0  0  0  0 15  0  0  0  0  0  0
    1.1285   -1.6981   -0.2041 H   0  0  0  0  0  0  0  0  0  0  0  0
  1  3  1  0
  1  4  1  0
  1  7  1  0
  1  8  1  0
  2  6  1  0
  2  5  1  0
  2  7  1  0
  2  9  1  0
  3  6  1  0
  3 10  1  0
  3 11  1  0
  4  5  1  0
  4 12  1  0
  4 13  1  0
  5 14  1  0
  5 15  1  0
  6 16  1  0
  6 17  1  0
  7 18  1  0
  7 20  1  0
M  END
>  <reaction>  (6) 
rxn_733

>  <mol_properties>  (6) 
{"0": {"label": "*1", "atom_type": "H0"}, "3": {"label": "*4", "atom_type": "Cs"}, "7": {"label": "*3", "atom_type": "Cs"}, "18": {"label": "*2", "atom_type": "H0"}}

>  <type>  (6) 
unop_2

>  <geom_source>  (6) 
AutoTST

$$$$
