
     RDKit          3D

  8  7  0  0  0  0  0  0  0  0999 V2000
    0.7610    0.0250    0.0051 C   0  0  0  0  0  0  0  0  0  0  0  0
   -0.7610   -0.0250   -0.0051 C   0  0  0  0  0  0  0  0  0  0  0  0
    1.1904   -0.9237   -0.3217 H   0  0  0  0  0  0  0  0  0  0  0  0
    1.1359    0.8041   -0.6609 H   0  0  0  0  0  0  0  0  0  0  0  0
    1.1435    0.2336    1.0058 H   0  0  0  0  0  0  0  0  0  0  0  0
   -1.1435   -0.2336   -1.0058 H   0  0  0  0  0  0  0  0  0  0  0  0
   -1.1904    0.9237    0.3216 H   0  0  0  0  0  0  0  0  0  0  0  0
   -1.1359   -0.8041    0.6609 H   0  0  0  0  0  0  0  0  0  0  0  0
  1  2  1  0
  1  3  1  0
  1  4  1  0
  1  5  1  0
  2  6  1  0
  2  7  1  0
  2  8  1  0
M  END
>  <reaction>  (1) 
rxn_891

>  <mol_properties>  (1) 
{"1": {"label": "donator", "atom_type": "Cs"}, "5": {"label": "d_hydrogen", "atom_type": "H0"}}

>  <type>  (1) 
r1h

$$$$

     RDKit          3D

  6  5  0  0  0  0  0  0  0  0999 V2000
   -0.7309   -0.0987    0.0327 C   0  0  0  0  0  0  0  0  0  0  0  0
    0.6208    0.0065   -0.0096 C   0  0  0  0  0  0  0  0  0  0  0  0
    1.6572   -1.2972    0.2837 S   0  0  0  0  0  1  0  0  0  0  0  0
   -1.3651    0.7588   -0.1608 H   0  0  0  0  0  0  0  0  0  0  0  0
   -1.2044   -1.0453    0.2616 H   0  0  0  0  0  0  0  0  0  0  0  0
    1.0609    0.9725   -0.2426 H   0  0  0  0  0  0  0  0  0  0  0  0
  1  2  2  3
  1  4  1  0
  1  5  1  0
  2  3  1  0
  2  6  1  0
M  RAD  1   3   2
M  END
>  <reaction>  (2) 
rxn_891

>  <mol_properties>  (2) 
{"0": {"label": "acceptor", "atom_type": "Cs"}}

>  <type>  (2) 
r2

$$$$

     RDKit          3D

  7  6  0  0  0  0  0  0  0  0999 V2000
   -0.6782    0.0507    0.0301 C   0  0  0  0  0  0  0  0  0  0  0  0
    0.8092    0.0996    0.0213 C   0  0  0  0  0  0  0  0  0  0  0  0
    1.7473    0.7521    1.1507 S   0  0  0  0  0  0  0  0  0  0  0  0
   -1.0667    0.5456   -0.8653 H   0  0  0  0  0  0  0  0  0  0  0  0
   -1.0112   -0.9904   -0.0239 H   0  0  0  0  0  0  0  0  0  0  0  0
   -1.0920    0.5225    0.9188 H   0  0  0  0  0  0  0  0  0  0  0  0
    1.2740   -0.3620   -0.8520 H   0  0  0  0  0  0  0  0  0  0  0  0
  1  2  1  0
  1  4  1  0
  1  5  1  0
  1  6  1  0
  2  3  2  0
  2  7  1  0
M  END
>  <reaction>  (3) 
rxn_891

>  <mol_properties>  (3) 
{"0": {"label": "acceptor", "atom_type": "Cs"}, "6": {"label": "a_hydrogen", "atom_type": "H0"}}

>  <type>  (3) 
r2h

$$$$

     RDKit          3D

 14 12  0  0  0  0  0  0  0  0999 V2000
   -0.5608   -0.0710    1.2237 C   0  0  0  0  0  0  0  0  0  0  0  0
   -0.2793    0.7857    0.0927 C   0  0  0  0  0  0  0  0  0  0  0  0
    1.1858    1.3611   -0.3194 S   0  0  0  0  0  0  0  0  0  0  0  0
   -1.5881   -0.0387    1.5832 H   0  0  0  0  0  0  0  0  0  0  0  0
    0.1795   -0.0309    2.0190 H   0  0  0  0  0  0  0  0  0  0  0  0
   -1.1297    1.0054   -0.5541 H   0  0  0  0  0  0  0  0  0  0  0  0
   -0.4899   -2.4065   -1.1902 C   0  0  0  0  0  0  0  0  0  0  0  0
   -0.2363   -2.5990    0.2690 C   0  0  0  0  0  3  0  0  0  0  0  0
   -1.5292   -2.1366   -1.3850 H   0  0  0  0  0  0  0  0  0  0  0  0
    0.1514   -1.6247   -1.6026 H   0  0  0  0  0  0  0  0  0  0  0  0
   -0.2799   -3.3255   -1.7482 H   0  0  0  0  0  0  0  0  0  0  0  0
   -0.4458   -1.2416    0.8081 H   0  0  0  0  0  0  0  0  0  0  0  0
    0.7929   -2.7643    0.5732 H   0  0  0  0  0  0  0  0  0  0  0  0
   -0.9630   -3.1754    0.8338 H   0  0  0  0  0  0  0  0  0  0  0  0
  1  2  1  0
  1  4  1  0
  1  5  1  0
  1 12  1  0
  2  3  2  0
  2  6  1  0
  7  8  1  0
  7  9  1  0
  7 10  1  0
  7 11  1  0
  8 13  1  0
  8 14  1  0
M  RAD  1   8   2
M  END
>  <reaction>  (4) 
rxn_891

>  <mol_properties>  (4) 
{"0": {"label": "*1", "atom_type": "Cs"}, "1": {"label": "*0", "atom_type": "CS"}, "6": {"label": "*4", "atom_type": "Cs"}, "7": {"label": "*3", "atom_type": "Cs"}, "11": {"label": "*2", "atom_type": "H0"}}

>  <type>  (4) 
ts

$$$$

     RDKit          3D

 14 12  0  0  0  0  0  0  0  0999 V2000
    0.8335    0.2142   -0.0009 C   0  0  0  0  0  0  0  0  0  0  0  0
   -0.3807    0.4247    0.8333 C   0  0  0  0  0  0  0  0  0  0  0  0
   -1.0158    1.8403    1.2507 S   0  0  0  0  0  1  0  0  0  0  0  0
    1.5704   -0.3654    0.5637 H   0  0  0  0  0  0  0  0  0  0  0  0
    1.2735    1.1574   -0.3180 H   0  0  0  0  0  0  0  0  0  0  0  0
   -0.8605   -0.4935    1.1774 H   0  0  0  0  0  0  0  0  0  0  0  0
    0.8335   -2.2302   -2.4750 C   0  0  0  0  0  0  0  0  0  0  0  0
    0.8335   -2.2302   -0.9522 C   0  0  0  0  0  0  0  0  0  0  0  0
   -0.0473   -1.7216   -2.8709 H   0  0  0  0  0  0  0  0  0  0  0  0
    1.7144   -1.7216   -2.8709 H   0  0  0  0  0  0  0  0  0  0  0  0
    0.8335   -3.2473   -2.8709 H   0  0  0  0  0  0  0  0  0  0  0  0
    0.8335   -1.0096   -0.4772 H   0  0  0  0  0  0  0  0  0  0  0  0
    1.7144   -2.7387   -0.5564 H   0  0  0  0  0  0  0  0  0  0  0  0
   -0.0473   -2.7387   -0.5564 H   0  0  0  0  0  0  0  0  0  0  0  0
  1  2  2  3
  1  4  1  0
  1  5  1  0
  2  3  1  0
  2  6  1  0
  7  8  1  0
  7  9  1  0
  7 10  1  0
  7 11  1  0
  8 12  1  0
  8 13  1  0
  8 14  1  0
M  RAD  1   3   2
M  END
>  <reaction>  (5) 
rxn_891

>  <mol_properties>  (5) 
{"0": {"label": "*1", "atom_type": "Cs"}, "1": {"label": "*0", "atom_type": "CS"}, "6": {"label": "*4", "atom_type": "Cs"}, "7": {"label": "*3", "atom_type": "Cs"}, "11": {"label": "*2", "atom_type": "H0"}}

>  <type>  (5) 
unop_1

>  <geom_source>  (5) 
Heuristics

$$$$

     RDKit          3D

 14 12  0  0  0  0  0  0  0  0999 V2000
    0.2046   -0.1689    1.1887 C   0  0  0  0  0  0  0  0  0  0  0  0
   -0.4964    0.7363    0.2380 C   0  0  0  0  0  0  0  0  0  0  0  0
   -0.0580    2.2319   -0.1522 S   0  0  0  0  0  1  0  0  0  0  0  0
   -0.4816   -0.4629    1.9889 H   0  0  0  0  0  0  0  0  0  0  0  0
    1.0874    0.3014    1.6168 H   0  0  0  0  0  0  0  0  0  0  0  0
   -1.3910    0.3098   -0.2198 H   0  0  0  0  0  0  0  0  0  0  0  0
    0.2046   -2.6133   -1.2854 C   0  0  0  0  0  0  0  0  0  0  0  0
    0.2046   -2.6133    0.2373 C   0  0  0  0  0  0  0  0  0  0  0  0
   -0.6762   -2.1047   -1.6813 H   0  0  0  0  0  0  0  0  0  0  0  0
    1.0855   -2.1047   -1.6813 H   0  0  0  0  0  0  0  0  0  0  0  0
    0.2046   -3.6304   -1.6813 H   0  0  0  0  0  0  0  0  0  0  0  0
    0.2046   -1.3927    0.7124 H   0  0  0  0  0  0  0  0  0  0  0  0
    1.0855   -3.1218    0.6332 H   0  0  0  0  0  0  0  0  0  0  0  0
   -0.6762   -3.1218    0.6332 H   0  0  0  0  0  0  0  0  0  0  0  0
  1  2  2  3
  1  4  1  0
  1  5  1  0
  2  3  1  0
  2  6  1  0
  7  8  1  0
  7  9  1  0
  7 10  1  0
  7 11  1  0
  8 12  1  0
  8 13  1  0
  8 14  1  0
M  RAD  1   3   2
M  END
>  <reaction>  (6) 
rxn_891

>  <mol_properties>  (6) 
{"0": {"label": "*1", "atom_type": "Cs"}, "1": {"label": "*0", "atom_type": "CS"}, "6": {"label": "*4", "atom_type": "Cs"}, "7": {"label": "*3", "atom_type": "Cs"}, "11": {"label": "*2", "atom_type": "H0"}}

>  <type>  (6) 
unop_2

>  <geom_source>  (6) 
Heuristics

$$$$

     RDKit          3D

 14 12  0  0  0  0  0  0  0  0999 V2000
    0.6397    0.3701   -0.3090 C   0  0  0  0  0  0  0  0  0  0  0  0
   -0.0614    0.3945    1.0035 C   0  0  0  0  0  0  0  0  0  0  0  0
   -0.8892    1.6266    1.6184 S   0  0  0  0  0  1  0  0  0  0  0  0
    1.7007    0.1512   -0.1540 H   0  0  0  0  0  0  0  0  0  0  0  0
    0.5336    1.3135   -0.8404 H   0  0  0  0  0  0  0  0  0  0  0  0
    0.0154   -0.5312    1.5770 H   0  0  0  0  0  0  0  0  0  0  0  0
    0.6397   -2.0743   -2.7831 C   0  0  0  0  0  0  0  0  0  0  0  0
    0.6397   -2.0743   -1.2603 C   0  0  0  0  0  0  0  0  0  0  0  0
   -0.2412   -1.5657   -3.1789 H   0  0  0  0  0  0  0  0  0  0  0  0
    1.5205   -1.5657   -3.1789 H   0  0  0  0  0  0  0  0  0  0  0  0
    0.6397   -3.0914   -3.1789 H   0  0  0  0  0  0  0  0  0  0  0  0
    0.6397   -0.8537   -0.7853 H   0  0  0  0  0  0  0  0  0  0  0  0
    1.5205   -2.5828   -0.8644 H   0  0  0  0  0  0  0  0  0  0  0  0
   -0.2412   -2.5828   -0.8644 H   0  0  0  0  0  0  0  0  0  0  0  0
  1  2  2  3
  1  4  1  0
  1  5  1  0
  2  3  1  0
  2  6  1  0
  7  8  1  0
  7  9  1  0
  7 10  1  0
  7 11  1  0
  8 12  1  0
  8 13  1  0
  8 14  1  0
M  RAD  1   3   2
M  END
>  <reaction>  (7) 
rxn_891

>  <mol_properties>  (7) 
{"0": {"label": "*1", "atom_type": "Cs"}, "1": {"label": "*0", "atom_type": "CS"}, "6": {"label": "*4", "atom_type": "Cs"}, "7": {"label": "*3", "atom_type": "Cs"}, "11": {"label": "*2", "atom_type": "H0"}}

>  <type>  (7) 
unop_3

>  <geom_source>  (7) 
Heuristics

$$$$

     RDKit          3D

 14 12  0  0  0  0  0  0  0  0999 V2000
   -1.1156    0.4307    0.5474 C   0  0  0  0  0  0  0  0  0  0  0  0
    0.0987    1.1497    0.0750 C   0  0  0  0  0  0  0  0  0  0  0  0
    1.5217    1.2066    0.8187 S   0  0  0  0  0  1  0  0  0  0  0  0
   -1.9417    1.1397    0.6585 H   0  0  0  0  0  0  0  0  0  0  0  0
   -0.9403   -0.0792    1.4924 H   0  0  0  0  0  0  0  0  0  0  0  0
   -0.0259    1.6787   -0.8718 H   0  0  0  0  0  0  0  0  0  0  0  0
   -1.1156   -2.0137   -1.9267 C   0  0  0  0  0  0  0  0  0  0  0  0
   -1.1156   -2.0137   -0.4039 C   0  0  0  0  0  0  0  0  0  0  0  0
   -1.9964   -1.5052   -2.3226 H   0  0  0  0  0  0  0  0  0  0  0  0
   -0.2347   -1.5052   -2.3226 H   0  0  0  0  0  0  0  0  0  0  0  0
   -1.1156   -3.0308   -2.3226 H   0  0  0  0  0  0  0  0  0  0  0  0
   -1.1156   -0.7932    0.0711 H   0  0  0  0  0  0  0  0  0  0  0  0
   -0.2347   -2.5223   -0.0081 H   0  0  0  0  0  0  0  0  0  0  0  0
   -1.9964   -2.5223   -0.0081 H   0  0  0  0  0  0  0  0  0  0  0  0
  1  2  2  3
  1  4  1  0
  1  5  1  0
  2  3  1  0
  2  6  1  0
  7  8  1  0
  7  9  1  0
  7 10  1  0
  7 11  1  0
  8 12  1  0
  8 13  1  0
  8 14  1  0
M  RAD  1   3   2
M  END
>  <reaction>  (8) 
rxn_891

>  <mol_properties>  (8) 
{"0": {"label": "*1", "atom_type": "Cs"}, "1": {"label": "*0", "atom_type": "CS"}, "6": {"label": "*4", "atom_type": "Cs"}, "7": {"label": "*3", "atom_type": "Cs"}, "11": {"label": "*2", "atom_type": "H0"}}

>  <type>  (8) 
unop_4

>  <geom_source>  (8) 
Heuristics

$$$$

     RDKit          3D

 14 12  0  0  0  0  0  0  0  0999 V2000
    0.3845    0.6045   -0.5200 C   0  0  0  0  0  0  0  0  0  0  0  0
    0.3845    0.5607    0.9675 C   0  0  0  0  0  0  0  0  0  0  0  0
   -0.7150    1.2146    1.9396 S   0  0  0  0  0  1  0  0  0  0  0  0
    1.3084    1.0729   -0.8732 H   0  0  0  0  0  0  0  0  0  0  0  0
   -0.4741    1.1488   -0.9075 H   0  0  0  0  0  0  0  0  0  0  0  0
    1.2279    0.0243    1.4064 H   0  0  0  0  0  0  0  0  0  0  0  0
    0.3845   -1.8399   -2.9941 C   0  0  0  0  0  0  0  0  0  0  0  0
    0.3845   -1.8399   -1.4713 C   0  0  0  0  0  0  0  0  0  0  0  0
   -0.4963   -1.3314   -3.3900 H   0  0  0  0  0  0  0  0  0  0  0  0
    1.2653   -1.3314   -3.3900 H   0  0  0  0  0  0  0  0  0  0  0  0
    0.3845   -2.8570   -3.3900 H   0  0  0  0  0  0  0  0  0  0  0  0
    0.3845   -0.6194   -0.9963 H   0  0  0  0  0  0  0  0  0  0  0  0
    1.2653   -2.3485   -1.0755 H   0  0  0  0  0  0  0  0  0  0  0  0
   -0.4963   -2.3485   -1.0755 H   0  0  0  0  0  0  0  0  0  0  0  0
  1  2  2  3
  1  4  1  0
  1  5  1  0
  2  3  1  0
  2  6  1  0
  7  8  1  0
  7  9  1  0
  7 10  1  0
  7 11  1  0
  8 12  1  0
  8 13  1  0
  8 14  1  0
M  RAD  1   3   2
M  END
>  <reaction>  (9) 
rxn_891

>  <mol_properties>  (9) 
{"0": {"label": "*1", "atom_type": "Cs"}, "1": {"label": "*0", "atom_type": "CS"}, "6": {"label": "*4", "atom_type": "Cs"}, "7": {"label": "*3", "atom_type": "Cs"}, "11": {"label": "*2", "atom_type": "H0"}}

>  <type>  (9) 
unop_5

>  <geom_source>  (9) 
Heuristics

$$$$

     RDKit          3D

 14 12  0  0  0  0  0  0  0  0999 V2000
   -1.0429    0.6889    0.0354 C   0  0  0  0  0  0  0  0  0  0  0  0
    0.3592    1.1537    0.2162 C   0  0  0  0  0  0  0  0  0  0  0  0
    1.3104    0.8445    1.4736 S   0  0  0  0  0  1  0  0  0  0  0  0
   -1.7024    1.5531   -0.0905 H   0  0  0  0  0  0  0  0  0  0  0  0
   -1.3808    0.0892    0.8779 H   0  0  0  0  0  0  0  0  0  0  0  0
    0.7461    1.7610   -0.6043 H   0  0  0  0  0  0  0  0  0  0  0  0
   -1.0429   -1.7555   -2.4387 C   0  0  0  0  0  0  0  0  0  0  0  0
   -1.0429   -1.7555   -0.9160 C   0  0  0  0  0  0  0  0  0  0  0  0
   -1.9237   -1.2469   -2.8346 H   0  0  0  0  0  0  0  0  0  0  0  0
   -0.1620   -1.2469   -2.8346 H   0  0  0  0  0  0  0  0  0  0  0  0
   -1.0429   -2.7726   -2.8346 H   0  0  0  0  0  0  0  0  0  0  0  0
   -1.0429   -0.5349   -0.4409 H   0  0  0  0  0  0  0  0  0  0  0  0
   -0.1620   -2.2640   -0.5201 H   0  0  0  0  0  0  0  0  0  0  0  0
   -1.9237   -2.2640   -0.5201 H   0  0  0  0  0  0  0  0  0  0  0  0
  1  2  2  3
  1  4  1  0
  1  5  1  0
  2  3  1  0
  2  6  1  0
  7  8  1  0
  7  9  1  0
  7 10  1  0
  7 11  1  0
  8 12  1  0
  8 13  1  0
  8 14  1  0
M  RAD  1   3   2
M  END
>  <reaction>  (10) 
rxn_891

>  <mol_properties>  (10) 
{"0": {"label": "*1", "atom_type": "Cs"}, "1": {"label": "*0", "atom_type": "CS"}, "6": {"label": "*4", "atom_type": "Cs"}, "7": {"label": "*3", "atom_type": "Cs"}, "11": {"label": "*2", "atom_type": "H0"}}

>  <type>  (10) 
unop_6

>  <geom_source>  (10) 
Heuristics

$$$$

     RDKit          3D

 14 12  0  0  0  0  0  0  0  0999 V2000
   -0.6751    0.8562   -0.3935 C   0  0  0  0  0  0  0  0  0  0  0  0
    0.5391    1.0667    0.4407 C   0  0  0  0  0  0  0  0  0  0  0  0
    0.7213    0.6465    1.9807 S   0  0  0  0  0  1  0  0  0  0  0  0
   -1.0314    1.8192   -0.7722 H   0  0  0  0  0  0  0  0  0  0  0  0
   -1.4688    0.3658    0.1661 H   0  0  0  0  0  0  0  0  0  0  0  0
    1.3664    1.5567   -0.0763 H   0  0  0  0  0  0  0  0  0  0  0  0
   -0.6751   -1.5882   -2.8676 C   0  0  0  0  0  0  0  0  0  0  0  0
   -0.6751   -1.5882   -1.3448 C   0  0  0  0  0  0  0  0  0  0  0  0
   -1.5560   -1.0796   -3.2635 H   0  0  0  0  0  0  0  0  0  0  0  0
    0.2057   -1.0796   -3.2635 H   0  0  0  0  0  0  0  0  0  0  0  0
   -0.6751   -2.6053   -3.2635 H   0  0  0  0  0  0  0  0  0  0  0  0
   -0.6751   -0.3677   -0.8698 H   0  0  0  0  0  0  0  0  0  0  0  0
    0.2057   -2.0967   -0.9490 H   0  0  0  0  0  0  0  0  0  0  0  0
   -1.5560   -2.0967   -0.9490 H   0  0  0  0  0  0  0  0  0  0  0  0
  1  2  2  3
  1  4  1  0
  1  5  1  0
  2  3  1  0
  2  6  1  0
  7  8  1  0
  7  9  1  0
  7 10  1  0
  7 11  1  0
  8 12  1  0
  8 13  1  0
  8 14  1  0
M  RAD  1   3   2
M  END
>  <reaction>  (11) 
rxn_891

>  <mol_properties>  (11) 
{"0": {"label": "*1", "atom_type": "Cs"}, "1": {"label": "*0", "atom_type": "CS"}, "6": {"label": "*4", "atom_type": "Cs"}, "7": {"label": "*3", "atom_type": "Cs"}, "11": {"label": "*2", "atom_type": "H0"}}

>  <type>  (11) 
unop_7

>  <geom_source>  (11) 
Heuristics

$$$$

     RDKit          3D

 14 12  0  0  0  0  0  0  0  0999 V2000
    0.8809    0.0476    0.4276 C   0  0  0  0  0  0  0  0  0  0  0  0
   -0.5212    0.5123    0.6084 C   0  0  0  0  0  0  0  0  0  0  0  0
   -1.0091    2.0371    0.7444 S   0  0  0  0  0  1  0  0  0  0  0  0
    1.1512   -0.6292    1.2440 H   0  0  0  0  0  0  0  0  0  0  0  0
    1.5806    0.8800    0.3943 H   0  0  0  0  0  0  0  0  0  0  0  0
   -1.2635   -0.2872    0.6482 H   0  0  0  0  0  0  0  0  0  0  0  0
    0.8809   -2.3968   -2.0466 C   0  0  0  0  0  0  0  0  0  0  0  0
    0.8809   -2.3968   -0.5238 C   0  0  0  0  0  0  0  0  0  0  0  0
    0.0001   -1.8883   -2.4424 H   0  0  0  0  0  0  0  0  0  0  0  0
    1.7617   -1.8883   -2.4424 H   0  0  0  0  0  0  0  0  0  0  0  0
    0.8809   -3.4139   -2.4424 H   0  0  0  0  0  0  0  0  0  0  0  0
    0.8809   -1.1763   -0.0488 H   0  0  0  0  0  0  0  0  0  0  0  0
    1.7617   -2.9054   -0.1279 H   0  0  0  0  0  0  0  0  0  0  0  0
    0.0000   -2.9054   -0.1279 H   0  0  0  0  0  0  0  0  0  0  0  0
  1  2  2  3
  1  4  1  0
  1  5  1  0
  2  3  1  0
  2  6  1  0
  7  8  1  0
  7  9  1  0
  7 10  1  0
  7 11  1  0
  8 12  1  0
  8 13  1  0
  8 14  1  0
M  RAD  1   3   2
M  END
>  <reaction>  (12) 
rxn_891

>  <mol_properties>  (12) 
{"0": {"label": "*1", "atom_type": "Cs"}, "1": {"label": "*0", "atom_type": "CS"}, "6": {"label": "*4", "atom_type": "Cs"}, "7": {"label": "*3", "atom_type": "Cs"}, "11": {"label": "*2", "atom_type": "H0"}}

>  <type>  (12) 
unop_8

>  <geom_source>  (12) 
Heuristics

$$$$

     RDKit          3D

 14 12  0  0  0  0  0  0  0  0999 V2000
   -0.8776    0.1485    0.9946 C   0  0  0  0  0  0  0  0  0  0  0  0
   -0.1766    1.0537    0.0439 C   0  0  0  0  0  0  0  0  0  0  0  0
    1.3095    1.6417    0.2087 S   0  0  0  0  0  1  0  0  0  0  0  0
   -1.8085    0.6171    1.3285 H   0  0  0  0  0  0  0  0  0  0  0  0
   -0.2575   -0.0900    1.8561 H   0  0  0  0  0  0  0  0  0  0  0  0
   -0.7583    1.3234   -0.8396 H   0  0  0  0  0  0  0  0  0  0  0  0
   -0.8776   -2.2959   -1.4795 C   0  0  0  0  0  0  0  0  0  0  0  0
   -0.8776   -2.2959    0.0433 C   0  0  0  0  0  0  0  0  0  0  0  0
   -1.7585   -1.7873   -1.8754 H   0  0  0  0  0  0  0  0  0  0  0  0
    0.0032   -1.7873   -1.8754 H   0  0  0  0  0  0  0  0  0  0  0  0
   -0.8776   -3.3130   -1.8754 H   0  0  0  0  0  0  0  0  0  0  0  0
   -0.8776   -1.0754    0.5183 H   0  0  0  0  0  0  0  0  0  0  0  0
    0.0032   -2.8044    0.4391 H   0  0  0  0  0  0  0  0  0  0  0  0
   -1.7585   -2.8044    0.4391 H   0  0  0  0  0  0  0  0  0  0  0  0
  1  2  2  3
  1  4  1  0
  1  5  1  0
  2  3  1  0
  2  6  1  0
  7  8  1  0
  7  9  1  0
  7 10  1  0
  7 11  1  0
  8 12  1  0
  8 13  1  0
  8 14  1  0
M  RAD  1   3   2
M  END
>  <reaction>  (13) 
rxn_891

>  <mol_properties>  (13) 
{"0": {"label": "*1", "atom_type": "Cs"}, "1": {"label": "*0", "atom_type": "CS"}, "6": {"label": "*4", "atom_type": "Cs"}, "7": {"label": "*3", "atom_type": "Cs"}, "11": {"label": "*2", "atom_type": "H0"}}

>  <type>  (13) 
unop_9

>  <geom_source>  (13) 
Heuristics

$$$$

     RDKit          3D

 14 12  0  0  0  0  0  0  0  0999 V2000
    0.6711   -0.1047    0.8748 C   0  0  0  0  0  0  0  0  0  0  0  0
   -0.5431    0.6143    0.4024 C   0  0  0  0  0  0  0  0  0  0  0  0
   -0.6953    2.2021    0.2099 S   0  0  0  0  0  1  0  0  0  0  0  0
    0.4295   -0.6821    1.7725 H   0  0  0  0  0  0  0  0  0  0  0  0
    1.4882    0.5810    1.0887 H   0  0  0  0  0  0  0  0  0  0  0  0
   -1.3934   -0.0311    0.1738 H   0  0  0  0  0  0  0  0  0  0  0  0
    0.6711   -2.5491   -1.5993 C   0  0  0  0  0  0  0  0  0  0  0  0
    0.6711   -2.5491   -0.0765 C   0  0  0  0  0  0  0  0  0  0  0  0
   -0.2097   -2.0406   -1.9951 H   0  0  0  0  0  0  0  0  0  0  0  0
    1.5520   -2.0406   -1.9951 H   0  0  0  0  0  0  0  0  0  0  0  0
    0.6711   -3.5662   -1.9951 H   0  0  0  0  0  0  0  0  0  0  0  0
    0.6711   -1.3286    0.3985 H   0  0  0  0  0  0  0  0  0  0  0  0
    1.5520   -3.0577    0.3193 H   0  0  0  0  0  0  0  0  0  0  0  0
   -0.2097   -3.0577    0.3193 H   0  0  0  0  0  0  0  0  0  0  0  0
  1  2  2  3
  1  4  1  0
  1  5  1  0
  2  3  1  0
  2  6  1  0
  7  8  1  0
  7  9  1  0
  7 10  1  0
  7 11  1  0
  8 12  1  0
  8 13  1  0
  8 14  1  0
M  RAD  1   3   2
M  END
>  <reaction>  (14) 
rxn_891

>  <mol_properties>  (14) 
{"0": {"label": "*1", "atom_type": "Cs"}, "1": {"label": "*0", "atom_type": "CS"}, "6": {"label": "*4", "atom_type": "Cs"}, "7": {"label": "*3", "atom_type": "Cs"}, "11": {"label": "*2", "atom_type": "H0"}}

>  <type>  (14) 
unop_10

>  <geom_source>  (14) 
Heuristics

$$$$

     RDKit          3D

 14 12  0  0  0  0  0  0  0  0999 V2000
   -0.1109    0.8464   -0.6002 C   0  0  0  0  0  0  0  0  0  0  0  0
    0.5901    0.8708    0.7122 C   0  0  0  0  0  0  0  0  0  0  0  0
   -0.0941    0.7408    2.1601 S   0  0  0  0  0  1  0  0  0  0  0  0
    0.0986    1.7721   -1.1452 H   0  0  0  0  0  0  0  0  0  0  0  0
   -1.1856    0.7261   -0.4812 H   0  0  0  0  0  0  0  0  0  0  0  0
    1.6733    0.9900    0.6467 H   0  0  0  0  0  0  0  0  0  0  0  0
   -0.1109   -1.5979   -3.0744 C   0  0  0  0  0  0  0  0  0  0  0  0
   -0.1109   -1.5979   -1.5516 C   0  0  0  0  0  0  0  0  0  0  0  0
   -0.9918   -1.0894   -3.4702 H   0  0  0  0  0  0  0  0  0  0  0  0
    0.7699   -1.0894   -3.4702 H   0  0  0  0  0  0  0  0  0  0  0  0
   -0.1109   -2.6150   -3.4702 H   0  0  0  0  0  0  0  0  0  0  0  0
   -0.1109   -0.3774   -1.0766 H   0  0  0  0  0  0  0  0  0  0  0  0
    0.7699   -2.1065   -1.1557 H   0  0  0  0  0  0  0  0  0  0  0  0
   -0.9918   -2.1065   -1.1557 H   0  0  0  0  0  0  0  0  0  0  0  0
  1  2  2  3
  1  4  1  0
  1  5  1  0
  2  3  1  0
  2  6  1  0
  7  8  1  0
  7  9  1  0
  7 10  1  0
  7 11  1  0
  8 12  1  0
  8 13  1  0
  8 14  1  0
M  RAD  1   3   2
M  END
>  <reaction>  (15) 
rxn_891

>  <mol_properties>  (15) 
{"0": {"label": "*1", "atom_type": "Cs"}, "1": {"label": "*0", "atom_type": "CS"}, "6": {"label": "*4", "atom_type": "Cs"}, "7": {"label": "*3", "atom_type": "Cs"}, "11": {"label": "*2", "atom_type": "H0"}}

>  <type>  (15) 
unop_11

>  <geom_source>  (15) 
Heuristics

$$$$

     RDKit          3D

 14 12  0  0  0  0  0  0  0  0999 V2000
   -0.3845   -0.0798    1.2381 C   0  0  0  0  0  0  0  0  0  0  0  0
   -0.3845    0.8935    0.1123 C   0  0  0  0  0  0  0  0  0  0  0  0
    0.7150    2.0325   -0.1620 S   0  0  0  0  0  1  0  0  0  0  0  0
   -1.3084    0.0267    1.8150 H   0  0  0  0  0  0  0  0  0  0  0  0
    0.4741    0.0595    1.8916 H   0  0  0  0  0  0  0  0  0  0  0  0
   -1.2279    0.7949   -0.5737 H   0  0  0  0  0  0  0  0  0  0  0  0
   -0.3845   -2.5241   -1.2360 C   0  0  0  0  0  0  0  0  0  0  0  0
   -0.3845   -2.5241    0.2867 C   0  0  0  0  0  0  0  0  0  0  0  0
   -1.2653   -2.0156   -1.6319 H   0  0  0  0  0  0  0  0  0  0  0  0
    0.4963   -2.0156   -1.6319 H   0  0  0  0  0  0  0  0  0  0  0  0
   -0.3845   -3.5412   -1.6319 H   0  0  0  0  0  0  0  0  0  0  0  0
   -0.3845   -1.3036    0.7618 H   0  0  0  0  0  0  0  0  0  0  0  0
    0.4963   -3.0327    0.6826 H   0  0  0  0  0  0  0  0  0  0  0  0
   -1.2653   -3.0327    0.6826 H   0  0  0  0  0  0  0  0  0  0  0  0
  1  2  2  3
  1  4  1  0
  1  5  1  0
  2  3  1  0
  2  6  1  0
  7  8  1  0
  7  9  1  0
  7 10  1  0
  7 11  1  0
  8 12  1  0
  8 13  1  0
  8 14  1  0
M  RAD  1   3   2
M  END
>  <reaction>  (16) 
rxn_891

>  <mol_properties>  (16) 
{"0": {"label": "*1", "atom_type": "Cs"}, "1": {"label": "*0", "atom_type": "CS"}, "6": {"label": "*4", "atom_type": "Cs"}, "7": {"label": "*3", "atom_type": "Cs"}, "11": {"label": "*2", "atom_type": "H0"}}

>  <type>  (16) 
unop_12

>  <geom_source>  (16) 
Heuristics

$$$$

     RDKit          3D

 14 12  0  0  0  0  0  0  0  0999 V2000
    2.8861    1.5202    0.1658 S   0  0  0  0  0  1  0  0  0  0  0  0
    1.2804   -0.3061   -0.5841 C   0  0  0  0  0  0  0  0  0  0  0  0
   -2.0358   -0.4240    0.5532 C   0  0  0  0  0  0  0  0  0  0  0  0
   -1.1153    0.5665   -0.1354 C   0  0  0  0  0  0  0  0  0  0  0  0
    2.5110    0.1350    0.1419 C   0  0  0  0  0  0  0  0  0  0  0  0
    1.3742   -0.0850   -1.6689 H   0  0  0  0  0  0  0  0  0  0  0  0
    1.1432   -1.4000   -0.4542 H   0  0  0  0  0  0  0  0  0  0  0  0
    0.1931    0.3332   -0.0844 H   0  0  0  0  0  0  0  0  0  0  0  0
   -1.6952   -0.5847    1.5972 H   0  0  0  0  0  0  0  0  0  0  0  0
   -3.0748   -0.0323    0.5619 H   0  0  0  0  0  0  0  0  0  0  0  0
   -2.0129   -1.3922    0.0110 H   0  0  0  0  0  0  0  0  0  0  0  0
    3.1164   -0.5921    0.6733 H   0  0  0  0  0  0  0  0  0  0  0  0
   -1.1259    1.5356    0.4066 H   0  0  0  0  0  0  0  0  0  0  0  0
   -1.4445    0.7260   -1.1838 H   0  0  0  0  0  0  0  0  0  0  0  0
  1  5  1  0
  2  5  2  3
  2  6  1  0
  2  7  1  0
  3  4  1  0
  3  9  1  0
  3 10  1  0
  3 11  1  0
  4  8  1  0
  4 13  1  0
  4 14  1  0
  5 12  1  0
M  RAD  1   1   2
M  END
>  <reaction>  (17) 
rxn_891

>  <mol_properties>  (17) 
{"0": {"label": "*1", "atom_type": "Cs"}, "1": {"label": "*0", "atom_type": "CS"}, "6": {"label": "*4", "atom_type": "Cs"}, "7": {"label": "*3", "atom_type": "Cs"}, "11": {"label": "*2", "atom_type": "H0"}}

>  <type>  (17) 
unop_13

>  <geom_source>  (17) 
AutoTST

$$$$

     RDKit          3D

 14 12  0  0  0  0  0  0  0  0999 V2000
    0.2046   -0.1689    1.1887 C   0  0  0  0  0  0  0  0  0  0  0  0
   -0.4964    0.7363    0.2380 C   0  0  0  0  0  0  0  0  0  0  0  0
   -0.0580    2.2319   -0.1522 S   0  0  0  0  0  1  0  0  0  0  0  0
   -0.4816   -0.4629    1.9889 H   0  0  0  0  0  0  0  0  0  0  0  0
    1.0874    0.3014    1.6168 H   0  0  0  0  0  0  0  0  0  0  0  0
   -1.3910    0.3098   -0.2198 H   0  0  0  0  0  0  0  0  0  0  0  0
    0.2046   -2.6133   -1.2854 C   0  0  0  0  0  0  0  0  0  0  0  0
    0.2046   -2.6133    0.2374 C   0  0  0  0  0  0  0  0  0  0  0  0
   -0.6762   -2.1047   -1.6813 H   0  0  0  0  0  0  0  0  0  0  0  0
    1.0855   -2.1047   -1.6813 H   0  0  0  0  0  0  0  0  0  0  0  0
    0.2046   -3.6304   -1.6813 H   0  0  0  0  0  0  0  0  0  0  0  0
    0.2046   -1.3927    0.7124 H   0  0  0  0  0  0  0  0  0  0  0  0
    1.0855   -3.1218    0.6332 H   0  0  0  0  0  0  0  0  0  0  0  0
   -0.6762   -3.1218    0.6332 H   0  0  0  0  0  0  0  0  0  0  0  0
  1  2  2  3
  1  4  1  0
  1  5  1  0
  2  3  1  0
  2  6  1  0
  7  8  1  0
  7  9  1  0
  7 10  1  0
  7 11  1  0
  8 12  1  0
  8 13  1  0
  8 14  1  0
M  RAD  1   3   2
M  END
>  <reaction>  (18) 
rxn_891

>  <mol_properties>  (18) 
{"0": {"label": "*1", "atom_type": "Cs"}, "1": {"label": "*0", "atom_type": "CS"}, "6": {"label": "*4", "atom_type": "Cs"}, "7": {"label": "*3", "atom_type": "Cs"}, "11": {"label": "*2", "atom_type": "H0"}}

>  <type>  (18) 
unop_14

>  <geom_source>  (18) 
gaussian_log

$$$$
