
     RDKit          3D

 10  9  0  0  0  0  0  0  0  0999 V2000
   -1.1906   -0.0419   -0.0385 C   0  0  0  0  0  0  0  0  0  0  0  0
    0.2513    0.4500    0.0348 C   0  0  0  0  0  0  0  0  0  0  0  0
    1.2500   -0.5694    0.3278 N   0  0  0  0  0  0  0  0  0  0  0  0
   -1.4965   -0.4905    0.9100 H   0  0  0  0  0  0  0  0  0  0  0  0
   -1.3035   -0.7985   -0.8190 H   0  0  0  0  0  0  0  0  0  0  0  0
   -1.8789    0.7769   -0.2612 H   0  0  0  0  0  0  0  0  0  0  0  0
    0.3352    1.2278    0.7979 H   0  0  0  0  0  0  0  0  0  0  0  0
    0.5259    0.9233   -0.9113 H   0  0  0  0  0  0  0  0  0  0  0  0
    1.2298   -1.2971   -0.3752 H   0  0  0  0  0  0  0  0  0  0  0  0
    1.0523   -1.0138    1.2153 H   0  0  0  0  0  0  0  0  0  0  0  0
  1  2  1  0
  1  4  1  0
  1  5  1  0
  1  6  1  0
  2  3  1  0
  2  7  1  0
  2  8  1  0
  3  9  1  0
  3 10  1  0
M  END
>  <reaction>  (1) 
rxn_115

>  <mol_properties>  (1) 
{"1": {"label": "donator", "atom_type": "Cs"}, "6": {"label": "d_hydrogen", "atom_type": "H0"}}

>  <type>  (1) 
r1h

$$$$

     RDKit          3D

  4  3  0  0  0  0  0  0  0  0999 V2000
    0.0000    0.0000    0.0000 C   0  0  0  0  0  3  0  0  0  0  0  0
    1.0638   -0.1747    0.0540 H   0  0  0  0  0  0  0  0  0  0  0  0
   -0.6833   -0.8351   -0.0280 H   0  0  0  0  0  0  0  0  0  0  0  0
   -0.3805    1.0098   -0.0260 H   0  0  0  0  0  0  0  0  0  0  0  0
  1  2  1  0
  1  3  1  0
  1  4  1  0
M  RAD  1   1   2
M  END
>  <reaction>  (2) 
rxn_115

>  <mol_properties>  (2) 
{"0": {"label": "acceptor", "atom_type": "Cs"}}

>  <type>  (2) 
r2

$$$$

     RDKit          3D

  5  4  0  0  0  0  0  0  0  0999 V2000
    0.0000    0.0000    0.0000 C   0  0  0  0  0  0  0  0  0  0  0  0
   -0.6486   -0.7720   -0.4113 H   0  0  0  0  0  0  0  0  0  0  0  0
   -0.3482    0.9787   -0.3267 H   0  0  0  0  0  0  0  0  0  0  0  0
   -0.0223   -0.0487    1.0876 H   0  0  0  0  0  0  0  0  0  0  0  0
    1.0191   -0.1580   -0.3496 H   0  0  0  0  0  0  0  0  0  0  0  0
  1  2  1  0
  1  3  1  0
  1  4  1  0
  1  5  1  0
M  END
>  <reaction>  (3) 
rxn_115

>  <mol_properties>  (3) 
{"0": {"label": "a_hydrogen", "atom_type": "H0"}, "1": {"label": "acceptor", "atom_type": "Cs"}}

>  <type>  (3) 
r2h

$$$$

     RDKit          3D

 14 12  0  0  0  0  0  0  0  0999 V2000
   -0.4131   -0.0075   -1.5187 C   0  0  0  0  0  0  0  0  0  0  0  0
   -0.5684    0.0090   -0.0144 C   0  0  0  0  0  0  0  0  0  0  0  0
   -0.5326    1.2844    0.6336 N   0  0  0  0  0  0  0  0  0  0  0  0
    0.5139    0.4919   -1.8140 H   0  0  0  0  0  0  0  0  0  0  0  0
   -1.2433    0.5068   -2.0130 H   0  0  0  0  0  0  0  0  0  0  0  0
   -0.3715   -1.0316   -1.8947 H   0  0  0  0  0  0  0  0  0  0  0  0
    0.4128   -0.6679    0.4312 H   0  0  0  0  0  0  0  0  0  0  0  0
   -1.4329   -0.5606    0.3273 H   0  0  0  0  0  0  0  0  0  0  0  0
   -1.4454    1.6848    0.7898 H   0  0  0  0  0  0  0  0  0  0  0  0
    0.0444    1.9524    0.1442 H   0  0  0  0  0  0  0  0  0  0  0  0
    1.5633   -1.3666    0.9353 C   0  0  0  0  0  3  0  0  0  0  0  0
    1.7285   -0.8807    1.8914 H   0  0  0  0  0  0  0  0  0  0  0  0
    2.3420   -1.1843    0.2006 H   0  0  0  0  0  0  0  0  0  0  0  0
    1.2573   -2.4058    1.0070 H   0  0  0  0  0  0  0  0  0  0  0  0
  1  2  1  0
  1  4  1  0
  1  5  1  0
  1  6  1  0
  2  3  1  0
  2  7  1  0
  2  8  1  0
  3  9  1  0
  3 10  1  0
 11 12  1  0
 11 13  1  0
 11 14  1  0
M  RAD  1  11   2
M  END
>  <reaction>  (4) 
rxn_115

>  <mol_properties>  (4) 
{"1": {"label": "*1", "atom_type": "Cs"}, "2": {"label": "*0", "atom_type": "N3s"}, "6": {"label": "*2", "atom_type": "H0"}, "10": {"label": "*3", "atom_type": "Cs"}, "11": {"label": "*4", "atom_type": "H0"}}

>  <type>  (4) 
ts

$$$$

     RDKit          3D

 14 12  0  0  0  0  0  0  0  0999 V2000
   -0.5340   -0.0138   -1.5324 C   0  0  0  0  0  0  0  0  0  0  0  0
   -0.5340   -0.0138   -0.0071 C   0  0  0  0  0  3  0  0  0  0  0  0
   -0.5340    1.3001    0.6224 N   0  0  0  0  0  0  0  0  0  0  0  0
    0.3493    0.4994   -1.9206 H   0  0  0  0  0  0  0  0  0  0  0  0
   -1.4174    0.4994   -1.9206 H   0  0  0  0  0  0  0  0  0  0  0  0
   -0.5340   -1.0315   -1.9297 H   0  0  0  0  0  0  0  0  0  0  0  0
    0.5139   -0.6680    0.4330 H   0  0  0  0  0  0  0  0  0  0  0  0
   -1.4073   -0.5590    0.3597 H   0  0  0  0  0  0  0  0  0  0  0  0
   -1.3466    1.8304    0.3347 H   0  0  0  0  0  0  0  0  0  0  0  0
    0.2786    1.8304    0.3347 H   0  0  0  0  0  0  0  0  0  0  0  0
    1.5581   -1.3198    0.8716 C   0  0  0  0  0  0  0  0  0  0  0  0
    2.1728   -0.6555    1.4769 H   0  0  0  0  0  0  0  0  0  0  0  0
    2.1618   -2.1568    0.5240 H   0  0  0  0  0  0  0  0  0  0  0  0
    0.8153   -1.6096    1.6133 H   0  0  0  0  0  0  0  0  0  0  0  0
  1  2  1  0
  1  4  1  0
  1  5  1  0
  1  6  1  0
  2  3  1  0
  2  8  1  0
  3  9  1  0
  3 10  1  0
  7 11  1  0
 11 12  1  0
 11 13  1  0
 11 14  1  0
M  RAD  1   2   2
M  END
>  <reaction>  (5) 
rxn_115

>  <mol_properties>  (5) 
{"1": {"label": "*1", "atom_type": "Cs"}, "2": {"label": "*0", "atom_type": "N3s"}, "6": {"label": "*2", "atom_type": "H0"}, "10": {"label": "*3", "atom_type": "Cs"}, "11": {"label": "*4", "atom_type": "H0"}}

>  <type>  (5) 
unop_1

>  <geom_source>  (5) 
Heuristics

$$$$

     RDKit          3D

 14 12  0  0  0  0  0  0  0  0999 V2000
   -0.5325   -0.0155   -1.5239 C   0  0  0  0  0  0  0  0  0  0  0  0
   -0.5325   -0.0155    0.0014 C   0  0  0  0  0  3  0  0  0  0  0  0
   -0.5325    1.2983    0.6309 N   0  0  0  0  0  0  0  0  0  0  0  0
    0.3509    0.4976   -1.9121 H   0  0  0  0  0  0  0  0  0  0  0  0
   -1.4159    0.4976   -1.9121 H   0  0  0  0  0  0  0  0  0  0  0  0
   -0.5325   -1.0333   -1.9212 H   0  0  0  0  0  0  0  0  0  0  0  0
    0.5154   -0.6698    0.4415 H   0  0  0  0  0  0  0  0  0  0  0  0
   -1.4058   -0.5607    0.3682 H   0  0  0  0  0  0  0  0  0  0  0  0
   -1.3451    1.8286    0.3432 H   0  0  0  0  0  0  0  0  0  0  0  0
    0.2801    1.8286    0.3432 H   0  0  0  0  0  0  0  0  0  0  0  0
    1.5596   -1.3216    0.8801 C   0  0  0  0  0  0  0  0  0  0  0  0
    2.3746   -1.2253    0.1643 H   0  0  0  0  0  0  0  0  0  0  0  0
    1.5177   -2.3461    1.2466 H   0  0  0  0  0  0  0  0  0  0  0  0
    1.1718   -0.7504    1.7222 H   0  0  0  0  0  0  0  0  0  0  0  0
  1  2  1  0
  1  4  1  0
  1  5  1  0
  1  6  1  0
  2  3  1  0
  2  8  1  0
  3  9  1  0
  3 10  1  0
  7 11  1  0
 11 12  1  0
 11 13  1  0
 11 14  1  0
M  RAD  1   2   2
M  END
>  <reaction>  (6) 
rxn_115

>  <mol_properties>  (6) 
{"1": {"label": "*1", "atom_type": "Cs"}, "2": {"label": "*0", "atom_type": "N3s"}, "6": {"label": "*2", "atom_type": "H0"}, "10": {"label": "*3", "atom_type": "Cs"}, "11": {"label": "*4", "atom_type": "H0"}}

>  <type>  (6) 
unop_2

>  <geom_source>  (6) 
Heuristics

$$$$

     RDKit          3D

 14 12  0  0  0  0  0  0  0  0999 V2000
   -0.5357   -0.0099   -1.5313 C   0  0  0  0  0  0  0  0  0  0  0  0
   -0.5357   -0.0099   -0.0060 C   0  0  0  0  0  3  0  0  0  0  0  0
   -0.5357    1.3040    0.6235 N   0  0  0  0  0  0  0  0  0  0  0  0
    0.3477    0.5033   -1.9195 H   0  0  0  0  0  0  0  0  0  0  0  0
   -1.4191    0.5033   -1.9195 H   0  0  0  0  0  0  0  0  0  0  0  0
   -0.5357   -1.0276   -1.9285 H   0  0  0  0  0  0  0  0  0  0  0  0
    0.5122   -0.6641    0.4341 H   0  0  0  0  0  0  0  0  0  0  0  0
   -1.4090   -0.5551    0.3608 H   0  0  0  0  0  0  0  0  0  0  0  0
   -1.3483    1.8343    0.3359 H   0  0  0  0  0  0  0  0  0  0  0  0
    0.2769    1.8343    0.3359 H   0  0  0  0  0  0  0  0  0  0  0  0
    1.5564   -1.3160    0.8727 C   0  0  0  0  0  0  0  0  0  0  0  0
    1.8652   -0.9036    1.8320 H   0  0  0  0  0  0  0  0  0  0  0  0
    2.4312   -1.6781    0.3348 H   0  0  0  0  0  0  0  0  0  0  0  0
    0.9482   -2.0604    1.3842 H   0  0  0  0  0  0  0  0  0  0  0  0
  1  2  1  0
  1  4  1  0
  1  5  1  0
  1  6  1  0
  2  3  1  0
  2  8  1  0
  3  9  1  0
  3 10  1  0
  7 11  1  0
 11 12  1  0
 11 13  1  0
 11 14  1  0
M  RAD  1   2   2
M  END
>  <reaction>  (7) 
rxn_115

>  <mol_properties>  (7) 
{"1": {"label": "*1", "atom_type": "Cs"}, "2": {"label": "*0", "atom_type": "N3s"}, "6": {"label": "*2", "atom_type": "H0"}, "10": {"label": "*3", "atom_type": "Cs"}, "11": {"label": "*4", "atom_type": "H0"}}

>  <type>  (7) 
unop_3

>  <geom_source>  (7) 
Heuristics

$$$$

     RDKit          3D

 14 12  0  0  0  0  0  0  0  0999 V2000
   -0.5314   -0.0156   -1.5278 C   0  0  0  0  0  0  0  0  0  0  0  0
   -0.5314   -0.0156   -0.0026 C   0  0  0  0  0  3  0  0  0  0  0  0
   -0.5314    1.2983    0.6269 N   0  0  0  0  0  0  0  0  0  0  0  0
    0.3520    0.4975   -1.9161 H   0  0  0  0  0  0  0  0  0  0  0  0
   -1.4148    0.4975   -1.9161 H   0  0  0  0  0  0  0  0  0  0  0  0
   -0.5314   -1.0334   -1.9251 H   0  0  0  0  0  0  0  0  0  0  0  0
    0.5165   -0.6698    0.4376 H   0  0  0  0  0  0  0  0  0  0  0  0
   -1.4047   -0.5608    0.3642 H   0  0  0  0  0  0  0  0  0  0  0  0
   -1.3440    1.8285    0.3393 H   0  0  0  0  0  0  0  0  0  0  0  0
    0.2812    1.8285    0.3393 H   0  0  0  0  0  0  0  0  0  0  0  0
    1.5607   -1.3217    0.8761 C   0  0  0  0  0  0  0  0  0  0  0  0
    1.5260   -2.3482    0.5144 H   0  0  0  0  0  0  0  0  0  0  0  0
    1.0204   -1.2506    1.8189 H   0  0  0  0  0  0  0  0  0  0  0  0
    2.4555   -0.7189    1.0235 H   0  0  0  0  0  0  0  0  0  0  0  0
  1  2  1  0
  1  4  1  0
  1  5  1  0
  1  6  1  0
  2  3  1  0
  2  8  1  0
  3  9  1  0
  3 10  1  0
  7 11  1  0
 11 12  1  0
 11 13  1  0
 11 14  1  0
M  RAD  1   2   2
M  END
>  <reaction>  (8) 
rxn_115

>  <mol_properties>  (8) 
{"1": {"label": "*1", "atom_type": "Cs"}, "2": {"label": "*0", "atom_type": "N3s"}, "6": {"label": "*2", "atom_type": "H0"}, "10": {"label": "*3", "atom_type": "Cs"}, "11": {"label": "*4", "atom_type": "H0"}}

>  <type>  (8) 
unop_4

>  <geom_source>  (8) 
Heuristics

$$$$

     RDKit          3D

 14 12  0  0  0  0  0  0  0  0999 V2000
   -0.5409   -0.0114   -1.5290 C   0  0  0  0  0  0  0  0  0  0  0  0
   -0.5409   -0.0114   -0.0037 C   0  0  0  0  0  3  0  0  0  0  0  0
   -0.5409    1.3025    0.6257 N   0  0  0  0  0  0  0  0  0  0  0  0
    0.3425    0.5017   -1.9172 H   0  0  0  0  0  0  0  0  0  0  0  0
   -1.4243    0.5017   -1.9172 H   0  0  0  0  0  0  0  0  0  0  0  0
   -0.5409   -1.0292   -1.9263 H   0  0  0  0  0  0  0  0  0  0  0  0
    0.5070   -0.6656    0.4364 H   0  0  0  0  0  0  0  0  0  0  0  0
   -1.4142   -0.5566    0.3631 H   0  0  0  0  0  0  0  0  0  0  0  0
   -1.3535    1.8327    0.3381 H   0  0  0  0  0  0  0  0  0  0  0  0
    0.2717    1.8327    0.3381 H   0  0  0  0  0  0  0  0  0  0  0  0
    1.5512   -1.3175    0.8749 C   0  0  0  0  0  0  0  0  0  0  0  0
    1.5490   -1.3161    1.9639 H   0  0  0  0  0  0  0  0  0  0  0  0
    2.4582   -0.8356    0.5132 H   0  0  0  0  0  0  0  0  0  0  0  0
    1.5310   -2.4039    0.9456 H   0  0  0  0  0  0  0  0  0  0  0  0
  1  2  1  0
  1  4  1  0
  1  5  1  0
  1  6  1  0
  2  3  1  0
  2  8  1  0
  3  9  1  0
  3 10  1  0
  7 11  1  0
 11 12  1  0
 11 13  1  0
 11 14  1  0
M  RAD  1   2   2
M  END
>  <reaction>  (9) 
rxn_115

>  <mol_properties>  (9) 
{"1": {"label": "*1", "atom_type": "Cs"}, "2": {"label": "*0", "atom_type": "N3s"}, "6": {"label": "*2", "atom_type": "H0"}, "10": {"label": "*3", "atom_type": "Cs"}, "11": {"label": "*4", "atom_type": "H0"}}

>  <type>  (9) 
unop_5

>  <geom_source>  (9) 
Heuristics

$$$$

     RDKit          3D

 14 12  0  0  0  0  0  0  0  0999 V2000
   -0.5338   -0.0160   -1.5304 C   0  0  0  0  0  0  0  0  0  0  0  0
   -0.5338   -0.0160   -0.0052 C   0  0  0  0  0  3  0  0  0  0  0  0
   -0.5338    1.2979    0.6243 N   0  0  0  0  0  0  0  0  0  0  0  0
    0.3495    0.4971   -1.9187 H   0  0  0  0  0  0  0  0  0  0  0  0
   -1.4172    0.4971   -1.9187 H   0  0  0  0  0  0  0  0  0  0  0  0
   -0.5338   -1.0338   -1.9277 H   0  0  0  0  0  0  0  0  0  0  0  0
    0.5141   -0.6703    0.4350 H   0  0  0  0  0  0  0  0  0  0  0  0
   -1.4071   -0.5612    0.3616 H   0  0  0  0  0  0  0  0  0  0  0  0
   -1.3464    1.8281    0.3367 H   0  0  0  0  0  0  0  0  0  0  0  0
    0.2788    1.8281    0.3367 H   0  0  0  0  0  0  0  0  0  0  0  0
    1.5583   -1.3221    0.8735 C   0  0  0  0  0  0  0  0  0  0  0  0
    1.3046   -2.3741    0.9953 H   0  0  0  0  0  0  0  0  0  0  0  0
    1.2038   -0.7609    1.7367 H   0  0  0  0  0  0  0  0  0  0  0  0
    2.6301   -1.1586    0.7726 H   0  0  0  0  0  0  0  0  0  0  0  0
  1  2  1  0
  1  4  1  0
  1  5  1  0
  1  6  1  0
  2  3  1  0
  2  8  1  0
  3  9  1  0
  3 10  1  0
  7 11  1  0
 11 12  1  0
 11 13  1  0
 11 14  1  0
M  RAD  1   2   2
M  END
>  <reaction>  (10) 
rxn_115

>  <mol_properties>  (10) 
{"1": {"label": "*1", "atom_type": "Cs"}, "2": {"label": "*0", "atom_type": "N3s"}, "6": {"label": "*2", "atom_type": "H0"}, "10": {"label": "*3", "atom_type": "Cs"}, "11": {"label": "*4", "atom_type": "H0"}}

>  <type>  (10) 
unop_6

>  <geom_source>  (10) 
Heuristics

$$$$

     RDKit          3D

 14 12  0  0  0  0  0  0  0  0999 V2000
   -0.5371   -0.0172   -1.5319 C   0  0  0  0  0  0  0  0  0  0  0  0
   -0.5371   -0.0172   -0.0066 C   0  0  0  0  0  3  0  0  0  0  0  0
   -0.5371    1.2967    0.6229 N   0  0  0  0  0  0  0  0  0  0  0  0
    0.3463    0.4960   -1.9201 H   0  0  0  0  0  0  0  0  0  0  0  0
   -1.4205    0.4960   -1.9201 H   0  0  0  0  0  0  0  0  0  0  0  0
   -0.5371   -1.0349   -1.9291 H   0  0  0  0  0  0  0  0  0  0  0  0
    0.5108   -0.6714    0.4335 H   0  0  0  0  0  0  0  0  0  0  0  0
   -1.4104   -0.5624    0.3602 H   0  0  0  0  0  0  0  0  0  0  0  0
   -1.3497    1.8270    0.3353 H   0  0  0  0  0  0  0  0  0  0  0  0
    0.2755    1.8270    0.3353 H   0  0  0  0  0  0  0  0  0  0  0  0
    1.5550   -1.3232    0.8721 C   0  0  0  0  0  0  0  0  0  0  0  0
    1.2281   -2.1673    1.4774 H   0  0  0  0  0  0  0  0  0  0  0  0
    1.5275   -0.4145    1.4714 H   0  0  0  0  0  0  0  0  0  0  0  0
    2.5675   -1.6474    0.6364 H   0  0  0  0  0  0  0  0  0  0  0  0
  1  2  1  0
  1  4  1  0
  1  5  1  0
  1  6  1  0
  2  3  1  0
  2  8  1  0
  3  9  1  0
  3 10  1  0
  7 11  1  0
 11 12  1  0
 11 13  1  0
 11 14  1  0
M  RAD  1   2   2
M  END
>  <reaction>  (11) 
rxn_115

>  <mol_properties>  (11) 
{"1": {"label": "*1", "atom_type": "Cs"}, "2": {"label": "*0", "atom_type": "N3s"}, "6": {"label": "*2", "atom_type": "H0"}, "10": {"label": "*3", "atom_type": "Cs"}, "11": {"label": "*4", "atom_type": "H0"}}

>  <type>  (11) 
unop_7

>  <geom_source>  (11) 
Heuristics

$$$$

     RDKit          3D

 14 12  0  0  0  0  0  0  0  0999 V2000
   -0.5347   -0.0167   -1.5302 C   0  0  0  0  0  0  0  0  0  0  0  0
   -0.5347   -0.0167   -0.0049 C   0  0  0  0  0  3  0  0  0  0  0  0
   -0.5347    1.2972    0.6245 N   0  0  0  0  0  0  0  0  0  0  0  0
    0.3487    0.4964   -1.9184 H   0  0  0  0  0  0  0  0  0  0  0  0
   -1.4180    0.4964   -1.9184 H   0  0  0  0  0  0  0  0  0  0  0  0
   -0.5347   -1.0345   -1.9275 H   0  0  0  0  0  0  0  0  0  0  0  0
    0.5133   -0.6709    0.4352 H   0  0  0  0  0  0  0  0  0  0  0  0
   -1.4079   -0.5619    0.3618 H   0  0  0  0  0  0  0  0  0  0  0  0
   -1.3473    1.8275    0.3369 H   0  0  0  0  0  0  0  0  0  0  0  0
    0.2779    1.8275    0.3369 H   0  0  0  0  0  0  0  0  0  0  0  0
    1.5575   -1.3228    0.8737 C   0  0  0  0  0  0  0  0  0  0  0  0
    2.3912   -0.6330    0.9955 H   0  0  0  0  0  0  0  0  0  0  0  0
    1.9371   -2.3400    0.7910 H   0  0  0  0  0  0  0  0  0  0  0  0
    0.8561   -1.2833    1.7058 H   0  0  0  0  0  0  0  0  0  0  0  0
  1  2  1  0
  1  4  1  0
  1  5  1  0
  1  6  1  0
  2  3  1  0
  2  8  1  0
  3  9  1  0
  3 10  1  0
  7 11  1  0
 11 12  1  0
 11 13  1  0
 11 14  1  0
M  RAD  1   2   2
M  END
>  <reaction>  (12) 
rxn_115

>  <mol_properties>  (12) 
{"1": {"label": "*1", "atom_type": "Cs"}, "2": {"label": "*0", "atom_type": "N3s"}, "6": {"label": "*2", "atom_type": "H0"}, "10": {"label": "*3", "atom_type": "Cs"}, "11": {"label": "*4", "atom_type": "H0"}}

>  <type>  (12) 
unop_8

>  <geom_source>  (12) 
Heuristics

$$$$

     RDKit          3D

 14 12  0  0  0  0  0  0  0  0999 V2000
   -0.5298   -0.0154   -1.5253 C   0  0  0  0  0  0  0  0  0  0  0  0
   -0.5298   -0.0154   -0.0001 C   0  0  0  0  0  3  0  0  0  0  0  0
   -0.5298    1.2985    0.6294 N   0  0  0  0  0  0  0  0  0  0  0  0
    0.3536    0.4977   -1.9136 H   0  0  0  0  0  0  0  0  0  0  0  0
   -1.4132    0.4977   -1.9136 H   0  0  0  0  0  0  0  0  0  0  0  0
   -0.5298   -1.0332   -1.9226 H   0  0  0  0  0  0  0  0  0  0  0  0
    0.5182   -0.6696    0.4400 H   0  0  0  0  0  0  0  0  0  0  0  0
   -1.4031   -0.5606    0.3667 H   0  0  0  0  0  0  0  0  0  0  0  0
   -1.3424    1.8287    0.3418 H   0  0  0  0  0  0  0  0  0  0  0  0
    0.2828    1.8287    0.3418 H   0  0  0  0  0  0  0  0  0  0  0  0
    1.5623   -1.3215    0.8786 C   0  0  0  0  0  0  0  0  0  0  0  0
    1.8337   -2.0960    0.1629 H   0  0  0  0  0  0  0  0  0  0  0  0
    1.0274   -1.7706    1.7140 H   0  0  0  0  0  0  0  0  0  0  0  0
    2.0473   -0.4623    1.3395 H   0  0  0  0  0  0  0  0  0  0  0  0
  1  2  1  0
  1  4  1  0
  1  5  1  0
  1  6  1  0
  2  3  1  0
  2  8  1  0
  3  9  1  0
  3 10  1  0
  7 11  1  0
 11 12  1  0
 11 13  1  0
 11 14  1  0
M  RAD  1   2   2
M  END
>  <reaction>  (13) 
rxn_115

>  <mol_properties>  (13) 
{"1": {"label": "*1", "atom_type": "Cs"}, "2": {"label": "*0", "atom_type": "N3s"}, "6": {"label": "*2", "atom_type": "H0"}, "10": {"label": "*3", "atom_type": "Cs"}, "11": {"label": "*4", "atom_type": "H0"}}

>  <type>  (13) 
unop_9

>  <geom_source>  (13) 
Heuristics

$$$$

     RDKit          3D

 14 12  0  0  0  0  0  0  0  0999 V2000
   -0.5345   -0.0169   -1.5266 C   0  0  0  0  0  0  0  0  0  0  0  0
   -0.5345   -0.0169   -0.0013 C   0  0  0  0  0  3  0  0  0  0  0  0
   -0.5345    1.2970    0.6282 N   0  0  0  0  0  0  0  0  0  0  0  0
    0.3489    0.4963   -1.9148 H   0  0  0  0  0  0  0  0  0  0  0  0
   -1.4179    0.4963   -1.9148 H   0  0  0  0  0  0  0  0  0  0  0  0
   -0.5345   -1.0346   -1.9238 H   0  0  0  0  0  0  0  0  0  0  0  0
    0.5134   -0.6711    0.4388 H   0  0  0  0  0  0  0  0  0  0  0  0
   -1.4078   -0.5621    0.3655 H   0  0  0  0  0  0  0  0  0  0  0  0
   -1.3471    1.8273    0.3406 H   0  0  0  0  0  0  0  0  0  0  0  0
    0.2781    1.8273    0.3406 H   0  0  0  0  0  0  0  0  0  0  0  0
    1.5576   -1.3230    0.8774 C   0  0  0  0  0  0  0  0  0  0  0  0
    2.4646   -0.8410    0.5156 H   0  0  0  0  0  0  0  0  0  0  0  0
    1.7466   -2.3844    1.0299 H   0  0  0  0  0  0  0  0  0  0  0  0
    0.9655   -1.0203    1.7397 H   0  0  0  0  0  0  0  0  0  0  0  0
  1  2  1  0
  1  4  1  0
  1  5  1  0
  1  6  1  0
  2  3  1  0
  2  8  1  0
  3  9  1  0
  3 10  1  0
  7 11  1  0
 11 12  1  0
 11 13  1  0
 11 14  1  0
M  RAD  1   2   2
M  END
>  <reaction>  (14) 
rxn_115

>  <mol_properties>  (14) 
{"1": {"label": "*1", "atom_type": "Cs"}, "2": {"label": "*0", "atom_type": "N3s"}, "6": {"label": "*2", "atom_type": "H0"}, "10": {"label": "*3", "atom_type": "Cs"}, "11": {"label": "*4", "atom_type": "H0"}}

>  <type>  (14) 
unop_10

>  <geom_source>  (14) 
Heuristics

$$$$

     RDKit          3D

 14 12  0  0  0  0  0  0  0  0999 V2000
   -0.5410   -0.0167   -1.5307 C   0  0  0  0  0  0  0  0  0  0  0  0
   -0.5410   -0.0167   -0.0054 C   0  0  0  0  0  3  0  0  0  0  0  0
   -0.5410    1.2972    0.6240 N   0  0  0  0  0  0  0  0  0  0  0  0
    0.3424    0.4965   -1.9189 H   0  0  0  0  0  0  0  0  0  0  0  0
   -1.4244    0.4965   -1.9189 H   0  0  0  0  0  0  0  0  0  0  0  0
   -0.5410   -1.0344   -1.9280 H   0  0  0  0  0  0  0  0  0  0  0  0
    0.5070   -0.6709    0.4347 H   0  0  0  0  0  0  0  0  0  0  0  0
   -1.4143   -0.5619    0.3613 H   0  0  0  0  0  0  0  0  0  0  0  0
   -1.3536    1.8275    0.3364 H   0  0  0  0  0  0  0  0  0  0  0  0
    0.2716    1.8275    0.3364 H   0  0  0  0  0  0  0  0  0  0  0  0
    1.5511   -1.3228    0.8732 C   0  0  0  0  0  0  0  0  0  0  0  0
    1.3162   -1.7813    1.8326 H   0  0  0  0  0  0  0  0  0  0  0  0
    1.9882   -0.3392    1.0383 H   0  0  0  0  0  0  0  0  0  0  0  0
    2.2383   -2.1369    0.6482 H   0  0  0  0  0  0  0  0  0  0  0  0
  1  2  1  0
  1  4  1  0
  1  5  1  0
  1  6  1  0
  2  3  1  0
  2  8  1  0
  3  9  1  0
  3 10  1  0
  7 11  1  0
 11 12  1  0
 11 13  1  0
 11 14  1  0
M  RAD  1   2   2
M  END
>  <reaction>  (15) 
rxn_115

>  <mol_properties>  (15) 
{"1": {"label": "*1", "atom_type": "Cs"}, "2": {"label": "*0", "atom_type": "N3s"}, "6": {"label": "*2", "atom_type": "H0"}, "10": {"label": "*3", "atom_type": "Cs"}, "11": {"label": "*4", "atom_type": "H0"}}

>  <type>  (15) 
unop_11

>  <geom_source>  (15) 
Heuristics

$$$$

     RDKit          3D

 14 12  0  0  0  0  0  0  0  0999 V2000
   -0.5301   -0.0150   -1.5237 C   0  0  0  0  0  0  0  0  0  0  0  0
   -0.5301   -0.0150    0.0016 C   0  0  0  0  0  3  0  0  0  0  0  0
   -0.5301    1.2989    0.6311 N   0  0  0  0  0  0  0  0  0  0  0  0
    0.3533    0.4982   -1.9119 H   0  0  0  0  0  0  0  0  0  0  0  0
   -1.4135    0.4982   -1.9119 H   0  0  0  0  0  0  0  0  0  0  0  0
   -0.5301   -1.0327   -1.9209 H   0  0  0  0  0  0  0  0  0  0  0  0
    0.5178   -0.6692    0.4417 H   0  0  0  0  0  0  0  0  0  0  0  0
   -1.4034   -0.5602    0.3684 H   0  0  0  0  0  0  0  0  0  0  0  0
   -1.3427    1.8292    0.3435 H   0  0  0  0  0  0  0  0  0  0  0  0
    0.2825    1.8292    0.3435 H   0  0  0  0  0  0  0  0  0  0  0  0
    1.5620   -1.3210    0.8803 C   0  0  0  0  0  0  0  0  0  0  0  0
    2.1443   -1.6846    0.0350 H   0  0  0  0  0  0  0  0  0  0  0  0
    1.2351   -2.1651    1.4856 H   0  0  0  0  0  0  0  0  0  0  0  0
    1.5485   -0.5046    1.6007 H   0  0  0  0  0  0  0  0  0  0  0  0
  1  2  1  0
  1  4  1  0
  1  5  1  0
  1  6  1  0
  2  3  1  0
  2  8  1  0
  3  9  1  0
  3 10  1  0
  7 11  1  0
 11 12  1  0
 11 13  1  0
 11 14  1  0
M  RAD  1   2   2
M  END
>  <reaction>  (16) 
rxn_115

>  <mol_properties>  (16) 
{"1": {"label": "*1", "atom_type": "Cs"}, "2": {"label": "*0", "atom_type": "N3s"}, "6": {"label": "*2", "atom_type": "H0"}, "10": {"label": "*3", "atom_type": "Cs"}, "11": {"label": "*4", "atom_type": "H0"}}

>  <type>  (16) 
unop_12

>  <geom_source>  (16) 
Heuristics

$$$$

     RDKit          3D

 14 12  0  0  0  0  0  0  0  0999 V2000
   -0.8339    1.5043   -0.2696 N   0  0  0  0  0  0  0  0  0  0  0  0
   -1.5845   -0.7320    0.3831 C   0  0  0  0  0  0  0  0  0  0  0  0
    2.0642   -0.2957    0.2661 C   0  0  0  0  0  0  0  0  0  0  0  0
   -0.4655    0.0950   -0.2319 C   0  0  0  0  0  3  0  0  0  0  0  0
   -2.5038   -0.6547   -0.2354 H   0  0  0  0  0  0  0  0  0  0  0  0
   -1.7993   -0.3717    1.4111 H   0  0  0  0  0  0  0  0  0  0  0  0
   -1.2712   -1.7954    0.4344 H   0  0  0  0  0  0  0  0  0  0  0  0
    2.1575   -1.2861   -0.2249 H   0  0  0  0  0  0  0  0  0  0  0  0
    2.5338   -0.3352    1.2705 H   0  0  0  0  0  0  0  0  0  0  0  0
    2.5744    0.4724   -0.3507 H   0  0  0  0  0  0  0  0  0  0  0  0
    0.8653   -0.0032    0.3818 H   0  0  0  0  0  0  0  0  0  0  0  0
   -0.2278   -0.2743   -1.2544 H   0  0  0  0  0  0  0  0  0  0  0  0
   -1.5313    1.6387   -1.0376 H   0  0  0  0  0  0  0  0  0  0  0  0
    0.0221    2.0378   -0.5425 H   0  0  0  0  0  0  0  0  0  0  0  0
  1  4  1  0
  1 13  1  0
  1 14  1  0
  2  4  1  0
  2  5  1  0
  2  6  1  0
  2  7  1  0
  3  8  1  0
  3  9  1  0
  3 10  1  0
  3 11  1  0
  4 12  1  0
M  RAD  1   4   2
M  END
>  <reaction>  (17) 
rxn_115

>  <mol_properties>  (17) 
{"1": {"label": "*1", "atom_type": "Cs"}, "2": {"label": "*0", "atom_type": "N3s"}, "6": {"label": "*2", "atom_type": "H0"}, "10": {"label": "*3", "atom_type": "Cs"}, "11": {"label": "*4", "atom_type": "H0"}}

>  <type>  (17) 
unop_13

>  <geom_source>  (17) 
AutoTST

$$$$

     RDKit          3D

 14 12  0  0  0  0  0  0  0  0999 V2000
   -0.5325   -0.0155   -1.5239 C   0  0  0  0  0  0  0  0  0  0  0  0
   -0.5325   -0.0155    0.0014 C   0  0  0  0  0  3  0  0  0  0  0  0
   -0.5325    1.2983    0.6309 N   0  0  0  0  0  0  0  0  0  0  0  0
    0.3508    0.4976   -1.9121 H   0  0  0  0  0  0  0  0  0  0  0  0
   -1.4159    0.4976   -1.9121 H   0  0  0  0  0  0  0  0  0  0  0  0
   -0.5325   -1.0333   -1.9211 H   0  0  0  0  0  0  0  0  0  0  0  0
    0.5154   -0.6698    0.4415 H   0  0  0  0  0  0  0  0  0  0  0  0
   -1.4058   -0.5607    0.3682 H   0  0  0  0  0  0  0  0  0  0  0  0
   -1.3451    1.8286    0.3432 H   0  0  0  0  0  0  0  0  0  0  0  0
    0.2801    1.8286    0.3432 H   0  0  0  0  0  0  0  0  0  0  0  0
    1.5596   -1.3216    0.8800 C   0  0  0  0  0  0  0  0  0  0  0  0
    2.3746   -1.2252    0.1643 H   0  0  0  0  0  0  0  0  0  0  0  0
    1.5176   -2.3461    1.2466 H   0  0  0  0  0  0  0  0  0  0  0  0
    1.1718   -0.7504    1.7222 H   0  0  0  0  0  0  0  0  0  0  0  0
  1  2  1  0
  1  4  1  0
  1  5  1  0
  1  6  1  0
  2  3  1  0
  2  8  1  0
  3  9  1  0
  3 10  1  0
  7 11  1  0
 11 12  1  0
 11 13  1  0
 11 14  1  0
M  RAD  1   2   2
M  END
>  <reaction>  (18) 
rxn_115

>  <mol_properties>  (18) 
{"1": {"label": "*1", "atom_type": "Cs"}, "2": {"label": "*0", "atom_type": "N3s"}, "6": {"label": "*2", "atom_type": "H0"}, "10": {"label": "*3", "atom_type": "Cs"}, "11": {"label": "*4", "atom_type": "H0"}}

>  <type>  (18) 
unop_14

>  <geom_source>  (18) 
gaussian_log

$$$$
