
     RDKit          3D

  9  8  0  0  0  0  0  0  0  0999 V2000
    1.1303   -0.2933   -0.7510 C   0  0  0  0  0  0  0  0  0  0  0  0
    0.2866    0.4560   -0.0588 C   0  0  0  0  0  0  0  0  0  0  0  0
   -0.9719   -0.0331    0.5823 C   0  0  0  0  0  0  0  0  0  0  0  0
    2.0274    0.1230   -1.1916 H   0  0  0  0  0  0  0  0  0  0  0  0
    0.9532   -1.3530   -0.9023 H   0  0  0  0  0  0  0  0  0  0  0  0
    0.5065    1.5132    0.0659 H   0  0  0  0  0  0  0  0  0  0  0  0
   -0.9526    0.1426    1.6610 H   0  0  0  0  0  0  0  0  0  0  0  0
   -1.1182   -1.1002    0.4106 H   0  0  0  0  0  0  0  0  0  0  0  0
   -1.8412    0.5010    0.1901 H   0  0  0  0  0  0  0  0  0  0  0  0
  1  2  2  3
  1  4  1  0
  1  5  1  0
  2  3  1  0
  2  6  1  0
  3  7  1  0
  3  8  1  0
  3  9  1  0
M  END
>  <reaction>  (1) 
rxn_1006

>  <mol_properties>  (1) 
{"2": {"label": "donator", "atom_type": "Cs"}, "6": {"label": "d_hydrogen", "atom_type": "H0"}}

>  <type>  (1) 
r1h

$$$$

     RDKit          3D

 12 11  0  0  0  0  0  0  0  0999 V2000
    2.5164   -0.5559   -0.0242 C   0  0  0  0  0  0  0  0  0  0  0  0
    1.3287   -0.2938   -0.0132 C   0  0  0  0  0  0  0  0  0  0  0  0
   -0.0146    0.0027   -0.0006 C   0  0  0  0  0  3  0  0  0  0  0  0
   -1.0396   -1.0729   -0.1642 C   0  0  0  0  0  0  0  0  0  0  0  0
   -0.4887    1.4091    0.1769 C   0  0  0  0  0  0  0  0  0  0  0  0
    3.5543   -0.7850   -0.0339 H   0  0  0  0  0  0  0  0  0  0  0  0
   -1.7064   -1.1056    0.7044 H   0  0  0  0  0  0  0  0  0  0  0  0
   -0.5831   -2.0533   -0.2854 H   0  0  0  0  0  0  0  0  0  0  0  0
   -1.6716   -0.8741   -1.0367 H   0  0  0  0  0  0  0  0  0  0  0  0
   -1.0951    1.7228   -0.6798 H   0  0  0  0  0  0  0  0  0  0  0  0
    0.3401    2.1059    0.2861 H   0  0  0  0  0  0  0  0  0  0  0  0
   -1.1300    1.4913    1.0613 H   0  0  0  0  0  0  0  0  0  0  0  0
  1  2  3  0
  1  6  1  0
  2  3  1  0
  3  4  1  0
  3  5  1  0
  4  7  1  0
  4  8  1  0
  4  9  1  0
  5 10  1  0
  5 11  1  0
  5 12  1  0
M  RAD  1   3   2
M  END
>  <reaction>  (2) 
rxn_1006

>  <mol_properties>  (2) 
{"2": {"label": "acceptor", "atom_type": "Cs"}}

>  <type>  (2) 
r2

$$$$

     RDKit          3D

 13 12  0  0  0  0  0  0  0  0999 V2000
    2.2975   -0.6134    0.7685 C   0  0  0  0  0  0  0  0  0  0  0  0
    1.1676   -0.5248    0.3802 C   0  0  0  0  0  0  0  0  0  0  0  0
   -0.2109   -0.3926   -0.0948 C   0  0  0  0  0  0  0  0  0  0  0  0
   -0.2501    0.2584   -1.4808 C   0  0  0  0  0  0  0  0  0  0  0  0
   -1.0633    0.3831    0.9141 C   0  0  0  0  0  0  0  0  0  0  0  0
    3.2999   -0.6974    1.1133 H   0  0  0  0  0  0  0  0  0  0  0  0
   -0.6209   -1.4038   -0.1814 H   0  0  0  0  0  0  0  0  0  0  0  0
    0.3402   -0.3102   -2.1992 H   0  0  0  0  0  0  0  0  0  0  0  0
    0.1511    1.2724   -1.4369 H   0  0  0  0  0  0  0  0  0  0  0  0
   -1.2791    0.3109   -1.8407 H   0  0  0  0  0  0  0  0  0  0  0  0
   -0.6861    1.4008    1.0287 H   0  0  0  0  0  0  0  0  0  0  0  0
   -1.0492   -0.0971    1.8924 H   0  0  0  0  0  0  0  0  0  0  0  0
   -2.0971    0.4363    0.5680 H   0  0  0  0  0  0  0  0  0  0  0  0
  1  2  3  0
  1  6  1  0
  2  3  1  0
  3  4  1  0
  3  5  1  0
  3  7  1  0
  4  8  1  0
  4  9  1  0
  4 10  1  0
  5 11  1  0
  5 12  1  0
  5 13  1  0
M  END
>  <reaction>  (3) 
rxn_1006

>  <mol_properties>  (3) 
{"2": {"label": "acceptor", "atom_type": "Cs"}, "12": {"label": "a_hydrogen", "atom_type": "H0"}}

>  <type>  (3) 
r2h

$$$$

     RDKit          3D

 21 19  0  0  0  0  0  0  0  0999 V2000
   -1.5622   -2.0424    0.8138 C   0  0  0  0  0  0  0  0  0  0  0  0
   -1.1178   -0.9276    0.8948 C   0  0  0  0  0  0  0  0  0  0  0  0
   -0.5300    0.3743    0.9501 C   0  0  0  0  0  0  0  0  0  0  0  0
   -0.1431    0.8518    2.3338 C   0  0  0  0  0  0  0  0  0  0  0  0
   -1.1937    1.4111    0.0686 C   0  0  0  0  0  0  0  0  0  0  0  0
   -1.9723   -3.0213    0.7512 H   0  0  0  0  0  0  0  0  0  0  0  0
    0.4824    1.7441    2.2626 H   0  0  0  0  0  0  0  0  0  0  0  0
    0.4071    0.0833    2.8768 H   0  0  0  0  0  0  0  0  0  0  0  0
   -1.0310    1.1088    2.9191 H   0  0  0  0  0  0  0  0  0  0  0  0
   -2.1840    1.6734    0.4520 H   0  0  0  0  0  0  0  0  0  0  0  0
   -1.3094    1.0386   -0.9495 H   0  0  0  0  0  0  0  0  0  0  0  0
   -0.5902    2.3207    0.0392 H   0  0  0  0  0  0  0  0  0  0  0  0
    1.2003    0.1297   -2.7419 C   0  0  0  0  0  0  0  0  0  0  0  0
    1.4767   -0.5280   -1.6096 C   0  0  0  0  0  0  0  0  0  0  0  0
    1.8088    0.1008   -0.3477 C   0  0  0  0  0  3  0  0  0  0  0  0
    0.9173   -0.3941   -3.6453 H   0  0  0  0  0  0  0  0  0  0  0  0
    1.2605    1.2115   -2.7942 H   0  0  0  0  0  0  0  0  0  0  0  0
    1.3968   -1.6110   -1.6054 H   0  0  0  0  0  0  0  0  0  0  0  0
    0.6434    0.1913    0.3327 H   0  0  0  0  0  0  0  0  0  0  0  0
    2.1174    1.1430   -0.3994 H   0  0  0  0  0  0  0  0  0  0  0  0
    2.3962   -0.4902    0.3499 H   0  0  0  0  0  0  0  0  0  0  0  0
  1  2  3  0
  1  6  1  0
  2  3  1  0
  3  4  1  0
  3  5  1  0
  3 19  1  0
  4  7  1  0
  4  8  1  0
  4  9  1  0
  5 10  1  0
  5 11  1  0
  5 12  1  0
 13 14  2  3
 13 16  1  0
 13 17  1  0
 14 15  1  0
 14 18  1  0
 15 20  1  0
 15 21  1  0
M  RAD  1  15   2
M  END
>  <reaction>  (4) 
rxn_1006

>  <mol_properties>  (4) 
{"1": {"label": "*0", "atom_type": "Ct"}, "2": {"label": "*1", "atom_type": "Cs"}, "13": {"label": "*4", "atom_type": "Cd"}, "14": {"label": "*3", "atom_type": "Cs"}, "18": {"label": "*2", "atom_type": "H0"}}

>  <type>  (4) 
ts

$$$$

     RDKit          3D

 21 19  0  0  0  0  0  0  0  0999 V2000
    0.0946    0.2326    3.1380 C   0  0  0  0  0  0  0  0  0  0  0  0
   -0.2894    0.2078    2.0034 C   0  0  0  0  0  0  0  0  0  0  0  0
   -0.7763    0.1925    0.6228 C   0  0  0  0  0  3  0  0  0  0  0  0
   -0.7057    1.5920    0.0041 C   0  0  0  0  0  0  0  0  0  0  0  0
   -2.1943   -0.3821    0.5510 C   0  0  0  0  0  0  0  0  0  0  0  0
    0.4353    0.2546    4.1450 H   0  0  0  0  0  0  0  0  0  0  0  0
   -1.0302    1.5576   -1.0374 H   0  0  0  0  0  0  0  0  0  0  0  0
    0.3098    1.9863    0.0383 H   0  0  0  0  0  0  0  0  0  0  0  0
   -1.3570    2.2808    0.5448 H   0  0  0  0  0  0  0  0  0  0  0  0
   -2.8896    0.2485    1.1078 H   0  0  0  0  0  0  0  0  0  0  0  0
   -2.2335   -1.3864    0.9726 H   0  0  0  0  0  0  0  0  0  0  0  0
   -2.5275   -0.4279   -0.4873 H   0  0  0  0  0  0  0  0  0  0  0  0
    1.3317   -1.0708   -3.1255 C   0  0  0  0  0  0  0  0  0  0  0  0
    1.3317   -1.0708   -1.8017 C   0  0  0  0  0  0  0  0  0  0  0  0
    1.3317    0.1514   -0.9412 C   0  0  0  0  0  0  0  0  0  0  0  0
    1.3317   -1.9935   -3.6920 H   0  0  0  0  0  0  0  0  0  0  0  0
    1.3317   -0.1452   -3.6915 H   0  0  0  0  0  0  0  0  0  0  0  0
    1.3317   -2.0234   -1.2782 H   0  0  0  0  0  0  0  0  0  0  0  0
    0.2785    0.1720   -0.1598 H   0  0  0  0  0  0  0  0  0  0  0  0
    1.3317    1.0619   -1.5418 H   0  0  0  0  0  0  0  0  0  0  0  0
    2.2095    0.1685   -0.2900 H   0  0  0  0  0  0  0  0  0  0  0  0
  1  2  3  0
  1  6  1  0
  2  3  1  0
  3  4  1  0
  3  5  1  0
  4  7  1  0
  4  8  1  0
  4  9  1  0
  5 10  1  0
  5 11  1  0
  5 12  1  0
 13 14  2  3
 13 16  1  0
 13 17  1  0
 14 15  1  0
 14 18  1  0
 15 19  1  0
 15 20  1  0
 15 21  1  0
M  RAD  1   3   2
M  END
>  <reaction>  (5) 
rxn_1006

>  <mol_properties>  (5) 
{"1": {"label": "*0", "atom_type": "Ct"}, "2": {"label": "*1", "atom_type": "Cs"}, "13": {"label": "*4", "atom_type": "Cd"}, "14": {"label": "*3", "atom_type": "Cs"}, "18": {"label": "*2", "atom_type": "H0"}}

>  <type>  (5) 
unop_1

>  <geom_source>  (5) 
Heuristics

$$$$

     RDKit          3D

 21 19  0  0  0  0  0  0  0  0999 V2000
   -1.2880   -1.9504    1.2863 C   0  0  0  0  0  0  0  0  0  0  0  0
   -0.9835   -0.8172    1.0441 C   0  0  0  0  0  0  0  0  0  0  0  0
   -0.6243    0.5747    0.7670 C   0  0  0  0  0  3  0  0  0  0  0  0
    0.1704    1.1749    1.9307 C   0  0  0  0  0  0  0  0  0  0  0  0
   -1.8706    1.4068    0.4499 C   0  0  0  0  0  0  0  0  0  0  0  0
   -1.5582   -2.9561    1.5013 H   0  0  0  0  0  0  0  0  0  0  0  0
    0.4686    2.1974    1.6924 H   0  0  0  0  0  0  0  0  0  0  0  0
    1.0673    0.5911    2.1370 H   0  0  0  0  0  0  0  0  0  0  0  0
   -0.4380    1.1963    2.8366 H   0  0  0  0  0  0  0  0  0  0  0  0
   -2.5392    1.4350    1.3121 H   0  0  0  0  0  0  0  0  0  0  0  0
   -2.4197    0.9873   -0.3929 H   0  0  0  0  0  0  0  0  0  0  0  0
   -1.5843    2.4307    0.2031 H   0  0  0  0  0  0  0  0  0  0  0  0
    1.4838   -0.6886   -2.9814 C   0  0  0  0  0  0  0  0  0  0  0  0
    1.4838   -0.6886   -1.6576 C   0  0  0  0  0  0  0  0  0  0  0  0
    1.4838    0.5336   -0.7971 C   0  0  0  0  0  0  0  0  0  0  0  0
    1.4838   -1.6113   -3.5479 H   0  0  0  0  0  0  0  0  0  0  0  0
    1.4838    0.2370   -3.5474 H   0  0  0  0  0  0  0  0  0  0  0  0
    1.4838   -1.6412   -1.1341 H   0  0  0  0  0  0  0  0  0  0  0  0
    0.4305    0.5541   -0.0157 H   0  0  0  0  0  0  0  0  0  0  0  0
    1.4838    1.4440   -1.3977 H   0  0  0  0  0  0  0  0  0  0  0  0
    2.3615    0.5507   -0.1459 H   0  0  0  0  0  0  0  0  0  0  0  0
  1  2  3  0
  1  6  1  0
  2  3  1  0
  3  4  1  0
  3  5  1  0
  4  7  1  0
  4  8  1  0
  4  9  1  0
  5 10  1  0
  5 11  1  0
  5 12  1  0
 13 14  2  3
 13 16  1  0
 13 17  1  0
 14 15  1  0
 14 18  1  0
 15 19  1  0
 15 20  1  0
 15 21  1  0
M  RAD  1   3   2
M  END
>  <reaction>  (6) 
rxn_1006

>  <mol_properties>  (6) 
{"1": {"label": "*0", "atom_type": "Ct"}, "2": {"label": "*1", "atom_type": "Cs"}, "13": {"label": "*4", "atom_type": "Cd"}, "14": {"label": "*3", "atom_type": "Cs"}, "18": {"label": "*2", "atom_type": "H0"}}

>  <type>  (6) 
unop_2

>  <geom_source>  (6) 
Heuristics

$$$$

     RDKit          3D

 21 19  0  0  0  0  0  0  0  0999 V2000
   -0.0353    1.4080    2.9020 C   0  0  0  0  0  0  0  0  0  0  0  0
   -0.3288    0.8190    1.9008 C   0  0  0  0  0  0  0  0  0  0  0  0
   -0.7102    0.1055    0.6807 C   0  0  0  0  0  3  0  0  0  0  0  0
   -1.2960    1.0704   -0.3547 C   0  0  0  0  0  0  0  0  0  0  0  0
   -1.6817   -1.0356    0.9974 C   0  0  0  0  0  0  0  0  0  0  0  0
    0.2252    1.9308    3.7905 H   0  0  0  0  0  0  0  0  0  0  0  0
   -1.5353    0.5328   -1.2740 H   0  0  0  0  0  0  0  0  0  0  0  0
   -0.5916    1.8675   -0.5922 H   0  0  0  0  0  0  0  0  0  0  0  0
   -2.2117    1.5268    0.0251 H   0  0  0  0  0  0  0  0  0  0  0  0
   -2.6087   -0.6413    1.4171 H   0  0  0  0  0  0  0  0  0  0  0  0
   -1.2506   -1.7307    1.7178 H   0  0  0  0  0  0  0  0  0  0  0  0
   -1.9232   -1.5854    0.0860 H   0  0  0  0  0  0  0  0  0  0  0  0
    1.3978   -1.1578   -3.0676 C   0  0  0  0  0  0  0  0  0  0  0  0
    1.3978   -1.1578   -1.7439 C   0  0  0  0  0  0  0  0  0  0  0  0
    1.3978    0.0644   -0.8834 C   0  0  0  0  0  0  0  0  0  0  0  0
    1.3978   -2.0805   -3.6341 H   0  0  0  0  0  0  0  0  0  0  0  0
    1.3978   -0.2322   -3.6336 H   0  0  0  0  0  0  0  0  0  0  0  0
    1.3978   -2.1104   -1.2204 H   0  0  0  0  0  0  0  0  0  0  0  0
    0.3446    0.0849   -0.1019 H   0  0  0  0  0  0  0  0  0  0  0  0
    1.3978    0.9748   -1.4840 H   0  0  0  0  0  0  0  0  0  0  0  0
    2.2755    0.0815   -0.2321 H   0  0  0  0  0  0  0  0  0  0  0  0
  1  2  3  0
  1  6  1  0
  2  3  1  0
  3  4  1  0
  3  5  1  0
  4  7  1  0
  4  8  1  0
  4  9  1  0
  5 10  1  0
  5 11  1  0
  5 12  1  0
 13 14  2  3
 13 16  1  0
 13 17  1  0
 14 15  1  0
 14 18  1  0
 15 19  1  0
 15 20  1  0
 15 21  1  0
M  RAD  1   3   2
M  END
>  <reaction>  (7) 
rxn_1006

>  <mol_properties>  (7) 
{"1": {"label": "*0", "atom_type": "Ct"}, "2": {"label": "*1", "atom_type": "Cs"}, "13": {"label": "*4", "atom_type": "Cd"}, "14": {"label": "*3", "atom_type": "Cs"}, "18": {"label": "*2", "atom_type": "H0"}}

>  <type>  (7) 
unop_3

>  <geom_source>  (7) 
Heuristics

$$$$

     RDKit          3D

 21 19  0  0  0  0  0  0  0  0999 V2000
   -2.6028    0.2207   -0.5150 C   0  0  0  0  0  0  0  0  0  0  0  0
   -1.6272    0.2116    0.1804 C   0  0  0  0  0  0  0  0  0  0  0  0
   -0.4469    0.2133    1.0465 C   0  0  0  0  0  3  0  0  0  0  0  0
   -0.7432   -0.4918    2.3736 C   0  0  0  0  0  0  0  0  0  0  0  0
    0.0630    1.6402    1.2706 C   0  0  0  0  0  0  0  0  0  0  0  0
   -3.4686    0.2288   -1.1321 H   0  0  0  0  0  0  0  0  0  0  0  0
    0.1565   -0.5214    2.9908 H   0  0  0  0  0  0  0  0  0  0  0  0
   -1.0844   -1.5137    2.2084 H   0  0  0  0  0  0  0  0  0  0  0  0
   -1.5201    0.0421    2.9235 H   0  0  0  0  0  0  0  0  0  0  0  0
   -0.6901    2.2371    1.7879 H   0  0  0  0  0  0  0  0  0  0  0  0
    0.2930    2.1289    0.3239 H   0  0  0  0  0  0  0  0  0  0  0  0
    0.9674    1.6230    1.8814 H   0  0  0  0  0  0  0  0  0  0  0  0
    1.6612   -1.0499   -2.7018 C   0  0  0  0  0  0  0  0  0  0  0  0
    1.6612   -1.0499   -1.3781 C   0  0  0  0  0  0  0  0  0  0  0  0
    1.6612    0.1722   -0.5175 C   0  0  0  0  0  0  0  0  0  0  0  0
    1.6612   -1.9727   -3.2683 H   0  0  0  0  0  0  0  0  0  0  0  0
    1.6612   -0.1243   -3.2678 H   0  0  0  0  0  0  0  0  0  0  0  0
    1.6612   -2.0026   -0.8545 H   0  0  0  0  0  0  0  0  0  0  0  0
    0.6079    0.1928    0.2639 H   0  0  0  0  0  0  0  0  0  0  0  0
    1.6612    1.0827   -1.1181 H   0  0  0  0  0  0  0  0  0  0  0  0
    2.5389    0.1894    0.1337 H   0  0  0  0  0  0  0  0  0  0  0  0
  1  2  3  0
  1  6  1  0
  2  3  1  0
  3  4  1  0
  3  5  1  0
  4  7  1  0
  4  8  1  0
  4  9  1  0
  5 10  1  0
  5 11  1  0
  5 12  1  0
 13 14  2  3
 13 16  1  0
 13 17  1  0
 14 15  1  0
 14 18  1  0
 15 19  1  0
 15 20  1  0
 15 21  1  0
M  RAD  1   3   2
M  END
>  <reaction>  (8) 
rxn_1006

>  <mol_properties>  (8) 
{"1": {"label": "*0", "atom_type": "Ct"}, "2": {"label": "*1", "atom_type": "Cs"}, "13": {"label": "*4", "atom_type": "Cd"}, "14": {"label": "*3", "atom_type": "Cs"}, "18": {"label": "*2", "atom_type": "H0"}}

>  <type>  (8) 
unop_4

>  <geom_source>  (8) 
Heuristics

$$$$

     RDKit          3D

 21 19  0  0  0  0  0  0  0  0999 V2000
   -0.5308    2.3078    2.1806 C   0  0  0  0  0  0  0  0  0  0  0  0
   -0.5803    1.3123    1.5157 C   0  0  0  0  0  0  0  0  0  0  0  0
   -0.6612    0.0900    0.7140 C   0  0  0  0  0  3  0  0  0  0  0  0
   -1.9116    0.0999   -0.1707 C   0  0  0  0  0  0  0  0  0  0  0  0
   -0.6160   -1.1527    1.6084 C   0  0  0  0  0  0  0  0  0  0  0  0
   -0.4870    3.1912    2.7707 H   0  0  0  0  0  0  0  0  0  0  0  0
   -1.9363   -0.7959   -0.7938 H   0  0  0  0  0  0  0  0  0  0  0  0
   -1.9269    0.9749   -0.8202 H   0  0  0  0  0  0  0  0  0  0  0  0
   -2.8131    0.1162    0.4442 H   0  0  0  0  0  0  0  0  0  0  0  0
   -1.4794   -1.1734    2.2757 H   0  0  0  0  0  0  0  0  0  0  0  0
    0.2865   -1.1651    2.2192 H   0  0  0  0  0  0  0  0  0  0  0  0
   -0.6333   -2.0557    0.9956 H   0  0  0  0  0  0  0  0  0  0  0  0
    1.4469   -1.1733   -3.0343 C   0  0  0  0  0  0  0  0  0  0  0  0
    1.4469   -1.1733   -1.7105 C   0  0  0  0  0  0  0  0  0  0  0  0
    1.4469    0.0489   -0.8500 C   0  0  0  0  0  0  0  0  0  0  0  0
    1.4469   -2.0960   -3.6008 H   0  0  0  0  0  0  0  0  0  0  0  0
    1.4469   -0.2477   -3.6003 H   0  0  0  0  0  0  0  0  0  0  0  0
    1.4469   -2.1259   -1.1870 H   0  0  0  0  0  0  0  0  0  0  0  0
    0.3936    0.0694   -0.0686 H   0  0  0  0  0  0  0  0  0  0  0  0
    1.4469    0.9594   -1.4506 H   0  0  0  0  0  0  0  0  0  0  0  0
    2.3246    0.0660   -0.1988 H   0  0  0  0  0  0  0  0  0  0  0  0
  1  2  3  0
  1  6  1  0
  2  3  1  0
  3  4  1  0
  3  5  1  0
  4  7  1  0
  4  8  1  0
  4  9  1  0
  5 10  1  0
  5 11  1  0
  5 12  1  0
 13 14  2  3
 13 16  1  0
 13 17  1  0
 14 15  1  0
 14 18  1  0
 15 19  1  0
 15 20  1  0
 15 21  1  0
M  RAD  1   3   2
M  END
>  <reaction>  (9) 
rxn_1006

>  <mol_properties>  (9) 
{"1": {"label": "*0", "atom_type": "Ct"}, "2": {"label": "*1", "atom_type": "Cs"}, "13": {"label": "*4", "atom_type": "Cd"}, "14": {"label": "*3", "atom_type": "Cs"}, "18": {"label": "*2", "atom_type": "H0"}}

>  <type>  (9) 
unop_5

>  <geom_source>  (9) 
Heuristics

$$$$

     RDKit          3D

 21 19  0  0  0  0  0  0  0  0999 V2000
   -2.4514    1.3540   -0.3213 C   0  0  0  0  0  0  0  0  0  0  0  0
   -1.5764    0.7737    0.2557 C   0  0  0  0  0  0  0  0  0  0  0  0
   -0.5140    0.0750    0.9813 C   0  0  0  0  0  3  0  0  0  0  0  0
   -1.1020   -0.8560    2.0461 C   0  0  0  0  0  0  0  0  0  0  0  0
    0.4761    1.0716    1.5917 C   0  0  0  0  0  0  0  0  0  0  0  0
   -3.2280    1.8691   -0.8334 H   0  0  0  0  0  0  0  0  0  0  0  0
   -0.3019   -1.4021    2.5489 H   0  0  0  0  0  0  0  0  0  0  0  0
   -1.7886   -1.5769    1.6025 H   0  0  0  0  0  0  0  0  0  0  0  0
   -1.6490   -0.2806    2.7950 H   0  0  0  0  0  0  0  0  0  0  0  0
   -0.0244    1.7038    2.3272 H   0  0  0  0  0  0  0  0  0  0  0  0
    0.9075    1.7164    0.8261 H   0  0  0  0  0  0  0  0  0  0  0  0
    1.2853    0.5366    2.0918 H   0  0  0  0  0  0  0  0  0  0  0  0
    1.5941   -1.1883   -2.7671 C   0  0  0  0  0  0  0  0  0  0  0  0
    1.5941   -1.1883   -1.4433 C   0  0  0  0  0  0  0  0  0  0  0  0
    1.5941    0.0339   -0.5828 C   0  0  0  0  0  0  0  0  0  0  0  0
    1.5941   -2.1111   -3.3336 H   0  0  0  0  0  0  0  0  0  0  0  0
    1.5941   -0.2627   -3.3331 H   0  0  0  0  0  0  0  0  0  0  0  0
    1.5941   -2.1410   -0.9198 H   0  0  0  0  0  0  0  0  0  0  0  0
    0.5408    0.0544    0.1986 H   0  0  0  0  0  0  0  0  0  0  0  0
    1.5941    0.9443   -1.1834 H   0  0  0  0  0  0  0  0  0  0  0  0
    2.4718    0.0510    0.0684 H   0  0  0  0  0  0  0  0  0  0  0  0
  1  2  3  0
  1  6  1  0
  2  3  1  0
  3  4  1  0
  3  5  1  0
  4  7  1  0
  4  8  1  0
  4  9  1  0
  5 10  1  0
  5 11  1  0
  5 12  1  0
 13 14  2  3
 13 16  1  0
 13 17  1  0
 14 15  1  0
 14 18  1  0
 15 19  1  0
 15 20  1  0
 15 21  1  0
M  RAD  1   3   2
M  END
>  <reaction>  (10) 
rxn_1006

>  <mol_properties>  (10) 
{"1": {"label": "*0", "atom_type": "Ct"}, "2": {"label": "*1", "atom_type": "Cs"}, "13": {"label": "*4", "atom_type": "Cd"}, "14": {"label": "*3", "atom_type": "Cs"}, "18": {"label": "*2", "atom_type": "H0"}}

>  <type>  (10) 
unop_6

>  <geom_source>  (10) 
Heuristics

$$$$

     RDKit          3D

 21 19  0  0  0  0  0  0  0  0999 V2000
   -1.9714    2.2301    0.3010 C   0  0  0  0  0  0  0  0  0  0  0  0
   -1.3513    1.2345    0.5452 C   0  0  0  0  0  0  0  0  0  0  0  0
   -0.5986    0.0207    0.8669 C   0  0  0  0  0  3  0  0  0  0  0  0
   -1.5135   -1.0404    1.4859 C   0  0  0  0  0  0  0  0  0  0  0  0
    0.5881    0.3410    1.7808 C   0  0  0  0  0  0  0  0  0  0  0  0
   -2.5218    3.1137    0.0842 H   0  0  0  0  0  0  0  0  0  0  0  0
   -0.9491   -1.9541    1.6802 H   0  0  0  0  0  0  0  0  0  0  0  0
   -2.3436   -1.2800    0.8215 H   0  0  0  0  0  0  0  0  0  0  0  0
   -1.9259   -0.6832    2.4312 H   0  0  0  0  0  0  0  0  0  0  0  0
    0.2377    0.7389    2.7348 H   0  0  0  0  0  0  0  0  0  0  0  0
    1.2471    1.0801    1.3253 H   0  0  0  0  0  0  0  0  0  0  0  0
    1.1648   -0.5647    1.9768 H   0  0  0  0  0  0  0  0  0  0  0  0
    1.5095   -1.2426   -2.8815 C   0  0  0  0  0  0  0  0  0  0  0  0
    1.5095   -1.2426   -1.5577 C   0  0  0  0  0  0  0  0  0  0  0  0
    1.5095   -0.0204   -0.6972 C   0  0  0  0  0  0  0  0  0  0  0  0
    1.5095   -2.1653   -3.4479 H   0  0  0  0  0  0  0  0  0  0  0  0
    1.5095   -0.3170   -3.4475 H   0  0  0  0  0  0  0  0  0  0  0  0
    1.5095   -2.1952   -1.0342 H   0  0  0  0  0  0  0  0  0  0  0  0
    0.4562    0.0001    0.0843 H   0  0  0  0  0  0  0  0  0  0  0  0
    1.5095    0.8901   -1.2978 H   0  0  0  0  0  0  0  0  0  0  0  0
    2.3872   -0.0033   -0.0460 H   0  0  0  0  0  0  0  0  0  0  0  0
  1  2  3  0
  1  6  1  0
  2  3  1  0
  3  4  1  0
  3  5  1  0
  4  7  1  0
  4  8  1  0
  4  9  1  0
  5 10  1  0
  5 11  1  0
  5 12  1  0
 13 14  2  3
 13 16  1  0
 13 17  1  0
 14 15  1  0
 14 18  1  0
 15 19  1  0
 15 20  1  0
 15 21  1  0
M  RAD  1   3   2
M  END
>  <reaction>  (11) 
rxn_1006

>  <mol_properties>  (11) 
{"1": {"label": "*0", "atom_type": "Ct"}, "2": {"label": "*1", "atom_type": "Cs"}, "13": {"label": "*4", "atom_type": "Cd"}, "14": {"label": "*3", "atom_type": "Cs"}, "18": {"label": "*2", "atom_type": "H0"}}

>  <type>  (11) 
unop_7

>  <geom_source>  (11) 
Heuristics

$$$$

     RDKit          3D

 21 19  0  0  0  0  0  0  0  0999 V2000
   -0.1302   -0.8902    2.8662 C   0  0  0  0  0  0  0  0  0  0  0  0
   -0.4218   -0.3426    1.8412 C   0  0  0  0  0  0  0  0  0  0  0  0
   -0.7908    0.3426    0.6012 C   0  0  0  0  0  3  0  0  0  0  0  0
   -0.2533    1.7769    0.5900 C   0  0  0  0  0  0  0  0  0  0  0  0
   -2.3076    0.3097    0.3905 C   0  0  0  0  0  0  0  0  0  0  0  0
    0.1286   -1.3762    3.7758 H   0  0  0  0  0  0  0  0  0  0  0  0
   -0.4980    2.2609   -0.3572 H   0  0  0  0  0  0  0  0  0  0  0  0
    0.8289    1.7924    0.7182 H   0  0  0  0  0  0  0  0  0  0  0  0
   -0.7006    2.3576    1.3986 H   0  0  0  0  0  0  0  0  0  0  0  0
   -2.8154    0.8471    1.1933 H   0  0  0  0  0  0  0  0  0  0  0  0
   -2.6808   -0.7143    0.3774 H   0  0  0  0  0  0  0  0  0  0  0  0
   -2.5642    0.7852   -0.5578 H   0  0  0  0  0  0  0  0  0  0  0  0
    1.3173   -0.9207   -3.1471 C   0  0  0  0  0  0  0  0  0  0  0  0
    1.3173   -0.9207   -1.8234 C   0  0  0  0  0  0  0  0  0  0  0  0
    1.3173    0.3014   -0.9629 C   0  0  0  0  0  0  0  0  0  0  0  0
    1.3173   -1.8435   -3.7136 H   0  0  0  0  0  0  0  0  0  0  0  0
    1.3173    0.0049   -3.7131 H   0  0  0  0  0  0  0  0  0  0  0  0
    1.3173   -1.8734   -1.2999 H   0  0  0  0  0  0  0  0  0  0  0  0
    0.2640    0.3220   -0.1814 H   0  0  0  0  0  0  0  0  0  0  0  0
    1.3173    1.2119   -1.5635 H   0  0  0  0  0  0  0  0  0  0  0  0
    2.1950    0.3186   -0.3117 H   0  0  0  0  0  0  0  0  0  0  0  0
  1  2  3  0
  1  6  1  0
  2  3  1  0
  3  4  1  0
  3  5  1  0
  4  7  1  0
  4  8  1  0
  4  9  1  0
  5 10  1  0
  5 11  1  0
  5 12  1  0
 13 14  2  3
 13 16  1  0
 13 17  1  0
 14 15  1  0
 14 18  1  0
 15 19  1  0
 15 20  1  0
 15 21  1  0
M  RAD  1   3   2
M  END
>  <reaction>  (12) 
rxn_1006

>  <mol_properties>  (12) 
{"1": {"label": "*0", "atom_type": "Ct"}, "2": {"label": "*1", "atom_type": "Cs"}, "13": {"label": "*4", "atom_type": "Cd"}, "14": {"label": "*3", "atom_type": "Cs"}, "18": {"label": "*2", "atom_type": "H0"}}

>  <type>  (12) 
unop_8

>  <geom_source>  (12) 
Heuristics

$$$$

     RDKit          3D

 21 19  0  0  0  0  0  0  0  0999 V2000
   -2.4040   -0.8714   -0.2462 C   0  0  0  0  0  0  0  0  0  0  0  0
   -1.5112   -0.3070    0.3194 C   0  0  0  0  0  0  0  0  0  0  0  0
   -0.4363    0.3930    1.0251 C   0  0  0  0  0  3  0  0  0  0  0  0
   -0.3812   -0.0333    2.4953 C   0  0  0  0  0  0  0  0  0  0  0  0
   -0.5905    1.9105    0.8859 C   0  0  0  0  0  0  0  0  0  0  0  0
   -3.1963   -1.3723   -0.7481 H   0  0  0  0  0  0  0  0  0  0  0  0
    0.4510    0.4629    2.9979 H   0  0  0  0  0  0  0  0  0  0  0  0
   -0.2493   -1.1112    2.5876 H   0  0  0  0  0  0  0  0  0  0  0  0
   -1.3052    0.2419    3.0066 H   0  0  0  0  0  0  0  0  0  0  0  0
   -1.5207    2.2431    1.3498 H   0  0  0  0  0  0  0  0  0  0  0  0
   -0.6068    2.2098   -0.1620 H   0  0  0  0  0  0  0  0  0  0  0  0
    0.2405    2.4180    1.3792 H   0  0  0  0  0  0  0  0  0  0  0  0
    1.6717   -0.8703   -2.7233 C   0  0  0  0  0  0  0  0  0  0  0  0
    1.6717   -0.8703   -1.3995 C   0  0  0  0  0  0  0  0  0  0  0  0
    1.6717    0.3519   -0.5390 C   0  0  0  0  0  0  0  0  0  0  0  0
    1.6717   -1.7930   -3.2898 H   0  0  0  0  0  0  0  0  0  0  0  0
    1.6717    0.0553   -3.2893 H   0  0  0  0  0  0  0  0  0  0  0  0
    1.6717   -1.8230   -0.8760 H   0  0  0  0  0  0  0  0  0  0  0  0
    0.6185    0.3724    0.2425 H   0  0  0  0  0  0  0  0  0  0  0  0
    1.6717    1.2623   -1.1396 H   0  0  0  0  0  0  0  0  0  0  0  0
    2.5494    0.3690    0.1122 H   0  0  0  0  0  0  0  0  0  0  0  0
  1  2  3  0
  1  6  1  0
  2  3  1  0
  3  4  1  0
  3  5  1  0
  4  7  1  0
  4  8  1  0
  4  9  1  0
  5 10  1  0
  5 11  1  0
  5 12  1  0
 13 14  2  3
 13 16  1  0
 13 17  1  0
 14 15  1  0
 14 18  1  0
 15 19  1  0
 15 20  1  0
 15 21  1  0
M  RAD  1   3   2
M  END
>  <reaction>  (13) 
rxn_1006

>  <mol_properties>  (13) 
{"1": {"label": "*0", "atom_type": "Ct"}, "2": {"label": "*1", "atom_type": "Cs"}, "13": {"label": "*4", "atom_type": "Cd"}, "14": {"label": "*3", "atom_type": "Cs"}, "18": {"label": "*2", "atom_type": "H0"}}

>  <type>  (13) 
unop_9

>  <geom_source>  (13) 
Heuristics

$$$$

     RDKit          3D

 21 19  0  0  0  0  0  0  0  0999 V2000
   -0.6368   -1.6801    2.1848 C   0  0  0  0  0  0  0  0  0  0  0  0
   -0.6764   -0.7077    1.4861 C   0  0  0  0  0  0  0  0  0  0  0  0
   -0.7357    0.4926    0.6500 C   0  0  0  0  0  3  0  0  0  0  0  0
    0.0685    1.6350    1.2780 C   0  0  0  0  0  0  0  0  0  0  0  0
   -2.1877    0.9049    0.3899 C   0  0  0  0  0  0  0  0  0  0  0  0
   -0.6016   -2.5432    2.8049 H   0  0  0  0  0  0  0  0  0  0  0  0
    0.0516    2.5084    0.6238 H   0  0  0  0  0  0  0  0  0  0  0  0
    1.1059    1.3429    1.4402 H   0  0  0  0  0  0  0  0  0  0  0  0
   -0.3603    1.9181    2.2409 H   0  0  0  0  0  0  0  0  0  0  0  0
   -2.6830    1.1665    1.3266 H   0  0  0  0  0  0  0  0  0  0  0  0
   -2.7488    0.0956   -0.0772 H   0  0  0  0  0  0  0  0  0  0  0  0
   -2.2177    1.7741   -0.2695 H   0  0  0  0  0  0  0  0  0  0  0  0
    1.3724   -0.7707   -3.0984 C   0  0  0  0  0  0  0  0  0  0  0  0
    1.3724   -0.7707   -1.7746 C   0  0  0  0  0  0  0  0  0  0  0  0
    1.3724    0.4515   -0.9141 C   0  0  0  0  0  0  0  0  0  0  0  0
    1.3724   -1.6934   -3.6649 H   0  0  0  0  0  0  0  0  0  0  0  0
    1.3724    0.1549   -3.6644 H   0  0  0  0  0  0  0  0  0  0  0  0
    1.3724   -1.7233   -1.2511 H   0  0  0  0  0  0  0  0  0  0  0  0
    0.3192    0.4720   -0.1327 H   0  0  0  0  0  0  0  0  0  0  0  0
    1.3724    1.3619   -1.5147 H   0  0  0  0  0  0  0  0  0  0  0  0
    2.2501    0.4686   -0.2629 H   0  0  0  0  0  0  0  0  0  0  0  0
  1  2  3  0
  1  6  1  0
  2  3  1  0
  3  4  1  0
  3  5  1  0
  4  7  1  0
  4  8  1  0
  4  9  1  0
  5 10  1  0
  5 11  1  0
  5 12  1  0
 13 14  2  3
 13 16  1  0
 13 17  1  0
 14 15  1  0
 14 18  1  0
 15 19  1  0
 15 20  1  0
 15 21  1  0
M  RAD  1   3   2
M  END
>  <reaction>  (14) 
rxn_1006

>  <mol_properties>  (14) 
{"1": {"label": "*0", "atom_type": "Ct"}, "2": {"label": "*1", "atom_type": "Cs"}, "13": {"label": "*4", "atom_type": "Cd"}, "14": {"label": "*3", "atom_type": "Cs"}, "18": {"label": "*2", "atom_type": "H0"}}

>  <type>  (14) 
unop_10

>  <geom_source>  (14) 
Heuristics

$$$$

     RDKit          3D

 21 19  0  0  0  0  0  0  0  0999 V2000
   -1.2687    2.6005    1.2083 C   0  0  0  0  0  0  0  0  0  0  0  0
   -0.9870    1.4554    0.9970 C   0  0  0  0  0  0  0  0  0  0  0  0
   -0.6528    0.0499    0.7596 C   0  0  0  0  0  3  0  0  0  0  0  0
   -1.9209   -0.8044    0.6689 C   0  0  0  0  0  0  0  0  0  0  0  0
    0.3008   -0.4735    1.8380 C   0  0  0  0  0  0  0  0  0  0  0  0
   -1.5187    3.6169    1.3958 H   0  0  0  0  0  0  0  0  0  0  0  0
   -1.6591   -1.8408    0.4487 H   0  0  0  0  0  0  0  0  0  0  0  0
   -2.5851   -0.4403   -0.1148 H   0  0  0  0  0  0  0  0  0  0  0  0
   -2.4648   -0.7805    1.6148 H   0  0  0  0  0  0  0  0  0  0  0  0
   -0.1775   -0.4399    2.8184 H   0  0  0  0  0  0  0  0  0  0  0  0
    1.2106    0.1249    1.8826 H   0  0  0  0  0  0  0  0  0  0  0  0
    0.5755   -1.5080    1.6246 H   0  0  0  0  0  0  0  0  0  0  0  0
    1.4553   -1.2134   -2.9887 C   0  0  0  0  0  0  0  0  0  0  0  0
    1.4553   -1.2134   -1.6650 C   0  0  0  0  0  0  0  0  0  0  0  0
    1.4553    0.0088   -0.8044 C   0  0  0  0  0  0  0  0  0  0  0  0
    1.4553   -2.1361   -3.5552 H   0  0  0  0  0  0  0  0  0  0  0  0
    1.4553   -0.2878   -3.5547 H   0  0  0  0  0  0  0  0  0  0  0  0
    1.4553   -2.1660   -1.1414 H   0  0  0  0  0  0  0  0  0  0  0  0
    0.4020    0.0294   -0.0230 H   0  0  0  0  0  0  0  0  0  0  0  0
    1.4553    0.9193   -1.4050 H   0  0  0  0  0  0  0  0  0  0  0  0
    2.3330    0.0259   -0.1532 H   0  0  0  0  0  0  0  0  0  0  0  0
  1  2  3  0
  1  6  1  0
  2  3  1  0
  3  4  1  0
  3  5  1  0
  4  7  1  0
  4  8  1  0
  4  9  1  0
  5 10  1  0
  5 11  1  0
  5 12  1  0
 13 14  2  3
 13 16  1  0
 13 17  1  0
 14 15  1  0
 14 18  1  0
 15 19  1  0
 15 20  1  0
 15 21  1  0
M  RAD  1   3   2
M  END
>  <reaction>  (15) 
rxn_1006

>  <mol_properties>  (15) 
{"1": {"label": "*0", "atom_type": "Ct"}, "2": {"label": "*1", "atom_type": "Cs"}, "13": {"label": "*4", "atom_type": "Cd"}, "14": {"label": "*3", "atom_type": "Cs"}, "18": {"label": "*2", "atom_type": "H0"}}

>  <type>  (15) 
unop_11

>  <geom_source>  (15) 
Heuristics

$$$$

     RDKit          3D

 21 19  0  0  0  0  0  0  0  0999 V2000
   -1.9248   -1.6543    0.4060 C   0  0  0  0  0  0  0  0  0  0  0  0
   -1.2779   -0.6706    0.6276 C   0  0  0  0  0  0  0  0  0  0  0  0
   -0.5035    0.5382    0.9148 C   0  0  0  0  0  3  0  0  0  0  0  0
   -0.0194    0.5433    2.3680 C   0  0  0  0  0  0  0  0  0  0  0  0
   -1.3149    1.7959    0.5890 C   0  0  0  0  0  0  0  0  0  0  0  0
   -2.4989   -2.5275    0.2093 H   0  0  0  0  0  0  0  0  0  0  0  0
    0.5922    1.4276    2.5557 H   0  0  0  0  0  0  0  0  0  0  0  0
    0.5757   -0.3431    2.5874 H   0  0  0  0  0  0  0  0  0  0  0  0
   -0.8692    0.5612    3.0526 H   0  0  0  0  0  0  0  0  0  0  0  0
   -2.2029    1.8507    1.2211 H   0  0  0  0  0  0  0  0  0  0  0  0
   -1.6377    1.7970   -0.4521 H   0  0  0  0  0  0  0  0  0  0  0  0
   -0.7108    2.6874    0.7664 H   0  0  0  0  0  0  0  0  0  0  0  0
    1.6045   -0.7250   -2.8335 C   0  0  0  0  0  0  0  0  0  0  0  0
    1.6045   -0.7250   -1.5098 C   0  0  0  0  0  0  0  0  0  0  0  0
    1.6045    0.4971   -0.6493 C   0  0  0  0  0  0  0  0  0  0  0  0
    1.6045   -1.6478   -3.4000 H   0  0  0  0  0  0  0  0  0  0  0  0
    1.6045    0.2005   -3.3995 H   0  0  0  0  0  0  0  0  0  0  0  0
    1.6045   -1.6777   -0.9863 H   0  0  0  0  0  0  0  0  0  0  0  0
    0.5513    0.5177    0.1322 H   0  0  0  0  0  0  0  0  0  0  0  0
    1.6045    1.4076   -1.2499 H   0  0  0  0  0  0  0  0  0  0  0  0
    2.4822    0.5142    0.0019 H   0  0  0  0  0  0  0  0  0  0  0  0
  1  2  3  0
  1  6  1  0
  2  3  1  0
  3  4  1  0
  3  5  1  0
  4  7  1  0
  4  8  1  0
  4  9  1  0
  5 10  1  0
  5 11  1  0
  5 12  1  0
 13 14  2  3
 13 16  1  0
 13 17  1  0
 14 15  1  0
 14 18  1  0
 15 19  1  0
 15 20  1  0
 15 21  1  0
M  RAD  1   3   2
M  END
>  <reaction>  (16) 
rxn_1006

>  <mol_properties>  (16) 
{"1": {"label": "*0", "atom_type": "Ct"}, "2": {"label": "*1", "atom_type": "Cs"}, "13": {"label": "*4", "atom_type": "Cd"}, "14": {"label": "*3", "atom_type": "Cs"}, "18": {"label": "*2", "atom_type": "H0"}}

>  <type>  (16) 
unop_12

>  <geom_source>  (16) 
Heuristics

$$$$

     RDKit          3D

 21 19  0  0  0  0  0  0  0  0999 V2000
   -0.9977    0.1718   -0.0413 C   0  0  0  0  0  0  0  0  0  0  0  0
   -1.7746   -0.0048    1.2639 C   0  0  0  0  0  0  0  0  0  0  0  0
   -1.0552   -1.0989   -0.8902 C   0  0  0  0  0  0  0  0  0  0  0  0
    2.0139   -0.7443    0.2326 C   0  0  0  0  0  0  0  0  0  0  0  0
    1.3550    0.3089    1.0647 C   0  0  0  0  0  0  0  0  0  0  0  0
    3.1763   -0.5146   -0.3821 C   0  0  0  0  0  3  0  0  0  0  0  0
   -1.5375    1.3105   -0.7999 C   0  0  0  0  0  0  0  0  0  0  0  0
   -1.9790    2.2444   -1.4217 C   0  0  0  0  0  0  0  0  0  0  0  0
    0.2685    0.4273    0.2518 H   0  0  0  0  0  0  0  0  0  0  0  0
   -1.3451   -0.8447    1.8502 H   0  0  0  0  0  0  0  0  0  0  0  0
   -2.8465   -0.2188    1.0602 H   0  0  0  0  0  0  0  0  0  0  0  0
   -1.7013    0.9179    1.8786 H   0  0  0  0  0  0  0  0  0  0  0  0
   -2.1047   -1.3467   -1.1605 H   0  0  0  0  0  0  0  0  0  0  0  0
   -0.4654   -0.9614   -1.8217 H   0  0  0  0  0  0  0  0  0  0  0  0
   -0.6177   -1.9508   -0.3276 H   0  0  0  0  0  0  0  0  0  0  0  0
    1.5329   -1.7116    0.1304 H   0  0  0  0  0  0  0  0  0  0  0  0
    3.6742    0.4464   -0.2928 H   0  0  0  0  0  0  0  0  0  0  0  0
    3.6370   -1.2933   -0.9812 H   0  0  0  0  0  0  0  0  0  0  0  0
    2.0137    0.5997    1.9102 H   0  0  0  0  0  0  0  0  0  0  0  0
    1.1198    1.1990    0.4438 H   0  0  0  0  0  0  0  0  0  0  0  0
   -2.3666    3.0640   -1.9674 H   0  0  0  0  0  0  0  0  0  0  0  0
  1  2  1  0
  1  3  1  0
  1  7  1  0
  1  9  1  0
  2 10  1  0
  2 11  1  0
  2 12  1  0
  3 13  1  0
  3 14  1  0
  3 15  1  0
  4  5  2  3
  4  6  1  0
  4 16  1  0
  5 19  1  0
  5 20  1  0
  6 17  1  0
  6 18  1  0
  7  8  3  0
  8 21  1  0
M  RAD  1   6   2
M  END
>  <reaction>  (17) 
rxn_1006

>  <mol_properties>  (17) 
{"1": {"label": "*0", "atom_type": "Ct"}, "2": {"label": "*1", "atom_type": "Cs"}, "13": {"label": "*4", "atom_type": "Cd"}, "14": {"label": "*3", "atom_type": "Cs"}, "18": {"label": "*2", "atom_type": "H0"}}

>  <type>  (17) 
unop_13

>  <geom_source>  (17) 
AutoTST

$$$$
