
     RDKit          3D

  8  7  0  0  0  0  0  0  0  0999 V2000
    0.7610    0.0250    0.0051 C   0  0  0  0  0  0  0  0  0  0  0  0
   -0.7610   -0.0250   -0.0051 C   0  0  0  0  0  0  0  0  0  0  0  0
    1.1904   -0.9237   -0.3217 H   0  0  0  0  0  0  0  0  0  0  0  0
    1.1359    0.8041   -0.6609 H   0  0  0  0  0  0  0  0  0  0  0  0
    1.1435    0.2336    1.0058 H   0  0  0  0  0  0  0  0  0  0  0  0
   -1.1435   -0.2336   -1.0058 H   0  0  0  0  0  0  0  0  0  0  0  0
   -1.1904    0.9237    0.3216 H   0  0  0  0  0  0  0  0  0  0  0  0
   -1.1359   -0.8041    0.6609 H   0  0  0  0  0  0  0  0  0  0  0  0
  1  2  1  0
  1  3  1  0
  1  4  1  0
  1  5  1  0
  2  6  1  0
  2  7  1  0
  2  8  1  0
M  END
>  <reaction>  (1) 
rxn_905

>  <mol_properties>  (1) 
{"1": {"label": "donator", "atom_type": "Cs"}, "5": {"label": "d_hydrogen", "atom_type": "H0"}}

>  <type>  (1) 
r1h

$$$$

     RDKit          3D

  6  5  0  0  0  0  0  0  0  0999 V2000
   -0.5121    0.0777    0.0308 C   0  0  0  0  0  0  0  0  0  0  0  0
    0.8172   -0.5443    0.0742 C   0  0  0  0  0  3  0  0  0  0  0  0
    2.3075   -0.1727   -0.1911 S   0  0  0  0  0  0  0  0  0  0  0  0
   -1.1498   -0.4890   -0.6521 H   0  0  0  0  0  0  0  0  0  0  0  0
   -0.4879    1.1268   -0.2798 H   0  0  0  0  0  0  0  0  0  0  0  0
   -0.9748    0.0015    1.0180 H   0  0  0  0  0  0  0  0  0  0  0  0
  1  2  1  0
  1  4  1  0
  1  5  1  0
  1  6  1  0
  2  3  2  0
M  RAD  1   2   2
M  END
>  <reaction>  (2) 
rxn_905

>  <mol_properties>  (2) 
{"1": {"label": "acceptor", "atom_type": "CS"}}

>  <type>  (2) 
r2

$$$$

     RDKit          3D

  7  6  0  0  0  0  0  0  0  0999 V2000
   -0.6782    0.0507    0.0301 C   0  0  0  0  0  0  0  0  0  0  0  0
    0.8092    0.0996    0.0213 C   0  0  0  0  0  0  0  0  0  0  0  0
    1.7473    0.7521    1.1507 S   0  0  0  0  0  0  0  0  0  0  0  0
   -1.0667    0.5456   -0.8653 H   0  0  0  0  0  0  0  0  0  0  0  0
   -1.0112   -0.9904   -0.0239 H   0  0  0  0  0  0  0  0  0  0  0  0
   -1.0920    0.5225    0.9188 H   0  0  0  0  0  0  0  0  0  0  0  0
    1.2740   -0.3620   -0.8520 H   0  0  0  0  0  0  0  0  0  0  0  0
  1  2  1  0
  1  4  1  0
  1  5  1  0
  1  6  1  0
  2  3  2  0
  2  7  1  0
M  END
>  <reaction>  (3) 
rxn_905

>  <mol_properties>  (3) 
{"1": {"label": "acceptor", "atom_type": "CS"}, "6": {"label": "a_hydrogen", "atom_type": "H0"}}

>  <type>  (3) 
r2h

$$$$

     RDKit          3D

 14 12  0  0  0  0  0  0  0  0999 V2000
    1.4728    1.0520    0.9407 C   0  0  0  0  0  0  0  0  0  0  0  0
    0.5114    0.7552   -0.1479 C   0  0  0  0  0  0  0  0  0  0  0  0
   -0.6041    1.6752   -0.8098 S   0  0  0  0  0  0  0  0  0  0  0  0
    1.3256    0.3351    1.7539 H   0  0  0  0  0  0  0  0  0  0  0  0
    1.3739    2.0679    1.3230 H   0  0  0  0  0  0  0  0  0  0  0  0
    2.4909    0.8928    0.5729 H   0  0  0  0  0  0  0  0  0  0  0  0
   -0.3334   -1.8728   -2.0976 C   0  0  0  0  0  0  0  0  0  0  0  0
    0.7765   -1.7674   -1.0924 C   0  0  0  0  0  3  0  0  0  0  0  0
   -1.3084   -1.7319   -1.6278 H   0  0  0  0  0  0  0  0  0  0  0  0
   -0.2320   -1.1181   -2.8795 H   0  0  0  0  0  0  0  0  0  0  0  0
   -0.3409   -2.8540   -2.5850 H   0  0  0  0  0  0  0  0  0  0  0  0
    0.6607   -0.4658   -0.5838 H   0  0  0  0  0  0  0  0  0  0  0  0
    1.7859   -1.7873   -1.4995 H   0  0  0  0  0  0  0  0  0  0  0  0
    0.6764   -2.3952   -0.2088 H   0  0  0  0  0  0  0  0  0  0  0  0
  1  2  1  0
  1  4  1  0
  1  5  1  0
  1  6  1  0
  2  3  2  0
  2 12  1  0
  7  8  1  0
  7  9  1  0
  7 10  1  0
  7 11  1  0
  8 13  1  0
  8 14  1  0
M  RAD  1   8   2
M  END
>  <reaction>  (4) 
rxn_905

>  <mol_properties>  (4) 
{"1": {"label": "*1", "atom_type": "CS"}, "2": {"label": "*0", "atom_type": "S2d"}, "6": {"label": "*4", "atom_type": "Cs"}, "7": {"label": "*3", "atom_type": "Cs"}, "11": {"label": "*2", "atom_type": "H0"}}

>  <type>  (4) 
ts

$$$$

     RDKit          3D

 14 12  0  0  0  0  0  0  0  0999 V2000
   -1.5120    0.9461    1.1820 C   0  0  0  0  0  0  0  0  0  0  0  0
   -0.3402    0.6141    0.3268 C   0  0  0  0  0  3  0  0  0  0  0  0
    1.1875    1.0289    0.6017 S   0  0  0  0  0  0  0  0  0  0  0  0
   -2.2474    1.5054    0.5954 H   0  0  0  0  0  0  0  0  0  0  0  0
   -1.2222    1.5259    2.0558 H   0  0  0  0  0  0  0  0  0  0  0  0
   -2.0076    0.0235    1.4993 H   0  0  0  0  0  0  0  0  0  0  0  0
   -0.3402   -1.8272   -2.1461 C   0  0  0  0  0  0  0  0  0  0  0  0
   -0.3402   -1.8272   -0.6233 C   0  0  0  0  0  0  0  0  0  0  0  0
   -1.2210   -1.3187   -2.5419 H   0  0  0  0  0  0  0  0  0  0  0  0
    0.5407   -1.3187   -2.5419 H   0  0  0  0  0  0  0  0  0  0  0  0
   -0.3402   -2.8443   -2.5419 H   0  0  0  0  0  0  0  0  0  0  0  0
   -0.3402   -0.6067   -0.1483 H   0  0  0  0  0  0  0  0  0  0  0  0
    0.5407   -2.3358   -0.2275 H   0  0  0  0  0  0  0  0  0  0  0  0
   -1.2210   -2.3358   -0.2275 H   0  0  0  0  0  0  0  0  0  0  0  0
  1  2  1  0
  1  4  1  0
  1  5  1  0
  1  6  1  0
  2  3  2  0
  7  8  1  0
  7  9  1  0
  7 10  1  0
  7 11  1  0
  8 12  1  0
  8 13  1  0
  8 14  1  0
M  RAD  1   2   2
M  END
>  <reaction>  (5) 
rxn_905

>  <mol_properties>  (5) 
{"1": {"label": "*1", "atom_type": "CS"}, "2": {"label": "*0", "atom_type": "S2d"}, "6": {"label": "*4", "atom_type": "Cs"}, "7": {"label": "*3", "atom_type": "Cs"}, "11": {"label": "*2", "atom_type": "H0"}}

>  <type>  (5) 
unop_1

>  <geom_source>  (5) 
Heuristics

$$$$

     RDKit          3D

 14 12  0  0  0  0  0  0  0  0999 V2000
   -0.6807    1.5860   -0.6962 C   0  0  0  0  0  0  0  0  0  0  0  0
   -0.0042    0.5836    0.1710 C   0  0  0  0  0  3  0  0  0  0  0  0
    0.3415    0.7526    1.7310 S   0  0  0  0  0  0  0  0  0  0  0  0
   -0.0326    1.8362   -1.5418 H   0  0  0  0  0  0  0  0  0  0  0  0
   -0.9322    2.4905   -0.1466 H   0  0  0  0  0  0  0  0  0  0  0  0
   -1.5889    1.1487   -1.1225 H   0  0  0  0  0  0  0  0  0  0  0  0
   -0.0042   -1.8577   -2.3019 C   0  0  0  0  0  0  0  0  0  0  0  0
   -0.0042   -1.8577   -0.7791 C   0  0  0  0  0  0  0  0  0  0  0  0
   -0.8850   -1.3492   -2.6977 H   0  0  0  0  0  0  0  0  0  0  0  0
    0.8767   -1.3492   -2.6977 H   0  0  0  0  0  0  0  0  0  0  0  0
   -0.0042   -2.8749   -2.6977 H   0  0  0  0  0  0  0  0  0  0  0  0
   -0.0042   -0.6372   -0.3041 H   0  0  0  0  0  0  0  0  0  0  0  0
    0.8767   -2.3663   -0.3832 H   0  0  0  0  0  0  0  0  0  0  0  0
   -0.8850   -2.3663   -0.3832 H   0  0  0  0  0  0  0  0  0  0  0  0
  1  2  1  0
  1  4  1  0
  1  5  1  0
  1  6  1  0
  2  3  2  0
  7  8  1  0
  7  9  1  0
  7 10  1  0
  7 11  1  0
  8 12  1  0
  8 13  1  0
  8 14  1  0
M  RAD  1   2   2
M  END
>  <reaction>  (6) 
rxn_905

>  <mol_properties>  (6) 
{"1": {"label": "*1", "atom_type": "CS"}, "2": {"label": "*0", "atom_type": "S2d"}, "6": {"label": "*4", "atom_type": "Cs"}, "7": {"label": "*3", "atom_type": "Cs"}, "11": {"label": "*2", "atom_type": "H0"}}

>  <type>  (6) 
unop_2

>  <geom_source>  (6) 
Heuristics

$$$$

     RDKit          3D

 14 12  0  0  0  0  0  0  0  0999 V2000
   -1.0018    0.6367    1.8534 C   0  0  0  0  0  0  0  0  0  0  0  0
   -0.3253    0.4843    0.5367 C   0  0  0  0  0  3  0  0  0  0  0  0
    0.9164    1.3500   -0.0019 S   0  0  0  0  0  0  0  0  0  0  0  0
   -2.0643    0.8476    1.6976 H   0  0  0  0  0  0  0  0  0  0  0  0
   -0.5537    1.4302    2.4477 H   0  0  0  0  0  0  0  0  0  0  0  0
   -0.9523   -0.3085    2.4028 H   0  0  0  0  0  0  0  0  0  0  0  0
   -0.3253   -1.9570   -1.9362 C   0  0  0  0  0  0  0  0  0  0  0  0
   -0.3253   -1.9570   -0.4134 C   0  0  0  0  0  0  0  0  0  0  0  0
   -1.2062   -1.4485   -2.3320 H   0  0  0  0  0  0  0  0  0  0  0  0
    0.5555   -1.4485   -2.3320 H   0  0  0  0  0  0  0  0  0  0  0  0
   -0.3253   -2.9742   -2.3320 H   0  0  0  0  0  0  0  0  0  0  0  0
   -0.3253   -0.7365    0.0616 H   0  0  0  0  0  0  0  0  0  0  0  0
    0.5555   -2.4656   -0.0176 H   0  0  0  0  0  0  0  0  0  0  0  0
   -1.2062   -2.4656   -0.0176 H   0  0  0  0  0  0  0  0  0  0  0  0
  1  2  1  0
  1  4  1  0
  1  5  1  0
  1  6  1  0
  2  3  2  0
  7  8  1  0
  7  9  1  0
  7 10  1  0
  7 11  1  0
  8 12  1  0
  8 13  1  0
  8 14  1  0
M  RAD  1   2   2
M  END
>  <reaction>  (7) 
rxn_905

>  <mol_properties>  (7) 
{"1": {"label": "*1", "atom_type": "CS"}, "2": {"label": "*0", "atom_type": "S2d"}, "6": {"label": "*4", "atom_type": "Cs"}, "7": {"label": "*3", "atom_type": "Cs"}, "11": {"label": "*2", "atom_type": "H0"}}

>  <type>  (7) 
unop_3

>  <geom_source>  (7) 
Heuristics

$$$$

     RDKit          3D

 14 12  0  0  0  0  0  0  0  0999 V2000
    1.2534    1.4597   -0.2539 C   0  0  0  0  0  0  0  0  0  0  0  0
    0.0816    0.6370    0.1519 C   0  0  0  0  0  3  0  0  0  0  0  0
   -0.7246    0.7457    1.5374 S   0  0  0  0  0  0  0  0  0  0  0  0
    2.1045    0.8057   -0.4671 H   0  0  0  0  0  0  0  0  0  0  0  0
    1.5270    2.1788    0.5153 H   0  0  0  0  0  0  0  0  0  0  0  0
    1.0270    1.9855   -1.1866 H   0  0  0  0  0  0  0  0  0  0  0  0
    0.0816   -1.8044   -2.3210 C   0  0  0  0  0  0  0  0  0  0  0  0
    0.0816   -1.8044   -0.7983 C   0  0  0  0  0  0  0  0  0  0  0  0
   -0.7992   -1.2958   -2.7169 H   0  0  0  0  0  0  0  0  0  0  0  0
    0.9624   -1.2958   -2.7169 H   0  0  0  0  0  0  0  0  0  0  0  0
    0.0816   -2.8215   -2.7169 H   0  0  0  0  0  0  0  0  0  0  0  0
    0.0816   -0.5838   -0.3232 H   0  0  0  0  0  0  0  0  0  0  0  0
    0.9624   -2.3129   -0.4024 H   0  0  0  0  0  0  0  0  0  0  0  0
   -0.7993   -2.3129   -0.4024 H   0  0  0  0  0  0  0  0  0  0  0  0
  1  2  1  0
  1  4  1  0
  1  5  1  0
  1  6  1  0
  2  3  2  0
  7  8  1  0
  7  9  1  0
  7 10  1  0
  7 11  1  0
  8 12  1  0
  8 13  1  0
  8 14  1  0
M  RAD  1   2   2
M  END
>  <reaction>  (8) 
rxn_905

>  <mol_properties>  (8) 
{"1": {"label": "*1", "atom_type": "CS"}, "2": {"label": "*0", "atom_type": "S2d"}, "6": {"label": "*4", "atom_type": "Cs"}, "7": {"label": "*3", "atom_type": "Cs"}, "11": {"label": "*2", "atom_type": "H0"}}

>  <type>  (8) 
unop_4

>  <geom_source>  (8) 
Heuristics

$$$$

     RDKit          3D

 14 12  0  0  0  0  0  0  0  0999 V2000
   -0.0000    0.4497    2.1672 C   0  0  0  0  0  0  0  0  0  0  0  0
   -0.0000    0.3631    0.6816 C   0  0  0  0  0  3  0  0  0  0  0  0
    0.0000    1.5994   -0.3446 S   0  0  0  0  0  0  0  0  0  0  0  0
   -0.8761   -0.0716    2.5650 H   0  0  0  0  0  0  0  0  0  0  0  0
   -0.0000    1.4820    2.5110 H   0  0  0  0  0  0  0  0  0  0  0  0
    0.8762   -0.0716    2.5650 H   0  0  0  0  0  0  0  0  0  0  0  0
   -0.0000   -2.0782   -1.7914 C   0  0  0  0  0  0  0  0  0  0  0  0
   -0.0000   -2.0782   -0.2686 C   0  0  0  0  0  0  0  0  0  0  0  0
   -0.8808   -1.5697   -2.1872 H   0  0  0  0  0  0  0  0  0  0  0  0
    0.8808   -1.5697   -2.1872 H   0  0  0  0  0  0  0  0  0  0  0  0
   -0.0000   -3.0953   -2.1872 H   0  0  0  0  0  0  0  0  0  0  0  0
   -0.0000   -0.8577    0.2064 H   0  0  0  0  0  0  0  0  0  0  0  0
    0.8808   -2.5868    0.1273 H   0  0  0  0  0  0  0  0  0  0  0  0
   -0.8808   -2.5868    0.1273 H   0  0  0  0  0  0  0  0  0  0  0  0
  1  2  1  0
  1  4  1  0
  1  5  1  0
  1  6  1  0
  2  3  2  0
  7  8  1  0
  7  9  1  0
  7 10  1  0
  7 11  1  0
  8 12  1  0
  8 13  1  0
  8 14  1  0
M  RAD  1   2   2
M  END
>  <reaction>  (9) 
rxn_905

>  <mol_properties>  (9) 
{"1": {"label": "*1", "atom_type": "CS"}, "2": {"label": "*0", "atom_type": "S2d"}, "6": {"label": "*4", "atom_type": "Cs"}, "7": {"label": "*3", "atom_type": "Cs"}, "11": {"label": "*2", "atom_type": "H0"}}

>  <type>  (9) 
unop_5

>  <geom_source>  (9) 
Heuristics

$$$$

     RDKit          3D

 14 12  0  0  0  0  0  0  0  0999 V2000
    1.5719    1.2364    0.4181 C   0  0  0  0  0  0  0  0  0  0  0  0
    0.2188    0.6590    0.1934 C   0  0  0  0  0  3  0  0  0  0  0  0
   -1.0597    0.8274    1.1517 S   0  0  0  0  0  0  0  0  0  0  0  0
    2.3132    0.4320    0.4500 H   0  0  0  0  0  0  0  0  0  0  0  0
    1.6164    1.8129    1.3397 H   0  0  0  0  0  0  0  0  0  0  0  0
    1.8441    1.8734   -0.4291 H   0  0  0  0  0  0  0  0  0  0  0  0
    0.2188   -1.7823   -2.2795 C   0  0  0  0  0  0  0  0  0  0  0  0
    0.2188   -1.7823   -0.7567 C   0  0  0  0  0  0  0  0  0  0  0  0
   -0.6620   -1.2738   -2.6753 H   0  0  0  0  0  0  0  0  0  0  0  0
    1.0997   -1.2738   -2.6753 H   0  0  0  0  0  0  0  0  0  0  0  0
    0.2188   -2.7994   -2.6753 H   0  0  0  0  0  0  0  0  0  0  0  0
    0.2188   -0.5618   -0.2817 H   0  0  0  0  0  0  0  0  0  0  0  0
    1.0997   -2.2909   -0.3608 H   0  0  0  0  0  0  0  0  0  0  0  0
   -0.6620   -2.2909   -0.3608 H   0  0  0  0  0  0  0  0  0  0  0  0
  1  2  1  0
  1  4  1  0
  1  5  1  0
  1  6  1  0
  2  3  2  0
  7  8  1  0
  7  9  1  0
  7 10  1  0
  7 11  1  0
  8 12  1  0
  8 13  1  0
  8 14  1  0
M  RAD  1   2   2
M  END
>  <reaction>  (10) 
rxn_905

>  <mol_properties>  (10) 
{"1": {"label": "*1", "atom_type": "CS"}, "2": {"label": "*0", "atom_type": "S2d"}, "6": {"label": "*4", "atom_type": "Cs"}, "7": {"label": "*3", "atom_type": "Cs"}, "11": {"label": "*2", "atom_type": "H0"}}

>  <type>  (10) 
unop_6

>  <geom_source>  (10) 
Heuristics

$$$$

     RDKit          3D

 14 12  0  0  0  0  0  0  0  0999 V2000
    1.5120    0.9461    1.1820 C   0  0  0  0  0  0  0  0  0  0  0  0
    0.3402    0.6141    0.3268 C   0  0  0  0  0  3  0  0  0  0  0  0
   -1.1875    1.0289    0.6017 S   0  0  0  0  0  0  0  0  0  0  0  0
    2.0077    0.0235    1.4992 H   0  0  0  0  0  0  0  0  0  0  0  0
    1.2222    1.5259    2.0558 H   0  0  0  0  0  0  0  0  0  0  0  0
    2.2474    1.5054    0.5955 H   0  0  0  0  0  0  0  0  0  0  0  0
    0.3402   -1.8272   -2.1461 C   0  0  0  0  0  0  0  0  0  0  0  0
    0.3402   -1.8272   -0.6233 C   0  0  0  0  0  0  0  0  0  0  0  0
   -0.5407   -1.3187   -2.5419 H   0  0  0  0  0  0  0  0  0  0  0  0
    1.2210   -1.3187   -2.5419 H   0  0  0  0  0  0  0  0  0  0  0  0
    0.3402   -2.8443   -2.5419 H   0  0  0  0  0  0  0  0  0  0  0  0
    0.3402   -0.6067   -0.1483 H   0  0  0  0  0  0  0  0  0  0  0  0
    1.2210   -2.3358   -0.2275 H   0  0  0  0  0  0  0  0  0  0  0  0
   -0.5407   -2.3358   -0.2275 H   0  0  0  0  0  0  0  0  0  0  0  0
  1  2  1  0
  1  4  1  0
  1  5  1  0
  1  6  1  0
  2  3  2  0
  7  8  1  0
  7  9  1  0
  7 10  1  0
  7 11  1  0
  8 12  1  0
  8 13  1  0
  8 14  1  0
M  RAD  1   2   2
M  END
>  <reaction>  (11) 
rxn_905

>  <mol_properties>  (11) 
{"1": {"label": "*1", "atom_type": "CS"}, "2": {"label": "*0", "atom_type": "S2d"}, "6": {"label": "*4", "atom_type": "Cs"}, "7": {"label": "*3", "atom_type": "Cs"}, "11": {"label": "*2", "atom_type": "H0"}}

>  <type>  (11) 
unop_7

>  <geom_source>  (11) 
Heuristics

$$$$

     RDKit          3D

 14 12  0  0  0  0  0  0  0  0999 V2000
   -1.5719    1.2364    0.4181 C   0  0  0  0  0  0  0  0  0  0  0  0
   -0.2188    0.6590    0.1934 C   0  0  0  0  0  3  0  0  0  0  0  0
    1.0597    0.8274    1.1518 S   0  0  0  0  0  0  0  0  0  0  0  0
   -1.8441    1.8734   -0.4291 H   0  0  0  0  0  0  0  0  0  0  0  0
   -1.6164    1.8129    1.3397 H   0  0  0  0  0  0  0  0  0  0  0  0
   -2.3132    0.4320    0.4500 H   0  0  0  0  0  0  0  0  0  0  0  0
   -0.2188   -1.7823   -2.2795 C   0  0  0  0  0  0  0  0  0  0  0  0
   -0.2188   -1.7823   -0.7567 C   0  0  0  0  0  0  0  0  0  0  0  0
   -1.0997   -1.2738   -2.6753 H   0  0  0  0  0  0  0  0  0  0  0  0
    0.6620   -1.2738   -2.6753 H   0  0  0  0  0  0  0  0  0  0  0  0
   -0.2188   -2.7994   -2.6753 H   0  0  0  0  0  0  0  0  0  0  0  0
   -0.2188   -0.5618   -0.2817 H   0  0  0  0  0  0  0  0  0  0  0  0
    0.6620   -2.2909   -0.3609 H   0  0  0  0  0  0  0  0  0  0  0  0
   -1.0997   -2.2909   -0.3609 H   0  0  0  0  0  0  0  0  0  0  0  0
  1  2  1  0
  1  4  1  0
  1  5  1  0
  1  6  1  0
  2  3  2  0
  7  8  1  0
  7  9  1  0
  7 10  1  0
  7 11  1  0
  8 12  1  0
  8 13  1  0
  8 14  1  0
M  RAD  1   2   2
M  END
>  <reaction>  (12) 
rxn_905

>  <mol_properties>  (12) 
{"1": {"label": "*1", "atom_type": "CS"}, "2": {"label": "*0", "atom_type": "S2d"}, "6": {"label": "*4", "atom_type": "Cs"}, "7": {"label": "*3", "atom_type": "Cs"}, "11": {"label": "*2", "atom_type": "H0"}}

>  <type>  (12) 
unop_8

>  <geom_source>  (12) 
Heuristics

$$$$

     RDKit          3D

 14 12  0  0  0  0  0  0  0  0999 V2000
    0.6807    1.5860   -0.6962 C   0  0  0  0  0  0  0  0  0  0  0  0
    0.0042    0.5836    0.1710 C   0  0  0  0  0  3  0  0  0  0  0  0
   -0.3415    0.7526    1.7310 S   0  0  0  0  0  0  0  0  0  0  0  0
    1.5889    1.1487   -1.1225 H   0  0  0  0  0  0  0  0  0  0  0  0
    0.9323    2.4905   -0.1466 H   0  0  0  0  0  0  0  0  0  0  0  0
    0.0326    1.8363   -1.5418 H   0  0  0  0  0  0  0  0  0  0  0  0
    0.0042   -1.8577   -2.3019 C   0  0  0  0  0  0  0  0  0  0  0  0
    0.0042   -1.8577   -0.7791 C   0  0  0  0  0  0  0  0  0  0  0  0
   -0.8767   -1.3492   -2.6977 H   0  0  0  0  0  0  0  0  0  0  0  0
    0.8850   -1.3492   -2.6977 H   0  0  0  0  0  0  0  0  0  0  0  0
    0.0042   -2.8749   -2.6977 H   0  0  0  0  0  0  0  0  0  0  0  0
    0.0042   -0.6372   -0.3041 H   0  0  0  0  0  0  0  0  0  0  0  0
    0.8850   -2.3663   -0.3832 H   0  0  0  0  0  0  0  0  0  0  0  0
   -0.8767   -2.3663   -0.3832 H   0  0  0  0  0  0  0  0  0  0  0  0
  1  2  1  0
  1  4  1  0
  1  5  1  0
  1  6  1  0
  2  3  2  0
  7  8  1  0
  7  9  1  0
  7 10  1  0
  7 11  1  0
  8 12  1  0
  8 13  1  0
  8 14  1  0
M  RAD  1   2   2
M  END
>  <reaction>  (13) 
rxn_905

>  <mol_properties>  (13) 
{"1": {"label": "*1", "atom_type": "CS"}, "2": {"label": "*0", "atom_type": "S2d"}, "6": {"label": "*4", "atom_type": "Cs"}, "7": {"label": "*3", "atom_type": "Cs"}, "11": {"label": "*2", "atom_type": "H0"}}

>  <type>  (13) 
unop_9

>  <geom_source>  (13) 
Heuristics

$$$$

     RDKit          3D

 14 12  0  0  0  0  0  0  0  0999 V2000
   -1.2534    1.4597   -0.2539 C   0  0  0  0  0  0  0  0  0  0  0  0
   -0.0816    0.6370    0.1519 C   0  0  0  0  0  3  0  0  0  0  0  0
    0.7246    0.7457    1.5374 S   0  0  0  0  0  0  0  0  0  0  0  0
   -1.0270    1.9854   -1.1866 H   0  0  0  0  0  0  0  0  0  0  0  0
   -1.5270    2.1788    0.5153 H   0  0  0  0  0  0  0  0  0  0  0  0
   -2.1045    0.8057   -0.4671 H   0  0  0  0  0  0  0  0  0  0  0  0
   -0.0816   -1.8044   -2.3210 C   0  0  0  0  0  0  0  0  0  0  0  0
   -0.0816   -1.8044   -0.7983 C   0  0  0  0  0  0  0  0  0  0  0  0
   -0.9624   -1.2958   -2.7169 H   0  0  0  0  0  0  0  0  0  0  0  0
    0.7993   -1.2958   -2.7169 H   0  0  0  0  0  0  0  0  0  0  0  0
   -0.0816   -2.8215   -2.7169 H   0  0  0  0  0  0  0  0  0  0  0  0
   -0.0816   -0.5838   -0.3232 H   0  0  0  0  0  0  0  0  0  0  0  0
    0.7993   -2.3129   -0.4024 H   0  0  0  0  0  0  0  0  0  0  0  0
   -0.9624   -2.3129   -0.4024 H   0  0  0  0  0  0  0  0  0  0  0  0
  1  2  1  0
  1  4  1  0
  1  5  1  0
  1  6  1  0
  2  3  2  0
  7  8  1  0
  7  9  1  0
  7 10  1  0
  7 11  1  0
  8 12  1  0
  8 13  1  0
  8 14  1  0
M  RAD  1   2   2
M  END
>  <reaction>  (14) 
rxn_905

>  <mol_properties>  (14) 
{"1": {"label": "*1", "atom_type": "CS"}, "2": {"label": "*0", "atom_type": "S2d"}, "6": {"label": "*4", "atom_type": "Cs"}, "7": {"label": "*3", "atom_type": "Cs"}, "11": {"label": "*2", "atom_type": "H0"}}

>  <type>  (14) 
unop_10

>  <geom_source>  (14) 
Heuristics

$$$$

     RDKit          3D

 14 12  0  0  0  0  0  0  0  0999 V2000
    1.0018    0.6367    1.8534 C   0  0  0  0  0  0  0  0  0  0  0  0
    0.3253    0.4843    0.5367 C   0  0  0  0  0  3  0  0  0  0  0  0
   -0.9164    1.3500   -0.0019 S   0  0  0  0  0  0  0  0  0  0  0  0
    0.9524   -0.3086    2.4028 H   0  0  0  0  0  0  0  0  0  0  0  0
    0.5536    1.4301    2.4477 H   0  0  0  0  0  0  0  0  0  0  0  0
    2.0643    0.8477    1.6976 H   0  0  0  0  0  0  0  0  0  0  0  0
    0.3253   -1.9570   -1.9362 C   0  0  0  0  0  0  0  0  0  0  0  0
    0.3253   -1.9570   -0.4134 C   0  0  0  0  0  0  0  0  0  0  0  0
   -0.5555   -1.4485   -2.3320 H   0  0  0  0  0  0  0  0  0  0  0  0
    1.2062   -1.4485   -2.3320 H   0  0  0  0  0  0  0  0  0  0  0  0
    0.3253   -2.9742   -2.3320 H   0  0  0  0  0  0  0  0  0  0  0  0
    0.3253   -0.7365    0.0616 H   0  0  0  0  0  0  0  0  0  0  0  0
    1.2062   -2.4656   -0.0176 H   0  0  0  0  0  0  0  0  0  0  0  0
   -0.5555   -2.4656   -0.0176 H   0  0  0  0  0  0  0  0  0  0  0  0
  1  2  1  0
  1  4  1  0
  1  5  1  0
  1  6  1  0
  2  3  2  0
  7  8  1  0
  7  9  1  0
  7 10  1  0
  7 11  1  0
  8 12  1  0
  8 13  1  0
  8 14  1  0
M  RAD  1   2   2
M  END
>  <reaction>  (15) 
rxn_905

>  <mol_properties>  (15) 
{"1": {"label": "*1", "atom_type": "CS"}, "2": {"label": "*0", "atom_type": "S2d"}, "6": {"label": "*4", "atom_type": "Cs"}, "7": {"label": "*3", "atom_type": "Cs"}, "11": {"label": "*2", "atom_type": "H0"}}

>  <type>  (15) 
unop_11

>  <geom_source>  (15) 
Heuristics

$$$$

     RDKit          3D

 14 12  0  0  0  0  0  0  0  0999 V2000
    0.0000    1.6227   -0.8467 C   0  0  0  0  0  0  0  0  0  0  0  0
    0.0000    0.5546    0.1895 C   0  0  0  0  0  3  0  0  0  0  0  0
   -0.0000    0.7720    1.7814 S   0  0  0  0  0  0  0  0  0  0  0  0
    0.8761    1.5074   -1.4923 H   0  0  0  0  0  0  0  0  0  0  0  0
    0.0000    2.6158   -0.4023 H   0  0  0  0  0  0  0  0  0  0  0  0
   -0.8762    1.5074   -1.4923 H   0  0  0  0  0  0  0  0  0  0  0  0
    0.0000   -1.8867   -2.2835 C   0  0  0  0  0  0  0  0  0  0  0  0
    0.0000   -1.8867   -0.7607 C   0  0  0  0  0  0  0  0  0  0  0  0
   -0.8808   -1.3782   -2.6793 H   0  0  0  0  0  0  0  0  0  0  0  0
    0.8808   -1.3782   -2.6793 H   0  0  0  0  0  0  0  0  0  0  0  0
   -0.0000   -2.9038   -2.6793 H   0  0  0  0  0  0  0  0  0  0  0  0
    0.0000   -0.6662   -0.2856 H   0  0  0  0  0  0  0  0  0  0  0  0
    0.8808   -2.3953   -0.3648 H   0  0  0  0  0  0  0  0  0  0  0  0
   -0.8808   -2.3953   -0.3648 H   0  0  0  0  0  0  0  0  0  0  0  0
  1  2  1  0
  1  4  1  0
  1  5  1  0
  1  6  1  0
  2  3  2  0
  7  8  1  0
  7  9  1  0
  7 10  1  0
  7 11  1  0
  8 12  1  0
  8 13  1  0
  8 14  1  0
M  RAD  1   2   2
M  END
>  <reaction>  (16) 
rxn_905

>  <mol_properties>  (16) 
{"1": {"label": "*1", "atom_type": "CS"}, "2": {"label": "*0", "atom_type": "S2d"}, "6": {"label": "*4", "atom_type": "Cs"}, "7": {"label": "*3", "atom_type": "Cs"}, "11": {"label": "*2", "atom_type": "H0"}}

>  <type>  (16) 
unop_12

>  <geom_source>  (16) 
Heuristics

$$$$

     RDKit          3D

 14 12  0  0  0  0  0  0  0  0999 V2000
    1.8225   -2.1477   -0.5541 S   0  0  0  0  0  0  0  0  0  0  0  0
    2.1683    0.2203    0.3234 C   0  0  0  0  0  0  0  0  0  0  0  0
   -1.9096    0.8624   -0.0014 C   0  0  0  0  0  0  0  0  0  0  0  0
   -1.2689   -0.4941   -0.2294 C   0  0  0  0  0  0  0  0  0  0  0  0
    1.3044   -0.8343   -0.2922 C   0  0  0  0  0  3  0  0  0  0  0  0
    3.0435    0.4304   -0.3280 H   0  0  0  0  0  0  0  0  0  0  0  0
    1.5793    1.1534    0.4396 H   0  0  0  0  0  0  0  0  0  0  0  0
    2.5201   -0.1059    1.3255 H   0  0  0  0  0  0  0  0  0  0  0  0
   -1.9517    1.4198   -0.9603 H   0  0  0  0  0  0  0  0  0  0  0  0
   -2.9392    0.7331    0.3938 H   0  0  0  0  0  0  0  0  0  0  0  0
   -1.3061    1.4410    0.7285 H   0  0  0  0  0  0  0  0  0  0  0  0
    0.0152   -0.5475   -0.6072 H   0  0  0  0  0  0  0  0  0  0  0  0
   -1.2152   -1.0548    0.7275 H   0  0  0  0  0  0  0  0  0  0  0  0
   -1.8625   -1.0760   -0.9657 H   0  0  0  0  0  0  0  0  0  0  0  0
  1  5  2  0
  2  5  1  0
  2  6  1  0
  2  7  1  0
  2  8  1  0
  3  4  1  0
  3  9  1  0
  3 10  1  0
  3 11  1  0
  4 12  1  0
  4 13  1  0
  4 14  1  0
M  RAD  1   5   2
M  END
>  <reaction>  (17) 
rxn_905

>  <mol_properties>  (17) 
{"1": {"label": "*1", "atom_type": "CS"}, "2": {"label": "*0", "atom_type": "S2d"}, "6": {"label": "*4", "atom_type": "Cs"}, "7": {"label": "*3", "atom_type": "Cs"}, "11": {"label": "*2", "atom_type": "H0"}}

>  <type>  (17) 
unop_13

>  <geom_source>  (17) 
AutoTST

$$$$

     RDKit          3D

 14 12  0  0  0  0  0  0  0  0999 V2000
   -0.6807    1.5860   -0.6963 C   0  0  0  0  0  0  0  0  0  0  0  0
   -0.0042    0.5836    0.1711 C   0  0  0  0  0  3  0  0  0  0  0  0
    0.3415    0.7526    1.7310 S   0  0  0  0  0  0  0  0  0  0  0  0
   -0.0326    1.8362   -1.5418 H   0  0  0  0  0  0  0  0  0  0  0  0
   -0.9322    2.4905   -0.1466 H   0  0  0  0  0  0  0  0  0  0  0  0
   -1.5889    1.1487   -1.1225 H   0  0  0  0  0  0  0  0  0  0  0  0
   -0.0042   -1.8577   -2.3019 C   0  0  0  0  0  0  0  0  0  0  0  0
   -0.0042   -1.8577   -0.7791 C   0  0  0  0  0  0  0  0  0  0  0  0
   -0.8850   -1.3492   -2.6977 H   0  0  0  0  0  0  0  0  0  0  0  0
    0.8767   -1.3492   -2.6977 H   0  0  0  0  0  0  0  0  0  0  0  0
   -0.0042   -2.8748   -2.6977 H   0  0  0  0  0  0  0  0  0  0  0  0
   -0.0042   -0.6372   -0.3041 H   0  0  0  0  0  0  0  0  0  0  0  0
    0.8767   -2.3663   -0.3832 H   0  0  0  0  0  0  0  0  0  0  0  0
   -0.8850   -2.3663   -0.3832 H   0  0  0  0  0  0  0  0  0  0  0  0
  1  2  1  0
  1  4  1  0
  1  5  1  0
  1  6  1  0
  2  3  2  0
  7  8  1  0
  7  9  1  0
  7 10  1  0
  7 11  1  0
  8 12  1  0
  8 13  1  0
  8 14  1  0
M  RAD  1   2   2
M  END
>  <reaction>  (18) 
rxn_905

>  <mol_properties>  (18) 
{"1": {"label": "*1", "atom_type": "CS"}, "2": {"label": "*0", "atom_type": "S2d"}, "6": {"label": "*4", "atom_type": "Cs"}, "7": {"label": "*3", "atom_type": "Cs"}, "11": {"label": "*2", "atom_type": "H0"}}

>  <type>  (18) 
unop_14

>  <geom_source>  (18) 
gaussian_log

$$$$
