
     RDKit          3D

  4  3  0  0  0  0  0  0  0  0999 V2000
    0.5949   -0.3853    0.2659 O   0  0  0  0  0  0  0  0  0  0  0  0
   -0.5918    0.4028    0.2462 O   0  0  0  0  0  0  0  0  0  0  0  0
    1.1865    0.1539   -0.2689 H   0  0  0  0  0  0  0  0  0  0  0  0
   -1.1896   -0.1714   -0.2432 H   0  0  0  0  0  0  0  0  0  0  0  0
  1  2  1  0
  1  3  1  0
  2  4  1  0
M  END
>  <reaction>  (1) 
rxn_36

>  <mol_properties>  (1) 
{"1": {"label": "donator", "atom_type": "O2s"}, "3": {"label": "d_hydrogen", "atom_type": "H0"}}

>  <type>  (1) 
r1h

$$$$

     RDKit          3D

 12 11  0  0  0  0  0  0  0  0999 V2000
    1.6532    0.0103    0.1268 C   0  0  0  0  0  0  0  0  0  0  0  0
    0.2727   -0.6269    0.3163 C   0  0  0  0  0  0  0  0  0  0  0  0
   -0.8222    0.3685    0.2672 C   0  0  0  0  0  0  0  0  0  0  0  0
   -1.7756    0.5408    1.3134 C   0  0  0  0  0  0  0  0  0  0  0  0
   -1.7776   -0.1152    2.3492 O   0  0  0  0  0  1  0  0  0  0  0  0
    1.8682    0.7166    0.9296 H   0  0  0  0  0  0  0  0  0  0  0  0
    2.4288   -0.7560    0.1330 H   0  0  0  0  0  0  0  0  0  0  0  0
    1.7158    0.5466   -0.8222 H   0  0  0  0  0  0  0  0  0  0  0  0
    0.2225   -1.1675    1.2616 H   0  0  0  0  0  0  0  0  0  0  0  0
    0.1115   -1.3589   -0.4847 H   0  0  0  0  0  0  0  0  0  0  0  0
   -0.9051    1.0131   -0.6029 H   0  0  0  0  0  0  0  0  0  0  0  0
   -2.5429    1.3183    1.1504 H   0  0  0  0  0  0  0  0  0  0  0  0
  1  2  1  0
  1  6  1  0
  1  7  1  0
  1  8  1  0
  2  3  1  0
  2  9  1  0
  2 10  1  0
  3  4  2  3
  3 11  1  0
  4  5  1  0
  4 12  1  0
M  RAD  1   5   2
M  END
>  <reaction>  (2) 
rxn_36

>  <mol_properties>  (2) 
{"4": {"label": "acceptor", "atom_type": "O2s"}}

>  <type>  (2) 
r2

$$$$

     RDKit          3D

 13 12  0  0  0  0  0  0  0  0999 V2000
   -1.6990    0.2388    0.2764 C   0  0  0  0  0  0  0  0  0  0  0  0
   -0.4332    0.4666   -0.5501 C   0  0  0  0  0  0  0  0  0  0  0  0
   -0.7217    0.6370   -2.0116 C   0  0  0  0  0  0  0  0  0  0  0  0
   -0.3468   -0.1693   -2.9981 C   0  0  0  0  0  0  0  0  0  0  0  0
    0.3888   -1.3044   -2.9055 O   0  0  0  0  0  0  0  0  0  0  0  0
   -2.2093   -0.6727   -0.0390 H   0  0  0  0  0  0  0  0  0  0  0  0
   -1.4670    0.1536    1.3394 H   0  0  0  0  0  0  0  0  0  0  0  0
   -2.3963    1.0693    0.1495 H   0  0  0  0  0  0  0  0  0  0  0  0
    0.0814    1.3581   -0.1792 H   0  0  0  0  0  0  0  0  0  0  0  0
    0.2612   -0.3616   -0.3726 H   0  0  0  0  0  0  0  0  0  0  0  0
   -1.3166    1.4973   -2.2952 H   0  0  0  0  0  0  0  0  0  0  0  0
   -0.6155    0.0294   -4.0276 H   0  0  0  0  0  0  0  0  0  0  0  0
    0.6222   -1.4647   -1.9880 H   0  0  0  0  0  0  0  0  0  0  0  0
  1  2  1  0
  1  6  1  0
  1  7  1  0
  1  8  1  0
  2  3  1  0
  2  9  1  0
  2 10  1  0
  3  4  2  3
  3 11  1  0
  4  5  1  0
  4 12  1  0
  5 13  1  0
M  END
>  <reaction>  (3) 
rxn_36

>  <mol_properties>  (3) 
{"0": {"label": "a_hydrogen", "atom_type": "H0"}, "5": {"label": "acceptor", "atom_type": "O2s"}}

>  <type>  (3) 
r2h

$$$$

     RDKit          3D

 16 14  0  0  0  0  0  0  0  0999 V2000
   -0.6913   -1.5312    0.4473 O   0  0  0  0  0  0  0  0  0  0  0  0
   -1.7866   -0.9527   -0.1134 O   0  0  0  0  0  1  0  0  0  0  0  0
   -0.9892   -1.7980    1.3283 H   0  0  0  0  0  0  0  0  0  0  0  0
   -1.5326    0.3179   -0.0191 H   0  0  0  0  0  0  0  0  0  0  0  0
    2.1478   -0.8193   -1.2143 C   0  0  0  0  0  0  0  0  0  0  0  0
    1.2288    0.3902   -1.0610 C   0  0  0  0  0  0  0  0  0  0  0  0
    1.0762    0.8294    0.3530 C   0  0  0  0  0  0  0  0  0  0  0  0
   -0.0729    1.2565    0.9433 C   0  0  0  0  0  0  0  0  0  0  0  0
   -1.2431    1.2990    0.3661 O   0  0  0  0  0  0  0  0  0  0  0  0
    1.7307   -1.6851   -0.7005 H   0  0  0  0  0  0  0  0  0  0  0  0
    2.2723   -1.0756   -2.2668 H   0  0  0  0  0  0  0  0  0  0  0  0
    3.1377   -0.6169   -0.7991 H   0  0  0  0  0  0  0  0  0  0  0  0
    0.2534    0.1860   -1.5025 H   0  0  0  0  0  0  0  0  0  0  0  0
    1.6513    1.2324   -1.6238 H   0  0  0  0  0  0  0  0  0  0  0  0
    1.9712    0.8528    0.9673 H   0  0  0  0  0  0  0  0  0  0  0  0
   -0.0428    1.6060    1.9759 H   0  0  0  0  0  0  0  0  0  0  0  0
  1  2  1  0
  1  3  1  0
  4  9  1  0
  5  6  1  0
  5 10  1  0
  5 11  1  0
  5 12  1  0
  6  7  1  0
  6 13  1  0
  6 14  1  0
  7  8  2  3
  7 15  1  0
  8  9  1  0
  8 16  1  0
M  RAD  1   2   2
M  END
>  <reaction>  (4) 
rxn_36

>  <mol_properties>  (4) 
{"0": {"label": "*4", "atom_type": "O2s"}, "1": {"label": "*3", "atom_type": "O2s"}, "3": {"label": "*2", "atom_type": "H0"}, "7": {"label": "*0", "atom_type": "Cd"}, "8": {"label": "*1", "atom_type": "O2s"}}

>  <type>  (4) 
ts

$$$$

     RDKit          3D

 16 14  0  0  0  0  0  0  0  0999 V2000
    1.1414   -1.1091   -2.1117 O   0  0  0  0  0  0  0  0  0  0  0  0
    1.1414   -1.1091   -0.6870 O   0  0  0  0  0  1  0  0  0  0  0  0
    2.0022   -1.4974   -2.2987 H   0  0  0  0  0  0  0  0  0  0  0  0
    1.1414    0.0240   -0.4625 H   0  0  0  0  0  0  0  0  0  0  0  0
   -2.6763   -0.1673    0.4983 C   0  0  0  0  0  0  0  0  0  0  0  0
   -1.2172   -0.4661    0.8434 C   0  0  0  0  0  0  0  0  0  0  0  0
   -0.5159    0.7111    1.4520 C   0  0  0  0  0  0  0  0  0  0  0  0
    0.5032    1.3875    0.9345 C   0  0  0  0  0  0  0  0  0  0  0  0
    1.1414    1.1542   -0.2387 O   0  0  0  0  0  0  0  0  0  0  0  0
   -2.7443    0.6373   -0.2357 H   0  0  0  0  0  0  0  0  0  0  0  0
   -3.1746   -1.0486    0.0906 H   0  0  0  0  0  0  0  0  0  0  0  0
   -3.2254    0.1488    1.3874 H   0  0  0  0  0  0  0  0  0  0  0  0
   -0.7033   -0.8169   -0.0580 H   0  0  0  0  0  0  0  0  0  0  0  0
   -1.1793   -1.3073    1.5420 H   0  0  0  0  0  0  0  0  0  0  0  0
   -0.8905    1.0637    2.4058 H   0  0  0  0  0  0  0  0  0  0  0  0
    0.9380    2.2379    1.4439 H   0  0  0  0  0  0  0  0  0  0  0  0
  1  2  1  0
  1  3  1  0
  4  9  1  0
  5  6  1  0
  5 10  1  0
  5 11  1  0
  5 12  1  0
  6  7  1  0
  6 13  1  0
  6 14  1  0
  7  8  2  3
  7 15  1  0
  8  9  1  0
  8 16  1  0
M  RAD  1   2   2
M  END
>  <reaction>  (5) 
rxn_36

>  <mol_properties>  (5) 
{"0": {"label": "*4", "atom_type": "O2s"}, "1": {"label": "*3", "atom_type": "O2s"}, "3": {"label": "*2", "atom_type": "H0"}, "7": {"label": "*0", "atom_type": "Cd"}, "8": {"label": "*1", "atom_type": "O2s"}}

>  <type>  (5) 
unop_1

>  <geom_source>  (5) 
Heuristics

$$$$

     RDKit          3D

 16 13  0  0  0  0  0  0  0  0999 V2000
    0.6552   -1.4955   -0.2974 O   0  0  0  0  0  0  0  0  0  0  0  0
    0.6552   -1.4955    1.1272 O   0  0  0  0  0 15  0  0  0  0  0  0
    1.5159   -1.8838   -0.4845 H   0  0  0  0  0  0  0  0  0  0  0  0
    0.6552   -0.3623    1.3517 H   0  0  0  0  0  0  0  0  0  0  0  0
   -0.2483    0.4996   -2.4214 C   0  0  0  0  0  0  0  0  0  0  0  0
   -0.6604   -0.0596   -1.0595 C   0  0  0  0  0  3  0  0  0  0  0  0
   -1.0637    1.0139   -0.0935 C   0  0  0  0  0  0  0  0  0  0  0  0
   -0.4502    1.3401    1.0383 C   0  0  0  0  0  0  0  0  0  0  0  0
    0.6552    0.7678    1.5756 O   0  0  0  0  0  0  0  0  0  0  0  0
    0.6158    1.1589   -2.3246 H   0  0  0  0  0  0  0  0  0  0  0  0
    0.0061   -0.3019   -3.1173 H   0  0  0  0  0  0  0  0  0  0  0  0
   -1.0609    1.0815   -2.8607 H   0  0  0  0  0  0  0  0  0  0  0  0
    0.1587   -0.6689   -0.6626 H   0  0  0  0  0  0  0  0  0  0  0  0
   -1.4956   -0.7533   -1.1949 H   0  0  0  0  0  0  0  0  0  0  0  0
   -1.9361    1.6022   -0.3530 H   0  0  0  0  0  0  0  0  0  0  0  0
   -0.8093    2.1439    1.6680 H   0  0  0  0  0  0  0  0  0  0  0  0
  1  3  1  0
  1 13  1  0
  4  9  1  0
  5  6  1  0
  5 10  1  0
  5 11  1  0
  5 12  1  0
  6  7  1  0
  6 14  1  0
  7  8  2  3
  7 15  1  0
  8  9  1  0
  8 16  1  0
M  RAD  1   6   2
M  END
>  <reaction>  (6) 
rxn_36

>  <mol_properties>  (6) 
{"0": {"label": "*4", "atom_type": "O2s"}, "1": {"label": "*3", "atom_type": "O2s"}, "3": {"label": "*2", "atom_type": "H0"}, "7": {"label": "*0", "atom_type": "Cd"}, "8": {"label": "*1", "atom_type": "O2s"}}

>  <type>  (6) 
unop_2

>  <geom_source>  (6) 
Heuristics

$$$$

     RDKit          3D

 16 14  0  0  0  0  0  0  0  0999 V2000
    0.1826   -0.7741   -2.6215 O   0  0  0  0  0  0  0  0  0  0  0  0
    0.1826   -0.7741   -1.1968 O   0  0  0  0  0  1  0  0  0  0  0  0
    1.0434   -1.1624   -2.8085 H   0  0  0  0  0  0  0  0  0  0  0  0
    0.1826    0.3590   -0.9723 H   0  0  0  0  0  0  0  0  0  0  0  0
   -1.1250   -1.3564    1.9082 C   0  0  0  0  0  0  0  0  0  0  0  0
    0.1557   -0.7193    1.3685 C   0  0  0  0  0  0  0  0  0  0  0  0
    0.1802    0.7689    1.5499 C   0  0  0  0  0  0  0  0  0  0  0  0
    0.1826    1.6893    0.5925 C   0  0  0  0  0  0  0  0  0  0  0  0
    0.1826    1.4892   -0.7484 O   0  0  0  0  0  0  0  0  0  0  0  0
   -2.0004   -0.9735    1.3812 H   0  0  0  0  0  0  0  0  0  0  0  0
   -1.1035   -2.4420    1.7973 H   0  0  0  0  0  0  0  0  0  0  0  0
   -1.2511   -1.1287    2.9684 H   0  0  0  0  0  0  0  0  0  0  0  0
    0.2746   -0.9967    0.3157 H   0  0  0  0  0  0  0  0  0  0  0  0
    1.0174   -1.1577    1.8807 H   0  0  0  0  0  0  0  0  0  0  0  0
    0.1744    1.1372    2.5691 H   0  0  0  0  0  0  0  0  0  0  0  0
    0.1869    2.7472    0.8213 H   0  0  0  0  0  0  0  0  0  0  0  0
  1  2  1  0
  1  3  1  0
  4  9  1  0
  5  6  1  0
  5 10  1  0
  5 11  1  0
  5 12  1  0
  6  7  1  0
  6 13  1  0
  6 14  1  0
  7  8  2  3
  7 15  1  0
  8  9  1  0
  8 16  1  0
M  RAD  1   2   2
M  END
>  <reaction>  (7) 
rxn_36

>  <mol_properties>  (7) 
{"0": {"label": "*4", "atom_type": "O2s"}, "1": {"label": "*3", "atom_type": "O2s"}, "3": {"label": "*2", "atom_type": "H0"}, "7": {"label": "*0", "atom_type": "Cd"}, "8": {"label": "*1", "atom_type": "O2s"}}

>  <type>  (7) 
unop_3

>  <geom_source>  (7) 
Heuristics

$$$$

     RDKit          3D

 16 13  0  0  0  0  0  0  0  0999 V2000
   -0.5183   -1.2323   -0.2611 O   0  0  0  0  0  0  0  0  0  0  0  0
   -0.5183   -1.2323    1.1635 O   0  0  0  0  0 15  0  0  0  0  0  0
    0.3424   -1.6206   -0.4482 H   0  0  0  0  0  0  0  0  0  0  0  0
   -0.5183   -0.0992    1.3880 H   0  0  0  0  0  0  0  0  0  0  0  0
    1.2203   -0.9021   -1.5669 C   0  0  0  0  0  0  0  0  0  0  0  0
   -0.0055   -0.0664   -1.1974 C   0  0  0  0  0  3  0  0  0  0  0  0
    0.3595    1.2677   -0.6185 C   0  0  0  0  0  0  0  0  0  0  0  0
    0.1199    1.6940    0.6163 C   0  0  0  0  0  0  0  0  0  0  0  0
   -0.5183    1.0310    1.6119 O   0  0  0  0  0  0  0  0  0  0  0  0
    1.8271   -1.1116   -0.6846 H   0  0  0  0  0  0  0  0  0  0  0  0
    0.9293   -1.8522   -2.0186 H   0  0  0  0  0  0  0  0  0  0  0  0
    1.8491   -0.3680   -2.2819 H   0  0  0  0  0  0  0  0  0  0  0  0
   -0.6349   -0.6426   -0.5108 H   0  0  0  0  0  0  0  0  0  0  0  0
   -0.6183    0.0853   -2.0909 H   0  0  0  0  0  0  0  0  0  0  0  0
    0.8940    1.9521   -1.2668 H   0  0  0  0  0  0  0  0  0  0  0  0
    0.4352    2.6741    0.9503 H   0  0  0  0  0  0  0  0  0  0  0  0
  1  3  1  0
  1 13  1  0
  4  9  1  0
  5  6  1  0
  5 10  1  0
  5 11  1  0
  5 12  1  0
  6  7  1  0
  6 14  1  0
  7  8  2  3
  7 15  1  0
  8  9  1  0
  8 16  1  0
M  RAD  1   6   2
M  END
>  <reaction>  (8) 
rxn_36

>  <mol_properties>  (8) 
{"0": {"label": "*4", "atom_type": "O2s"}, "1": {"label": "*3", "atom_type": "O2s"}, "3": {"label": "*2", "atom_type": "H0"}, "7": {"label": "*0", "atom_type": "Cd"}, "8": {"label": "*1", "atom_type": "O2s"}}

>  <type>  (8) 
unop_4

>  <geom_source>  (8) 
Heuristics

$$$$

     RDKit          3D

 16 14  0  0  0  0  0  0  0  0999 V2000
   -0.9126   -0.8781   -2.2911 O   0  0  0  0  0  0  0  0  0  0  0  0
   -0.9126   -0.8781   -0.8665 O   0  0  0  0  0  1  0  0  0  0  0  0
   -0.0519   -1.2664   -2.4782 H   0  0  0  0  0  0  0  0  0  0  0  0
   -0.9126    0.2550   -0.6420 H   0  0  0  0  0  0  0  0  0  0  0  0
    1.2245   -1.5186    1.5480 C   0  0  0  0  0  0  0  0  0  0  0  0
    1.4115   -0.2677    0.6892 C   0  0  0  0  0  0  0  0  0  0  0  0
    0.7416    0.9392    1.2749 C   0  0  0  0  0  0  0  0  0  0  0  0
   -0.2744    1.6186    0.7551 C   0  0  0  0  0  0  0  0  0  0  0  0
   -0.9126    1.3852   -0.4181 O   0  0  0  0  0  0  0  0  0  0  0  0
    0.1672   -1.7735    1.6368 H   0  0  0  0  0  0  0  0  0  0  0  0
    1.7503   -2.3740    1.1201 H   0  0  0  0  0  0  0  0  0  0  0  0
    1.6113   -1.3553    2.5557 H   0  0  0  0  0  0  0  0  0  0  0  0
    1.0504   -0.4745   -0.3239 H   0  0  0  0  0  0  0  0  0  0  0  0
    2.4811   -0.0661    0.5779 H   0  0  0  0  0  0  0  0  0  0  0  0
    1.1088    1.2847    2.2341 H   0  0  0  0  0  0  0  0  0  0  0  0
   -0.7036    2.4741    1.2604 H   0  0  0  0  0  0  0  0  0  0  0  0
  1  2  1  0
  1  3  1  0
  4  9  1  0
  5  6  1  0
  5 10  1  0
  5 11  1  0
  5 12  1  0
  6  7  1  0
  6 13  1  0
  6 14  1  0
  7  8  2  3
  7 15  1  0
  8  9  1  0
  8 16  1  0
M  RAD  1   2   2
M  END
>  <reaction>  (9) 
rxn_36

>  <mol_properties>  (9) 
{"0": {"label": "*4", "atom_type": "O2s"}, "1": {"label": "*3", "atom_type": "O2s"}, "3": {"label": "*2", "atom_type": "H0"}, "7": {"label": "*0", "atom_type": "Cd"}, "8": {"label": "*1", "atom_type": "O2s"}}

>  <type>  (9) 
unop_5

>  <geom_source>  (9) 
Heuristics

$$$$

     RDKit          3D

 16 13  0  0  0  0  0  0  0  0999 V2000
   -0.8921   -1.2493   -0.4887 O   0  0  0  0  0  1  0  0  0  0  0  0
   -0.8921   -1.2493    0.9360 O   0  0  0  0  0 15  0  0  0  0  0  0
   -0.0314   -1.6375   -0.6757 H   0  0  0  0  0  0  0  0  0  0  0  0
   -0.8921   -0.1161    1.1605 H   0  0  0  0  0  0  0  0  0  0  0  0
    1.5210   -0.9407   -1.3027 C   0  0  0  0  0  0  0  0  0  0  0  0
    0.4545    0.1519   -1.2238 C   0  0  0  0  0  0  0  0  0  0  0  0
    0.8297    1.2569   -0.2823 C   0  0  0  0  0  0  0  0  0  0  0  0
    0.2133    1.5863    0.8471 C   0  0  0  0  0  0  0  0  0  0  0  0
   -0.8921    1.0140    1.3844 O   0  0  0  0  0  0  0  0  0  0  0  0
    1.6677   -1.4105   -0.3288 H   0  0  0  0  0  0  0  0  0  0  0  0
    1.2419   -1.7145   -2.0200 H   0  0  0  0  0  0  0  0  0  0  0  0
    2.4793   -0.5215   -1.6155 H   0  0  0  0  0  0  0  0  0  0  0  0
   -0.5018   -0.3041   -0.9461 H   0  0  0  0  0  0  0  0  0  0  0  0
    0.2949    0.5695   -2.2224 H   0  0  0  0  0  0  0  0  0  0  0  0
    1.7087    1.8378   -0.5360 H   0  0  0  0  0  0  0  0  0  0  0  0
    0.5674    2.3956    1.4725 H   0  0  0  0  0  0  0  0  0  0  0  0
  1  3  1  0
  4  9  1  0
  5  6  1  0
  5 10  1  0
  5 11  1  0
  5 12  1  0
  6  7  1  0
  6 13  1  0
  6 14  1  0
  7  8  2  3
  7 15  1  0
  8  9  1  0
  8 16  1  0
M  RAD  1   1   2
M  END
>  <reaction>  (10) 
rxn_36

>  <mol_properties>  (10) 
{"0": {"label": "*4", "atom_type": "O2s"}, "1": {"label": "*3", "atom_type": "O2s"}, "3": {"label": "*2", "atom_type": "H0"}, "7": {"label": "*0", "atom_type": "Cd"}, "8": {"label": "*1", "atom_type": "O2s"}}

>  <type>  (10) 
unop_6

>  <geom_source>  (10) 
Heuristics

$$$$

     RDKit          3D

 16 14  0  0  0  0  0  0  0  0999 V2000
   -1.2204   -1.2170   -0.9406 O   0  0  0  0  0  0  0  0  0  0  0  0
   -1.2204   -1.2170    0.4840 O   0  0  0  0  0  1  0  0  0  0  0  0
   -0.3597   -1.6053   -1.1277 H   0  0  0  0  0  0  0  0  0  0  0  0
   -1.2204   -0.0839    0.7085 H   0  0  0  0  0  0  0  0  0  0  0  0
    1.9511   -0.9844   -0.7055 C   0  0  0  0  0  0  0  0  0  0  0  0
    1.0687    0.2434   -0.9317 C   0  0  0  0  0  0  0  0  0  0  0  0
    1.0808    1.1851    0.2350 C   0  0  0  0  0  0  0  0  0  0  0  0
    0.0560    1.4945    1.0212 C   0  0  0  0  0  0  0  0  0  0  0  0
   -1.2204    1.0463    0.9324 O   0  0  0  0  0  0  0  0  0  0  0  0
    1.6004   -1.5612    0.1518 H   0  0  0  0  0  0  0  0  0  0  0  0
    1.9540   -1.6358   -1.5812 H   0  0  0  0  0  0  0  0  0  0  0  0
    2.9818   -0.6860   -0.5043 H   0  0  0  0  0  0  0  0  0  0  0  0
    0.0520   -0.0880   -1.1687 H   0  0  0  0  0  0  0  0  0  0  0  0
    1.4140    0.7733   -1.8245 H   0  0  0  0  0  0  0  0  0  0  0  0
    2.0294    1.6489    0.4789 H   0  0  0  0  0  0  0  0  0  0  0  0
    0.1642    2.1784    1.8531 H   0  0  0  0  0  0  0  0  0  0  0  0
  1  2  1  0
  1  3  1  0
  4  9  1  0
  5  6  1  0
  5 10  1  0
  5 11  1  0
  5 12  1  0
  6  7  1  0
  6 13  1  0
  6 14  1  0
  7  8  2  3
  7 15  1  0
  8  9  1  0
  8 16  1  0
M  RAD  1   2   2
M  END
>  <reaction>  (11) 
rxn_36

>  <mol_properties>  (11) 
{"0": {"label": "*4", "atom_type": "O2s"}, "1": {"label": "*3", "atom_type": "O2s"}, "3": {"label": "*2", "atom_type": "H0"}, "7": {"label": "*0", "atom_type": "Cd"}, "8": {"label": "*1", "atom_type": "O2s"}}

>  <type>  (11) 
unop_7

>  <geom_source>  (11) 
Heuristics

$$$$

     RDKit          3D

 16 14  0  0  0  0  0  0  0  0999 V2000
    1.3490   -1.3916   -1.3593 O   0  0  0  0  0  0  0  0  0  0  0  0
    1.3490   -1.3916    0.0653 O   0  0  0  0  0  1  0  0  0  0  0  0
    2.2097   -1.7799   -1.5464 H   0  0  0  0  0  0  0  0  0  0  0  0
    1.3490   -0.2585    0.2898 H   0  0  0  0  0  0  0  0  0  0  0  0
   -2.4453    0.5605   -1.0262 C   0  0  0  0  0  0  0  0  0  0  0  0
   -1.4838   -0.1313   -0.0595 C   0  0  0  0  0  0  0  0  0  0  0  0
   -1.0025    0.7824    1.0275 C   0  0  0  0  0  0  0  0  0  0  0  0
    0.2435    1.1958    1.2286 C   0  0  0  0  0  0  0  0  0  0  0  0
    1.3490    0.8717    0.5137 O   0  0  0  0  0  0  0  0  0  0  0  0
   -1.9554    1.3960   -1.5288 H   0  0  0  0  0  0  0  0  0  0  0  0
   -2.8091   -0.1333   -1.7861 H   0  0  0  0  0  0  0  0  0  0  0  0
   -3.3101    0.9574   -0.4909 H   0  0  0  0  0  0  0  0  0  0  0  0
   -0.6482   -0.5517   -0.6292 H   0  0  0  0  0  0  0  0  0  0  0  0
   -1.9867   -0.9921    0.3912 H   0  0  0  0  0  0  0  0  0  0  0  0
   -1.7509    1.1647    1.7117 H   0  0  0  0  0  0  0  0  0  0  0  0
    0.4949    1.8706    2.0367 H   0  0  0  0  0  0  0  0  0  0  0  0
  1  2  1  0
  1  3  1  0
  4  9  1  0
  5  6  1  0
  5 10  1  0
  5 11  1  0
  5 12  1  0
  6  7  1  0
  6 13  1  0
  6 14  1  0
  7  8  2  3
  7 15  1  0
  8  9  1  0
  8 16  1  0
M  RAD  1   2   2
M  END
>  <reaction>  (12) 
rxn_36

>  <mol_properties>  (12) 
{"0": {"label": "*4", "atom_type": "O2s"}, "1": {"label": "*3", "atom_type": "O2s"}, "3": {"label": "*2", "atom_type": "H0"}, "7": {"label": "*0", "atom_type": "Cd"}, "8": {"label": "*1", "atom_type": "O2s"}}

>  <type>  (12) 
unop_8

>  <geom_source>  (12) 
Heuristics

$$$$

     RDKit          3D

 16 14  0  0  0  0  0  0  0  0999 V2000
    1.1167   -1.5106   -0.7126 O   0  0  0  0  0  0  0  0  0  0  0  0
    1.1167   -1.5106    0.7120 O   0  0  0  0  0  1  0  0  0  0  0  0
    1.9774   -1.8989   -0.8997 H   0  0  0  0  0  0  0  0  0  0  0  0
    1.1167   -0.3774    0.9365 H   0  0  0  0  0  0  0  0  0  0  0  0
   -1.4574    0.7328   -2.0393 C   0  0  0  0  0  0  0  0  0  0  0  0
   -1.1601   -0.0087   -0.7358 C   0  0  0  0  0  0  0  0  0  0  0  0
   -1.1834    0.8954    0.4601 C   0  0  0  0  0  0  0  0  0  0  0  0
   -0.1597    1.2009    1.2492 C   0  0  0  0  0  0  0  0  0  0  0  0
    1.1167    0.7527    1.1604 O   0  0  0  0  0  0  0  0  0  0  0  0
   -0.7068    1.5021   -2.2277 H   0  0  0  0  0  0  0  0  0  0  0  0
   -1.4702    0.0484   -2.8894 H   0  0  0  0  0  0  0  0  0  0  0  0
   -2.4305    1.2252   -1.9889 H   0  0  0  0  0  0  0  0  0  0  0  0
   -0.1978   -0.5231   -0.8308 H   0  0  0  0  0  0  0  0  0  0  0  0
   -1.8991   -0.8039   -0.5994 H   0  0  0  0  0  0  0  0  0  0  0  0
   -2.1294    1.3680    0.6971 H   0  0  0  0  0  0  0  0  0  0  0  0
   -0.2699    1.8783    2.0862 H   0  0  0  0  0  0  0  0  0  0  0  0
  1  2  1  0
  1  3  1  0
  4  9  1  0
  5  6  1  0
  5 10  1  0
  5 11  1  0
  5 12  1  0
  6  7  1  0
  6 13  1  0
  6 14  1  0
  7  8  2  3
  7 15  1  0
  8  9  1  0
  8 16  1  0
M  RAD  1   2   2
M  END
>  <reaction>  (13) 
rxn_36

>  <mol_properties>  (13) 
{"0": {"label": "*4", "atom_type": "O2s"}, "1": {"label": "*3", "atom_type": "O2s"}, "3": {"label": "*2", "atom_type": "H0"}, "7": {"label": "*0", "atom_type": "Cd"}, "8": {"label": "*1", "atom_type": "O2s"}}

>  <type>  (13) 
unop_9

>  <geom_source>  (13) 
Heuristics

$$$$

     RDKit          3D

 16 14  0  0  0  0  0  0  0  0999 V2000
   -1.3033   -1.0941   -1.5904 O   0  0  0  0  0  0  0  0  0  0  0  0
   -1.3033   -1.0941   -0.1657 O   0  0  0  0  0  1  0  0  0  0  0  0
   -0.4426   -1.4824   -1.7775 H   0  0  0  0  0  0  0  0  0  0  0  0
   -1.3033    0.0390    0.0587 H   0  0  0  0  0  0  0  0  0  0  0  0
    2.0650   -1.1797    0.3256 C   0  0  0  0  0  0  0  0  0  0  0  0
    1.5208    0.1243   -0.2581 C   0  0  0  0  0  0  0  0  0  0  0  0
    1.0473    1.0760    0.7994 C   0  0  0  0  0  0  0  0  0  0  0  0
   -0.1978    1.4933    0.9975 C   0  0  0  0  0  0  0  0  0  0  0  0
   -1.3033    1.1692    0.2826 O   0  0  0  0  0  0  0  0  0  0  0  0
    1.2899   -1.7085    0.8827 H   0  0  0  0  0  0  0  0  0  0  0  0
    2.4358   -1.8402   -0.4603 H   0  0  0  0  0  0  0  0  0  0  0  0
    2.8887   -0.9795    1.0136 H   0  0  0  0  0  0  0  0  0  0  0  0
    0.7238   -0.1108   -0.9716 H   0  0  0  0  0  0  0  0  0  0  0  0
    2.3043    0.6063   -0.8503 H   0  0  0  0  0  0  0  0  0  0  0  0
    1.7939    1.4494    1.4906 H   0  0  0  0  0  0  0  0  0  0  0  0
   -0.4478    2.1748    1.8004 H   0  0  0  0  0  0  0  0  0  0  0  0
  1  2  1  0
  1  3  1  0
  4  9  1  0
  5  6  1  0
  5 10  1  0
  5 11  1  0
  5 12  1  0
  6  7  1  0
  6 13  1  0
  6 14  1  0
  7  8  2  3
  7 15  1  0
  8  9  1  0
  8 16  1  0
M  RAD  1   2   2
M  END
>  <reaction>  (14) 
rxn_36

>  <mol_properties>  (14) 
{"0": {"label": "*4", "atom_type": "O2s"}, "1": {"label": "*3", "atom_type": "O2s"}, "3": {"label": "*2", "atom_type": "H0"}, "7": {"label": "*0", "atom_type": "Cd"}, "8": {"label": "*1", "atom_type": "O2s"}}

>  <type>  (14) 
unop_10

>  <geom_source>  (14) 
Heuristics

$$$$

     RDKit          3D

 16 13  0  0  0  0  0  0  0  0999 V2000
    0.1691   -1.3801   -0.1463 O   0  0  0  0  0  0  0  0  0  0  0  0
    0.1691   -1.3801    1.2784 O   0  0  0  0  0 15  0  0  0  0  0  0
    1.0298   -1.7684   -0.3333 H   0  0  0  0  0  0  0  0  0  0  0  0
    0.1691   -0.2470    1.5029 H   0  0  0  0  0  0  0  0  0  0  0  0
    0.7097   -0.0372   -2.2388 C   0  0  0  0  0  0  0  0  0  0  0  0
   -0.2969   -0.1934   -1.0987 C   0  0  0  0  0  3  0  0  0  0  0  0
   -0.7045    1.1218   -0.5051 C   0  0  0  0  0  0  0  0  0  0  0  0
   -0.4692    1.5462    0.7312 C   0  0  0  0  0  0  0  0  0  0  0  0
    0.1691    0.8832    1.7267 O   0  0  0  0  0  0  0  0  0  0  0  0
    1.6288    0.4314   -1.8831 H   0  0  0  0  0  0  0  0  0  0  0  0
    0.9632   -1.0039   -2.6775 H   0  0  0  0  0  0  0  0  0  0  0  0
    0.3008    0.5946   -3.0296 H   0  0  0  0  0  0  0  0  0  0  0  0
    0.1253   -0.8617   -0.3406 H   0  0  0  0  0  0  0  0  0  0  0  0
   -1.1860   -0.7091   -1.4739 H   0  0  0  0  0  0  0  0  0  0  0  0
   -1.2289    1.8106   -1.1569 H   0  0  0  0  0  0  0  0  0  0  0  0
   -0.7920    2.5229    1.0677 H   0  0  0  0  0  0  0  0  0  0  0  0
  1  3  1  0
  1 13  1  0
  4  9  1  0
  5  6  1  0
  5 10  1  0
  5 11  1  0
  5 12  1  0
  6  7  1  0
  6 14  1  0
  7  8  2  3
  7 15  1  0
  8  9  1  0
  8 16  1  0
M  RAD  1   6   2
M  END
>  <reaction>  (15) 
rxn_36

>  <mol_properties>  (15) 
{"0": {"label": "*4", "atom_type": "O2s"}, "1": {"label": "*3", "atom_type": "O2s"}, "3": {"label": "*2", "atom_type": "H0"}, "7": {"label": "*0", "atom_type": "Cd"}, "8": {"label": "*1", "atom_type": "O2s"}}

>  <type>  (15) 
unop_11

>  <geom_source>  (15) 
Heuristics

$$$$

     RDKit          3D

 16 14  0  0  0  0  0  0  0  0999 V2000
    1.1496   -0.3473    0.1651 O   0  0  0  0  0  0  0  0  0  0  0  0
    3.6033    1.9465    0.2800 O   0  0  0  0  0  0  0  0  0  0  0  0
    2.8522    0.9395   -0.1119 O   0  0  0  0  0  1  0  0  0  0  0  0
   -1.6443   -1.0030    0.2493 C   0  0  0  0  0  0  0  0  0  0  0  0
   -1.9338    0.2873    1.0116 C   0  0  0  0  0  0  0  0  0  0  0  0
   -0.8763   -0.7322   -1.0138 C   0  0  0  0  0  0  0  0  0  0  0  0
    0.4236   -0.4319   -1.0187 C   0  0  0  0  0  0  0  0  0  0  0  0
   -1.0824   -1.7106    0.8967 H   0  0  0  0  0  0  0  0  0  0  0  0
   -2.6118   -1.4808   -0.0161 H   0  0  0  0  0  0  0  0  0  0  0  0
   -2.5059    0.9923    0.3712 H   0  0  0  0  0  0  0  0  0  0  0  0
   -0.9893    0.7722    1.3362 H   0  0  0  0  0  0  0  0  0  0  0  0
   -2.5387    0.0567    1.9137 H   0  0  0  0  0  0  0  0  0  0  0  0
   -1.3952   -0.8144   -1.9611 H   0  0  0  0  0  0  0  0  0  0  0  0
    0.9257   -0.2554   -1.9617 H   0  0  0  0  0  0  0  0  0  0  0  0
    2.2078   -0.1031    0.1428 H   0  0  0  0  0  0  0  0  0  0  0  0
    4.4154    1.8842   -0.2832 H   0  0  0  0  0  0  0  0  0  0  0  0
  1  7  1  0
  1 15  1  0
  2  3  1  0
  2 16  1  0
  4  5  1  0
  4  6  1  0
  4  8  1  0
  4  9  1  0
  5 10  1  0
  5 11  1  0
  5 12  1  0
  6  7  2  3
  6 13  1  0
  7 14  1  0
M  RAD  1   3   2
M  END
>  <reaction>  (16) 
rxn_36

>  <mol_properties>  (16) 
{"0": {"label": "*4", "atom_type": "O2s"}, "1": {"label": "*3", "atom_type": "O2s"}, "3": {"label": "*2", "atom_type": "H0"}, "7": {"label": "*0", "atom_type": "Cd"}, "8": {"label": "*1", "atom_type": "O2s"}}

>  <type>  (16) 
unop_12

>  <geom_source>  (16) 
AutoTST

$$$$

     RDKit          3D

 16 13  0  0  0  0  0  0  0  0999 V2000
    0.6552   -1.4955   -0.2974 O   0  0  0  0  0  0  0  0  0  0  0  0
    0.6552   -1.4955    1.1272 O   0  0  0  0  0 15  0  0  0  0  0  0
    1.5159   -1.8838   -0.4845 H   0  0  0  0  0  0  0  0  0  0  0  0
    0.6552   -0.3624    1.3517 H   0  0  0  0  0  0  0  0  0  0  0  0
   -0.2483    0.4996   -2.4215 C   0  0  0  0  0  0  0  0  0  0  0  0
   -0.6604   -0.0596   -1.0595 C   0  0  0  0  0  3  0  0  0  0  0  0
   -1.0637    1.0139   -0.0935 C   0  0  0  0  0  0  0  0  0  0  0  0
   -0.4502    1.3400    1.0383 C   0  0  0  0  0  0  0  0  0  0  0  0
    0.6552    0.7678    1.5756 O   0  0  0  0  0  0  0  0  0  0  0  0
    0.6158    1.1588   -2.3246 H   0  0  0  0  0  0  0  0  0  0  0  0
    0.0061   -0.3019   -3.1173 H   0  0  0  0  0  0  0  0  0  0  0  0
   -1.0609    1.0815   -2.8607 H   0  0  0  0  0  0  0  0  0  0  0  0
    0.1587   -0.6689   -0.6626 H   0  0  0  0  0  0  0  0  0  0  0  0
   -1.4956   -0.7533   -1.1949 H   0  0  0  0  0  0  0  0  0  0  0  0
   -1.9361    1.6022   -0.3530 H   0  0  0  0  0  0  0  0  0  0  0  0
   -0.8093    2.1439    1.6680 H   0  0  0  0  0  0  0  0  0  0  0  0
  1  3  1  0
  1 13  1  0
  4  9  1  0
  5  6  1  0
  5 10  1  0
  5 11  1  0
  5 12  1  0
  6  7  1  0
  6 14  1  0
  7  8  2  3
  7 15  1  0
  8  9  1  0
  8 16  1  0
M  RAD  1   6   2
M  END
>  <reaction>  (17) 
rxn_36

>  <mol_properties>  (17) 
{"0": {"label": "*4", "atom_type": "O2s"}, "1": {"label": "*3", "atom_type": "O2s"}, "3": {"label": "*2", "atom_type": "H0"}, "7": {"label": "*0", "atom_type": "Cd"}, "8": {"label": "*1", "atom_type": "O2s"}}

>  <type>  (17) 
unop_13

>  <geom_source>  (17) 
gaussian_log

$$$$
