
     RDKit          3D

  6  5  0  0  0  0  0  0  0  0999 V2000
   -0.5072   -0.0291   -0.0097 C   0  0  0  0  0  0  0  0  0  0  0  0
    1.1321   -0.1527   -0.7687 S   0  0  0  0  0  0  0  0  0  0  0  0
   -0.6174   -0.7330    0.8127 H   0  0  0  0  0  0  0  0  0  0  0  0
   -0.5863    0.9827    0.3845 H   0  0  0  0  0  0  0  0  0  0  0  0
   -1.2962   -0.1800   -0.7434 H   0  0  0  0  0  0  0  0  0  0  0  0
    1.0312   -1.4237   -1.1764 H   0  0  0  0  0  0  0  0  0  0  0  0
  1  2  1  0
  1  3  1  0
  1  4  1  0
  1  5  1  0
  2  6  1  0
M  END
>  <reaction>  (1) 
rxn_1843

>  <mol_properties>  (1) 
{"0": {"label": "donator", "atom_type": "Cs"}, "2": {"label": "d_hydrogen", "atom_type": "H0"}}

>  <type>  (1) 
r1h

$$$$

     RDKit          3D

  8  7  0  0  0  0  0  0  0  0999 V2000
   -1.0607    0.1793   -0.1423 C   0  0  0  0  0  0  0  0  0  0  0  0
    0.2796    0.0327    0.4820 C   0  0  0  0  0  3  0  0  0  0  0  0
    0.8817   -1.4663    1.0791 S   0  0  0  0  0  0  0  0  0  0  0  0
   -1.3043    1.2328   -0.2850 H   0  0  0  0  0  0  0  0  0  0  0  0
   -1.8444   -0.2641    0.4799 H   0  0  0  0  0  0  0  0  0  0  0  0
   -1.1164   -0.3100   -1.1237 H   0  0  0  0  0  0  0  0  0  0  0  0
    1.0449    0.7826    0.3391 H   0  0  0  0  0  0  0  0  0  0  0  0
   -0.2993   -2.0726    1.2718 H   0  0  0  0  0  0  0  0  0  0  0  0
  1  2  1  0
  1  4  1  0
  1  5  1  0
  1  6  1  0
  2  3  1  0
  2  7  1  0
  3  8  1  0
M  RAD  1   2   2
M  END
>  <reaction>  (2) 
rxn_1843

>  <mol_properties>  (2) 
{"1": {"label": "acceptor", "atom_type": "Cs"}}

>  <type>  (2) 
r2

$$$$

     RDKit          3D

  9  8  0  0  0  0  0  0  0  0999 V2000
   -0.8818   -0.3578    0.1297 C   0  0  0  0  0  0  0  0  0  0  0  0
    0.6153   -0.3021   -0.1188 C   0  0  0  0  0  0  0  0  0  0  0  0
    1.5354   -1.7170    0.5545 S   0  0  0  0  0  0  0  0  0  0  0  0
   -1.1018   -0.3317    1.1984 H   0  0  0  0  0  0  0  0  0  0  0  0
   -1.3114   -1.2723   -0.2799 H   0  0  0  0  0  0  0  0  0  0  0  0
   -1.3767    0.4976   -0.3363 H   0  0  0  0  0  0  0  0  0  0  0  0
    1.0467    0.6194    0.2718 H   0  0  0  0  0  0  0  0  0  0  0  0
    0.8295   -0.3275   -1.1882 H   0  0  0  0  0  0  0  0  0  0  0  0
    1.2306   -1.5077    1.8423 H   0  0  0  0  0  0  0  0  0  0  0  0
  1  2  1  0
  1  4  1  0
  1  5  1  0
  1  6  1  0
  2  3  1  0
  2  7  1  0
  2  8  1  0
  3  9  1  0
M  END
>  <reaction>  (3) 
rxn_1843

>  <mol_properties>  (3) 
{"1": {"label": "acceptor", "atom_type": "Cs"}, "8": {"label": "a_hydrogen", "atom_type": "H0"}}

>  <type>  (3) 
r2h

$$$$

     RDKit          3D

 14 12  0  0  0  0  0  0  0  0999 V2000
   -1.3082    0.7964    1.7703 C   0  0  0  0  0  0  0  0  0  0  0  0
    0.1189    0.4432    1.4410 C   0  0  0  0  0  0  0  0  0  0  0  0
    1.0305    1.5997    0.4448 S   0  0  0  0  0  0  0  0  0  0  0  0
   -1.7598    0.0125    2.3822 H   0  0  0  0  0  0  0  0  0  0  0  0
   -1.8998    0.8922    0.8566 H   0  0  0  0  0  0  0  0  0  0  0  0
   -1.3759    1.7404    2.3168 H   0  0  0  0  0  0  0  0  0  0  0  0
    0.7316    0.1968    2.3073 H   0  0  0  0  0  0  0  0  0  0  0  0
    0.0907    1.7671   -0.4973 H   0  0  0  0  0  0  0  0  0  0  0  0
   -0.1280   -1.7858   -0.0452 C   0  0  0  0  0  3  0  0  0  0  0  0
   -0.5803   -1.2315   -1.6625 S   0  0  0  0  0  0  0  0  0  0  0  0
    0.0486   -0.6909    0.7515 H   0  0  0  0  0  0  0  0  0  0  0  0
   -0.9531   -2.3367    0.3992 H   0  0  0  0  0  0  0  0  0  0  0  0
    0.8113   -2.3304    0.0009 H   0  0  0  0  0  0  0  0  0  0  0  0
    0.6011   -0.6916   -1.9901 H   0  0  0  0  0  0  0  0  0  0  0  0
  1  2  1  0
  1  4  1  0
  1  5  1  0
  1  6  1  0
  2  3  1  0
  2  7  1  0
  2 11  1  0
  3  8  1  0
  9 10  1  0
  9 12  1  0
  9 13  1  0
 10 14  1  0
M  RAD  1   9   2
M  END
>  <reaction>  (4) 
rxn_1843

>  <mol_properties>  (4) 
{"1": {"label": "*1", "atom_type": "Cs"}, "2": {"label": "*0", "atom_type": "S2s"}, "8": {"label": "*3", "atom_type": "Cs"}, "9": {"label": "*4", "atom_type": "S2s"}, "10": {"label": "*2", "atom_type": "H0"}}

>  <type>  (4) 
ts

$$$$

     RDKit          3D

 14 12  0  0  0  0  0  0  0  0999 V2000
   -1.3186    0.8266    1.8530 C   0  0  0  0  0  0  0  0  0  0  0  0
   -0.0929    0.5718    0.9933 C   0  0  0  0  0  3  0  0  0  0  0  0
    0.7757    2.0792    0.4688 S   0  0  0  0  0  0  0  0  0  0  0  0
   -1.7661   -0.1193    2.1671 H   0  0  0  0  0  0  0  0  0  0  0  0
   -2.0738    1.3880    1.3000 H   0  0  0  0  0  0  0  0  0  0  0  0
   -1.0584    1.3997    2.7432 H   0  0  0  0  0  0  0  0  0  0  0  0
    0.6581    0.0097    1.5504 H   0  0  0  0  0  0  0  0  0  0  0  0
   -0.2331    2.6078   -0.2368 H   0  0  0  0  0  0  0  0  0  0  0  0
   -0.0929   -1.8619    0.0410 C   0  0  0  0  0  0  0  0  0  0  0  0
   -0.0929   -1.8619   -1.7697 S   0  0  0  0  0  0  0  0  0  0  0  0
   -0.0929   -0.6461    0.5168 H   0  0  0  0  0  0  0  0  0  0  0  0
   -1.0136   -2.3561    0.3469 H   0  0  0  0  0  0  0  0  0  0  0  0
    0.7515   -2.4219    0.4375 H   0  0  0  0  0  0  0  0  0  0  0  0
    1.0774   -1.2338   -1.9361 H   0  0  0  0  0  0  0  0  0  0  0  0
  1  2  1  0
  1  4  1  0
  1  5  1  0
  1  6  1  0
  2  3  1  0
  2  7  1  0
  3  8  1  0
  9 10  1  0
  9 11  1  0
  9 12  1  0
  9 13  1  0
 10 14  1  0
M  RAD  1   2   2
M  END
>  <reaction>  (5) 
rxn_1843

>  <mol_properties>  (5) 
{"1": {"label": "*1", "atom_type": "Cs"}, "2": {"label": "*0", "atom_type": "S2s"}, "8": {"label": "*3", "atom_type": "Cs"}, "9": {"label": "*4", "atom_type": "S2s"}, "10": {"label": "*2", "atom_type": "H0"}}

>  <type>  (5) 
unop_1

>  <geom_source>  (5) 
Heuristics

$$$$

     RDKit          3D

 14 12  0  0  0  0  0  0  0  0999 V2000
   -1.0600    1.6739   -0.0892 C   0  0  0  0  0  0  0  0  0  0  0  0
   -0.3523    0.7145    0.8516 C   0  0  0  0  0  3  0  0  0  0  0  0
    1.1162    1.4133    1.6621 S   0  0  0  0  0  0  0  0  0  0  0  0
   -1.9542    1.2059   -0.5077 H   0  0  0  0  0  0  0  0  0  0  0  0
   -0.4103    1.9581   -0.9189 H   0  0  0  0  0  0  0  0  0  0  0  0
   -1.3569    2.5841    0.4325 H   0  0  0  0  0  0  0  0  0  0  0  0
   -1.0064    0.4330    1.6782 H   0  0  0  0  0  0  0  0  0  0  0  0
    1.8231    1.6377    0.5464 H   0  0  0  0  0  0  0  0  0  0  0  0
   -0.3523   -1.7191   -0.1007 C   0  0  0  0  0  0  0  0  0  0  0  0
   -0.3523   -1.7191   -1.9114 S   0  0  0  0  0  0  0  0  0  0  0  0
   -0.3523   -0.5033    0.3750 H   0  0  0  0  0  0  0  0  0  0  0  0
   -1.2730   -2.2133    0.2052 H   0  0  0  0  0  0  0  0  0  0  0  0
    0.4920   -2.2791    0.2957 H   0  0  0  0  0  0  0  0  0  0  0  0
    0.8180   -1.0910   -2.0778 H   0  0  0  0  0  0  0  0  0  0  0  0
  1  2  1  0
  1  4  1  0
  1  5  1  0
  1  6  1  0
  2  3  1  0
  2  7  1  0
  3  8  1  0
  9 10  1  0
  9 11  1  0
  9 12  1  0
  9 13  1  0
 10 14  1  0
M  RAD  1   2   2
M  END
>  <reaction>  (6) 
rxn_1843

>  <mol_properties>  (6) 
{"1": {"label": "*1", "atom_type": "Cs"}, "2": {"label": "*0", "atom_type": "S2s"}, "8": {"label": "*3", "atom_type": "Cs"}, "9": {"label": "*4", "atom_type": "S2s"}, "10": {"label": "*2", "atom_type": "H0"}}

>  <type>  (6) 
unop_2

>  <geom_source>  (6) 
Heuristics

$$$$

     RDKit          3D

 14 12  0  0  0  0  0  0  0  0999 V2000
   -0.6001    0.6521    2.3903 C   0  0  0  0  0  0  0  0  0  0  0  0
    0.1076    0.5861    1.0482 C   0  0  0  0  0  3  0  0  0  0  0  0
    0.0658    2.1397    0.1067 S   0  0  0  0  0  0  0  0  0  0  0  0
   -0.5005   -0.2983    2.9199 H   0  0  0  0  0  0  0  0  0  0  0  0
   -1.6649    0.8544    2.2610 H   0  0  0  0  0  0  0  0  0  0  0  0
   -0.1810    1.4422    3.0138 H   0  0  0  0  0  0  0  0  0  0  0  0
    1.1709    0.3828    1.1831 H   0  0  0  0  0  0  0  0  0  0  0  0
   -1.2653    2.2089   -0.0288 H   0  0  0  0  0  0  0  0  0  0  0  0
    0.1076   -1.8476    0.0958 C   0  0  0  0  0  0  0  0  0  0  0  0
    0.1076   -1.8476   -1.7148 S   0  0  0  0  0  0  0  0  0  0  0  0
    0.1076   -0.6318    0.5716 H   0  0  0  0  0  0  0  0  0  0  0  0
   -0.8131   -2.3417    0.4018 H   0  0  0  0  0  0  0  0  0  0  0  0
    0.9519   -2.4076    0.4923 H   0  0  0  0  0  0  0  0  0  0  0  0
    1.2779   -1.2195   -1.8812 H   0  0  0  0  0  0  0  0  0  0  0  0
  1  2  1  0
  1  4  1  0
  1  5  1  0
  1  6  1  0
  2  3  1  0
  2  7  1  0
  3  8  1  0
  9 10  1  0
  9 11  1  0
  9 12  1  0
  9 13  1  0
 10 14  1  0
M  RAD  1   2   2
M  END
>  <reaction>  (7) 
rxn_1843

>  <mol_properties>  (7) 
{"1": {"label": "*1", "atom_type": "Cs"}, "2": {"label": "*0", "atom_type": "S2s"}, "8": {"label": "*3", "atom_type": "Cs"}, "9": {"label": "*4", "atom_type": "S2s"}, "10": {"label": "*2", "atom_type": "H0"}}

>  <type>  (7) 
unop_3

>  <geom_source>  (7) 
Heuristics

$$$$

     RDKit          3D

 14 12  0  0  0  0  0  0  0  0999 V2000
    0.9739    1.9821    0.0863 C   0  0  0  0  0  0  0  0  0  0  0  0
   -0.2519    1.2115    0.5447 C   0  0  0  0  0  3  0  0  0  0  0  0
   -0.0444    0.3603    2.1366 S   0  0  0  0  0  0  0  0  0  0  0  0
    0.7671    2.5023   -0.8520 H   0  0  0  0  0  0  0  0  0  0  0  0
    1.8177    1.3104   -0.0811 H   0  0  0  0  0  0  0  0  0  0  0  0
    1.2732    2.7186    0.8324 H   0  0  0  0  0  0  0  0  0  0  0  0
   -1.0923    1.8873    0.7095 H   0  0  0  0  0  0  0  0  0  0  0  0
    0.9485   -0.4540    1.7544 H   0  0  0  0  0  0  0  0  0  0  0  0
   -0.2519   -1.2222   -0.4077 C   0  0  0  0  0  0  0  0  0  0  0  0
   -0.2519   -1.2222   -2.2183 S   0  0  0  0  0  0  0  0  0  0  0  0
   -0.2519   -0.0063    0.0681 H   0  0  0  0  0  0  0  0  0  0  0  0
   -1.1725   -1.7163   -0.1017 H   0  0  0  0  0  0  0  0  0  0  0  0
    0.5925   -1.7822   -0.0112 H   0  0  0  0  0  0  0  0  0  0  0  0
    0.9185   -0.5940   -2.3847 H   0  0  0  0  0  0  0  0  0  0  0  0
  1  2  1  0
  1  4  1  0
  1  5  1  0
  1  6  1  0
  2  3  1  0
  2  7  1  0
  3  8  1  0
  9 10  1  0
  9 11  1  0
  9 12  1  0
  9 13  1  0
 10 14  1  0
M  RAD  1   2   2
M  END
>  <reaction>  (8) 
rxn_1843

>  <mol_properties>  (8) 
{"1": {"label": "*1", "atom_type": "Cs"}, "2": {"label": "*0", "atom_type": "S2s"}, "8": {"label": "*3", "atom_type": "Cs"}, "9": {"label": "*4", "atom_type": "S2s"}, "10": {"label": "*2", "atom_type": "H0"}}

>  <type>  (8) 
unop_4

>  <geom_source>  (8) 
Heuristics

$$$$

     RDKit          3D

 14 12  0  0  0  0  0  0  0  0999 V2000
    0.4070    0.7843    2.4801 C   0  0  0  0  0  0  0  0  0  0  0  0
    0.4070    0.7873    0.9615 C   0  0  0  0  0  3  0  0  0  0  0  0
   -0.9690    1.7126    0.2183 S   0  0  0  0  0  0  0  0  0  0  0  0
    1.2807    0.2489    2.8594 H   0  0  0  0  0  0  0  0  0  0  0  0
   -0.4847    0.2902    2.8699 H   0  0  0  0  0  0  0  0  0  0  0  0
    0.4265    1.8014    2.8723 H   0  0  0  0  0  0  0  0  0  0  0  0
    1.3007    1.2813    0.5773 H   0  0  0  0  0  0  0  0  0  0  0  0
   -1.9573    0.9601    0.7204 H   0  0  0  0  0  0  0  0  0  0  0  0
    0.4070   -1.6463    0.0091 C   0  0  0  0  0  0  0  0  0  0  0  0
    0.4070   -1.6463   -1.8015 S   0  0  0  0  0  0  0  0  0  0  0  0
    0.4070   -0.4305    0.4849 H   0  0  0  0  0  0  0  0  0  0  0  0
   -0.5136   -2.1405    0.3151 H   0  0  0  0  0  0  0  0  0  0  0  0
    1.2514   -2.2063    0.4056 H   0  0  0  0  0  0  0  0  0  0  0  0
    1.5773   -1.0182   -1.9679 H   0  0  0  0  0  0  0  0  0  0  0  0
  1  2  1  0
  1  4  1  0
  1  5  1  0
  1  6  1  0
  2  3  1  0
  2  7  1  0
  3  8  1  0
  9 10  1  0
  9 11  1  0
  9 12  1  0
  9 13  1  0
 10 14  1  0
M  RAD  1   2   2
M  END
>  <reaction>  (9) 
rxn_1843

>  <mol_properties>  (9) 
{"1": {"label": "*1", "atom_type": "Cs"}, "2": {"label": "*0", "atom_type": "S2s"}, "8": {"label": "*3", "atom_type": "Cs"}, "9": {"label": "*4", "atom_type": "S2s"}, "10": {"label": "*2", "atom_type": "H0"}}

>  <type>  (9) 
unop_5

>  <geom_source>  (9) 
Heuristics

$$$$

     RDKit          3D

 14 12  0  0  0  0  0  0  0  0999 V2000
    1.3909    1.8038    0.7122 C   0  0  0  0  0  0  0  0  0  0  0  0
   -0.0244    1.2911    0.5115 C   0  0  0  0  0  3  0  0  0  0  0  0
   -0.6612    0.3007    1.8955 S   0  0  0  0  0  0  0  0  0  0  0  0
    1.6943    2.4242   -0.1345 H   0  0  0  0  0  0  0  0  0  0  0  0
    2.0984    0.9767    0.7928 H   0  0  0  0  0  0  0  0  0  0  0  0
    1.4647    2.3994    1.6224 H   0  0  0  0  0  0  0  0  0  0  0  0
   -0.7271    2.1217    0.4306 H   0  0  0  0  0  0  0  0  0  0  0  0
    0.2460   -0.6823    1.8195 H   0  0  0  0  0  0  0  0  0  0  0  0
   -0.0244   -1.1426   -0.4408 C   0  0  0  0  0  0  0  0  0  0  0  0
   -0.0244   -1.1426   -2.2514 S   0  0  0  0  0  0  0  0  0  0  0  0
   -0.0244    0.0733    0.0350 H   0  0  0  0  0  0  0  0  0  0  0  0
   -0.9451   -1.6367   -0.1349 H   0  0  0  0  0  0  0  0  0  0  0  0
    0.8199   -1.7026   -0.0443 H   0  0  0  0  0  0  0  0  0  0  0  0
    1.1459   -0.5144   -2.4178 H   0  0  0  0  0  0  0  0  0  0  0  0
  1  2  1  0
  1  4  1  0
  1  5  1  0
  1  6  1  0
  2  3  1  0
  2  7  1  0
  3  8  1  0
  9 10  1  0
  9 11  1  0
  9 12  1  0
  9 13  1  0
 10 14  1  0
M  RAD  1   2   2
M  END
>  <reaction>  (10) 
rxn_1843

>  <mol_properties>  (10) 
{"1": {"label": "*1", "atom_type": "Cs"}, "2": {"label": "*0", "atom_type": "S2s"}, "8": {"label": "*3", "atom_type": "Cs"}, "9": {"label": "*4", "atom_type": "S2s"}, "10": {"label": "*2", "atom_type": "H0"}}

>  <type>  (10) 
unop_6

>  <geom_source>  (10) 
Heuristics

$$$$

     RDKit          3D

 14 12  0  0  0  0  0  0  0  0999 V2000
    1.4508    1.5280    1.4278 C   0  0  0  0  0  0  0  0  0  0  0  0
    0.2250    1.2732    0.5681 C   0  0  0  0  0  3  0  0  0  0  0  0
   -1.1462    0.4668    1.4463 S   0  0  0  0  0  0  0  0  0  0  0  0
    2.2174    2.0512    0.8513 H   0  0  0  0  0  0  0  0  0  0  0  0
    1.8802    0.5899    1.7838 H   0  0  0  0  0  0  0  0  0  0  0  0
    1.1977    2.1338    2.2982 H   0  0  0  0  0  0  0  0  0  0  0  0
   -0.1995    2.2138    0.2142 H   0  0  0  0  0  0  0  0  0  0  0  0
   -0.4984   -0.6665    1.7481 H   0  0  0  0  0  0  0  0  0  0  0  0
    0.2250   -1.1605   -0.3842 C   0  0  0  0  0  0  0  0  0  0  0  0
    0.2250   -1.1605   -2.1949 S   0  0  0  0  0  0  0  0  0  0  0  0
    0.2250    0.0553    0.0915 H   0  0  0  0  0  0  0  0  0  0  0  0
   -0.6956   -1.6546   -0.0783 H   0  0  0  0  0  0  0  0  0  0  0  0
    1.0694   -1.7205    0.0122 H   0  0  0  0  0  0  0  0  0  0  0  0
    1.3953   -0.5324   -2.3613 H   0  0  0  0  0  0  0  0  0  0  0  0
  1  2  1  0
  1  4  1  0
  1  5  1  0
  1  6  1  0
  2  3  1  0
  2  7  1  0
  3  8  1  0
  9 10  1  0
  9 11  1  0
  9 12  1  0
  9 13  1  0
 10 14  1  0
M  RAD  1   2   2
M  END
>  <reaction>  (11) 
rxn_1843

>  <mol_properties>  (11) 
{"1": {"label": "*1", "atom_type": "Cs"}, "2": {"label": "*0", "atom_type": "S2s"}, "8": {"label": "*3", "atom_type": "Cs"}, "9": {"label": "*4", "atom_type": "S2s"}, "10": {"label": "*2", "atom_type": "H0"}}

>  <type>  (11) 
unop_7

>  <geom_source>  (11) 
Heuristics

$$$$

     RDKit          3D

 14 12  0  0  0  0  0  0  0  0999 V2000
   -1.6030    1.1095    1.1331 C   0  0  0  0  0  0  0  0  0  0  0  0
   -0.1876    0.5968    0.9324 C   0  0  0  0  0  3  0  0  0  0  0  0
    1.0820    1.8967    0.9280 S   0  0  0  0  0  0  0  0  0  0  0  0
   -2.3082    0.2757    1.1679 H   0  0  0  0  0  0  0  0  0  0  0  0
   -1.9004    1.7666    0.3139 H   0  0  0  0  0  0  0  0  0  0  0  0
   -1.6857    1.6727    2.0630 H   0  0  0  0  0  0  0  0  0  0  0  0
    0.1040   -0.0600    1.7532 H   0  0  0  0  0  0  0  0  0  0  0  0
    0.6294    2.5587   -0.1453 H   0  0  0  0  0  0  0  0  0  0  0  0
   -0.1876   -1.8369   -0.0199 C   0  0  0  0  0  0  0  0  0  0  0  0
   -0.1876   -1.8369   -1.8305 S   0  0  0  0  0  0  0  0  0  0  0  0
   -0.1876   -0.6210    0.4559 H   0  0  0  0  0  0  0  0  0  0  0  0
   -1.1083   -2.3310    0.2861 H   0  0  0  0  0  0  0  0  0  0  0  0
    0.6567   -2.3969    0.3766 H   0  0  0  0  0  0  0  0  0  0  0  0
    0.9827   -1.2087   -1.9969 H   0  0  0  0  0  0  0  0  0  0  0  0
  1  2  1  0
  1  4  1  0
  1  5  1  0
  1  6  1  0
  2  3  1  0
  2  7  1  0
  3  8  1  0
  9 10  1  0
  9 11  1  0
  9 12  1  0
  9 13  1  0
 10 14  1  0
M  RAD  1   2   2
M  END
>  <reaction>  (12) 
rxn_1843

>  <mol_properties>  (12) 
{"1": {"label": "*1", "atom_type": "Cs"}, "2": {"label": "*0", "atom_type": "S2s"}, "8": {"label": "*3", "atom_type": "Cs"}, "9": {"label": "*4", "atom_type": "S2s"}, "10": {"label": "*2", "atom_type": "H0"}}

>  <type>  (12) 
unop_8

>  <geom_source>  (12) 
Heuristics

$$$$

     RDKit          3D

 14 12  0  0  0  0  0  0  0  0999 V2000
    0.3060    2.0134   -0.2950 C   0  0  0  0  0  0  0  0  0  0  0  0
   -0.4017    1.0540    0.6458 C   0  0  0  0  0  3  0  0  0  0  0  0
    0.5503    0.6330    2.1352 S   0  0  0  0  0  0  0  0  0  0  0  0
   -0.3367    2.2564   -1.1445 H   0  0  0  0  0  0  0  0  0  0  0  0
    1.2249    1.5719   -0.6847 H   0  0  0  0  0  0  0  0  0  0  0  0
    0.5686    2.9394    0.2171 H   0  0  0  0  0  0  0  0  0  0  0  0
   -1.3197    1.4997    1.0315 H   0  0  0  0  0  0  0  0  0  0  0  0
    1.5819    0.0531    1.5070 H   0  0  0  0  0  0  0  0  0  0  0  0
   -0.4017   -1.3797   -0.3065 C   0  0  0  0  0  0  0  0  0  0  0  0
   -0.4017   -1.3797   -2.1172 S   0  0  0  0  0  0  0  0  0  0  0  0
   -0.4017   -0.1638    0.1692 H   0  0  0  0  0  0  0  0  0  0  0  0
   -1.3224   -1.8738   -0.0006 H   0  0  0  0  0  0  0  0  0  0  0  0
    0.4427   -1.9397    0.0899 H   0  0  0  0  0  0  0  0  0  0  0  0
    0.7686   -0.7515   -2.2836 H   0  0  0  0  0  0  0  0  0  0  0  0
  1  2  1  0
  1  4  1  0
  1  5  1  0
  1  6  1  0
  2  3  1  0
  2  7  1  0
  3  8  1  0
  9 10  1  0
  9 11  1  0
  9 12  1  0
  9 13  1  0
 10 14  1  0
M  RAD  1   2   2
M  END
>  <reaction>  (13) 
rxn_1843

>  <mol_properties>  (13) 
{"1": {"label": "*1", "atom_type": "Cs"}, "2": {"label": "*0", "atom_type": "S2s"}, "8": {"label": "*3", "atom_type": "Cs"}, "9": {"label": "*4", "atom_type": "S2s"}, "10": {"label": "*2", "atom_type": "H0"}}

>  <type>  (13) 
unop_9

>  <geom_source>  (13) 
Heuristics

$$$$

     RDKit          3D

 14 12  0  0  0  0  0  0  0  0999 V2000
   -1.4867    1.4063    0.4354 C   0  0  0  0  0  0  0  0  0  0  0  0
   -0.2609    0.6357    0.8937 C   0  0  0  0  0  3  0  0  0  0  0  0
    1.1564    1.6840    1.3342 S   0  0  0  0  0  0  0  0  0  0  0  0
   -2.3115    0.7205    0.2281 H   0  0  0  0  0  0  0  0  0  0  0  0
   -1.2775    1.9656   -0.4783 H   0  0  0  0  0  0  0  0  0  0  0  0
   -1.8089    2.1159    1.1978 H   0  0  0  0  0  0  0  0  0  0  0  0
   -0.4757    0.0779    1.8064 H   0  0  0  0  0  0  0  0  0  0  0  0
    1.3305    2.2339    0.1250 H   0  0  0  0  0  0  0  0  0  0  0  0
   -0.2609   -1.7980   -0.0586 C   0  0  0  0  0  0  0  0  0  0  0  0
   -0.2609   -1.7980   -1.8692 S   0  0  0  0  0  0  0  0  0  0  0  0
   -0.2609   -0.5822    0.4172 H   0  0  0  0  0  0  0  0  0  0  0  0
   -1.1816   -2.2921    0.2473 H   0  0  0  0  0  0  0  0  0  0  0  0
    0.5834   -2.3580    0.3379 H   0  0  0  0  0  0  0  0  0  0  0  0
    0.9094   -1.1699   -2.0356 H   0  0  0  0  0  0  0  0  0  0  0  0
  1  2  1  0
  1  4  1  0
  1  5  1  0
  1  6  1  0
  2  3  1  0
  2  7  1  0
  3  8  1  0
  9 10  1  0
  9 11  1  0
  9 12  1  0
  9 13  1  0
 10 14  1  0
M  RAD  1   2   2
M  END
>  <reaction>  (14) 
rxn_1843

>  <mol_properties>  (14) 
{"1": {"label": "*1", "atom_type": "Cs"}, "2": {"label": "*0", "atom_type": "S2s"}, "8": {"label": "*3", "atom_type": "Cs"}, "9": {"label": "*4", "atom_type": "S2s"}, "10": {"label": "*2", "atom_type": "H0"}}

>  <type>  (14) 
unop_10

>  <geom_source>  (14) 
Heuristics

$$$$

     RDKit          3D

 14 12  0  0  0  0  0  0  0  0999 V2000
    1.1391    1.1816    2.0693 C   0  0  0  0  0  0  0  0  0  0  0  0
    0.4315    1.1155    0.7272 C   0  0  0  0  0  3  0  0  0  0  0  0
   -1.3716    0.9227    0.8444 S   0  0  0  0  0  0  0  0  0  0  0  0
    2.2107    1.3400    1.9268 H   0  0  0  0  0  0  0  0  0  0  0  0
    1.0084    0.2520    2.6262 H   0  0  0  0  0  0  0  0  0  0  0  0
    0.7461    1.9963    2.6779 H   0  0  0  0  0  0  0  0  0  0  0  0
    0.5662    2.0464    0.1746 H   0  0  0  0  0  0  0  0  0  0  0  0
   -1.3654   -0.2624    1.4693 H   0  0  0  0  0  0  0  0  0  0  0  0
    0.4315   -1.3182   -0.2251 C   0  0  0  0  0  0  0  0  0  0  0  0
    0.4315   -1.3182   -2.0358 S   0  0  0  0  0  0  0  0  0  0  0  0
    0.4315   -0.1023    0.2507 H   0  0  0  0  0  0  0  0  0  0  0  0
   -0.4892   -1.8123    0.0808 H   0  0  0  0  0  0  0  0  0  0  0  0
    1.2758   -1.8782    0.1714 H   0  0  0  0  0  0  0  0  0  0  0  0
    1.6018   -0.6900   -2.2022 H   0  0  0  0  0  0  0  0  0  0  0  0
  1  2  1  0
  1  4  1  0
  1  5  1  0
  1  6  1  0
  2  3  1  0
  2  7  1  0
  3  8  1  0
  9 10  1  0
  9 11  1  0
  9 12  1  0
  9 13  1  0
 10 14  1  0
M  RAD  1   2   2
M  END
>  <reaction>  (15) 
rxn_1843

>  <mol_properties>  (15) 
{"1": {"label": "*1", "atom_type": "Cs"}, "2": {"label": "*0", "atom_type": "S2s"}, "8": {"label": "*3", "atom_type": "Cs"}, "9": {"label": "*4", "atom_type": "S2s"}, "10": {"label": "*2", "atom_type": "H0"}}

>  <type>  (15) 
unop_11

>  <geom_source>  (15) 
Heuristics

$$$$

     RDKit          3D

 14 12  0  0  0  0  0  0  0  0999 V2000
   -0.4273    1.8919   -0.3503 C   0  0  0  0  0  0  0  0  0  0  0  0
   -0.4273    0.8634    0.7670 C   0  0  0  0  0  3  0  0  0  0  0  0
    0.9488    1.0386    1.9408 S   0  0  0  0  0  0  0  0  0  0  0  0
   -1.3009    1.7561   -0.9922 H   0  0  0  0  0  0  0  0  0  0  0  0
    0.4645    1.7936   -0.9719 H   0  0  0  0  0  0  0  0  0  0  0  0
   -0.4467    2.9050    0.0520 H   0  0  0  0  0  0  0  0  0  0  0  0
   -1.3209    0.9655    1.3844 H   0  0  0  0  0  0  0  0  0  0  0  0
    1.9371    0.8267    1.0614 H   0  0  0  0  0  0  0  0  0  0  0  0
   -0.4273   -1.5702   -0.1853 C   0  0  0  0  0  0  0  0  0  0  0  0
   -0.4273   -1.5702   -1.9959 S   0  0  0  0  0  0  0  0  0  0  0  0
   -0.4273   -0.3544    0.2905 H   0  0  0  0  0  0  0  0  0  0  0  0
   -1.3479   -2.0644    0.1207 H   0  0  0  0  0  0  0  0  0  0  0  0
    0.4171   -2.1302    0.2112 H   0  0  0  0  0  0  0  0  0  0  0  0
    0.7430   -0.9421   -2.1623 H   0  0  0  0  0  0  0  0  0  0  0  0
  1  2  1  0
  1  4  1  0
  1  5  1  0
  1  6  1  0
  2  3  1  0
  2  7  1  0
  3  8  1  0
  9 10  1  0
  9 11  1  0
  9 12  1  0
  9 13  1  0
 10 14  1  0
M  RAD  1   2   2
M  END
>  <reaction>  (16) 
rxn_1843

>  <mol_properties>  (16) 
{"1": {"label": "*1", "atom_type": "Cs"}, "2": {"label": "*0", "atom_type": "S2s"}, "8": {"label": "*3", "atom_type": "Cs"}, "9": {"label": "*4", "atom_type": "S2s"}, "10": {"label": "*2", "atom_type": "H0"}}

>  <type>  (16) 
unop_12

>  <geom_source>  (16) 
Heuristics

$$$$

     RDKit          3D

 14 12  0  0  0  0  0  0  0  0999 V2000
   -1.7795    1.3433   -0.8983 S   0  0  0  0  0  0  0  0  0  0  0  0
    3.0778   -0.0443   -0.4308 S   0  0  0  0  0  0  0  0  0  0  0  0
   -0.7176   -0.0986   -0.5776 C   0  0  0  0  0  3  0  0  0  0  0  0
   -1.4480   -1.1190    0.2819 C   0  0  0  0  0  0  0  0  0  0  0  0
    1.6113    0.8889    0.0886 C   0  0  0  0  0  0  0  0  0  0  0  0
   -0.4371   -0.5625   -1.5466 H   0  0  0  0  0  0  0  0  0  0  0  0
    0.4380    0.3165    0.0745 H   0  0  0  0  0  0  0  0  0  0  0  0
   -1.7121   -0.6722    1.2634 H   0  0  0  0  0  0  0  0  0  0  0  0
   -0.7890   -1.9952    0.4553 H   0  0  0  0  0  0  0  0  0  0  0  0
   -2.3730   -1.4598   -0.2298 H   0  0  0  0  0  0  0  0  0  0  0  0
    1.5715    0.9328    1.1967 H   0  0  0  0  0  0  0  0  0  0  0  0
    1.6659    1.9191   -0.3191 H   0  0  0  0  0  0  0  0  0  0  0  0
   -1.7323    1.7694    0.4429 H   0  0  0  0  0  0  0  0  0  0  0  0
    2.6240   -1.2185    0.1990 H   0  0  0  0  0  0  0  0  0  0  0  0
  1  3  1  0
  1 13  1  0
  2  5  1  0
  2 14  1  0
  3  4  1  0
  3  6  1  0
  4  8  1  0
  4  9  1  0
  4 10  1  0
  5  7  1  0
  5 11  1  0
  5 12  1  0
M  RAD  1   3   2
M  END
>  <reaction>  (17) 
rxn_1843

>  <mol_properties>  (17) 
{"1": {"label": "*1", "atom_type": "Cs"}, "2": {"label": "*0", "atom_type": "S2s"}, "8": {"label": "*3", "atom_type": "Cs"}, "9": {"label": "*4", "atom_type": "S2s"}, "10": {"label": "*2", "atom_type": "H0"}}

>  <type>  (17) 
unop_13

>  <geom_source>  (17) 
AutoTST

$$$$
