
     RDKit          3D

 16 15  0  0  0  0  0  0  0  0999 V2000
    1.7961   -0.3807    1.6176 C   0  0  0  0  0  0  0  0  0  0  0  0
    0.8562   -0.8708    0.8256 C   0  0  0  0  0  0  0  0  0  0  0  0
    0.0895   -0.0826   -0.2048 C   0  0  0  0  0  0  0  0  0  0  0  0
   -1.4061   -0.1111    0.0982 C   0  0  0  0  0  0  0  0  0  0  0  0
    0.4476   -0.5902   -1.5797 C   0  0  0  0  0  0  0  0  0  0  0  0
   -0.3793   -1.1113   -2.4728 C   0  0  0  0  0  0  0  0  0  0  0  0
    2.3110   -1.0032    2.3386 H   0  0  0  0  0  0  0  0  0  0  0  0
    2.0846    0.6643    1.5737 H   0  0  0  0  0  0  0  0  0  0  0  0
    0.5921   -1.9241    0.8925 H   0  0  0  0  0  0  0  0  0  0  0  0
    0.4358    0.9557   -0.1462 H   0  0  0  0  0  0  0  0  0  0  0  0
   -1.5968    0.3080    1.0865 H   0  0  0  0  0  0  0  0  0  0  0  0
   -1.9674    0.4693   -0.6359 H   0  0  0  0  0  0  0  0  0  0  0  0
   -1.7902   -1.1338    0.0883 H   0  0  0  0  0  0  0  0  0  0  0  0
    1.5049   -0.5197   -1.8214 H   0  0  0  0  0  0  0  0  0  0  0  0
   -1.4421   -1.2131   -2.2889 H   0  0  0  0  0  0  0  0  0  0  0  0
   -0.0162   -1.4558   -3.4328 H   0  0  0  0  0  0  0  0  0  0  0  0
  1  2  2  3
  1  7  1  0
  1  8  1  0
  2  3  1  0
  2  9  1  0
  3  4  1  0
  3  5  1  0
  3 10  1  0
  4 11  1  0
  4 12  1  0
  4 13  1  0
  5  6  2  3
  5 14  1  0
  6 15  1  0
  6 16  1  0
M  END
>  <reaction>  (1) 
rxn_1201

>  <mol_properties>  (1) 
{"2": {"label": "donator", "atom_type": "Cs"}, "9": {"label": "d_hydrogen", "atom_type": "H0"}}

>  <type>  (1) 
r1h

$$$$

     RDKit          3D

 12 11  0  0  0  0  0  0  0  0999 V2000
   -0.9951    0.1196   -0.8321 C   0  0  0  0  0  0  0  0  0  0  0  0
   -0.3760    0.2571    0.5231 C   0  0  0  0  0  3  0  0  0  0  0  0
    0.9330   -0.1537    0.7810 C   0  0  0  0  0  0  0  0  0  0  0  0
    1.5987   -0.1880    1.9734 C   0  0  0  0  0  0  0  0  0  0  0  0
   -1.4483    0.9449    1.7152 S   0  0  0  0  0  0  0  0  0  0  0  0
   -1.9164   -0.4696   -0.7936 H   0  0  0  0  0  0  0  0  0  0  0  0
   -1.2565    1.0958   -1.2506 H   0  0  0  0  0  0  0  0  0  0  0  0
   -0.3088   -0.3780   -1.5170 H   0  0  0  0  0  0  0  0  0  0  0  0
    1.4783   -0.4898   -0.0971 H   0  0  0  0  0  0  0  0  0  0  0  0
    2.6278   -0.5153    2.0142 H   0  0  0  0  0  0  0  0  0  0  0  0
    1.1316    0.0690    2.9151 H   0  0  0  0  0  0  0  0  0  0  0  0
   -0.5306    1.3052    2.6211 H   0  0  0  0  0  0  0  0  0  0  0  0
  1  2  1  0
  1  6  1  0
  1  7  1  0
  1  8  1  0
  2  3  1  0
  2  5  1  0
  3  4  2  3
  3  9  1  0
  4 10  1  0
  4 11  1  0
  5 12  1  0
M  RAD  1   2   2
M  END
>  <reaction>  (2) 
rxn_1201

>  <mol_properties>  (2) 
{"1": {"label": "acceptor", "atom_type": "Cs"}}

>  <type>  (2) 
r2

$$$$

     RDKit          3D

 13 12  0  0  0  0  0  0  0  0999 V2000
   -1.1828    0.8269   -0.1645 C   0  0  0  0  0  0  0  0  0  0  0  0
   -0.4827   -0.4584   -0.5736 C   0  0  1  0  0  0  0  0  0  0  0  0
   -0.9759   -1.7030    0.1030 C   0  0  0  0  0  0  0  0  0  0  0  0
   -2.0084   -1.7831    0.9287 C   0  0  0  0  0  0  0  0  0  0  0  0
   -0.4908   -0.7025   -2.3913 S   0  0  0  0  0  0  0  0  0  0  0  0
   -1.0941    0.9860    0.9125 H   0  0  0  0  0  0  0  0  0  0  0  0
   -0.7405    1.6784   -0.6793 H   0  0  0  0  0  0  0  0  0  0  0  0
   -2.2437    0.7943   -0.4195 H   0  0  0  0  0  0  0  0  0  0  0  0
    0.5870   -0.3637   -0.3637 H   0  0  0  0  0  0  0  0  0  0  0  0
   -0.4209   -2.6026   -0.1443 H   0  0  0  0  0  0  0  0  0  0  0  0
   -2.2982   -2.7315    1.3623 H   0  0  0  0  0  0  0  0  0  0  0  0
   -2.5999   -0.9190    1.2055 H   0  0  0  0  0  0  0  0  0  0  0  0
   -1.8040   -0.9489   -2.4971 H   0  0  0  0  0  0  0  0  0  0  0  0
  1  2  1  0
  1  6  1  0
  1  7  1  0
  1  8  1  0
  2  3  1  0
  2  5  1  0
  2  9  1  1
  3  4  2  3
  3 10  1  0
  4 11  1  0
  4 12  1  0
  5 13  1  0
M  END
>  <reaction>  (3) 
rxn_1201

>  <mol_properties>  (3) 
{"1": {"label": "acceptor", "atom_type": "Cs"}, "12": {"label": "a_hydrogen", "atom_type": "H0"}}

>  <type>  (3) 
r2h

$$$$

     RDKit          3D

 28 26  0  0  0  0  0  0  0  0999 V2000
    0.1000    2.3004    0.5107 C   0  0  0  0  0  0  0  0  0  0  0  0
    0.0740    1.2944   -0.6126 C   0  0  0  0  0  3  0  0  0  0  0  0
   -1.1289    1.1987   -1.4355 C   0  0  0  0  0  0  0  0  0  0  0  0
   -2.3354    1.6582   -1.0979 C   0  0  0  0  0  0  0  0  0  0  0  0
    1.6401    1.1977   -1.4621 S   0  0  0  0  0  0  0  0  0  0  0  0
   -0.0300    3.3195    0.1357 H   0  0  0  0  0  0  0  0  0  0  0  0
   -0.7042    2.0918    1.2185 H   0  0  0  0  0  0  0  0  0  0  0  0
    1.0427    2.2493    1.0558 H   0  0  0  0  0  0  0  0  0  0  0  0
   -1.0259    0.6474   -2.3654 H   0  0  0  0  0  0  0  0  0  0  0  0
   -3.1891    1.4940   -1.7421 H   0  0  0  0  0  0  0  0  0  0  0  0
   -2.5085    2.2148   -0.1856 H   0  0  0  0  0  0  0  0  0  0  0  0
    1.3411    0.1419   -2.2321 H   0  0  0  0  0  0  0  0  0  0  0  0
    0.8659   -2.6931   -0.8200 C   0  0  0  0  0  0  0  0  0  0  0  0
   -0.1405   -1.9974   -0.2917 C   0  0  0  0  0  0  0  0  0  0  0  0
   -0.0567   -1.0142    0.8006 C   0  0  0  0  0  0  0  0  0  0  0  0
    1.2344   -0.9516    1.5799 C   0  0  0  0  0  0  0  0  0  0  0  0
   -1.3125   -0.8361    1.5457 C   0  0  0  0  0  0  0  0  0  0  0  0
   -1.4434   -0.4666    2.8200 C   0  0  0  0  0  0  0  0  0  0  0  0
    0.6957   -3.3718   -1.6457 H   0  0  0  0  0  0  0  0  0  0  0  0
    1.8783   -2.6268   -0.4416 H   0  0  0  0  0  0  0  0  0  0  0  0
   -1.1317   -2.1226   -0.7210 H   0  0  0  0  0  0  0  0  0  0  0  0
   -0.0039    0.0954    0.0905 H   0  0  0  0  0  0  0  0  0  0  0  0
    2.0881   -0.8479    0.9100 H   0  0  0  0  0  0  0  0  0  0  0  0
    1.2439   -0.0923    2.2507 H   0  0  0  0  0  0  0  0  0  0  0  0
    1.3740   -1.8543    2.1812 H   0  0  0  0  0  0  0  0  0  0  0  0
   -2.2166   -1.0020    0.9653 H   0  0  0  0  0  0  0  0  0  0  0  0
   -0.5916   -0.2929    3.4656 H   0  0  0  0  0  0  0  0  0  0  0  0
   -2.4236   -0.3422    3.2613 H   0  0  0  0  0  0  0  0  0  0  0  0
  1  2  1  0
  1  6  1  0
  1  7  1  0
  1  8  1  0
  2  3  1  0
  2  5  1  0
  3  4  2  3
  3  9  1  0
  4 10  1  0
  4 11  1  0
  5 12  1  0
 13 14  2  3
 13 19  1  0
 13 20  1  0
 14 15  1  0
 14 21  1  0
 15 16  1  0
 15 17  1  0
 15 22  1  0
 16 23  1  0
 16 24  1  0
 16 25  1  0
 17 18  2  3
 17 26  1  0
 18 27  1  0
 18 28  1  0
M  RAD  1   2   2
M  END
>  <reaction>  (4) 
rxn_1201

>  <mol_properties>  (4) 
{"1": {"label": "*3", "atom_type": "Cs"}, "4": {"label": "*4", "atom_type": "S2s"}, "13": {"label": "*0", "atom_type": "Cd"}, "14": {"label": "*1", "atom_type": "Cs"}, "21": {"label": "*2", "atom_type": "H0"}}

>  <type>  (4) 
ts

$$$$

     RDKit          3D

 28 26  0  0  0  0  0  0  0  0999 V2000
   -1.3011    1.8174   -0.5921 C   0  0  0  0  0  0  0  0  0  0  0  0
   -0.0648    0.9670   -0.8325 C   0  0  0  0  0  0  0  0  0  0  0  0
    0.6282    1.1952   -2.1431 C   0  0  0  0  0  0  0  0  0  0  0  0
    0.3167    2.1211   -3.0374 C   0  0  0  0  0  0  0  0  0  0  0  0
    1.1479    1.1063    0.5365 S   0  0  0  0  0  0  0  0  0  0  0  0
   -1.0493    2.8794   -0.5726 H   0  0  0  0  0  0  0  0  0  0  0  0
   -2.0381    1.6545   -1.3817 H   0  0  0  0  0  0  0  0  0  0  0  0
   -1.7545    1.5629    0.3646 H   0  0  0  0  0  0  0  0  0  0  0  0
    1.4668    0.5324   -2.3328 H   0  0  0  0  0  0  0  0  0  0  0  0
    0.8836    2.2181   -3.9543 H   0  0  0  0  0  0  0  0  0  0  0  0
   -0.5060    2.8115   -2.8971 H   0  0  0  0  0  0  0  0  0  0  0  0
    1.5135    2.3693    0.2762 H   0  0  0  0  0  0  0  0  0  0  0  0
   -0.1379   -2.3507   -1.4288 C   0  0  0  0  0  0  0  0  0  0  0  0
   -0.1379   -2.3507   -0.1056 C   0  0  0  0  0  0  0  0  0  0  0  0
   -0.1379   -1.1199    0.7638 C   0  0  0  0  0  3  0  0  0  0  0  0
    1.1005   -1.0901    1.6554 C   0  0  0  0  0  0  0  0  0  0  0  0
   -1.4414   -1.0513    1.5203 C   0  0  0  0  0  0  0  0  0  0  0  0
   -1.5960   -1.0511    2.8353 C   0  0  0  0  0  0  0  0  0  0  0  0
   -0.1386   -3.2733   -1.9955 H   0  0  0  0  0  0  0  0  0  0  0  0
   -0.1361   -1.4249   -1.9945 H   0  0  0  0  0  0  0  0  0  0  0  0
   -0.1426   -3.2965    0.4320 H   0  0  0  0  0  0  0  0  0  0  0  0
   -0.1013   -0.0756   -0.0350 H   0  0  0  0  0  0  0  0  0  0  0  0
    2.0032   -1.0985    1.0442 H   0  0  0  0  0  0  0  0  0  0  0  0
    1.1151   -0.1944    2.2785 H   0  0  0  0  0  0  0  0  0  0  0  0
    1.1331   -1.9619    2.3130 H   0  0  0  0  0  0  0  0  0  0  0  0
   -2.3246   -1.0156    0.8878 H   0  0  0  0  0  0  0  0  0  0  0  0
   -0.7557   -1.0904    3.5178 H   0  0  0  0  0  0  0  0  0  0  0  0
   -2.5824   -1.0080    3.2795 H   0  0  0  0  0  0  0  0  0  0  0  0
  1  2  1  0
  1  6  1  0
  1  7  1  0
  1  8  1  0
  2  3  1  0
  2  5  1  0
  2 22  1  0
  3  4  2  3
  3  9  1  0
  4 10  1  0
  4 11  1  0
  5 12  1  0
 13 14  2  3
 13 19  1  0
 13 20  1  0
 14 15  1  0
 14 21  1  0
 15 16  1  0
 15 17  1  0
 16 23  1  0
 16 24  1  0
 16 25  1  0
 17 18  2  3
 17 26  1  0
 18 27  1  0
 18 28  1  0
M  RAD  1  15   2
M  END
>  <reaction>  (5) 
rxn_1201

>  <mol_properties>  (5) 
{"1": {"label": "*3", "atom_type": "Cs"}, "4": {"label": "*4", "atom_type": "S2s"}, "13": {"label": "*0", "atom_type": "Cd"}, "14": {"label": "*1", "atom_type": "Cs"}, "21": {"label": "*2", "atom_type": "H0"}}

>  <type>  (5) 
unop_1

>  <geom_source>  (5) 
Heuristics

$$$$

     RDKit          3D

 28 26  0  0  0  0  0  0  0  0999 V2000
   -0.5043    0.5357   -2.1314 C   0  0  0  0  0  0  0  0  0  0  0  0
    0.1893    0.8869   -0.8257 C   0  0  0  0  0  0  0  0  0  0  0  0
    1.4385    1.7061   -0.9608 C   0  0  0  0  0  0  0  0  0  0  0  0
    1.9163    2.2172   -2.0854 C   0  0  0  0  0  0  0  0  0  0  0  0
   -0.9478    1.6922    0.3671 S   0  0  0  0  0  0  0  0  0  0  0  0
   -0.8371    1.4348   -2.6533 H   0  0  0  0  0  0  0  0  0  0  0  0
    0.1733   -0.0119   -2.7904 H   0  0  0  0  0  0  0  0  0  0  0  0
   -1.3791   -0.0838   -1.9399 H   0  0  0  0  0  0  0  0  0  0  0  0
    1.9624    1.8895   -0.0279 H   0  0  0  0  0  0  0  0  0  0  0  0
    2.8236    2.8074   -2.0837 H   0  0  0  0  0  0  0  0  0  0  0  0
    1.4317    2.0701   -3.0428 H   0  0  0  0  0  0  0  0  0  0  0  0
   -1.0697    2.8445   -0.3066 H   0  0  0  0  0  0  0  0  0  0  0  0
    0.1161   -2.4308   -1.4220 C   0  0  0  0  0  0  0  0  0  0  0  0
    0.1161   -2.4308   -0.0988 C   0  0  0  0  0  0  0  0  0  0  0  0
    0.1161   -1.2000    0.7706 C   0  0  0  0  0  3  0  0  0  0  0  0
    1.3545   -1.1702    1.6622 C   0  0  0  0  0  0  0  0  0  0  0  0
   -1.1874   -1.1314    1.5271 C   0  0  0  0  0  0  0  0  0  0  0  0
   -1.3420   -1.1312    2.8421 C   0  0  0  0  0  0  0  0  0  0  0  0
    0.1154   -3.3534   -1.9887 H   0  0  0  0  0  0  0  0  0  0  0  0
    0.1179   -1.5050   -1.9877 H   0  0  0  0  0  0  0  0  0  0  0  0
    0.1114   -3.3766    0.4389 H   0  0  0  0  0  0  0  0  0  0  0  0
    0.1527   -0.1556   -0.0282 H   0  0  0  0  0  0  0  0  0  0  0  0
    2.2573   -1.1786    1.0510 H   0  0  0  0  0  0  0  0  0  0  0  0
    1.3692   -0.2744    2.2853 H   0  0  0  0  0  0  0  0  0  0  0  0
    1.3871   -2.0420    2.3198 H   0  0  0  0  0  0  0  0  0  0  0  0
   -2.0706   -1.0957    0.8946 H   0  0  0  0  0  0  0  0  0  0  0  0
   -0.5017   -1.1705    3.5246 H   0  0  0  0  0  0  0  0  0  0  0  0
   -2.3284   -1.0881    3.2863 H   0  0  0  0  0  0  0  0  0  0  0  0
  1  2  1  0
  1  6  1  0
  1  7  1  0
  1  8  1  0
  2  3  1  0
  2  5  1  0
  2 22  1  0
  3  4  2  3
  3  9  1  0
  4 10  1  0
  4 11  1  0
  5 12  1  0
 13 14  2  3
 13 19  1  0
 13 20  1  0
 14 15  1  0
 14 21  1  0
 15 16  1  0
 15 17  1  0
 16 23  1  0
 16 24  1  0
 16 25  1  0
 17 18  2  3
 17 26  1  0
 18 27  1  0
 18 28  1  0
M  RAD  1  15   2
M  END
>  <reaction>  (6) 
rxn_1201

>  <mol_properties>  (6) 
{"1": {"label": "*3", "atom_type": "Cs"}, "4": {"label": "*4", "atom_type": "S2s"}, "13": {"label": "*0", "atom_type": "Cd"}, "14": {"label": "*1", "atom_type": "Cs"}, "21": {"label": "*2", "atom_type": "H0"}}

>  <type>  (6) 
unop_2

>  <geom_source>  (6) 
Heuristics

$$$$

     RDKit          3D

 28 26  0  0  0  0  0  0  0  0999 V2000
   -0.7889    2.1938   -0.0158 C   0  0  0  0  0  0  0  0  0  0  0  0
   -0.0737    1.0326   -0.6864 C   0  0  0  0  0  0  0  0  0  0  0  0
   -0.1490    1.0092   -2.1843 C   0  0  0  0  0  0  0  0  0  0  0  0
   -0.6872    1.9453   -2.9513 C   0  0  0  0  0  0  0  0  0  0  0  0
    1.6773    0.8996   -0.1568 S   0  0  0  0  0  0  0  0  0  0  0  0
   -0.3520    3.1487   -0.3140 H   0  0  0  0  0  0  0  0  0  0  0  0
   -1.8468    2.2013   -0.2878 H   0  0  0  0  0  0  0  0  0  0  0  0
   -0.7089    2.1122    1.0670 H   0  0  0  0  0  0  0  0  0  0  0  0
    0.3041    0.1377   -2.6465 H   0  0  0  0  0  0  0  0  0  0  0  0
   -0.6854    1.8465   -4.0291 H   0  0  0  0  0  0  0  0  0  0  0  0
   -1.1478    2.8369   -2.5438 H   0  0  0  0  0  0  0  0  0  0  0  0
    2.1014    2.0052   -0.7848 H   0  0  0  0  0  0  0  0  0  0  0  0
   -0.1468   -2.2851   -1.2827 C   0  0  0  0  0  0  0  0  0  0  0  0
   -0.1468   -2.2851    0.0405 C   0  0  0  0  0  0  0  0  0  0  0  0
   -0.1468   -1.0543    0.9099 C   0  0  0  0  0  3  0  0  0  0  0  0
    1.0915   -1.0245    1.8015 C   0  0  0  0  0  0  0  0  0  0  0  0
   -1.4504   -0.9857    1.6664 C   0  0  0  0  0  0  0  0  0  0  0  0
   -1.6050   -0.9855    2.9814 C   0  0  0  0  0  0  0  0  0  0  0  0
   -0.1476   -3.2077   -1.8494 H   0  0  0  0  0  0  0  0  0  0  0  0
   -0.1451   -1.3593   -1.8484 H   0  0  0  0  0  0  0  0  0  0  0  0
   -0.1516   -3.2309    0.5782 H   0  0  0  0  0  0  0  0  0  0  0  0
   -0.1102   -0.0100    0.1111 H   0  0  0  0  0  0  0  0  0  0  0  0
    1.9943   -1.0329    1.1903 H   0  0  0  0  0  0  0  0  0  0  0  0
    1.1062   -0.1288    2.4246 H   0  0  0  0  0  0  0  0  0  0  0  0
    1.1241   -1.8963    2.4591 H   0  0  0  0  0  0  0  0  0  0  0  0
   -2.3335   -0.9500    1.0339 H   0  0  0  0  0  0  0  0  0  0  0  0
   -0.7646   -1.0248    3.6639 H   0  0  0  0  0  0  0  0  0  0  0  0
   -2.5914   -0.9424    3.4256 H   0  0  0  0  0  0  0  0  0  0  0  0
  1  2  1  0
  1  6  1  0
  1  7  1  0
  1  8  1  0
  2  3  1  0
  2  5  1  0
  2 22  1  0
  3  4  2  3
  3  9  1  0
  4 10  1  0
  4 11  1  0
  5 12  1  0
 13 14  2  3
 13 19  1  0
 13 20  1  0
 14 15  1  0
 14 21  1  0
 15 16  1  0
 15 17  1  0
 16 23  1  0
 16 24  1  0
 16 25  1  0
 17 18  2  3
 17 26  1  0
 18 27  1  0
 18 28  1  0
M  RAD  1  15   2
M  END
>  <reaction>  (7) 
rxn_1201

>  <mol_properties>  (7) 
{"1": {"label": "*3", "atom_type": "Cs"}, "4": {"label": "*4", "atom_type": "S2s"}, "13": {"label": "*0", "atom_type": "Cd"}, "14": {"label": "*1", "atom_type": "Cs"}, "21": {"label": "*2", "atom_type": "H0"}}

>  <type>  (7) 
unop_3

>  <geom_source>  (7) 
Heuristics

$$$$

     RDKit          3D

 28 26  0  0  0  0  0  0  0  0999 V2000
    1.4572    0.8230   -1.6628 C   0  0  0  0  0  0  0  0  0  0  0  0
    0.1934    0.8877   -0.8214 C   0  0  0  0  0  0  0  0  0  0  0  0
    0.3263    1.6136    0.4845 C   0  0  0  0  0  0  0  0  0  0  0  0
    1.3974    2.2694    0.9050 C   0  0  0  0  0  0  0  0  0  0  0  0
   -1.2289    1.5662   -1.7598 S   0  0  0  0  0  0  0  0  0  0  0  0
    1.7875    1.8223   -1.9523 H   0  0  0  0  0  0  0  0  0  0  0  0
    2.2649    0.3433   -1.1054 H   0  0  0  0  0  0  0  0  0  0  0  0
    1.2765    0.2531   -2.5728 H   0  0  0  0  0  0  0  0  0  0  0  0
   -0.5627    1.5911    1.1071 H   0  0  0  0  0  0  0  0  0  0  0  0
    1.3968    2.7749    1.8621 H   0  0  0  0  0  0  0  0  0  0  0  0
    2.3087    2.3285    0.3226 H   0  0  0  0  0  0  0  0  0  0  0  0
   -0.7683    2.8230   -1.8295 H   0  0  0  0  0  0  0  0  0  0  0  0
    0.1202   -2.4300   -1.4177 C   0  0  0  0  0  0  0  0  0  0  0  0
    0.1202   -2.4300   -0.0945 C   0  0  0  0  0  0  0  0  0  0  0  0
    0.1202   -1.1992    0.7749 C   0  0  0  0  0  3  0  0  0  0  0  0
    1.3586   -1.1695    1.6665 C   0  0  0  0  0  0  0  0  0  0  0  0
   -1.1833   -1.1307    1.5314 C   0  0  0  0  0  0  0  0  0  0  0  0
   -1.3379   -1.1304    2.8464 C   0  0  0  0  0  0  0  0  0  0  0  0
    0.1195   -3.3526   -1.9844 H   0  0  0  0  0  0  0  0  0  0  0  0
    0.1220   -1.5042   -1.9834 H   0  0  0  0  0  0  0  0  0  0  0  0
    0.1155   -3.3758    0.4432 H   0  0  0  0  0  0  0  0  0  0  0  0
    0.1568   -0.1549   -0.0239 H   0  0  0  0  0  0  0  0  0  0  0  0
    2.2614   -1.1778    1.0553 H   0  0  0  0  0  0  0  0  0  0  0  0
    1.3733   -0.2737    2.2896 H   0  0  0  0  0  0  0  0  0  0  0  0
    1.3912   -2.0412    2.3242 H   0  0  0  0  0  0  0  0  0  0  0  0
   -2.0664   -1.0949    0.8989 H   0  0  0  0  0  0  0  0  0  0  0  0
   -0.4975   -1.1698    3.5289 H   0  0  0  0  0  0  0  0  0  0  0  0
   -2.3243   -1.0873    3.2906 H   0  0  0  0  0  0  0  0  0  0  0  0
  1  2  1  0
  1  6  1  0
  1  7  1  0
  1  8  1  0
  2  3  1  0
  2  5  1  0
  2 22  1  0
  3  4  2  3
  3  9  1  0
  4 10  1  0
  4 11  1  0
  5 12  1  0
 13 14  2  3
 13 19  1  0
 13 20  1  0
 14 15  1  0
 14 21  1  0
 15 16  1  0
 15 17  1  0
 16 23  1  0
 16 24  1  0
 16 25  1  0
 17 18  2  3
 17 26  1  0
 18 27  1  0
 18 28  1  0
M  RAD  1  15   2
M  END
>  <reaction>  (8) 
rxn_1201

>  <mol_properties>  (8) 
{"1": {"label": "*3", "atom_type": "Cs"}, "4": {"label": "*4", "atom_type": "S2s"}, "13": {"label": "*0", "atom_type": "Cd"}, "14": {"label": "*1", "atom_type": "Cs"}, "21": {"label": "*2", "atom_type": "H0"}}

>  <type>  (8) 
unop_4

>  <geom_source>  (8) 
Heuristics

$$$$

     RDKit          3D

 28 26  0  0  0  0  0  0  0  0999 V2000
    0.1008    2.3302    0.2848 C   0  0  0  0  0  0  0  0  0  0  0  0
    0.0995    1.0641   -0.5557 C   0  0  0  0  0  0  0  0  0  0  0  0
   -1.0352    0.9390   -1.5287 C   0  0  0  0  0  0  0  0  0  0  0  0
   -1.9525    1.8614   -1.7775 C   0  0  0  0  0  0  0  0  0  0  0  0
    1.6911    0.8136   -1.4320 S   0  0  0  0  0  0  0  0  0  0  0  0
    0.1964    3.2180   -0.3430 H   0  0  0  0  0  0  0  0  0  0  0  0
   -0.8269    2.4126    0.8556 H   0  0  0  0  0  0  0  0  0  0  0  0
    0.9378    2.3206    0.9812 H   0  0  0  0  0  0  0  0  0  0  0  0
   -1.0643   -0.0007   -2.0714 H   0  0  0  0  0  0  0  0  0  0  0  0
   -2.7310    1.6850   -2.5085 H   0  0  0  0  0  0  0  0  0  0  0  0
   -1.9679    2.8179   -1.2695 H   0  0  0  0  0  0  0  0  0  0  0  0
    1.5411    1.8284   -2.2947 H   0  0  0  0  0  0  0  0  0  0  0  0
    0.0263   -2.2535   -1.1520 C   0  0  0  0  0  0  0  0  0  0  0  0
    0.0263   -2.2535    0.1712 C   0  0  0  0  0  0  0  0  0  0  0  0
    0.0263   -1.0228    1.0406 C   0  0  0  0  0  3  0  0  0  0  0  0
    1.2647   -0.9930    1.9322 C   0  0  0  0  0  0  0  0  0  0  0  0
   -1.2772   -0.9542    1.7971 C   0  0  0  0  0  0  0  0  0  0  0  0
   -1.4318   -0.9540    3.1121 C   0  0  0  0  0  0  0  0  0  0  0  0
    0.0256   -3.1762   -1.7187 H   0  0  0  0  0  0  0  0  0  0  0  0
    0.0281   -1.3278   -1.7177 H   0  0  0  0  0  0  0  0  0  0  0  0
    0.0216   -3.1994    0.7089 H   0  0  0  0  0  0  0  0  0  0  0  0
    0.0629    0.0216    0.2418 H   0  0  0  0  0  0  0  0  0  0  0  0
    2.1675   -1.0014    1.3210 H   0  0  0  0  0  0  0  0  0  0  0  0
    1.2794   -0.0972    2.5553 H   0  0  0  0  0  0  0  0  0  0  0  0
    1.2973   -1.8647    2.5898 H   0  0  0  0  0  0  0  0  0  0  0  0
   -2.1603   -0.9185    1.1646 H   0  0  0  0  0  0  0  0  0  0  0  0
   -0.5914   -0.9933    3.7946 H   0  0  0  0  0  0  0  0  0  0  0  0
   -2.4182   -0.9108    3.5563 H   0  0  0  0  0  0  0  0  0  0  0  0
  1  2  1  0
  1  6  1  0
  1  7  1  0
  1  8  1  0
  2  3  1  0
  2  5  1  0
  2 22  1  0
  3  4  2  3
  3  9  1  0
  4 10  1  0
  4 11  1  0
  5 12  1  0
 13 14  2  3
 13 19  1  0
 13 20  1  0
 14 15  1  0
 14 21  1  0
 15 16  1  0
 15 17  1  0
 16 23  1  0
 16 24  1  0
 16 25  1  0
 17 18  2  3
 17 26  1  0
 18 27  1  0
 18 28  1  0
M  RAD  1  15   2
M  END
>  <reaction>  (9) 
rxn_1201

>  <mol_properties>  (9) 
{"1": {"label": "*3", "atom_type": "Cs"}, "4": {"label": "*4", "atom_type": "S2s"}, "13": {"label": "*0", "atom_type": "Cd"}, "14": {"label": "*1", "atom_type": "Cs"}, "21": {"label": "*2", "atom_type": "H0"}}

>  <type>  (9) 
unop_5

>  <geom_source>  (9) 
Heuristics

$$$$

     RDKit          3D

 28 26  0  0  0  0  0  0  0  0999 V2000
    1.7194    1.2783   -1.0839 C   0  0  0  0  0  0  0  0  0  0  0  0
    0.2694    0.9095   -0.8175 C   0  0  0  0  0  0  0  0  0  0  0  0
   -0.3043    1.4392    0.4632 C   0  0  0  0  0  0  0  0  0  0  0  0
    0.3021    2.2608    1.3067 C   0  0  0  0  0  0  0  0  0  0  0  0
   -0.8277    1.3619   -2.2160 S   0  0  0  0  0  0  0  0  0  0  0  0
    1.8397    2.3596   -1.1717 H   0  0  0  0  0  0  0  0  0  0  0  0
    2.3599    0.9272   -0.2716 H   0  0  0  0  0  0  0  0  0  0  0  0
    2.0593    0.8266   -2.0146 H   0  0  0  0  0  0  0  0  0  0  0  0
   -1.3167    1.1100    0.6757 H   0  0  0  0  0  0  0  0  0  0  0  0
   -0.1977    2.6001    2.2048 H   0  0  0  0  0  0  0  0  0  0  0  0
    1.3089    2.6244    1.1416 H   0  0  0  0  0  0  0  0  0  0  0  0
   -0.7466    2.6880   -2.0388 H   0  0  0  0  0  0  0  0  0  0  0  0
    0.1963   -2.4082   -1.4139 C   0  0  0  0  0  0  0  0  0  0  0  0
    0.1963   -2.4082   -0.0907 C   0  0  0  0  0  0  0  0  0  0  0  0
    0.1963   -1.1774    0.7787 C   0  0  0  0  0  3  0  0  0  0  0  0
    1.4347   -1.1476    1.6703 C   0  0  0  0  0  0  0  0  0  0  0  0
   -1.1072   -1.1088    1.5353 C   0  0  0  0  0  0  0  0  0  0  0  0
   -1.2618   -1.1086    2.8502 C   0  0  0  0  0  0  0  0  0  0  0  0
    0.1956   -3.3308   -1.9806 H   0  0  0  0  0  0  0  0  0  0  0  0
    0.1981   -1.4824   -1.9796 H   0  0  0  0  0  0  0  0  0  0  0  0
    0.1916   -3.3540    0.4470 H   0  0  0  0  0  0  0  0  0  0  0  0
    0.2329   -0.1330   -0.0201 H   0  0  0  0  0  0  0  0  0  0  0  0
    2.3374   -1.1560    1.0591 H   0  0  0  0  0  0  0  0  0  0  0  0
    1.4493   -0.2518    2.2934 H   0  0  0  0  0  0  0  0  0  0  0  0
    1.4673   -2.0194    2.3280 H   0  0  0  0  0  0  0  0  0  0  0  0
   -1.9904   -1.0731    0.9027 H   0  0  0  0  0  0  0  0  0  0  0  0
   -0.4215   -1.1479    3.5327 H   0  0  0  0  0  0  0  0  0  0  0  0
   -2.2482   -1.0655    3.2944 H   0  0  0  0  0  0  0  0  0  0  0  0
  1  2  1  0
  1  6  1  0
  1  7  1  0
  1  8  1  0
  2  3  1  0
  2  5  1  0
  2 22  1  0
  3  4  2  3
  3  9  1  0
  4 10  1  0
  4 11  1  0
  5 12  1  0
 13 14  2  3
 13 19  1  0
 13 20  1  0
 14 15  1  0
 14 21  1  0
 15 16  1  0
 15 17  1  0
 16 23  1  0
 16 24  1  0
 16 25  1  0
 17 18  2  3
 17 26  1  0
 18 27  1  0
 18 28  1  0
M  RAD  1  15   2
M  END
>  <reaction>  (10) 
rxn_1201

>  <mol_properties>  (10) 
{"1": {"label": "*3", "atom_type": "Cs"}, "4": {"label": "*4", "atom_type": "S2s"}, "13": {"label": "*0", "atom_type": "Cd"}, "14": {"label": "*1", "atom_type": "Cs"}, "21": {"label": "*2", "atom_type": "H0"}}

>  <type>  (10) 
unop_6

>  <geom_source>  (10) 
Heuristics

$$$$

     RDKit          3D

 28 26  0  0  0  0  0  0  0  0999 V2000
    1.5835    1.7690   -0.4481 C   0  0  0  0  0  0  0  0  0  0  0  0
    0.3322    0.9605   -0.7477 C   0  0  0  0  0  0  0  0  0  0  0  0
   -0.8360    1.2246    0.1554 C   0  0  0  0  0  0  0  0  0  0  0  0
   -0.8952    2.1500    1.1011 C   0  0  0  0  0  0  0  0  0  0  0  0
   -0.1943    1.1228   -2.4971 S   0  0  0  0  0  0  0  0  0  0  0  0
    1.3980    2.8381   -0.5674 H   0  0  0  0  0  0  0  0  0  0  0  0
    1.9186    1.5918    0.5764 H   0  0  0  0  0  0  0  0  0  0  0  0
    2.3858    1.4900   -1.1294 H   0  0  0  0  0  0  0  0  0  0  0  0
   -1.6987    0.5906   -0.0238 H   0  0  0  0  0  0  0  0  0  0  0  0
   -1.7890    2.2748    1.6985 H   0  0  0  0  0  0  0  0  0  0  0  0
   -0.0665    2.8127    1.3186 H   0  0  0  0  0  0  0  0  0  0  0  0
   -0.5931    2.3993   -2.4090 H   0  0  0  0  0  0  0  0  0  0  0  0
    0.2591   -2.3572   -1.3440 C   0  0  0  0  0  0  0  0  0  0  0  0
    0.2591   -2.3572   -0.0208 C   0  0  0  0  0  0  0  0  0  0  0  0
    0.2591   -1.1264    0.8486 C   0  0  0  0  0  3  0  0  0  0  0  0
    1.4974   -1.0967    1.7402 C   0  0  0  0  0  0  0  0  0  0  0  0
   -1.0445   -1.0579    1.6051 C   0  0  0  0  0  0  0  0  0  0  0  0
   -1.1991   -1.0576    2.9201 C   0  0  0  0  0  0  0  0  0  0  0  0
    0.2583   -3.2798   -1.9107 H   0  0  0  0  0  0  0  0  0  0  0  0
    0.2608   -1.4314   -1.9097 H   0  0  0  0  0  0  0  0  0  0  0  0
    0.2543   -3.3030    0.5168 H   0  0  0  0  0  0  0  0  0  0  0  0
    0.2957   -0.0821    0.0498 H   0  0  0  0  0  0  0  0  0  0  0  0
    2.4002   -1.1050    1.1290 H   0  0  0  0  0  0  0  0  0  0  0  0
    1.5121   -0.2009    2.3633 H   0  0  0  0  0  0  0  0  0  0  0  0
    1.5300   -1.9684    2.3978 H   0  0  0  0  0  0  0  0  0  0  0  0
   -1.9276   -1.0221    0.9726 H   0  0  0  0  0  0  0  0  0  0  0  0
   -0.3587   -1.0969    3.6026 H   0  0  0  0  0  0  0  0  0  0  0  0
   -2.1855   -1.0145    3.3643 H   0  0  0  0  0  0  0  0  0  0  0  0
  1  2  1  0
  1  6  1  0
  1  7  1  0
  1  8  1  0
  2  3  1  0
  2  5  1  0
  2 22  1  0
  3  4  2  3
  3  9  1  0
  4 10  1  0
  4 11  1  0
  5 12  1  0
 13 14  2  3
 13 19  1  0
 13 20  1  0
 14 15  1  0
 14 21  1  0
 15 16  1  0
 15 17  1  0
 16 23  1  0
 16 24  1  0
 16 25  1  0
 17 18  2  3
 17 26  1  0
 18 27  1  0
 18 28  1  0
M  RAD  1  15   2
M  END
>  <reaction>  (11) 
rxn_1201

>  <mol_properties>  (11) 
{"1": {"label": "*3", "atom_type": "Cs"}, "4": {"label": "*4", "atom_type": "S2s"}, "13": {"label": "*0", "atom_type": "Cd"}, "14": {"label": "*1", "atom_type": "Cs"}, "21": {"label": "*2", "atom_type": "H0"}}

>  <type>  (11) 
unop_7

>  <geom_source>  (11) 
Heuristics

$$$$

     RDKit          3D

 28 26  0  0  0  0  0  0  0  0999 V2000
   -1.3908    1.3304   -1.2334 C   0  0  0  0  0  0  0  0  0  0  0  0
    0.0317    0.9134   -0.8987 C   0  0  0  0  0  0  0  0  0  0  0  0
    1.0868    1.4110   -1.8416 C   0  0  0  0  0  0  0  0  0  0  0  0
    0.8958    2.2423   -2.8549 C   0  0  0  0  0  0  0  0  0  0  0  0
    0.4926    1.3458    0.8231 S   0  0  0  0  0  0  0  0  0  0  0  0
   -1.5002    2.4159   -1.1980 H   0  0  0  0  0  0  0  0  0  0  0  0
   -1.6643    0.9911   -2.2351 H   0  0  0  0  0  0  0  0  0  0  0  0
   -2.0891    0.8997   -0.5176 H   0  0  0  0  0  0  0  0  0  0  0  0
    2.0882    1.0478   -1.6324 H   0  0  0  0  0  0  0  0  0  0  0  0
    1.7239    2.5560   -3.4773 H   0  0  0  0  0  0  0  0  0  0  0  0
   -0.0804    2.6392   -3.1051 H   0  0  0  0  0  0  0  0  0  0  0  0
    0.5331    2.6718    0.6320 H   0  0  0  0  0  0  0  0  0  0  0  0
   -0.0414   -2.4043   -1.4951 C   0  0  0  0  0  0  0  0  0  0  0  0
   -0.0414   -2.4043   -0.1718 C   0  0  0  0  0  0  0  0  0  0  0  0
   -0.0414   -1.1735    0.6976 C   0  0  0  0  0  3  0  0  0  0  0  0
    1.1969   -1.1437    1.5892 C   0  0  0  0  0  0  0  0  0  0  0  0
   -1.3450   -1.1050    1.4541 C   0  0  0  0  0  0  0  0  0  0  0  0
   -1.4996   -1.1047    2.7690 C   0  0  0  0  0  0  0  0  0  0  0  0
   -0.0422   -3.3269   -2.0618 H   0  0  0  0  0  0  0  0  0  0  0  0
   -0.0397   -1.4785   -2.0608 H   0  0  0  0  0  0  0  0  0  0  0  0
   -0.0462   -3.3501    0.3658 H   0  0  0  0  0  0  0  0  0  0  0  0
   -0.0048   -0.1292   -0.1012 H   0  0  0  0  0  0  0  0  0  0  0  0
    2.0997   -1.1521    0.9779 H   0  0  0  0  0  0  0  0  0  0  0  0
    1.2116   -0.2480    2.2123 H   0  0  0  0  0  0  0  0  0  0  0  0
    1.2295   -2.0155    2.2468 H   0  0  0  0  0  0  0  0  0  0  0  0
   -2.2281   -1.0692    0.8216 H   0  0  0  0  0  0  0  0  0  0  0  0
   -0.6592   -1.1440    3.4516 H   0  0  0  0  0  0  0  0  0  0  0  0
   -2.4860   -1.0616    3.2133 H   0  0  0  0  0  0  0  0  0  0  0  0
  1  2  1  0
  1  6  1  0
  1  7  1  0
  1  8  1  0
  2  3  1  0
  2  5  1  0
  2 22  1  0
  3  4  2  3
  3  9  1  0
  4 10  1  0
  4 11  1  0
  5 12  1  0
 13 14  2  3
 13 19  1  0
 13 20  1  0
 14 15  1  0
 14 21  1  0
 15 16  1  0
 15 17  1  0
 16 23  1  0
 16 24  1  0
 16 25  1  0
 17 18  2  3
 17 26  1  0
 18 27  1  0
 18 28  1  0
M  RAD  1  15   2
M  END
>  <reaction>  (12) 
rxn_1201

>  <mol_properties>  (12) 
{"1": {"label": "*3", "atom_type": "Cs"}, "4": {"label": "*4", "atom_type": "S2s"}, "13": {"label": "*0", "atom_type": "Cd"}, "14": {"label": "*1", "atom_type": "Cs"}, "21": {"label": "*2", "atom_type": "H0"}}

>  <type>  (12) 
unop_8

>  <geom_source>  (12) 
Heuristics

$$$$

     RDKit          3D

 28 26  0  0  0  0  0  0  0  0999 V2000
    0.9030    0.5121   -2.0604 C   0  0  0  0  0  0  0  0  0  0  0  0
    0.1603    0.8875   -0.7888 C   0  0  0  0  0  0  0  0  0  0  0  0
    0.9380    1.7169    0.1895 C   0  0  0  0  0  0  0  0  0  0  0  0
    2.1489    2.2175   -0.0041 C   0  0  0  0  0  0  0  0  0  0  0  0
   -1.4474    1.6976   -1.1399 S   0  0  0  0  0  0  0  0  0  0  0  0
    1.1770    1.4008   -2.6318 H   0  0  0  0  0  0  0  0  0  0  0  0
    1.8165   -0.0377   -1.8229 H   0  0  0  0  0  0  0  0  0  0  0  0
    0.2756   -0.1132   -2.6937 H   0  0  0  0  0  0  0  0  0  0  0  0
    0.4219    1.9178    1.1231 H   0  0  0  0  0  0  0  0  0  0  0  0
    2.6288    2.8165    0.7590 H   0  0  0  0  0  0  0  0  0  0  0  0
    2.7067    2.0529   -0.9179 H   0  0  0  0  0  0  0  0  0  0  0  0
   -0.9317    2.8395   -1.6158 H   0  0  0  0  0  0  0  0  0  0  0  0
    0.0871   -2.4302   -1.3852 C   0  0  0  0  0  0  0  0  0  0  0  0
    0.0871   -2.4302   -0.0619 C   0  0  0  0  0  0  0  0  0  0  0  0
    0.0871   -1.1994    0.8075 C   0  0  0  0  0  3  0  0  0  0  0  0
    1.3255   -1.1696    1.6991 C   0  0  0  0  0  0  0  0  0  0  0  0
   -1.2164   -1.1308    1.5640 C   0  0  0  0  0  0  0  0  0  0  0  0
   -1.3710   -1.1306    2.8789 C   0  0  0  0  0  0  0  0  0  0  0  0
    0.0864   -3.3528   -1.9519 H   0  0  0  0  0  0  0  0  0  0  0  0
    0.0889   -1.5044   -1.9509 H   0  0  0  0  0  0  0  0  0  0  0  0
    0.0824   -3.3760    0.4757 H   0  0  0  0  0  0  0  0  0  0  0  0
    0.1237   -0.1551    0.0087 H   0  0  0  0  0  0  0  0  0  0  0  0
    2.2283   -1.1780    1.0878 H   0  0  0  0  0  0  0  0  0  0  0  0
    1.3402   -0.2739    2.3222 H   0  0  0  0  0  0  0  0  0  0  0  0
    1.3581   -2.0414    2.3567 H   0  0  0  0  0  0  0  0  0  0  0  0
   -2.0996   -1.0951    0.9314 H   0  0  0  0  0  0  0  0  0  0  0  0
   -0.5307   -1.1699    3.5615 H   0  0  0  0  0  0  0  0  0  0  0  0
   -2.3574   -1.0875    3.3231 H   0  0  0  0  0  0  0  0  0  0  0  0
  1  2  1  0
  1  6  1  0
  1  7  1  0
  1  8  1  0
  2  3  1  0
  2  5  1  0
  2 22  1  0
  3  4  2  3
  3  9  1  0
  4 10  1  0
  4 11  1  0
  5 12  1  0
 13 14  2  3
 13 19  1  0
 13 20  1  0
 14 15  1  0
 14 21  1  0
 15 16  1  0
 15 17  1  0
 16 23  1  0
 16 24  1  0
 16 25  1  0
 17 18  2  3
 17 26  1  0
 18 27  1  0
 18 28  1  0
M  RAD  1  15   2
M  END
>  <reaction>  (13) 
rxn_1201

>  <mol_properties>  (13) 
{"1": {"label": "*3", "atom_type": "Cs"}, "4": {"label": "*4", "atom_type": "S2s"}, "13": {"label": "*0", "atom_type": "Cd"}, "14": {"label": "*1", "atom_type": "Cs"}, "21": {"label": "*2", "atom_type": "H0"}}

>  <type>  (13) 
unop_9

>  <geom_source>  (13) 
Heuristics

$$$$

     RDKit          3D

 28 26  0  0  0  0  0  0  0  0999 V2000
   -1.0886    0.8657   -1.7866 C   0  0  0  0  0  0  0  0  0  0  0  0
    0.1352    0.8885   -0.8859 C   0  0  0  0  0  0  0  0  0  0  0  0
    1.3346    1.5927   -1.4478 C   0  0  0  0  0  0  0  0  0  0  0  0
    1.3798    2.2626   -2.5895 C   0  0  0  0  0  0  0  0  0  0  0  0
   -0.2440    1.5548    0.7803 S   0  0  0  0  0  0  0  0  0  0  0  0
   -1.4489    1.8769   -1.9848 H   0  0  0  0  0  0  0  0  0  0  0  0
   -0.8526    0.3926   -2.7424 H   0  0  0  0  0  0  0  0  0  0  0  0
   -1.8958    0.3092   -1.3130 H   0  0  0  0  0  0  0  0  0  0  0  0
    2.2226    1.5402   -0.8257 H   0  0  0  0  0  0  0  0  0  0  0  0
    2.2917    2.7501   -2.9095 H   0  0  0  0  0  0  0  0  0  0  0  0
    0.5228    2.3514   -3.2458 H   0  0  0  0  0  0  0  0  0  0  0  0
   -0.4359    2.8219    0.3878 H   0  0  0  0  0  0  0  0  0  0  0  0
    0.0621   -2.4292   -1.4823 C   0  0  0  0  0  0  0  0  0  0  0  0
    0.0621   -2.4292   -0.1590 C   0  0  0  0  0  0  0  0  0  0  0  0
    0.0621   -1.1984    0.7104 C   0  0  0  0  0  3  0  0  0  0  0  0
    1.3005   -1.1686    1.6020 C   0  0  0  0  0  0  0  0  0  0  0  0
   -1.2414   -1.1298    1.4669 C   0  0  0  0  0  0  0  0  0  0  0  0
   -1.3960   -1.1296    2.7818 C   0  0  0  0  0  0  0  0  0  0  0  0
    0.0614   -3.3518   -2.0490 H   0  0  0  0  0  0  0  0  0  0  0  0
    0.0639   -1.5034   -2.0480 H   0  0  0  0  0  0  0  0  0  0  0  0
    0.0574   -3.3750    0.3786 H   0  0  0  0  0  0  0  0  0  0  0  0
    0.0987   -0.1541   -0.0884 H   0  0  0  0  0  0  0  0  0  0  0  0
    2.2032   -1.1770    0.9907 H   0  0  0  0  0  0  0  0  0  0  0  0
    1.3152   -0.2729    2.2251 H   0  0  0  0  0  0  0  0  0  0  0  0
    1.3331   -2.0404    2.2596 H   0  0  0  0  0  0  0  0  0  0  0  0
   -2.1246   -1.0941    0.8344 H   0  0  0  0  0  0  0  0  0  0  0  0
   -0.5557   -1.1689    3.4644 H   0  0  0  0  0  0  0  0  0  0  0  0
   -2.3824   -1.0865    3.2261 H   0  0  0  0  0  0  0  0  0  0  0  0
  1  2  1  0
  1  6  1  0
  1  7  1  0
  1  8  1  0
  2  3  1  0
  2  5  1  0
  2 22  1  0
  3  4  2  3
  3  9  1  0
  4 10  1  0
  4 11  1  0
  5 12  1  0
 13 14  2  3
 13 19  1  0
 13 20  1  0
 14 15  1  0
 14 21  1  0
 15 16  1  0
 15 17  1  0
 16 23  1  0
 16 24  1  0
 16 25  1  0
 17 18  2  3
 17 26  1  0
 18 27  1  0
 18 28  1  0
M  RAD  1  15   2
M  END
>  <reaction>  (14) 
rxn_1201

>  <mol_properties>  (14) 
{"1": {"label": "*3", "atom_type": "Cs"}, "4": {"label": "*4", "atom_type": "S2s"}, "13": {"label": "*0", "atom_type": "Cd"}, "14": {"label": "*1", "atom_type": "Cs"}, "21": {"label": "*2", "atom_type": "H0"}}

>  <type>  (14) 
unop_10

>  <geom_source>  (14) 
Heuristics

$$$$

     RDKit          3D

 28 26  0  0  0  0  0  0  0  0999 V2000
    1.0210    2.1635    0.0829 C   0  0  0  0  0  0  0  0  0  0  0  0
    0.2999    1.0264   -0.6218 C   0  0  0  0  0  0  0  0  0  0  0  0
   -1.1940    1.0303   -0.4868 C   0  0  0  0  0  0  0  0  0  0  0  0
   -1.9205    1.9723    0.0955 C   0  0  0  0  0  0  0  0  0  0  0  0
    0.7565    0.9105   -2.3944 S   0  0  0  0  0  0  0  0  0  0  0  0
    0.7244    3.1305   -0.3275 H   0  0  0  0  0  0  0  0  0  0  0  0
    0.7915    2.1597    1.1509 H   0  0  0  0  0  0  0  0  0  0  0  0
    2.0980    2.0626   -0.0417 H   0  0  0  0  0  0  0  0  0  0  0  0
   -1.6909    0.1749   -0.9339 H   0  0  0  0  0  0  0  0  0  0  0  0
   -2.9993    1.8941    0.1354 H   0  0  0  0  0  0  0  0  0  0  0  0
   -1.4777    2.8488    0.5524 H   0  0  0  0  0  0  0  0  0  0  0  0
    0.1340    2.0343   -2.7767 H   0  0  0  0  0  0  0  0  0  0  0  0
    0.2267   -2.2912   -1.2182 C   0  0  0  0  0  0  0  0  0  0  0  0
    0.2267   -2.2912    0.1050 C   0  0  0  0  0  0  0  0  0  0  0  0
    0.2267   -1.0605    0.9744 C   0  0  0  0  0  3  0  0  0  0  0  0
    1.4651   -1.0307    1.8660 C   0  0  0  0  0  0  0  0  0  0  0  0
   -1.0768   -0.9919    1.7310 C   0  0  0  0  0  0  0  0  0  0  0  0
   -1.2314   -0.9916    3.0459 C   0  0  0  0  0  0  0  0  0  0  0  0
    0.2260   -3.2139   -1.7849 H   0  0  0  0  0  0  0  0  0  0  0  0
    0.2285   -1.3655   -1.7839 H   0  0  0  0  0  0  0  0  0  0  0  0
    0.2220   -3.2371    0.6427 H   0  0  0  0  0  0  0  0  0  0  0  0
    0.2633   -0.0161    0.1756 H   0  0  0  0  0  0  0  0  0  0  0  0
    2.3679   -1.0390    1.2548 H   0  0  0  0  0  0  0  0  0  0  0  0
    1.4798   -0.1349    2.4892 H   0  0  0  0  0  0  0  0  0  0  0  0
    1.4977   -1.9024    2.5237 H   0  0  0  0  0  0  0  0  0  0  0  0
   -1.9599   -0.9562    1.0984 H   0  0  0  0  0  0  0  0  0  0  0  0
   -0.3910   -1.0310    3.7284 H   0  0  0  0  0  0  0  0  0  0  0  0
   -2.2178   -0.9485    3.4901 H   0  0  0  0  0  0  0  0  0  0  0  0
  1  2  1  0
  1  6  1  0
  1  7  1  0
  1  8  1  0
  2  3  1  0
  2  5  1  0
  2 22  1  0
  3  4  2  3
  3  9  1  0
  4 10  1  0
  4 11  1  0
  5 12  1  0
 13 14  2  3
 13 19  1  0
 13 20  1  0
 14 15  1  0
 14 21  1  0
 15 16  1  0
 15 17  1  0
 16 23  1  0
 16 24  1  0
 16 25  1  0
 17 18  2  3
 17 26  1  0
 18 27  1  0
 18 28  1  0
M  RAD  1  15   2
M  END
>  <reaction>  (15) 
rxn_1201

>  <mol_properties>  (15) 
{"1": {"label": "*3", "atom_type": "Cs"}, "4": {"label": "*4", "atom_type": "S2s"}, "13": {"label": "*0", "atom_type": "Cd"}, "14": {"label": "*1", "atom_type": "Cs"}, "21": {"label": "*2", "atom_type": "H0"}}

>  <type>  (15) 
unop_11

>  <geom_source>  (15) 
Heuristics

$$$$

     RDKit          3D

 28 26  0  0  0  0  0  0  0  0999 V2000
    0.2053    0.4102   -2.2206 C   0  0  0  0  0  0  0  0  0  0  0  0
    0.1790    0.8905   -0.7791 C   0  0  0  0  0  0  0  0  0  0  0  0
    1.3393    1.7461   -0.3648 C   0  0  0  0  0  0  0  0  0  0  0  0
    2.3044    2.1861   -1.1581 C   0  0  0  0  0  0  0  0  0  0  0  0
   -1.3916    1.7406   -0.3614 S   0  0  0  0  0  0  0  0  0  0  0  0
    0.1702    1.2514   -2.9153 H   0  0  0  0  0  0  0  0  0  0  0  0
    1.1159   -0.1598   -2.4184 H   0  0  0  0  0  0  0  0  0  0  0  0
   -0.6544   -0.2270   -2.4222 H   0  0  0  0  0  0  0  0  0  0  0  0
    1.3451    2.0231    0.6848 H   0  0  0  0  0  0  0  0  0  0  0  0
    3.0986    2.8106   -0.7699 H   0  0  0  0  0  0  0  0  0  0  0  0
    2.3448    1.9449   -2.2132 H   0  0  0  0  0  0  0  0  0  0  0  0
   -1.1678    2.8306   -1.1086 H   0  0  0  0  0  0  0  0  0  0  0  0
    0.1059   -2.4272   -1.3754 C   0  0  0  0  0  0  0  0  0  0  0  0
    0.1059   -2.4272   -0.0522 C   0  0  0  0  0  0  0  0  0  0  0  0
    0.1059   -1.1964    0.8172 C   0  0  0  0  0  3  0  0  0  0  0  0
    1.3442   -1.1666    1.7088 C   0  0  0  0  0  0  0  0  0  0  0  0
   -1.1976   -1.1279    1.5737 C   0  0  0  0  0  0  0  0  0  0  0  0
   -1.3523   -1.1276    2.8887 C   0  0  0  0  0  0  0  0  0  0  0  0
    0.1051   -3.3498   -1.9421 H   0  0  0  0  0  0  0  0  0  0  0  0
    0.1076   -1.5014   -1.9411 H   0  0  0  0  0  0  0  0  0  0  0  0
    0.1011   -3.3730    0.4855 H   0  0  0  0  0  0  0  0  0  0  0  0
    0.1425   -0.1521    0.0184 H   0  0  0  0  0  0  0  0  0  0  0  0
    2.2470   -1.1750    1.0976 H   0  0  0  0  0  0  0  0  0  0  0  0
    1.3589   -0.2709    2.3319 H   0  0  0  0  0  0  0  0  0  0  0  0
    1.3768   -2.0384    2.3664 H   0  0  0  0  0  0  0  0  0  0  0  0
   -2.0808   -1.0921    0.9412 H   0  0  0  0  0  0  0  0  0  0  0  0
   -0.5119   -1.1669    3.5712 H   0  0  0  0  0  0  0  0  0  0  0  0
   -2.3387   -1.0845    3.3329 H   0  0  0  0  0  0  0  0  0  0  0  0
  1  2  1  0
  1  6  1  0
  1  7  1  0
  1  8  1  0
  2  3  1  0
  2  5  1  0
  2 22  1  0
  3  4  2  3
  3  9  1  0
  4 10  1  0
  4 11  1  0
  5 12  1  0
 13 14  2  3
 13 19  1  0
 13 20  1  0
 14 15  1  0
 14 21  1  0
 15 16  1  0
 15 17  1  0
 16 23  1  0
 16 24  1  0
 16 25  1  0
 17 18  2  3
 17 26  1  0
 18 27  1  0
 18 28  1  0
M  RAD  1  15   2
M  END
>  <reaction>  (16) 
rxn_1201

>  <mol_properties>  (16) 
{"1": {"label": "*3", "atom_type": "Cs"}, "4": {"label": "*4", "atom_type": "S2s"}, "13": {"label": "*0", "atom_type": "Cd"}, "14": {"label": "*1", "atom_type": "Cs"}, "21": {"label": "*2", "atom_type": "H0"}}

>  <type>  (16) 
unop_12

>  <geom_source>  (16) 
Heuristics

$$$$

     RDKit          3D

 28 26  0  0  0  0  0  0  0  0999 V2000
   -1.5589   -0.0322    1.9980 S   0  0  0  0  0  0  0  0  0  0  0  0
   -1.4762   -0.0521    0.1747 C   0  0  0  0  0  0  0  0  0  0  0  0
   -2.2533   -1.2507   -0.3695 C   0  0  0  0  0  0  0  0  0  0  0  0
    0.7019   -0.0781    1.6581 C   0  0  0  0  0  0  0  0  0  0  0  0
    1.1064   -0.0949    0.1845 C   0  0  0  0  0  3  0  0  0  0  0  0
   -2.0078    1.2422   -0.3848 C   0  0  0  0  0  0  0  0  0  0  0  0
    1.7644    1.1882   -0.2517 C   0  0  0  0  0  0  0  0  0  0  0  0
    1.9478   -1.2927   -0.1485 C   0  0  0  0  0  0  0  0  0  0  0  0
   -1.8015    1.5854   -1.6593 C   0  0  0  0  0  0  0  0  0  0  0  0
    2.9252    1.6148    0.2587 C   0  0  0  0  0  0  0  0  0  0  0  0
    1.5612   -2.1502   -1.0935 C   0  0  0  0  0  0  0  0  0  0  0  0
   -0.1975   -0.1787   -0.1681 H   0  0  0  0  0  0  0  0  0  0  0  0
   -3.3332   -1.1633   -0.1231 H   0  0  0  0  0  0  0  0  0  0  0  0
   -2.1387   -1.3144   -1.4721 H   0  0  0  0  0  0  0  0  0  0  0  0
   -1.8566   -2.1885    0.0733 H   0  0  0  0  0  0  0  0  0  0  0  0
    0.0561    0.8020    1.8619 H   0  0  0  0  0  0  0  0  0  0  0  0
    0.1252   -0.9962    1.8980 H   0  0  0  0  0  0  0  0  0  0  0  0
    1.5965   -0.0332    2.3154 H   0  0  0  0  0  0  0  0  0  0  0  0
   -2.5448    1.9320    0.2603 H   0  0  0  0  0  0  0  0  0  0  0  0
    1.2753    1.7802   -1.0183 H   0  0  0  0  0  0  0  0  0  0  0  0
    2.8854   -1.4577    0.3749 H   0  0  0  0  0  0  0  0  0  0  0  0
   -1.2521    0.9342   -2.3324 H   0  0  0  0  0  0  0  0  0  0  0  0
   -2.1820    2.5293   -2.0358 H   0  0  0  0  0  0  0  0  0  0  0  0
    3.3621    2.5443   -0.0911 H   0  0  0  0  0  0  0  0  0  0  0  0
    3.4470    1.0443    1.0206 H   0  0  0  0  0  0  0  0  0  0  0  0
    2.1785   -3.0101   -1.3321 H   0  0  0  0  0  0  0  0  0  0  0  0
    0.6309   -2.0021   -1.6337 H   0  0  0  0  0  0  0  0  0  0  0  0
   -2.9612    0.0982    2.0357 H   0  0  0  0  0  0  0  0  0  0  0  0
  1  2  1  0
  1 28  1  0
  2  3  1  0
  2  6  1  0
  2 12  1  0
  3 13  1  0
  3 14  1  0
  3 15  1  0
  4  5  1  0
  4 16  1  0
  4 17  1  0
  4 18  1  0
  5  7  1  0
  5  8  1  0
  6  9  2  3
  6 19  1  0
  7 10  2  3
  7 20  1  0
  8 11  2  3
  8 21  1  0
  9 22  1  0
  9 23  1  0
 10 24  1  0
 10 25  1  0
 11 26  1  0
 11 27  1  0
M  RAD  1   5   2
M  END
>  <reaction>  (17) 
rxn_1201

>  <mol_properties>  (17) 
{"1": {"label": "*3", "atom_type": "Cs"}, "4": {"label": "*4", "atom_type": "S2s"}, "13": {"label": "*0", "atom_type": "Cd"}, "14": {"label": "*1", "atom_type": "Cs"}, "21": {"label": "*2", "atom_type": "H0"}}

>  <type>  (17) 
unop_13

>  <geom_source>  (17) 
AutoTST

$$$$
