
     RDKit          3D

 10  9  0  0  0  0  0  0  0  0999 V2000
   -1.1906   -0.0419   -0.0385 C   0  0  0  0  0  0  0  0  0  0  0  0
    0.2513    0.4500    0.0348 C   0  0  0  0  0  0  0  0  0  0  0  0
    1.2500   -0.5694    0.3278 N   0  0  0  0  0  0  0  0  0  0  0  0
   -1.4965   -0.4905    0.9100 H   0  0  0  0  0  0  0  0  0  0  0  0
   -1.3035   -0.7985   -0.8190 H   0  0  0  0  0  0  0  0  0  0  0  0
   -1.8789    0.7769   -0.2612 H   0  0  0  0  0  0  0  0  0  0  0  0
    0.3352    1.2278    0.7979 H   0  0  0  0  0  0  0  0  0  0  0  0
    0.5259    0.9233   -0.9113 H   0  0  0  0  0  0  0  0  0  0  0  0
    1.2298   -1.2971   -0.3752 H   0  0  0  0  0  0  0  0  0  0  0  0
    1.0523   -1.0138    1.2153 H   0  0  0  0  0  0  0  0  0  0  0  0
  1  2  1  0
  1  4  1  0
  1  5  1  0
  1  6  1  0
  2  3  1  0
  2  7  1  0
  2  8  1  0
  3  9  1  0
  3 10  1  0
M  END
>  <reaction>  (1) 
rxn_114

>  <mol_properties>  (1) 
{"0": {"label": "donator", "atom_type": "Cs"}, "3": {"label": "d_hydrogen", "atom_type": "H0"}}

>  <type>  (1) 
r1h

$$$$

     RDKit          3D

  4  3  0  0  0  0  0  0  0  0999 V2000
    0.0000    0.0000    0.0000 C   0  0  0  0  0  3  0  0  0  0  0  0
    1.0638   -0.1747    0.0540 H   0  0  0  0  0  0  0  0  0  0  0  0
   -0.6833   -0.8351   -0.0280 H   0  0  0  0  0  0  0  0  0  0  0  0
   -0.3805    1.0098   -0.0260 H   0  0  0  0  0  0  0  0  0  0  0  0
  1  2  1  0
  1  3  1  0
  1  4  1  0
M  RAD  1   1   2
M  END
>  <reaction>  (2) 
rxn_114

>  <mol_properties>  (2) 
{"0": {"label": "acceptor", "atom_type": "Cs"}}

>  <type>  (2) 
r2

$$$$

     RDKit          3D

  5  4  0  0  0  0  0  0  0  0999 V2000
    0.0000    0.0000    0.0000 C   0  0  0  0  0  0  0  0  0  0  0  0
   -0.6486   -0.7720   -0.4113 H   0  0  0  0  0  0  0  0  0  0  0  0
   -0.3482    0.9787   -0.3267 H   0  0  0  0  0  0  0  0  0  0  0  0
   -0.0223   -0.0487    1.0876 H   0  0  0  0  0  0  0  0  0  0  0  0
    1.0191   -0.1580   -0.3496 H   0  0  0  0  0  0  0  0  0  0  0  0
  1  2  1  0
  1  3  1  0
  1  4  1  0
  1  5  1  0
M  END
>  <reaction>  (3) 
rxn_114

>  <mol_properties>  (3) 
{"0": {"label": "a_hydrogen", "atom_type": "H0"}, "1": {"label": "acceptor", "atom_type": "Cs"}}

>  <type>  (3) 
r2h

$$$$

     RDKit          3D

 14 12  0  0  0  0  0  0  0  0999 V2000
    0.6382    0.2587    0.9505 C   0  0  0  0  0  0  0  0  0  0  0  0
    0.5102   -1.0425    0.1934 C   0  0  0  0  0  0  0  0  0  0  0  0
    0.5298   -0.9306   -1.2591 N   0  0  0  0  0  0  0  0  0  0  0  0
   -0.4034    0.9876    0.6054 H   0  0  0  0  0  0  0  0  0  0  0  0
    1.4993    0.8621    0.6609 H   0  0  0  0  0  0  0  0  0  0  0  0
    0.5585    0.1664    2.0337 H   0  0  0  0  0  0  0  0  0  0  0  0
   -0.4201   -1.5409    0.4798 H   0  0  0  0  0  0  0  0  0  0  0  0
    1.3158   -1.7243    0.4872 H   0  0  0  0  0  0  0  0  0  0  0  0
    1.3950   -0.5063   -1.5686 H   0  0  0  0  0  0  0  0  0  0  0  0
   -0.2206   -0.3282   -1.5726 H   0  0  0  0  0  0  0  0  0  0  0  0
   -1.5216    1.6690    0.2027 C   0  0  0  0  0  3  0  0  0  0  0  0
   -2.2543    0.9001   -0.0277 H   0  0  0  0  0  0  0  0  0  0  0  0
   -1.2112    2.2472   -0.6630 H   0  0  0  0  0  0  0  0  0  0  0  0
   -1.7951    2.2829    1.0557 H   0  0  0  0  0  0  0  0  0  0  0  0
  1  2  1  0
  1  4  1  0
  1  5  1  0
  1  6  1  0
  2  3  1  0
  2  7  1  0
  2  8  1  0
  3  9  1  0
  3 10  1  0
 11 12  1  0
 11 13  1  0
 11 14  1  0
M  RAD  1  11   2
M  END
>  <reaction>  (4) 
rxn_114

>  <mol_properties>  (4) 
{"0": {"label": "*1", "atom_type": "Cs"}, "1": {"label": "*0", "atom_type": "Cs"}, "3": {"label": "*2", "atom_type": "H0"}, "10": {"label": "*3", "atom_type": "Cs"}, "11": {"label": "*4", "atom_type": "H0"}}

>  <type>  (4) 
ts

$$$$

     RDKit          3D

 14 12  0  0  0  0  0  0  0  0999 V2000
    0.5401    0.3095    0.8872 C   0  0  0  0  0  3  0  0  0  0  0  0
    0.5401   -1.0661    0.2282 C   0  0  0  0  0  0  0  0  0  0  0  0
    0.5401   -1.0661   -1.2287 N   0  0  0  0  0  0  0  0  0  0  0  0
   -0.5200    0.9957    0.5331 H   0  0  0  0  0  0  0  0  0  0  0  0
    1.4234    0.8813    0.5921 H   0  0  0  0  0  0  0  0  0  0  0  0
    0.5401    0.2280    1.9767 H   0  0  0  0  0  0  0  0  0  0  0  0
   -0.3332   -1.6324    0.5614 H   0  0  0  0  0  0  0  0  0  0  0  0
    1.4134   -1.6324    0.5614 H   0  0  0  0  0  0  0  0  0  0  0  0
    1.3527   -0.5776   -1.5827 H   0  0  0  0  0  0  0  0  0  0  0  0
   -0.2725   -0.5776   -1.5827 H   0  0  0  0  0  0  0  0  0  0  0  0
   -1.5762    1.6794    0.1804 C   0  0  0  0  0  0  0  0  0  0  0  0
   -2.1585    1.9303    1.0656 H   0  0  0  0  0  0  0  0  0  0  0  0
   -2.2124    1.7387   -0.7014 H   0  0  0  0  0  0  0  0  0  0  0  0
   -0.8298    2.4712    0.2209 H   0  0  0  0  0  0  0  0  0  0  0  0
  1  2  1  0
  1  5  1  0
  1  6  1  0
  2  3  1  0
  2  7  1  0
  2  8  1  0
  3  9  1  0
  3 10  1  0
  4 11  1  0
 11 12  1  0
 11 13  1  0
 11 14  1  0
M  RAD  1   1   2
M  END
>  <reaction>  (5) 
rxn_114

>  <mol_properties>  (5) 
{"0": {"label": "*1", "atom_type": "Cs"}, "1": {"label": "*0", "atom_type": "Cs"}, "3": {"label": "*2", "atom_type": "H0"}, "10": {"label": "*3", "atom_type": "Cs"}, "11": {"label": "*4", "atom_type": "H0"}}

>  <type>  (5) 
unop_1

>  <geom_source>  (5) 
Heuristics

$$$$

     RDKit          3D

 14 12  0  0  0  0  0  0  0  0999 V2000
    0.5386    0.3179    0.8894 C   0  0  0  0  0  3  0  0  0  0  0  0
    0.5386   -1.0577    0.2304 C   0  0  0  0  0  0  0  0  0  0  0  0
    0.5386   -1.0577   -1.2265 N   0  0  0  0  0  0  0  0  0  0  0  0
   -0.5214    1.0041    0.5353 H   0  0  0  0  0  0  0  0  0  0  0  0
    1.4220    0.8897    0.5944 H   0  0  0  0  0  0  0  0  0  0  0  0
    0.5386    0.2364    1.9789 H   0  0  0  0  0  0  0  0  0  0  0  0
   -0.3346   -1.6240    0.5636 H   0  0  0  0  0  0  0  0  0  0  0  0
    1.4119   -1.6240    0.5636 H   0  0  0  0  0  0  0  0  0  0  0  0
    1.3512   -0.5692   -1.5805 H   0  0  0  0  0  0  0  0  0  0  0  0
   -0.2740   -0.5692   -1.5805 H   0  0  0  0  0  0  0  0  0  0  0  0
   -1.5776    1.6878    0.1826 C   0  0  0  0  0  0  0  0  0  0  0  0
   -2.4020    1.0049   -0.0173 H   0  0  0  0  0  0  0  0  0  0  0  0
   -1.5616    2.4692   -0.5757 H   0  0  0  0  0  0  0  0  0  0  0  0
   -1.1568    2.1901    1.0523 H   0  0  0  0  0  0  0  0  0  0  0  0
  1  2  1  0
  1  5  1  0
  1  6  1  0
  2  3  1  0
  2  7  1  0
  2  8  1  0
  3  9  1  0
  3 10  1  0
  4 11  1  0
 11 12  1  0
 11 13  1  0
 11 14  1  0
M  RAD  1   1   2
M  END
>  <reaction>  (6) 
rxn_114

>  <mol_properties>  (6) 
{"0": {"label": "*1", "atom_type": "Cs"}, "1": {"label": "*0", "atom_type": "Cs"}, "3": {"label": "*2", "atom_type": "H0"}, "10": {"label": "*3", "atom_type": "Cs"}, "11": {"label": "*4", "atom_type": "H0"}}

>  <type>  (6) 
unop_2

>  <geom_source>  (6) 
Heuristics

$$$$

     RDKit          3D

 14 12  0  0  0  0  0  0  0  0999 V2000
    0.5419    0.3088    0.8911 C   0  0  0  0  0  3  0  0  0  0  0  0
    0.5419   -1.0668    0.2321 C   0  0  0  0  0  0  0  0  0  0  0  0
    0.5419   -1.0668   -1.2248 N   0  0  0  0  0  0  0  0  0  0  0  0
   -0.5182    0.9950    0.5370 H   0  0  0  0  0  0  0  0  0  0  0  0
    1.4253    0.8806    0.5961 H   0  0  0  0  0  0  0  0  0  0  0  0
    0.5419    0.2273    1.9806 H   0  0  0  0  0  0  0  0  0  0  0  0
   -0.3314   -1.6331    0.5653 H   0  0  0  0  0  0  0  0  0  0  0  0
    1.4152   -1.6331    0.5653 H   0  0  0  0  0  0  0  0  0  0  0  0
    1.3545   -0.5783   -1.5788 H   0  0  0  0  0  0  0  0  0  0  0  0
   -0.2707   -0.5783   -1.5788 H   0  0  0  0  0  0  0  0  0  0  0  0
   -1.5744    1.6787    0.1843 C   0  0  0  0  0  0  0  0  0  0  0  0
   -1.8525    2.3578    0.9887 H   0  0  0  0  0  0  0  0  0  0  0  0
   -2.4698    1.3581   -0.3460 H   0  0  0  0  0  0  0  0  0  0  0  0
   -0.9810    2.4651   -0.2795 H   0  0  0  0  0  0  0  0  0  0  0  0
  1  2  1  0
  1  5  1  0
  1  6  1  0
  2  3  1  0
  2  7  1  0
  2  8  1  0
  3  9  1  0
  3 10  1  0
  4 11  1  0
 11 12  1  0
 11 13  1  0
 11 14  1  0
M  RAD  1   1   2
M  END
>  <reaction>  (7) 
rxn_114

>  <mol_properties>  (7) 
{"0": {"label": "*1", "atom_type": "Cs"}, "1": {"label": "*0", "atom_type": "Cs"}, "3": {"label": "*2", "atom_type": "H0"}, "10": {"label": "*3", "atom_type": "Cs"}, "11": {"label": "*4", "atom_type": "H0"}}

>  <type>  (7) 
unop_3

>  <geom_source>  (7) 
Heuristics

$$$$

     RDKit          3D

 14 12  0  0  0  0  0  0  0  0999 V2000
    0.5375    0.3144    0.8876 C   0  0  0  0  0  3  0  0  0  0  0  0
    0.5375   -1.0612    0.2286 C   0  0  0  0  0  0  0  0  0  0  0  0
    0.5375   -1.0612   -1.2283 N   0  0  0  0  0  0  0  0  0  0  0  0
   -0.5226    1.0006    0.5336 H   0  0  0  0  0  0  0  0  0  0  0  0
    1.4209    0.8862    0.5926 H   0  0  0  0  0  0  0  0  0  0  0  0
    0.5375    0.2329    1.9771 H   0  0  0  0  0  0  0  0  0  0  0  0
   -0.3358   -1.6275    0.5618 H   0  0  0  0  0  0  0  0  0  0  0  0
    1.4108   -1.6275    0.5618 H   0  0  0  0  0  0  0  0  0  0  0  0
    1.3501   -0.5727   -1.5822 H   0  0  0  0  0  0  0  0  0  0  0  0
   -0.2751   -0.5727   -1.5822 H   0  0  0  0  0  0  0  0  0  0  0  0
   -1.5788    1.6843    0.1808 C   0  0  0  0  0  0  0  0  0  0  0  0
   -1.5833    1.8132   -0.9005 H   0  0  0  0  0  0  0  0  0  0  0  0
   -1.0196    2.4974    0.6410 H   0  0  0  0  0  0  0  0  0  0  0  0
   -2.4512    1.5522    0.8189 H   0  0  0  0  0  0  0  0  0  0  0  0
  1  2  1  0
  1  5  1  0
  1  6  1  0
  2  3  1  0
  2  7  1  0
  2  8  1  0
  3  9  1  0
  3 10  1  0
  4 11  1  0
 11 12  1  0
 11 13  1  0
 11 14  1  0
M  RAD  1   1   2
M  END
>  <reaction>  (8) 
rxn_114

>  <mol_properties>  (8) 
{"0": {"label": "*1", "atom_type": "Cs"}, "1": {"label": "*0", "atom_type": "Cs"}, "3": {"label": "*2", "atom_type": "H0"}, "10": {"label": "*3", "atom_type": "Cs"}, "11": {"label": "*4", "atom_type": "H0"}}

>  <type>  (8) 
unop_4

>  <geom_source>  (8) 
Heuristics

$$$$

     RDKit          3D

 14 12  0  0  0  0  0  0  0  0999 V2000
    0.5471    0.3115    0.8905 C   0  0  0  0  0  3  0  0  0  0  0  0
    0.5471   -1.0641    0.2315 C   0  0  0  0  0  0  0  0  0  0  0  0
    0.5471   -1.0641   -1.2254 N   0  0  0  0  0  0  0  0  0  0  0  0
   -0.5130    0.9977    0.5365 H   0  0  0  0  0  0  0  0  0  0  0  0
    1.4304    0.8833    0.5955 H   0  0  0  0  0  0  0  0  0  0  0  0
    0.5471    0.2300    1.9800 H   0  0  0  0  0  0  0  0  0  0  0  0
   -0.3262   -1.6304    0.5647 H   0  0  0  0  0  0  0  0  0  0  0  0
    1.4203   -1.6304    0.5647 H   0  0  0  0  0  0  0  0  0  0  0  0
    1.3597   -0.5756   -1.5793 H   0  0  0  0  0  0  0  0  0  0  0  0
   -0.2655   -0.5756   -1.5793 H   0  0  0  0  0  0  0  0  0  0  0  0
   -1.5692    1.6814    0.1837 C   0  0  0  0  0  0  0  0  0  0  0  0
   -1.5473    2.6576    0.6656 H   0  0  0  0  0  0  0  0  0  0  0  0
   -2.4669    1.1459    0.4891 H   0  0  0  0  0  0  0  0  0  0  0  0
   -1.5822    2.2247   -0.7599 H   0  0  0  0  0  0  0  0  0  0  0  0
  1  2  1  0
  1  5  1  0
  1  6  1  0
  2  3  1  0
  2  7  1  0
  2  8  1  0
  3  9  1  0
  3 10  1  0
  4 11  1  0
 11 12  1  0
 11 13  1  0
 11 14  1  0
M  RAD  1   1   2
M  END
>  <reaction>  (9) 
rxn_114

>  <mol_properties>  (9) 
{"0": {"label": "*1", "atom_type": "Cs"}, "1": {"label": "*0", "atom_type": "Cs"}, "3": {"label": "*2", "atom_type": "H0"}, "10": {"label": "*3", "atom_type": "Cs"}, "11": {"label": "*4", "atom_type": "H0"}}

>  <type>  (9) 
unop_5

>  <geom_source>  (9) 
Heuristics

$$$$

     RDKit          3D

 14 12  0  0  0  0  0  0  0  0999 V2000
    0.5398    0.3122    0.8860 C   0  0  0  0  0  3  0  0  0  0  0  0
    0.5398   -1.0633    0.2270 C   0  0  0  0  0  0  0  0  0  0  0  0
    0.5398   -1.0633   -1.2299 N   0  0  0  0  0  0  0  0  0  0  0  0
   -0.5202    0.9984    0.5320 H   0  0  0  0  0  0  0  0  0  0  0  0
    1.4232    0.8840    0.5910 H   0  0  0  0  0  0  0  0  0  0  0  0
    0.5398    0.2308    1.9755 H   0  0  0  0  0  0  0  0  0  0  0  0
   -0.3335   -1.6297    0.5602 H   0  0  0  0  0  0  0  0  0  0  0  0
    1.4131   -1.6297    0.5602 H   0  0  0  0  0  0  0  0  0  0  0  0
    1.3524   -0.5749   -1.5838 H   0  0  0  0  0  0  0  0  0  0  0  0
   -0.2728   -0.5749   -1.5838 H   0  0  0  0  0  0  0  0  0  0  0  0
   -1.5765    1.6821    0.1792 C   0  0  0  0  0  0  0  0  0  0  0  0
   -1.3542    2.2556   -0.7194 H   0  0  0  0  0  0  0  0  0  0  0  0
   -1.1888    2.2078    1.0504 H   0  0  0  0  0  0  0  0  0  0  0  0
   -2.6442    1.5218    0.3203 H   0  0  0  0  0  0  0  0  0  0  0  0
  1  2  1  0
  1  5  1  0
  1  6  1  0
  2  3  1  0
  2  7  1  0
  2  8  1  0
  3  9  1  0
  3 10  1  0
  4 11  1  0
 11 12  1  0
 11 13  1  0
 11 14  1  0
M  RAD  1   1   2
M  END
>  <reaction>  (10) 
rxn_114

>  <mol_properties>  (10) 
{"0": {"label": "*1", "atom_type": "Cs"}, "1": {"label": "*0", "atom_type": "Cs"}, "3": {"label": "*2", "atom_type": "H0"}, "10": {"label": "*3", "atom_type": "Cs"}, "11": {"label": "*4", "atom_type": "H0"}}

>  <type>  (10) 
unop_6

>  <geom_source>  (10) 
Heuristics

$$$$

     RDKit          3D

 14 12  0  0  0  0  0  0  0  0999 V2000
    0.5430    0.3114    0.8842 C   0  0  0  0  0  3  0  0  0  0  0  0
    0.5430   -1.0641    0.2252 C   0  0  0  0  0  0  0  0  0  0  0  0
    0.5430   -1.0641   -1.2317 N   0  0  0  0  0  0  0  0  0  0  0  0
   -0.5170    0.9976    0.5302 H   0  0  0  0  0  0  0  0  0  0  0  0
    1.4264    0.8833    0.5892 H   0  0  0  0  0  0  0  0  0  0  0  0
    0.5430    0.2300    1.9737 H   0  0  0  0  0  0  0  0  0  0  0  0
   -0.3303   -1.6304    0.5584 H   0  0  0  0  0  0  0  0  0  0  0  0
    1.4163   -1.6304    0.5584 H   0  0  0  0  0  0  0  0  0  0  0  0
    1.3556   -0.5756   -1.5856 H   0  0  0  0  0  0  0  0  0  0  0  0
   -0.2696   -0.5756   -1.5856 H   0  0  0  0  0  0  0  0  0  0  0  0
   -1.5733    1.6813    0.1774 C   0  0  0  0  0  0  0  0  0  0  0  0
   -1.2624    2.5966   -0.3240 H   0  0  0  0  0  0  0  0  0  0  0  0
   -1.5061    1.8174    1.2557 H   0  0  0  0  0  0  0  0  0  0  0  0
   -2.5996    1.6153   -0.1803 H   0  0  0  0  0  0  0  0  0  0  0  0
  1  2  1  0
  1  5  1  0
  1  6  1  0
  2  3  1  0
  2  7  1  0
  2  8  1  0
  3  9  1  0
  3 10  1  0
  4 11  1  0
 11 12  1  0
 11 13  1  0
 11 14  1  0
M  RAD  1   1   2
M  END
>  <reaction>  (11) 
rxn_114

>  <mol_properties>  (11) 
{"0": {"label": "*1", "atom_type": "Cs"}, "1": {"label": "*0", "atom_type": "Cs"}, "3": {"label": "*2", "atom_type": "H0"}, "10": {"label": "*3", "atom_type": "Cs"}, "11": {"label": "*4", "atom_type": "H0"}}

>  <type>  (11) 
unop_7

>  <geom_source>  (11) 
Heuristics

$$$$

     RDKit          3D

 14 12  0  0  0  0  0  0  0  0999 V2000
    0.5406    0.3127    0.8855 C   0  0  0  0  0  3  0  0  0  0  0  0
    0.5406   -1.0629    0.2265 C   0  0  0  0  0  0  0  0  0  0  0  0
    0.5406   -1.0629   -1.2304 N   0  0  0  0  0  0  0  0  0  0  0  0
   -0.5194    0.9989    0.5314 H   0  0  0  0  0  0  0  0  0  0  0  0
    1.4240    0.8845    0.5904 H   0  0  0  0  0  0  0  0  0  0  0  0
    0.5406    0.2313    1.9750 H   0  0  0  0  0  0  0  0  0  0  0  0
   -0.3327   -1.6292    0.5597 H   0  0  0  0  0  0  0  0  0  0  0  0
    1.4139   -1.6292    0.5597 H   0  0  0  0  0  0  0  0  0  0  0  0
    1.3532   -0.5744   -1.5844 H   0  0  0  0  0  0  0  0  0  0  0  0
   -0.2720   -0.5744   -1.5844 H   0  0  0  0  0  0  0  0  0  0  0  0
   -1.5757    1.6826    0.1787 C   0  0  0  0  0  0  0  0  0  0  0  0
   -2.3847    1.4890    0.8813 H   0  0  0  0  0  0  0  0  0  0  0  0
   -1.9888    2.0586   -0.7560 H   0  0  0  0  0  0  0  0  0  0  0  0
   -0.8585    2.4100    0.5558 H   0  0  0  0  0  0  0  0  0  0  0  0
  1  2  1  0
  1  5  1  0
  1  6  1  0
  2  3  1  0
  2  7  1  0
  2  8  1  0
  3  9  1  0
  3 10  1  0
  4 11  1  0
 11 12  1  0
 11 13  1  0
 11 14  1  0
M  RAD  1   1   2
M  END
>  <reaction>  (12) 
rxn_114

>  <mol_properties>  (12) 
{"0": {"label": "*1", "atom_type": "Cs"}, "1": {"label": "*0", "atom_type": "Cs"}, "3": {"label": "*2", "atom_type": "H0"}, "10": {"label": "*3", "atom_type": "Cs"}, "11": {"label": "*4", "atom_type": "H0"}}

>  <type>  (12) 
unop_8

>  <geom_source>  (12) 
Heuristics

$$$$

     RDKit          3D

 14 12  0  0  0  0  0  0  0  0999 V2000
    0.5359    0.3165    0.8890 C   0  0  0  0  0  3  0  0  0  0  0  0
    0.5359   -1.0590    0.2300 C   0  0  0  0  0  0  0  0  0  0  0  0
    0.5359   -1.0590   -1.2269 N   0  0  0  0  0  0  0  0  0  0  0  0
   -0.5242    1.0027    0.5349 H   0  0  0  0  0  0  0  0  0  0  0  0
    1.4193    0.8883    0.5939 H   0  0  0  0  0  0  0  0  0  0  0  0
    0.5359    0.2351    1.9785 H   0  0  0  0  0  0  0  0  0  0  0  0
   -0.3374   -1.6254    0.5632 H   0  0  0  0  0  0  0  0  0  0  0  0
    1.4092   -1.6254    0.5632 H   0  0  0  0  0  0  0  0  0  0  0  0
    1.3485   -0.5706   -1.5809 H   0  0  0  0  0  0  0  0  0  0  0  0
   -0.2767   -0.5706   -1.5809 H   0  0  0  0  0  0  0  0  0  0  0  0
   -1.5804    1.6864    0.1821 C   0  0  0  0  0  0  0  0  0  0  0  0
   -1.8891    1.3871   -0.8183 H   0  0  0  0  0  0  0  0  0  0  0  0
   -1.0450    2.6331    0.1288 H   0  0  0  0  0  0  0  0  0  0  0  0
   -2.0295    1.7214    1.1735 H   0  0  0  0  0  0  0  0  0  0  0  0
  1  2  1  0
  1  5  1  0
  1  6  1  0
  2  3  1  0
  2  7  1  0
  2  8  1  0
  3  9  1  0
  3 10  1  0
  4 11  1  0
 11 12  1  0
 11 13  1  0
 11 14  1  0
M  RAD  1   1   2
M  END
>  <reaction>  (13) 
rxn_114

>  <mol_properties>  (13) 
{"0": {"label": "*1", "atom_type": "Cs"}, "1": {"label": "*0", "atom_type": "Cs"}, "3": {"label": "*2", "atom_type": "H0"}, "10": {"label": "*3", "atom_type": "Cs"}, "11": {"label": "*4", "atom_type": "H0"}}

>  <type>  (13) 
unop_9

>  <geom_source>  (13) 
Heuristics

$$$$

     RDKit          3D

 14 12  0  0  0  0  0  0  0  0999 V2000
    0.5405    0.3161    0.8869 C   0  0  0  0  0  3  0  0  0  0  0  0
    0.5405   -1.0595    0.2279 C   0  0  0  0  0  0  0  0  0  0  0  0
    0.5405   -1.0595   -1.2290 N   0  0  0  0  0  0  0  0  0  0  0  0
   -0.5195    1.0023    0.5329 H   0  0  0  0  0  0  0  0  0  0  0  0
    1.4239    0.8879    0.5919 H   0  0  0  0  0  0  0  0  0  0  0  0
    0.5405    0.2346    1.9764 H   0  0  0  0  0  0  0  0  0  0  0  0
   -0.3327   -1.6258    0.5611 H   0  0  0  0  0  0  0  0  0  0  0  0
    1.4138   -1.6258    0.5611 H   0  0  0  0  0  0  0  0  0  0  0  0
    1.3531   -0.5710   -1.5829 H   0  0  0  0  0  0  0  0  0  0  0  0
   -0.2721   -0.5710   -1.5829 H   0  0  0  0  0  0  0  0  0  0  0  0
   -1.5757    1.6860    0.1801 C   0  0  0  0  0  0  0  0  0  0  0  0
   -2.4734    1.1505    0.4855 H   0  0  0  0  0  0  0  0  0  0  0  0
   -1.7956    2.2922   -0.6973 H   0  0  0  0  0  0  0  0  0  0  0  0
   -0.9588    2.3245    0.8105 H   0  0  0  0  0  0  0  0  0  0  0  0
  1  2  1  0
  1  5  1  0
  1  6  1  0
  2  3  1  0
  2  7  1  0
  2  8  1  0
  3  9  1  0
  3 10  1  0
  4 11  1  0
 11 12  1  0
 11 13  1  0
 11 14  1  0
M  RAD  1   1   2
M  END
>  <reaction>  (14) 
rxn_114

>  <mol_properties>  (14) 
{"0": {"label": "*1", "atom_type": "Cs"}, "1": {"label": "*0", "atom_type": "Cs"}, "3": {"label": "*2", "atom_type": "H0"}, "10": {"label": "*3", "atom_type": "Cs"}, "11": {"label": "*4", "atom_type": "H0"}}

>  <type>  (14) 
unop_10

>  <geom_source>  (14) 
Heuristics

$$$$

     RDKit          3D

 14 12  0  0  0  0  0  0  0  0999 V2000
    0.5469    0.3123    0.8851 C   0  0  0  0  0  3  0  0  0  0  0  0
    0.5469   -1.0633    0.2261 C   0  0  0  0  0  0  0  0  0  0  0  0
    0.5469   -1.0633   -1.2308 N   0  0  0  0  0  0  0  0  0  0  0  0
   -0.5131    0.9984    0.5310 H   0  0  0  0  0  0  0  0  0  0  0  0
    1.4303    0.8841    0.5900 H   0  0  0  0  0  0  0  0  0  0  0  0
    0.5469    0.2308    1.9746 H   0  0  0  0  0  0  0  0  0  0  0  0
   -0.3264   -1.6296    0.5593 H   0  0  0  0  0  0  0  0  0  0  0  0
    1.4202   -1.6296    0.5593 H   0  0  0  0  0  0  0  0  0  0  0  0
    1.3595   -0.5748   -1.5848 H   0  0  0  0  0  0  0  0  0  0  0  0
   -0.2657   -0.5748   -1.5848 H   0  0  0  0  0  0  0  0  0  0  0  0
   -1.5693    1.6822    0.1782 C   0  0  0  0  0  0  0  0  0  0  0  0
   -1.3318    2.7449    0.1821 H   0  0  0  0  0  0  0  0  0  0  0  0
   -1.9720    1.3967    1.1489 H   0  0  0  0  0  0  0  0  0  0  0  0
   -2.2860    1.8415   -0.6260 H   0  0  0  0  0  0  0  0  0  0  0  0
  1  2  1  0
  1  5  1  0
  1  6  1  0
  2  3  1  0
  2  7  1  0
  2  8  1  0
  3  9  1  0
  3 10  1  0
  4 11  1  0
 11 12  1  0
 11 13  1  0
 11 14  1  0
M  RAD  1   1   2
M  END
>  <reaction>  (15) 
rxn_114

>  <mol_properties>  (15) 
{"0": {"label": "*1", "atom_type": "Cs"}, "1": {"label": "*0", "atom_type": "Cs"}, "3": {"label": "*2", "atom_type": "H0"}, "10": {"label": "*3", "atom_type": "Cs"}, "11": {"label": "*4", "atom_type": "H0"}}

>  <type>  (15) 
unop_11

>  <geom_source>  (15) 
Heuristics

$$$$

     RDKit          3D

 14 12  0  0  0  0  0  0  0  0999 V2000
    0.5363    0.3178    0.8901 C   0  0  0  0  0  3  0  0  0  0  0  0
    0.5363   -1.0577    0.2311 C   0  0  0  0  0  0  0  0  0  0  0  0
    0.5363   -1.0577   -1.2258 N   0  0  0  0  0  0  0  0  0  0  0  0
   -0.5238    1.0040    0.5360 H   0  0  0  0  0  0  0  0  0  0  0  0
    1.4196    0.8897    0.5950 H   0  0  0  0  0  0  0  0  0  0  0  0
    0.5363    0.2364    1.9796 H   0  0  0  0  0  0  0  0  0  0  0  0
   -0.3370   -1.6241    0.5643 H   0  0  0  0  0  0  0  0  0  0  0  0
    1.4096   -1.6241    0.5643 H   0  0  0  0  0  0  0  0  0  0  0  0
    1.3489   -0.5693   -1.5798 H   0  0  0  0  0  0  0  0  0  0  0  0
   -0.2763   -0.5693   -1.5798 H   0  0  0  0  0  0  0  0  0  0  0  0
   -1.5800    1.6877    0.1833 C   0  0  0  0  0  0  0  0  0  0  0  0
   -2.1888    1.0913   -0.4946 H   0  0  0  0  0  0  0  0  0  0  0  0
   -1.2691    2.6030   -0.3182 H   0  0  0  0  0  0  0  0  0  0  0  0
   -1.5276    1.9733    1.2328 H   0  0  0  0  0  0  0  0  0  0  0  0
  1  2  1  0
  1  5  1  0
  1  6  1  0
  2  3  1  0
  2  7  1  0
  2  8  1  0
  3  9  1  0
  3 10  1  0
  4 11  1  0
 11 12  1  0
 11 13  1  0
 11 14  1  0
M  RAD  1   1   2
M  END
>  <reaction>  (16) 
rxn_114

>  <mol_properties>  (16) 
{"0": {"label": "*1", "atom_type": "Cs"}, "1": {"label": "*0", "atom_type": "Cs"}, "3": {"label": "*2", "atom_type": "H0"}, "10": {"label": "*3", "atom_type": "Cs"}, "11": {"label": "*4", "atom_type": "H0"}}

>  <type>  (16) 
unop_12

>  <geom_source>  (16) 
Heuristics

$$$$

     RDKit          3D

 14 12  0  0  0  0  0  0  0  0999 V2000
   -2.4646    0.2493   -0.0910 N   0  0  0  0  0  0  0  0  0  0  0  0
   -1.1288    0.1833    0.4926 C   0  0  0  0  0  0  0  0  0  0  0  0
    2.3902   -0.2387    0.0727 C   0  0  0  0  0  0  0  0  0  0  0  0
   -0.0716    0.2271   -0.6010 C   0  0  0  0  0  3  0  0  0  0  0  0
   -1.0132   -0.7526    1.0825 H   0  0  0  0  0  0  0  0  0  0  0  0
   -0.9768    1.0505    1.1706 H   0  0  0  0  0  0  0  0  0  0  0  0
    2.2216   -0.8161    1.0049 H   0  0  0  0  0  0  0  0  0  0  0  0
    3.1316    0.5641    0.2640 H   0  0  0  0  0  0  0  0  0  0  0  0
    2.7741   -0.9161   -0.7175 H   0  0  0  0  0  0  0  0  0  0  0  0
    1.2677    0.2915   -0.3181 H   0  0  0  0  0  0  0  0  0  0  0  0
   -0.1615    1.1642   -1.1906 H   0  0  0  0  0  0  0  0  0  0  0  0
   -0.1689   -0.6516   -1.2735 H   0  0  0  0  0  0  0  0  0  0  0  0
   -2.6475   -0.6512   -0.5912 H   0  0  0  0  0  0  0  0  0  0  0  0
   -3.1523    0.2963    0.6954 H   0  0  0  0  0  0  0  0  0  0  0  0
  1  2  1  0
  1 13  1  0
  1 14  1  0
  2  4  1  0
  2  5  1  0
  2  6  1  0
  3  7  1  0
  3  8  1  0
  3  9  1  0
  3 10  1  0
  4 11  1  0
  4 12  1  0
M  RAD  1   4   2
M  END
>  <reaction>  (17) 
rxn_114

>  <mol_properties>  (17) 
{"0": {"label": "*1", "atom_type": "Cs"}, "1": {"label": "*0", "atom_type": "Cs"}, "3": {"label": "*2", "atom_type": "H0"}, "10": {"label": "*3", "atom_type": "Cs"}, "11": {"label": "*4", "atom_type": "H0"}}

>  <type>  (17) 
unop_13

>  <geom_source>  (17) 
AutoTST

$$$$
