
     RDKit          3D

  4  3  0  0  0  0  0  0  0  0999 V2000
    0.0000    0.0000    0.0000 C   0  0  0  0  0  3  0  0  0  0  0  0
    1.0638   -0.1747    0.0540 H   0  0  0  0  0  0  0  0  0  0  0  0
   -0.6833   -0.8351   -0.0280 H   0  0  0  0  0  0  0  0  0  0  0  0
   -0.3805    1.0098   -0.0260 H   0  0  0  0  0  0  0  0  0  0  0  0
  1  2  1  0
  1  3  1  0
  1  4  1  0
M  RAD  1   1   2
M  END
>  <reaction>  (1) 
rxn_629

>  <mol_properties>  (1) 
{"0": {"label": "donator", "atom_type": "Cs"}, "1": {"label": "d_hydrogen", "atom_type": "H0"}}

>  <type>  (1) 
r1h

$$$$

     RDKit          3D

  3  2  0  0  0  0  0  0  0  0999 V2000
    0.0002    0.4233    0.0000 N   0  0  0  0  0  2  0  0  0  0  0  0
   -0.8051   -0.2112    0.0000 H   0  0  0  0  0  0  0  0  0  0  0  0
    0.8049   -0.2121    0.0000 H   0  0  0  0  0  0  0  0  0  0  0  0
  1  2  1  0
  1  3  1  0
M  RAD  1   1   2
M  END
>  <reaction>  (2) 
rxn_629

>  <mol_properties>  (2) 
{"0": {"label": "acceptor", "atom_type": "N3s"}}

>  <type>  (2) 
r2

$$$$

     RDKit          3D

  4  3  0  0  0  0  0  0  0  0999 V2000
    0.0006   -0.0009    0.2762 N   0  0  0  0  0  0  0  0  0  0  0  0
   -0.4188    0.8439   -0.0883 H   0  0  0  0  0  0  0  0  0  0  0  0
   -0.5215   -0.7840   -0.0936 H   0  0  0  0  0  0  0  0  0  0  0  0
    0.9397   -0.0590   -0.0943 H   0  0  0  0  0  0  0  0  0  0  0  0
  1  2  1  0
  1  3  1  0
  1  4  1  0
M  END
>  <reaction>  (3) 
rxn_629

>  <mol_properties>  (3) 
{"0": {"label": "acceptor", "atom_type": "N3s"}, "3": {"label": "a_hydrogen", "atom_type": "H0"}}

>  <type>  (3) 
r2h

$$$$

     RDKit          3D

  7  5  0  0  0  0  0  0  0  0999 V2000
   -0.1139    0.9854    0.7144 N   0  0  0  0  0  0  0  0  0  0  0  0
   -0.0979    0.5360    1.6312 H   0  0  0  0  0  0  0  0  0  0  0  0
    0.8539    1.2679    0.5519 H   0  0  0  0  0  0  0  0  0  0  0  0
   -0.0217   -1.1485   -0.6514 C   0  0  0  0  0  2  0  0  0  0  0  0
   -0.1984   -0.0047   -0.0316 H   0  0  0  0  0  0  0  0  0  0  0  0
   -0.6134   -1.9895   -0.3149 H   0  0  0  0  0  0  0  0  0  0  0  0
    0.5127   -1.1235   -1.5919 H   0  0  0  0  0  0  0  0  0  0  0  0
  1  2  1  0
  1  3  1  0
  1  5  1  0
  4  6  1  0
  4  7  1  0
M  RAD  1   4   3
M  END
>  <reaction>  (4) 
rxn_629

>  <mol_properties>  (4) 
{"0": {"label": "*1", "atom_type": "N3s"}, "1": {"label": "*0", "atom_type": "H0"}, "3": {"label": "*3", "atom_type": "Cs"}, "4": {"label": "*2", "atom_type": "H0"}, "5": {"label": "*4", "atom_type": "H0"}}

>  <type>  (4) 
ts

$$$$

     RDKit          3D

  7  5  0  0  0  0  0  0  0  0999 V2000
    0.0080    1.0645    0.5671 N   0  0  0  0  0  0  0  0  0  0  0  0
   -0.8271    1.0870    1.1369 H   0  0  0  0  0  0  0  0  0  0  0  0
    0.5961    0.4553    1.1200 H   0  0  0  0  0  0  0  0  0  0  0  0
    0.0080   -1.1082   -0.6873 C   0  0  0  0  0  2  0  0  0  0  0  0
    0.0080    0.0136   -0.0396 H   0  0  0  0  0  0  0  0  0  0  0  0
    0.0080   -2.0430   -0.1475 H   0  0  0  0  0  0  0  0  0  0  0  0
    0.0080   -1.1082   -1.7667 H   0  0  0  0  0  0  0  0  0  0  0  0
  1  2  1  0
  1  3  1  0
  1  5  1  0
  4  6  1  0
  4  7  1  0
M  RAD  1   4   3
M  END
>  <reaction>  (5) 
rxn_629

>  <mol_properties>  (5) 
{"0": {"label": "*1", "atom_type": "N3s"}, "1": {"label": "*0", "atom_type": "H0"}, "3": {"label": "*3", "atom_type": "Cs"}, "4": {"label": "*2", "atom_type": "H0"}, "5": {"label": "*4", "atom_type": "H0"}}

>  <type>  (5) 
unop_1

>  <geom_source>  (5) 
Heuristics

$$$$

     RDKit          3D

  7  5  0  0  0  0  0  0  0  0999 V2000
    0.0334    1.0440    0.6038 N   0  0  0  0  0  0  0  0  0  0  0  0
   -0.4487    1.7252    0.0328 H   0  0  0  0  0  0  0  0  0  0  0  0
   -0.5138    0.4070    1.1671 H   0  0  0  0  0  0  0  0  0  0  0  0
    0.0334   -1.1287   -0.6506 C   0  0  0  0  0  2  0  0  0  0  0  0
    0.0334   -0.0069   -0.0029 H   0  0  0  0  0  0  0  0  0  0  0  0
    0.0334   -2.0635   -0.1108 H   0  0  0  0  0  0  0  0  0  0  0  0
    0.0334   -1.1287   -1.7300 H   0  0  0  0  0  0  0  0  0  0  0  0
  1  2  1  0
  1  3  1  0
  1  5  1  0
  4  6  1  0
  4  7  1  0
M  RAD  1   4   3
M  END
>  <reaction>  (6) 
rxn_629

>  <mol_properties>  (6) 
{"0": {"label": "*1", "atom_type": "N3s"}, "1": {"label": "*0", "atom_type": "H0"}, "3": {"label": "*3", "atom_type": "Cs"}, "4": {"label": "*2", "atom_type": "H0"}, "5": {"label": "*4", "atom_type": "H0"}}

>  <type>  (6) 
unop_2

>  <geom_source>  (6) 
Heuristics

$$$$

     RDKit          3D

  7  5  0  0  0  0  0  0  0  0999 V2000
   -0.0135    1.0577    0.5619 N   0  0  0  0  0  0  0  0  0  0  0  0
   -0.4957    0.9037    1.4373 H   0  0  0  0  0  0  0  0  0  0  0  0
    0.8843    0.8346    0.9703 H   0  0  0  0  0  0  0  0  0  0  0  0
   -0.0135   -1.1150   -0.6925 C   0  0  0  0  0  2  0  0  0  0  0  0
   -0.0135    0.0068   -0.0448 H   0  0  0  0  0  0  0  0  0  0  0  0
   -0.0135   -2.0498   -0.1528 H   0  0  0  0  0  0  0  0  0  0  0  0
   -0.0135   -1.1150   -1.7719 H   0  0  0  0  0  0  0  0  0  0  0  0
  1  2  1  0
  1  3  1  0
  1  5  1  0
  4  6  1  0
  4  7  1  0
M  RAD  1   4   3
M  END
>  <reaction>  (7) 
rxn_629

>  <mol_properties>  (7) 
{"0": {"label": "*1", "atom_type": "N3s"}, "1": {"label": "*0", "atom_type": "H0"}, "3": {"label": "*3", "atom_type": "Cs"}, "4": {"label": "*2", "atom_type": "H0"}, "5": {"label": "*4", "atom_type": "H0"}}

>  <type>  (7) 
unop_3

>  <geom_source>  (7) 
Heuristics

$$$$

     RDKit          3D

  7  5  0  0  0  0  0  0  0  0999 V2000
   -0.0001    1.0108    0.6085 N   0  0  0  0  0  0  0  0  0  0  0  0
    0.8350    1.5155    0.3431 H   0  0  0  0  0  0  0  0  0  0  0  0
   -0.8320    1.5741    0.7228 H   0  0  0  0  0  0  0  0  0  0  0  0
   -0.0001   -1.1619   -0.6459 C   0  0  0  0  0  2  0  0  0  0  0  0
   -0.0001   -0.0401    0.0018 H   0  0  0  0  0  0  0  0  0  0  0  0
   -0.0001   -2.0967   -0.1062 H   0  0  0  0  0  0  0  0  0  0  0  0
   -0.0001   -1.1619   -1.7253 H   0  0  0  0  0  0  0  0  0  0  0  0
  1  2  1  0
  1  3  1  0
  1  5  1  0
  4  6  1  0
  4  7  1  0
M  RAD  1   4   3
M  END
>  <reaction>  (8) 
rxn_629

>  <mol_properties>  (8) 
{"0": {"label": "*1", "atom_type": "N3s"}, "1": {"label": "*0", "atom_type": "H0"}, "3": {"label": "*3", "atom_type": "Cs"}, "4": {"label": "*2", "atom_type": "H0"}, "5": {"label": "*4", "atom_type": "H0"}}

>  <type>  (8) 
unop_4

>  <geom_source>  (8) 
Heuristics

$$$$

     RDKit          3D

  7  5  0  0  0  0  0  0  0  0999 V2000
   -0.0283    1.0364    0.5670 N   0  0  0  0  0  0  0  0  0  0  0  0
   -0.0283    0.8179    1.5543 H   0  0  0  0  0  0  0  0  0  0  0  0
    0.8420    1.5321    0.7066 H   0  0  0  0  0  0  0  0  0  0  0  0
   -0.0283   -1.1362   -0.6874 C   0  0  0  0  0  2  0  0  0  0  0  0
   -0.0283   -0.0145   -0.0397 H   0  0  0  0  0  0  0  0  0  0  0  0
   -0.0283   -2.0710   -0.1477 H   0  0  0  0  0  0  0  0  0  0  0  0
   -0.0283   -1.1362   -1.7668 H   0  0  0  0  0  0  0  0  0  0  0  0
  1  2  1  0
  1  3  1  0
  1  5  1  0
  4  6  1  0
  4  7  1  0
M  RAD  1   4   3
M  END
>  <reaction>  (9) 
rxn_629

>  <mol_properties>  (9) 
{"0": {"label": "*1", "atom_type": "N3s"}, "1": {"label": "*0", "atom_type": "H0"}, "3": {"label": "*3", "atom_type": "Cs"}, "4": {"label": "*2", "atom_type": "H0"}, "5": {"label": "*4", "atom_type": "H0"}}

>  <type>  (9) 
unop_5

>  <geom_source>  (9) 
Heuristics

$$$$

     RDKit          3D

  7  5  0  0  0  0  0  0  0  0999 V2000
   -0.0125    1.0099    0.5982 N   0  0  0  0  0  0  0  0  0  0  0  0
    0.9518    1.2736    0.7504 H   0  0  0  0  0  0  0  0  0  0  0  0
   -0.5910    1.8392    0.6130 H   0  0  0  0  0  0  0  0  0  0  0  0
   -0.0125   -1.1627   -0.6562 C   0  0  0  0  0  2  0  0  0  0  0  0
   -0.0125   -0.0409   -0.0086 H   0  0  0  0  0  0  0  0  0  0  0  0
   -0.0125   -2.0975   -0.1165 H   0  0  0  0  0  0  0  0  0  0  0  0
   -0.0125   -1.1627   -1.7357 H   0  0  0  0  0  0  0  0  0  0  0  0
  1  2  1  0
  1  3  1  0
  1  5  1  0
  4  6  1  0
  4  7  1  0
M  RAD  1   4   3
M  END
>  <reaction>  (10) 
rxn_629

>  <mol_properties>  (10) 
{"0": {"label": "*1", "atom_type": "N3s"}, "1": {"label": "*0", "atom_type": "H0"}, "3": {"label": "*3", "atom_type": "Cs"}, "4": {"label": "*2", "atom_type": "H0"}, "5": {"label": "*4", "atom_type": "H0"}}

>  <type>  (10) 
unop_6

>  <geom_source>  (10) 
Heuristics

$$$$

     RDKit          3D

  7  5  0  0  0  0  0  0  0  0999 V2000
   -0.0198    1.0127    0.5865 N   0  0  0  0  0  0  0  0  0  0  0  0
    0.8153    1.0353    1.1563 H   0  0  0  0  0  0  0  0  0  0  0  0
   -0.2441    1.9978    0.5430 H   0  0  0  0  0  0  0  0  0  0  0  0
   -0.0198   -1.1599   -0.6679 C   0  0  0  0  0  2  0  0  0  0  0  0
   -0.0198   -0.0382   -0.0202 H   0  0  0  0  0  0  0  0  0  0  0  0
   -0.0198   -2.0948   -0.1282 H   0  0  0  0  0  0  0  0  0  0  0  0
   -0.0198   -1.1599   -1.7473 H   0  0  0  0  0  0  0  0  0  0  0  0
  1  2  1  0
  1  3  1  0
  1  5  1  0
  4  6  1  0
  4  7  1  0
M  RAD  1   4   3
M  END
>  <reaction>  (11) 
rxn_629

>  <mol_properties>  (11) 
{"0": {"label": "*1", "atom_type": "N3s"}, "1": {"label": "*0", "atom_type": "H0"}, "3": {"label": "*3", "atom_type": "Cs"}, "4": {"label": "*2", "atom_type": "H0"}, "5": {"label": "*4", "atom_type": "H0"}}

>  <type>  (11) 
unop_7

>  <geom_source>  (11) 
Heuristics

$$$$

     RDKit          3D

  7  5  0  0  0  0  0  0  0  0999 V2000
    0.0236    1.0618    0.5787 N   0  0  0  0  0  0  0  0  0  0  0  0
   -0.9407    1.3255    0.7310 H   0  0  0  0  0  0  0  0  0  0  0  0
    0.2595    0.2927    1.1914 H   0  0  0  0  0  0  0  0  0  0  0  0
    0.0236   -1.1108   -0.6756 C   0  0  0  0  0  2  0  0  0  0  0  0
    0.0236    0.0110   -0.0280 H   0  0  0  0  0  0  0  0  0  0  0  0
    0.0236   -2.0456   -0.1359 H   0  0  0  0  0  0  0  0  0  0  0  0
    0.0236   -1.1108   -1.7551 H   0  0  0  0  0  0  0  0  0  0  0  0
  1  2  1  0
  1  3  1  0
  1  5  1  0
  4  6  1  0
  4  7  1  0
M  RAD  1   4   3
M  END
>  <reaction>  (12) 
rxn_629

>  <mol_properties>  (12) 
{"0": {"label": "*1", "atom_type": "N3s"}, "1": {"label": "*0", "atom_type": "H0"}, "3": {"label": "*3", "atom_type": "Cs"}, "4": {"label": "*2", "atom_type": "H0"}, "5": {"label": "*4", "atom_type": "H0"}}

>  <type>  (12) 
unop_8

>  <geom_source>  (12) 
Heuristics

$$$$

     RDKit          3D

  7  5  0  0  0  0  0  0  0  0999 V2000
    0.0156    1.0176    0.6137 N   0  0  0  0  0  0  0  0  0  0  0  0
    0.4977    1.6988    0.0427 H   0  0  0  0  0  0  0  0  0  0  0  0
   -0.9459    1.1936    0.8729 H   0  0  0  0  0  0  0  0  0  0  0  0
    0.0156   -1.1551   -0.6407 C   0  0  0  0  0  2  0  0  0  0  0  0
    0.0156   -0.0333    0.0070 H   0  0  0  0  0  0  0  0  0  0  0  0
    0.0156   -2.0899   -0.1010 H   0  0  0  0  0  0  0  0  0  0  0  0
    0.0156   -1.1551   -1.7201 H   0  0  0  0  0  0  0  0  0  0  0  0
  1  2  1  0
  1  3  1  0
  1  5  1  0
  4  6  1  0
  4  7  1  0
M  RAD  1   4   3
M  END
>  <reaction>  (13) 
rxn_629

>  <mol_properties>  (13) 
{"0": {"label": "*1", "atom_type": "N3s"}, "1": {"label": "*0", "atom_type": "H0"}, "3": {"label": "*3", "atom_type": "Cs"}, "4": {"label": "*2", "atom_type": "H0"}, "5": {"label": "*4", "atom_type": "H0"}}

>  <type>  (13) 
unop_9

>  <geom_source>  (13) 
Heuristics

$$$$

     RDKit          3D

  7  5  0  0  0  0  0  0  0  0999 V2000
    0.0318    1.0546    0.5921 N   0  0  0  0  0  0  0  0  0  0  0  0
   -0.8033    1.5593    0.3267 H   0  0  0  0  0  0  0  0  0  0  0  0
   -0.1124    0.2682    1.2113 H   0  0  0  0  0  0  0  0  0  0  0  0
    0.0318   -1.1181   -0.6623 C   0  0  0  0  0  2  0  0  0  0  0  0
    0.0318    0.0037   -0.0146 H   0  0  0  0  0  0  0  0  0  0  0  0
    0.0318   -2.0529   -0.1226 H   0  0  0  0  0  0  0  0  0  0  0  0
    0.0318   -1.1181   -1.7417 H   0  0  0  0  0  0  0  0  0  0  0  0
  1  2  1  0
  1  3  1  0
  1  5  1  0
  4  6  1  0
  4  7  1  0
M  RAD  1   4   3
M  END
>  <reaction>  (14) 
rxn_629

>  <mol_properties>  (14) 
{"0": {"label": "*1", "atom_type": "N3s"}, "1": {"label": "*0", "atom_type": "H0"}, "3": {"label": "*3", "atom_type": "Cs"}, "4": {"label": "*2", "atom_type": "H0"}, "5": {"label": "*4", "atom_type": "H0"}}

>  <type>  (14) 
unop_10

>  <geom_source>  (14) 
Heuristics

$$$$

     RDKit          3D

  7  5  0  0  0  0  0  0  0  0999 V2000
   -0.0251    1.0190    0.5764 N   0  0  0  0  0  0  0  0  0  0  0  0
    0.4571    0.8651    1.4518 H   0  0  0  0  0  0  0  0  0  0  0  0
    0.2660    1.9867    0.5394 H   0  0  0  0  0  0  0  0  0  0  0  0
   -0.0251   -1.1537   -0.6780 C   0  0  0  0  0  2  0  0  0  0  0  0
   -0.0251   -0.0319   -0.0304 H   0  0  0  0  0  0  0  0  0  0  0  0
   -0.0251   -2.0885   -0.1383 H   0  0  0  0  0  0  0  0  0  0  0  0
   -0.0251   -1.1537   -1.7575 H   0  0  0  0  0  0  0  0  0  0  0  0
  1  2  1  0
  1  3  1  0
  1  5  1  0
  4  6  1  0
  4  7  1  0
M  RAD  1   4   3
M  END
>  <reaction>  (15) 
rxn_629

>  <mol_properties>  (15) 
{"0": {"label": "*1", "atom_type": "N3s"}, "1": {"label": "*0", "atom_type": "H0"}, "3": {"label": "*3", "atom_type": "Cs"}, "4": {"label": "*2", "atom_type": "H0"}, "5": {"label": "*4", "atom_type": "H0"}}

>  <type>  (15) 
unop_11

>  <geom_source>  (15) 
Heuristics

$$$$

     RDKit          3D

  7  5  0  0  0  0  0  0  0  0999 V2000
    0.0283    1.0304    0.6118 N   0  0  0  0  0  0  0  0  0  0  0  0
    0.0283    1.7762   -0.0711 H   0  0  0  0  0  0  0  0  0  0  0  0
   -0.8420    0.7481    1.0424 H   0  0  0  0  0  0  0  0  0  0  0  0
    0.0283   -1.1423   -0.6426 C   0  0  0  0  0  2  0  0  0  0  0  0
    0.0283   -0.0205    0.0050 H   0  0  0  0  0  0  0  0  0  0  0  0
    0.0283   -2.0771   -0.1029 H   0  0  0  0  0  0  0  0  0  0  0  0
    0.0283   -1.1423   -1.7220 H   0  0  0  0  0  0  0  0  0  0  0  0
  1  2  1  0
  1  3  1  0
  1  5  1  0
  4  6  1  0
  4  7  1  0
M  RAD  1   4   3
M  END
>  <reaction>  (16) 
rxn_629

>  <mol_properties>  (16) 
{"0": {"label": "*1", "atom_type": "N3s"}, "1": {"label": "*0", "atom_type": "H0"}, "3": {"label": "*3", "atom_type": "Cs"}, "4": {"label": "*2", "atom_type": "H0"}, "5": {"label": "*4", "atom_type": "H0"}}

>  <type>  (16) 
unop_12

>  <geom_source>  (16) 
Heuristics

$$$$
