
     RDKit          3D

 10  9  0  0  0  0  0  0  0  0999 V2000
    2.2738    0.0217   -0.0992 C   0  0  0  0  0  0  0  0  0  0  0  0
    1.1083    0.2960   -0.0695 C   0  0  0  0  0  0  0  0  0  0  0  0
   -0.3173    0.6046   -0.0227 C   0  0  0  0  0  0  0  0  0  0  0  0
   -1.1561   -0.5495    0.5292 C   0  0  0  0  0  0  0  0  0  0  0  0
    3.3097   -0.2166   -0.1277 H   0  0  0  0  0  0  0  0  0  0  0  0
   -0.6542    0.8617   -1.0302 H   0  0  0  0  0  0  0  0  0  0  0  0
   -0.4633    1.4978    0.5900 H   0  0  0  0  0  0  0  0  0  0  0  0
   -0.8485   -0.7997    1.5447 H   0  0  0  0  0  0  0  0  0  0  0  0
   -2.2115   -0.2752    0.5459 H   0  0  0  0  0  0  0  0  0  0  0  0
   -1.0409   -1.4407   -0.0879 H   0  0  0  0  0  0  0  0  0  0  0  0
  1  2  3  0
  1  5  1  0
  2  3  1  0
  3  4  1  0
  3  6  1  0
  3  7  1  0
  4  8  1  0
  4  9  1  0
  4 10  1  0
M  END
>  <reaction>  (1) 
rxn_1275

>  <mol_properties>  (1) 
{"2": {"label": "donator", "atom_type": "Cs"}, "5": {"label": "d_hydrogen", "atom_type": "H0"}}

>  <type>  (1) 
r1h

$$$$

     RDKit          3D

  8  7  0  0  0  0  0  0  0  0999 V2000
    1.4038   -0.4003    0.0140 C   0  0  0  0  0  0  0  0  0  0  0  0
    0.2804    0.0563    0.4920 C   0  0  0  0  0  3  0  0  0  0  0  0
   -1.0935    0.3323    0.0625 C   0  0  0  0  0  0  0  0  0  0  0  0
    1.4898   -0.7154   -1.0285 H   0  0  0  0  0  0  0  0  0  0  0  0
    2.2990   -0.4891    0.6210 H   0  0  0  0  0  0  0  0  0  0  0  0
   -1.3399    1.3883    0.1900 H   0  0  0  0  0  0  0  0  0  0  0  0
   -1.2285    0.0762   -0.9967 H   0  0  0  0  0  0  0  0  0  0  0  0
   -1.8111   -0.2482    0.6457 H   0  0  0  0  0  0  0  0  0  0  0  0
  1  2  2  3
  1  4  1  0
  1  5  1  0
  2  3  1  0
  3  6  1  0
  3  7  1  0
  3  8  1  0
M  RAD  1   2   2
M  END
>  <reaction>  (2) 
rxn_1275

>  <mol_properties>  (2) 
{"1": {"label": "acceptor", "atom_type": "Cd"}}

>  <type>  (2) 
r2

$$$$

     RDKit          3D

  9  8  0  0  0  0  0  0  0  0999 V2000
    1.1303   -0.2933   -0.7510 C   0  0  0  0  0  0  0  0  0  0  0  0
    0.2866    0.4560   -0.0588 C   0  0  0  0  0  0  0  0  0  0  0  0
   -0.9719   -0.0331    0.5823 C   0  0  0  0  0  0  0  0  0  0  0  0
    2.0274    0.1230   -1.1916 H   0  0  0  0  0  0  0  0  0  0  0  0
    0.9532   -1.3530   -0.9023 H   0  0  0  0  0  0  0  0  0  0  0  0
    0.5065    1.5132    0.0659 H   0  0  0  0  0  0  0  0  0  0  0  0
   -0.9526    0.1426    1.6610 H   0  0  0  0  0  0  0  0  0  0  0  0
   -1.1182   -1.1002    0.4106 H   0  0  0  0  0  0  0  0  0  0  0  0
   -1.8412    0.5010    0.1901 H   0  0  0  0  0  0  0  0  0  0  0  0
  1  2  2  3
  1  4  1  0
  1  5  1  0
  2  3  1  0
  2  6  1  0
  3  7  1  0
  3  8  1  0
  3  9  1  0
M  END
>  <reaction>  (3) 
rxn_1275

>  <mol_properties>  (3) 
{"0": {"label": "a_hydrogen", "atom_type": "H0"}, "2": {"label": "acceptor", "atom_type": "Cd"}}

>  <type>  (3) 
r2h

$$$$

     RDKit          3D

 18 16  0  0  0  0  0  0  0  0999 V2000
   -1.9447   -0.6652   -1.8443 C   0  0  0  0  0  0  0  0  0  0  0  0
   -1.5513    0.0325   -0.9489 C   0  0  0  0  0  0  0  0  0  0  0  0
   -1.0277    0.8331    0.1215 C   0  0  0  0  0  0  0  0  0  0  0  0
   -0.2897    2.0919   -0.2954 C   0  0  0  0  0  0  0  0  0  0  0  0
   -2.3084   -1.2725   -2.6376 H   0  0  0  0  0  0  0  0  0  0  0  0
   -0.1790    0.1120    0.7101 H   0  0  0  0  0  0  0  0  0  0  0  0
   -1.7748    1.0119    0.8955 H   0  0  0  0  0  0  0  0  0  0  0  0
   -0.9618    2.7992   -0.7859 H   0  0  0  0  0  0  0  0  0  0  0  0
    0.1464    2.5802    0.5768 H   0  0  0  0  0  0  0  0  0  0  0  0
    0.5150    1.8533   -0.9915 H   0  0  0  0  0  0  0  0  0  0  0  0
    1.3257   -0.2057    2.4586 C   0  0  0  0  0  0  0  0  0  0  0  0
    0.8585   -0.6767    1.3267 C   0  0  0  0  0  3  0  0  0  0  0  0
    1.1757   -1.8682    0.5132 C   0  0  0  0  0  0  0  0  0  0  0  0
    2.1169   -0.7186    3.0042 H   0  0  0  0  0  0  0  0  0  0  0  0
    0.9448    0.7094    2.8991 H   0  0  0  0  0  0  0  0  0  0  0  0
    1.4989   -1.5776   -0.4888 H   0  0  0  0  0  0  0  0  0  0  0  0
    1.9698   -2.4621    0.9774 H   0  0  0  0  0  0  0  0  0  0  0  0
    0.2927   -2.4992    0.3924 H   0  0  0  0  0  0  0  0  0  0  0  0
  1  2  3  0
  1  5  1  0
  2  3  1  0
  3  4  1  0
  3  6  1  0
  3  7  1  0
  4  8  1  0
  4  9  1  0
  4 10  1  0
 11 12  2  3
 11 14  1  0
 11 15  1  0
 12 13  1  0
 13 16  1  0
 13 17  1  0
 13 18  1  0
M  RAD  1  12   2
M  END
>  <reaction>  (4) 
rxn_1275

>  <mol_properties>  (4) 
{"1": {"label": "*0", "atom_type": "Ct"}, "2": {"label": "*1", "atom_type": "Cs"}, "5": {"label": "*2", "atom_type": "H0"}, "10": {"label": "*4", "atom_type": "Cd"}, "11": {"label": "*3", "atom_type": "Cd"}}

>  <type>  (4) 
ts

$$$$

     RDKit          3D

 18 16  0  0  0  0  0  0  0  0999 V2000
   -0.9583    0.4471   -2.7360 C   0  0  0  0  0  0  0  0  0  0  0  0
   -0.9583    0.4471   -1.5383 C   0  0  0  0  0  0  0  0  0  0  0  0
   -0.9583    0.4753   -0.0791 C   0  0  0  0  0  3  0  0  0  0  0  0
   -0.9583    1.8967    0.4865 C   0  0  0  0  0  0  0  0  0  0  0  0
   -0.9583    0.4471   -3.7993 H   0  0  0  0  0  0  0  0  0  0  0  0
    0.0923   -0.1788    0.3549 H   0  0  0  0  0  0  0  0  0  0  0  0
   -1.8339   -0.0698    0.2826 H   0  0  0  0  0  0  0  0  0  0  0  0
   -1.8406    2.4445    0.1550 H   0  0  0  0  0  0  0  0  0  0  0  0
   -0.9583    1.8694    1.5768 H   0  0  0  0  0  0  0  0  0  0  0  0
   -0.0761    2.4445    0.1550 H   0  0  0  0  0  0  0  0  0  0  0  0
    2.0261   -0.1877    1.5285 C   0  0  0  0  0  0  0  0  0  0  0  0
    1.1372   -0.8294    0.7866 C   0  0  0  0  0  0  0  0  0  0  0  0
    0.6151   -2.2022    1.0642 C   0  0  0  0  0  0  0  0  0  0  0  0
    2.4484   -0.6370    2.4211 H   0  0  0  0  0  0  0  0  0  0  0  0
    2.3644    0.8084    1.2723 H   0  0  0  0  0  0  0  0  0  0  0  0
    0.8277   -2.8753    0.2297 H   0  0  0  0  0  0  0  0  0  0  0  0
    1.0599   -2.6229    1.9669 H   0  0  0  0  0  0  0  0  0  0  0  0
   -0.4706   -2.1873    1.1902 H   0  0  0  0  0  0  0  0  0  0  0  0
  1  2  3  0
  1  5  1  0
  2  3  1  0
  3  4  1  0
  3  7  1  0
  4  8  1  0
  4  9  1  0
  4 10  1  0
  6 12  1  0
 11 12  2  3
 11 14  1  0
 11 15  1  0
 12 13  1  0
 13 16  1  0
 13 17  1  0
 13 18  1  0
M  RAD  1   3   2
M  END
>  <reaction>  (5) 
rxn_1275

>  <mol_properties>  (5) 
{"1": {"label": "*0", "atom_type": "Ct"}, "2": {"label": "*1", "atom_type": "Cs"}, "5": {"label": "*2", "atom_type": "H0"}, "10": {"label": "*4", "atom_type": "Cd"}, "11": {"label": "*3", "atom_type": "Cd"}}

>  <type>  (5) 
unop_1

>  <geom_source>  (5) 
Heuristics

$$$$

     RDKit          3D

 18 16  0  0  0  0  0  0  0  0999 V2000
   -1.0682    0.3773   -2.6994 C   0  0  0  0  0  0  0  0  0  0  0  0
   -1.0682    0.3773   -1.5017 C   0  0  0  0  0  0  0  0  0  0  0  0
   -1.0682    0.4056   -0.0426 C   0  0  0  0  0  3  0  0  0  0  0  0
   -1.0681    1.8269    0.5231 C   0  0  0  0  0  0  0  0  0  0  0  0
   -1.0682    0.3773   -3.7627 H   0  0  0  0  0  0  0  0  0  0  0  0
   -0.0176   -0.2485    0.3915 H   0  0  0  0  0  0  0  0  0  0  0  0
   -1.9437   -0.1395    0.3192 H   0  0  0  0  0  0  0  0  0  0  0  0
   -1.9504    2.3748    0.1916 H   0  0  0  0  0  0  0  0  0  0  0  0
   -1.0681    1.7997    1.6133 H   0  0  0  0  0  0  0  0  0  0  0  0
   -0.1859    2.3748    0.1916 H   0  0  0  0  0  0  0  0  0  0  0  0
    2.1205   -0.9170    0.0768 C   0  0  0  0  0  0  0  0  0  0  0  0
    1.0274   -0.8991    0.8232 C   0  0  0  0  0  0  0  0  0  0  0  0
    0.9741   -1.2327    2.2793 C   0  0  0  0  0  0  0  0  0  0  0  0
    3.0856   -1.1861    0.4929 H   0  0  0  0  0  0  0  0  0  0  0  0
    2.0920   -0.6641   -0.9756 H   0  0  0  0  0  0  0  0  0  0  0  0
    0.2963   -2.0706    2.4617 H   0  0  0  0  0  0  0  0  0  0  0  0
    1.9597   -1.4979    2.6638 H   0  0  0  0  0  0  0  0  0  0  0  0
    0.5947   -0.3868    2.8584 H   0  0  0  0  0  0  0  0  0  0  0  0
  1  2  3  0
  1  5  1  0
  2  3  1  0
  3  4  1  0
  3  7  1  0
  4  8  1  0
  4  9  1  0
  4 10  1  0
  6 12  1  0
 11 12  2  3
 11 14  1  0
 11 15  1  0
 12 13  1  0
 13 16  1  0
 13 17  1  0
 13 18  1  0
M  RAD  1   3   2
M  END
>  <reaction>  (6) 
rxn_1275

>  <mol_properties>  (6) 
{"1": {"label": "*0", "atom_type": "Ct"}, "2": {"label": "*1", "atom_type": "Cs"}, "5": {"label": "*2", "atom_type": "H0"}, "10": {"label": "*4", "atom_type": "Cd"}, "11": {"label": "*3", "atom_type": "Cd"}}

>  <type>  (6) 
unop_2

>  <geom_source>  (6) 
Heuristics

$$$$

     RDKit          3D

 18 16  0  0  0  0  0  0  0  0999 V2000
   -0.9787    0.4955   -2.6686 C   0  0  0  0  0  0  0  0  0  0  0  0
   -0.9787    0.4955   -1.4709 C   0  0  0  0  0  0  0  0  0  0  0  0
   -0.9787    0.5238   -0.0118 C   0  0  0  0  0  3  0  0  0  0  0  0
   -0.9787    1.9451    0.5538 C   0  0  0  0  0  0  0  0  0  0  0  0
   -0.9787    0.4955   -3.7319 H   0  0  0  0  0  0  0  0  0  0  0  0
    0.0719   -0.1304    0.4223 H   0  0  0  0  0  0  0  0  0  0  0  0
   -1.8542   -0.0213    0.3499 H   0  0  0  0  0  0  0  0  0  0  0  0
   -1.8609    2.4930    0.2224 H   0  0  0  0  0  0  0  0  0  0  0  0
   -0.9787    1.9178    1.6441 H   0  0  0  0  0  0  0  0  0  0  0  0
   -0.0964    2.4930    0.2224 H   0  0  0  0  0  0  0  0  0  0  0  0
    1.6639   -0.4178    2.0034 C   0  0  0  0  0  0  0  0  0  0  0  0
    1.1168   -0.7809    0.8540 C   0  0  0  0  0  0  0  0  0  0  0  0
    1.0384   -2.1836    0.3434 C   0  0  0  0  0  0  0  0  0  0  0  0
    2.1077   -1.1460    2.6741 H   0  0  0  0  0  0  0  0  0  0  0  0
    1.6888    0.6183    2.3166 H   0  0  0  0  0  0  0  0  0  0  0  0
    1.5472   -2.2759   -0.6195 H   0  0  0  0  0  0  0  0  0  0  0  0
    1.4930   -2.8878    1.0412 H   0  0  0  0  0  0  0  0  0  0  0  0
   -0.0010   -2.4811    0.1821 H   0  0  0  0  0  0  0  0  0  0  0  0
  1  2  3  0
  1  5  1  0
  2  3  1  0
  3  4  1  0
  3  7  1  0
  4  8  1  0
  4  9  1  0
  4 10  1  0
  6 12  1  0
 11 12  2  3
 11 14  1  0
 11 15  1  0
 12 13  1  0
 13 16  1  0
 13 17  1  0
 13 18  1  0
M  RAD  1   3   2
M  END
>  <reaction>  (7) 
rxn_1275

>  <mol_properties>  (7) 
{"1": {"label": "*0", "atom_type": "Ct"}, "2": {"label": "*1", "atom_type": "Cs"}, "5": {"label": "*2", "atom_type": "H0"}, "10": {"label": "*4", "atom_type": "Cd"}, "11": {"label": "*3", "atom_type": "Cd"}}

>  <type>  (7) 
unop_3

>  <geom_source>  (7) 
Heuristics

$$$$

     RDKit          3D

 18 16  0  0  0  0  0  0  0  0999 V2000
   -1.0065    0.4152   -2.7354 C   0  0  0  0  0  0  0  0  0  0  0  0
   -1.0065    0.4152   -1.5377 C   0  0  0  0  0  0  0  0  0  0  0  0
   -1.0065    0.4434   -0.0785 C   0  0  0  0  0  3  0  0  0  0  0  0
   -1.0065    1.8648    0.4871 C   0  0  0  0  0  0  0  0  0  0  0  0
   -1.0065    0.4152   -3.7987 H   0  0  0  0  0  0  0  0  0  0  0  0
    0.0441   -0.2107    0.3555 H   0  0  0  0  0  0  0  0  0  0  0  0
   -1.8820   -0.1017    0.2832 H   0  0  0  0  0  0  0  0  0  0  0  0
   -1.8887    2.4126    0.1556 H   0  0  0  0  0  0  0  0  0  0  0  0
   -1.0065    1.8375    1.5773 H   0  0  0  0  0  0  0  0  0  0  0  0
   -0.1242    2.4126    0.1556 H   0  0  0  0  0  0  0  0  0  0  0  0
    1.2215   -2.1390    0.4674 C   0  0  0  0  0  0  0  0  0  0  0  0
    1.0890   -0.8613    0.7872 C   0  0  0  0  0  0  0  0  0  0  0  0
    1.5674   -0.2385    2.0590 C   0  0  0  0  0  0  0  0  0  0  0  0
    1.7058   -2.8426    1.1363 H   0  0  0  0  0  0  0  0  0  0  0  0
    0.8520   -2.5289   -0.4727 H   0  0  0  0  0  0  0  0  0  0  0  0
    0.7367    0.2127    2.6076 H   0  0  0  0  0  0  0  0  0  0  0  0
    2.0481   -0.9730    2.7064 H   0  0  0  0  0  0  0  0  0  0  0  0
    2.2836    0.5616    1.8549 H   0  0  0  0  0  0  0  0  0  0  0  0
  1  2  3  0
  1  5  1  0
  2  3  1  0
  3  4  1  0
  3  7  1  0
  4  8  1  0
  4  9  1  0
  4 10  1  0
  6 12  1  0
 11 12  2  3
 11 14  1  0
 11 15  1  0
 12 13  1  0
 13 16  1  0
 13 17  1  0
 13 18  1  0
M  RAD  1   3   2
M  END
>  <reaction>  (8) 
rxn_1275

>  <mol_properties>  (8) 
{"1": {"label": "*0", "atom_type": "Ct"}, "2": {"label": "*1", "atom_type": "Cs"}, "5": {"label": "*2", "atom_type": "H0"}, "10": {"label": "*4", "atom_type": "Cd"}, "11": {"label": "*3", "atom_type": "Cd"}}

>  <type>  (8) 
unop_4

>  <geom_source>  (8) 
Heuristics

$$$$

     RDKit          3D

 18 16  0  0  0  0  0  0  0  0999 V2000
   -1.0849    0.4312   -2.6034 C   0  0  0  0  0  0  0  0  0  0  0  0
   -1.0849    0.4312   -1.4057 C   0  0  0  0  0  0  0  0  0  0  0  0
   -1.0849    0.4594    0.0534 C   0  0  0  0  0  3  0  0  0  0  0  0
   -1.0849    1.8808    0.6190 C   0  0  0  0  0  0  0  0  0  0  0  0
   -1.0849    0.4312   -3.6667 H   0  0  0  0  0  0  0  0  0  0  0  0
   -0.0343   -0.1947    0.4875 H   0  0  0  0  0  0  0  0  0  0  0  0
   -1.9604   -0.0857    0.4151 H   0  0  0  0  0  0  0  0  0  0  0  0
   -1.9671    2.4286    0.2876 H   0  0  0  0  0  0  0  0  0  0  0  0
   -1.0849    1.8535    1.7093 H   0  0  0  0  0  0  0  0  0  0  0  0
   -0.2026    2.4286    0.2876 H   0  0  0  0  0  0  0  0  0  0  0  0
    1.2061   -0.9433    2.2248 C   0  0  0  0  0  0  0  0  0  0  0  0
    1.0106   -0.8453    0.9192 C   0  0  0  0  0  0  0  0  0  0  0  0
    1.9015   -1.4274   -0.1304 C   0  0  0  0  0  0  0  0  0  0  0  0
    2.0606   -1.4743    2.6309 H   0  0  0  0  0  0  0  0  0  0  0  0
    0.5212   -0.4976    2.9351 H   0  0  0  0  0  0  0  0  0  0  0  0
    2.2878   -0.6459   -0.7898 H   0  0  0  0  0  0  0  0  0  0  0  0
    2.7486   -1.9530    0.3123 H   0  0  0  0  0  0  0  0  0  0  0  0
    1.3515   -2.1306   -0.7611 H   0  0  0  0  0  0  0  0  0  0  0  0
  1  2  3  0
  1  5  1  0
  2  3  1  0
  3  4  1  0
  3  7  1  0
  4  8  1  0
  4  9  1  0
  4 10  1  0
  6 12  1  0
 11 12  2  3
 11 14  1  0
 11 15  1  0
 12 13  1  0
 13 16  1  0
 13 17  1  0
 13 18  1  0
M  RAD  1   3   2
M  END
>  <reaction>  (9) 
rxn_1275

>  <mol_properties>  (9) 
{"1": {"label": "*0", "atom_type": "Ct"}, "2": {"label": "*1", "atom_type": "Cs"}, "5": {"label": "*2", "atom_type": "H0"}, "10": {"label": "*4", "atom_type": "Cd"}, "11": {"label": "*3", "atom_type": "Cd"}}

>  <type>  (9) 
unop_5

>  <geom_source>  (9) 
Heuristics

$$$$

     RDKit          3D

 18 16  0  0  0  0  0  0  0  0999 V2000
   -1.0114    0.3608   -2.7544 C   0  0  0  0  0  0  0  0  0  0  0  0
   -1.0114    0.3608   -1.5567 C   0  0  0  0  0  0  0  0  0  0  0  0
   -1.0114    0.3891   -0.0975 C   0  0  0  0  0  3  0  0  0  0  0  0
   -1.0113    1.8104    0.4681 C   0  0  0  0  0  0  0  0  0  0  0  0
   -1.0114    0.3608   -3.8177 H   0  0  0  0  0  0  0  0  0  0  0  0
    0.0392   -0.2650    0.3365 H   0  0  0  0  0  0  0  0  0  0  0  0
   -1.8869   -0.1560    0.2642 H   0  0  0  0  0  0  0  0  0  0  0  0
   -1.8936    2.3583    0.1366 H   0  0  0  0  0  0  0  0  0  0  0  0
   -1.0113    1.7832    1.5584 H   0  0  0  0  0  0  0  0  0  0  0  0
   -0.1291    2.3583    0.1366 H   0  0  0  0  0  0  0  0  0  0  0  0
    0.9762   -2.2148    0.9982 C   0  0  0  0  0  0  0  0  0  0  0  0
    1.0842   -0.9156    0.7682 C   0  0  0  0  0  0  0  0  0  0  0  0
    1.8178    0.0541    1.6375 C   0  0  0  0  0  0  0  0  0  0  0  0
    1.4324   -2.6754    1.8681 H   0  0  0  0  0  0  0  0  0  0  0  0
    0.4291   -2.8652    0.3275 H   0  0  0  0  0  0  0  0  0  0  0  0
    1.1465    0.8374    1.9989 H   0  0  0  0  0  0  0  0  0  0  0  0
    2.2630   -0.4421    2.5008 H   0  0  0  0  0  0  0  0  0  0  0  0
    2.6139    0.5525    1.0784 H   0  0  0  0  0  0  0  0  0  0  0  0
  1  2  3  0
  1  5  1  0
  2  3  1  0
  3  4  1  0
  3  7  1  0
  4  8  1  0
  4  9  1  0
  4 10  1  0
  6 12  1  0
 11 12  2  3
 11 14  1  0
 11 15  1  0
 12 13  1  0
 13 16  1  0
 13 17  1  0
 13 18  1  0
M  RAD  1   3   2
M  END
>  <reaction>  (10) 
rxn_1275

>  <mol_properties>  (10) 
{"1": {"label": "*0", "atom_type": "Ct"}, "2": {"label": "*1", "atom_type": "Cs"}, "5": {"label": "*2", "atom_type": "H0"}, "10": {"label": "*4", "atom_type": "Cd"}, "11": {"label": "*3", "atom_type": "Cd"}}

>  <type>  (10) 
unop_6

>  <geom_source>  (10) 
Heuristics

$$$$

     RDKit          3D

 18 16  0  0  0  0  0  0  0  0999 V2000
   -1.0470    0.3065   -2.7333 C   0  0  0  0  0  0  0  0  0  0  0  0
   -1.0470    0.3065   -1.5356 C   0  0  0  0  0  0  0  0  0  0  0  0
   -1.0470    0.3347   -0.0764 C   0  0  0  0  0  3  0  0  0  0  0  0
   -1.0470    1.7561    0.4892 C   0  0  0  0  0  0  0  0  0  0  0  0
   -1.0470    0.3065   -3.7966 H   0  0  0  0  0  0  0  0  0  0  0  0
    0.0036   -0.3194    0.3576 H   0  0  0  0  0  0  0  0  0  0  0  0
   -1.9225   -0.2103    0.2853 H   0  0  0  0  0  0  0  0  0  0  0  0
   -1.9292    2.3040    0.1577 H   0  0  0  0  0  0  0  0  0  0  0  0
   -1.0470    1.7288    1.5795 H   0  0  0  0  0  0  0  0  0  0  0  0
   -0.1647    2.3039    0.1577 H   0  0  0  0  0  0  0  0  0  0  0  0
    0.8658   -2.0277    1.5641 C   0  0  0  0  0  0  0  0  0  0  0  0
    1.0485   -0.9700    0.7894 C   0  0  0  0  0  0  0  0  0  0  0  0
    2.0667    0.0998    1.0197 C   0  0  0  0  0  0  0  0  0  0  0  0
    1.4688   -2.1905    2.4512 H   0  0  0  0  0  0  0  0  0  0  0  0
    0.1086   -2.7689    1.3415 H   0  0  0  0  0  0  0  0  0  0  0  0
    1.5874    1.0763    1.1271 H   0  0  0  0  0  0  0  0  0  0  0  0
    2.6538   -0.0954    1.9180 H   0  0  0  0  0  0  0  0  0  0  0  0
    2.7510    0.1747    0.1707 H   0  0  0  0  0  0  0  0  0  0  0  0
  1  2  3  0
  1  5  1  0
  2  3  1  0
  3  4  1  0
  3  7  1  0
  4  8  1  0
  4  9  1  0
  4 10  1  0
  6 12  1  0
 11 12  2  3
 11 14  1  0
 11 15  1  0
 12 13  1  0
 13 16  1  0
 13 17  1  0
 13 18  1  0
M  RAD  1   3   2
M  END
>  <reaction>  (11) 
rxn_1275

>  <mol_properties>  (11) 
{"1": {"label": "*0", "atom_type": "Ct"}, "2": {"label": "*1", "atom_type": "Cs"}, "5": {"label": "*2", "atom_type": "H0"}, "10": {"label": "*4", "atom_type": "Cd"}, "11": {"label": "*3", "atom_type": "Cd"}}

>  <type>  (11) 
unop_7

>  <geom_source>  (11) 
Heuristics

$$$$

     RDKit          3D

 18 16  0  0  0  0  0  0  0  0999 V2000
   -0.9924    0.3909   -2.7550 C   0  0  0  0  0  0  0  0  0  0  0  0
   -0.9924    0.3909   -1.5573 C   0  0  0  0  0  0  0  0  0  0  0  0
   -0.9924    0.4192   -0.0981 C   0  0  0  0  0  3  0  0  0  0  0  0
   -0.9924    1.8405    0.4675 C   0  0  0  0  0  0  0  0  0  0  0  0
   -0.9924    0.3909   -3.8183 H   0  0  0  0  0  0  0  0  0  0  0  0
    0.0582   -0.2350    0.3359 H   0  0  0  0  0  0  0  0  0  0  0  0
   -1.8679   -0.1259    0.2636 H   0  0  0  0  0  0  0  0  0  0  0  0
   -1.8746    2.3884    0.1360 H   0  0  0  0  0  0  0  0  0  0  0  0
   -0.9924    1.8132    1.5578 H   0  0  0  0  0  0  0  0  0  0  0  0
   -0.1101    2.3884    0.1360 H   0  0  0  0  0  0  0  0  0  0  0  0
    2.2326   -0.2223    0.9597 C   0  0  0  0  0  0  0  0  0  0  0  0
    1.1031   -0.8855    0.7677 C   0  0  0  0  0  0  0  0  0  0  0  0
    0.5598   -1.9408    1.6761 C   0  0  0  0  0  0  0  0  0  0  0  0
    2.8600   -0.4115    1.8243 H   0  0  0  0  0  0  0  0  0  0  0  0
    2.5718    0.5327    0.2617 H   0  0  0  0  0  0  0  0  0  0  0  0
    0.4436   -2.8891    1.1450 H   0  0  0  0  0  0  0  0  0  0  0  0
    1.2144   -2.1049    2.5330 H   0  0  0  0  0  0  0  0  0  0  0  0
   -0.4300   -1.6626    2.0472 H   0  0  0  0  0  0  0  0  0  0  0  0
  1  2  3  0
  1  5  1  0
  2  3  1  0
  3  4  1  0
  3  7  1  0
  4  8  1  0
  4  9  1  0
  4 10  1  0
  6 12  1  0
 11 12  2  3
 11 14  1  0
 11 15  1  0
 12 13  1  0
 13 16  1  0
 13 17  1  0
 13 18  1  0
M  RAD  1   3   2
M  END
>  <reaction>  (12) 
rxn_1275

>  <mol_properties>  (12) 
{"1": {"label": "*0", "atom_type": "Ct"}, "2": {"label": "*1", "atom_type": "Cs"}, "5": {"label": "*2", "atom_type": "H0"}, "10": {"label": "*4", "atom_type": "Cd"}, "11": {"label": "*3", "atom_type": "Cd"}}

>  <type>  (12) 
unop_8

>  <geom_source>  (12) 
Heuristics

$$$$

     RDKit          3D

 18 16  0  0  0  0  0  0  0  0999 V2000
   -1.0308    0.4366   -2.7006 C   0  0  0  0  0  0  0  0  0  0  0  0
   -1.0308    0.4366   -1.5029 C   0  0  0  0  0  0  0  0  0  0  0  0
   -1.0308    0.4648   -0.0437 C   0  0  0  0  0  3  0  0  0  0  0  0
   -1.0308    1.8862    0.5219 C   0  0  0  0  0  0  0  0  0  0  0  0
   -1.0308    0.4366   -3.7639 H   0  0  0  0  0  0  0  0  0  0  0  0
    0.0198   -0.1893    0.3904 H   0  0  0  0  0  0  0  0  0  0  0  0
   -1.9063   -0.0803    0.3180 H   0  0  0  0  0  0  0  0  0  0  0  0
   -1.9130    2.4341    0.1904 H   0  0  0  0  0  0  0  0  0  0  0  0
   -1.0308    1.8589    1.6122 H   0  0  0  0  0  0  0  0  0  0  0  0
   -0.1485    2.4340    0.1904 H   0  0  0  0  0  0  0  0  0  0  0  0
    1.5391   -1.8389    0.0946 C   0  0  0  0  0  0  0  0  0  0  0  0
    1.0647   -0.8399    0.8221 C   0  0  0  0  0  0  0  0  0  0  0  0
    1.3680   -0.6079    2.2672 C   0  0  0  0  0  0  0  0  0  0  0  0
    2.2052   -2.5823    0.5199 H   0  0  0  0  0  0  0  0  0  0  0  0
    1.2803   -1.9513   -0.9507 H   0  0  0  0  0  0  0  0  0  0  0  0
    0.4515   -0.6139    2.8628 H   0  0  0  0  0  0  0  0  0  0  0  0
    2.0390   -1.3721    2.6614 H   0  0  0  0  0  0  0  0  0  0  0  0
    1.8350    0.3694    2.4146 H   0  0  0  0  0  0  0  0  0  0  0  0
  1  2  3  0
  1  5  1  0
  2  3  1  0
  3  4  1  0
  3  7  1  0
  4  8  1  0
  4  9  1  0
  4 10  1  0
  6 12  1  0
 11 12  2  3
 11 14  1  0
 11 15  1  0
 12 13  1  0
 13 16  1  0
 13 17  1  0
 13 18  1  0
M  RAD  1   3   2
M  END
>  <reaction>  (13) 
rxn_1275

>  <mol_properties>  (13) 
{"1": {"label": "*0", "atom_type": "Ct"}, "2": {"label": "*1", "atom_type": "Cs"}, "5": {"label": "*2", "atom_type": "H0"}, "10": {"label": "*4", "atom_type": "Cd"}, "11": {"label": "*3", "atom_type": "Cd"}}

>  <type>  (13) 
unop_9

>  <geom_source>  (13) 
Heuristics

$$$$

     RDKit          3D

 18 16  0  0  0  0  0  0  0  0999 V2000
   -1.0389    0.3637   -2.7344 C   0  0  0  0  0  0  0  0  0  0  0  0
   -1.0389    0.3637   -1.5367 C   0  0  0  0  0  0  0  0  0  0  0  0
   -1.0389    0.3919   -0.0776 C   0  0  0  0  0  3  0  0  0  0  0  0
   -1.0389    1.8133    0.4881 C   0  0  0  0  0  0  0  0  0  0  0  0
   -1.0389    0.3637   -3.7977 H   0  0  0  0  0  0  0  0  0  0  0  0
    0.0116   -0.2622    0.3565 H   0  0  0  0  0  0  0  0  0  0  0  0
   -1.9145   -0.1531    0.2842 H   0  0  0  0  0  0  0  0  0  0  0  0
   -1.9212    2.3612    0.1566 H   0  0  0  0  0  0  0  0  0  0  0  0
   -1.0389    1.7860    1.5783 H   0  0  0  0  0  0  0  0  0  0  0  0
   -0.1567    2.3611    0.1566 H   0  0  0  0  0  0  0  0  0  0  0  0
    2.2607   -0.4910    0.4355 C   0  0  0  0  0  0  0  0  0  0  0  0
    1.0566   -0.9128    0.7882 C   0  0  0  0  0  0  0  0  0  0  0  0
    0.7232   -1.5773    2.0849 C   0  0  0  0  0  0  0  0  0  0  0  0
    3.1160   -0.6063    1.0931 H   0  0  0  0  0  0  0  0  0  0  0  0
    2.4368   -0.0158   -0.5213 H   0  0  0  0  0  0  0  0  0  0  0  0
    0.3066   -2.5736    1.9155 H   0  0  0  0  0  0  0  0  0  0  0  0
    1.6043   -1.6768    2.7200 H   0  0  0  0  0  0  0  0  0  0  0  0
   -0.0324   -1.0070    2.6312 H   0  0  0  0  0  0  0  0  0  0  0  0
  1  2  3  0
  1  5  1  0
  2  3  1  0
  3  4  1  0
  3  7  1  0
  4  8  1  0
  4  9  1  0
  4 10  1  0
  6 12  1  0
 11 12  2  3
 11 14  1  0
 11 15  1  0
 12 13  1  0
 13 16  1  0
 13 17  1  0
 13 18  1  0
M  RAD  1   3   2
M  END
>  <reaction>  (14) 
rxn_1275

>  <mol_properties>  (14) 
{"1": {"label": "*0", "atom_type": "Ct"}, "2": {"label": "*1", "atom_type": "Cs"}, "5": {"label": "*2", "atom_type": "H0"}, "10": {"label": "*4", "atom_type": "Cd"}, "11": {"label": "*3", "atom_type": "Cd"}}

>  <type>  (14) 
unop_10

>  <geom_source>  (14) 
Heuristics

$$$$

     RDKit          3D

 18 16  0  0  0  0  0  0  0  0999 V2000
   -1.0983    0.3058   -2.6650 C   0  0  0  0  0  0  0  0  0  0  0  0
   -1.0983    0.3058   -1.4673 C   0  0  0  0  0  0  0  0  0  0  0  0
   -1.0983    0.3341   -0.0081 C   0  0  0  0  0  3  0  0  0  0  0  0
   -1.0983    1.7554    0.5575 C   0  0  0  0  0  0  0  0  0  0  0  0
   -1.0983    0.3058   -3.7283 H   0  0  0  0  0  0  0  0  0  0  0  0
   -0.0477   -0.3200    0.4259 H   0  0  0  0  0  0  0  0  0  0  0  0
   -1.9738   -0.2110    0.3536 H   0  0  0  0  0  0  0  0  0  0  0  0
   -1.9805    2.3033    0.2260 H   0  0  0  0  0  0  0  0  0  0  0  0
   -1.0983    1.7282    1.6478 H   0  0  0  0  0  0  0  0  0  0  0  0
   -0.2160    2.3033    0.2260 H   0  0  0  0  0  0  0  0  0  0  0  0
    0.9255   -1.5887    2.0261 C   0  0  0  0  0  0  0  0  0  0  0  0
    0.9972   -0.9706    0.8577 C   0  0  0  0  0  0  0  0  0  0  0  0
    2.2198   -0.3100    0.3072 C   0  0  0  0  0  0  0  0  0  0  0  0
    1.7855   -1.6569    2.6840 H   0  0  0  0  0  0  0  0  0  0  0  0
    0.0070   -2.0486    2.3682 H   0  0  0  0  0  0  0  0  0  0  0  0
    2.0374    0.7513    0.1196 H   0  0  0  0  0  0  0  0  0  0  0  0
    3.0634   -0.3976    0.9930 H   0  0  0  0  0  0  0  0  0  0  0  0
    2.5057   -0.7559   -0.6489 H   0  0  0  0  0  0  0  0  0  0  0  0
  1  2  3  0
  1  5  1  0
  2  3  1  0
  3  4  1  0
  3  7  1  0
  4  8  1  0
  4  9  1  0
  4 10  1  0
  6 12  1  0
 11 12  2  3
 11 14  1  0
 11 15  1  0
 12 13  1  0
 13 16  1  0
 13 17  1  0
 13 18  1  0
M  RAD  1   3   2
M  END
>  <reaction>  (15) 
rxn_1275

>  <mol_properties>  (15) 
{"1": {"label": "*0", "atom_type": "Ct"}, "2": {"label": "*1", "atom_type": "Cs"}, "5": {"label": "*2", "atom_type": "H0"}, "10": {"label": "*4", "atom_type": "Cd"}, "11": {"label": "*3", "atom_type": "Cd"}}

>  <type>  (15) 
unop_11

>  <geom_source>  (15) 
Heuristics

$$$$

     RDKit          3D

 18 16  0  0  0  0  0  0  0  0999 V2000
   -1.0621    0.4152   -2.6827 C   0  0  0  0  0  0  0  0  0  0  0  0
   -1.0621    0.4152   -1.4850 C   0  0  0  0  0  0  0  0  0  0  0  0
   -1.0621    0.4435   -0.0258 C   0  0  0  0  0  3  0  0  0  0  0  0
   -1.0621    1.8649    0.5398 C   0  0  0  0  0  0  0  0  0  0  0  0
   -1.0621    0.4152   -3.7460 H   0  0  0  0  0  0  0  0  0  0  0  0
   -0.0115   -0.2106    0.4082 H   0  0  0  0  0  0  0  0  0  0  0  0
   -1.9376   -0.1016    0.3359 H   0  0  0  0  0  0  0  0  0  0  0  0
   -1.9443    2.4127    0.2083 H   0  0  0  0  0  0  0  0  0  0  0  0
   -1.0621    1.8376    1.6301 H   0  0  0  0  0  0  0  0  0  0  0  0
   -0.1798    2.4127    0.2083 H   0  0  0  0  0  0  0  0  0  0  0  0
    1.8594   -1.3992   -0.0436 C   0  0  0  0  0  0  0  0  0  0  0  0
    1.0334   -0.8612    0.8399 C   0  0  0  0  0  0  0  0  0  0  0  0
    1.1946   -0.9341    2.3242 C   0  0  0  0  0  0  0  0  0  0  0  0
    2.7413   -1.9492    0.2677 H   0  0  0  0  0  0  0  0  0  0  0  0
    1.6859   -1.3103   -1.1087 H   0  0  0  0  0  0  0  0  0  0  0  0
    0.3299   -1.4177    2.7859 H   0  0  0  0  0  0  0  0  0  0  0  0
    2.0893   -1.4930    2.6011 H   0  0  0  0  0  0  0  0  0  0  0  0
    1.2661    0.0669    2.7572 H   0  0  0  0  0  0  0  0  0  0  0  0
  1  2  3  0
  1  5  1  0
  2  3  1  0
  3  4  1  0
  3  7  1  0
  4  8  1  0
  4  9  1  0
  4 10  1  0
  6 12  1  0
 11 12  2  3
 11 14  1  0
 11 15  1  0
 12 13  1  0
 13 16  1  0
 13 17  1  0
 13 18  1  0
M  RAD  1   3   2
M  END
>  <reaction>  (16) 
rxn_1275

>  <mol_properties>  (16) 
{"1": {"label": "*0", "atom_type": "Ct"}, "2": {"label": "*1", "atom_type": "Cs"}, "5": {"label": "*2", "atom_type": "H0"}, "10": {"label": "*4", "atom_type": "Cd"}, "11": {"label": "*3", "atom_type": "Cd"}}

>  <type>  (16) 
unop_12

>  <geom_source>  (16) 
Heuristics

$$$$

     RDKit          3D

 18 16  0  0  0  0  0  0  0  0999 V2000
   -1.9844    0.5904    0.7675 C   0  0  0  0  0  0  0  0  0  0  0  0
    2.3138   -1.3296   -0.0626 C   0  0  0  0  0  0  0  0  0  0  0  0
   -1.3411   -0.1049   -0.3910 C   0  0  0  0  0  0  0  0  0  0  0  0
    1.0767   -0.5948    0.4328 C   0  0  0  0  0  3  0  0  0  0  0  0
   -1.9780   -0.2418   -1.5556 C   0  0  0  0  0  0  0  0  0  0  0  0
    1.2808    0.8571    0.3865 C   0  0  0  0  0  0  0  0  0  0  0  0
    1.4476    2.0505    0.3487 C   0  0  0  0  0  0  0  0  0  0  0  0
   -2.2245    1.6398    0.4947 H   0  0  0  0  0  0  0  0  0  0  0  0
   -1.2877    0.5938    1.6314 H   0  0  0  0  0  0  0  0  0  0  0  0
   -2.9160    0.0607    1.0585 H   0  0  0  0  0  0  0  0  0  0  0  0
    2.5358   -1.0417   -1.1123 H   0  0  0  0  0  0  0  0  0  0  0  0
    2.1286   -2.4233   -0.0275 H   0  0  0  0  0  0  0  0  0  0  0  0
    3.1892   -1.0933    0.5799 H   0  0  0  0  0  0  0  0  0  0  0  0
   -0.2058   -0.5578   -0.2667 H   0  0  0  0  0  0  0  0  0  0  0  0
    0.8440   -0.9023    1.4741 H   0  0  0  0  0  0  0  0  0  0  0  0
   -1.4915   -0.7498   -2.3814 H   0  0  0  0  0  0  0  0  0  0  0  0
   -2.9819    0.1489   -1.6925 H   0  0  0  0  0  0  0  0  0  0  0  0
    1.5943    3.0980    0.3154 H   0  0  0  0  0  0  0  0  0  0  0  0
  1  3  1  0
  1  8  1  0
  1  9  1  0
  1 10  1  0
  2  4  1  0
  2 11  1  0
  2 12  1  0
  2 13  1  0
  3  5  2  3
  3 14  1  0
  4  6  1  0
  4 15  1  0
  5 16  1  0
  5 17  1  0
  6  7  3  0
  7 18  1  0
M  RAD  1   4   2
M  END
>  <reaction>  (17) 
rxn_1275

>  <mol_properties>  (17) 
{"1": {"label": "*0", "atom_type": "Ct"}, "2": {"label": "*1", "atom_type": "Cs"}, "5": {"label": "*2", "atom_type": "H0"}, "10": {"label": "*4", "atom_type": "Cd"}, "11": {"label": "*3", "atom_type": "Cd"}}

>  <type>  (17) 
unop_13

>  <geom_source>  (17) 
AutoTST

$$$$
