
     RDKit          3D

 12 12  0  0  0  0  0  0  0  0999 V2000
   -1.2385    0.6248   -0.0199 C   0  0  0  0  0  0  0  0  0  0  0  0
   -0.0779    1.3848   -0.0298 C   0  0  0  0  0  0  0  0  0  0  0  0
    1.1605    0.7600   -0.0100 C   0  0  0  0  0  0  0  0  0  0  0  0
    1.2385   -0.6248    0.0199 C   0  0  0  0  0  0  0  0  0  0  0  0
    0.0779   -1.3848    0.0298 C   0  0  0  0  0  0  0  0  0  0  0  0
   -1.1606   -0.7600    0.0100 C   0  0  0  0  0  0  0  0  0  0  0  0
   -2.2052    1.1125   -0.0354 H   0  0  0  0  0  0  0  0  0  0  0  0
   -0.1387    2.4657   -0.0531 H   0  0  0  0  0  0  0  0  0  0  0  0
    2.0664    1.3532   -0.0177 H   0  0  0  0  0  0  0  0  0  0  0  0
    2.2052   -1.1125    0.0354 H   0  0  0  0  0  0  0  0  0  0  0  0
    0.1387   -2.4657    0.0531 H   0  0  0  0  0  0  0  0  0  0  0  0
   -2.0664   -1.3532    0.0177 H   0  0  0  0  0  0  0  0  0  0  0  0
  1  2  2  0
  1  6  1  0
  1  7  1  0
  2  3  1  0
  2  8  1  0
  3  4  2  0
  3  9  1  0
  4  5  1  0
  4 10  1  0
  5  6  2  0
  5 11  1  0
  6 12  1  0
M  END
>  <reaction>  (1) 
rxn_357

>  <mol_properties>  (1) 
{"5": {"label": "donator", "atom_type": "Cd"}, "11": {"label": "d_hydrogen", "atom_type": "H0"}}

>  <type>  (1) 
r1h

$$$$

     RDKit          3D

  2  1  0  0  0  0  0  0  0  0999 V2000
    0.0000    0.0000    0.4855 O   0  0  0  0  0  1  0  0  0  0  0  0
    0.0000    0.0000   -0.4855 H   0  0  0  0  0  0  0  0  0  0  0  0
  1  2  1  0
M  RAD  1   1   2
M  END
>  <reaction>  (2) 
rxn_357

>  <mol_properties>  (2) 
{"0": {"label": "acceptor", "atom_type": "O2s"}}

>  <type>  (2) 
r2

$$$$

     RDKit          3D

  3  2  0  0  0  0  0  0  0  0999 V2000
   -0.0003    0.3867    0.0000 O   0  0  0  0  0  0  0  0  0  0  0  0
   -0.7617   -0.1940    0.0000 H   0  0  0  0  0  0  0  0  0  0  0  0
    0.7620   -0.1927    0.0000 H   0  0  0  0  0  0  0  0  0  0  0  0
  1  2  1  0
  1  3  1  0
M  END
>  <reaction>  (3) 
rxn_357

>  <mol_properties>  (3) 
{"0": {"label": "acceptor", "atom_type": "O2s"}, "1": {"label": "a_hydrogen", "atom_type": "H0"}}

>  <type>  (3) 
r2h

$$$$

     RDKit          3D

 14 13  0  0  0  0  0  0  0  0999 V2000
    3.1084   -0.8938   -0.4466 O   0  0  0  0  0  1  0  0  0  0  0  0
   -1.8392    0.5286    0.2835 C   0  0  0  0  0  0  0  0  0  0  0  0
   -0.8454    1.4956    0.2323 C   0  0  0  0  0  0  0  0  0  0  0  0
   -1.5150   -0.8182    0.2023 C   0  0  0  0  0  0  0  0  0  0  0  0
    0.4862    1.1198    0.0981 C   0  0  0  0  0  0  0  0  0  0  0  0
   -0.1876   -1.2084    0.0680 C   0  0  0  0  0  0  0  0  0  0  0  0
    0.7774   -0.2254    0.0284 C   0  0  0  0  0  0  0  0  0  0  0  0
   -1.1041    2.5452    0.2961 H   0  0  0  0  0  0  0  0  0  0  0  0
   -2.8748    0.8269    0.3866 H   0  0  0  0  0  0  0  0  0  0  0  0
   -2.2946   -1.5686    0.2428 H   0  0  0  0  0  0  0  0  0  0  0  0
    1.2738    1.8609    0.0574 H   0  0  0  0  0  0  0  0  0  0  0  0
    0.0829   -2.2543    0.0041 H   0  0  0  0  0  0  0  0  0  0  0  0
    1.9569   -0.5657   -0.0504 H   0  0  0  0  0  0  0  0  0  0  0  0
    2.9750   -0.8428   -1.4026 H   0  0  0  0  0  0  0  0  0  0  0  0
  1 14  1  0
  2  3  2  0
  2  4  1  0
  2  9  1  0
  3  5  1  0
  3  8  1  0
  4  6  2  0
  4 10  1  0
  5  7  2  0
  5 11  1  0
  6  7  1  0
  6 12  1  0
  7 13  1  0
M  RAD  1   1   2
M  END
>  <reaction>  (4) 
rxn_357

>  <mol_properties>  (4) 
{"0": {"label": "*3", "atom_type": "O2s"}, "4": {"label": "*0", "atom_type": "Cd"}, "6": {"label": "*1", "atom_type": "Cd"}, "12": {"label": "*2", "atom_type": "H0"}, "13": {"label": "*4", "atom_type": "H0"}}

>  <type>  (4) 
ts

$$$$

     RDKit          3D

 14 13  0  0  0  0  0  0  0  0999 V2000
   -0.0085   -0.0048    3.1446 O   0  0  0  0  0  0  0  0  0  0  0  0
    0.7909    0.4567    3.3994 H   0  0  0  0  0  0  0  0  0  0  0  0
   -0.0085   -1.2063   -1.3848 C   0  0  0  0  0  0  0  0  0  0  0  0
   -0.0085   -1.2063    0.0025 C   0  0  0  0  0  0  0  0  0  0  0  0
   -0.0085   -0.0049    0.6961 C   0  0  0  0  0  3  0  0  0  0  0  0
   -0.0085    1.1965    0.0025 C   0  0  0  0  0  0  0  0  0  0  0  0
   -0.0085    1.1965   -1.3848 C   0  0  0  0  0  0  0  0  0  0  0  0
   -0.0085   -0.0049   -2.0785 C   0  0  0  0  0  0  0  0  0  0  0  0
   -0.0085   -2.1441   -1.9262 H   0  0  0  0  0  0  0  0  0  0  0  0
   -0.0085   -2.1441    0.5440 H   0  0  0  0  0  0  0  0  0  0  0  0
   -0.0085   -0.0049    1.9955 H   0  0  0  0  0  0  0  0  0  0  0  0
   -0.0085    2.1343    0.5439 H   0  0  0  0  0  0  0  0  0  0  0  0
   -0.0085    2.1343   -1.9263 H   0  0  0  0  0  0  0  0  0  0  0  0
   -0.0085   -0.0049   -3.1613 H   0  0  0  0  0  0  0  0  0  0  0  0
  1  2  1  0
  1 11  1  0
  3  8  2  0
  3  4  1  0
  3  9  1  0
  4  5  2  0
  4 10  1  0
  5  6  1  0
  6  7  2  0
  6 12  1  0
  7  8  1  0
  7 13  1  0
  8 14  1  0
M  RAD  1   5   2
M  END
>  <reaction>  (5) 
rxn_357

>  <mol_properties>  (5) 
{"0": {"label": "*3", "atom_type": "O2s"}, "4": {"label": "*0", "atom_type": "Cd"}, "6": {"label": "*1", "atom_type": "Cd"}, "12": {"label": "*2", "atom_type": "H0"}, "13": {"label": "*4", "atom_type": "H0"}}

>  <type>  (5) 
unop_1

>  <geom_source>  (5) 
Heuristics

$$$$

     RDKit          3D

 14 13  0  0  0  0  0  0  0  0999 V2000
   -0.0049    0.0085    3.1446 O   0  0  0  0  0  0  0  0  0  0  0  0
    0.4566   -0.7909    3.3994 H   0  0  0  0  0  0  0  0  0  0  0  0
   -0.0049   -1.1930   -1.3848 C   0  0  0  0  0  0  0  0  0  0  0  0
   -0.0049   -1.1930    0.0025 C   0  0  0  0  0  0  0  0  0  0  0  0
   -0.0049    0.0085    0.6961 C   0  0  0  0  0  3  0  0  0  0  0  0
   -0.0049    1.2099    0.0025 C   0  0  0  0  0  0  0  0  0  0  0  0
   -0.0049    1.2099   -1.3848 C   0  0  0  0  0  0  0  0  0  0  0  0
   -0.0049    0.0084   -2.0785 C   0  0  0  0  0  0  0  0  0  0  0  0
   -0.0049   -2.1308   -1.9262 H   0  0  0  0  0  0  0  0  0  0  0  0
   -0.0049   -2.1307    0.5440 H   0  0  0  0  0  0  0  0  0  0  0  0
   -0.0049    0.0085    1.9955 H   0  0  0  0  0  0  0  0  0  0  0  0
   -0.0049    2.1477    0.5439 H   0  0  0  0  0  0  0  0  0  0  0  0
   -0.0049    2.1476   -1.9263 H   0  0  0  0  0  0  0  0  0  0  0  0
   -0.0049    0.0084   -3.1613 H   0  0  0  0  0  0  0  0  0  0  0  0
  1  2  1  0
  1 11  1  0
  3  8  2  0
  3  4  1  0
  3  9  1  0
  4  5  2  0
  4 10  1  0
  5  6  1  0
  6  7  2  0
  6 12  1  0
  7  8  1  0
  7 13  1  0
  8 14  1  0
M  RAD  1   5   2
M  END
>  <reaction>  (6) 
rxn_357

>  <mol_properties>  (6) 
{"0": {"label": "*3", "atom_type": "O2s"}, "4": {"label": "*0", "atom_type": "Cd"}, "6": {"label": "*1", "atom_type": "Cd"}, "12": {"label": "*2", "atom_type": "H0"}, "13": {"label": "*4", "atom_type": "H0"}}

>  <type>  (6) 
unop_2

>  <geom_source>  (6) 
Heuristics

$$$$

     RDKit          3D

 14 13  0  0  0  0  0  0  0  0999 V2000
   -0.0049   -0.0084    3.1446 O   0  0  0  0  0  0  0  0  0  0  0  0
    0.4566    0.7910    3.3994 H   0  0  0  0  0  0  0  0  0  0  0  0
   -0.0049   -1.2099   -1.3848 C   0  0  0  0  0  0  0  0  0  0  0  0
   -0.0049   -1.2099    0.0025 C   0  0  0  0  0  0  0  0  0  0  0  0
   -0.0049   -0.0085    0.6961 C   0  0  0  0  0  3  0  0  0  0  0  0
   -0.0049    1.1930    0.0025 C   0  0  0  0  0  0  0  0  0  0  0  0
   -0.0049    1.1929   -1.3848 C   0  0  0  0  0  0  0  0  0  0  0  0
   -0.0049   -0.0085   -2.0785 C   0  0  0  0  0  0  0  0  0  0  0  0
   -0.0049   -2.1477   -1.9262 H   0  0  0  0  0  0  0  0  0  0  0  0
   -0.0049   -2.1477    0.5440 H   0  0  0  0  0  0  0  0  0  0  0  0
   -0.0049   -0.0084    1.9955 H   0  0  0  0  0  0  0  0  0  0  0  0
   -0.0049    2.1308    0.5439 H   0  0  0  0  0  0  0  0  0  0  0  0
   -0.0049    2.1307   -1.9263 H   0  0  0  0  0  0  0  0  0  0  0  0
   -0.0049   -0.0085   -3.1613 H   0  0  0  0  0  0  0  0  0  0  0  0
  1  2  1  0
  1 11  1  0
  3  8  2  0
  3  4  1  0
  3  9  1  0
  4  5  2  0
  4 10  1  0
  5  6  1  0
  6  7  2  0
  6 12  1  0
  7  8  1  0
  7 13  1  0
  8 14  1  0
M  RAD  1   5   2
M  END
>  <reaction>  (7) 
rxn_357

>  <mol_properties>  (7) 
{"0": {"label": "*3", "atom_type": "O2s"}, "4": {"label": "*0", "atom_type": "Cd"}, "6": {"label": "*1", "atom_type": "Cd"}, "12": {"label": "*2", "atom_type": "H0"}, "13": {"label": "*4", "atom_type": "H0"}}

>  <type>  (7) 
unop_3

>  <geom_source>  (7) 
Heuristics

$$$$

     RDKit          3D

 14 13  0  0  0  0  0  0  0  0999 V2000
    0.0085    0.0049    3.1446 O   0  0  0  0  0  0  0  0  0  0  0  0
   -0.7909   -0.4566    3.3994 H   0  0  0  0  0  0  0  0  0  0  0  0
    0.0085   -1.1965   -1.3848 C   0  0  0  0  0  0  0  0  0  0  0  0
    0.0085   -1.1965    0.0025 C   0  0  0  0  0  0  0  0  0  0  0  0
    0.0085    0.0049    0.6961 C   0  0  0  0  0  3  0  0  0  0  0  0
    0.0085    1.2063    0.0025 C   0  0  0  0  0  0  0  0  0  0  0  0
    0.0085    1.2063   -1.3848 C   0  0  0  0  0  0  0  0  0  0  0  0
    0.0085    0.0049   -2.0785 C   0  0  0  0  0  0  0  0  0  0  0  0
    0.0085   -2.1343   -1.9262 H   0  0  0  0  0  0  0  0  0  0  0  0
    0.0085   -2.1343    0.5440 H   0  0  0  0  0  0  0  0  0  0  0  0
    0.0085    0.0049    1.9955 H   0  0  0  0  0  0  0  0  0  0  0  0
    0.0085    2.1441    0.5439 H   0  0  0  0  0  0  0  0  0  0  0  0
    0.0085    2.1441   -1.9263 H   0  0  0  0  0  0  0  0  0  0  0  0
    0.0085    0.0048   -3.1613 H   0  0  0  0  0  0  0  0  0  0  0  0
  1  2  1  0
  1 11  1  0
  3  8  2  0
  3  4  1  0
  3  9  1  0
  4  5  2  0
  4 10  1  0
  5  6  1  0
  6  7  2  0
  6 12  1  0
  7  8  1  0
  7 13  1  0
  8 14  1  0
M  RAD  1   5   2
M  END
>  <reaction>  (8) 
rxn_357

>  <mol_properties>  (8) 
{"0": {"label": "*3", "atom_type": "O2s"}, "4": {"label": "*0", "atom_type": "Cd"}, "6": {"label": "*1", "atom_type": "Cd"}, "12": {"label": "*2", "atom_type": "H0"}, "13": {"label": "*4", "atom_type": "H0"}}

>  <type>  (8) 
unop_4

>  <geom_source>  (8) 
Heuristics

$$$$

     RDKit          3D

 14 13  0  0  0  0  0  0  0  0999 V2000
    0.0000   -0.0097    3.1446 O   0  0  0  0  0  0  0  0  0  0  0  0
    0.0000    0.9133    3.3994 H   0  0  0  0  0  0  0  0  0  0  0  0
   -0.0000   -1.2112   -1.3848 C   0  0  0  0  0  0  0  0  0  0  0  0
   -0.0000   -1.2112    0.0025 C   0  0  0  0  0  0  0  0  0  0  0  0
    0.0000   -0.0098    0.6961 C   0  0  0  0  0  3  0  0  0  0  0  0
    0.0000    1.1917    0.0025 C   0  0  0  0  0  0  0  0  0  0  0  0
    0.0000    1.1916   -1.3848 C   0  0  0  0  0  0  0  0  0  0  0  0
   -0.0000   -0.0098   -2.0785 C   0  0  0  0  0  0  0  0  0  0  0  0
   -0.0000   -2.1490   -1.9262 H   0  0  0  0  0  0  0  0  0  0  0  0
   -0.0000   -2.1490    0.5440 H   0  0  0  0  0  0  0  0  0  0  0  0
    0.0000   -0.0098    1.9955 H   0  0  0  0  0  0  0  0  0  0  0  0
    0.0000    2.1294    0.5439 H   0  0  0  0  0  0  0  0  0  0  0  0
    0.0000    2.1294   -1.9263 H   0  0  0  0  0  0  0  0  0  0  0  0
   -0.0000   -0.0098   -3.1613 H   0  0  0  0  0  0  0  0  0  0  0  0
  1  2  1  0
  1 11  1  0
  3  8  2  0
  3  4  1  0
  3  9  1  0
  4  5  2  0
  4 10  1  0
  5  6  1  0
  6  7  2  0
  6 12  1  0
  7  8  1  0
  7 13  1  0
  8 14  1  0
M  RAD  1   5   2
M  END
>  <reaction>  (9) 
rxn_357

>  <mol_properties>  (9) 
{"0": {"label": "*3", "atom_type": "O2s"}, "4": {"label": "*0", "atom_type": "Cd"}, "6": {"label": "*1", "atom_type": "Cd"}, "12": {"label": "*2", "atom_type": "H0"}, "13": {"label": "*4", "atom_type": "H0"}}

>  <type>  (9) 
unop_5

>  <geom_source>  (9) 
Heuristics

$$$$

     RDKit          3D

 14 13  0  0  0  0  0  0  0  0999 V2000
    0.0098    0.0001    3.1446 O   0  0  0  0  0  0  0  0  0  0  0  0
   -0.9133    0.0001    3.3994 H   0  0  0  0  0  0  0  0  0  0  0  0
    0.0098   -1.2014   -1.3848 C   0  0  0  0  0  0  0  0  0  0  0  0
    0.0098   -1.2014    0.0025 C   0  0  0  0  0  0  0  0  0  0  0  0
    0.0098    0.0000    0.6961 C   0  0  0  0  0  3  0  0  0  0  0  0
    0.0098    1.2014    0.0025 C   0  0  0  0  0  0  0  0  0  0  0  0
    0.0098    1.2014   -1.3848 C   0  0  0  0  0  0  0  0  0  0  0  0
    0.0098   -0.0000   -2.0785 C   0  0  0  0  0  0  0  0  0  0  0  0
    0.0098   -2.1392   -1.9262 H   0  0  0  0  0  0  0  0  0  0  0  0
    0.0098   -2.1392    0.5440 H   0  0  0  0  0  0  0  0  0  0  0  0
    0.0098    0.0000    1.9955 H   0  0  0  0  0  0  0  0  0  0  0  0
    0.0098    2.1392    0.5439 H   0  0  0  0  0  0  0  0  0  0  0  0
    0.0098    2.1392   -1.9263 H   0  0  0  0  0  0  0  0  0  0  0  0
    0.0098   -0.0001   -3.1613 H   0  0  0  0  0  0  0  0  0  0  0  0
  1  2  1  0
  1 11  1  0
  3  8  2  0
  3  4  1  0
  3  9  1  0
  4  5  2  0
  4 10  1  0
  5  6  1  0
  6  7  2  0
  6 12  1  0
  7  8  1  0
  7 13  1  0
  8 14  1  0
M  RAD  1   5   2
M  END
>  <reaction>  (10) 
rxn_357

>  <mol_properties>  (10) 
{"0": {"label": "*3", "atom_type": "O2s"}, "4": {"label": "*0", "atom_type": "Cd"}, "6": {"label": "*1", "atom_type": "Cd"}, "12": {"label": "*2", "atom_type": "H0"}, "13": {"label": "*4", "atom_type": "H0"}}

>  <type>  (10) 
unop_6

>  <geom_source>  (10) 
Heuristics

$$$$

     RDKit          3D

 14 13  0  0  0  0  0  0  0  0999 V2000
    0.0085   -0.0048    3.1446 O   0  0  0  0  0  0  0  0  0  0  0  0
   -0.7909    0.4567    3.3994 H   0  0  0  0  0  0  0  0  0  0  0  0
    0.0085   -1.2063   -1.3848 C   0  0  0  0  0  0  0  0  0  0  0  0
    0.0085   -1.2063    0.0025 C   0  0  0  0  0  0  0  0  0  0  0  0
    0.0085   -0.0049    0.6961 C   0  0  0  0  0  3  0  0  0  0  0  0
    0.0085    1.1965    0.0025 C   0  0  0  0  0  0  0  0  0  0  0  0
    0.0085    1.1965   -1.3848 C   0  0  0  0  0  0  0  0  0  0  0  0
    0.0085   -0.0049   -2.0785 C   0  0  0  0  0  0  0  0  0  0  0  0
    0.0085   -2.1441   -1.9262 H   0  0  0  0  0  0  0  0  0  0  0  0
    0.0085   -2.1441    0.5440 H   0  0  0  0  0  0  0  0  0  0  0  0
    0.0085   -0.0049    1.9955 H   0  0  0  0  0  0  0  0  0  0  0  0
    0.0085    2.1343    0.5439 H   0  0  0  0  0  0  0  0  0  0  0  0
    0.0085    2.1343   -1.9263 H   0  0  0  0  0  0  0  0  0  0  0  0
    0.0085   -0.0049   -3.1613 H   0  0  0  0  0  0  0  0  0  0  0  0
  1  2  1  0
  1 11  1  0
  3  8  2  0
  3  4  1  0
  3  9  1  0
  4  5  2  0
  4 10  1  0
  5  6  1  0
  6  7  2  0
  6 12  1  0
  7  8  1  0
  7 13  1  0
  8 14  1  0
M  RAD  1   5   2
M  END
>  <reaction>  (11) 
rxn_357

>  <mol_properties>  (11) 
{"0": {"label": "*3", "atom_type": "O2s"}, "4": {"label": "*0", "atom_type": "Cd"}, "6": {"label": "*1", "atom_type": "Cd"}, "12": {"label": "*2", "atom_type": "H0"}, "13": {"label": "*4", "atom_type": "H0"}}

>  <type>  (11) 
unop_7

>  <geom_source>  (11) 
Heuristics

$$$$

     RDKit          3D

 14 13  0  0  0  0  0  0  0  0999 V2000
   -0.0098    0.0001    3.1446 O   0  0  0  0  0  0  0  0  0  0  0  0
    0.9133    0.0001    3.3994 H   0  0  0  0  0  0  0  0  0  0  0  0
   -0.0098   -1.2014   -1.3848 C   0  0  0  0  0  0  0  0  0  0  0  0
   -0.0098   -1.2014    0.0025 C   0  0  0  0  0  0  0  0  0  0  0  0
   -0.0098    0.0000    0.6961 C   0  0  0  0  0  3  0  0  0  0  0  0
   -0.0098    1.2014    0.0025 C   0  0  0  0  0  0  0  0  0  0  0  0
   -0.0098    1.2014   -1.3848 C   0  0  0  0  0  0  0  0  0  0  0  0
   -0.0098   -0.0000   -2.0785 C   0  0  0  0  0  0  0  0  0  0  0  0
   -0.0098   -2.1392   -1.9262 H   0  0  0  0  0  0  0  0  0  0  0  0
   -0.0098   -2.1392    0.5440 H   0  0  0  0  0  0  0  0  0  0  0  0
   -0.0098    0.0000    1.9955 H   0  0  0  0  0  0  0  0  0  0  0  0
   -0.0098    2.1392    0.5439 H   0  0  0  0  0  0  0  0  0  0  0  0
   -0.0098    2.1392   -1.9263 H   0  0  0  0  0  0  0  0  0  0  0  0
   -0.0098   -0.0001   -3.1613 H   0  0  0  0  0  0  0  0  0  0  0  0
  1  2  1  0
  1 11  1  0
  3  8  2  0
  3  4  1  0
  3  9  1  0
  4  5  2  0
  4 10  1  0
  5  6  1  0
  6  7  2  0
  6 12  1  0
  7  8  1  0
  7 13  1  0
  8 14  1  0
M  RAD  1   5   2
M  END
>  <reaction>  (12) 
rxn_357

>  <mol_properties>  (12) 
{"0": {"label": "*3", "atom_type": "O2s"}, "4": {"label": "*0", "atom_type": "Cd"}, "6": {"label": "*1", "atom_type": "Cd"}, "12": {"label": "*2", "atom_type": "H0"}, "13": {"label": "*4", "atom_type": "H0"}}

>  <type>  (12) 
unop_8

>  <geom_source>  (12) 
Heuristics

$$$$

     RDKit          3D

 14 13  0  0  0  0  0  0  0  0999 V2000
    0.0049    0.0085    3.1446 O   0  0  0  0  0  0  0  0  0  0  0  0
   -0.4566   -0.7909    3.3994 H   0  0  0  0  0  0  0  0  0  0  0  0
    0.0049   -1.1930   -1.3848 C   0  0  0  0  0  0  0  0  0  0  0  0
    0.0049   -1.1930    0.0025 C   0  0  0  0  0  0  0  0  0  0  0  0
    0.0049    0.0085    0.6961 C   0  0  0  0  0  3  0  0  0  0  0  0
    0.0049    1.2099    0.0025 C   0  0  0  0  0  0  0  0  0  0  0  0
    0.0049    1.2099   -1.3848 C   0  0  0  0  0  0  0  0  0  0  0  0
    0.0049    0.0084   -2.0785 C   0  0  0  0  0  0  0  0  0  0  0  0
    0.0049   -2.1308   -1.9262 H   0  0  0  0  0  0  0  0  0  0  0  0
    0.0049   -2.1307    0.5440 H   0  0  0  0  0  0  0  0  0  0  0  0
    0.0049    0.0085    1.9955 H   0  0  0  0  0  0  0  0  0  0  0  0
    0.0049    2.1477    0.5439 H   0  0  0  0  0  0  0  0  0  0  0  0
    0.0049    2.1476   -1.9263 H   0  0  0  0  0  0  0  0  0  0  0  0
    0.0049    0.0084   -3.1613 H   0  0  0  0  0  0  0  0  0  0  0  0
  1  2  1  0
  1 11  1  0
  3  8  2  0
  3  4  1  0
  3  9  1  0
  4  5  2  0
  4 10  1  0
  5  6  1  0
  6  7  2  0
  6 12  1  0
  7  8  1  0
  7 13  1  0
  8 14  1  0
M  RAD  1   5   2
M  END
>  <reaction>  (13) 
rxn_357

>  <mol_properties>  (13) 
{"0": {"label": "*3", "atom_type": "O2s"}, "4": {"label": "*0", "atom_type": "Cd"}, "6": {"label": "*1", "atom_type": "Cd"}, "12": {"label": "*2", "atom_type": "H0"}, "13": {"label": "*4", "atom_type": "H0"}}

>  <type>  (13) 
unop_9

>  <geom_source>  (13) 
Heuristics

$$$$

     RDKit          3D

 14 13  0  0  0  0  0  0  0  0999 V2000
   -0.0085    0.0049    3.1446 O   0  0  0  0  0  0  0  0  0  0  0  0
    0.7909   -0.4566    3.3994 H   0  0  0  0  0  0  0  0  0  0  0  0
   -0.0085   -1.1965   -1.3848 C   0  0  0  0  0  0  0  0  0  0  0  0
   -0.0085   -1.1965    0.0025 C   0  0  0  0  0  0  0  0  0  0  0  0
   -0.0085    0.0049    0.6961 C   0  0  0  0  0  3  0  0  0  0  0  0
   -0.0085    1.2063    0.0025 C   0  0  0  0  0  0  0  0  0  0  0  0
   -0.0085    1.2063   -1.3848 C   0  0  0  0  0  0  0  0  0  0  0  0
   -0.0085    0.0049   -2.0785 C   0  0  0  0  0  0  0  0  0  0  0  0
   -0.0085   -2.1343   -1.9262 H   0  0  0  0  0  0  0  0  0  0  0  0
   -0.0085   -2.1343    0.5440 H   0  0  0  0  0  0  0  0  0  0  0  0
   -0.0085    0.0049    1.9955 H   0  0  0  0  0  0  0  0  0  0  0  0
   -0.0085    2.1441    0.5439 H   0  0  0  0  0  0  0  0  0  0  0  0
   -0.0085    2.1441   -1.9263 H   0  0  0  0  0  0  0  0  0  0  0  0
   -0.0085    0.0048   -3.1613 H   0  0  0  0  0  0  0  0  0  0  0  0
  1  2  1  0
  1 11  1  0
  3  8  2  0
  3  4  1  0
  3  9  1  0
  4  5  2  0
  4 10  1  0
  5  6  1  0
  6  7  2  0
  6 12  1  0
  7  8  1  0
  7 13  1  0
  8 14  1  0
M  RAD  1   5   2
M  END
>  <reaction>  (14) 
rxn_357

>  <mol_properties>  (14) 
{"0": {"label": "*3", "atom_type": "O2s"}, "4": {"label": "*0", "atom_type": "Cd"}, "6": {"label": "*1", "atom_type": "Cd"}, "12": {"label": "*2", "atom_type": "H0"}, "13": {"label": "*4", "atom_type": "H0"}}

>  <type>  (14) 
unop_10

>  <geom_source>  (14) 
Heuristics

$$$$

     RDKit          3D

 14 13  0  0  0  0  0  0  0  0999 V2000
    0.0049   -0.0084    3.1446 O   0  0  0  0  0  0  0  0  0  0  0  0
   -0.4566    0.7910    3.3994 H   0  0  0  0  0  0  0  0  0  0  0  0
    0.0049   -1.2099   -1.3848 C   0  0  0  0  0  0  0  0  0  0  0  0
    0.0049   -1.2099    0.0025 C   0  0  0  0  0  0  0  0  0  0  0  0
    0.0049   -0.0085    0.6961 C   0  0  0  0  0  3  0  0  0  0  0  0
    0.0049    1.1930    0.0025 C   0  0  0  0  0  0  0  0  0  0  0  0
    0.0049    1.1929   -1.3848 C   0  0  0  0  0  0  0  0  0  0  0  0
    0.0049   -0.0085   -2.0785 C   0  0  0  0  0  0  0  0  0  0  0  0
    0.0049   -2.1477   -1.9262 H   0  0  0  0  0  0  0  0  0  0  0  0
    0.0049   -2.1477    0.5440 H   0  0  0  0  0  0  0  0  0  0  0  0
    0.0049   -0.0084    1.9955 H   0  0  0  0  0  0  0  0  0  0  0  0
    0.0049    2.1308    0.5439 H   0  0  0  0  0  0  0  0  0  0  0  0
    0.0049    2.1307   -1.9263 H   0  0  0  0  0  0  0  0  0  0  0  0
    0.0049   -0.0085   -3.1613 H   0  0  0  0  0  0  0  0  0  0  0  0
  1  2  1  0
  1 11  1  0
  3  8  2  0
  3  4  1  0
  3  9  1  0
  4  5  2  0
  4 10  1  0
  5  6  1  0
  6  7  2  0
  6 12  1  0
  7  8  1  0
  7 13  1  0
  8 14  1  0
M  RAD  1   5   2
M  END
>  <reaction>  (15) 
rxn_357

>  <mol_properties>  (15) 
{"0": {"label": "*3", "atom_type": "O2s"}, "4": {"label": "*0", "atom_type": "Cd"}, "6": {"label": "*1", "atom_type": "Cd"}, "12": {"label": "*2", "atom_type": "H0"}, "13": {"label": "*4", "atom_type": "H0"}}

>  <type>  (15) 
unop_11

>  <geom_source>  (15) 
Heuristics

$$$$

     RDKit          3D

 14 13  0  0  0  0  0  0  0  0999 V2000
    0.0000    0.0098    3.1446 O   0  0  0  0  0  0  0  0  0  0  0  0
   -0.0000   -0.9132    3.3994 H   0  0  0  0  0  0  0  0  0  0  0  0
   -0.0000   -1.1917   -1.3848 C   0  0  0  0  0  0  0  0  0  0  0  0
   -0.0000   -1.1917    0.0025 C   0  0  0  0  0  0  0  0  0  0  0  0
    0.0000    0.0098    0.6961 C   0  0  0  0  0  3  0  0  0  0  0  0
    0.0000    1.2112    0.0025 C   0  0  0  0  0  0  0  0  0  0  0  0
    0.0000    1.2112   -1.3848 C   0  0  0  0  0  0  0  0  0  0  0  0
   -0.0000    0.0098   -2.0785 C   0  0  0  0  0  0  0  0  0  0  0  0
   -0.0000   -2.1294   -1.9262 H   0  0  0  0  0  0  0  0  0  0  0  0
   -0.0000   -2.1294    0.5440 H   0  0  0  0  0  0  0  0  0  0  0  0
    0.0000    0.0098    1.9955 H   0  0  0  0  0  0  0  0  0  0  0  0
    0.0000    2.1490    0.5439 H   0  0  0  0  0  0  0  0  0  0  0  0
    0.0000    2.1490   -1.9263 H   0  0  0  0  0  0  0  0  0  0  0  0
   -0.0000    0.0097   -3.1613 H   0  0  0  0  0  0  0  0  0  0  0  0
  1  2  1  0
  1 11  1  0
  3  8  2  0
  3  4  1  0
  3  9  1  0
  4  5  2  0
  4 10  1  0
  5  6  1  0
  6  7  2  0
  6 12  1  0
  7  8  1  0
  7 13  1  0
  8 14  1  0
M  RAD  1   5   2
M  END
>  <reaction>  (16) 
rxn_357

>  <mol_properties>  (16) 
{"0": {"label": "*3", "atom_type": "O2s"}, "4": {"label": "*0", "atom_type": "Cd"}, "6": {"label": "*1", "atom_type": "Cd"}, "12": {"label": "*2", "atom_type": "H0"}, "13": {"label": "*4", "atom_type": "H0"}}

>  <type>  (16) 
unop_12

>  <geom_source>  (16) 
Heuristics

$$$$

     RDKit          3D

 14 13  0  0  0  0  0  0  0  0999 V2000
    2.6495    0.0117    0.0700 O   0  0  0  0  0  0  0  0  0  0  0  0
   -1.5948    0.1087    0.8596 C   0  0  0  0  0  0  0  0  0  0  0  0
   -1.0257    1.2960    0.3859 C   0  0  0  0  0  0  0  0  0  0  0  0
   -1.1152   -1.1257    0.4079 C   0  0  0  0  0  0  0  0  0  0  0  0
    0.0228    1.2482   -0.5393 C   0  0  0  0  0  0  0  0  0  0  0  0
   -0.0667   -1.1722   -0.5173 C   0  0  0  0  0  0  0  0  0  0  0  0
    0.5016    0.0144   -0.9903 C   0  0  0  0  0  3  0  0  0  0  0  0
   -1.3964    2.2510    0.7350 H   0  0  0  0  0  0  0  0  0  0  0  0
   -2.4059    0.1452    1.5753 H   0  0  0  0  0  0  0  0  0  0  0  0
   -1.5552   -2.0443    0.7740 H   0  0  0  0  0  0  0  0  0  0  0  0
    0.4651    2.1641   -0.9077 H   0  0  0  0  0  0  0  0  0  0  0  0
    0.3066   -2.1248   -0.8687 H   0  0  0  0  0  0  0  0  0  0  0  0
    3.4024   -0.5889   -0.1602 H   0  0  0  0  0  0  0  0  0  0  0  0
    1.8121   -0.1831   -0.8241 H   0  0  0  0  0  0  0  0  0  0  0  0
  1 13  1  0
  1 14  1  0
  2  3  2  0
  2  4  1  0
  2  9  1  0
  3  5  1  0
  3  8  1  0
  4  6  2  0
  4 10  1  0
  5  7  2  0
  5 11  1  0
  6  7  1  0
  6 12  1  0
M  RAD  1   7   2
M  END
>  <reaction>  (17) 
rxn_357

>  <mol_properties>  (17) 
{"0": {"label": "*3", "atom_type": "O2s"}, "4": {"label": "*0", "atom_type": "Cd"}, "6": {"label": "*1", "atom_type": "Cd"}, "12": {"label": "*2", "atom_type": "H0"}, "13": {"label": "*4", "atom_type": "H0"}}

>  <type>  (17) 
unop_13

>  <geom_source>  (17) 
AutoTST

$$$$
